39231
     RDKit          3D

 23 24  0  0  1  0  0  0  0  0999 V2000
    0.0875   -0.9259   -0.9781 O   0  0  0  0  0  0  0  0  0  0  0  0
    0.7277   -2.2227    0.8197 O   0  0  0  0  0  0  0  0  0  0  0  0
   -0.2682    3.9946   -1.1560 N   0  0  0  0  0  0  0  0  0  0  0  0
    0.3340    0.2608   -0.2085 C   0  0  0  0  0  0  0  0  0  0  0  0
   -0.0070    1.4948   -1.1401 C   0  0  0  0  0  0  0  0  0  0  0  0
   -0.5919    0.2113    1.0491 C   0  0  0  0  0  0  0  0  0  0  0  0
    1.8090    0.3024    0.2255 C   0  0  0  0  0  0  0  0  0  0  0  0
    0.2060    2.8411   -0.3940 C   0  0  0  0  0  0  0  0  0  0  0  0
    0.7997    1.4915   -2.4539 C   0  0  0  0  0  0  0  0  0  0  0  0
   -2.0812    0.1671    0.7647 C   0  0  0  0  0  0  0  0  0  0  0  0
    2.1191    0.8985    1.4219 C   0  0  0  0  0  0  0  0  0  0  0  0
    2.7475   -0.2583   -0.6038 C   0  0  0  0  0  0  0  0  0  0  0  0
    0.3292   -2.1021   -0.3306 C   0  0  0  0  0  0  0  0  0  0  0  0
   -2.7807    1.3547    0.6578 C   0  0  0  0  0  0  0  0  0  0  0  0
   -2.7017   -1.0597    0.6202 C   0  0  0  0  0  0  0  0  0  0  0  0
    3.4568    0.9364    1.8153 C   0  0  0  0  0  0  0  0  0  0  0  0
    4.0853   -0.2204   -0.2104 C   0  0  0  0  0  0  0  0  0  0  0  0
    0.0224   -3.2444   -1.2704 C   0  0  0  0  0  0  0  0  0  0  0  0
    4.4399    0.3770    0.9992 C   0  0  0  0  0  0  0  0  0  0  0  0
   -4.1504    1.3140    0.3968 C   0  0  0  0  0  0  0  0  0  0  0  0
   -4.0714   -1.1004    0.3591 C   0  0  0  0  0  0  0  0  0  0  0  0
   -4.7957    0.0865    0.2475 C   0  0  0  0  0  0  0  0  0  0  0  0
    0.2843   -4.5968   -0.6309 C   0  0  0  0  0  0  0  0  0  0  0  0
  1  4  1  0
  1 13  1  0
  2 13  2  0
  3  8  1  0
  4  5  1  0
  4  6  1  0
  4  7  1  0
  5  8  1  0
  5  9  1  0
  6 10  1  0
  7 11  2  0
  7 12  1  0
 10 14  2  0
 10 15  1  0
 11 16  1  0
 12 17  2  0
 13 18  1  0
 14 20  1  0
 15 21  2  0
 16 19  2  0
 17 19  1  0
 18 23  1  0
 20 22  2  0
 21 22  1  0
M  END
>  <PUBCHEM_COMPOUND_CID>  (1) 
39231

>  <PUBCHEM_CONFORMER_RMSD>  (1) 
0.8

>  <PUBCHEM_CONFORMER_DIVERSEORDER>  (1) 
1
14
15
17
16
13
2
11
10
18
9
7
5
12
4
8
6
3

>  <PUBCHEM_MMFF94_PARTIAL_CHARGES>  (1) 
32
1 -0.43
10 -0.14
11 -0.15
12 -0.15
13 0.66
14 -0.15
15 -0.15
16 -0.15
17 -0.15
18 0.06
19 -0.15
2 -0.57
20 -0.15
21 -0.15
22 -0.15
3 -0.99
32 0.15
33 0.15
34 0.36
35 0.36
36 0.15
37 0.15
38 0.15
39 0.15
4 0.42
42 0.15
43 0.15
44 0.15
45 0.15
6 0.14
7 -0.14
8 0.27

>  <PUBCHEM_EFFECTIVE_ROTOR_COUNT>  (1) 
8

>  <PUBCHEM_PHARMACOPHORE_FEATURES>  (1) 
7
1 2 acceptor
1 23 hydrophobe
1 3 cation
1 3 donor
1 9 hydrophobe
6 10 14 15 20 21 22 rings
6 7 11 12 16 17 19 rings

>  <PUBCHEM_HEAVY_ATOM_COUNT>  (1) 
23

>  <PUBCHEM_ATOM_DEF_STEREO_COUNT>  (1) 
0

>  <PUBCHEM_ATOM_UDEF_STEREO_COUNT>  (1) 
2

>  <PUBCHEM_BOND_DEF_STEREO_COUNT>  (1) 
0

>  <PUBCHEM_BOND_UDEF_STEREO_COUNT>  (1) 
0

>  <PUBCHEM_ISOTOPIC_ATOM_COUNT>  (1) 
0

>  <PUBCHEM_COMPONENT_COUNT>  (1) 
1

>  <PUBCHEM_CACTVS_TAUTO_COUNT>  (1) 
1

>  <PUBCHEM_CONFORMER_ID>  (1) 
0000993F00000001

>  <PUBCHEM_MMFF94_ENERGY>  (1) 
72.4697

>  <PUBCHEM_FEATURE_SELFOVERLAP>  (1) 
35.52

>  <PUBCHEM_SHAPE_FINGERPRINT>  (1) 
10756046 70 17969504999027977254
10906281 52 18042708151254871553
11370993 70 18273492381707000123
11578080 2 17762073046550622628
12422481 6 18118950404785306066
12633257 1 17822015328589391769
12839892 36 18267851809731559690
13134695 92 17967812812010324765
13140716 1 18193850451535328145
14081887 123 18192706757015150969
14142880 1 17550918809526950616
14178342 30 18269854076793728337
14223421 5 18123188996034213713
14787075 74 17416957512237342217
14790565 3 18337963375895010444
14863182 85 18338251396343403255
14943834 7 17616251824328421508
15420108 30 18200017470179198235
1601671 61 18261114062479151708
16945 1 15791735247353772352
17349148 13 18261396680523506395
17980427 23 18187646946538421717
192875 21 18336263565478023925
19591789 44 18270399382816158630
200 152 15285348506067126296
20028762 73 18129662053464707799
20197701 30 18202557393220174787
20905425 154 18120656829414211866
21033648 29 18131061679778255881
21285901 2 17897723168103640861
21330990 113 18338800009542704236
22182313 1 17826801326643505853
229495 10 17770199588493848557
23227448 37 17770770518665506128
23402539 116 18335695027587651209
23419403 2 16833436460823010075
23557571 272 17969792865084926509
23558518 356 17760920049615618122
23559900 14 18267307517036320270
3250762 1 17760926238621072484
350125 39 18266741277860935578
484985 159 14712787571030459184
59554788 191 18335700611219014405
633830 44 17632578227570870297
6442390 28 18342454829317138906
6992083 37 18192700361839859086
7364860 26 18056766425122802835
81228 2 17980734337268898330
9925002 15 17978223090975022997
9999458 23 18131632283357986688

>  <PUBCHEM_SHAPE_MULTIPOLES>  (1) 
456.61
6.99
3.89
1.57
2.8
3.16
-0.44
-1.38
3.06
0.19
-1.97
-0.95
-0.64
0.3

>  <PUBCHEM_SHAPE_SELFOVERLAP>  (1) 
960.802

>  <PUBCHEM_SHAPE_VOLUME>  (1) 
253.9

>  <PUBCHEM_COORDINATE_TYPE>  (1) 
2
5
10

$$$$
