39237
     RDKit          3D

 14 15  0  0  1  0  0  0  0  0999 V2000
   -0.7362   -0.6967    1.7007 S   0  0  0  0  0  0  0  0  0  0  0  0
   -4.3663    0.1411    0.0096 O   0  0  0  0  0  0  0  0  0  0  0  0
   -2.7666    1.6771   -0.5175 O   0  0  0  0  0  0  0  0  0  0  0  0
   -0.8953   -0.2335   -0.9209 N   0  0  0  0  0  0  0  0  0  0  0  0
   -0.1607    0.2507    0.2535 C   0  0  0  0  0  0  0  0  0  0  0  0
   -2.2247   -0.6802   -0.5044 C   0  0  0  0  0  0  0  0  0  0  0  0
   -2.0860   -1.4838    0.7828 C   0  0  0  0  0  0  0  0  0  0  0  0
    1.3385    0.1643    0.0826 C   0  0  0  0  0  0  0  0  0  0  0  0
   -3.1145    0.5178   -0.3488 C   0  0  0  0  0  0  0  0  0  0  0  0
    2.1715    1.0812    0.7276 C   0  0  0  0  0  0  0  0  0  0  0  0
    1.8962   -0.8324   -0.7214 C   0  0  0  0  0  0  0  0  0  0  0  0
    3.5552    1.0016    0.5695 C   0  0  0  0  0  0  0  0  0  0  0  0
    3.2797   -0.9121   -0.8793 C   0  0  0  0  0  0  0  0  0  0  0  0
    4.1093    0.0048   -0.2338 C   0  0  0  0  0  0  0  0  0  0  0  0
  1  5  1  0
  1  7  1  0
  2  9  1  0
  3  9  2  0
  4  5  1  0
  4  6  1  0
  5  8  1  0
  6  7  1  0
  6  9  1  0
  8 10  2  0
  8 11  1  0
 10 12  1  0
 11 13  2  0
 12 14  2  0
 13 14  1  0
M  END
>  <PUBCHEM_COMPOUND_CID>  (1) 
39237

>  <PUBCHEM_CONFORMER_RMSD>  (1) 
0.6

>  <PUBCHEM_CONFORMER_DIVERSEORDER>  (1) 
1
13
19
5
3
11
7
16
8
12
15
6
20
10
9
2
14
17
18
4

>  <PUBCHEM_MMFF94_PARTIAL_CHARGES>  (1) 
21
1 -0.46
10 -0.15
11 -0.15
12 -0.15
13 -0.15
14 -0.15
19 0.36
2 -0.65
20 0.15
21 0.15
22 0.15
23 0.15
24 0.15
25 0.5
3 -0.57
4 -0.9
5 0.64
6 0.33
7 0.23
8 -0.14
9 0.66

>  <PUBCHEM_EFFECTIVE_ROTOR_COUNT>  (1) 
3

>  <PUBCHEM_PHARMACOPHORE_FEATURES>  (1) 
7
1 2 acceptor
1 3 acceptor
1 4 cation
1 4 donor
3 2 3 9 anion
5 1 4 5 6 7 rings
6 8 10 11 12 13 14 rings

>  <PUBCHEM_HEAVY_ATOM_COUNT>  (1) 
14

>  <PUBCHEM_ATOM_DEF_STEREO_COUNT>  (1) 
0

>  <PUBCHEM_ATOM_UDEF_STEREO_COUNT>  (1) 
2

>  <PUBCHEM_BOND_DEF_STEREO_COUNT>  (1) 
0

>  <PUBCHEM_BOND_UDEF_STEREO_COUNT>  (1) 
0

>  <PUBCHEM_ISOTOPIC_ATOM_COUNT>  (1) 
0

>  <PUBCHEM_COMPONENT_COUNT>  (1) 
1

>  <PUBCHEM_CACTVS_TAUTO_COUNT>  (1) 
1

>  <PUBCHEM_CONFORMER_ID>  (1) 
0000994500000001

>  <PUBCHEM_MMFF94_ENERGY>  (1) 
29.0105

>  <PUBCHEM_FEATURE_SELFOVERLAP>  (1) 
35.576

>  <PUBCHEM_SHAPE_FINGERPRINT>  (1) 
10608611 8 18413102887865989560
10922523 26 18342457049461952692
11471102 20 17917992785072763764
124424 183 18411699872648184610
12500047 106 18333448755196539162
12932764 1 18272094928350777246
13296908 3 18342461469162700050
13538477 17 15502382265418823298
13571099 22 17632579344568042934
13581323 91 16660358194934884258
14144814 61 15719388460345952954
14943859 89 17748828514070463859
14993402 34 15339119060854671828
15219456 202 18341614853777966290
15279307 12 15936407862086554786
15279308 16 18337388352634974064
15375358 24 18412259558405316474
15775835 57 16008745822762175386
16945 1 17240756302672451359
18175812 5 18410293653058054150
18186145 218 18335698312789083733
18619055 16 17275100643619586022
19026448 4 18412828018416884074
200 152 16774078453607949570
20201158 50 18343867705916875654
20279233 1 18412548725631764786
20361792 2 14549011091830129753
20645477 56 18335701671569644697
20645477 70 17917997140164620022
20653085 51 18341615897571258809
20671657 53 17632024039825174620
23402539 116 18041549317132121375
23402655 69 17918272021833839292
23557571 272 18043538423845289722
23559900 14 18186240628770366746
276578 36 17168423757602261993
4028521 119 18335410232596108637
474 4 14563960151148738878
69090 78 18413384354505875935
74978 22 16805613632503545436
77492 1 15985111816318378314

>  <PUBCHEM_SHAPE_MULTIPOLES>  (1) 
275.24
7.29
1.3
1.16
0.3
0.1
0.36
1.02
-1.01
-0.25
0.05
-0.07
-0.22
0.95

>  <PUBCHEM_SHAPE_SELFOVERLAP>  (1) 
567.555

>  <PUBCHEM_SHAPE_VOLUME>  (1) 
158.4

>  <PUBCHEM_COORDINATE_TYPE>  (1) 
2
5
10

$$$$
