39256
     RDKit          3D

 22 24  0  0  1  0  0  0  0  0999 V2000
   -0.8852   -0.3190    2.0992 O   0  0  0  0  0  0  0  0  0  0  0  0
    0.2871   -2.3350    0.3050 O   0  0  0  0  0  0  0  0  0  0  0  0
    1.2843   -0.3284   -0.4361 N   0  0  0  0  0  0  0  0  0  0  0  0
    4.8160   -1.4712   -0.7242 N   0  0  0  0  0  0  0  0  0  0  0  0
   -0.7927   -0.1582    0.6974 C   0  0  0  0  0  0  0  0  0  0  0  0
   -0.2518    1.1906    0.3032 C   0  0  0  0  0  0  0  0  0  0  0  0
    0.9650    1.0342   -0.3632 C   0  0  0  0  0  0  0  0  0  0  0  0
    0.3003   -1.1186    0.1778 C   0  0  0  0  0  0  0  0  0  0  0  0
   -2.1109   -0.4769    0.0806 C   0  0  0  0  0  0  0  0  0  0  0  0
    2.4745   -0.8527   -1.0631 C   0  0  0  0  0  0  0  0  0  0  0  0
   -0.7822    2.4515    0.5214 C   0  0  0  0  0  0  0  0  0  0  0  0
    1.6810    2.1191   -0.8387 C   0  0  0  0  0  0  0  0  0  0  0  0
    3.6342   -0.9134   -0.0797 C   0  0  0  0  0  0  0  0  0  0  0  0
   -2.2392   -0.5267   -1.3081 C   0  0  0  0  0  0  0  0  0  0  0  0
   -3.2197   -0.7257    0.8909 C   0  0  0  0  0  0  0  0  0  0  0  0
   -0.0726    3.5579    0.0478 C   0  0  0  0  0  0  0  0  0  0  0  0
    1.1482    3.3927   -0.6277 C   0  0  0  0  0  0  0  0  0  0  0  0
    0.3485   -0.0276    2.7476 C   0  0  0  0  0  0  0  0  0  0  0  0
   -3.4734   -0.8249   -1.8855 C   0  0  0  0  0  0  0  0  0  0  0  0
   -4.4539   -1.0239    0.3135 C   0  0  0  0  0  0  0  0  0  0  0  0
   -4.5808   -1.0736   -1.0747 C   0  0  0  0  0  0  0  0  0  0  0  0
    5.9235   -1.5703    0.2165 C   0  0  0  0  0  0  0  0  0  0  0  0
  1  5  1  0
  1 18  1  0
  2  8  2  0
  3  7  1  0
  3  8  1  0
  3 10  1  0
  4 13  1  0
  4 22  1  0
  5  6  1  0
  5  8  1  0
  5  9  1  0
  6  7  2  0
  6 11  1  0
  7 12  1  0
  9 14  2  0
  9 15  1  0
 10 13  1  0
 11 16  2  0
 12 17  2  0
 14 19  1  0
 15 20  2  0
 16 17  1  0
 19 21  2  0
 20 21  1  0
M  END
>  <PUBCHEM_COMPOUND_CID>  (1) 
39256

>  <PUBCHEM_CONFORMER_RMSD>  (1) 
0.8

>  <PUBCHEM_CONFORMER_DIVERSEORDER>  (1) 
2
19
15
5
14
12
16
13
7
11
17
3
8
18
10
1
6
9
4

>  <PUBCHEM_MMFF94_PARTIAL_CHARGES>  (1) 
32
1 -0.56
10 0.3
11 -0.15
12 -0.15
13 0.27
14 -0.15
15 -0.15
16 -0.15
17 -0.15
18 0.28
19 -0.15
2 -0.57
20 -0.15
21 -0.15
22 0.27
25 0.15
26 0.15
29 0.15
3 -0.48
30 0.15
31 0.15
32 0.15
36 0.36
37 0.15
38 0.15
39 0.15
4 -0.9
5 0.63
6 -0.14
7 0.12
8 0.57
9 -0.14

>  <PUBCHEM_EFFECTIVE_ROTOR_COUNT>  (1) 
5.4

>  <PUBCHEM_PHARMACOPHORE_FEATURES>  (1) 
7
1 1 acceptor
1 2 acceptor
1 4 cation
1 4 donor
5 3 5 6 7 8 rings
6 6 7 11 12 16 17 rings
6 9 14 15 19 20 21 rings

>  <PUBCHEM_HEAVY_ATOM_COUNT>  (1) 
22

>  <PUBCHEM_ATOM_DEF_STEREO_COUNT>  (1) 
0

>  <PUBCHEM_ATOM_UDEF_STEREO_COUNT>  (1) 
1

>  <PUBCHEM_BOND_DEF_STEREO_COUNT>  (1) 
0

>  <PUBCHEM_BOND_UDEF_STEREO_COUNT>  (1) 
0

>  <PUBCHEM_ISOTOPIC_ATOM_COUNT>  (1) 
0

>  <PUBCHEM_COMPONENT_COUNT>  (1) 
1

>  <PUBCHEM_CACTVS_TAUTO_COUNT>  (1) 
1

>  <PUBCHEM_CONFORMER_ID>  (1) 
0000995800000002

>  <PUBCHEM_MMFF94_ENERGY>  (1) 
63.9846

>  <PUBCHEM_FEATURE_SELFOVERLAP>  (1) 
35.607

>  <PUBCHEM_SHAPE_FINGERPRINT>  (1) 
10863032 1 18051420861776265695
10930396 42 17972847455127992080
11045515 52 18334293145661210908
11101153 10 18410581682920171964
11265709 11 18411703171035420500
11578080 2 17632000992941682841
12553582 1 18268454406728277526
13004483 165 18340756040845004222
13009979 54 17845944025745783443
13083527 12 18273495689243307164
13134695 92 18338797921983286236
13140716 1 18339372863712536816
13149001 5 18115593797348520474
13583140 156 14403797367601090836
13590594 115 18337118878103519201
13911987 19 18188227467313990158
14840074 17 18131070485125675220
167882 2 18192714677245847476
16945 1 17967808362397234507
1813 80 18130239189282884590
18186145 218 17604147129430987113
19010151 120 18343312452323205266
200 152 18334014960861797526
20600515 1 18130516305057894958
20602899 9 16515697619185292538
20626108 58 17987506160353664559
20671657 53 18412830191612203414
21029758 11 18408887343268419860
21041028 32 18411992355647609141
21304303 282 17535734201374650996
22112679 90 17987259801008434337
22224240 67 9223221962603580087
23175994 123 18334299768490218455
232386 152 16415200130635098583
23402539 116 18339923719090364854
23419403 2 18116411774350183116
23493267 7 13695588875628885905
23526113 38 17824271607421139648
23559900 14 17240771713764091878
25 1 17977670028411311557
283562 15 18337671889375354314
3009799 131 18187918474228073286
3286 77 18188500180388221751
34934 24 18047195150675173241
7471813 234 18342454867550176557
77492 1 17559696094886608857

>  <PUBCHEM_SHAPE_MULTIPOLES>  (1) 
431.05
7.91
3.08
1.65
4.72
3.79
0.84
-7.65
-2.33
1.91
-0.41
-0.77
-0.26
-0.4

>  <PUBCHEM_SHAPE_SELFOVERLAP>  (1) 
935.353

>  <PUBCHEM_SHAPE_VOLUME>  (1) 
238.2

>  <PUBCHEM_COORDINATE_TYPE>  (1) 
2
5
10

$$$$
