39258
     RDKit          3D

 23 25  0  0  1  0  0  0  0  0999 V2000
   -1.1905   -0.3139    2.1013 O   0  0  0  0  0  0  0  0  0  0  0  0
    0.1864   -2.2315    0.3450 O   0  0  0  0  0  0  0  0  0  0  0  0
    0.9971   -0.1486   -0.4129 N   0  0  0  0  0  0  0  0  0  0  0  0
    4.6200   -0.9504   -0.6096 N   0  0  0  0  0  0  0  0  0  0  0  0
   -1.0987   -0.1621    0.6985 C   0  0  0  0  0  0  0  0  0  0  0  0
   -0.6836    1.2270    0.2917 C   0  0  0  0  0  0  0  0  0  0  0  0
    0.5496    1.1784   -0.3610 C   0  0  0  0  0  0  0  0  0  0  0  0
    0.0858   -1.0209    0.2020 C   0  0  0  0  0  0  0  0  0  0  0  0
    2.2382   -0.5653   -1.0216 C   0  0  0  0  0  0  0  0  0  0  0  0
   -2.3741   -0.6118    0.0734 C   0  0  0  0  0  0  0  0  0  0  0  0
   -1.3332    2.4345    0.4882 C   0  0  0  0  0  0  0  0  0  0  0  0
    1.1648    2.3204   -0.8439 C   0  0  0  0  0  0  0  0  0  0  0  0
    3.3695   -0.5123    0.0009 C   0  0  0  0  0  0  0  0  0  0  0  0
   -2.4821   -0.6905   -1.3159 C   0  0  0  0  0  0  0  0  0  0  0  0
   -3.4630   -0.9556    0.8762 C   0  0  0  0  0  0  0  0  0  0  0  0
   -0.7265    3.5973    0.0069 C   0  0  0  0  0  0  0  0  0  0  0  0
    0.5116    3.5402   -0.6547 C   0  0  0  0  0  0  0  0  0  0  0  0
    0.0031    0.1010    2.7575 C   0  0  0  0  0  0  0  0  0  0  0  0
   -3.6761   -1.1116   -1.9011 C   0  0  0  0  0  0  0  0  0  0  0  0
   -4.6570   -1.3768    0.2908 C   0  0  0  0  0  0  0  0  0  0  0  0
    5.7087   -0.9154    0.3563 C   0  0  0  0  0  0  0  0  0  0  0  0
   -4.7635   -1.4548   -1.0979 C   0  0  0  0  0  0  0  0  0  0  0  0
    7.0134   -1.3773   -0.2701 C   0  0  0  0  0  0  0  0  0  0  0  0
  1  5  1  0
  1 18  1  0
  2  8  2  0
  3  7  1  0
  3  8  1  0
  3  9  1  0
  4 13  1  0
  4 21  1  0
  5  6  1  0
  5  8  1  0
  5 10  1  0
  6  7  2  0
  6 11  1  0
  7 12  1  0
  9 13  1  0
 10 14  2  0
 10 15  1  0
 11 16  2  0
 12 17  2  0
 14 19  1  0
 15 20  2  0
 16 17  1  0
 19 22  2  0
 20 22  1  0
 21 23  1  0
M  END
>  <PUBCHEM_COMPOUND_CID>  (1) 
39258

>  <PUBCHEM_CONFORMER_RMSD>  (1) 
0.8

>  <PUBCHEM_CONFORMER_DIVERSEORDER>  (1) 
1
28
17
32
31
29
27
12
20
10
19
33
4
11
18
22
15
3
14
21
26
24
13
23
9
16
7
5
25
30
8
2
6

>  <PUBCHEM_MMFF94_PARTIAL_CHARGES>  (1) 
32
1 -0.56
10 -0.14
11 -0.15
12 -0.15
13 0.27
14 -0.15
15 -0.15
16 -0.15
17 -0.15
18 0.28
19 -0.15
2 -0.57
20 -0.15
21 0.27
22 -0.15
26 0.15
27 0.15
3 -0.48
30 0.15
31 0.15
32 0.15
33 0.15
34 0.36
38 0.15
39 0.15
4 -0.9
42 0.15
5 0.63
6 -0.14
7 0.12
8 0.57
9 0.3

>  <PUBCHEM_EFFECTIVE_ROTOR_COUNT>  (1) 
6.4

>  <PUBCHEM_PHARMACOPHORE_FEATURES>  (1) 
7
1 1 acceptor
1 2 acceptor
1 4 cation
1 4 donor
5 3 5 6 7 8 rings
6 10 14 15 19 20 22 rings
6 6 7 11 12 16 17 rings

>  <PUBCHEM_HEAVY_ATOM_COUNT>  (1) 
23

>  <PUBCHEM_ATOM_DEF_STEREO_COUNT>  (1) 
0

>  <PUBCHEM_ATOM_UDEF_STEREO_COUNT>  (1) 
1

>  <PUBCHEM_BOND_DEF_STEREO_COUNT>  (1) 
0

>  <PUBCHEM_BOND_UDEF_STEREO_COUNT>  (1) 
0

>  <PUBCHEM_ISOTOPIC_ATOM_COUNT>  (1) 
0

>  <PUBCHEM_COMPONENT_COUNT>  (1) 
1

>  <PUBCHEM_CACTVS_TAUTO_COUNT>  (1) 
1

>  <PUBCHEM_CONFORMER_ID>  (1) 
0000995A00000001

>  <PUBCHEM_MMFF94_ENERGY>  (1) 
59.5489

>  <PUBCHEM_FEATURE_SELFOVERLAP>  (1) 
35.607

>  <PUBCHEM_SHAPE_FINGERPRINT>  (1) 
10366900 7 18186524281311340658
10411042 1 18409733984058785117
10930396 42 17973410422182317200
11036077 3 9079118873366057684
11045515 52 18334009497267602621
11101153 10 18410017659114364692
11265709 11 18410856568414490100
11578080 2 17703779336996438993
11823591 26 8862949346505304966
12553582 1 18267328528101060006
12788726 201 18188762856351191234
13004483 165 18341038666851571846
13009979 54 17916874641956135051
13134695 92 18338517572388272901
13583140 156 15051450445398878882
13782708 43 18059858304182812158
13911987 19 18115605845190845590
14142880 1 18057055613580936385
14508225 48 18335697239369565828
14840074 17 18131351964249530236
15131766 46 15507220103891634164
16087824 20 18194402187767989589
167882 2 18120094150244508836
16945 1 17967805089822033003
17980427 23 17703522072180253857
1813 80 18202015333976684135
200 152 18260829285078843878
20600515 1 18129955575502267422
21041028 32 18411708707570408085
21304303 282 17606950698944970821
22224240 67 9727632826066784903
23175994 123 18261395576384679839
23402539 116 18411699863810544654
23419403 2 17345447393191054601
23526113 38 17751366307145635769
23559900 14 17241051015366044460
25 1 17905048410857479885
25147074 1 18265072313372672540
266924 87 18190453853621412246
2748010 2 17109623877293881541
283562 15 18337389331919166034
3009799 131 18187355541290984374
3380486 145 18126585434866268824
34934 24 18118969096662267289
57527295 17 17822836624915302563
5969126 39 18411975837361352348
7471813 234 18340486763211333053

>  <PUBCHEM_SHAPE_MULTIPOLES>  (1) 
451.63
9.88
3.12
1.6
15.75
4.23
0.81
-10.04
-2.43
-0.18
-0.58
-1.05
-0.24
-0.54

>  <PUBCHEM_SHAPE_SELFOVERLAP>  (1) 
972.906

>  <PUBCHEM_SHAPE_VOLUME>  (1) 
251.1

>  <PUBCHEM_COORDINATE_TYPE>  (1) 
2
5
10

$$$$
