39252
     RDKit          3D

 33 35  0  0  1  0  0  0  0  0999 V2000
    1.6540    3.7599    2.5095 Cl  0  0  0  0  0  0  0  0  0  0  0  0
    1.5591    6.8255   -1.9137 Cl  0  0  0  0  0  0  0  0  0  0  0  0
   -3.3545   -0.9669    1.3079 O   0  0  0  0  0  0  0  0  0  0  0  0
    2.5836    0.5162   -0.2161 O   0  0  0  0  0  0  0  0  0  0  0  0
    2.3712   -1.1268    1.3605 O   0  0  0  0  0  0  0  0  0  0  0  0
   -6.4928   -1.1964   -0.6114 N   0  0  0  0  0  0  0  0  0  0  0  0
    3.6565   -1.4054   -0.5761 N   0  0  0  0  0  0  0  0  0  0  0  0
   -5.6235   -1.0554    0.5562 C   0  0  0  0  0  0  0  0  0  0  0  0
   -6.2473   -2.4734   -1.2803 C   0  0  0  0  0  0  0  0  0  0  0  0
   -7.8974   -1.0868   -0.2190 C   0  0  0  0  0  0  0  0  0  0  0  0
   -4.1608   -1.1251    0.1478 C   0  0  0  0  0  0  0  0  0  0  0  0
    1.7312    1.3632    0.5743 C   0  0  0  0  0  0  0  0  0  0  0  0
    0.3869    0.7478    0.7682 C   0  0  0  0  0  0  0  0  0  0  0  0
    1.6870    2.7646   -0.0274 C   0  0  0  0  0  0  0  0  0  0  0  0
   -2.1190   -0.4015    1.1293 C   0  0  0  0  0  0  0  0  0  0  0  0
   -7.0986   -2.6107   -2.5311 C   0  0  0  0  0  0  0  0  0  0  0  0
   -8.1710    0.2351    0.4781 C   0  0  0  0  0  0  0  0  0  0  0  0
   -0.2916    0.9192    1.9747 C   0  0  0  0  0  0  0  0  0  0  0  0
   -0.1918   -0.0002   -0.2573 C   0  0  0  0  0  0  0  0  0  0  0  0
   -1.5488    0.3426    2.1559 C   0  0  0  0  0  0  0  0  0  0  0  0
   -1.4490   -0.5768   -0.0760 C   0  0  0  0  0  0  0  0  0  0  0  0
    1.6507    3.8760    0.7874 C   0  0  0  0  0  0  0  0  0  0  0  0
    1.6852    2.8601   -1.4044 C   0  0  0  0  0  0  0  0  0  0  0  0
    1.6109    5.1408    0.2005 C   0  0  0  0  0  0  0  0  0  0  0  0
    1.6453    4.1249   -1.9912 C   0  0  0  0  0  0  0  0  0  0  0  0
    1.6080    5.2653   -1.1887 C   0  0  0  0  0  0  0  0  0  0  0  0
    2.8299   -0.7261    0.2977 C   0  0  0  0  0  0  0  0  0  0  0  0
    4.1662   -2.7177   -0.4499 C   0  0  0  0  0  0  0  0  0  0  0  0
    4.9881   -3.2258   -1.4432 C   0  0  0  0  0  0  0  0  0  0  0  0
    3.8349   -3.4703    0.6656 C   0  0  0  0  0  0  0  0  0  0  0  0
    5.4917   -4.5206   -1.3179 C   0  0  0  0  0  0  0  0  0  0  0  0
    4.3386   -4.7650    0.7910 C   0  0  0  0  0  0  0  0  0  0  0  0
    5.1671   -5.2901   -0.2008 C   0  0  0  0  0  0  0  0  0  0  0  0
  1 22  1  0
  2 26  1  0
  3 11  1  0
  3 15  1  0
  4 12  1  0
  4 27  1  0
  5 27  2  0
  6  8  1  0
  6  9  1  0
  6 10  1  0
  7 27  1  0
  7 28  1  0
  8 11  1  0
  9 16  1  0
 10 17  1  0
 12 13  1  0
 12 14  1  0
 13 18  2  0
 13 19  1  0
 14 22  2  0
 14 23  1  0
 15 20  2  0
 15 21  1  0
 18 20  1  0
 19 21  2  0
 22 24  1  0
 23 25  2  0
 24 26  2  0
 25 26  1  0
 28 29  2  0
 28 30  1  0
 29 31  1  0
 30 32  2  0
 31 33  2  0
 32 33  1  0
M  END
>  <PUBCHEM_COMPOUND_CID>  (1) 
39252

>  <PUBCHEM_CONFORMER_RMSD>  (1) 
1.2

>  <PUBCHEM_CONFORMER_DIVERSEORDER>  (1) 
1
16
88
53
92
139
34
125
137
117
8
51
30
119
13
131
124
58
136
70
22
132
26
48
82
27
133
62
134
23
2
138
110
9
42
120
46
57
78
135
114
71
83
122
74
52
100
6
21
66
123
104
25
64
38
94
12
98
3
75
105
103
121
33
118
39
44
127
31
87
76
111
77
79
43
126
10
5
130
24
112
19
93
91
29
56
84
65
54
81
15
61
95
67
7
96
49
99
97
18
109
106
89
20
80
28
60
86
50
113
129
4
14
68
73
115
59
55
45
17
72
69
116
90
128
85
40
108
35
63
102
101
107
32
11
37
47
41
36

>  <PUBCHEM_MMFF94_PARTIAL_CHARGES>  (1) 
44
1 -0.18
10 0.27
11 0.28
12 0.57
13 -0.14
14 -0.14
15 0.08
18 -0.15
19 -0.15
2 -0.18
20 -0.15
21 -0.15
22 0.18
23 -0.15
24 -0.15
25 -0.15
26 0.18
27 0.78
28 0.12
29 -0.15
3 -0.36
30 -0.15
31 -0.15
32 -0.15
33 -0.15
4 -0.43
49 0.15
5 -0.57
50 0.15
51 0.15
52 0.15
53 0.15
54 0.15
55 0.15
56 0.37
57 0.15
58 0.15
59 0.15
6 -0.81
60 0.15
61 0.15
7 -0.55
8 0.27
9 0.27

>  <PUBCHEM_EFFECTIVE_ROTOR_COUNT>  (1) 
12

>  <PUBCHEM_PHARMACOPHORE_FEATURES>  (1) 
7
1 3 acceptor
1 5 acceptor
1 6 cation
1 7 donor
6 13 15 18 19 20 21 rings
6 14 22 23 24 25 26 rings
6 28 29 30 31 32 33 rings

>  <PUBCHEM_HEAVY_ATOM_COUNT>  (1) 
33

>  <PUBCHEM_ATOM_DEF_STEREO_COUNT>  (1) 
0

>  <PUBCHEM_ATOM_UDEF_STEREO_COUNT>  (1) 
1

>  <PUBCHEM_BOND_DEF_STEREO_COUNT>  (1) 
0

>  <PUBCHEM_BOND_UDEF_STEREO_COUNT>  (1) 
0

>  <PUBCHEM_ISOTOPIC_ATOM_COUNT>  (1) 
0

>  <PUBCHEM_COMPONENT_COUNT>  (1) 
1

>  <PUBCHEM_CACTVS_TAUTO_COUNT>  (1) 
2

>  <PUBCHEM_CONFORMER_ID>  (1) 
0000995400000001

>  <PUBCHEM_MMFF94_ENERGY>  (1) 
95.6551

>  <PUBCHEM_FEATURE_SELFOVERLAP>  (1) 
35.522

>  <PUBCHEM_SHAPE_FINGERPRINT>  (1) 
10554248 39 18269259310213208343
10622 236 18201438056508787171
10721379 63 18340497779839376861
11115154 58 18188218585131496349
11135609 149 18267281214751617047
11297750 10 18126273157064307610
11331351 85 18200314295357936633
11386260 185 18334847334625348357
11720765 8 18410013229953205065
12166972 35 18342739602934786539
12633046 712 17898043237403213859
12788726 201 17538568712475807504
131258 43 18128278752199291766
13911987 19 17754778045484103396
14068700 675 18129946667856309123
15950262 2 14421257900144742020
15968369 26 18117846723013499130
16989713 51 17981054007886314286
18365409 1 17484231221889086406
19311894 1 18046900490455293445
19319366 153 17840866592364448695
20775438 99 18194668492165700331
21304303 282 17047383247487069892
23559900 14 18334859467591428819
24941158 1 18190724513469214509
255183 451 18340489980136458982
3103668 31 17901105218468284005
3388396 114 17974043650737921876
3534868 343 18268993266564076425
44317340 157 18338240496438722363
5223283 242 18335148553503161361
57634706 229 9294412054953035598
6058803 2 18057908955601880921
6677587 24 17541062765730683061
6695519 79 17405449065885093635
6697151 62 18261108561095830363
70251023 43 18409171025916531681

>  <PUBCHEM_SHAPE_MULTIPOLES>  (1) 
655.29
16.35
9.85
2.07
44.21
10.03
0.03
-27.58
6.29
-20.37
5.09
0.49
1.39
-1.7

>  <PUBCHEM_SHAPE_SELFOVERLAP>  (1) 
1371.718

>  <PUBCHEM_SHAPE_VOLUME>  (1) 
371.8

>  <PUBCHEM_COORDINATE_TYPE>  (1) 
2
5
10

$$$$
