39260
     RDKit          3D

 23 25  0  0  1  0  0  0  0  0999 V2000
    2.0709    0.3469   -1.7715 O   0  0  0  0  0  0  0  0  0  0  0  0
   -0.6777   -0.5883   -2.2494 O   0  0  0  0  0  0  0  0  0  0  0  0
   -0.9857    1.1996   -0.7399 N   0  0  0  0  0  0  0  0  0  0  0  0
   -4.3094   -1.2705    0.7183 N   0  0  0  0  0  0  0  0  0  0  0  0
    1.1299    0.1264   -0.7394 C   0  0  0  0  0  0  0  0  0  0  0  0
    1.0730    1.2639    0.2456 C   0  0  0  0  0  0  0  0  0  0  0  0
   -0.1909    1.8559    0.2096 C   0  0  0  0  0  0  0  0  0  0  0  0
   -0.2821    0.1591   -1.3657 C   0  0  0  0  0  0  0  0  0  0  0  0
   -2.3546    1.5497   -1.0367 C   0  0  0  0  0  0  0  0  0  0  0  0
    1.3964   -1.1970   -0.1092 C   0  0  0  0  0  0  0  0  0  0  0  0
   -3.3503    0.8603   -0.1058 C   0  0  0  0  0  0  0  0  0  0  0  0
    2.0552    1.7438    1.0962 C   0  0  0  0  0  0  0  0  0  0  0  0
   -0.5171    2.9292    1.0205 C   0  0  0  0  0  0  0  0  0  0  0  0
   -3.3314   -0.6691   -0.1803 C   0  0  0  0  0  0  0  0  0  0  0  0
    0.5153   -1.7067    0.8457 C   0  0  0  0  0  0  0  0  0  0  0  0
    2.5275   -1.9296   -0.4730 C   0  0  0  0  0  0  0  0  0  0  0  0
    1.7430    2.8266    1.9220 C   0  0  0  0  0  0  0  0  0  0  0  0
    0.4670    3.4134    1.8850 C   0  0  0  0  0  0  0  0  0  0  0  0
    1.8669    1.6008   -2.4144 C   0  0  0  0  0  0  0  0  0  0  0  0
    0.7646   -2.9458    1.4356 C   0  0  0  0  0  0  0  0  0  0  0  0
    2.7766   -3.1688    0.1170 C   0  0  0  0  0  0  0  0  0  0  0  0
    1.8952   -3.6768    1.0714 C   0  0  0  0  0  0  0  0  0  0  0  0
   -4.2824   -2.7230    0.6185 C   0  0  0  0  0  0  0  0  0  0  0  0
  1  5  1  0
  1 19  1  0
  2  8  2  0
  3  7  1  0
  3  8  1  0
  3  9  1  0
  4 14  1  0
  4 23  1  0
  5  6  1  0
  5  8  1  0
  5 10  1  0
  6  7  2  0
  6 12  1  0
  7 13  1  0
  9 11  1  0
 10 15  2  0
 10 16  1  0
 11 14  1  0
 12 17  2  0
 13 18  2  0
 15 20  1  0
 16 21  2  0
 17 18  1  0
 20 22  2  0
 21 22  1  0
M  END
>  <PUBCHEM_COMPOUND_CID>  (1) 
39260

>  <PUBCHEM_CONFORMER_RMSD>  (1) 
0.8

>  <PUBCHEM_CONFORMER_DIVERSEORDER>  (1) 
2
26
38
29
10
8
27
39
20
1
33
30
37
34
23
36
35
16
40
13
3
25
14
6
24
22
28
19
9
32
21
17
15
18
5
31
11
4
12
7

>  <PUBCHEM_MMFF94_PARTIAL_CHARGES>  (1) 
32
1 -0.56
10 -0.14
12 -0.15
13 -0.15
14 0.27
15 -0.15
16 -0.15
17 -0.15
18 -0.15
19 0.28
2 -0.57
20 -0.15
21 -0.15
22 -0.15
23 0.27
28 0.15
29 0.15
3 -0.48
32 0.15
33 0.15
34 0.15
35 0.15
39 0.15
4 -0.9
40 0.15
41 0.36
42 0.15
5 0.63
6 -0.14
7 0.12
8 0.57
9 0.3

>  <PUBCHEM_EFFECTIVE_ROTOR_COUNT>  (1) 
6.4

>  <PUBCHEM_PHARMACOPHORE_FEATURES>  (1) 
7
1 1 acceptor
1 2 acceptor
1 4 cation
1 4 donor
5 3 5 6 7 8 rings
6 10 15 16 20 21 22 rings
6 6 7 12 13 17 18 rings

>  <PUBCHEM_HEAVY_ATOM_COUNT>  (1) 
23

>  <PUBCHEM_ATOM_DEF_STEREO_COUNT>  (1) 
0

>  <PUBCHEM_ATOM_UDEF_STEREO_COUNT>  (1) 
1

>  <PUBCHEM_BOND_DEF_STEREO_COUNT>  (1) 
0

>  <PUBCHEM_BOND_UDEF_STEREO_COUNT>  (1) 
0

>  <PUBCHEM_ISOTOPIC_ATOM_COUNT>  (1) 
0

>  <PUBCHEM_COMPONENT_COUNT>  (1) 
1

>  <PUBCHEM_CACTVS_TAUTO_COUNT>  (1) 
1

>  <PUBCHEM_CONFORMER_ID>  (1) 
0000995C00000002

>  <PUBCHEM_MMFF94_ENERGY>  (1) 
63.8869

>  <PUBCHEM_FEATURE_SELFOVERLAP>  (1) 
35.607

>  <PUBCHEM_SHAPE_FINGERPRINT>  (1) 
10906281 52 17341528544808392913
114674 6 18263081196757247819
11578080 2 17540796310603116196
12035758 1 17982452904050095056
12506688 2 18263643970284290859
12539773 59 14230599851894140703
12716301 132 17399806385059129512
12788726 201 17622720925697519465
13032168 30 17901110724384047602
13583140 156 18341883135095269821
14178342 30 18262794194326003097
14787075 74 18411139147593402158
14863182 85 17899418863941586763
16945 1 16828963587496942356
20600515 1 17760928442002514941
20602899 9 17610669453818455788
20691752 17 17906162211529921389
23419403 2 17899662783328317010
23559900 14 18186793669743593717
238078 22 18048322145667067310
3052486 1 17251182103950423747
3380486 77 17542233359003923189
35225 105 16613867777001389107
392239 28 18268415842486089018
81228 2 16977000784930550672

>  <PUBCHEM_SHAPE_MULTIPOLES>  (1) 
451.63
5.11
4.82
1.97
4.11
0.56
-0.64
5.75
0.3
-0.32
3.27
-0.65
-1.25
-0.06

>  <PUBCHEM_SHAPE_SELFOVERLAP>  (1) 
973.621

>  <PUBCHEM_SHAPE_VOLUME>  (1) 
251.2

>  <PUBCHEM_COORDINATE_TYPE>  (1) 
2
5
10

$$$$
