39262
     RDKit          3D

 24 26  0  0  1  0  0  0  0  0999 V2000
   -2.4275    0.5357   -1.6369 O   0  0  0  0  0  0  0  0  0  0  0  0
    0.3987    0.1604   -2.3645 O   0  0  0  0  0  0  0  0  0  0  0  0
    0.0303   -1.5541   -0.7850 N   0  0  0  0  0  0  0  0  0  0  0  0
    4.2143   -0.7689    0.2887 N   0  0  0  0  0  0  0  0  0  0  0  0
   -1.3962    0.3388   -0.6897 C   0  0  0  0  0  0  0  0  0  0  0  0
   -1.7529   -0.6905    0.3498 C   0  0  0  0  0  0  0  0  0  0  0  0
   -0.8824   -1.7778    0.2546 C   0  0  0  0  0  0  0  0  0  0  0  0
   -0.2022   -0.3215   -1.4144 C   0  0  0  0  0  0  0  0  0  0  0  0
    1.0770   -2.4749   -1.1609 C   0  0  0  0  0  0  0  0  0  0  0  0
   -1.0014    1.6558   -0.1158 C   0  0  0  0  0  0  0  0  0  0  0  0
    2.3526   -2.2764   -0.3445 C   0  0  0  0  0  0  0  0  0  0  0  0
   -2.7654   -0.6752    1.2949 C   0  0  0  0  0  0  0  0  0  0  0  0
   -0.9856   -2.8708    1.0976 C   0  0  0  0  0  0  0  0  0  0  0  0
    2.9957   -0.8955   -0.5016 C   0  0  0  0  0  0  0  0  0  0  0  0
    0.0954    1.7439    0.7428 C   0  0  0  0  0  0  0  0  0  0  0  0
   -1.7281    2.8038   -0.4355 C   0  0  0  0  0  0  0  0  0  0  0  0
   -2.8839   -1.7703    2.1542 C   0  0  0  0  0  0  0  0  0  0  0  0
   -2.0004   -2.8584    2.0569 C   0  0  0  0  0  0  0  0  0  0  0  0
   -2.8491   -0.6916   -2.2227 C   0  0  0  0  0  0  0  0  0  0  0  0
    0.4647    2.9769    1.2806 C   0  0  0  0  0  0  0  0  0  0  0  0
   -1.3587    4.0367    0.1021 C   0  0  0  0  0  0  0  0  0  0  0  0
   -0.2623    4.1233    0.9602 C   0  0  0  0  0  0  0  0  0  0  0  0
    4.8008    0.5544    0.1306 C   0  0  0  0  0  0  0  0  0  0  0  0
    6.0667    0.6963    0.9585 C   0  0  0  0  0  0  0  0  0  0  0  0
  1  5  1  0
  1 19  1  0
  2  8  2  0
  3  7  1  0
  3  8  1  0
  3  9  1  0
  4 14  1  0
  4 23  1  0
  5  6  1  0
  5  8  1  0
  5 10  1  0
  6  7  2  0
  6 12  1  0
  7 13  1  0
  9 11  1  0
 10 15  2  0
 10 16  1  0
 11 14  1  0
 12 17  2  0
 13 18  2  0
 15 20  1  0
 16 21  2  0
 17 18  1  0
 20 22  2  0
 21 22  1  0
 23 24  1  0
M  END
>  <PUBCHEM_COMPOUND_CID>  (1) 
39262

>  <PUBCHEM_CONFORMER_RMSD>  (1) 
0.8

>  <PUBCHEM_CONFORMER_DIVERSEORDER>  (1) 
4
62
46
16
30
71
78
64
72
59
67
57
74
52
24
43
80
37
8
35
31
15
50
13
63
53
68
44
38
55
77
45
6
26
48
12
70
19
58
40
47
73
69
65
61
75
7
79
33
9
28
20
18
34
39
41
76
3
49
23
51
25
14
27
66
10
81
22
29
36
5
21
17
2
32
56
11
54
1
60
42

>  <PUBCHEM_MMFF94_PARTIAL_CHARGES>  (1) 
32
1 -0.56
10 -0.14
12 -0.15
13 -0.15
14 0.27
15 -0.15
16 -0.15
17 -0.15
18 -0.15
19 0.28
2 -0.57
20 -0.15
21 -0.15
22 -0.15
23 0.27
29 0.15
3 -0.48
30 0.15
33 0.15
34 0.15
35 0.15
36 0.15
4 -0.9
40 0.36
41 0.15
42 0.15
43 0.15
5 0.63
6 -0.14
7 0.12
8 0.57
9 0.3

>  <PUBCHEM_EFFECTIVE_ROTOR_COUNT>  (1) 
7.4

>  <PUBCHEM_PHARMACOPHORE_FEATURES>  (1) 
7
1 1 acceptor
1 2 acceptor
1 4 cation
1 4 donor
5 3 5 6 7 8 rings
6 10 15 16 20 21 22 rings
6 6 7 12 13 17 18 rings

>  <PUBCHEM_HEAVY_ATOM_COUNT>  (1) 
24

>  <PUBCHEM_ATOM_DEF_STEREO_COUNT>  (1) 
0

>  <PUBCHEM_ATOM_UDEF_STEREO_COUNT>  (1) 
1

>  <PUBCHEM_BOND_DEF_STEREO_COUNT>  (1) 
0

>  <PUBCHEM_BOND_UDEF_STEREO_COUNT>  (1) 
0

>  <PUBCHEM_ISOTOPIC_ATOM_COUNT>  (1) 
0

>  <PUBCHEM_COMPONENT_COUNT>  (1) 
1

>  <PUBCHEM_CACTVS_TAUTO_COUNT>  (1) 
1

>  <PUBCHEM_CONFORMER_ID>  (1) 
0000995E00000004

>  <PUBCHEM_MMFF94_ENERGY>  (1) 
59.374

>  <PUBCHEM_FEATURE_SELFOVERLAP>  (1) 
35.608

>  <PUBCHEM_SHAPE_FINGERPRINT>  (1) 
11221954 11 17912366425127963036
12035758 1 18334588966340282931
12156800 1 15329629133663362952
12788726 201 18267005202989559872
133893 2 17625826341650309773
14081887 123 18261968387710094066
14787075 74 18194118517503074253
16945 1 17536634783482212591
17980427 23 17702408259134328395
18681886 176 16255025084702639357
20510252 161 18262811648445424539
20600515 1 17969806200858530347
21524375 3 17114956491450132293
229495 10 17630334030007970035
22956985 138 16600421896787995866
23352939 185 17488723658505850007
23419403 2 18045496671719758343
23558518 356 18193843630720917390
3187 122 18334857242682487008
3380486 145 18338525243326872867
35225 105 17320187097353695026
392239 28 17690579489340586929
394222 165 17186999792116941865
4340502 62 17539143761722009113
469060 322 18059278976859337426
474 4 17474106501728635832
539174 4 17409662381240914592
56638632 33 17534907695464328648
69474 34 18266752465612581643
7097593 13 17333660869133174456
81228 2 17831620533104430475
9981440 41 18198042708867678658

>  <PUBCHEM_SHAPE_MULTIPOLES>  (1) 
472.21
6.46
4.76
1.98
14.41
4.58
-0.32
-1.43
1.97
-1.98
1.84
-1.6
-0.86
1.7

>  <PUBCHEM_SHAPE_SELFOVERLAP>  (1) 
1011.119

>  <PUBCHEM_SHAPE_VOLUME>  (1) 
264.1

>  <PUBCHEM_COORDINATE_TYPE>  (1) 
2
5
10

$$$$
