39270
     RDKit          3D

 27 30  0  0  1  0  0  0  0  0999 V2000
   -2.0450   -0.5239    2.1780 O   0  0  0  0  0  0  0  0  0  0  0  0
    0.7960   -0.3732    1.4276 O   0  0  0  0  0  0  0  0  0  0  0  0
    3.2017    0.2658   -0.4158 N   0  0  0  0  0  0  0  0  0  0  0  0
   -0.1422    1.4810    0.3089 N   0  0  0  0  0  0  0  0  0  0  0  0
   -1.5968   -0.3120    0.8539 C   0  0  0  0  0  0  0  0  0  0  0  0
    2.2314    0.6756   -1.4305 C   0  0  0  0  0  0  0  0  0  0  0  0
    4.3717    1.1548   -0.4344 C   0  0  0  0  0  0  0  0  0  0  0  0
    3.5960   -1.1354   -0.6182 C   0  0  0  0  0  0  0  0  0  0  0  0
    1.7211    2.0998   -1.1923 C   0  0  0  0  0  0  0  0  0  0  0  0
    5.3748    0.7700    0.6541 C   0  0  0  0  0  0  0  0  0  0  0  0
    4.5738   -1.5952    0.4642 C   0  0  0  0  0  0  0  0  0  0  0  0
    1.0325    2.3061    0.1555 C   0  0  0  0  0  0  0  0  0  0  0  0
    5.7981   -0.6889    0.5272 C   0  0  0  0  0  0  0  0  0  0  0  0
   -2.3222    0.8164    0.1699 C   0  0  0  0  0  0  0  0  0  0  0  0
   -1.4226    1.8400   -0.1331 C   0  0  0  0  0  0  0  0  0  0  0  0
   -0.1468    0.2175    0.9197 C   0  0  0  0  0  0  0  0  0  0  0  0
   -1.6542   -1.5996    0.1063 C   0  0  0  0  0  0  0  0  0  0  0  0
   -3.6645    0.9358   -0.1506 C   0  0  0  0  0  0  0  0  0  0  0  0
   -1.8263    3.0012   -0.7692 C   0  0  0  0  0  0  0  0  0  0  0  0
   -4.0893    2.1014   -0.7931 C   0  0  0  0  0  0  0  0  0  0  0  0
   -3.1773    3.1249   -1.1009 C   0  0  0  0  0  0  0  0  0  0  0  0
   -1.1314   -1.6821   -1.1852 C   0  0  0  0  0  0  0  0  0  0  0  0
   -2.2314   -2.7252    0.6960 C   0  0  0  0  0  0  0  0  0  0  0  0
   -2.0132    0.6749    2.9455 C   0  0  0  0  0  0  0  0  0  0  0  0
   -1.1856   -2.8875   -1.8852 C   0  0  0  0  0  0  0  0  0  0  0  0
   -2.2855   -3.9305   -0.0040 C   0  0  0  0  0  0  0  0  0  0  0  0
   -1.7626   -4.0116   -1.2946 C   0  0  0  0  0  0  0  0  0  0  0  0
  1  5  1  0
  1 24  1  0
  2 16  2  0
  3  6  1  0
  3  7  1  0
  3  8  1  0
  4 12  1  0
  4 15  1  0
  4 16  1  0
  5 14  1  0
  5 16  1  0
  5 17  1  0
  6  9  1  0
  7 10  1  0
  8 11  1  0
  9 12  1  0
 10 13  1  0
 11 13  1  0
 14 15  2  0
 14 18  1  0
 15 19  1  0
 17 22  2  0
 17 23  1  0
 18 20  2  0
 19 21  2  0
 20 21  1  0
 22 25  1  0
 23 26  2  0
 25 27  2  0
 26 27  1  0
M  END
>  <PUBCHEM_COMPOUND_CID>  (1) 
39270

>  <PUBCHEM_CONFORMER_RMSD>  (1) 
0.8

>  <PUBCHEM_CONFORMER_DIVERSEORDER>  (1) 
1
5
77
34
49
93
73
84
97
76
59
70
30
87
36
96
24
92
37
83
20
78
54
61
85
72
65
90
66
95
63
53
23
55
68
18
64
51
62
41
91
39
81
40
13
47
43
22
69
75
17
31
27
60
8
86
45
15
2
3
10
50
58
21
48
74
46
56
32
4
11
25
98
29
67
33
28
12
71
82
7
14
94
44
19
26
89
52
9
35
6
57
16
88
42
79
38
80

>  <PUBCHEM_MMFF94_PARTIAL_CHARGES>  (1) 
32
1 -0.56
12 0.3
14 -0.14
15 0.12
16 0.57
17 -0.14
18 -0.15
19 -0.15
2 -0.57
20 -0.15
21 -0.15
22 -0.15
23 -0.15
24 0.28
25 -0.15
26 -0.15
27 -0.15
3 -0.81
4 -0.48
44 0.15
45 0.15
46 0.15
47 0.15
48 0.15
49 0.15
5 0.63
53 0.15
54 0.15
55 0.15
6 0.27
7 0.27
8 0.27

>  <PUBCHEM_EFFECTIVE_ROTOR_COUNT>  (1) 
7.6

>  <PUBCHEM_PHARMACOPHORE_FEATURES>  (1) 
7
1 1 acceptor
1 2 acceptor
1 3 cation
5 4 5 14 15 16 rings
6 14 15 18 19 20 21 rings
6 17 22 23 25 26 27 rings
6 3 7 8 10 11 13 rings

>  <PUBCHEM_HEAVY_ATOM_COUNT>  (1) 
27

>  <PUBCHEM_ATOM_DEF_STEREO_COUNT>  (1) 
0

>  <PUBCHEM_ATOM_UDEF_STEREO_COUNT>  (1) 
1

>  <PUBCHEM_BOND_DEF_STEREO_COUNT>  (1) 
0

>  <PUBCHEM_BOND_UDEF_STEREO_COUNT>  (1) 
0

>  <PUBCHEM_ISOTOPIC_ATOM_COUNT>  (1) 
0

>  <PUBCHEM_COMPONENT_COUNT>  (1) 
1

>  <PUBCHEM_CACTVS_TAUTO_COUNT>  (1) 
1

>  <PUBCHEM_CONFORMER_ID>  (1) 
0000996600000001

>  <PUBCHEM_MMFF94_ENERGY>  (1) 
66.3672

>  <PUBCHEM_FEATURE_SELFOVERLAP>  (1) 
35.61

>  <PUBCHEM_SHAPE_FINGERPRINT>  (1) 
10366900 7 16845568695915383152
10483366 6 18268127891031109295
107951 10 17459478745093254009
11370993 70 18269832008945682902
11552529 35 17775003535738245982
11578080 2 17843957272284804209
12035758 1 18340785805332083331
12156800 1 16767548432376006815
12422481 6 18122940648794762379
12553582 1 17834968837794809486
13004483 165 18124312972112615431
133893 2 17336472939151885643
13583140 156 17988632052308700424
13931106 250 18413108380975862341
14659021 117 18116985792623723362
16728300 4 17678730142463830211
1813 80 17764037156611909871
19930381 70 17690278209905573086
20197701 30 18191859033581147893
20511986 3 17895463757734591468
20602899 9 18201996586898084841
20681651 13 18199762503777406320
20775438 99 17478282838154992845
21033648 29 18198607866260528872
21344244 246 18125146140197254631
23227448 37 18409446973185910030
23419403 2 17058071449348451121
23559900 14 18409727349300378456
23598288 3 18041577908666210976
23728640 28 18409165489323709623
266924 78 16026507660663779443
3380486 145 18266467674900422232
3493558 16 16183233585263445464
376196 1 17609483935175944013
38695281 34 18120928417687645125
4017518 198 18056189173487988502
404807 14 16472623954699055182
44062 13 18410855477935895470
463206 1 17686337981508060466
5309563 4 17543638981345971686
9981440 41 18192434056861906281

>  <PUBCHEM_SHAPE_MULTIPOLES>  (1) 
533.95
8.78
4.45
1.75
15.48
3.23
-0.87
-1.2
-0.36
-5.03
2.06
-1.04
0.2
-0.06

>  <PUBCHEM_SHAPE_SELFOVERLAP>  (1) 
1153.084

>  <PUBCHEM_SHAPE_VOLUME>  (1) 
294.7

>  <PUBCHEM_COORDINATE_TYPE>  (1) 
2
5
10

$$$$
