39272
     RDKit          3D

 27 30  0  0  1  0  0  0  0  0999 V2000
   -2.0599    0.5207   -2.1743 O   0  0  0  0  0  0  0  0  0  0  0  0
    5.7644    0.6575   -0.4340 O   0  0  0  0  0  0  0  0  0  0  0  0
    0.7854    0.3718   -1.4400 O   0  0  0  0  0  0  0  0  0  0  0  0
   -0.1461   -1.4803   -0.3125 N   0  0  0  0  0  0  0  0  0  0  0  0
    3.2010   -0.2637    0.3915 N   0  0  0  0  0  0  0  0  0  0  0  0
   -1.6041    0.3114   -0.8523 C   0  0  0  0  0  0  0  0  0  0  0  0
   -2.3254   -0.8157   -0.1623 C   0  0  0  0  0  0  0  0  0  0  0  0
    1.0296   -2.3051   -0.1643 C   0  0  0  0  0  0  0  0  0  0  0  0
   -1.4240   -1.8387    0.1375 C   0  0  0  0  0  0  0  0  0  0  0  0
   -0.1544   -0.2180   -0.9256 C   0  0  0  0  0  0  0  0  0  0  0  0
    1.7259   -2.0962    1.1791 C   0  0  0  0  0  0  0  0  0  0  0  0
    2.2373   -0.6716    1.4118 C   0  0  0  0  0  0  0  0  0  0  0  0
   -1.6573    1.6003   -0.1070 C   0  0  0  0  0  0  0  0  0  0  0  0
    4.3744   -1.1483    0.3990 C   0  0  0  0  0  0  0  0  0  0  0  0
    3.6196    1.1298    0.5967 C   0  0  0  0  0  0  0  0  0  0  0  0
   -3.6658   -0.9349    0.1662 C   0  0  0  0  0  0  0  0  0  0  0  0
   -1.8239   -2.9988    0.7781 C   0  0  0  0  0  0  0  0  0  0  0  0
    5.3710   -0.6959   -0.6645 C   0  0  0  0  0  0  0  0  0  0  0  0
    4.6332    1.5283   -0.4722 C   0  0  0  0  0  0  0  0  0  0  0  0
   -4.0868   -2.0992    0.8133 C   0  0  0  0  0  0  0  0  0  0  0  0
   -1.1272    1.6853    1.1814 C   0  0  0  0  0  0  0  0  0  0  0  0
   -2.2380    2.7247   -0.6954 C   0  0  0  0  0  0  0  0  0  0  0  0
   -3.1729   -3.1220    1.1177 C   0  0  0  0  0  0  0  0  0  0  0  0
   -2.0323   -0.6795   -2.9398 C   0  0  0  0  0  0  0  0  0  0  0  0
   -1.1774    2.8919    1.8795 C   0  0  0  0  0  0  0  0  0  0  0  0
   -2.2883    3.9313    0.0027 C   0  0  0  0  0  0  0  0  0  0  0  0
   -1.7580    4.0149    1.2901 C   0  0  0  0  0  0  0  0  0  0  0  0
  1  6  1  0
  1 24  1  0
  2 18  1  0
  2 19  1  0
  3 10  2  0
  4  8  1  0
  4  9  1  0
  4 10  1  0
  5 12  1  0
  5 14  1  0
  5 15  1  0
  6  7  1  0
  6 10  1  0
  6 13  1  0
  7  9  2  0
  7 16  1  0
  8 11  1  0
  9 17  1  0
 11 12  1  0
 13 21  2  0
 13 22  1  0
 14 18  1  0
 15 19  1  0
 16 20  2  0
 17 23  2  0
 20 23  1  0
 21 25  1  0
 22 26  2  0
 25 27  2  0
 26 27  1  0
M  END
>  <PUBCHEM_COMPOUND_CID>  (1) 
39272

>  <PUBCHEM_CONFORMER_RMSD>  (1) 
0.8

>  <PUBCHEM_CONFORMER_DIVERSEORDER>  (1) 
1
69
48
84
43
75
76
30
78
40
63
74
67
12
51
68
19
28
52
26
3
82
77
64
80
66
85
62
10
5
33
73
72
34
35
54
47
45
22
79
23
21
14
50
59
60
25
65
7
20
36
29
71
49
13
53
9
17
44
83
27
42
58
81
56
57
8
38
6
41
18
4
2
61
32
31
46
24
16
11
39
15
70
55
37

>  <PUBCHEM_MMFF94_PARTIAL_CHARGES>  (1) 
35
1 -0.56
10 0.57
12 0.27
13 -0.14
14 0.27
15 0.27
16 -0.15
17 -0.15
18 0.28
19 0.28
2 -0.56
20 -0.15
21 -0.15
22 -0.15
23 -0.15
24 0.28
25 -0.15
26 -0.15
27 -0.15
3 -0.57
38 0.15
39 0.15
4 -0.48
44 0.15
45 0.15
46 0.15
47 0.15
5 -0.81
51 0.15
52 0.15
53 0.15
6 0.63
7 -0.14
8 0.3
9 0.12

>  <PUBCHEM_EFFECTIVE_ROTOR_COUNT>  (1) 
7.6

>  <PUBCHEM_PHARMACOPHORE_FEATURES>  (1) 
8
1 1 acceptor
1 2 acceptor
1 3 acceptor
1 5 cation
5 4 6 7 9 10 rings
6 13 21 22 25 26 27 rings
6 2 5 14 15 18 19 rings
6 7 9 16 17 20 23 rings

>  <PUBCHEM_HEAVY_ATOM_COUNT>  (1) 
27

>  <PUBCHEM_ATOM_DEF_STEREO_COUNT>  (1) 
0

>  <PUBCHEM_ATOM_UDEF_STEREO_COUNT>  (1) 
1

>  <PUBCHEM_BOND_DEF_STEREO_COUNT>  (1) 
0

>  <PUBCHEM_BOND_UDEF_STEREO_COUNT>  (1) 
0

>  <PUBCHEM_ISOTOPIC_ATOM_COUNT>  (1) 
0

>  <PUBCHEM_COMPONENT_COUNT>  (1) 
1

>  <PUBCHEM_CACTVS_TAUTO_COUNT>  (1) 
1

>  <PUBCHEM_CONFORMER_ID>  (1) 
0000996800000001

>  <PUBCHEM_MMFF94_ENERGY>  (1) 
74.968

>  <PUBCHEM_FEATURE_SELFOVERLAP>  (1) 
40.685

>  <PUBCHEM_SHAPE_FINGERPRINT>  (1) 
12156800 1 16696448594549138465
12173636 292 18337662010475585882
12788726 201 18340191995859051529
13027679 85 18265608965367226091
13140716 1 18264500657398625075
13994607 96 18270676472509694173
14251751 93 18271812268253282320
14713325 29 18340780264592273066
14787075 74 17826512455305759098
14955137 171 18049460423828101363
15131766 46 16126952226806209944
17980427 23 17630627789429521563
20510252 161 18409165519436180939
20600515 1 17913237478781717707
20681651 13 17676475108639601162
22182937 141 18339646612031980240
22907989 373 18410000040129335484
23419403 2 17829863762889992639
23558518 356 18051965927354413267
23845131 108 17903366901186034889
283562 15 18334859432630589450
4058900 60 17620768184331009449
469060 322 17167865300427264016
474 4 17691680087267956129
497634 4 18186527605146360694
5048184 11 18194966240857469376
57527585 21 18271232859441695564
70251023 43 17773574174252096334
9981440 41 17772453613000314166

>  <PUBCHEM_SHAPE_MULTIPOLES>  (1) 
528.08
8.51
4.47
1.75
15.03
3.2
-0.88
-1.12
-0.24
-5
2.09
-1.06
0.18
-0.01

>  <PUBCHEM_SHAPE_SELFOVERLAP>  (1) 
1143.481

>  <PUBCHEM_SHAPE_VOLUME>  (1) 
290.1

>  <PUBCHEM_COORDINATE_TYPE>  (1) 
2
5
10

$$$$
