39282
     RDKit          3D

 27 29  0  0  1  0  0  0  0  0999 V2000
   -1.9747   -0.2164    1.8929 O   0  0  0  0  0  0  0  0  0  0  0  0
    0.1309   -1.7684    0.5456 O   0  0  0  0  0  0  0  0  0  0  0  0
    0.4577    0.4091   -0.3039 N   0  0  0  0  0  0  0  0  0  0  0  0
    4.6863   -0.6122   -0.2090 N   0  0  0  0  0  0  0  0  0  0  0  0
   -1.7053   -0.1297    0.5075 C   0  0  0  0  0  0  0  0  0  0  0  0
   -1.6223    1.2929    0.0211 C   0  0  0  0  0  0  0  0  0  0  0  0
   -0.3345    1.5559   -0.4493 C   0  0  0  0  0  0  0  0  0  0  0  0
   -0.2693   -0.6467    0.2672 C   0  0  0  0  0  0  0  0  0  0  0  0
    1.8458    0.3246   -0.6923 C   0  0  0  0  0  0  0  0  0  0  0  0
    2.7881    0.8673    0.3804 C   0  0  0  0  0  0  0  0  0  0  0  0
   -2.6952   -0.9587   -0.2360 C   0  0  0  0  0  0  0  0  0  0  0  0
    4.2746    0.7664    0.0264 C   0  0  0  0  0  0  0  0  0  0  0  0
   -2.5971    2.2769    0.0030 C   0  0  0  0  0  0  0  0  0  0  0  0
    0.0175    2.7940   -0.9583 C   0  0  0  0  0  0  0  0  0  0  0  0
   -3.7638   -1.5474    0.4420 C   0  0  0  0  0  0  0  0  0  0  0  0
   -2.5553   -1.1483   -1.6117 C   0  0  0  0  0  0  0  0  0  0  0  0
   -2.2590    3.5326   -0.5077 C   0  0  0  0  0  0  0  0  0  0  0  0
   -0.9628    3.7884   -0.9854 C   0  0  0  0  0  0  0  0  0  0  0  0
   -1.0582    0.5578    2.6595 C   0  0  0  0  0  0  0  0  0  0  0  0
    4.4588   -1.4292    0.9843 C   0  0  0  0  0  0  0  0  0  0  0  0
    6.0952   -0.6698   -0.6024 C   0  0  0  0  0  0  0  0  0  0  0  0
   -4.6902   -2.3237   -0.2542 C   0  0  0  0  0  0  0  0  0  0  0  0
   -3.4818   -1.9244   -2.3078 C   0  0  0  0  0  0  0  0  0  0  0  0
   -1.4123    0.4319    4.1259 C   0  0  0  0  0  0  0  0  0  0  0  0
   -4.5492   -2.5121   -1.6292 C   0  0  0  0  0  0  0  0  0  0  0  0
    4.8217   -2.8828    0.7319 C   0  0  0  0  0  0  0  0  0  0  0  0
    6.3545    0.1720   -1.8404 C   0  0  0  0  0  0  0  0  0  0  0  0
  1  5  1  0
  1 19  1  0
  2  8  2  0
  3  7  1  0
  3  8  1  0
  3  9  1  0
  4 12  1  0
  4 20  1  0
  4 21  1  0
  5  6  1  0
  5  8  1  0
  5 11  1  0
  6  7  2  0
  6 13  1  0
  7 14  1  0
  9 10  1  0
 10 12  1  0
 11 15  2  0
 11 16  1  0
 13 17  2  0
 14 18  2  0
 15 22  1  0
 16 23  2  0
 17 18  1  0
 19 24  1  0
 20 26  1  0
 21 27  1  0
 22 25  2  0
 23 25  1  0
M  END
>  <PUBCHEM_COMPOUND_CID>  (1) 
39282

>  <PUBCHEM_CONFORMER_RMSD>  (1) 
1

>  <PUBCHEM_CONFORMER_DIVERSEORDER>  (1) 
1
64
86
57
93
73
75
99
74
63
91
11
21
90
55
95
96
92
65
103
17
48
80
72
66
98
70
71
102
76
26
77
56
44
37
22
33
87
82
89
41
60
18
84
81
31
53
61
59
5
88
20
35
36
62
34
9
78
40
50
32
12
85
49
45
68
15
28
67
4
19
46
58
14
79
42
39
69
101
97
24
54
38
25
47
52
51
8
100
43
83
3
27
94
30
10
7
16
6
29
13
2
23

>  <PUBCHEM_MMFF94_PARTIAL_CHARGES>  (1) 
32
1 -0.56
11 -0.14
12 0.27
13 -0.15
14 -0.15
15 -0.15
16 -0.15
17 -0.15
18 -0.15
19 0.28
2 -0.57
20 0.27
21 0.27
22 -0.15
23 -0.15
25 -0.15
3 -0.48
34 0.15
35 0.15
36 0.15
37 0.15
38 0.15
39 0.15
4 -0.81
46 0.15
47 0.15
5 0.63
51 0.15
6 -0.14
7 0.12
8 0.57
9 0.3

>  <PUBCHEM_EFFECTIVE_ROTOR_COUNT>  (1) 
9.4

>  <PUBCHEM_PHARMACOPHORE_FEATURES>  (1) 
6
1 1 acceptor
1 2 acceptor
1 4 cation
5 3 5 6 7 8 rings
6 11 15 16 22 23 25 rings
6 6 7 13 14 17 18 rings

>  <PUBCHEM_HEAVY_ATOM_COUNT>  (1) 
27

>  <PUBCHEM_ATOM_DEF_STEREO_COUNT>  (1) 
0

>  <PUBCHEM_ATOM_UDEF_STEREO_COUNT>  (1) 
1

>  <PUBCHEM_BOND_DEF_STEREO_COUNT>  (1) 
0

>  <PUBCHEM_BOND_UDEF_STEREO_COUNT>  (1) 
0

>  <PUBCHEM_ISOTOPIC_ATOM_COUNT>  (1) 
0

>  <PUBCHEM_COMPONENT_COUNT>  (1) 
1

>  <PUBCHEM_CACTVS_TAUTO_COUNT>  (1) 
1

>  <PUBCHEM_CONFORMER_ID>  (1) 
0000997200000001

>  <PUBCHEM_MMFF94_ENERGY>  (1) 
68.8619

>  <PUBCHEM_FEATURE_SELFOVERLAP>  (1) 
30.533

>  <PUBCHEM_SHAPE_FINGERPRINT>  (1) 
10254770 206 16604332262405538914
10366900 7 18041283244662534192
11045515 52 18188198909891387413
11101153 10 18336269058921174260
11497681 19 17702100477466910556
12422481 6 17917723374464567807
12788726 201 18261101972541885114
13004483 165 18269257093002534263
13009979 54 17986682673995527931
13583140 156 14907627740295580198
13911987 19 17967818301020837494
14347332 77 18410847742541741358
14508225 48 18335695091722394157
14840074 17 18201440336851442470
15131766 46 15360840999846304676
15250474 111 18116423757572753866
15361156 5 17824840936350678134
16087824 20 18337107845086962053
17349148 13 17894628158445028398
1813 80 18199474427303625391
18393751 57 17620444228565744224
20681651 13 18201999872690484882
21703447 108 18267004207089884040
23175994 123 18188485917007410623
23402539 116 18410853291322827343
23419403 2 17130116906188920505
23559900 14 17971191663008629212
3027735 51 18339918225600690591
3380486 145 18268732535603860561
376196 1 16961263466354794829
44062 13 18196367023071497390
463206 1 18189892208969238286
497634 4 17846510239948423424
531348 171 18267591196006903206
57527295 17 17676752254558634131
70251023 43 18335979869438920440
7970288 3 18266174109606805143

>  <PUBCHEM_SHAPE_MULTIPOLES>  (1) 
533.95
11.17
3.68
2.39
19.58
2.33
2.67
-9.02
-4.48
-3.11
-1.47
-1.58
-0.13
-1.86

>  <PUBCHEM_SHAPE_SELFOVERLAP>  (1) 
1130.485

>  <PUBCHEM_SHAPE_VOLUME>  (1) 
302.2

>  <PUBCHEM_COORDINATE_TYPE>  (1) 
2
5
10

$$$$
