39298
     RDKit          3D

 25 28  0  0  1  0  0  0  0  0999 V2000
    6.1134   -1.6244   -0.2658 O   0  0  0  0  0  0  0  0  0  0  0  0
   -0.0216   -1.2292   -1.5353 O   0  0  0  0  0  0  0  0  0  0  0  0
   -0.1181    0.9297   -0.5852 N   0  0  0  0  0  0  0  0  0  0  0  0
    4.1041    0.3167    0.2781 N   0  0  0  0  0  0  0  0  0  0  0  0
   -2.1737   -0.1187   -1.1231 C   0  0  0  0  0  0  0  0  0  0  0  0
    1.2908    1.2015   -0.4247 C   0  0  0  0  0  0  0  0  0  0  0  0
    1.7928    0.8796    0.9816 C   0  0  0  0  0  0  0  0  0  0  0  0
    3.2910    1.1199    1.1889 C   0  0  0  0  0  0  0  0  0  0  0  0
   -2.3777    1.2397   -0.5079 C   0  0  0  0  0  0  0  0  0  0  0  0
   -1.1402    1.8152   -0.2172 C   0  0  0  0  0  0  0  0  0  0  0  0
   -0.6382   -0.2543   -1.1296 C   0  0  0  0  0  0  0  0  0  0  0  0
    3.8650   -1.1174    0.4921 C   0  0  0  0  0  0  0  0  0  0  0  0
    5.5319    0.6201    0.4481 C   0  0  0  0  0  0  0  0  0  0  0  0
   -2.8003   -1.2231   -0.3445 C   0  0  0  0  0  0  0  0  0  0  0  0
    4.7332   -1.9350   -0.4601 C   0  0  0  0  0  0  0  0  0  0  0  0
    6.3601   -0.2381   -0.5039 C   0  0  0  0  0  0  0  0  0  0  0  0
   -3.5556    1.9192   -0.2485 C   0  0  0  0  0  0  0  0  0  0  0  0
   -1.0373    3.0734    0.3502 C   0  0  0  0  0  0  0  0  0  0  0  0
   -3.4704    3.1904    0.3247 C   0  0  0  0  0  0  0  0  0  0  0  0
   -2.2217    3.7619    0.6224 C   0  0  0  0  0  0  0  0  0  0  0  0
   -4.0740   -1.6829   -0.6834 C   0  0  0  0  0  0  0  0  0  0  0  0
   -2.1153   -1.8004    0.7261 C   0  0  0  0  0  0  0  0  0  0  0  0
   -4.6610   -2.7169    0.0460 C   0  0  0  0  0  0  0  0  0  0  0  0
   -2.7022   -2.8344    1.4555 C   0  0  0  0  0  0  0  0  0  0  0  0
   -3.9751   -3.2926    1.1155 C   0  0  0  0  0  0  0  0  0  0  0  0
  1 15  1  0
  1 16  1  0
  2 11  2  0
  3  6  1  0
  3 10  1  0
  3 11  1  0
  4  8  1  0
  4 12  1  0
  4 13  1  0
  5  9  1  0
  5 11  1  0
  5 14  1  0
  6  7  1  0
  7  8  1  0
  9 10  2  0
  9 17  1  0
 10 18  1  0
 12 15  1  0
 13 16  1  0
 14 21  2  0
 14 22  1  0
 17 19  2  0
 18 20  2  0
 19 20  1  0
 21 23  1  0
 22 24  2  0
 23 25  2  0
 24 25  1  0
M  END
>  <PUBCHEM_COMPOUND_CID>  (1) 
39298

>  <PUBCHEM_CONFORMER_RMSD>  (1) 
0.8

>  <PUBCHEM_CONFORMER_DIVERSEORDER>  (1) 
1
41
32
40
22
57
49
7
11
29
24
47
42
36
12
59
28
58
20
16
54
9
52
45
13
48
25
18
53
50
14
38
35
56
46
17
51
21
37
26
3
55
33
43
39
44
31
10
27
60
4
30
23
34
15
5
6
2
19
8

>  <PUBCHEM_MMFF94_PARTIAL_CHARGES>  (1) 
33
1 -0.56
10 0.12
11 0.57
12 0.27
13 0.27
14 -0.14
15 0.28
16 0.28
17 -0.15
18 -0.15
19 -0.15
2 -0.57
20 -0.15
21 -0.15
22 -0.15
23 -0.15
24 -0.15
25 -0.15
3 -0.48
4 -0.81
41 0.15
42 0.15
43 0.15
44 0.15
45 0.15
46 0.15
47 0.15
48 0.15
49 0.15
5 0.35
6 0.3
8 0.27
9 -0.14

>  <PUBCHEM_EFFECTIVE_ROTOR_COUNT>  (1) 
6.6

>  <PUBCHEM_PHARMACOPHORE_FEATURES>  (1) 
7
1 1 acceptor
1 2 acceptor
1 4 cation
5 3 5 9 10 11 rings
6 1 4 12 13 15 16 rings
6 14 21 22 23 24 25 rings
6 9 10 17 18 19 20 rings

>  <PUBCHEM_HEAVY_ATOM_COUNT>  (1) 
25

>  <PUBCHEM_ATOM_DEF_STEREO_COUNT>  (1) 
0

>  <PUBCHEM_ATOM_UDEF_STEREO_COUNT>  (1) 
1

>  <PUBCHEM_BOND_DEF_STEREO_COUNT>  (1) 
0

>  <PUBCHEM_BOND_UDEF_STEREO_COUNT>  (1) 
0

>  <PUBCHEM_ISOTOPIC_ATOM_COUNT>  (1) 
0

>  <PUBCHEM_COMPONENT_COUNT>  (1) 
1

>  <PUBCHEM_CACTVS_TAUTO_COUNT>  (1) 
2

>  <PUBCHEM_CONFORMER_ID>  (1) 
0000998200000001

>  <PUBCHEM_MMFF94_ENERGY>  (1) 
59.8639

>  <PUBCHEM_FEATURE_SELFOVERLAP>  (1) 
35.609

>  <PUBCHEM_SHAPE_FINGERPRINT>  (1) 
107951 10 18266177219272864229
1100329 8 17689150110865081810
11014199 57 18334579070504238316
11796584 16 17460296975281877275
12549972 3 17774138138081758592
12760667 363 18336828701448765455
12788726 201 18191886701723402398
13140716 1 18270121335450470001
13383661 66 17097514212607649466
13402501 40 18336266846701955466
13631057 29 18261671571246916914
13911852 28 18194964278120854783
14420673 8 18126286338224350478
14713325 29 18343023255032278337
14790565 3 17617378381344590001
14844126 61 18413385445401305687
14866123 147 18409731717007221155
15042514 8 18410858759349367049
15131766 46 16125259025791076081
15230672 131 17902797354284561998
15250474 111 18115858625659928122
15927050 60 18194960747915810519
17492 89 18410854408404798620
17844677 252 18341615940990559932
17980427 26 17331108400635528213
21859007 373 11094795245245702730
23559900 14 18262226845698277789
268830 7 15123220104982056536
329604 57 18334579088057958606
4058900 60 17692816986829358241
4073 2 18410292476833191962
437815 12 18263922318941710331
484985 159 18260828194215264195
4921388 177 18333732390625858064
497634 4 18113056056203308124
5104073 3 18342447120272920952
5309563 4 18266459999851912139
56633871 153 18056198214014052015
59755656 520 18264481785671503677
7226269 152 18408879630098058541
7970288 3 18195243557936962023
9981440 41 17845087359852792615

>  <PUBCHEM_SHAPE_MULTIPOLES>  (1) 
492.79
12.29
4.31
1.17
22.04
1.3
0.04
-7.27
0.35
-6.73
1.37
-0.3
-0.38
1.15

>  <PUBCHEM_SHAPE_SELFOVERLAP>  (1) 
1063.531

>  <PUBCHEM_SHAPE_VOLUME>  (1) 
271.7

>  <PUBCHEM_COORDINATE_TYPE>  (1) 
2
5
10

$$$$
