39299
     RDKit          3D

 18 19  0  0  0  0  0  0  0  0999 V2000
    5.7759    1.0153   -0.2435 Cl  0  0  0  0  0  0  0  0  0  0  0  0
   -5.4782    1.0950   -0.0088 O   0  0  0  0  0  0  0  0  0  0  0  0
   -3.7627    0.8282   -1.4717 O   0  0  0  0  0  0  0  0  0  0  0  0
    0.0920   -0.4918    0.1470 N   0  0  0  0  0  0  0  0  0  0  0  0
   -0.9385    0.3392    0.5354 C   0  0  0  0  0  0  0  0  0  0  0  0
   -2.1131   -0.3793    0.4989 C   0  0  0  0  0  0  0  0  0  0  0  0
   -0.4320   -1.7368   -0.1343 C   0  0  0  0  0  0  0  0  0  0  0  0
   -1.7927   -1.6927    0.0751 C   0  0  0  0  0  0  0  0  0  0  0  0
    1.4253   -0.1376    0.0556 C   0  0  0  0  0  0  0  0  0  0  0  0
   -3.4610    0.1188    0.8382 C   0  0  0  0  0  0  0  0  0  0  0  0
   -0.7076    1.7528    0.9098 C   0  0  0  0  0  0  0  0  0  0  0  0
    0.4120   -2.8664   -0.5812 C   0  0  0  0  0  0  0  0  0  0  0  0
    1.9314    0.3710   -1.1405 C   0  0  0  0  0  0  0  0  0  0  0  0
    2.2648   -0.2903    1.1591 C   0  0  0  0  0  0  0  0  0  0  0  0
   -4.2190    0.7078   -0.3429 C   0  0  0  0  0  0  0  0  0  0  0  0
    3.2768    0.7269   -1.2332 C   0  0  0  0  0  0  0  0  0  0  0  0
    3.6103    0.0657    1.0666 C   0  0  0  0  0  0  0  0  0  0  0  0
    4.1164    0.5744   -0.1297 C   0  0  0  0  0  0  0  0  0  0  0  0
  1 18  1  0
  2 15  1  0
  3 15  2  0
  4  5  1  0
  4  7  1  0
  4  9  1  0
  5  6  2  0
  5 11  1  0
  6  8  1  0
  6 10  1  0
  7  8  2  0
  7 12  1  0
  9 13  2  0
  9 14  1  0
 10 15  1  0
 13 16  1  0
 14 17  2  0
 16 18  2  0
 17 18  1  0
M  END
>  <PUBCHEM_COMPOUND_CID>  (1) 
39299

>  <PUBCHEM_CONFORMER_RMSD>  (1) 
0.6

>  <PUBCHEM_CONFORMER_DIVERSEORDER>  (1) 
2
4
6
1
3
5

>  <PUBCHEM_MMFF94_PARTIAL_CHARGES>  (1) 
24
1 -0.18
10 0.24
11 0.18
12 0.18
13 -0.15
14 -0.15
15 0.66
16 -0.15
17 -0.15
18 0.18
19 0.15
2 -0.65
28 0.15
29 0.15
3 -0.57
30 0.15
31 0.15
32 0.5
4 0.33
5 -0.33
6 -0.18
7 -0.33
8 -0.15
9 -0.02

>  <PUBCHEM_EFFECTIVE_ROTOR_COUNT>  (1) 
3

>  <PUBCHEM_PHARMACOPHORE_FEATURES>  (1) 
6
1 2 acceptor
1 3 acceptor
1 4 cation
3 2 3 15 anion
5 4 5 6 7 8 rings
6 9 13 14 16 17 18 rings

>  <PUBCHEM_HEAVY_ATOM_COUNT>  (1) 
18

>  <PUBCHEM_ATOM_DEF_STEREO_COUNT>  (1) 
0

>  <PUBCHEM_ATOM_UDEF_STEREO_COUNT>  (1) 
0

>  <PUBCHEM_BOND_DEF_STEREO_COUNT>  (1) 
0

>  <PUBCHEM_BOND_UDEF_STEREO_COUNT>  (1) 
0

>  <PUBCHEM_ISOTOPIC_ATOM_COUNT>  (1) 
0

>  <PUBCHEM_COMPONENT_COUNT>  (1) 
1

>  <PUBCHEM_CACTVS_TAUTO_COUNT>  (1) 
1

>  <PUBCHEM_CONFORMER_ID>  (1) 
0000998300000002

>  <PUBCHEM_MMFF94_ENERGY>  (1) 
51.9195

>  <PUBCHEM_FEATURE_SELFOVERLAP>  (1) 
30.504

>  <PUBCHEM_SHAPE_FINGERPRINT>  (1) 
10014705 185 18339361984696980248
10354089 29 17022905653151409940
10366900 7 17060346236301715152
10498660 4 18342745147478648232
11089746 13 18335693988316432852
12236239 1 18040998470923930864
12500047 106 18271806891028184582
12670546 56 16660354888079169657
12892183 10 15574706950788538425
12969540 114 18341598339465507909
13103583 49 10014731912544286685
13533116 47 18201717294013037422
13538477 17 18335701693334586258
13583140 156 17458351870202532897
13675066 3 17967254221479733688
13740256 8 9583226249934293125
14252887 29 11818990768928700160
14911166 2 18202846564841239289
15188451 53 13551769478009608353
15209294 21 14273727426767867813
15238133 3 16081092541551522748
15375358 24 17775005725923198960
16945 1 18272376360414576011
18186145 218 17989205970996412819
187816 3 17988926673425865193
19784866 34 18341899550338890635
20279233 1 17203056261291392198
20600515 1 18058751198229871760
20645476 183 18188209913291949442
20645477 56 18408605889455354708
20645477 70 15984839086343599292
20871999 31 18199463440508548863
23402539 116 18202561804525679676
23402655 69 16199881574055184832
23493267 7 18186806902126629467
23557571 272 17916308405915051206
23559900 14 18059584615880724550
2748010 2 18056474191331507203
2838139 119 17385992980114335837
3071541 37 18341333280038574491
34934 24 18187080689517899312
350125 39 17981336589992934600
3759504 43 18334015037765176395
4072396 5 18337660919696408867
4175511 318 18260267468843457151
633830 44 17703795816479432825
7364860 26 17985833631364136142
77492 1 18041277789764028130
81539 233 18334856069824112219
8272917 22 17458342992473438122

>  <PUBCHEM_SHAPE_MULTIPOLES>  (1) 
355.58
9.77
1.86
1.15
1.14
1.37
0.11
-5.47
1.28
-0.69
0.19
0.24
-0.19
-0.02

>  <PUBCHEM_SHAPE_SELFOVERLAP>  (1) 
751.999

>  <PUBCHEM_SHAPE_VOLUME>  (1) 
203.1

>  <PUBCHEM_COORDINATE_TYPE>  (1) 
2
5
10

$$$$
