393
     RDKit          3D

 17 16  0  0  1  0  0  0  0  0999 V2000
    3.6348   -0.8842    0.0923 P   0  0  0  0  0  0  0  0  0  0  0  0
    1.0668    2.5200    1.0179 O   0  0  0  0  0  0  0  0  0  0  0  0
    2.4951    0.0803    0.7136 O   0  0  0  0  0  0  0  0  0  0  0  0
   -0.4773    2.4240   -1.3550 O   0  0  0  0  0  0  0  0  0  0  0  0
   -1.9289    0.2289   -1.7128 O   0  0  0  0  0  0  0  0  0  0  0  0
   -3.0766    0.6336    1.4021 O   0  0  0  0  0  0  0  0  0  0  0  0
    4.0271   -0.1672   -1.3030 O   0  0  0  0  0  0  0  0  0  0  0  0
    2.7891   -2.1791   -0.3799 O   0  0  0  0  0  0  0  0  0  0  0  0
   -2.5390   -2.3444   -0.5253 O   0  0  0  0  0  0  0  0  0  0  0  0
    4.7864   -1.1788    1.0084 O   0  0  0  0  0  0  0  0  0  0  0  0
   -4.4097   -1.4913    0.4362 O   0  0  0  0  0  0  0  0  0  0  0  0
    0.3846    1.3237    0.6322 C   0  0  0  0  0  0  0  0  0  0  0  0
   -0.8540    1.7407   -0.1703 C   0  0  0  0  0  0  0  0  0  0  0  0
    1.3720    0.4052   -0.0941 C   0  0  0  0  0  0  0  0  0  0  0  0
   -1.7281    0.5458   -0.5392 C   0  0  0  0  0  0  0  0  0  0  0  0
   -2.3234   -0.2592    0.6039 C   0  0  0  0  0  0  0  0  0  0  0  0
   -3.2186   -1.3980    0.1731 C   0  0  0  0  0  0  0  0  0  0  0  0
  1  3  1  0
  1  7  1  0
  1  8  1  0
  1 10  2  0
  2 12  1  0
  3 14  1  0
  4 13  1  0
  5 15  2  0
  6 16  1  0
  9 17  1  0
 11 17  2  0
 12 13  1  0
 12 14  1  0
 13 15  1  0
 15 16  1  0
 16 17  1  0
M  END
>  <PUBCHEM_COMPOUND_CID>  (1) 
393

>  <PUBCHEM_CONFORMER_RMSD>  (1) 
1

>  <PUBCHEM_CONFORMER_DIVERSEORDER>  (1) 
1
133
687
191
756
729
172
85
99
84
256
30
741
285
67
11
340
411
75
474
115
755
124
7
145
583
328
46
112
268
344
58
14
406
20
207
140
18
79
455
143
96
63
36
349
6
267
118
700
86
264
731
173
89
81
403
33
402
418
22
23
359
307
153
612
484
234
647
147
138
489
553
70
266
421
186
243
290
708
56
613
19
37
24
358
351
479
526
580
551
363
150
643
209
659
13
691
384
637
27
246
339
674
726
605
12
442
680
38
212
567
562
566
116
608
41
636
304
226
324
409
47
589
98
694
282
80
281
735
413
90
15
157
350
74
357
527
91
401
49
671
2
57
250
366
760
92
275
249
677
253
45
156
142
193
71
54
634
3
88
53

>  <PUBCHEM_MMFF94_PARTIAL_CHARGES>  (1) 
23
1 1.51
10 -0.7
11 -0.57
12 0.28
13 0.34
14 0.28
15 0.45
16 0.4
17 0.66
2 -0.68
23 0.4
24 0.4
25 0.4
26 0.5
27 0.5
28 0.5
3 -0.55
4 -0.68
5 -0.57
6 -0.68
7 -0.77
8 -0.77
9 -0.65

>  <PUBCHEM_EFFECTIVE_ROTOR_COUNT>  (1) 
7

>  <PUBCHEM_PHARMACOPHORE_FEATURES>  (1) 
15
1 10 acceptor
1 11 acceptor
1 16 anion
1 2 acceptor
1 2 donor
1 4 acceptor
1 4 donor
1 5 acceptor
1 6 acceptor
1 6 donor
1 7 acceptor
1 8 acceptor
1 9 acceptor
3 9 11 17 anion
4 1 7 8 10 anion

>  <PUBCHEM_HEAVY_ATOM_COUNT>  (1) 
17

>  <PUBCHEM_ATOM_DEF_STEREO_COUNT>  (1) 
0

>  <PUBCHEM_ATOM_UDEF_STEREO_COUNT>  (1) 
3

>  <PUBCHEM_BOND_DEF_STEREO_COUNT>  (1) 
0

>  <PUBCHEM_BOND_UDEF_STEREO_COUNT>  (1) 
0

>  <PUBCHEM_ISOTOPIC_ATOM_COUNT>  (1) 
0

>  <PUBCHEM_COMPONENT_COUNT>  (1) 
1

>  <PUBCHEM_CACTVS_TAUTO_COUNT>  (1) 
32

>  <PUBCHEM_CONFORMER_ID>  (1) 
0000018900000001

>  <PUBCHEM_MMFF94_ENERGY>  (1) 
-14.6812

>  <PUBCHEM_FEATURE_SELFOVERLAP>  (1) 
76.506

>  <PUBCHEM_SHAPE_FINGERPRINT>  (1) 
11127187 94 18114169805505121661
12006461 19 18339927124972874971
12553582 1 18342458149137201662
13533116 47 17914331531901913451
14251705 54 18340489954778429966
15061688 2 13613970937851109665
15375462 189 18335145267167488498
17804303 29 18342746234311128409
1813 80 18114196240970884173
18186145 218 12757153437837290544
19107657 46 18342455915844079758
19766037 51 17676773166458609363
20281407 28 18409450271483416416
20281475 54 18410015420618335888
20621476 91 18194374858436697042
20645477 70 18120359107061536615
20671657 53 17022623095600224702
20871998 22 18335977679021611945
20871999 31 17748821912932583453
21061003 4 17988633082589252560
23402539 116 17458061530755869830
23557571 272 17531510075406640884
27216 239 11167644530035765103
4416823 128 18410291436480421867
5902787 121 18412538808647159216
83771 10 18335704965783050577

>  <PUBCHEM_SHAPE_MULTIPOLES>  (1) 
295.01
7.82
2.46
1.22
4.56
0.32
-0.22
-5.89
1
-0.48
-0.13
-0.06
0.35
0.11

>  <PUBCHEM_SHAPE_SELFOVERLAP>  (1) 
565.607

>  <PUBCHEM_SHAPE_VOLUME>  (1) 
179.8

>  <PUBCHEM_COORDINATE_TYPE>  (1) 
2
5
10

$$$$
