39305
     RDKit          3D

 17 19  0  0  0  0  0  0  0  0999 V2000
    0.0001    1.3557    0.0004 N   0  0  0  0  0  0  0  0  0  0  0  0
    0.0000   -2.8357    0.0005 N   0  0  0  0  0  0  0  0  0  0  0  0
   -4.8028    1.4561   -0.0012 N   0  0  0  0  0  0  0  0  0  0  0  0
    4.8027    1.4561   -0.0001 N   0  0  0  0  0  0  0  0  0  0  0  0
   -1.2146   -0.7211   -0.0001 C   0  0  0  0  0  0  0  0  0  0  0  0
    1.2147   -0.7212   -0.0002 C   0  0  0  0  0  0  0  0  0  0  0  0
    0.0000   -1.4144   -0.0003 C   0  0  0  0  0  0  0  0  0  0  0  0
   -1.1671    0.6831    0.0002 C   0  0  0  0  0  0  0  0  0  0  0  0
    1.1671    0.6831    0.0001 C   0  0  0  0  0  0  0  0  0  0  0  0
   -2.4500   -1.3922    0.0000 C   0  0  0  0  0  0  0  0  0  0  0  0
    2.4500   -1.3922   -0.0004 C   0  0  0  0  0  0  0  0  0  0  0  0
   -2.3731    1.3790    0.0005 C   0  0  0  0  0  0  0  0  0  0  0  0
    2.3732    1.3789    0.0002 C   0  0  0  0  0  0  0  0  0  0  0  0
   -3.6026    0.7155    0.0005 C   0  0  0  0  0  0  0  0  0  0  0  0
    3.6025    0.7154    0.0000 C   0  0  0  0  0  0  0  0  0  0  0  0
   -3.6415   -0.6730    0.0002 C   0  0  0  0  0  0  0  0  0  0  0  0
    3.6415   -0.6730   -0.0003 C   0  0  0  0  0  0  0  0  0  0  0  0
  1  8  2  0
  1  9  1  0
  2  7  1  0
  3 14  1  0
  4 15  1  0
  5  7  2  0
  5  8  1  0
  5 10  1  0
  6  7  1  0
  6  9  2  0
  6 11  1  0
  8 12  1  0
  9 13  1  0
 10 16  2  0
 11 17  2  0
 12 14  2  0
 13 15  2  0
 14 16  1  0
 15 17  1  0
M  END
>  <PUBCHEM_COMPOUND_CID>  (1) 
39305

>  <PUBCHEM_CONFORMER_RMSD>  (1) 
0.4

>  <PUBCHEM_CONFORMER_DIVERSEORDER>  (1) 
1

>  <PUBCHEM_MMFF94_PARTIAL_CHARGES>  (1) 
27
1 -0.62
10 -0.15
11 -0.15
12 -0.15
13 -0.15
14 0.1
15 0.1
16 -0.15
17 -0.15
18 0.15
19 0.15
2 -0.9
20 0.15
21 0.15
22 0.15
23 0.15
24 0.4
25 0.4
26 0.4
27 0.4
28 0.4
29 0.4
3 -0.9
4 -0.9
7 0.1
8 0.31
9 0.31

>  <PUBCHEM_EFFECTIVE_ROTOR_COUNT>  (1) 
0

>  <PUBCHEM_PHARMACOPHORE_FEATURES>  (1) 
10
1 1 acceptor
1 2 cation
1 2 donor
1 3 cation
1 3 donor
1 4 cation
1 4 donor
6 1 5 6 7 8 9 rings
6 5 8 10 12 14 16 rings
6 6 9 11 13 15 17 rings

>  <PUBCHEM_HEAVY_ATOM_COUNT>  (1) 
17

>  <PUBCHEM_ATOM_DEF_STEREO_COUNT>  (1) 
0

>  <PUBCHEM_ATOM_UDEF_STEREO_COUNT>  (1) 
0

>  <PUBCHEM_BOND_DEF_STEREO_COUNT>  (1) 
0

>  <PUBCHEM_BOND_UDEF_STEREO_COUNT>  (1) 
0

>  <PUBCHEM_ISOTOPIC_ATOM_COUNT>  (1) 
0

>  <PUBCHEM_COMPONENT_COUNT>  (1) 
1

>  <PUBCHEM_CACTVS_TAUTO_COUNT>  (1) 
46

>  <PUBCHEM_CONFORMER_ID>  (1) 
0000998900000001

>  <PUBCHEM_MMFF94_ENERGY>  (1) 
90.4214

>  <PUBCHEM_FEATURE_SELFOVERLAP>  (1) 
50.807

>  <PUBCHEM_SHAPE_FINGERPRINT>  (1) 
10062212 137 18411688881605743731
10411042 1 17185877186782739843
10608611 8 18410571786128507392
10967382 1 18338798914072829574
11132069 177 18410289207387159457
11471102 20 18411415072918439469
11543360 7 15697708302690831397
13140716 1 18337671923239214298
13380535 76 18410575088958384003
14144814 61 18410011043998961130
14325111 11 18410856563945364832
15196674 1 18410856559639932487
15219456 202 18411141324646000927
15230672 131 13434921658712951171
15309172 13 18411708685625839483
15442244 35 18194964033017003538
15536298 74 18342458123551877646
15775835 57 18410577287981327745
16945 1 18122626054681380387
18186145 218 18409448051058956764
193761 8 17689997830029107716
200 152 18060412530561061653
20510252 161 18272092703257096368
20645477 70 18270679762217357159
21267235 1 18410865360028188322
21501502 16 18410851066376871342
2334 1 18410574019521758499
23402539 116 18271518779883675780
23402655 69 18343862212368828685
23463225 33 18335420149221498326
23559900 14 18343865507473712942
25 1 18409727331244244287
2748010 2 18410295817315519239
296302 2 18411983567706346781
335352 9 18266458702628766558
34934 24 18410849962570029408
3545911 37 18410858758668573244
474 4 17169274952066017028
4990 188 17988652882583334828
5104073 3 18409729560221404594
528886 8 18411132528494891659
53812653 166 18341890805368894056
54173680 148 17976541933306838123
633830 44 18271244928294515719
69090 78 18412541024359673311
7364860 26 18196935465692244566
9709674 26 18411987996013230158

>  <PUBCHEM_SHAPE_MULTIPOLES>  (1) 
329.93
7.86
2.11
0.6
0
0.78
0
-3.28
0
0
0
0
0.01
0

>  <PUBCHEM_SHAPE_SELFOVERLAP>  (1) 
747.611

>  <PUBCHEM_SHAPE_VOLUME>  (1) 
172.2

>  <PUBCHEM_COORDINATE_TYPE>  (1) 
2
5
10

$$$$
