39308
     RDKit          3D

 20 22  0  0  0  0  0  0  0  0999 V2000
   -2.3303    2.4334   -0.2105 O   0  0  0  0  0  0  0  0  0  0  0  0
    1.4132   -2.7828    0.6611 O   0  0  0  0  0  0  0  0  0  0  0  0
   -3.8029   -1.3348   -0.2335 N   0  0  0  0  0  0  0  0  0  0  0  0
    0.7934    0.5881   -0.0445 C   0  0  0  0  0  0  0  0  0  0  0  0
    0.2947   -0.6856    0.2794 C   0  0  0  0  0  0  0  0  0  0  0  0
    2.2355    0.5220   -0.1430 C   0  0  0  0  0  0  0  0  0  0  0  0
   -1.9307    0.1137    0.2757 C   0  0  0  0  0  0  0  0  0  0  0  0
    2.6557   -0.7936    0.1180 C   0  0  0  0  0  0  0  0  0  0  0  0
   -1.0490   -0.9537    0.4450 C   0  0  0  0  0  0  0  0  0  0  0  0
    1.4491   -1.6019    0.3933 C   0  0  0  0  0  0  0  0  0  0  0  0
   -3.3963   -0.1246    0.4450 C   0  0  0  0  0  0  0  0  0  0  0  0
   -0.0853    1.6437   -0.2117 C   0  0  0  0  0  0  0  0  0  0  0  0
   -1.4546    1.3987   -0.0492 C   0  0  0  0  0  0  0  0  0  0  0  0
    3.1756    1.4947   -0.4338 C   0  0  0  0  0  0  0  0  0  0  0  0
    3.9795   -1.1835    0.1015 C   0  0  0  0  0  0  0  0  0  0  0  0
    4.5263    1.1254   -0.4569 C   0  0  0  0  0  0  0  0  0  0  0  0
    4.9234   -0.1994   -0.1922 C   0  0  0  0  0  0  0  0  0  0  0  0
   -3.5213   -1.2531   -1.6724 C   0  0  0  0  0  0  0  0  0  0  0  0
   -5.2303   -1.6052   -0.0208 C   0  0  0  0  0  0  0  0  0  0  0  0
   -2.6457    3.1985    0.9495 C   0  0  0  0  0  0  0  0  0  0  0  0
  1 13  1  0
  1 20  1  0
  2 10  2  0
  3 11  1  0
  3 18  1  0
  3 19  1  0
  4  5  2  0
  4  6  1  0
  4 12  1  0
  5  9  1  0
  5 10  1  0
  6  8  2  0
  6 14  1  0
  7  9  2  0
  7 11  1  0
  7 13  1  0
  8 10  1  0
  8 15  1  0
 12 13  2  0
 14 16  2  0
 15 17  2  0
 16 17  1  0
M  END
>  <PUBCHEM_COMPOUND_CID>  (1) 
39308

>  <PUBCHEM_CONFORMER_RMSD>  (1) 
0.6

>  <PUBCHEM_CONFORMER_DIVERSEORDER>  (1) 
2
3
4
1

>  <PUBCHEM_MMFF94_PARTIAL_CHARGES>  (1) 
24
1 -0.36
10 0.4
11 0.41
12 -0.15
13 0.08
14 -0.15
15 -0.15
16 -0.15
17 -0.15
18 0.27
19 0.27
2 -0.57
20 0.28
21 0.15
24 0.15
25 0.15
26 0.15
27 0.15
28 0.15
3 -0.81
5 0.09
7 -0.14
8 0.09
9 -0.15

>  <PUBCHEM_EFFECTIVE_ROTOR_COUNT>  (1) 
3

>  <PUBCHEM_PHARMACOPHORE_FEATURES>  (1) 
6
1 1 acceptor
1 2 acceptor
1 3 cation
5 4 5 6 8 10 rings
6 4 5 7 9 12 13 rings
6 6 8 14 15 16 17 rings

>  <PUBCHEM_HEAVY_ATOM_COUNT>  (1) 
20

>  <PUBCHEM_ATOM_DEF_STEREO_COUNT>  (1) 
0

>  <PUBCHEM_ATOM_UDEF_STEREO_COUNT>  (1) 
0

>  <PUBCHEM_BOND_DEF_STEREO_COUNT>  (1) 
0

>  <PUBCHEM_BOND_UDEF_STEREO_COUNT>  (1) 
0

>  <PUBCHEM_ISOTOPIC_ATOM_COUNT>  (1) 
0

>  <PUBCHEM_COMPONENT_COUNT>  (1) 
1

>  <PUBCHEM_CACTVS_TAUTO_COUNT>  (1) 
1

>  <PUBCHEM_CONFORMER_ID>  (1) 
0000998C00000002

>  <PUBCHEM_MMFF94_ENERGY>  (1) 
83.1241

>  <PUBCHEM_FEATURE_SELFOVERLAP>  (1) 
30.615

>  <PUBCHEM_SHAPE_FINGERPRINT>  (1) 
10062212 137 18264481802507942090
10616163 171 18341050709887148159
10967382 1 18335143120110919538
11045515 52 18187359982804497157
11578080 2 17702922821870330521
11806522 49 18408604785733110198
12236239 1 18131074874260640587
12403259 226 18409162187074627372
12403260 363 18407757045599987112
12553582 1 18270667779717549991
12788726 201 17987503820313984053
13140716 1 18047763877058589835
13583140 156 17059476453652461368
13862211 1 18336542810781535370
14178342 30 18121764059266920394
14251751 93 18201718418793049814
14576447 43 18269546311979775047
14787075 74 18270961370680828192
15196674 1 18336549326800382456
15442244 35 18048032978487890442
16945 1 18335706078074033328
17349148 13 18040712580283028904
17492 89 18338797797398092306
200 152 18410288133930198103
20510252 161 18342179959752658288
20645477 70 18260265252809722042
21267235 1 18409457993824279418
21501502 16 18263642870645698890
21709351 56 18261955150815605708
23402539 116 18410290324115514807
23402655 69 18409726227500933453
23557571 272 18059863839408595492
23558518 356 18187938226592698611
23559900 14 17983012255037231910
23598288 3 18129373818171731157
25147074 1 18263355889420707603
283562 15 18408886248041352985
2871803 45 18335698355728311191
312423 11 18334298621908075562
335352 9 17975698290661426382
34934 24 18336827486099400409
350125 39 18410577283882013624
352729 6 18117009977394967970
5104073 3 18336827486088799752
53777708 50 18266177231931283275
57096353 35 18335987540455953772
602551 16 16056310756030984686
603831 33 18411971468883856815
7364860 26 18049726218195172754
7832392 63 18122064200145151176
9709674 26 18336837402852138018

>  <PUBCHEM_SHAPE_MULTIPOLES>  (1) 
394.87
9.31
2.7
0.88
0.27
1.25
-0.19
-2.17
-1.33
-1.78
0.47
-0.54
-0.09
-1.16

>  <PUBCHEM_SHAPE_SELFOVERLAP>  (1) 
869.913

>  <PUBCHEM_SHAPE_VOLUME>  (1) 
216.7

>  <PUBCHEM_COORDINATE_TYPE>  (1) 
2
5
10

$$$$
