39301
     RDKit          3D

 24 26  0  0  0  0  0  0  0  0999 V2000
   -2.4002    1.0476   -1.0031 O   0  0  0  0  0  0  0  0  0  0  0  0
    0.2116    1.4039   -1.8002 O   0  0  0  0  0  0  0  0  0  0  0  0
    3.7868    3.2266    0.1060 O   0  0  0  0  0  0  0  0  0  0  0  0
    4.6494    1.2651    0.8985 O   0  0  0  0  0  0  0  0  0  0  0  0
    0.8847   -0.3676   -0.5418 N   0  0  0  0  0  0  0  0  0  0  0  0
    2.8191   -0.8986    0.4712 N   0  0  0  0  0  0  0  0  0  0  0  0
    2.5312    1.3692   -0.1136 N   0  0  0  0  0  0  0  0  0  0  0  0
    0.8425   -1.7358   -0.2915 C   0  0  0  0  0  0  0  0  0  0  0  0
    2.0551   -2.0251    0.3355 C   0  0  0  0  0  0  0  0  0  0  0  0
    2.1019    0.0651   -0.0561 C   0  0  0  0  0  0  0  0  0  0  0  0
   -0.1053    0.4115   -1.1602 C   0  0  0  0  0  0  0  0  0  0  0  0
   -0.1117   -2.7330   -0.5428 C   0  0  0  0  0  0  0  0  0  0  0  0
    2.3415   -3.3439    0.7311 C   0  0  0  0  0  0  0  0  0  0  0  0
   -1.5164   -0.0588   -0.9719 C   0  0  0  0  0  0  0  0  0  0  0  0
    0.1893   -4.0399   -0.1430 C   0  0  0  0  0  0  0  0  0  0  0  0
    1.3958   -4.3428    0.4840 C   0  0  0  0  0  0  0  0  0  0  0  0
   -3.5607    0.9386   -0.2779 C   0  0  0  0  0  0  0  0  0  0  0  0
    3.7417    1.8794    0.3519 C   0  0  0  0  0  0  0  0  0  0  0  0
   -4.1368   -0.3112   -0.0895 C   0  0  0  0  0  0  0  0  0  0  0  0
   -4.1446    2.0796    0.2573 C   0  0  0  0  0  0  0  0  0  0  0  0
   -5.3165   -0.4219    0.6466 C   0  0  0  0  0  0  0  0  0  0  0  0
   -5.3242    1.9690    0.9934 C   0  0  0  0  0  0  0  0  0  0  0  0
   -5.9102    0.7183    1.1880 C   0  0  0  0  0  0  0  0  0  0  0  0
    4.9761    3.9046    0.5280 C   0  0  0  0  0  0  0  0  0  0  0  0
  1 14  1  0
  1 17  1  0
  2 11  2  0
  3 18  1  0
  3 24  1  0
  4 18  2  0
  5  8  1  0
  5 10  1  0
  5 11  1  0
  6  9  1  0
  6 10  2  0
  7 10  1  0
  7 18  1  0
  8  9  2  0
  8 12  1  0
  9 13  1  0
 11 14  1  0
 12 15  2  0
 13 16  2  0
 15 16  1  0
 17 19  2  0
 17 20  1  0
 19 21  1  0
 20 22  2  0
 21 23  2  0
 22 23  1  0
M  END
>  <PUBCHEM_COMPOUND_CID>  (1) 
39301

>  <PUBCHEM_CONFORMER_RMSD>  (1) 
0.8

>  <PUBCHEM_CONFORMER_DIVERSEORDER>  (1) 
1
128
113
72
13
85
127
77
116
108
8
39
88
104
81
4
34
30
95
20
92
111
106
73
121
26
118
74
66
117
35
94
99
21
60
110
82
54
22
41
24
14
44
49
31
101
120
71
124
18
55
23
83
9
69
11
65
112
98
91
25
53
103
50
38
12
126
57
109
40
19
119
52
51
86
2
6
93
43
76
78
5
122
89
84
62
42
47
37
10
61
70
29
114
7
48
105
87
64
16
79
32
125
15
3
90
68
75
67
56
123
63
28
17
96
107
36
102
100
59
97
58
27
46
45
80
33
115

>  <PUBCHEM_MMFF94_PARTIAL_CHARGES>  (1) 
34
1 -0.36
10 0.25
11 0.52
12 -0.15
13 -0.15
14 0.34
15 -0.15
16 -0.15
17 0.08
18 0.78
19 -0.15
2 -0.57
20 -0.15
21 -0.15
22 -0.15
23 -0.15
24 0.28
25 0.15
26 0.15
29 0.15
3 -0.43
30 0.15
31 0.37
32 0.15
33 0.15
34 0.15
35 0.15
36 0.15
4 -0.57
5 0.29
6 -0.57
7 -0.49
8 -0.15
9 0.23

>  <PUBCHEM_EFFECTIVE_ROTOR_COUNT>  (1) 
7

>  <PUBCHEM_PHARMACOPHORE_FEATURES>  (1) 
7
1 1 acceptor
1 2 acceptor
1 4 acceptor
1 7 donor
5 5 6 8 9 10 rings
6 17 19 20 21 22 23 rings
6 8 9 12 13 15 16 rings

>  <PUBCHEM_HEAVY_ATOM_COUNT>  (1) 
24

>  <PUBCHEM_ATOM_DEF_STEREO_COUNT>  (1) 
0

>  <PUBCHEM_ATOM_UDEF_STEREO_COUNT>  (1) 
0

>  <PUBCHEM_BOND_DEF_STEREO_COUNT>  (1) 
0

>  <PUBCHEM_BOND_UDEF_STEREO_COUNT>  (1) 
0

>  <PUBCHEM_ISOTOPIC_ATOM_COUNT>  (1) 
0

>  <PUBCHEM_COMPONENT_COUNT>  (1) 
1

>  <PUBCHEM_CACTVS_TAUTO_COUNT>  (1) 
3

>  <PUBCHEM_CONFORMER_ID>  (1) 
0000998500000001

>  <PUBCHEM_MMFF94_ENERGY>  (1) 
72.2354

>  <PUBCHEM_FEATURE_SELFOVERLAP>  (1) 
35.631

>  <PUBCHEM_SHAPE_FINGERPRINT>  (1) 
10493431 412 18266175217739411820
10498660 4 12174751990282220091
1100329 8 17543626891091700383
114674 6 17897171217403689755
12035758 1 18265033775147954138
12107183 9 17548423601221181121
12390115 104 18195253445320338380
12892183 10 18337399253794844629
13140716 1 18335697252191137602
13533116 47 18264497183439826729
13583140 156 18192423066219840365
13955234 65 18337394824897611755
14565420 104 18412826910479060297
14787075 74 18130220592380324013
14790565 3 18338517555345618260
14849402 71 18410295788005122200
14863182 85 18041575683852020774
14955137 171 18194115206183840594
15142526 21 18198900499182342889
15338160 23 17617095145922229776
15475509 8 17986680277578298550
15475509 84 17837494046673800297
15842332 3 17844501397617723431
15927050 60 18340769355586773062
16126227 98 18122348145082303416
16992610 120 18117579512166829420
16993089 31 14563901744517007904
1813 80 16589737560201170775
18785283 64 18336823092100125258
1979834 28 18187093849261050453
20739085 24 18187651271190479564
21049683 271 18044671801944731846
21065198 57 18193276283153780845
21065199 12 18262805052013850729
21304303 172 17545602717824238926
21756936 100 18058161920258560868
23559900 14 18121777236511277763
23845131 108 18336540629206966563
239999 70 18130233640116787039
283562 15 17761478588991443726
3117164 225 17834966269947860857
31174 14 18119243969767867911
3178227 256 18335987467879541442
3421961 26 18118126870618201703
38570 142 18200609076149046588
458136 41 18409725158249151582
5104073 3 18265065648173682169
5969126 39 9222695284029093088
59755656 520 18338232799409376748
621550 34 18261391122625205757
633830 44 18201999927902736628
6442390 28 18337393850161256526
7399639 24 18260543420566604637
7808743 9 18124029293928685496
79837 15 18120653797124862698
9658208 31 18267316511352206564
9777508 108 18051971721138110714

>  <PUBCHEM_SHAPE_MULTIPOLES>  (1) 
455.49
11.32
5.21
1.08
13
2.73
-0.18
-11.45
5.04
-8.18
1.08
0.44
-0.21
-0.14

>  <PUBCHEM_SHAPE_SELFOVERLAP>  (1) 
989.623

>  <PUBCHEM_SHAPE_VOLUME>  (1) 
248.9

>  <PUBCHEM_COORDINATE_TYPE>  (1) 
2
5
10

$$$$
