3930
     RDKit          3D

 20 19  0  0  0  0  0  0  0  0999 V2000
   -4.9458   -1.3468    1.2771 O   0  0  0  0  0  0  0  0  0  0  0  0
   -5.6968    0.6691    0.4649 N   0  0  0  0  0  0  0  0  0  0  0  0
   -0.3204   -2.2315   -0.9987 C   0  0  0  0  0  0  0  0  0  0  0  0
    0.9044   -1.9573   -1.8747 C   0  0  0  0  0  0  0  0  0  0  0  0
   -1.3406   -1.0966   -1.1145 C   0  0  0  0  0  0  0  0  0  0  0  0
    1.9808   -3.0454   -1.7815 C   0  0  0  0  0  0  0  0  0  0  0  0
   -2.5771   -1.2980   -0.2356 C   0  0  0  0  0  0  0  0  0  0  0  0
    2.5521   -3.2958   -0.3814 C   0  0  0  0  0  0  0  0  0  0  0  0
   -3.5817   -0.1511   -0.3339 C   0  0  0  0  0  0  0  0  0  0  0  0
    0.0689    2.8961    0.5702 C   0  0  0  0  0  0  0  0  0  0  0  0
    1.1353    3.1493   -0.5004 C   0  0  0  0  0  0  0  0  0  0  0  0
    3.2488   -2.0966    0.1921 C   0  0  0  0  0  0  0  0  0  0  0  0
    0.6506    2.3710    1.8876 C   0  0  0  0  0  0  0  0  0  0  0  0
    0.5539    3.6621   -1.8203 C   0  0  0  0  0  0  0  0  0  0  0  0
    2.8769   -1.4957    1.3326 C   0  0  0  0  0  0  0  0  0  0  0  0
    3.5627   -0.2880    1.9010 C   0  0  0  0  0  0  0  0  0  0  0  0
   -4.7913   -0.3666    0.5546 C   0  0  0  0  0  0  0  0  0  0  0  0
    1.4071    1.0826    1.7258 C   0  0  0  0  0  0  0  0  0  0  0  0
    2.7075    0.9450    2.0305 C   0  0  0  0  0  0  0  0  0  0  0  0
    1.6045    3.8943   -2.8953 C   0  0  0  0  0  0  0  0  0  0  0  0
  1 17  2  0
  2 17  1  0
  3  4  1  0
  3  5  1  0
  4  6  1  0
  5  7  1  0
  6  8  1  0
  7  9  1  0
  8 12  1  0
  9 17  1  0
 10 11  1  0
 10 13  1  0
 11 14  1  0
 12 15  2  0
 13 18  1  0
 14 20  1  0
 15 16  1  0
 16 19  1  0
 18 19  2  0
M  END
>  <PUBCHEM_COMPOUND_CID>  (1) 
3930

>  <PUBCHEM_CONFORMER_RMSD>  (1) 
1.4

>  <PUBCHEM_CONFORMER_DIVERSEORDER>  (1) 
1
36
69
94
9
48
23
121
30
33
109
17
92
112
26
67
12
29
123
119
95
13
8
82
79
56
40
42
39
65
6
45
85
35
77
124
2
5
91
18
58
96
66
80
24
113
143
15
115
116
106
47
55
127
128
60
84
75
3
130
54
107
49
14
108
34
103
117
59
145
11
31
38
20
131
43
89
110
118
22
68
57
7
72
104
126
52
62
76
142
137
71
10
140
28
129
139
19
111
90
99
102
133
122
105
83
37
32
27
136
81
53
4
100
21
64
114
87
138
135
25
141
16
70
51
88
120
46
98
97
61
78
93
44
125
63
132
41
73
101
144
86
74
50
134

>  <PUBCHEM_MMFF94_PARTIAL_CHARGES>  (1) 
17
1 -0.57
12 -0.29
13 0.14
15 -0.29
16 0.28
17 0.57
18 -0.29
19 -0.29
2 -0.8
39 0.15
44 0.15
47 0.15
48 0.15
52 0.37
53 0.37
8 0.14
9 0.06

>  <PUBCHEM_EFFECTIVE_ROTOR_COUNT>  (1) 
14

>  <PUBCHEM_PHARMACOPHORE_FEATURES>  (1) 
4
1 1 acceptor
1 2 donor
1 20 hydrophobe
5 10 11 13 14 18 hydrophobe

>  <PUBCHEM_HEAVY_ATOM_COUNT>  (1) 
20

>  <PUBCHEM_ATOM_DEF_STEREO_COUNT>  (1) 
0

>  <PUBCHEM_ATOM_UDEF_STEREO_COUNT>  (1) 
0

>  <PUBCHEM_BOND_DEF_STEREO_COUNT>  (1) 
0

>  <PUBCHEM_BOND_UDEF_STEREO_COUNT>  (1) 
2

>  <PUBCHEM_ISOTOPIC_ATOM_COUNT>  (1) 
0

>  <PUBCHEM_COMPONENT_COUNT>  (1) 
1

>  <PUBCHEM_CACTVS_TAUTO_COUNT>  (1) 
2

>  <PUBCHEM_CONFORMER_ID>  (1) 
00000F5A00000001

>  <PUBCHEM_MMFF94_ENERGY>  (1) 
3.7921

>  <PUBCHEM_FEATURE_SELFOVERLAP>  (1) 
20.297

>  <PUBCHEM_SHAPE_FINGERPRINT>  (1) 
10688039 33 18264768744846450338
11112662 9 14058700524658954894
11200772 48 17468508226987305508
11244481 83 17750242567665079307
12156800 1 15549993163501336952
13075007 39 18411145757590717595
13965767 371 17700657819137455130
17859628 37 18060408127819104862
21452121 99 17255956776428596142
3187 122 18191576454602708445
5283268 108 17986393295556637642

>  <PUBCHEM_SHAPE_MULTIPOLES>  (1) 
400.74
7.94
5.48
2.62
15.02
4.07
0.79
-4.45
-4.51
-4.4
4.25
-2.1
1.94
0.19

>  <PUBCHEM_SHAPE_SELFOVERLAP>  (1) 
741.079

>  <PUBCHEM_SHAPE_VOLUME>  (1) 
250.8

>  <PUBCHEM_COORDINATE_TYPE>  (1) 
2
5
10

$$$$
