39309
     RDKit          3D

 22 24  0  0  0  0  0  0  0  0999 V2000
   -1.5966    2.7904   -0.3916 O   0  0  0  0  0  0  0  0  0  0  0  0
    1.5690   -2.7100    0.9148 O   0  0  0  0  0  0  0  0  0  0  0  0
   -3.5055   -0.7907   -0.1079 N   0  0  0  0  0  0  0  0  0  0  0  0
   -2.9278    0.4240    0.4673 C   0  0  0  0  0  0  0  0  0  0  0  0
   -1.4461    0.4886    0.2836 C   0  0  0  0  0  0  0  0  0  0  0  0
    1.3114    0.6391   -0.0657 C   0  0  0  0  0  0  0  0  0  0  0  0
    0.6805   -0.5428    0.3596 C   0  0  0  0  0  0  0  0  0  0  0  0
    2.7374    0.4104   -0.1540 C   0  0  0  0  0  0  0  0  0  0  0  0
   -0.6834   -0.6503    0.5423 C   0  0  0  0  0  0  0  0  0  0  0  0
    3.0152   -0.9171    0.2149 C   0  0  0  0  0  0  0  0  0  0  0  0
   -0.8364    1.6840   -0.1436 C   0  0  0  0  0  0  0  0  0  0  0  0
    0.5504    1.7660   -0.3213 C   0  0  0  0  0  0  0  0  0  0  0  0
    1.7302   -1.5657    0.5516 C   0  0  0  0  0  0  0  0  0  0  0  0
   -3.2366   -0.8537   -1.5438 C   0  0  0  0  0  0  0  0  0  0  0  0
   -4.9447   -0.8413    0.1459 C   0  0  0  0  0  0  0  0  0  0  0  0
    3.7750    1.2493   -0.5203 C   0  0  0  0  0  0  0  0  0  0  0  0
    4.2892   -1.4474    0.2345 C   0  0  0  0  0  0  0  0  0  0  0  0
   -3.8299   -2.1099   -2.1588 C   0  0  0  0  0  0  0  0  0  0  0  0
   -5.2399   -0.8382    1.6361 C   0  0  0  0  0  0  0  0  0  0  0  0
    5.0780    0.7360   -0.5089 C   0  0  0  0  0  0  0  0  0  0  0  0
    5.3318   -0.5978   -0.1356 C   0  0  0  0  0  0  0  0  0  0  0  0
   -1.8212    3.6770    0.7009 C   0  0  0  0  0  0  0  0  0  0  0  0
  1 11  1  0
  1 22  1  0
  2 13  2  0
  3  4  1  0
  3 14  1  0
  3 15  1  0
  4  5  1  0
  5  9  2  0
  5 11  1  0
  6  7  2  0
  6  8  1  0
  6 12  1  0
  7  9  1  0
  7 13  1  0
  8 10  2  0
  8 16  1  0
 10 13  1  0
 10 17  1  0
 11 12  2  0
 14 18  1  0
 15 19  1  0
 16 20  2  0
 17 21  2  0
 20 21  1  0
M  END
>  <PUBCHEM_COMPOUND_CID>  (1) 
39309

>  <PUBCHEM_CONFORMER_RMSD>  (1) 
0.8

>  <PUBCHEM_CONFORMER_DIVERSEORDER>  (1) 
1
3
4
2
6
5
7

>  <PUBCHEM_MMFF94_PARTIAL_CHARGES>  (1) 
24
1 -0.36
10 0.09
11 0.08
12 -0.15
13 0.4
14 0.27
15 0.27
16 -0.15
17 -0.15
2 -0.57
20 -0.15
21 -0.15
22 0.28
25 0.15
26 0.15
3 -0.81
31 0.15
32 0.15
39 0.15
4 0.41
40 0.15
5 -0.14
7 0.09
9 -0.15

>  <PUBCHEM_EFFECTIVE_ROTOR_COUNT>  (1) 
5

>  <PUBCHEM_PHARMACOPHORE_FEATURES>  (1) 
6
1 1 acceptor
1 2 acceptor
1 3 cation
5 6 7 8 10 13 rings
6 5 6 7 9 11 12 rings
6 8 10 16 17 20 21 rings

>  <PUBCHEM_HEAVY_ATOM_COUNT>  (1) 
22

>  <PUBCHEM_ATOM_DEF_STEREO_COUNT>  (1) 
0

>  <PUBCHEM_ATOM_UDEF_STEREO_COUNT>  (1) 
0

>  <PUBCHEM_BOND_DEF_STEREO_COUNT>  (1) 
0

>  <PUBCHEM_BOND_UDEF_STEREO_COUNT>  (1) 
0

>  <PUBCHEM_ISOTOPIC_ATOM_COUNT>  (1) 
0

>  <PUBCHEM_COMPONENT_COUNT>  (1) 
1

>  <PUBCHEM_CACTVS_TAUTO_COUNT>  (1) 
1

>  <PUBCHEM_CONFORMER_ID>  (1) 
0000998D00000001

>  <PUBCHEM_MMFF94_ENERGY>  (1) 
79.6966

>  <PUBCHEM_FEATURE_SELFOVERLAP>  (1) 
30.615

>  <PUBCHEM_SHAPE_FINGERPRINT>  (1) 
10090160 65 18113898290600021554
10616163 171 18267303136159193903
11045515 52 18113615707606489317
11578080 2 17773005693056622513
11806522 49 18334297561093214988
12166972 35 17240490229775395412
12236239 1 18202289125615662819
12403260 363 18335696131779192680
12553582 1 18339350946636349787
12633257 1 16988848293529299003
12788726 201 18268699529386488417
13009979 54 17559113388379336911
13140716 1 18119534481624437624
13583140 156 17273395219944704944
13862211 1 18335137613567623122
13911987 19 17969232294284872654
14178342 30 18048018685005372426
14576447 43 18269544095460035350
14787075 74 18342172328086318456
14840074 17 18271812341024997047
15196674 1 18262802865727667656
15537594 2 18341896311680796671
17349148 13 17967811643857756696
17357779 13 18041268941751590693
17492 89 18192150404252867738
1813 80 18340783605929117101
19489759 90 13912319096693874479
200 152 18335135392863399837
20645477 70 18040153998712807242
21267235 1 18335713715174978866
21501502 16 18190458247414764288
21641784 216 18041294196128032940
21709351 56 18187926115344119276
22950370 63 18342458187881617095
23402539 116 18407758131588305582
23557571 272 18130512933576983148
23559900 14 18263647445551253600
23598288 3 18196083353218597373
25147074 1 18117831110427043728
2871803 45 18333729104880956918
312423 11 18188778232344478074
350125 39 18409172091174260024
46194498 28 17242722328801168471
463206 1 18266176313024787047
5104073 3 18265329513525951528
602551 16 16630238216459159950
603831 33 18337663144410463478
9709674 26 18263653883327402874

>  <PUBCHEM_SHAPE_MULTIPOLES>  (1) 
436.03
10.7
2.82
1.21
0.96
2.1
-0.35
-4.29
-0.3
-1.36
0.05
-1.7
-0.65
-1.38

>  <PUBCHEM_SHAPE_SELFOVERLAP>  (1) 
947.264

>  <PUBCHEM_SHAPE_VOLUME>  (1) 
241.4

>  <PUBCHEM_COORDINATE_TYPE>  (1) 
2
5
10

$$$$
