39317
     RDKit          3D

 22 25  0  0  0  0  0  0  0  0999 V2000
   -5.6029    0.2046   -1.4749 O   0  0  0  0  0  0  0  0  0  0  0  0
   -1.7911    1.8166    1.1493 O   0  0  0  0  0  0  0  0  0  0  0  0
    2.5388   -2.8083   -0.2084 O   0  0  0  0  0  0  0  0  0  0  0  0
   -3.4631   -0.1322    0.3715 N   0  0  0  0  0  0  0  0  0  0  0  0
   -2.4743   -0.9469    1.0746 C   0  0  0  0  0  0  0  0  0  0  0  0
   -3.2400   -0.1782   -1.0801 C   0  0  0  0  0  0  0  0  0  0  0  0
   -4.8269   -0.5802    0.6859 C   0  0  0  0  0  0  0  0  0  0  0  0
   -1.0894   -0.4558    0.8024 C   0  0  0  0  0  0  0  0  0  0  0  0
   -4.2904    0.6693   -1.7923 C   0  0  0  0  0  0  0  0  0  0  0  0
   -5.8402    0.2759   -0.0685 C   0  0  0  0  0  0  0  0  0  0  0  0
    1.1717   -0.8826    0.2577 C   0  0  0  0  0  0  0  0  0  0  0  0
    1.4809    0.4879    0.3015 C   0  0  0  0  0  0  0  0  0  0  0  0
   -0.0915   -1.3826    0.5010 C   0  0  0  0  0  0  0  0  0  0  0  0
    2.8847    0.6674    0.0002 C   0  0  0  0  0  0  0  0  0  0  0  0
   -0.8036    0.9222    0.8516 C   0  0  0  0  0  0  0  0  0  0  0  0
    3.4700   -0.5885   -0.2355 C   0  0  0  0  0  0  0  0  0  0  0  0
    0.4875    1.4033    0.6006 C   0  0  0  0  0  0  0  0  0  0  0  0
    2.4128   -1.6101   -0.0820 C   0  0  0  0  0  0  0  0  0  0  0  0
    3.6619    1.8095   -0.0798 C   0  0  0  0  0  0  0  0  0  0  0  0
    4.8036   -0.7562   -0.5492 C   0  0  0  0  0  0  0  0  0  0  0  0
    5.0186    1.6671   -0.3967 C   0  0  0  0  0  0  0  0  0  0  0  0
    5.5828    0.3979   -0.6288 C   0  0  0  0  0  0  0  0  0  0  0  0
  1  9  1  0
  1 10  1  0
  2 15  1  0
  3 18  2  0
  4  5  1  0
  4  6  1  0
  4  7  1  0
  5  8  1  0
  6  9  1  0
  7 10  1  0
  8 13  2  0
  8 15  1  0
 11 12  2  0
 11 13  1  0
 11 18  1  0
 12 14  1  0
 12 17  1  0
 14 16  2  0
 14 19  1  0
 15 17  2  0
 16 18  1  0
 16 20  1  0
 19 21  2  0
 20 22  2  0
 21 22  1  0
M  END
>  <PUBCHEM_COMPOUND_CID>  (1) 
39317

>  <PUBCHEM_CONFORMER_RMSD>  (1) 
0.6

>  <PUBCHEM_CONFORMER_DIVERSEORDER>  (1) 
4
5
1
2
6
3

>  <PUBCHEM_MMFF94_PARTIAL_CHARGES>  (1) 
27
1 -0.56
10 0.28
11 0.09
13 -0.15
15 0.08
16 0.09
17 -0.15
18 0.4
19 -0.15
2 -0.53
20 -0.15
21 -0.15
22 -0.15
3 -0.57
33 0.15
34 0.15
35 0.15
36 0.15
37 0.15
38 0.15
39 0.45
4 -0.81
5 0.41
6 0.27
7 0.27
8 -0.14
9 0.28

>  <PUBCHEM_EFFECTIVE_ROTOR_COUNT>  (1) 
3.2

>  <PUBCHEM_PHARMACOPHORE_FEATURES>  (1) 
8
1 1 acceptor
1 2 donor
1 3 acceptor
1 4 cation
5 11 12 14 16 18 rings
6 1 4 6 7 9 10 rings
6 14 16 19 20 21 22 rings
6 8 11 12 13 15 17 rings

>  <PUBCHEM_HEAVY_ATOM_COUNT>  (1) 
22

>  <PUBCHEM_ATOM_DEF_STEREO_COUNT>  (1) 
0

>  <PUBCHEM_ATOM_UDEF_STEREO_COUNT>  (1) 
0

>  <PUBCHEM_BOND_DEF_STEREO_COUNT>  (1) 
0

>  <PUBCHEM_BOND_UDEF_STEREO_COUNT>  (1) 
0

>  <PUBCHEM_ISOTOPIC_ATOM_COUNT>  (1) 
0

>  <PUBCHEM_COMPONENT_COUNT>  (1) 
1

>  <PUBCHEM_CACTVS_TAUTO_COUNT>  (1) 
5

>  <PUBCHEM_CONFORMER_ID>  (1) 
0000999500000004

>  <PUBCHEM_MMFF94_ENERGY>  (1) 
72.3467

>  <PUBCHEM_FEATURE_SELFOVERLAP>  (1) 
40.765

>  <PUBCHEM_SHAPE_FINGERPRINT>  (1) 
10447042 23 18341892974622745062
10693767 8 17987806194617772062
11471102 20 18411985771573059490
11796584 16 14261354656600901597
12011746 2 18408895044519289068
12236239 1 17489593354886472747
12403259 415 18114184184855428160
12553582 1 17846210055830122123
12730499 353 18260270745671869618
12788726 201 17417817188854857361
12916748 109 16226049972782578253
12969540 114 18409720790014385975
13402501 40 17894625972148731453
13540713 5 18056210063827919072
13583140 156 16877951567641914128
13760787 5 18201726158165692353
14528608 73 18272089422107615228
14576447 43 18059849567153201655
15238133 3 14273737321919019350
15295992 7 13696165027794953669
15475509 35 13686020848139837022
15537594 2 17846778516427284959
17349148 13 18410009927449986696
17959699 21 18187362108185398421
1813 80 13542470864848839210
18222031 100 16056879143275676800
18769570 83 15936404537539521292
19489759 90 16225766337221150521
200 152 18060422404079017008
20645477 56 17676205788641935995
20645477 70 18412550881552691386
21033648 29 17968090979619461768
21033650 10 15792581725214695878
21267235 1 18270415927109057378
21637258 2 15051731967272076868
21641784 216 18336845103634022484
221357 26 18410846647562639693
22289505 5 18334288743356726964
231179 274 17821446872282084066
23402539 116 17989492909008201361
23402655 69 18412825785139294183
23557571 272 17385731304762395711
23559900 14 18340205301536340152
23569914 152 17191783784262190437
23622692 88 11169913879333527338
25147074 1 18057893445799234826
2871803 45 18412549795183915216
2916195 48 17458059391514217917
29717793 49 17703517618747333420
335352 9 18411144650026841798
351380 3 17275100639688518399
3545911 37 18260271862479118699
4072396 5 18335126597640926522
4325135 7 15267051589088185288
4340502 62 17240205443036430610
5104073 3 16950840298466378953
5283173 99 17968371247842374173
59755656 215 18334581218171956974
9709674 26 18269854037965254266

>  <PUBCHEM_SHAPE_MULTIPOLES>  (1) 
430.16
12.82
1.84
1.16
5.83
0.41
-0.27
-2.35
-4.53
-1.85
0.11
1.45
-0.2
0.54

>  <PUBCHEM_SHAPE_SELFOVERLAP>  (1) 
959.597

>  <PUBCHEM_SHAPE_VOLUME>  (1) 
229.6

>  <PUBCHEM_COORDINATE_TYPE>  (1) 
2
5
10

$$$$
