39311
     RDKit          3D

 23 26  0  0  0  0  0  0  0  0999 V2000
    5.2633    1.6440   -1.1374 O   0  0  0  0  0  0  0  0  0  0  0  0
    1.0862   -3.0459   -0.3862 O   0  0  0  0  0  0  0  0  0  0  0  0
   -1.6279    2.6230    1.1896 O   0  0  0  0  0  0  0  0  0  0  0  0
    3.2724    0.2878    0.3786 N   0  0  0  0  0  0  0  0  0  0  0  0
    2.5619   -0.9179    0.7997 C   0  0  0  0  0  0  0  0  0  0  0  0
    3.1233    0.5030   -1.0675 C   0  0  0  0  0  0  0  0  0  0  0  0
    4.6965    0.2041    0.7308 C   0  0  0  0  0  0  0  0  0  0  0  0
    1.1029   -0.8098    0.4951 C   0  0  0  0  0  0  0  0  0  0  0  0
   -0.9100    0.4308    0.5004 C   0  0  0  0  0  0  0  0  0  0  0  0
   -1.6138   -0.6356   -0.0855 C   0  0  0  0  0  0  0  0  0  0  0  0
    3.8830    1.7587   -1.4854 C   0  0  0  0  0  0  0  0  0  0  0  0
    5.4185    1.4674    0.2711 C   0  0  0  0  0  0  0  0  0  0  0  0
    0.4359    0.3765    0.8007 C   0  0  0  0  0  0  0  0  0  0  0  0
    0.4191   -1.8917   -0.0924 C   0  0  0  0  0  0  0  0  0  0  0  0
   -2.9970   -0.2502   -0.2643 C   0  0  0  0  0  0  0  0  0  0  0  0
   -0.9477   -1.8103   -0.3869 C   0  0  0  0  0  0  0  0  0  0  0  0
   -3.1747    1.0619    0.2075 C   0  0  0  0  0  0  0  0  0  0  0  0
   -1.8672    1.5384    0.7061 C   0  0  0  0  0  0  0  0  0  0  0  0
   -4.0752   -0.9389   -0.7910 C   0  0  0  0  0  0  0  0  0  0  0  0
   -4.3871    1.7205    0.1768 C   0  0  0  0  0  0  0  0  0  0  0  0
   -5.3174   -0.2933   -0.8340 C   0  0  0  0  0  0  0  0  0  0  0  0
   -5.4711    1.0220   -0.3552 C   0  0  0  0  0  0  0  0  0  0  0  0
    1.1261   -4.0445    0.6296 C   0  0  0  0  0  0  0  0  0  0  0  0
  1 11  1  0
  1 12  1  0
  2 14  1  0
  2 23  1  0
  3 18  2  0
  4  5  1  0
  4  6  1  0
  4  7  1  0
  5  8  1  0
  6 11  1  0
  7 12  1  0
  8 13  2  0
  8 14  1  0
  9 10  2  0
  9 13  1  0
  9 18  1  0
 10 15  1  0
 10 16  1  0
 14 16  2  0
 15 17  2  0
 15 19  1  0
 17 18  1  0
 17 20  1  0
 19 21  2  0
 20 22  2  0
 21 22  1  0
M  END
>  <PUBCHEM_COMPOUND_CID>  (1) 
39311

>  <PUBCHEM_CONFORMER_RMSD>  (1) 
0.8

>  <PUBCHEM_CONFORMER_DIVERSEORDER>  (1) 
2
5
4
1
6
3

>  <PUBCHEM_MMFF94_PARTIAL_CHARGES>  (1) 
27
1 -0.56
11 0.28
12 0.28
13 -0.15
14 0.08
16 -0.15
17 0.09
18 0.4
19 -0.15
2 -0.36
20 -0.15
21 -0.15
22 -0.15
23 0.28
3 -0.57
34 0.15
35 0.15
36 0.15
37 0.15
38 0.15
39 0.15
4 -0.81
5 0.41
6 0.27
7 0.27
8 -0.14
9 0.09

>  <PUBCHEM_EFFECTIVE_ROTOR_COUNT>  (1) 
4.2

>  <PUBCHEM_PHARMACOPHORE_FEATURES>  (1) 
8
1 1 acceptor
1 2 acceptor
1 3 acceptor
1 4 cation
5 9 10 15 17 18 rings
6 1 4 6 7 11 12 rings
6 15 17 19 20 21 22 rings
6 8 9 10 13 14 16 rings

>  <PUBCHEM_HEAVY_ATOM_COUNT>  (1) 
23

>  <PUBCHEM_ATOM_DEF_STEREO_COUNT>  (1) 
0

>  <PUBCHEM_ATOM_UDEF_STEREO_COUNT>  (1) 
0

>  <PUBCHEM_BOND_DEF_STEREO_COUNT>  (1) 
0

>  <PUBCHEM_BOND_UDEF_STEREO_COUNT>  (1) 
0

>  <PUBCHEM_ISOTOPIC_ATOM_COUNT>  (1) 
0

>  <PUBCHEM_COMPONENT_COUNT>  (1) 
1

>  <PUBCHEM_CACTVS_TAUTO_COUNT>  (1) 
1

>  <PUBCHEM_CONFORMER_ID>  (1) 
0000998F00000002

>  <PUBCHEM_MMFF94_ENERGY>  (1) 
84.5577

>  <PUBCHEM_FEATURE_SELFOVERLAP>  (1) 
40.766

>  <PUBCHEM_SHAPE_FINGERPRINT>  (1) 
10090160 65 18334008380808187747
10411042 1 17474947005064522142
10498660 4 18343865498034861641
10554248 39 18053649284647630749
10670039 82 18338809931408346916
10759866 29 18340484461525599919
10906281 52 18059299748043555573
11578080 2 17753038402691821845
12236239 1 18260823808615473416
12293681 160 18202569501049201720
12633257 1 14201683117016541124
13540713 5 17985825926730104595
13583140 156 16877944979056274945
14528608 73 18411979173970783277
14767858 380 18340757248041797823
14787075 74 18409163325377831731
14790565 3 18413108376934602817
15183329 4 18339656564357169014
15196674 1 18271519785301681187
15342168 16 18040721398077695820
15840311 113 17974296422523084949
173720 79 18335688473567550698
1813 80 17683234768989739810
18681886 176 18410847781354436448
19319366 153 18410562981905123423
21033648 144 17749103443501172124
21033650 10 17773065036624966864
21054139 6 18341601659723264559
22149856 69 18270413715696662427
2255824 54 18121501258745416787
22950370 63 10015588311220915564
23366157 5 18119250558337740970
23402539 116 18272925055155400460
23558518 356 17907583523803811793
23559900 14 17913198763883565067
23569917 315 18409167718850768594
245318 6 17532953789987380972
25147074 1 17985831428245834587
3004659 81 18341612578067992954
312423 11 17985553251925482195
3472631 163 18265337377622074300
34797466 226 17060058202288003216
34934 24 18272360937630192407
350125 39 18196932167352319202
3759504 43 18261392316367878218
394222 165 18114454596128507314
4340502 62 17240768363399535587
474 4 18259988149887756874
4990 188 17131832066501406881
5104073 3 18126843799404513003
5312544 6 18409163281942959474
5486654 2 18342454872193049807
59755656 215 18271528598664549054
67856867 119 18266170643488517306
8863177 126 11599135795694349165
9981440 41 18335142007134681018

>  <PUBCHEM_SHAPE_MULTIPOLES>  (1) 
450.74
11.42
3.02
1.08
1.22
2.88
0.15
-7.27
2.66
1.33
-0.28
0.59
-0.34
-1.48

>  <PUBCHEM_SHAPE_SELFOVERLAP>  (1) 
996.906

>  <PUBCHEM_SHAPE_VOLUME>  (1) 
243.3

>  <PUBCHEM_COORDINATE_TYPE>  (1) 
2
5
10

$$$$
