39313
     RDKit          3D

 19 21  0  0  0  0  0  0  0  0999 V2000
   -2.2909    2.7537   -0.1858 O   0  0  0  0  0  0  0  0  0  0  0  0
    1.1143   -2.7552   -0.3868 O   0  0  0  0  0  0  0  0  0  0  0  0
   -4.0468   -0.8936    0.2223 N   0  0  0  0  0  0  0  0  0  0  0  0
    0.7067    0.7061   -0.0756 C   0  0  0  0  0  0  0  0  0  0  0  0
    0.1302   -0.5616   -0.2664 C   0  0  0  0  0  0  0  0  0  0  0  0
    2.1396    0.5601    0.0623 C   0  0  0  0  0  0  0  0  0  0  0  0
   -2.0376    0.3731   -0.4016 C   0  0  0  0  0  0  0  0  0  0  0  0
    2.4764   -0.8006   -0.0408 C   0  0  0  0  0  0  0  0  0  0  0  0
   -1.2256   -0.7606   -0.4308 C   0  0  0  0  0  0  0  0  0  0  0  0
    1.2235   -1.5564   -0.2516 C   0  0  0  0  0  0  0  0  0  0  0  0
   -3.5129    0.2101   -0.5754 C   0  0  0  0  0  0  0  0  0  0  0  0
   -0.1030    1.8278   -0.0472 C   0  0  0  0  0  0  0  0  0  0  0  0
   -1.4829    1.6536   -0.2120 C   0  0  0  0  0  0  0  0  0  0  0  0
    3.1369    1.4975    0.2648 C   0  0  0  0  0  0  0  0  0  0  0  0
    3.7712   -1.2697    0.0497 C   0  0  0  0  0  0  0  0  0  0  0  0
    4.4599    1.0479    0.3602 C   0  0  0  0  0  0  0  0  0  0  0  0
    4.7730   -0.3209    0.2537 C   0  0  0  0  0  0  0  0  0  0  0  0
   -5.4901   -1.0168    0.0223 C   0  0  0  0  0  0  0  0  0  0  0  0
   -3.7419   -0.6945    1.6386 C   0  0  0  0  0  0  0  0  0  0  0  0
  1 13  1  0
  2 10  2  0
  3 11  1  0
  3 18  1  0
  3 19  1  0
  4  5  2  0
  4  6  1  0
  4 12  1  0
  5  9  1  0
  5 10  1  0
  6  8  2  0
  6 14  1  0
  7  9  2  0
  7 11  1  0
  7 13  1  0
  8 10  1  0
  8 15  1  0
 12 13  2  0
 14 16  2  0
 15 17  2  0
 16 17  1  0
M  END
>  <PUBCHEM_COMPOUND_CID>  (1) 
39313

>  <PUBCHEM_CONFORMER_RMSD>  (1) 
0.6

>  <PUBCHEM_CONFORMER_DIVERSEORDER>  (1) 
1
2
3

>  <PUBCHEM_MMFF94_PARTIAL_CHARGES>  (1) 
24
1 -0.53
10 0.4
11 0.41
12 -0.15
13 0.08
14 -0.15
15 -0.15
16 -0.15
17 -0.15
18 0.27
19 0.27
2 -0.57
20 0.15
23 0.15
24 0.15
25 0.15
26 0.15
27 0.15
3 -0.81
34 0.45
5 0.09
7 -0.14
8 0.09
9 -0.15

>  <PUBCHEM_EFFECTIVE_ROTOR_COUNT>  (1) 
2

>  <PUBCHEM_PHARMACOPHORE_FEATURES>  (1) 
6
1 1 donor
1 2 acceptor
1 3 cation
5 4 5 6 8 10 rings
6 4 5 7 9 12 13 rings
6 6 8 14 15 16 17 rings

>  <PUBCHEM_HEAVY_ATOM_COUNT>  (1) 
19

>  <PUBCHEM_ATOM_DEF_STEREO_COUNT>  (1) 
0

>  <PUBCHEM_ATOM_UDEF_STEREO_COUNT>  (1) 
0

>  <PUBCHEM_BOND_DEF_STEREO_COUNT>  (1) 
0

>  <PUBCHEM_BOND_UDEF_STEREO_COUNT>  (1) 
0

>  <PUBCHEM_ISOTOPIC_ATOM_COUNT>  (1) 
0

>  <PUBCHEM_COMPONENT_COUNT>  (1) 
1

>  <PUBCHEM_CACTVS_TAUTO_COUNT>  (1) 
5

>  <PUBCHEM_CONFORMER_ID>  (1) 
0000999100000001

>  <PUBCHEM_MMFF94_ENERGY>  (1) 
71.4619

>  <PUBCHEM_FEATURE_SELFOVERLAP>  (1) 
30.615

>  <PUBCHEM_SHAPE_FINGERPRINT>  (1) 
10 15 18263913497537879424
10366900 7 18334303066924914186
10608611 8 18339073766537394348
10906281 52 18261976105918928809
10967382 1 18412258450419805188
11132069 177 18341043107641975362
11578080 2 16736068195044712366
11796584 16 16587738772331154067
11806522 49 18335419071179471405
12032990 46 18409450271472717524
12236239 1 17561084730775277519
12403259 226 18337666404834135500
12403259 415 18272925029939809440
12596602 18 17132117987244315363
13140716 1 18124030393012395651
13544653 18 18261116292041633125
13583140 156 16951939904314240508
13862211 1 18411130363863380223
14223421 5 18266459810751239287
14386348 63 18186523228553878875
14787075 74 18188491413969495787
14790565 3 17182508827967299549
15196674 1 18411416168493938932
15209294 21 17704083862903806233
15375358 24 18260827099088014219
16945 1 18341604919339295212
17492 89 18265891359098465570
18186145 218 17775564247955313536
19591789 44 18340768148405264838
200 152 18272364278956337309
20028762 73 18130500945954840111
20261772 1 18272367606965544390
20510252 161 18272368646453229120
20645477 70 18341041930747343535
21267235 1 18411704270932202486
21682296 61 18128542557454213022
221490 88 18267870476012699702
22854114 59 18342458153242115451
23402539 116 18334568058101979183
23557571 272 17458057132408776613
23558518 356 18117003186830107321
23559900 14 18051402973190284222
26918003 58 17967531298489151883
2748010 2 18196370325326133892
2871803 45 18335134276356662087
335352 9 17908137686254138964
350125 39 18411699898529303776
465052 167 18187087294650287955
474229 33 18410572920226726878
5104073 3 18340480046409775848
5283173 99 17969207968223526717
7364860 26 17983008956380873622
9709674 26 18124311610444166463

>  <PUBCHEM_SHAPE_MULTIPOLES>  (1) 
374.29
9.44
2.2
0.82
3.2
0.33
-0.23
-1.78
-1.68
-0.08
0.18
0.58
-0.1
0.55

>  <PUBCHEM_SHAPE_SELFOVERLAP>  (1) 
831.248

>  <PUBCHEM_SHAPE_VOLUME>  (1) 
203.5

>  <PUBCHEM_COORDINATE_TYPE>  (1) 
2
5
10

$$$$
