39318
     RDKit          3D

 19 21  0  0  0  0  0  0  0  0999 V2000
    0.9739   -1.2494   -0.3698 O   0  0  0  0  0  0  0  0  0  0  0  0
   -3.2153    1.1633   -0.3007 O   0  0  0  0  0  0  0  0  0  0  0  0
   -3.1613   -1.4892    0.1887 N   0  0  0  0  0  0  0  0  0  0  0  0
   -1.2177   -0.1553   -0.3642 C   0  0  0  0  0  0  0  0  0  0  0  0
    0.1705   -0.1573   -0.2392 C   0  0  0  0  0  0  0  0  0  0  0  0
    0.9306    0.9740    0.0407 C   0  0  0  0  0  0  0  0  0  0  0  0
   -1.9957   -1.3916   -0.6632 C   0  0  0  0  0  0  0  0  0  0  0  0
    2.2866    0.5358    0.0816 C   0  0  0  0  0  0  0  0  0  0  0  0
    2.2556   -0.8311   -0.1759 C   0  0  0  0  0  0  0  0  0  0  0  0
   -1.8570    1.0759   -0.1926 C   0  0  0  0  0  0  0  0  0  0  0  0
    0.2650    2.2021    0.2092 C   0  0  0  0  0  0  0  0  0  0  0  0
   -1.1309    2.2352    0.0892 C   0  0  0  0  0  0  0  0  0  0  0  0
    3.5344    1.1457    0.3078 C   0  0  0  0  0  0  0  0  0  0  0  0
    3.3874   -1.6433   -0.2249 C   0  0  0  0  0  0  0  0  0  0  0  0
   -2.7765   -1.5298    1.6047 C   0  0  0  0  0  0  0  0  0  0  0  0
   -3.9596   -2.6751   -0.1449 C   0  0  0  0  0  0  0  0  0  0  0  0
    4.6903    0.3544    0.2643 C   0  0  0  0  0  0  0  0  0  0  0  0
    4.6154   -1.0154    0.0022 C   0  0  0  0  0  0  0  0  0  0  0  0
   -3.7956    2.4510   -0.1131 C   0  0  0  0  0  0  0  0  0  0  0  0
  1  5  1  0
  1  9  1  0
  2 10  1  0
  2 19  1  0
  3  7  1  0
  3 15  1  0
  3 16  1  0
  4  5  2  0
  4  7  1  0
  4 10  1  0
  5  6  1  0
  6  8  1  0
  6 11  2  0
  8  9  2  0
  8 13  1  0
  9 14  1  0
 10 12  2  0
 11 12  1  0
 13 17  2  0
 14 18  2  0
 17 18  1  0
M  END
>  <PUBCHEM_COMPOUND_CID>  (1) 
39318

>  <PUBCHEM_CONFORMER_RMSD>  (1) 
0.6

>  <PUBCHEM_CONFORMER_DIVERSEORDER>  (1) 
4
3
2
1
5
6

>  <PUBCHEM_MMFF94_PARTIAL_CHARGES>  (1) 
23
1 -0.28
10 0.08
11 -0.15
12 -0.15
13 -0.15
14 -0.15
15 0.27
16 0.27
17 -0.15
18 -0.15
19 0.28
2 -0.36
22 0.15
23 0.15
24 0.15
25 0.15
3 -0.81
32 0.15
33 0.15
4 -0.14
5 0.14
7 0.41
9 0.14

>  <PUBCHEM_EFFECTIVE_ROTOR_COUNT>  (1) 
3

>  <PUBCHEM_PHARMACOPHORE_FEATURES>  (1) 
6
1 1 acceptor
1 2 acceptor
1 3 cation
5 1 5 6 8 9 rings
6 4 5 6 10 11 12 rings
6 8 9 13 14 17 18 rings

>  <PUBCHEM_HEAVY_ATOM_COUNT>  (1) 
19

>  <PUBCHEM_ATOM_DEF_STEREO_COUNT>  (1) 
0

>  <PUBCHEM_ATOM_UDEF_STEREO_COUNT>  (1) 
0

>  <PUBCHEM_BOND_DEF_STEREO_COUNT>  (1) 
0

>  <PUBCHEM_BOND_UDEF_STEREO_COUNT>  (1) 
0

>  <PUBCHEM_ISOTOPIC_ATOM_COUNT>  (1) 
0

>  <PUBCHEM_COMPONENT_COUNT>  (1) 
1

>  <PUBCHEM_CACTVS_TAUTO_COUNT>  (1) 
1

>  <PUBCHEM_CONFORMER_ID>  (1) 
0000999600000004

>  <PUBCHEM_MMFF94_ENERGY>  (1) 
59.767

>  <PUBCHEM_FEATURE_SELFOVERLAP>  (1) 
30.647

>  <PUBCHEM_SHAPE_FINGERPRINT>  (1) 
10608611 8 18341325622296404588
10616163 171 18412262809463853838
10906281 52 18129393596322633821
10967382 1 18196932171847454252
1100329 8 17757263782822709899
11132069 177 18412257307826934456
11405975 8 18337388241150285002
11543360 7 15792013432628198870
11680986 33 18198351649706365158
12032990 46 18411983589582103454
12553582 1 18197774616539563974
13140716 1 18340480076326749296
13214271 11 18342452638599098524
13296908 3 18411699889696262918
13544653 18 18262802985353892119
13760787 19 18187368679981044926
14115302 16 18261965033045061644
14787075 74 18117278279727853362
14790565 3 16968303098336789309
15042514 8 18410577241137646593
15196674 1 18411980265477759452
15375358 24 18200308814647318332
15420108 30 14244761518583401960
16945 1 18124028194047279260
17357779 13 18265879427958204031
17492 89 18410854339765034214
200 152 17917422168602875215
20510252 161 18342458153405691378
20602899 9 15913028907959603413
20645477 70 17774155687465738302
21065198 57 18411418367522332752
21267235 1 18411706495060753550
21501502 16 18335426806442270093
221490 88 18412267225259653798
22182313 1 18059308573135927559
2334 1 18412543240752578740
23402539 116 18334288765263897926
23557571 272 18343311370344803430
23559900 14 18269550542954792158
2748010 2 18342171167964866876
2871803 45 18334850658091394686
3312278 4 18411418384501806872
335352 9 18196370317073803028
34934 24 18336260128871171440
4214541 1 18410854330673251220
4340502 62 16734404694334675737
4921388 177 16950292814151951315
5104073 3 18413100650688740920
54173680 148 18411419497067193557
69090 78 18269267967722707309
8809292 202 18336266747420893410
9709674 26 18199468766457809126

>  <PUBCHEM_SHAPE_MULTIPOLES>  (1) 
374.29
8.41
2.77
0.81
4.08
0.25
0.21
-2.38
0.52
-3.05
0.06
-0.41
-0.24
0.55

>  <PUBCHEM_SHAPE_SELFOVERLAP>  (1) 
824.157

>  <PUBCHEM_SHAPE_VOLUME>  (1) 
205.5

>  <PUBCHEM_COORDINATE_TYPE>  (1) 
2
5
10

$$$$
