39320
     RDKit          3D

 22 25  0  0  0  0  0  0  0  0999 V2000
   -0.7142    0.7247    0.6814 O   0  0  0  0  0  0  0  0  0  0  0  0
    2.0044   -3.1795   -0.1813 O   0  0  0  0  0  0  0  0  0  0  0  0
    2.1259    0.8446    0.3866 N   0  0  0  0  0  0  0  0  0  0  0  0
    2.2425    0.8605   -1.0784 C   0  0  0  0  0  0  0  0  0  0  0  0
    3.2775    1.5040    1.0182 C   0  0  0  0  0  0  0  0  0  0  0  0
    2.3344    2.2920   -1.6093 C   0  0  0  0  0  0  0  0  0  0  0  0
    3.4035    2.9564    0.5558 C   0  0  0  0  0  0  0  0  0  0  0  0
    3.4889    3.0495   -0.9634 C   0  0  0  0  0  0  0  0  0  0  0  0
    1.9914   -0.5277    0.8743 C   0  0  0  0  0  0  0  0  0  0  0  0
    0.7784   -1.1808    0.3042 C   0  0  0  0  0  0  0  0  0  0  0  0
   -0.4576   -0.5392    0.2431 C   0  0  0  0  0  0  0  0  0  0  0  0
   -1.6105   -1.1146   -0.2820 C   0  0  0  0  0  0  0  0  0  0  0  0
    0.8302   -2.4827   -0.2019 C   0  0  0  0  0  0  0  0  0  0  0  0
   -2.6344   -0.1311   -0.1522 C   0  0  0  0  0  0  0  0  0  0  0  0
   -2.0319    0.9731    0.4425 C   0  0  0  0  0  0  0  0  0  0  0  0
   -1.5337   -2.4263   -0.7854 C   0  0  0  0  0  0  0  0  0  0  0  0
   -0.3040   -3.0968   -0.7379 C   0  0  0  0  0  0  0  0  0  0  0  0
   -4.0025   -0.0551   -0.4724 C   0  0  0  0  0  0  0  0  0  0  0  0
   -2.6988    2.1593    0.7444 C   0  0  0  0  0  0  0  0  0  0  0  0
   -4.6995    1.1251   -0.1804 C   0  0  0  0  0  0  0  0  0  0  0  0
   -4.0568    2.2115    0.4172 C   0  0  0  0  0  0  0  0  0  0  0  0
    2.2669   -3.9667    0.9770 C   0  0  0  0  0  0  0  0  0  0  0  0
  1 11  1  0
  1 15  1  0
  2 13  1  0
  2 22  1  0
  3  4  1  0
  3  5  1  0
  3  9  1  0
  4  6  1  0
  5  7  1  0
  6  8  1  0
  7  8  1  0
  9 10  1  0
 10 11  2  0
 10 13  1  0
 11 12  1  0
 12 14  1  0
 12 16  2  0
 13 17  2  0
 14 15  2  0
 14 18  1  0
 15 19  1  0
 16 17  1  0
 18 20  2  0
 19 21  2  0
 20 21  1  0
M  END
>  <PUBCHEM_COMPOUND_CID>  (1) 
39320

>  <PUBCHEM_CONFORMER_RMSD>  (1) 
0.6

>  <PUBCHEM_CONFORMER_DIVERSEORDER>  (1) 
1
4
3
2
13
11
15
14
10
8
12
6
7
9
5
16

>  <PUBCHEM_MMFF94_PARTIAL_CHARGES>  (1) 
23
1 -0.28
10 -0.14
11 0.14
13 0.08
15 0.14
16 -0.15
17 -0.15
18 -0.15
19 -0.15
2 -0.36
20 -0.15
21 -0.15
22 0.28
3 -0.81
35 0.15
36 0.15
37 0.15
38 0.15
39 0.15
4 0.27
40 0.15
5 0.27
9 0.41

>  <PUBCHEM_EFFECTIVE_ROTOR_COUNT>  (1) 
4.2

>  <PUBCHEM_PHARMACOPHORE_FEATURES>  (1) 
7
1 1 acceptor
1 2 acceptor
1 3 cation
5 1 11 12 14 15 rings
6 10 11 12 13 16 17 rings
6 14 15 18 19 20 21 rings
6 3 4 5 6 7 8 rings

>  <PUBCHEM_HEAVY_ATOM_COUNT>  (1) 
22

>  <PUBCHEM_ATOM_DEF_STEREO_COUNT>  (1) 
0

>  <PUBCHEM_ATOM_UDEF_STEREO_COUNT>  (1) 
0

>  <PUBCHEM_BOND_DEF_STEREO_COUNT>  (1) 
0

>  <PUBCHEM_BOND_UDEF_STEREO_COUNT>  (1) 
0

>  <PUBCHEM_ISOTOPIC_ATOM_COUNT>  (1) 
0

>  <PUBCHEM_COMPONENT_COUNT>  (1) 
1

>  <PUBCHEM_CACTVS_TAUTO_COUNT>  (1) 
1

>  <PUBCHEM_CONFORMER_ID>  (1) 
0000999800000001

>  <PUBCHEM_MMFF94_ENERGY>  (1) 
52.5239

>  <PUBCHEM_FEATURE_SELFOVERLAP>  (1) 
35.724

>  <PUBCHEM_SHAPE_FINGERPRINT>  (1) 
10498660 4 18269556207515723029
10937287 8 18337394970937302388
11640471 11 17897724494847790140
12107183 9 18337375137801872416
12173636 292 18195805395366434820
12633257 1 14707766358866525628
12788726 201 17688590884964407806
13134695 92 17900545575116986222
13140716 1 18409162251292947594
13583140 156 17459456763788294971
138480 1 18051974714545725394
13965767 371 18188755211119857056
14142880 1 17826506957615602301
14767858 380 18126266766221419735
14790565 3 18051986015417291929
14955137 171 17623324600299129171
16752209 62 17980192307763357870
17134986 127 18410864252089890220
17980427 23 17842538666098252767
18785283 64 18266470801978718747
19591789 44 17691125259688411643
20510252 161 18054233407771410347
20642791 105 17975959175137677741
20671657 1 18339083691911208414
20715895 44 18045762508995429213
20739085 24 17908712730440028226
21524375 3 18335420196561311680
2255824 54 18267589005019693851
23366157 5 18262236616701546323
23557571 272 17551520272473051224
23558518 356 18336823216570137978
23559900 14 18267579101257541723
283562 15 17979351185795354651
345986 75 16523275216821818147
350125 39 18411989052427290379
394222 165 18335132085939289619
474 4 18260829302005388441
5048184 11 18337676437387433900
5104073 3 18268434530320940337
5312544 6 18411694392370226271
5939293 188 18053099523584051062
67856867 119 18340195294346507385
7364860 26 18269553840814331922
7808743 9 18123190375041411128
81228 2 17478345578578355010
84936 182 18343866593262162784
9981440 41 18265046006291082058

>  <PUBCHEM_SHAPE_MULTIPOLES>  (1) 
436.03
7.22
4.7
1.12
4.02
3.15
-0.16
-7
0.02
-3.79
-0.05
-0.72
-0.29
-1.45

>  <PUBCHEM_SHAPE_SELFOVERLAP>  (1) 
959.459

>  <PUBCHEM_SHAPE_VOLUME>  (1) 
237.4

>  <PUBCHEM_COORDINATE_TYPE>  (1) 
2
5
10

$$$$
