39326
     RDKit          3D

 21 22  0  0  0  0  0  0  0  0999 V2000
    1.4689   -2.8796   -1.5268 Cl  0  0  0  0  0  0  0  0  0  0  0  0
    4.5952    2.1380    0.8143 F   0  0  0  0  0  0  0  0  0  0  0  0
    5.5956    0.3100    0.2130 F   0  0  0  0  0  0  0  0  0  0  0  0
    4.6520    1.5729   -1.2848 F   0  0  0  0  0  0  0  0  0  0  0  0
   -0.3689   -1.7504    0.5659 O   0  0  0  0  0  0  0  0  0  0  0  0
   -5.1615    1.8341   -1.3217 O   0  0  0  0  0  0  0  0  0  0  0  0
   -6.0227    0.9723    0.5045 O   0  0  0  0  0  0  0  0  0  0  0  0
   -5.0783    1.0925   -0.3129 N   0  0  0  0  0  0  0  0  0  0  0  0
    3.2055    0.3171    0.1240 C   0  0  0  0  0  0  0  0  0  0  0  0
    0.8103   -1.0848    0.4073 C   0  0  0  0  0  0  0  0  0  0  0  0
    2.9529   -0.8002   -0.6720 C   0  0  0  0  0  0  0  0  0  0  0  0
    2.2604    0.7334    1.0616 C   0  0  0  0  0  0  0  0  0  0  0  0
    1.7553   -1.5011   -0.5303 C   0  0  0  0  0  0  0  0  0  0  0  0
    1.0628    0.0326    1.2033 C   0  0  0  0  0  0  0  0  0  0  0  0
   -1.5385   -1.0439    0.3479 C   0  0  0  0  0  0  0  0  0  0  0  0
    4.4850    1.0679   -0.0276 C   0  0  0  0  0  0  0  0  0  0  0  0
   -1.6359   -0.2268   -0.7645 C   0  0  0  0  0  0  0  0  0  0  0  0
   -2.5823   -1.1730    1.2469 C   0  0  0  0  0  0  0  0  0  0  0  0
   -3.8784    0.3667   -0.0895 C   0  0  0  0  0  0  0  0  0  0  0  0
   -2.8154    0.4844   -0.9850 C   0  0  0  0  0  0  0  0  0  0  0  0
   -3.7619   -0.4620    1.0264 C   0  0  0  0  0  0  0  0  0  0  0  0
  1 13  1  0
  2 16  1  0
  3 16  1  0
  4 16  1  0
  5 10  1  0
  5 15  1  0
  6  8  1  0
  7  8  2  0
  8 19  1  0
  9 11  2  0
  9 12  1  0
  9 16  1  0
 10 13  2  0
 10 14  1  0
 11 13  1  0
 12 14  2  0
 15 17  2  0
 15 18  1  0
 17 20  1  0
 18 21  2  0
 19 20  2  0
 19 21  1  0
M  CHG  2   6  -1   8   1
M  END
>  <PUBCHEM_COMPOUND_CID>  (1) 
39326

>  <PUBCHEM_CONFORMER_RMSD>  (1) 
0.6

>  <PUBCHEM_CONFORMER_DIVERSEORDER>  (1) 
2
1
5
3
4
6
7

>  <PUBCHEM_MMFF94_PARTIAL_CHARGES>  (1) 
28
1 -0.18
10 0.08
11 -0.15
12 -0.15
13 0.18
14 -0.15
15 0.08
16 1.16
17 -0.15
18 -0.15
19 0.13
2 -0.34
20 -0.15
21 -0.15
22 0.15
23 0.15
24 0.15
25 0.15
26 0.15
27 0.15
28 0.15
3 -0.34
4 -0.34
5 -0.17
6 -0.52
7 -0.52
8 0.91
9 -0.14

>  <PUBCHEM_EFFECTIVE_ROTOR_COUNT>  (1) 
4

>  <PUBCHEM_PHARMACOPHORE_FEATURES>  (1) 
6
1 5 acceptor
1 6 acceptor
1 6 anion
1 7 acceptor
6 15 17 18 19 20 21 rings
6 9 10 11 12 13 14 rings

>  <PUBCHEM_HEAVY_ATOM_COUNT>  (1) 
21

>  <PUBCHEM_ATOM_DEF_STEREO_COUNT>  (1) 
0

>  <PUBCHEM_ATOM_UDEF_STEREO_COUNT>  (1) 
0

>  <PUBCHEM_BOND_DEF_STEREO_COUNT>  (1) 
0

>  <PUBCHEM_BOND_UDEF_STEREO_COUNT>  (1) 
0

>  <PUBCHEM_ISOTOPIC_ATOM_COUNT>  (1) 
0

>  <PUBCHEM_COMPONENT_COUNT>  (1) 
1

>  <PUBCHEM_CACTVS_TAUTO_COUNT>  (1) 
1

>  <PUBCHEM_CONFORMER_ID>  (1) 
0000999E00000002

>  <PUBCHEM_MMFF94_ENERGY>  (1) 
61.1219

>  <PUBCHEM_FEATURE_SELFOVERLAP>  (1) 
30.528

>  <PUBCHEM_SHAPE_FINGERPRINT>  (1) 
10498660 4 18343301491545618905
11471102 20 18131635556276170370
11543360 7 13829857954368692346
11796584 16 11383574255855773908
12236239 1 16271929285442046523
12403259 118 18043527416218669064
12507560 40 16154256222421960899
12596602 18 15430039880663616861
12633257 1 16298389088646238055
12730499 353 18342746204109623003
12892183 10 14635133621662755596
13544653 18 8214157252276539362
13955234 65 18044940073981263955
13965767 371 15578072422763679053
14341114 328 16081093692201869733
15081414 286 18338525148874294797
15210252 30 18413389847637861272
15375358 24 18334576828393470983
16752209 62 14189291518134889823
17870717 6 12607412096080734793
17980427 23 17677055762501328511
1813 80 12685087034848377714
18186145 218 17774728679189665322
18222031 100 12396291591360914234
18335252 98 18272090514037286391
19050596 39 15068630391712864211
193927 3 9511465553952819329
19784866 170 17967533463031245739
19784866 34 18059856198999476994
19862831 5 16415760850999450067
20374829 77 11312060941648418003
20612939 158 18059582338883854638
20645477 56 18334579044897341211
20645477 70 18059580130980774127
21033648 29 18267859657222118616
21452121 103 18114740434696771482
21637258 2 12895080578920153292
22289505 5 18199744760919184117
22393880 68 17346307245601229774
231179 274 18411420626659403858
23402539 116 18334851753513478182
23402655 69 17989486307880733731
23403322 49 11312064248641432033
23503953 91 14273746152740726443
23557571 272 18115042890583643291
23559900 14 17605567556536244863
25 1 18130792273886603362
2838139 119 18409718573721765772
2916195 48 18335698385793101929
3060560 45 17704070698976704310
314194 84 10809343360341204000
3472631 163 17894629262346491325
4072396 5 18201428148361899618
495365 180 18201711825860377778
5104073 3 17459473252357629385
53917941 68 17559380556587837014
56616090 163 18411706490728908359
633830 44 18040711511290223058
76465 3 10807945842507698172
7808743 9 18113619035831226525
8272917 22 17988647333058703703

>  <PUBCHEM_SHAPE_MULTIPOLES>  (1) 
389.63
11.82
2.1
1.29
4.49
0.86
-0.09
-8.51
-1.51
-1.44
-0.65
0.4
0.08
1.3

>  <PUBCHEM_SHAPE_SELFOVERLAP>  (1) 
838.757

>  <PUBCHEM_SHAPE_VOLUME>  (1) 
217.1

>  <PUBCHEM_COORDINATE_TYPE>  (1) 
2
5
10

$$$$
