39321
     RDKit          3D

 22 25  0  0  0  0  0  0  0  0999 V2000
    3.5237   -2.9364    0.9425 O   0  0  0  0  0  0  0  0  0  0  0  0
   -0.7248   -0.7278   -0.6831 O   0  0  0  0  0  0  0  0  0  0  0  0
    2.0098    3.1657    0.1769 O   0  0  0  0  0  0  0  0  0  0  0  0
    2.1156   -0.8569   -0.3971 N   0  0  0  0  0  0  0  0  0  0  0  0
    1.9846    0.5155   -0.8822 C   0  0  0  0  0  0  0  0  0  0  0  0
    2.2368   -0.8833    1.0672 C   0  0  0  0  0  0  0  0  0  0  0  0
    3.2757   -1.5185   -1.0102 C   0  0  0  0  0  0  0  0  0  0  0  0
    0.7755    1.1720   -0.3076 C   0  0  0  0  0  0  0  0  0  0  0  0
   -0.4625    0.5346   -0.2439 C   0  0  0  0  0  0  0  0  0  0  0  0
    2.3851   -2.3237    1.5490 C   0  0  0  0  0  0  0  0  0  0  0  0
    3.3984   -2.9441   -0.4800 C   0  0  0  0  0  0  0  0  0  0  0  0
   -1.6119    1.1133    0.2853 C   0  0  0  0  0  0  0  0  0  0  0  0
    0.8333    2.4729    0.2000 C   0  0  0  0  0  0  0  0  0  0  0  0
   -2.6396    0.1335    0.1572 C   0  0  0  0  0  0  0  0  0  0  0  0
   -2.0427   -0.9720   -0.4408 C   0  0  0  0  0  0  0  0  0  0  0  0
   -1.5292    2.4240    0.7903 C   0  0  0  0  0  0  0  0  0  0  0  0
   -0.2972    3.0902    0.7401 C   0  0  0  0  0  0  0  0  0  0  0  0
   -4.0070    0.0618    0.4812 C   0  0  0  0  0  0  0  0  0  0  0  0
   -2.7145   -2.1555   -0.7423 C   0  0  0  0  0  0  0  0  0  0  0  0
   -4.7090   -1.1155    0.1896 C   0  0  0  0  0  0  0  0  0  0  0  0
   -4.0717   -2.2033   -0.4113 C   0  0  0  0  0  0  0  0  0  0  0  0
    2.2716    3.9536   -0.9810 C   0  0  0  0  0  0  0  0  0  0  0  0
  1 10  1  0
  1 11  1  0
  2  9  1  0
  2 15  1  0
  3 13  1  0
  3 22  1  0
  4  5  1  0
  4  6  1  0
  4  7  1  0
  5  8  1  0
  6 10  1  0
  7 11  1  0
  8  9  2  0
  8 13  1  0
  9 12  1  0
 12 14  1  0
 12 16  2  0
 13 17  2  0
 14 15  2  0
 14 18  1  0
 15 19  1  0
 16 17  1  0
 18 20  2  0
 19 21  2  0
 20 21  1  0
M  END
>  <PUBCHEM_COMPOUND_CID>  (1) 
39321

>  <PUBCHEM_CONFORMER_RMSD>  (1) 
0.6

>  <PUBCHEM_CONFORMER_DIVERSEORDER>  (1) 
1
5
4
2
9
8
11
13
10
14
12
7
6
3

>  <PUBCHEM_MMFF94_PARTIAL_CHARGES>  (1) 
26
1 -0.56
10 0.28
11 0.28
13 0.08
15 0.14
16 -0.15
17 -0.15
18 -0.15
19 -0.15
2 -0.28
20 -0.15
21 -0.15
22 0.28
3 -0.36
33 0.15
34 0.15
35 0.15
36 0.15
37 0.15
38 0.15
4 -0.81
5 0.41
6 0.27
7 0.27
8 -0.14
9 0.14

>  <PUBCHEM_EFFECTIVE_ROTOR_COUNT>  (1) 
4.2

>  <PUBCHEM_PHARMACOPHORE_FEATURES>  (1) 
8
1 1 acceptor
1 2 acceptor
1 3 acceptor
1 4 cation
5 2 9 12 14 15 rings
6 1 4 6 7 10 11 rings
6 14 15 18 19 20 21 rings
6 8 9 12 13 16 17 rings

>  <PUBCHEM_HEAVY_ATOM_COUNT>  (1) 
22

>  <PUBCHEM_ATOM_DEF_STEREO_COUNT>  (1) 
0

>  <PUBCHEM_ATOM_UDEF_STEREO_COUNT>  (1) 
0

>  <PUBCHEM_BOND_DEF_STEREO_COUNT>  (1) 
0

>  <PUBCHEM_BOND_UDEF_STEREO_COUNT>  (1) 
0

>  <PUBCHEM_ISOTOPIC_ATOM_COUNT>  (1) 
0

>  <PUBCHEM_COMPONENT_COUNT>  (1) 
1

>  <PUBCHEM_CACTVS_TAUTO_COUNT>  (1) 
1

>  <PUBCHEM_CONFORMER_ID>  (1) 
0000999900000001

>  <PUBCHEM_MMFF94_ENERGY>  (1) 
61.2215

>  <PUBCHEM_FEATURE_SELFOVERLAP>  (1) 
40.799

>  <PUBCHEM_SHAPE_FINGERPRINT>  (1) 
1100329 8 18268717104361352889
11265709 11 18411136892329539146
11578080 2 17895461545288579212
11582403 64 14637420790616468126
12553582 1 18412544275724250247
12788726 201 18194135031045529722
13004483 165 18120079594457378650
13140716 1 17479449492874897481
13533116 47 18268146651532822299
138480 1 18412265055562606700
14178342 30 17760073030963602434
14787075 74 18334582382239768126
15042514 8 17907021672797671219
15375462 189 18335990821684607355
15442244 35 18343591754589848049
16752209 62 18049150082407010831
16945 1 18270968942723949789
17134984 74 16975303646343439863
17492 89 18269557298849308263
1813 80 18261107435476443786
19591789 44 17476079497718549708
20291156 8 18337391543495221907
20567600 347 17831293166048636834
20600515 1 17985552143528806336
20645477 70 18267298919066032759
21421861 104 18409449227885589145
21452121 199 18341319059148240793
21650355 55 18051122597608845128
2255824 54 18191870230502872548
23184049 29 18413103940021986425
23366157 5 18261677081262865181
23559900 14 18202004321817576397
23598288 3 17829348894478063400
23728640 28 17689995635300982314
3091708 16 9212634760422738072
314173 41 18410297986332493671
34934 24 17914338128602350253
43471831 8 18052253191698937193
4409770 3 17540530219534342292
5104073 3 18199761387745195315
6138700 20 18267593579998933364
7097593 13 18341608265467205559
7364860 26 18269557306826553044
7970288 3 18411137991995174231
81228 2 17982153544338725336
90316 7 18049724014380960952

>  <PUBCHEM_SHAPE_MULTIPOLES>  (1) 
430.16
7.17
4.59
1.09
4.91
2.47
-0.16
-6.11
0.18
-4.39
-0.14
-0.67
-0.28
-1.42

>  <PUBCHEM_SHAPE_SELFOVERLAP>  (1) 
949.899

>  <PUBCHEM_SHAPE_VOLUME>  (1) 
233

>  <PUBCHEM_COORDINATE_TYPE>  (1) 
2
5
10

$$$$
