39330
     RDKit          3D

 21 23  0  0  0  0  0  0  0  0999 V2000
    1.3381   -2.0501   -1.0374 O   0  0  0  0  0  0  0  0  0  0  0  0
    2.9588    0.1398   -0.6377 N   0  0  0  0  0  0  0  0  0  0  0  0
    5.3300    0.6756    0.9271 N   0  0  0  0  0  0  0  0  0  0  0  0
    3.0792   -0.3283    0.7483 C   0  0  0  0  0  0  0  0  0  0  0  0
    3.7394    1.3676   -0.8333 C   0  0  0  0  0  0  0  0  0  0  0  0
    4.5485   -0.5517    1.1225 C   0  0  0  0  0  0  0  0  0  0  0  0
    5.2087    1.1455   -0.4584 C   0  0  0  0  0  0  0  0  0  0  0  0
    1.5574    0.3535   -0.9937 C   0  0  0  0  0  0  0  0  0  0  0  0
   -3.5967    1.4378   -1.0286 C   0  0  0  0  0  0  0  0  0  0  0  0
   -4.1484    2.2620    0.1341 C   0  0  0  0  0  0  0  0  0  0  0  0
   -2.7929    0.2427   -0.5789 C   0  0  0  0  0  0  0  0  0  0  0  0
   -5.4112    1.6762    0.7633 C   0  0  0  0  0  0  0  0  0  0  0  0
   -5.2152    0.3324    1.4628 C   0  0  0  0  0  0  0  0  0  0  0  0
   -4.8390   -0.8080    0.5176 C   0  0  0  0  0  0  0  0  0  0  0  0
   -3.3764   -0.8122    0.1470 C   0  0  0  0  0  0  0  0  0  0  0  0
   -0.6477   -0.9099   -0.5126 C   0  0  0  0  0  0  0  0  0  0  0  0
    0.7649   -0.9559   -0.8551 C   0  0  0  0  0  0  0  0  0  0  0  0
   -1.4266    0.1787   -0.9027 C   0  0  0  0  0  0  0  0  0  0  0  0
    6.7315    0.4605    1.2815 C   0  0  0  0  0  0  0  0  0  0  0  0
   -2.5787   -1.9042    0.5301 C   0  0  0  0  0  0  0  0  0  0  0  0
   -1.2240   -1.9518    0.2040 C   0  0  0  0  0  0  0  0  0  0  0  0
  1 17  2  0
  2  4  1  0
  2  5  1  0
  2  8  1  0
  3  6  1  0
  3  7  1  0
  3 19  1  0
  4  6  1  0
  5  7  1  0
  8 17  1  0
  9 10  1  0
  9 11  1  0
 10 12  1  0
 11 15  2  0
 11 18  1  0
 12 13  1  0
 13 14  1  0
 14 15  1  0
 15 20  1  0
 16 17  1  0
 16 18  2  0
 16 21  1  0
 20 21  2  0
M  END
>  <PUBCHEM_COMPOUND_CID>  (1) 
39330

>  <PUBCHEM_CONFORMER_RMSD>  (1) 
0.8

>  <PUBCHEM_CONFORMER_DIVERSEORDER>  (1) 
1
62
92
41
8
9
93
84
96
33
49
59
72
81
12
39
10
58
53
23
35
52
43
95
44
89
64
86
91
45
66
34
77
97
27
18
47
73
31
87
51
4
48
28
76
63
61
36
60
90
70
57
56
55
17
2
3
42
38
26
54
71
79
6
83
75
78
65
67
68
82
5
14
30
29
19
69
88
98
20
74
40
21
80
16
11
32
15
37
7
46
25
85
50
13
24
94
22

>  <PUBCHEM_MMFF94_PARTIAL_CHARGES>  (1) 
21
1 -0.57
11 -0.14
14 0.14
15 -0.14
16 0.09
17 0.42
18 -0.15
19 0.27
2 -0.81
20 -0.15
21 -0.15
3 -0.81
4 0.27
42 0.15
46 0.15
47 0.15
5 0.27
6 0.27
7 0.27
8 0.33
9 0.14

>  <PUBCHEM_EFFECTIVE_ROTOR_COUNT>  (1) 
5.2

>  <PUBCHEM_PHARMACOPHORE_FEATURES>  (1) 
6
1 1 acceptor
1 2 cation
1 3 cation
6 11 15 16 18 20 21 rings
6 2 3 4 5 6 7 rings
7 9 10 11 12 13 14 15 rings

>  <PUBCHEM_HEAVY_ATOM_COUNT>  (1) 
21

>  <PUBCHEM_ATOM_DEF_STEREO_COUNT>  (1) 
0

>  <PUBCHEM_ATOM_UDEF_STEREO_COUNT>  (1) 
0

>  <PUBCHEM_BOND_DEF_STEREO_COUNT>  (1) 
0

>  <PUBCHEM_BOND_UDEF_STEREO_COUNT>  (1) 
0

>  <PUBCHEM_ISOTOPIC_ATOM_COUNT>  (1) 
0

>  <PUBCHEM_COMPONENT_COUNT>  (1) 
1

>  <PUBCHEM_CACTVS_TAUTO_COUNT>  (1) 
2

>  <PUBCHEM_CONFORMER_ID>  (1) 
000099A200000001

>  <PUBCHEM_MMFF94_ENERGY>  (1) 
50.5345

>  <PUBCHEM_FEATURE_SELFOVERLAP>  (1) 
30.456

>  <PUBCHEM_SHAPE_FINGERPRINT>  (1) 
10 15 18260555540758507273
10319926 262 18187937152851400554
105312 117 17203608207047984911
10692045 39 18270113497077067674
11046707 91 8358255943214011461
12107183 9 17754158804950549256
12236239 1 17312820510880815990
12403259 118 18339923813331478764
12403259 415 18200886092606604846
12596602 18 17022906782617331697
12633257 1 18186803603475506341
12670546 177 11887957639785656336
12892183 10 17240479174091841990
12969540 114 16630807694841615181
13288520 33 10881399833745919771
13583140 156 16733253595648478775
13668630 136 12251899279131278808
13740256 8 11097858484171252710
13914758 101 16298375856748817431
14123256 34 11602825678869416968
14251764 18 17968095356834285844
14251764 30 13912317967718992304
14341114 176 17967812747896408268
14341114 328 17967816084890831372
14466204 15 18412823586269363976
14528608 73 11959727192538158330
14951699 99 18197771323101897656
15188451 53 15719682043273340937
15209294 21 18409736140728421175
15238133 3 18410859871751074044
15510800 12 12685106886419439713
15880784 105 14273748386171407237
17844677 252 14562527379933815926
17980427 23 18335421304857930245
1813 80 15213299690942585446
18222031 100 12251901508097855894
193927 3 13118003275210814526
19784866 240 13262401063866682843
200 152 12107789635826384391
20374829 77 9007059045923997823
20645477 56 18342178864815215135
20693207 138 9511174089262447491
20871999 31 11167943562938924183
21033648 29 17846202398246221304
21065198 48 17968376853080013798
21150785 3 15051728690744909661
21307412 95 8646475303382030921
21623969 137 14634864237319742016
21637258 2 13623530164456329720
21859007 373 17024860452003331485
23198884 109 15554450674188185869
23402539 116 18261104231932196207
23402655 69 13326865430476615162
23559900 14 18267037067510373198
25122255 55 11675147138940369352
2838139 119 16702297936553235696
2916195 48 17918270978172337896
3680242 22 18337961099250743672
3737641 26 15864895523164082602
4259306 186 8358259237158736129
465052 167 11963685403779688001
5104073 3 18263090929179066179
5385378 56 18272659995865863942
58807428 26 18040437655211079243
5924683 9 18264203776443321495
59755656 520 16630529565423272430
7226269 152 18202280290657302632
960060 61 11455888053208833900
9981440 41 18410577284056275747

>  <PUBCHEM_SHAPE_MULTIPOLES>  (1) 
416.34
14.87
1.99
1.28
12.23
0.03
-0.15
-6.48
-7.02
-1.87
0.11
0.39
-0.08
-0.19

>  <PUBCHEM_SHAPE_SELFOVERLAP>  (1) 
868.517

>  <PUBCHEM_SHAPE_VOLUME>  (1) 
235.4

>  <PUBCHEM_COORDINATE_TYPE>  (1) 
2
5
10

$$$$
