39334
     RDKit          3D

 25 27  0  0  1  0  0  0  0  0999 V2000
    0.6008    2.0565    1.7586 O   0  0  0  0  0  0  0  0  0  0  0  0
    2.3573    1.3096   -0.2240 N   0  0  0  0  0  0  0  0  0  0  0  0
   -5.6067   -1.8315   -1.2468 C   0  0  0  0  0  0  0  0  0  0  0  0
   -4.1262   -2.1935   -1.3497 C   0  0  0  0  0  0  0  0  0  0  0  0
   -5.8867   -0.3811   -0.8576 C   0  0  0  0  0  0  0  0  0  0  0  0
   -3.3792   -2.1293   -0.0180 C   0  0  0  0  0  0  0  0  0  0  0  0
   -5.4288   -0.0203    0.5552 C   0  0  0  0  0  0  0  0  0  0  0  0
   -2.9872   -0.7262    0.3745 C   0  0  0  0  0  0  0  0  0  0  0  0
   -3.9498    0.2642    0.6440 C   0  0  0  0  0  0  0  0  0  0  0  0
   -1.6231   -0.4040    0.4823 C   0  0  0  0  0  0  0  0  0  0  0  0
   -1.2164    0.8784    0.8481 C   0  0  0  0  0  0  0  0  0  0  0  0
    1.9261    2.5542   -0.8623 C   0  0  0  0  0  0  0  0  0  0  0  0
   -3.5237    1.5513    1.0148 C   0  0  0  0  0  0  0  0  0  0  0  0
    1.2102    0.4540    0.0594 C   0  0  0  0  0  0  0  0  0  0  0  0
    0.1999    1.1925    0.9514 C   0  0  0  0  0  0  0  0  0  0  0  0
   -2.1670    1.8564    1.1146 C   0  0  0  0  0  0  0  0  0  0  0  0
    3.3231    0.6109   -1.0735 C   0  0  0  0  0  0  0  0  0  0  0  0
    1.2682    2.2587   -2.2073 C   0  0  0  0  0  0  0  0  0  0  0  0
    3.1261    3.4806   -1.0311 C   0  0  0  0  0  0  0  0  0  0  0  0
    3.8393   -0.6440   -0.4211 C   0  0  0  0  0  0  0  0  0  0  0  0
    4.9728   -0.5825    0.3775 C   0  0  0  0  0  0  0  0  0  0  0  0
    3.1748   -1.8447   -0.6278 C   0  0  0  0  0  0  0  0  0  0  0  0
    5.4514   -1.7452    0.9816 C   0  0  0  0  0  0  0  0  0  0  0  0
    3.6533   -3.0074   -0.0237 C   0  0  0  0  0  0  0  0  0  0  0  0
    4.7916   -2.9576    0.7809 C   0  0  0  0  0  0  0  0  0  0  0  0
  1 15  2  0
  2 12  1  0
  2 14  1  0
  2 17  1  0
  3  4  1  0
  3  5  1  0
  4  6  1  0
  5  7  1  0
  6  8  1  0
  7  9  1  0
  8  9  2  0
  8 10  1  0
  9 13  1  0
 10 11  2  0
 11 15  1  0
 11 16  1  0
 12 18  1  0
 12 19  1  0
 13 16  2  0
 14 15  1  0
 17 20  1  0
 20 21  2  0
 20 22  1  0
 21 23  1  0
 22 24  2  0
 23 25  2  0
 24 25  1  0
M  END
>  <PUBCHEM_COMPOUND_CID>  (1) 
39334

>  <PUBCHEM_CONFORMER_RMSD>  (1) 
0.8

>  <PUBCHEM_CONFORMER_DIVERSEORDER>  (1) 
1
2
165
42
123
109
198
189
10
48
125
119
67
156
175
100
200
73
154
19
195
180
14
103
118
112
95
66
46
187
190
121
124
27
158
9
152
129
50
166
169
151
101
82
150
55
43
68
114
99
135
192
147
206
140
179
136
87
78
13
144
11
172
183
6
203
188
96
145
181
130
143
149
62
134
20
131
5
139
36
191
24
28
173
197
186
105
37
57
108
65
122
54
25
33
128
31
72
141
205
117
204
157
38
15
8
137
32
155
7
77
107
111
193
164
168
88
91
102
184
174
160
161
21
132
76
194
199
22
12
163
115
83
182
177
94
4
185
85
45
201
113
176
59
167
89
116
127
75
40
29
61
23
79
58
84
53
133
63
148
126
90
18
60
146
56
70
92
39
41
171
159
170
196
86
64
162
202
47
153
49
93
17
3
35
178
74
120
52
80
16
44
30
81
110
106
104
51
97
26
138
71
142
69
98
34

>  <PUBCHEM_MMFF94_PARTIAL_CHARGES>  (1) 
28
1 -0.57
10 -0.15
11 0.09
12 0.27
13 -0.15
14 0.33
15 0.42
16 -0.15
17 0.41
2 -0.81
20 -0.14
21 -0.15
22 -0.15
23 -0.15
24 -0.15
25 -0.15
36 0.15
40 0.15
41 0.15
50 0.15
51 0.15
52 0.15
53 0.15
54 0.15
6 0.14
7 0.14
8 -0.14
9 -0.14

>  <PUBCHEM_EFFECTIVE_ROTOR_COUNT>  (1) 
7

>  <PUBCHEM_PHARMACOPHORE_FEATURES>  (1) 
6
1 1 acceptor
1 2 cation
3 12 18 19 hydrophobe
6 20 21 22 23 24 25 rings
6 8 9 10 11 13 16 rings
7 3 4 5 6 7 8 9 rings

>  <PUBCHEM_HEAVY_ATOM_COUNT>  (1) 
25

>  <PUBCHEM_ATOM_DEF_STEREO_COUNT>  (1) 
0

>  <PUBCHEM_ATOM_UDEF_STEREO_COUNT>  (1) 
0

>  <PUBCHEM_BOND_DEF_STEREO_COUNT>  (1) 
0

>  <PUBCHEM_BOND_UDEF_STEREO_COUNT>  (1) 
0

>  <PUBCHEM_ISOTOPIC_ATOM_COUNT>  (1) 
0

>  <PUBCHEM_COMPONENT_COUNT>  (1) 
1

>  <PUBCHEM_CACTVS_TAUTO_COUNT>  (1) 
2

>  <PUBCHEM_CONFORMER_ID>  (1) 
000099A600000001

>  <PUBCHEM_MMFF94_ENERGY>  (1) 
72.7973

>  <PUBCHEM_FEATURE_SELFOVERLAP>  (1) 
30.454

>  <PUBCHEM_SHAPE_FINGERPRINT>  (1) 
10042902 136 18127706928754019806
10622 236 18341882000786930823
11135609 149 17896578662155482342
12107183 9 18194692453655927921
12616971 3 18340218435772794689
12839892 36 17704072859145099743
13533116 47 18411702118568096273
13782708 43 17023480741099291747
13899415 180 17894630318929804924
14068700 675 18342458110972944112
14251751 18 18130781257195139075
14347332 77 18412543202646648545
1454969 45 18408042927772182782
15003188 33 18335697269755940813
15183329 4 18342741819369552503
15250474 111 18342740749385015287
15420108 30 17546447778451852425
15484559 13 14171235771811882455
15728490 51 18272927212184102658
15842332 3 18126875800230408664
17349148 13 18201444644697799687
17818456 19 18056492663728060209
17857418 61 18343580737645409947
1813 80 18114185177472713648
18222031 100 18339088094975302014
18681886 176 17774453771492633900
19141452 34 18195251009831191088
20028762 73 18272647897191476518
20511986 3 18342727529301195438
20626108 58 18410569566178788594
21728266 224 18202843232146895755
21756936 100 9798818481872447566
23557571 272 16844747321362948808
23559900 14 18339077206479053680
25147074 1 18272101504051339225
2637199 183 8430308044241916786
3004659 81 18272378589175503109
312425 83 17968368048539852645
338550 245 18342175574596408039
339767 52 18271800207405165082
3729539 64 16733819770943615619
376196 1 16447860174145567700
439807 62 18339920541548354199
463206 1 18271243919204586755
5081480 168 16154292549344794862
5104073 3 17560805489450567587
5326457 24 18410291419300682708
559249 180 18338797785002865739
59682541 52 18113612421961224167
67856867 119 18341331196937173088
9981440 41 17614290283117052640

>  <PUBCHEM_SHAPE_MULTIPOLES>  (1) 
503.64
13.58
3.69
1.49
5.93
0.37
0.31
-9.75
1.04
-4
0.8
0.29
0.64
-3.07

>  <PUBCHEM_SHAPE_SELFOVERLAP>  (1) 
1063.605

>  <PUBCHEM_SHAPE_VOLUME>  (1) 
282.3

>  <PUBCHEM_COORDINATE_TYPE>  (1) 
2
5
10

$$$$
