39332
     RDKit          3D

 23 25  0  0  1  0  0  0  0  0999 V2000
    0.4934    2.3357    0.5746 O   0  0  0  0  0  0  0  0  0  0  0  0
    2.2165    0.2065    0.3060 N   0  0  0  0  0  0  0  0  0  0  0  0
   -6.1070   -1.9223   -0.4182 C   0  0  0  0  0  0  0  0  0  0  0  0
   -4.7787   -2.3683    0.1900 C   0  0  0  0  0  0  0  0  0  0  0  0
   -6.0312   -0.6520   -1.2633 C   0  0  0  0  0  0  0  0  0  0  0  0
   -4.2148   -1.3963    1.2258 C   0  0  0  0  0  0  0  0  0  0  0  0
   -5.6734    0.6012   -0.4653 C   0  0  0  0  0  0  0  0  0  0  0  0
   -3.5105   -0.2141    0.6072 C   0  0  0  0  0  0  0  0  0  0  0  0
   -4.1957    0.7243   -0.1867 C   0  0  0  0  0  0  0  0  0  0  0  0
   -2.1348   -0.0418    0.8390 C   0  0  0  0  0  0  0  0  0  0  0  0
   -3.4875    1.8111   -0.7283 C   0  0  0  0  0  0  0  0  0  0  0  0
   -1.4458    1.0398    0.2920 C   0  0  0  0  0  0  0  0  0  0  0  0
   -2.1224    1.9667   -0.4917 C   0  0  0  0  0  0  0  0  0  0  0  0
   -0.0218    1.1987    0.5413 C   0  0  0  0  0  0  0  0  0  0  0  0
    0.8547   -0.0434    0.7658 C   0  0  0  0  0  0  0  0  0  0  0  0
    3.0704   -0.9523    0.5715 C   0  0  0  0  0  0  0  0  0  0  0  0
    4.4985   -0.7013    0.1662 C   0  0  0  0  0  0  0  0  0  0  0  0
    2.2266    0.5287   -1.1217 C   0  0  0  0  0  0  0  0  0  0  0  0
    4.9084   -1.0153   -1.1221 C   0  0  0  0  0  0  0  0  0  0  0  0
    5.3848   -0.1590    1.0864 C   0  0  0  0  0  0  0  0  0  0  0  0
    6.2314   -0.7825   -1.4977 C   0  0  0  0  0  0  0  0  0  0  0  0
    6.7079    0.0738    0.7106 C   0  0  0  0  0  0  0  0  0  0  0  0
    7.1311   -0.2380   -0.5815 C   0  0  0  0  0  0  0  0  0  0  0  0
  1 14  2  0
  2 15  1  0
  2 16  1  0
  2 18  1  0
  3  4  1  0
  3  5  1  0
  4  6  1  0
  5  7  1  0
  6  8  1  0
  7  9  1  0
  8  9  2  0
  8 10  1  0
  9 11  1  0
 10 12  2  0
 11 13  2  0
 12 13  1  0
 12 14  1  0
 14 15  1  0
 16 17  1  0
 17 19  2  0
 17 20  1  0
 19 21  1  0
 20 22  2  0
 21 23  2  0
 22 23  1  0
M  END
>  <PUBCHEM_COMPOUND_CID>  (1) 
39332

>  <PUBCHEM_CONFORMER_RMSD>  (1) 
0.8

>  <PUBCHEM_CONFORMER_DIVERSEORDER>  (1) 
3
312
106
2
73
304
193
59
53
108
245
308
300
316
16
199
267
128
299
262
104
278
220
149
68
44
251
67
7
87
77
75
232
157
123
81
195
270
26
201
43
212
291
313
20
190
290
192
266
61
222
79
310
180
175
15
147
226
12
85
204
207
301
134
264
4
6
66
255
169
150
194
114
5
65
243
24
305
8
148
200
289
173
214
211
284
31
140
311
306
1
227
206
263
64
13
233
257
293
248
69
275
17
221
143
259
50
253
97
225
297
239
287
184
249
38
154
111
229
124
170
242
95
10
277
110
82
23
279
196
135
91
315
74
163
268
70
314
11
125
246
80
94
189
165
216
182
112
33
176
98
282
252
191
213
138
272
28
167
185
54
32
171
280
309
101
144
240
254
159
283
153
83
103
22
100
208
234
129
318
172
96
160
109
319
48
219
133
178
14
235
117
25
179
197
238
152
294
142
93
137
21
273
45
295
89
244
19
40
228
230
210
265
115
155
250
271
162
183
51
62
56
29
247
84
39
47
302
241
174
292
92
131
122
72
188
296
224
181
198
187
223
276
37
288
205
60
130
146
90
121
269
215
274
34
127
307
237
168
202
164
78
63
42
236
118
209
71
141
166
317
260
158
113
120
41
107
203
217
285
88
86
99
139
303
35
119
132
27
116
151
218
49
281
186
52
76
9
36
55
18
256
231
126
57
161
177
58
136
156
286
261
46
258
102
105
145
30
298

>  <PUBCHEM_MMFF94_PARTIAL_CHARGES>  (1) 
28
1 -0.57
10 -0.15
11 -0.15
12 0.09
13 -0.15
14 0.42
15 0.33
16 0.41
17 -0.14
18 0.27
19 -0.15
2 -0.81
20 -0.15
21 -0.15
22 -0.15
23 -0.15
34 0.15
35 0.15
36 0.15
44 0.15
45 0.15
46 0.15
47 0.15
48 0.15
6 0.14
7 0.14
8 -0.14
9 -0.14

>  <PUBCHEM_EFFECTIVE_ROTOR_COUNT>  (1) 
6

>  <PUBCHEM_PHARMACOPHORE_FEATURES>  (1) 
5
1 1 acceptor
1 2 cation
6 17 19 20 21 22 23 rings
6 8 9 10 11 12 13 rings
7 3 4 5 6 7 8 9 rings

>  <PUBCHEM_HEAVY_ATOM_COUNT>  (1) 
23

>  <PUBCHEM_ATOM_DEF_STEREO_COUNT>  (1) 
0

>  <PUBCHEM_ATOM_UDEF_STEREO_COUNT>  (1) 
0

>  <PUBCHEM_BOND_DEF_STEREO_COUNT>  (1) 
0

>  <PUBCHEM_BOND_UDEF_STEREO_COUNT>  (1) 
0

>  <PUBCHEM_ISOTOPIC_ATOM_COUNT>  (1) 
0

>  <PUBCHEM_COMPONENT_COUNT>  (1) 
1

>  <PUBCHEM_CACTVS_TAUTO_COUNT>  (1) 
2

>  <PUBCHEM_CONFORMER_ID>  (1) 
000099A400000003

>  <PUBCHEM_MMFF94_ENERGY>  (1) 
66.8305

>  <PUBCHEM_FEATURE_SELFOVERLAP>  (1) 
25.38

>  <PUBCHEM_SHAPE_FINGERPRINT>  (1) 
10299344 5 14117516541687661708
11315181 36 18202563982332730585
11524674 6 16988841692186171351
12236239 1 17530965766027392066
12516196 113 18201998824333602368
12596602 18 15985106314286456899
12730499 353 17561362873532664734
12760667 363 18343585166320889267
13288520 33 18413106169827353313
13668630 136 17988926669283917798
13685833 64 17775284971337109683
13740256 8 18413670231576047729
13878862 14 14923946804019318950
13914758 101 14996272588319853736
14123256 34 18343306989399286759
1420 363 17988645177533266232
14461889 52 18342448267124394258
14528608 73 17749117686393479484
14849402 71 13326272841371201322
15183329 4 16660360389658073174
15352257 5 17489591160417193582
15510800 12 18130511950489091135
15716309 27 16343985810154339639
16992828 155 16517365462487873413
17780758 139 17203615891483215259
17844677 252 17060340691441277920
17857418 61 18040714762121173018
1813 80 16630537232177551632
18335252 98 18131354124955936574
18681886 176 18334009527754301584
18927931 339 18335143103089494263
19489759 90 18040716948117205824
20281389 69 9223227447118652062
20511986 3 16588021351399088066
21054139 6 18113336414599589986
21150785 3 18260269659714673644
21267235 1 18334576889351318339
21307412 95 18337102493378278687
21365058 27 15339121268995422796
21623969 137 17203895145640015766
21774942 28 14418395660523680014
2303208 19 17846785079216103070
23081809 10 17603586288406774264
23402539 116 17095243609421242392
23559900 14 18188205506903501553
24771293 8 18040721381568616860
249057 3 18261109665377185429
2838139 119 13623524667019874255
3004659 81 18187081779901496249
3009799 131 15429752891402039892
335352 9 18335413561976296429
34797466 226 18342462534947787300
4325135 7 18186520990886278710
437815 12 18130785677032952289
465052 167 16917350312635011516
4938544 92 16988294071092089017
5718773 13 18128812135682730839
59682541 35 17988913506079269162
59755656 215 18412825772418598374
67856867 119 17895201047085077052
7062679 117 18333732407647452155
9862886 166 18334576862531877667
999808 66 17561086916613178671

>  <PUBCHEM_SHAPE_MULTIPOLES>  (1) 
462.48
19.6
1.93
1.22
16.19
0.09
-0.17
-8.15
-4.42
-3.09
-0.05
0.63
-0.17
0.73

>  <PUBCHEM_SHAPE_SELFOVERLAP>  (1) 
981.197

>  <PUBCHEM_SHAPE_VOLUME>  (1) 
256.9

>  <PUBCHEM_COORDINATE_TYPE>  (1) 
2
5
10

$$$$
