39338
     RDKit          3D

 14 15  0  0  0  0  0  0  0  0999 V2000
    3.6380    0.9628    0.1990 O   0  0  0  0  0  0  0  0  0  0  0  0
    0.3385    0.2274   -0.3756 N   0  0  0  0  0  0  0  0  0  0  0  0
   -0.8118    0.7633   -1.0704 C   0  0  0  0  0  0  0  0  0  0  0  0
    1.5847    0.6489   -1.0092 C   0  0  0  0  0  0  0  0  0  0  0  0
   -2.0806    0.3200   -0.4233 C   0  0  0  0  0  0  0  0  0  0  0  0
    2.7670    0.0628   -0.2883 C   0  0  0  0  0  0  0  0  0  0  0  0
   -2.6972   -0.8618   -0.8343 C   0  0  0  0  0  0  0  0  0  0  0  0
   -2.6506    1.0872    0.5925 C   0  0  0  0  0  0  0  0  0  0  0  0
    3.1298   -1.2143   -0.0314 C   0  0  0  0  0  0  0  0  0  0  0  0
   -3.8839   -1.2762   -0.2295 C   0  0  0  0  0  0  0  0  0  0  0  0
   -3.8372    0.6728    1.1974 C   0  0  0  0  0  0  0  0  0  0  0  0
   -4.4538   -0.5089    0.7863 C   0  0  0  0  0  0  0  0  0  0  0  0
    4.3453   -1.1143    0.6863 C   0  0  0  0  0  0  0  0  0  0  0  0
    4.6118    0.2303    0.8006 C   0  0  0  0  0  0  0  0  0  0  0  0
  1  6  1  0
  1 14  1  0
  2  3  1  0
  2  4  1  0
  3  5  1  0
  4  6  1  0
  5  7  2  0
  5  8  1  0
  6  9  2  0
  7 10  1  0
  8 11  2  0
  9 13  1  0
 10 12  2  0
 11 12  1  0
 13 14  2  0
M  END
>  <PUBCHEM_COMPOUND_CID>  (1) 
39338

>  <PUBCHEM_CONFORMER_RMSD>  (1) 
0.6

>  <PUBCHEM_CONFORMER_DIVERSEORDER>  (1) 
1
28
5
31
3
26
22
25
4
24
27
12
29
2
23
11
21
6
30
10
19
9
20
8
18
17
13
7
16
15
14

>  <PUBCHEM_MMFF94_PARTIAL_CHARGES>  (1) 
23
1 -0.28
10 -0.15
11 -0.15
12 -0.15
13 -0.15
14 -0.01
19 0.36
2 -0.9
20 0.15
21 0.15
22 0.15
23 0.15
24 0.15
25 0.15
26 0.15
27 0.15
3 0.41
4 0.45
5 -0.14
6 -0.04
7 -0.15
8 -0.15
9 -0.15

>  <PUBCHEM_EFFECTIVE_ROTOR_COUNT>  (1) 
4

>  <PUBCHEM_PHARMACOPHORE_FEATURES>  (1) 
5
1 1 acceptor
1 2 cation
1 2 donor
5 1 6 9 13 14 rings
6 5 7 8 10 11 12 rings

>  <PUBCHEM_HEAVY_ATOM_COUNT>  (1) 
14

>  <PUBCHEM_ATOM_DEF_STEREO_COUNT>  (1) 
0

>  <PUBCHEM_ATOM_UDEF_STEREO_COUNT>  (1) 
0

>  <PUBCHEM_BOND_DEF_STEREO_COUNT>  (1) 
0

>  <PUBCHEM_BOND_UDEF_STEREO_COUNT>  (1) 
0

>  <PUBCHEM_ISOTOPIC_ATOM_COUNT>  (1) 
0

>  <PUBCHEM_COMPONENT_COUNT>  (1) 
1

>  <PUBCHEM_CACTVS_TAUTO_COUNT>  (1) 
1

>  <PUBCHEM_CONFORMER_ID>  (1) 
000099AA00000001

>  <PUBCHEM_MMFF94_ENERGY>  (1) 
20.9602

>  <PUBCHEM_FEATURE_SELFOVERLAP>  (1) 
25.371

>  <PUBCHEM_SHAPE_FINGERPRINT>  (1) 
10014705 185 13398622849318609193
10498660 4 12463566257692898411
11543360 7 11458435638724687124
12251169 10 18201720673508461589
12363563 72 16732988608808656724
12707595 3 16153430562372678996
13675066 3 18410296873951327037
14123260 362 11527947880656161987
1420 369 17894914022583039882
14252887 29 18187363204034853642
15239191 94 17894631435352055306
17870717 6 14345793812435078147
19050596 39 18272369784624486192
193927 3 17022912224176910394
1986462 14 13839983313671972271
200 152 17530961402029298213
20281475 54 18113905991138481095
20325693 3 12179843897096251979
20432913 95 18113056030074703690
204376 136 14620794903241188349
20645477 56 15051731992957549397
20645477 70 16660647392305010726
20671657 53 15574716901937684988
20871999 31 11819281070247787797
21065198 48 18272089396258644768
21065199 12 18060139808210754894
21119208 17 11025795400975125362
21650355 55 18131353051034530457
22485316 2 18260545619357322493
22646028 1 17894912931687473414
22646028 28 17676489449245290918
22926399 37 11959732647020198915
231179 274 13973965394038533902
23403322 49 15864068771644512889
23500284 214 14261352466093636407
26918003 58 18186800288045512361
27216 239 15698000743325495923
32948 21 12613021795261812382
4028521 119 11240003334557075539
42 15 18410576171395306356
53428517 29 17561363971878234425
573450 72 18343301461881612123
5924683 9 17774713260246971735
90316 7 18341625776191789945
93112 12 11241976983592975852

>  <PUBCHEM_SHAPE_MULTIPOLES>  (1) 
277.26
10.88
1.26
1.11
3.94
0.2
-0.02
2.25
-3.82
-0.12
-0.01
-0.41
-0.12
-0.57

>  <PUBCHEM_SHAPE_SELFOVERLAP>  (1) 
585.933

>  <PUBCHEM_SHAPE_VOLUME>  (1) 
157

>  <PUBCHEM_COORDINATE_TYPE>  (1) 
2
5
10

$$$$
