39344
     RDKit          3D

 18 19  0  0  1  0  0  0  0  0999 V2000
   -2.0447   -2.6622   -1.3810 O   0  0  0  0  0  0  0  0  0  0  0  0
   -2.9036    0.3715    0.6019 N   0  0  0  0  0  0  0  0  0  0  0  0
    2.2484    0.4323   -1.6763 C   0  0  0  0  0  0  0  0  0  0  0  0
    1.4832   -0.3434   -0.6325 C   0  0  0  0  0  0  0  0  0  0  0  0
    2.6725    1.8213   -1.2004 C   0  0  0  0  0  0  0  0  0  0  0  0
    3.9201    1.8191   -0.3188 C   0  0  0  0  0  0  0  0  0  0  0  0
    3.7524    1.1190    1.0285 C   0  0  0  0  0  0  0  0  0  0  0  0
    3.5049   -0.3852    0.9179 C   0  0  0  0  0  0  0  0  0  0  0  0
    2.0735   -0.7273    0.5859 C   0  0  0  0  0  0  0  0  0  0  0  0
   -0.5943   -1.4208    0.0445 C   0  0  0  0  0  0  0  0  0  0  0  0
    0.1479   -0.6992   -0.8896 C   0  0  0  0  0  0  0  0  0  0  0  0
   -2.0109   -1.7845   -0.2477 C   0  0  0  0  0  0  0  0  0  0  0  0
    1.3131   -1.4570    1.5162 C   0  0  0  0  0  0  0  0  0  0  0  0
   -0.0114   -1.7998    1.2478 C   0  0  0  0  0  0  0  0  0  0  0  0
   -2.8842   -0.5470   -0.5343 C   0  0  0  0  0  0  0  0  0  0  0  0
   -3.7238    1.5372    0.3095 C   0  0  0  0  0  0  0  0  0  0  0  0
   -3.1740    2.2799   -0.9049 C   0  0  0  0  0  0  0  0  0  0  0  0
   -3.7691    2.4462    1.5335 C   0  0  0  0  0  0  0  0  0  0  0  0
  1 12  1  0
  2 15  1  0
  2 16  1  0
  3  4  1  0
  3  5  1  0
  4  9  2  0
  4 11  1  0
  5  6  1  0
  6  7  1  0
  7  8  1  0
  8  9  1  0
  9 13  1  0
 10 11  2  0
 10 12  1  0
 10 14  1  0
 12 15  1  0
 13 14  2  0
 16 17  1  0
 16 18  1  0
M  END
>  <PUBCHEM_COMPOUND_CID>  (1) 
39344

>  <PUBCHEM_CONFORMER_RMSD>  (1) 
0.6

>  <PUBCHEM_CONFORMER_DIVERSEORDER>  (1) 
5
118
28
129
148
21
47
143
109
26
33
117
127
87
134
132
121
145
140
82
85
141
72
27
54
139
95
66
100
119
24
138
53
29
116
65
70
79
71
126
2
69
39
20
84
122
13
14
97
23
89
115
49
12
144
103
125
61
112
64
114
93
106
120
30
90
46
60
99
80
83
98
81
55
108
150
142
15
63
6
44
1
147
22
124
78
105
107
37
62
4
58
137
131
41
7
102
77
52
48
40
146
110
94
35
128
96
45
76
38
111
104
101
56
11
9
25
113
130
10
149
136
8
3
43
67
51
19
73
92
34
123
88
59
91
68
32
42
74
36
16
57
133
86
75
17
31
18
50
135

>  <PUBCHEM_MMFF94_PARTIAL_CHARGES>  (1) 
18
1 -0.68
10 -0.14
11 -0.15
12 0.42
13 -0.15
14 -0.15
15 0.27
16 0.27
2 -0.9
29 0.15
3 0.14
31 0.15
32 0.15
36 0.36
37 0.4
4 -0.14
8 0.14
9 -0.14

>  <PUBCHEM_EFFECTIVE_ROTOR_COUNT>  (1) 
5

>  <PUBCHEM_PHARMACOPHORE_FEATURES>  (1) 
7
1 1 acceptor
1 1 donor
1 2 cation
1 2 donor
3 16 17 18 hydrophobe
6 4 9 10 11 13 14 rings
7 3 4 5 6 7 8 9 rings

>  <PUBCHEM_HEAVY_ATOM_COUNT>  (1) 
18

>  <PUBCHEM_ATOM_DEF_STEREO_COUNT>  (1) 
0

>  <PUBCHEM_ATOM_UDEF_STEREO_COUNT>  (1) 
1

>  <PUBCHEM_BOND_DEF_STEREO_COUNT>  (1) 
0

>  <PUBCHEM_BOND_UDEF_STEREO_COUNT>  (1) 
0

>  <PUBCHEM_ISOTOPIC_ATOM_COUNT>  (1) 
0

>  <PUBCHEM_COMPONENT_COUNT>  (1) 
1

>  <PUBCHEM_CACTVS_TAUTO_COUNT>  (1) 
1

>  <PUBCHEM_CONFORMER_ID>  (1) 
000099B000000005

>  <PUBCHEM_MMFF94_ENERGY>  (1) 
31.0384

>  <PUBCHEM_FEATURE_SELFOVERLAP>  (1) 
35.528

>  <PUBCHEM_SHAPE_FINGERPRINT>  (1) 
10382601 240 17603860075428825072
10465860 228 18261110742849129682
10498660 4 17988362560101088625
10646746 165 18272651289982589544
11640471 11 18408601444322355187
12173636 292 18272363226209841351
12390115 104 16737507804254077036
12491281 212 18261674895324854610
12633257 1 15574723473501670913
12644460 14 15357987793411501190
12788726 201 18196360636334386903
12824470 246 9583516512471931907
13965767 371 18120096078679530125
14251764 38 17984980646865208528
14957384 54 18116699738705790745
15209294 21 18262224591167365096
15534591 1 18337115652149984851
17357990 137 18337674092461539963
1741750 31 18343867697411194219
18186145 218 18340495451945827933
20510252 161 16813215827881498314
20739085 24 17240482477639163172
21427221 339 18262227820761089360
21452121 199 8141502588817142187
21503847 285 18187928331336195072
21524375 3 18410294671081594419
21665062 11 18042409015008344184
21713013 43 13541591247125936477
21756936 100 17752231584590337428
21864079 5 18187937243119404524
23419403 2 16048131145767280334
23557571 272 17845935246320933826
23559900 14 17846216597577549494
2838139 119 17274240864846679152
38570 142 17752802183912369572
474 4 17968092066345888168
568465 68 14634860955431827954
7615 1 18262225720321939686
7832392 63 18408319969467132526

>  <PUBCHEM_SHAPE_MULTIPOLES>  (1) 
359.58
7.61
2.84
1.57
1.38
0.36
-0.05
5.99
-1.33
1.82
0.04
-0.12
0.06
-1.6

>  <PUBCHEM_SHAPE_SELFOVERLAP>  (1) 
733.714

>  <PUBCHEM_SHAPE_VOLUME>  (1) 
207.6

>  <PUBCHEM_COORDINATE_TYPE>  (1) 
2
5
10

$$$$
