39346
     RDKit          3D

 21 23  0  0  1  0  0  0  0  0999 V2000
    0.4374   -3.7669   -0.0519 O   0  0  0  0  0  0  0  0  0  0  0  0
    2.0170   -0.5024   -0.9009 N   0  0  0  0  0  0  0  0  0  0  0  0
    3.3032    0.0701   -0.5842 C   0  0  0  0  0  0  0  0  0  0  0  0
    3.4382    1.4689   -1.1916 C   0  0  0  0  0  0  0  0  0  0  0  0
    3.5198    0.0974    0.9307 C   0  0  0  0  0  0  0  0  0  0  0  0
    4.7709    2.1154   -0.8232 C   0  0  0  0  0  0  0  0  0  0  0  0
    4.8518    0.7471    1.2970 C   0  0  0  0  0  0  0  0  0  0  0  0
    4.9858    2.1397    0.6874 C   0  0  0  0  0  0  0  0  0  0  0  0
    1.8852   -1.8357   -0.3182 C   0  0  0  0  0  0  0  0  0  0  0  0
    0.5063   -2.4538   -0.6237 C   0  0  0  0  0  0  0  0  0  0  0  0
   -2.6645   -0.3675   -0.4589 C   0  0  0  0  0  0  0  0  0  0  0  0
   -3.7134    0.1245   -1.4255 C   0  0  0  0  0  0  0  0  0  0  0  0
   -2.7270   -0.0726    0.9157 C   0  0  0  0  0  0  0  0  0  0  0  0
   -0.6141   -1.6290   -0.0860 C   0  0  0  0  0  0  0  0  0  0  0  0
   -3.7581    1.6479   -1.5384 C   0  0  0  0  0  0  0  0  0  0  0  0
   -3.8465    0.7524    1.5012 C   0  0  0  0  0  0  0  0  0  0  0  0
   -4.5164    2.3306   -0.4016 C   0  0  0  0  0  0  0  0  0  0  0  0
   -3.8724    2.1874    0.9762 C   0  0  0  0  0  0  0  0  0  0  0  0
   -1.6018   -1.1487   -0.9448 C   0  0  0  0  0  0  0  0  0  0  0  0
   -1.7254   -0.5667    1.7692 C   0  0  0  0  0  0  0  0  0  0  0  0
   -0.6758   -1.3379    1.2715 C   0  0  0  0  0  0  0  0  0  0  0  0
  1 10  1  0
  2  3  1  0
  2  9  1  0
  3  4  1  0
  3  5  1  0
  4  6  1  0
  5  7  1  0
  6  8  1  0
  7  8  1  0
  9 10  1  0
 10 14  1  0
 11 12  1  0
 11 13  2  0
 11 19  1  0
 12 15  1  0
 13 16  1  0
 13 20  1  0
 14 19  2  0
 14 21  1  0
 15 17  1  0
 16 18  1  0
 17 18  1  0
 20 21  2  0
M  END
>  <PUBCHEM_COMPOUND_CID>  (1) 
39346

>  <PUBCHEM_CONFORMER_RMSD>  (1) 
0.8

>  <PUBCHEM_CONFORMER_DIVERSEORDER>  (1) 
8
23
85
60
82
88
75
16
11
69
72
73
27
68
41
38
32
50
78
71
39
66
40
57
29
24
83
65
46
52
35
76
43
77
36
3
28
14
79
5
58
45
54
4
47
31
59
21
56
19
6
53
55
81
67
13
26
86
87
70
74
33
12
20
42
51
2
10
64
61
49
62
44
48
22
84
30
1
63
15
37
17
7
34
9
80
25
18

>  <PUBCHEM_MMFF94_PARTIAL_CHARGES>  (1) 
18
1 -0.68
10 0.42
11 -0.14
12 0.14
13 -0.14
14 -0.14
16 0.14
19 -0.15
2 -0.9
20 -0.15
21 -0.15
3 0.27
33 0.36
47 0.15
48 0.15
49 0.15
50 0.4
9 0.27

>  <PUBCHEM_EFFECTIVE_ROTOR_COUNT>  (1) 
6.2

>  <PUBCHEM_PHARMACOPHORE_FEATURES>  (1) 
7
1 1 acceptor
1 1 donor
1 2 cation
1 2 donor
6 11 13 14 19 20 21 rings
6 3 4 5 6 7 8 rings
7 11 12 13 15 16 17 18 rings

>  <PUBCHEM_HEAVY_ATOM_COUNT>  (1) 
21

>  <PUBCHEM_ATOM_DEF_STEREO_COUNT>  (1) 
0

>  <PUBCHEM_ATOM_UDEF_STEREO_COUNT>  (1) 
1

>  <PUBCHEM_BOND_DEF_STEREO_COUNT>  (1) 
0

>  <PUBCHEM_BOND_UDEF_STEREO_COUNT>  (1) 
0

>  <PUBCHEM_ISOTOPIC_ATOM_COUNT>  (1) 
0

>  <PUBCHEM_COMPONENT_COUNT>  (1) 
1

>  <PUBCHEM_CACTVS_TAUTO_COUNT>  (1) 
1

>  <PUBCHEM_CONFORMER_ID>  (1) 
000099B200000008

>  <PUBCHEM_MMFF94_ENERGY>  (1) 
33.9061

>  <PUBCHEM_FEATURE_SELFOVERLAP>  (1) 
35.529

>  <PUBCHEM_SHAPE_FINGERPRINT>  (1) 
10498660 4 17917715716511199880
10928967 22 8574715693552769312
10968037 57 8286200543967941393
11370993 144 16298651846635605016
11552529 35 16518225572906841258
11640471 11 18273210872254603967
12363563 72 9007061249136699550
12403259 415 18338529581137768646
12633257 1 16443351991639424388
12788726 201 17975682106835421274
12892183 10 16950284039591729026
13103583 49 11603098306387324621
13134695 92 17687467862469921615
13544653 18 9871745788938104810
13583140 156 16733255863222425252
13590594 115 17547295501837447022
14251764 30 11026071310249818624
14251764 38 18190738635385570876
14468879 13 18335426759360777195
14848178 96 18342458119162172620
14932701 244 17558531759027388469
14950920 106 16371001975138816112
14957384 54 18263075664928566848
15163728 17 18412269427986974702
15342168 16 18340779147911071961
15475509 35 11389520458311666493
15475509 8 13254797890085519953
15537594 2 9799415571983179188
17780758 139 13046208486185400196
1813 80 7853571335578494562
193927 3 10737289043189197288
19784866 34 18271806791837508123
20291156 8 8502655904680265334
21304303 282 17843371177006033614
21401589 2 18333734636814873193
21475661 188 17896880946117275981
21591331 117 10087363399257886429
21713013 43 12535631574255831464
22620623 9 13326579501845665995
22950370 63 8790605952711579218
235170 7 15123510311158384940
23559900 14 16952552186278367711
27216 239 18187653560534505523
2838139 119 18272082756165806792
312425 83 15697458619347330816
341906 21 18200304559004796936
4028521 119 17561091336313451816
4259306 186 10879992462714443052
44062 13 10303824154955451737
469060 322 18194412301861401755
474 4 18337110068681755735
5486654 36 9439404666001964967
57724786 102 18260274044876529580
6034566 193 18337120075824044116
6328613 192 18337957891991627412
633830 44 18059588935621142991
7808743 9 18194413414342255740
7970288 3 8574437530016903784
9981440 41 18408318904099277595

>  <PUBCHEM_SHAPE_MULTIPOLES>  (1) 
421.32
10.98
3.11
1.64
6.91
1.2
-0.24
-10.94
-0.43
0.3
0.4
-0.75
-0.33
0.13

>  <PUBCHEM_SHAPE_SELFOVERLAP>  (1) 
872.193

>  <PUBCHEM_SHAPE_VOLUME>  (1) 
237.6

>  <PUBCHEM_COORDINATE_TYPE>  (1) 
2
5
10

$$$$
