39342
     RDKit          3D

 16 17  0  0  1  0  0  0  0  0999 V2000
   -2.9067   -0.7586   -1.5925 O   0  0  0  0  0  0  0  0  0  0  0  0
   -4.5449    0.5748    0.3671 N   0  0  0  0  0  0  0  0  0  0  0  0
    2.7591    2.0829   -0.1053 C   0  0  0  0  0  0  0  0  0  0  0  0
    1.9499    1.3183   -1.1523 C   0  0  0  0  0  0  0  0  0  0  0  0
    4.0648    1.3958    0.2905 C   0  0  0  0  0  0  0  0  0  0  0  0
    3.8940    0.0608    1.0131 C   0  0  0  0  0  0  0  0  0  0  0  0
    1.1492    0.1809   -0.5676 C   0  0  0  0  0  0  0  0  0  0  0  0
    3.2705   -1.0352    0.1493 C   0  0  0  0  0  0  0  0  0  0  0  0
    1.7696   -0.9244    0.0438 C   0  0  0  0  0  0  0  0  0  0  0  0
   -0.2536    0.2239   -0.6446 C   0  0  0  0  0  0  0  0  0  0  0  0
   -1.0322   -0.8082   -0.1226 C   0  0  0  0  0  0  0  0  0  0  0  0
    0.9711   -1.9584    0.5627 C   0  0  0  0  0  0  0  0  0  0  0  0
   -2.5194   -0.7402   -0.2121 C   0  0  0  0  0  0  0  0  0  0  0  0
   -0.4196   -1.8997    0.4813 C   0  0  0  0  0  0  0  0  0  0  0  0
   -3.0875    0.5251    0.4606 C   0  0  0  0  0  0  0  0  0  0  0  0
   -5.0643    1.7621    1.0286 C   0  0  0  0  0  0  0  0  0  0  0  0
  1 13  1  0
  2 15  1  0
  2 16  1  0
  3  4  1  0
  3  5  1  0
  4  7  1  0
  5  6  1  0
  6  8  1  0
  7  9  2  0
  7 10  1  0
  8  9  1  0
  9 12  1  0
 10 11  2  0
 11 13  1  0
 11 14  1  0
 12 14  2  0
 13 15  1  0
M  END
>  <PUBCHEM_COMPOUND_CID>  (1) 
39342

>  <PUBCHEM_CONFORMER_RMSD>  (1) 
0.6

>  <PUBCHEM_CONFORMER_DIVERSEORDER>  (1) 
1
20
30
56
47
41
10
5
53
38
28
33
43
15
34
36
25
40
29
11
14
55
6
31
51
54
46
18
13
42
7
23
39
45
49
12
32
44
9
26
4
22
27
2
19
17
21
52
37
35
48
16
3
24
50
8

>  <PUBCHEM_MMFF94_PARTIAL_CHARGES>  (1) 
18
1 -0.68
10 -0.15
11 -0.14
12 -0.15
13 0.42
14 -0.15
15 0.27
16 0.27
2 -0.9
27 0.15
28 0.15
30 0.15
33 0.36
34 0.4
4 0.14
7 -0.14
8 0.14
9 -0.14

>  <PUBCHEM_EFFECTIVE_ROTOR_COUNT>  (1) 
4

>  <PUBCHEM_PHARMACOPHORE_FEATURES>  (1) 
6
1 1 acceptor
1 1 donor
1 2 cation
1 2 donor
6 7 9 10 11 12 14 rings
7 3 4 5 6 7 8 9 rings

>  <PUBCHEM_HEAVY_ATOM_COUNT>  (1) 
16

>  <PUBCHEM_ATOM_DEF_STEREO_COUNT>  (1) 
0

>  <PUBCHEM_ATOM_UDEF_STEREO_COUNT>  (1) 
1

>  <PUBCHEM_BOND_DEF_STEREO_COUNT>  (1) 
0

>  <PUBCHEM_BOND_UDEF_STEREO_COUNT>  (1) 
0

>  <PUBCHEM_ISOTOPIC_ATOM_COUNT>  (1) 
0

>  <PUBCHEM_COMPONENT_COUNT>  (1) 
1

>  <PUBCHEM_CACTVS_TAUTO_COUNT>  (1) 
1

>  <PUBCHEM_CONFORMER_ID>  (1) 
000099AE00000001

>  <PUBCHEM_MMFF94_ENERGY>  (1) 
31.9993

>  <PUBCHEM_FEATURE_SELFOVERLAP>  (1) 
30.456

>  <PUBCHEM_SHAPE_FINGERPRINT>  (1) 
10465860 228 18410860927647968394
11046707 91 11025789908028451953
12236239 1 18271800212527885471
12251169 10 18040715883054961138
12390115 104 17611198435219242492
12644460 14 16515980258267010308
12670546 177 12751227121228627145
13140716 1 18114744940275772802
13675066 3 18409454661208888363
13922767 16 18335136488306894056
15209294 21 18413106169131229065
15342168 16 18188501275525864965
15342816 4 8502377749776623872
15653759 3 16081082680053337991
15775835 57 18343585152855836025
16945 1 18186794769081492078
18186145 218 18335136496891742606
193927 3 11097858458586487673
19784866 9 18410013204420421361
20157964 124 18265048043139781965
20739085 24 17968106291436341668
21041028 32 17758109307047860250
21501502 16 17971751327301480574
21503847 285 18339367370401164864
21524375 3 18336261353037272487
21637258 2 13840253793822705472
22854114 111 18335144176403965865
23184049 59 18113615698757493756
23402539 116 17846773031542843140
23503958 8 12685080476169234677
23557571 272 16845288392942647371
23559900 14 16917074317630661726
2748010 2 17970072338612554646
2838139 119 16413205676936158680
3472631 163 17775286071313539433
4340502 62 18113912537655084235
465052 167 11098152054245803065
474 4 18408603686189950897
5104073 3 18115016545865874832
58807428 26 18113888390821743650
633830 44 18412546526434371430
7364860 26 18341898429099589118
76465 3 9583254816073164568
94968 8 9583516508140151688

>  <PUBCHEM_SHAPE_MULTIPOLES>  (1) 
318.42
8.59
2.07
1.06
7.3
0.11
0.16
4.96
-2.62
-0.53
-0.28
0.3
0.11
-1.01

>  <PUBCHEM_SHAPE_SELFOVERLAP>  (1) 
653.98

>  <PUBCHEM_SHAPE_VOLUME>  (1) 
182.4

>  <PUBCHEM_COORDINATE_TYPE>  (1) 
2
5
10

$$$$
