39352
     RDKit          3D

 14 15  0  0  1  0  0  0  0  0999 V2000
    3.8341   -0.5581   -1.0367 N   0  0  0  0  0  0  0  0  0  0  0  0
   -2.4774   -1.7732    0.3292 C   0  0  0  0  0  0  0  0  0  0  0  0
   -3.6508   -0.7951    0.3098 C   0  0  0  0  0  0  0  0  0  0  0  0
   -1.4378   -1.5144   -0.7607 C   0  0  0  0  0  0  0  0  0  0  0  0
   -3.2849    0.6523    0.6332 C   0  0  0  0  0  0  0  0  0  0  0  0
   -0.4842   -0.3970   -0.4164 C   0  0  0  0  0  0  0  0  0  0  0  0
   -2.3773    1.3085   -0.4068 C   0  0  0  0  0  0  0  0  0  0  0  0
   -0.9256    0.9289   -0.2502 C   0  0  0  0  0  0  0  0  0  0  0  0
    0.8827   -0.6884   -0.2671 C   0  0  0  0  0  0  0  0  0  0  0  0
    1.7996    0.3146    0.0450 C   0  0  0  0  0  0  0  0  0  0  0  0
    0.0114    1.9294    0.0613 C   0  0  0  0  0  0  0  0  0  0  0  0
    3.2450   -0.0178    0.2023 C   0  0  0  0  0  0  0  0  0  0  0  0
    1.3638    1.6239    0.2092 C   0  0  0  0  0  0  0  0  0  0  0  0
    3.5014   -1.0138    1.3480 C   0  0  0  0  0  0  0  0  0  0  0  0
  1 12  1  0
  2  3  1  0
  2  4  1  0
  3  5  1  0
  4  6  1  0
  5  7  1  0
  6  8  2  0
  6  9  1  0
  7  8  1  0
  8 11  1  0
  9 10  2  0
 10 12  1  0
 10 13  1  0
 11 13  2  0
 12 14  1  0
M  END
>  <PUBCHEM_COMPOUND_CID>  (1) 
39352

>  <PUBCHEM_CONFORMER_RMSD>  (1) 
0.6

>  <PUBCHEM_CONFORMER_DIVERSEORDER>  (1) 
1
5
8
4
6
7
3
2

>  <PUBCHEM_MMFF94_PARTIAL_CHARGES>  (1) 
15
1 -0.99
10 -0.14
11 -0.15
12 0.41
13 -0.15
25 0.15
26 0.15
28 0.15
32 0.36
33 0.36
4 0.14
6 -0.14
7 0.14
8 -0.14
9 -0.15

>  <PUBCHEM_EFFECTIVE_ROTOR_COUNT>  (1) 
2

>  <PUBCHEM_PHARMACOPHORE_FEATURES>  (1) 
4
1 1 cation
1 1 donor
6 6 8 9 10 11 13 rings
7 2 3 4 5 6 7 8 rings

>  <PUBCHEM_HEAVY_ATOM_COUNT>  (1) 
14

>  <PUBCHEM_ATOM_DEF_STEREO_COUNT>  (1) 
0

>  <PUBCHEM_ATOM_UDEF_STEREO_COUNT>  (1) 
1

>  <PUBCHEM_BOND_DEF_STEREO_COUNT>  (1) 
0

>  <PUBCHEM_BOND_UDEF_STEREO_COUNT>  (1) 
0

>  <PUBCHEM_ISOTOPIC_ATOM_COUNT>  (1) 
0

>  <PUBCHEM_COMPONENT_COUNT>  (1) 
1

>  <PUBCHEM_CACTVS_TAUTO_COUNT>  (1) 
1

>  <PUBCHEM_CONFORMER_ID>  (1) 
000099B800000001

>  <PUBCHEM_MMFF94_ENERGY>  (1) 
27.0225

>  <PUBCHEM_FEATURE_SELFOVERLAP>  (1) 
20.305

>  <PUBCHEM_SHAPE_FINGERPRINT>  (1) 
10130415 120 18410009957182363664
11132069 177 18342453733699590811
11543360 7 16008756843722246446
11769659 78 17968088716281959914
12032990 46 18341900679477407126
12251169 10 18341615940547162547
12382932 28 18343300336172867227
124424 183 18334286557313136695
12932764 1 18040991843388713204
13140716 1 18340762723492168600
13221675 6 18409730672670719806
13296908 3 18342454855071131390
13581323 91 18408040706097756015
13760787 19 17822014155530504784
14144814 61 18410289215971910250
15375462 189 18113898243112541786
16945 1 18339919320711453356
17804303 29 18413394241219774389
19026448 5 16950567632003309652
19422 9 17894631422546164378
200 152 14851599986123606464
20281407 28 18186237346391901337
20281475 54 18187363246488920810
20871998 184 18272366455882329398
21501502 16 18267868461440701837
21501925 9 18339913926258721472
22445834 79 18334289881470338843
232386 152 18410016567121201647
2334 1 18196083563287054948
23402539 116 18201711865400722207
23463225 33 18408885152555543420
23552423 10 18117274976381161604
23559900 14 18270963437061030262
2748010 2 18340755052743998252
5902787 121 18408881871385061322
7364860 26 18127132102767689900
8809292 202 18261961842089991371
90316 7 18261947440875029504

>  <PUBCHEM_SHAPE_MULTIPOLES>  (1) 
283.13
6.34
1.88
0.93
1.98
0.26
0.07
-1.9
1.05
-0.7
0.04
0.43
-0.21
-0.13

>  <PUBCHEM_SHAPE_SELFOVERLAP>  (1) 
586.789

>  <PUBCHEM_SHAPE_VOLUME>  (1) 
159.7

>  <PUBCHEM_COORDINATE_TYPE>  (1) 
2
5
10

$$$$
