39358
     RDKit          3D

 13 13  0  0  0  0  0  0  0  0999 V2000
   -2.1540   -0.3771   -0.1747 Si  0  0  0  0  0  4  0  0  0  0  0  0
   -1.3616   -0.6307    1.2825 O   0  0  0  0  0  0  0  0  0  0  0  0
   -1.4177    0.8973   -0.9843 O   0  0  0  0  0  0  0  0  0  0  0  0
    2.7762   -1.5805   -0.9902 O   0  0  0  0  0  0  0  0  0  0  0  0
    1.2975    0.6141    0.0210 N   0  0  0  0  0  0  0  0  0  0  0  0
    0.9735    0.1540    1.3808 C   0  0  0  0  0  0  0  0  0  0  0  0
    0.6931    1.9100   -0.3299 C   0  0  0  0  0  0  0  0  0  0  0  0
    0.0035   -1.0351    1.3254 C   0  0  0  0  0  0  0  0  0  0  0  0
   -0.8353    1.9604   -0.2333 C   0  0  0  0  0  0  0  0  0  0  0  0
    2.7465    0.6714   -0.1845 C   0  0  0  0  0  0  0  0  0  0  0  0
   -2.1292   -1.9230   -1.2414 C   0  0  0  0  0  0  0  0  0  0  0  0
   -3.9575    0.0486    0.1622 C   0  0  0  0  0  0  0  0  0  0  0  0
    3.3650   -0.7093   -0.0337 C   0  0  0  0  0  0  0  0  0  0  0  0
  1  2  1  0
  1  3  1  0
  1 11  1  0
  1 12  1  0
  2  8  1  0
  3  9  1  0
  4 13  1  0
  5  6  1  0
  5  7  1  0
  5 10  1  0
  6  8  1  0
  7  9  1  0
 10 13  1  0
M  END
>  <PUBCHEM_COMPOUND_CID>  (1) 
39358

>  <PUBCHEM_CONFORMER_RMSD>  (1) 
0.6

>  <PUBCHEM_CONFORMER_DIVERSEORDER>  (1) 
6
13
16
26
14
9
21
17
23
25
15
19
4
3
7
11
24
2
22
18
20
1
12
8
5
10

>  <PUBCHEM_MMFF94_PARTIAL_CHARGES>  (1) 
14
1 0.76
10 0.27
11 -0.08
12 -0.08
13 0.28
2 -0.58
3 -0.58
32 0.4
4 -0.68
5 -0.81
6 0.27
7 0.27
8 0.28
9 0.28

>  <PUBCHEM_EFFECTIVE_ROTOR_COUNT>  (1) 
3.6

>  <PUBCHEM_PHARMACOPHORE_FEATURES>  (1) 
3
1 4 acceptor
1 4 donor
1 5 cation

>  <PUBCHEM_HEAVY_ATOM_COUNT>  (1) 
13

>  <PUBCHEM_ATOM_DEF_STEREO_COUNT>  (1) 
0

>  <PUBCHEM_ATOM_UDEF_STEREO_COUNT>  (1) 
0

>  <PUBCHEM_BOND_DEF_STEREO_COUNT>  (1) 
0

>  <PUBCHEM_BOND_UDEF_STEREO_COUNT>  (1) 
0

>  <PUBCHEM_ISOTOPIC_ATOM_COUNT>  (1) 
0

>  <PUBCHEM_COMPONENT_COUNT>  (1) 
1

>  <PUBCHEM_CACTVS_TAUTO_COUNT>  (1) 
1

>  <PUBCHEM_CONFORMER_ID>  (1) 
000099BE00000006

>  <PUBCHEM_MMFF94_ENERGY>  (1) 
27.1052

>  <PUBCHEM_FEATURE_SELFOVERLAP>  (1) 
15.223

>  <PUBCHEM_SHAPE_FINGERPRINT>  (1) 
10353120 184 18040151816436410081
11206711 2 17749378248483472485
11769659 78 17702938266081888479
13221675 6 18259980479276509297
13839132 238 10953731145569508922
14115302 16 17560806571270622335
14761567 1 17313650637901821131
14993402 34 18339347635633068791
15775835 57 18202004364756920734
16945 1 17313929931193387657
18511873 20 18413394254510955681
20201158 50 18334580157029990146
20645476 183 15792019999385184098
20645477 70 17616228709416412767
21524375 3 9583526412292934612
22802520 49 18334303092731491698
23402539 116 18188197784752139682
23419403 2 13452693970503212297
2748010 2 17389104748096623369
353137 74 17822005380870277056
449060 23 18409721872340713829
53812653 217 18263064544973316341

>  <PUBCHEM_SHAPE_MULTIPOLES>  (1) 
263.16
5.27
1.92
1.27
0.44
0.28
0.24
-1.46
-0.83
0.08
-0.59
-0.14
-0.41
-0.02

>  <PUBCHEM_SHAPE_SELFOVERLAP>  (1) 
488.051

>  <PUBCHEM_SHAPE_VOLUME>  (1) 
165.6

>  <PUBCHEM_COORDINATE_TYPE>  (1) 
2
5
10

$$$$
