39357
     RDKit          3D

 11 10  0  0  0  0  0  0  0  0999 V2000
   -3.6882    0.0576   -1.1599 O   0  0  0  0  0  0  0  0  0  0  0  0
   -2.3507   -0.0288    0.7422 N   0  0  0  0  0  0  0  0  0  0  0  0
   -3.5986    1.8501    0.2716 N   0  0  0  0  0  0  0  0  0  0  0  0
    1.9152   -0.6067   -0.3413 C   0  0  0  0  0  0  0  0  0  0  0  0
    0.5889   -0.5646    0.4241 C   0  0  0  0  0  0  0  0  0  0  0  0
    3.0150    0.2454    0.2962 C   0  0  0  0  0  0  0  0  0  0  0  0
   -0.5303   -1.3613   -0.2546 C   0  0  0  0  0  0  0  0  0  0  0  0
    4.3164    0.1556   -0.5020 C   0  0  0  0  0  0  0  0  0  0  0  0
   -1.8238   -1.3528    0.5556 C   0  0  0  0  0  0  0  0  0  0  0  0
    5.4031    1.0300    0.1036 C   0  0  0  0  0  0  0  0  0  0  0  0
   -3.2469    0.5756   -0.1356 C   0  0  0  0  0  0  0  0  0  0  0  0
  1 11  2  0
  2  9  1  0
  2 11  1  0
  3 11  1  0
  4  5  1  0
  4  6  1  0
  5  7  1  0
  6  8  1  0
  7  9  1  0
  8 10  1  0
M  END
>  <PUBCHEM_COMPOUND_CID>  (1) 
39357

>  <PUBCHEM_CONFORMER_RMSD>  (1) 
0.6

>  <PUBCHEM_CONFORMER_DIVERSEORDER>  (1) 
1
250
11
246
9
67
231
27
130
220
153
229
81
209
240
140
6
245
179
243
4
74
110
3
47
242
107
106
233
178
247
59
62
96
225
52
56
103
117
213
127
212
46
19
227
94
215
182
230
14
80
194
22
232
18
160
37
144
131
216
95
241
21
197
44
249
184
76
137
15
71
189
113
235
82
176
42
237
206
72
155
211
190
223
87
26
86
90
162
57
150
35
49
226
228
84
186
222
104
25
105
180
214
210
70
24
224
119
7
203
83
248
169
217
30
39
12
195
38
60
161
124
244
91
34
145
29
204
236
55
239
188
111
122
66
218
120
128
109
221
191
157
108
5
101
92
152
123
163
238
102
98
65
185
40
112
121
234
63
17
114
177
136
2
166
199
75
33
13
20
32
192
181
143
118
73
146
69
61
208
28
85
129
53
147
196
158
183
45
135
54
43
168
132
77
148
134
36
100
172
116
58
88
99
79
126
170
164
167
219
8
202
23
10
133
50
48
51
156
165
139
138
93
142
201
89
151
16
141
68
159
149
207
31
173
171
78
205
97
41
154
187
193
64
198
200
175
125
174
115

>  <PUBCHEM_MMFF94_PARTIAL_CHARGES>  (1) 
8
1 -0.57
11 0.69
2 -0.73
27 0.37
28 0.37
29 0.37
3 -0.8
9 0.3

>  <PUBCHEM_EFFECTIVE_ROTOR_COUNT>  (1) 
7

>  <PUBCHEM_PHARMACOPHORE_FEATURES>  (1) 
5
1 1 acceptor
1 10 hydrophobe
1 2 donor
1 3 donor
5 4 5 6 7 8 hydrophobe

>  <PUBCHEM_HEAVY_ATOM_COUNT>  (1) 
11

>  <PUBCHEM_ATOM_DEF_STEREO_COUNT>  (1) 
0

>  <PUBCHEM_ATOM_UDEF_STEREO_COUNT>  (1) 
0

>  <PUBCHEM_BOND_DEF_STEREO_COUNT>  (1) 
0

>  <PUBCHEM_BOND_UDEF_STEREO_COUNT>  (1) 
0

>  <PUBCHEM_ISOTOPIC_ATOM_COUNT>  (1) 
0

>  <PUBCHEM_COMPONENT_COUNT>  (1) 
1

>  <PUBCHEM_CACTVS_TAUTO_COUNT>  (1) 
3

>  <PUBCHEM_CONFORMER_ID>  (1) 
000099BD00000001

>  <PUBCHEM_MMFF94_ENERGY>  (1) 
0.1693

>  <PUBCHEM_FEATURE_SELFOVERLAP>  (1) 
25.422

>  <PUBCHEM_SHAPE_FINGERPRINT>  (1) 
10014705 185 18410572933274834268
114248 4 16917347060806698014
11987891 27 13686305647510761782
12032990 46 8718830881859966890
14123255 352 18260546753619124324
14123260 362 18336555961913061532
14251710 61 9439402428271314168
14251718 22 10952051170003124802
14252887 29 13840257083978546544
14455015 7 12396565322854520624
15501527 16 18411707590303735952
177051 138 9871747984009187026
17834072 8 18341341015891619598
20281475 54 9006762207580438891
20300324 65 17917709102229817669
20645477 56 18411143553712987131
20645477 70 17203345385911157166
20671657 53 13542460986055013906
20767249 213 17895192229279250039
20828058 44 10737280247285903694
20871999 31 17060044944483018493
21061003 4 11819276684712080663
23402539 116 18060415794641397452
23402655 69 17632579305660285584
23500284 214 18334303037134228777
270888 7 18265333906977554593
53428517 29 17385723612581535062
548570 60 18408321090453655292
6430166 295 18335420171218567744

>  <PUBCHEM_SHAPE_MULTIPOLES>  (1) 
210.54
10.19
1.41
0.83
8.35
0.18
-0.08
5.28
-0.89
-1.08
0.12
-0.34
-0.04
0.14

>  <PUBCHEM_SHAPE_SELFOVERLAP>  (1) 
380.04

>  <PUBCHEM_SHAPE_VOLUME>  (1) 
135.1

>  <PUBCHEM_COORDINATE_TYPE>  (1) 
2
5
10

$$$$
