39350
     RDKit          3D

 24 26  0  0  1  0  0  0  0  0999 V2000
    4.0776   -2.4875    0.7466 O   0  0  0  0  0  0  0  0  0  0  0  0
   -2.2277    3.6561    1.5616 O   0  0  0  0  0  0  0  0  0  0  0  0
    2.9407   -0.1750   -0.4621 N   0  0  0  0  0  0  0  0  0  0  0  0
    0.8305    2.6646   -0.3215 N   0  0  0  0  0  0  0  0  0  0  0  0
   -2.2312   -1.6429    1.6507 C   0  0  0  0  0  0  0  0  0  0  0  0
   -2.3643   -0.5289    0.6420 C   0  0  0  0  0  0  0  0  0  0  0  0
   -1.3285   -2.7800    1.1733 C   0  0  0  0  0  0  0  0  0  0  0  0
   -2.0147   -3.7554    0.2186 C   0  0  0  0  0  0  0  0  0  0  0  0
   -2.4199   -3.1578   -1.1276 C   0  0  0  0  0  0  0  0  0  0  0  0
   -3.5015   -2.0826   -1.0270 C   0  0  0  0  0  0  0  0  0  0  0  0
   -2.9610   -0.7353   -0.6157 C   0  0  0  0  0  0  0  0  0  0  0  0
    2.7753    0.7563   -1.5762 C   0  0  0  0  0  0  0  0  0  0  0  0
    3.1186    2.1789   -1.1305 C   0  0  0  0  0  0  0  0  0  0  0  0
   -1.9953    1.8110    0.0730 C   0  0  0  0  0  0  0  0  0  0  0  0
    4.3356   -0.1935   -0.0002 C   0  0  0  0  0  0  0  0  0  0  0  0
    2.5197   -1.5291   -0.8472 C   0  0  0  0  0  0  0  0  0  0  0  0
   -1.4794    3.1605    0.4434 C   0  0  0  0  0  0  0  0  0  0  0  0
   -1.8872    0.7514    0.9726 C   0  0  0  0  0  0  0  0  0  0  0  0
    2.2438    2.6700    0.0249 C   0  0  0  0  0  0  0  0  0  0  0  0
    0.0201    3.1340    0.8000 C   0  0  0  0  0  0  0  0  0  0  0  0
   -3.0655    0.3437   -1.5104 C   0  0  0  0  0  0  0  0  0  0  0  0
    4.4864   -1.1811    1.1534 C   0  0  0  0  0  0  0  0  0  0  0  0
    2.7125   -2.4845    0.3270 C   0  0  0  0  0  0  0  0  0  0  0  0
   -2.5847    1.6071   -1.1690 C   0  0  0  0  0  0  0  0  0  0  0  0
  1 22  1  0
  1 23  1  0
  2 17  1  0
  3 12  1  0
  3 15  1  0
  3 16  1  0
  4 19  1  0
  4 20  1  0
  5  6  1  0
  5  7  1  0
  6 11  2  0
  6 18  1  0
  7  8  1  0
  8  9  1  0
  9 10  1  0
 10 11  1  0
 11 21  1  0
 12 13  1  0
 13 19  1  0
 14 17  1  0
 14 18  2  0
 14 24  1  0
 15 22  1  0
 16 23  1  0
 17 20  1  0
 21 24  2  0
M  END
>  <PUBCHEM_COMPOUND_CID>  (1) 
39350

>  <PUBCHEM_CONFORMER_RMSD>  (1) 
1

>  <PUBCHEM_CONFORMER_DIVERSEORDER>  (1) 
1
20
195
42
110
68
200
178
70
109
77
191
64
3
149
52
27
121
207
137
103
163
56
184
21
185
39
216
205
51
199
146
126
208
190
144
156
67
188
177
159
104
33
128
165
97
133
218
36
23
212
204
134
122
173
10
168
197
198
161
4
35
74
87
189
152
47
139
176
19
172
29
214
180
73
80
83
113
187
54
30
142
108
38
136
61
89
100
91
211
43
71
37
186
8
105
96
2
58
141
115
131
219
143
50
145
16
129
210
59
90
183
18
99
114
167
179
88
116
157
78
220
9
62
45
46
174
118
194
26
98
69
102
92
175
120
209
7
130
6
63
158
15
213
85
162
182
11
31
154
5
117
49
119
13
34
123
148
57
76
107
81
84
93
127
222
181
135
86
17
169
138
82
44
132
66
166
147
25
170
221
151
22
215
150
32
203
101
75
28
164
79
111
124
53
155
192
202
153
72
95
24
106
55
140
40
201
171
14
206
196
160
41
12
48
217
125
60
112
193
94
65

>  <PUBCHEM_MMFF94_PARTIAL_CHARGES>  (1) 
25
1 -0.56
10 0.14
11 -0.14
12 0.27
14 -0.14
15 0.27
16 0.27
17 0.42
18 -0.15
19 0.27
2 -0.68
20 0.27
21 -0.15
22 0.28
23 0.28
24 -0.15
3 -0.81
4 -0.9
44 0.15
49 0.15
5 0.14
54 0.15
55 0.36
56 0.4
6 -0.14

>  <PUBCHEM_EFFECTIVE_ROTOR_COUNT>  (1) 
9.2

>  <PUBCHEM_PHARMACOPHORE_FEATURES>  (1) 
9
1 1 acceptor
1 2 acceptor
1 2 donor
1 3 cation
1 4 cation
1 4 donor
6 1 3 15 16 22 23 rings
6 6 11 14 18 21 24 rings
7 5 6 7 8 9 10 11 rings

>  <PUBCHEM_HEAVY_ATOM_COUNT>  (1) 
24

>  <PUBCHEM_ATOM_DEF_STEREO_COUNT>  (1) 
0

>  <PUBCHEM_ATOM_UDEF_STEREO_COUNT>  (1) 
1

>  <PUBCHEM_BOND_DEF_STEREO_COUNT>  (1) 
0

>  <PUBCHEM_BOND_UDEF_STEREO_COUNT>  (1) 
0

>  <PUBCHEM_ISOTOPIC_ATOM_COUNT>  (1) 
0

>  <PUBCHEM_COMPONENT_COUNT>  (1) 
1

>  <PUBCHEM_CACTVS_TAUTO_COUNT>  (1) 
1

>  <PUBCHEM_CONFORMER_ID>  (1) 
000099B600000001

>  <PUBCHEM_MMFF94_ENERGY>  (1) 
41.0538

>  <PUBCHEM_FEATURE_SELFOVERLAP>  (1) 
45.679

>  <PUBCHEM_SHAPE_FINGERPRINT>  (1) 
10764073 3 17753644289876627433
114674 6 17259621967968535533
12156800 1 16163205143434027246
12553582 1 18269007516589506110
12596599 1 17557453120655951118
12633257 1 18340217352834549855
12788726 201 18272665527773165713
13122387 1 17832425289479376078
13402501 40 17544477912780121950
14081887 123 18341880867199433386
19026451 147 18196641020093862414
19930381 70 17761489596644314355
20764821 26 18265330797141014666
20775530 9 18262520423924314710
22113638 7 18191583043324990756
22749437 52 18259704493210337942
23559900 14 18191855928198622724
23728640 28 18125726690541617009
3729539 64 18335969935875825775
392239 28 18197780123294389792
445580 102 18264495168504403610
463206 1 18122625225758220402
5309563 4 17835809964210935927
9795274 37 18190739928360156914

>  <PUBCHEM_SHAPE_MULTIPOLES>  (1) 
472.21
7.88
5.28
1.52
6.9
0.92
-0.02
-4.13
-0.95
-1.32
1.3
-0.52
0.03
-1.26

>  <PUBCHEM_SHAPE_SELFOVERLAP>  (1) 
966.966

>  <PUBCHEM_SHAPE_VOLUME>  (1) 
269.9

>  <PUBCHEM_COORDINATE_TYPE>  (1) 
2
5
10

$$$$
