39355
     RDKit          3D

 13 13  0  0  0  0  0  0  0  0999 V2000
    3.3983   -0.4206   -0.3176 O   0  0  0  0  0  0  0  0  0  0  0  0
   -2.9328   -0.2575   -0.0823 N   0  0  0  0  0  0  0  0  0  0  0  0
   -0.6021    0.3320    0.4345 C   0  0  0  0  0  0  0  0  0  0  0  0
   -2.0570    0.6058    0.7092 C   0  0  0  0  0  0  0  0  0  0  0  0
   -0.1534   -0.9798    0.3744 C   0  0  0  0  0  0  0  0  0  0  0  0
    0.2696    1.3954    0.2466 C   0  0  0  0  0  0  0  0  0  0  0  0
    1.1947   -1.2335    0.1213 C   0  0  0  0  0  0  0  0  0  0  0  0
    1.6177    1.1419   -0.0066 C   0  0  0  0  0  0  0  0  0  0  0  0
    2.0803   -0.1726   -0.0693 C   0  0  0  0  0  0  0  0  0  0  0  0
   -2.7021   -0.0474   -1.5111 C   0  0  0  0  0  0  0  0  0  0  0  0
   -4.3345   -0.0074    0.2513 C   0  0  0  0  0  0  0  0  0  0  0  0
    1.6710   -2.6472    0.0579 C   0  0  0  0  0  0  0  0  0  0  0  0
    2.5502    2.2909   -0.2083 C   0  0  0  0  0  0  0  0  0  0  0  0
  1  9  1  0
  2  4  1  0
  2 10  1  0
  2 11  1  0
  3  4  1  0
  3  5  2  0
  3  6  1  0
  5  7  1  0
  6  8  2  0
  7  9  2  0
  7 12  1  0
  8  9  1  0
  8 13  1  0
M  END
>  <PUBCHEM_COMPOUND_CID>  (1) 
39355

>  <PUBCHEM_CONFORMER_RMSD>  (1) 
0.6

>  <PUBCHEM_CONFORMER_DIVERSEORDER>  (1) 
1
2

>  <PUBCHEM_MMFF94_PARTIAL_CHARGES>  (1) 
16
1 -0.53
10 0.27
11 0.27
12 0.14
13 0.14
16 0.15
17 0.15
2 -0.81
3 -0.14
30 0.45
4 0.41
5 -0.15
6 -0.15
7 -0.14
8 -0.14
9 0.08

>  <PUBCHEM_EFFECTIVE_ROTOR_COUNT>  (1) 
2

>  <PUBCHEM_PHARMACOPHORE_FEATURES>  (1) 
3
1 1 donor
1 2 cation
6 3 5 6 7 8 9 rings

>  <PUBCHEM_HEAVY_ATOM_COUNT>  (1) 
13

>  <PUBCHEM_ATOM_DEF_STEREO_COUNT>  (1) 
0

>  <PUBCHEM_ATOM_UDEF_STEREO_COUNT>  (1) 
0

>  <PUBCHEM_BOND_DEF_STEREO_COUNT>  (1) 
0

>  <PUBCHEM_BOND_UDEF_STEREO_COUNT>  (1) 
0

>  <PUBCHEM_ISOTOPIC_ATOM_COUNT>  (1) 
0

>  <PUBCHEM_COMPONENT_COUNT>  (1) 
1

>  <PUBCHEM_CACTVS_TAUTO_COUNT>  (1) 
2

>  <PUBCHEM_CONFORMER_ID>  (1) 
000099BB00000001

>  <PUBCHEM_MMFF94_ENERGY>  (1) 
38.317

>  <PUBCHEM_FEATURE_SELFOVERLAP>  (1) 
15.223

>  <PUBCHEM_SHAPE_FINGERPRINT>  (1) 
1 1 18336546109453139990
11206711 2 18263089820734664124
11471102 20 18410009944582454181
12423570 1 17323819119294243344
12932764 1 17632852045153603177
13380535 76 18268711800102797576
13380536 305 18410016576143756540
14251717 144 18412262847901904714
14325111 11 18337956804420402513
14911166 2 18337685165192918062
15219456 202 18188217618721280371
15279307 12 18201999975548420055
15442244 35 18052544261912136273
15477762 27 18411419479634266147
15757776 16 18411415081529687366
15775835 57 18271247239224472885
16945 1 18409451362557882594
17844478 74 17894917321708578397
18186145 218 18409728499396247197
19422 9 18060703922580290039
20201158 50 18334298643177229355
20645477 70 18412543198230446615
20820808 20 18339923834748500864
20871998 22 17982736272827944110
21499 59 18265612271933199756
21524375 3 17899692646383703624
21639500 275 18337663213050864501
22802520 49 17969769792452274789
228727 97 17774453775159795233
2334 1 18050010188225908258
23402539 116 18270118981834232926
23402655 69 18412542102966339333
23419403 2 14857450418870498066
23552423 10 18412829053572489777
23557571 272 17022903445954743703
23598291 2 17841728308896250411
25 1 18335421300299224388
257057 1 17759231904304135314
2748010 2 18120670268709538562
3071541 37 18334303084463355764
528886 8 18411135878632640656
7364860 26 18342739598449460602
77492 1 17846781802034723737
7832392 63 18053108319634959921
81228 2 17258204177826226082

>  <PUBCHEM_SHAPE_MULTIPOLES>  (1) 
256.68
5.67
2.1
0.87
4.91
0.48
-0.23
-0.39
-0.64
-2.34
0.03
0.58
-0.03
-0.18

>  <PUBCHEM_SHAPE_SELFOVERLAP>  (1) 
523.904

>  <PUBCHEM_SHAPE_VOLUME>  (1) 
152.6

>  <PUBCHEM_COORDINATE_TYPE>  (1) 
2
5
10

$$$$
