39359
     RDKit          3D

  9  8  0  0  1  0  0  0  0  0999 V2000
    0.9507    0.2071    0.2514 N   0  0  0  0  0  0  0  0  0  0  0  0
   -1.2348   -0.9346    0.5226 C   0  0  0  0  0  0  0  0  0  0  0  0
    0.1408   -0.9354   -0.1701 C   0  0  0  0  0  0  0  0  0  0  0  0
   -2.1393    0.2804    0.2267 C   0  0  0  0  0  0  0  0  0  0  0  0
    0.8984   -2.2221    0.1602 C   0  0  0  0  0  0  0  0  0  0  0  0
   -2.3640    0.3991   -1.2838 C   0  0  0  0  0  0  0  0  0  0  0  0
   -1.5575    1.5879    0.7650 C   0  0  0  0  0  0  0  0  0  0  0  0
    2.2265    0.2195   -0.4473 C   0  0  0  0  0  0  0  0  0  0  0  0
    3.0790    1.3981   -0.0247 C   0  0  0  0  0  0  0  0  0  0  0  0
  1  3  1  0
  1  8  1  0
  2  3  1  0
  2  4  1  0
  3  5  1  0
  4  6  1  0
  4  7  1  0
  8  9  1  0
M  END
>  <PUBCHEM_COMPOUND_CID>  (1) 
39359

>  <PUBCHEM_CONFORMER_RMSD>  (1) 
0.6

>  <PUBCHEM_CONFORMER_DIVERSEORDER>  (1) 
1
5
6
3
2
4

>  <PUBCHEM_MMFF94_PARTIAL_CHARGES>  (1) 
4
1 -0.9
14 0.36
3 0.27
8 0.27

>  <PUBCHEM_EFFECTIVE_ROTOR_COUNT>  (1) 
4

>  <PUBCHEM_PHARMACOPHORE_FEATURES>  (1) 
3
1 1 cation
1 1 donor
3 4 6 7 hydrophobe

>  <PUBCHEM_HEAVY_ATOM_COUNT>  (1) 
9

>  <PUBCHEM_ATOM_DEF_STEREO_COUNT>  (1) 
0

>  <PUBCHEM_ATOM_UDEF_STEREO_COUNT>  (1) 
1

>  <PUBCHEM_BOND_DEF_STEREO_COUNT>  (1) 
0

>  <PUBCHEM_BOND_UDEF_STEREO_COUNT>  (1) 
0

>  <PUBCHEM_ISOTOPIC_ATOM_COUNT>  (1) 
0

>  <PUBCHEM_COMPONENT_COUNT>  (1) 
1

>  <PUBCHEM_CACTVS_TAUTO_COUNT>  (1) 
1

>  <PUBCHEM_CONFORMER_ID>  (1) 
000099BF00000001

>  <PUBCHEM_MMFF94_ENERGY>  (1) 
5.2577

>  <PUBCHEM_FEATURE_SELFOVERLAP>  (1) 
15.223

>  <PUBCHEM_SHAPE_FINGERPRINT>  (1) 
10149128 76 18187354390171359165
12897270 3 18130499799387501101
14390081 3 18413111666720905992
18342897 96 18201728318635001505
20653085 51 17773899539520716424
21028194 46 18187085074331173462
21040471 1 18337398235428562034
228727 97 17988920076672583497
23235685 24 18409449197873500209
23552423 10 18196932167473573419
23552449 1 17764594609107055202
24536 1 18265609879963275171
5084963 1 17822301213885572462

>  <PUBCHEM_SHAPE_MULTIPOLES>  (1) 
180.23
4.04
1.92
0.93
1.71
0.64
0.18
-2.15
0.61
0.63
-0.32
-0.54
-0.15
-0.09

>  <PUBCHEM_SHAPE_SELFOVERLAP>  (1) 
319.674

>  <PUBCHEM_SHAPE_VOLUME>  (1) 
118.2

>  <PUBCHEM_COORDINATE_TYPE>  (1) 
2
5
10

$$$$
