39366
     RDKit          3D

 25 28  0  0  1  0  0  0  0  0999 V2000
    0.7446    1.2753    2.1064 O   0  0  0  0  0  0  0  0  0  0  0  0
   -3.7968   -2.7913    0.1196 O   0  0  0  0  0  0  0  0  0  0  0  0
    2.2403   -0.9883    0.8979 N   0  0  0  0  0  0  0  0  0  0  0  0
   -2.9873    2.5997   -0.8002 N   0  0  0  0  0  0  0  0  0  0  0  0
    1.1290   -0.1523    0.2038 C   0  0  0  0  0  0  0  0  0  0  0  0
    3.3261    0.8505   -0.5653 C   0  0  0  0  0  0  0  0  0  0  0  0
    3.1109   -1.6396   -0.2068 C   0  0  0  0  0  0  0  0  0  0  0  0
    1.7970    0.9736   -0.6071 C   0  0  0  0  0  0  0  0  0  0  0  0
    3.7091   -0.5421   -1.1015 C   0  0  0  0  0  0  0  0  0  0  0  0
    3.1526   -0.1062    1.7622 C   0  0  0  0  0  0  0  0  0  0  0  0
    3.7574    0.9994    0.9002 C   0  0  0  0  0  0  0  0  0  0  0  0
    0.0978    0.4000    1.1866 C   0  0  0  0  0  0  0  0  0  0  0  0
    1.6544   -2.1067    1.7541 C   0  0  0  0  0  0  0  0  0  0  0  0
    5.1930   -0.7085   -1.2518 C   0  0  0  0  0  0  0  0  0  0  0  0
   -1.0107    1.1435    0.4827 C   0  0  0  0  0  0  0  0  0  0  0  0
    5.8052   -0.9462   -2.4168 C   0  0  0  0  0  0  0  0  0  0  0  0
   -2.1850    0.5058    0.0827 C   0  0  0  0  0  0  0  0  0  0  0  0
   -0.8159    2.4914    0.2499 C   0  0  0  0  0  0  0  0  0  0  0  0
   -3.1647    1.2855   -0.5670 C   0  0  0  0  0  0  0  0  0  0  0  0
   -2.4037   -0.8634    0.3102 C   0  0  0  0  0  0  0  0  0  0  0  0
   -1.8308    3.1711   -0.3928 C   0  0  0  0  0  0  0  0  0  0  0  0
   -4.3405    0.6577   -0.9695 C   0  0  0  0  0  0  0  0  0  0  0  0
   -3.5888   -1.4655   -0.1028 C   0  0  0  0  0  0  0  0  0  0  0  0
   -4.5581   -0.7037   -0.7435 C   0  0  0  0  0  0  0  0  0  0  0  0
   -5.0349   -3.3396   -0.3312 C   0  0  0  0  0  0  0  0  0  0  0  0
  1 12  1  0
  2 23  1  0
  2 25  1  0
  3  5  1  0
  3  7  1  0
  3 10  1  0
  3 13  1  0
  4 19  2  0
  4 21  1  0
  5  8  1  0
  5 12  1  0
  6  8  1  0
  6  9  1  0
  6 11  1  0
  7  9  1  0
  9 14  1  0
 10 11  1  0
 12 15  1  0
 14 16  2  0
 15 17  2  0
 15 18  1  0
 17 19  1  0
 17 20  1  0
 18 21  2  0
 19 22  1  0
 20 23  2  0
 22 24  2  0
 23 24  1  0
M  CHG  1   3   1
M  END
>  <PUBCHEM_COMPOUND_CID>  (1) 
39366

>  <PUBCHEM_CONFORMER_RMSD>  (1) 
0.8

>  <PUBCHEM_CONFORMER_DIVERSEORDER>  (1) 
1
3
4
5
2

>  <PUBCHEM_MMFF94_PARTIAL_CHARGES>  (1) 
30
1 -0.68
10 0.5
12 0.42
13 0.5
14 -0.29
15 -0.14
16 -0.3
18 -0.15
19 0.31
2 -0.36
20 -0.15
21 0.16
22 -0.15
23 0.08
24 -0.15
25 0.28
3 -1.01
4 -0.62
41 0.15
42 0.4
43 0.15
44 0.15
45 0.15
46 0.15
47 0.15
48 0.15
49 0.15
5 0.5
7 0.5
9 0.14

>  <PUBCHEM_EFFECTIVE_ROTOR_COUNT>  (1) 
5.2

>  <PUBCHEM_PHARMACOPHORE_FEATURES>  (1) 
9
1 1 acceptor
1 1 donor
1 16 hydrophobe
1 2 acceptor
1 3 cation
1 4 acceptor
6 17 19 20 22 23 24 rings
6 4 15 17 18 19 21 rings
8 3 5 6 7 8 9 10 11 rings

>  <PUBCHEM_HEAVY_ATOM_COUNT>  (1) 
25

>  <PUBCHEM_ATOM_DEF_STEREO_COUNT>  (1) 
3

>  <PUBCHEM_ATOM_UDEF_STEREO_COUNT>  (1) 
2

>  <PUBCHEM_BOND_DEF_STEREO_COUNT>  (1) 
0

>  <PUBCHEM_BOND_UDEF_STEREO_COUNT>  (1) 
0

>  <PUBCHEM_ISOTOPIC_ATOM_COUNT>  (1) 
0

>  <PUBCHEM_COMPONENT_COUNT>  (1) 
1

>  <PUBCHEM_CACTVS_TAUTO_COUNT>  (1) 
1

>  <PUBCHEM_CONFORMER_ID>  (1) 
000099C600000001

>  <PUBCHEM_MMFF94_ENERGY>  (1) 
105.5557

>  <PUBCHEM_FEATURE_SELFOVERLAP>  (1) 
45.702

>  <PUBCHEM_SHAPE_FINGERPRINT>  (1) 
10498660 4 18334569148844181227
10616163 171 18409725136811582463
10759866 29 18041558027299865458
11578080 2 17026517544264284205
11961588 58 17169000044304720206
12173636 292 17975678512227018573
12553582 1 18334855069597652115
12623949 98 17415855822919313991
12714826 92 18201998811501298449
12788726 201 18261956241626730329
13103583 49 13686301270374883790
13224815 77 18413101753809741001
13544653 18 17703789253811621913
13631057 29 18411422829840541646
13911882 115 18059286677745846136
14251764 30 17846506983988829559
14950920 106 14117507788127939103
15537594 2 18261397741317612371
16752209 62 18338790118180345467
17349148 13 17385994066482500968
17492 89 18262509312849974539
17870717 6 18341055138093155375
17909252 39 18273220777050899858
193927 3 17346331370965060614
20739085 24 13326563060916611170
21033650 10 18261118422171793696
21054139 6 18186236251861289778
21401589 2 11169906187321595719
21713013 43 18343588425610268652
22393880 68 18408040689297662724
23379529 103 18271536397713417398
23557571 272 18271792506692340640
23559900 14 18341889675882484212
2838139 119 16443356377470862964
2871803 45 18409726278919124050
3117164 225 9727358983399797220
46194498 28 18130233739639266524
463206 1 18046062928861729715
474 4 16588314847583331308
4921388 177 18200039434446595869
59755656 520 17770515144279139985
6823239 73 18272082790952339218
9709674 26 18341040809866126991

>  <PUBCHEM_SHAPE_MULTIPOLES>  (1) 
492.79
11.09
3.05
1.63
2.41
0.24
-0.14
6.29
6.11
-4.4
0.1
2.39
0.25
0.74

>  <PUBCHEM_SHAPE_SELFOVERLAP>  (1) 
1068.973

>  <PUBCHEM_SHAPE_VOLUME>  (1) 
266.7

>  <PUBCHEM_COORDINATE_TYPE>  (1) 
2
5
10

$$$$
