39362
     RDKit          3D

 30 35  0  0  0  0  0  0  0  0999 V2000
   -2.2809   -0.0062   -0.6527 O   0  0  0  0  0  0  0  0  0  0  0  0
   -3.8733   -0.2681   -2.2945 O   0  0  0  0  0  0  0  0  0  0  0  0
    2.1313    0.0123   -0.1127 C   0  0  0  0  0  0  0  0  0  0  0  0
    0.9117   -0.2630   -0.7681 C   0  0  0  0  0  0  0  0  0  0  0  0
    3.0890   -1.0322    0.0225 C   0  0  0  0  0  0  0  0  0  0  0  0
    2.3890    1.3119    0.3995 C   0  0  0  0  0  0  0  0  0  0  0  0
   -0.0407    0.7498   -0.9104 C   0  0  0  0  0  0  0  0  0  0  0  0
    1.3986    2.3434    0.2451 C   0  0  0  0  0  0  0  0  0  0  0  0
    0.1833    2.0392   -0.4171 C   0  0  0  0  0  0  0  0  0  0  0  0
    2.8213   -2.3242   -0.4921 C   0  0  0  0  0  0  0  0  0  0  0  0
    4.3181   -0.7890    0.6726 C   0  0  0  0  0  0  0  0  0  0  0  0
    0.6623   -1.5471   -1.2714 C   0  0  0  0  0  0  0  0  0  0  0  0
    3.6327    1.5082    1.0424 C   0  0  0  0  0  0  0  0  0  0  0  0
    1.6043   -2.5649   -1.1357 C   0  0  0  0  0  0  0  0  0  0  0  0
    4.5750    0.4853    1.1769 C   0  0  0  0  0  0  0  0  0  0  0  0
   -1.3385    0.4403   -1.6122 C   0  0  0  0  0  0  0  0  0  0  0  0
    1.5503    3.6723    0.7167 C   0  0  0  0  0  0  0  0  0  0  0  0
   -0.8058    3.0244   -0.5846 C   0  0  0  0  0  0  0  0  0  0  0  0
    3.7766   -3.3414   -0.3498 C   0  0  0  0  0  0  0  0  0  0  0  0
    5.2565   -1.8241    0.8016 C   0  0  0  0  0  0  0  0  0  0  0  0
    4.9863   -3.0918    0.2931 C   0  0  0  0  0  0  0  0  0  0  0  0
    0.5594    4.6424    0.5438 C   0  0  0  0  0  0  0  0  0  0  0  0
   -0.6198    4.3179   -0.1076 C   0  0  0  0  0  0  0  0  0  0  0  0
   -3.5173   -0.3303   -1.1279 C   0  0  0  0  0  0  0  0  0  0  0  0
   -4.4075   -0.7798   -0.0278 C   0  0  0  0  0  0  0  0  0  0  0  0
   -5.7649   -0.5562   -0.1343 C   0  0  0  0  0  0  0  0  0  0  0  0
   -3.8494   -1.4070    1.0673 C   0  0  0  0  0  0  0  0  0  0  0  0
   -6.6009   -0.9783    0.8995 C   0  0  0  0  0  0  0  0  0  0  0  0
   -4.6854   -1.8291    2.1010 C   0  0  0  0  0  0  0  0  0  0  0  0
   -6.0611   -1.6147    2.0170 C   0  0  0  0  0  0  0  0  0  0  0  0
  1 16  1  0
  1 24  1  0
  2 24  2  0
  3  4  1  0
  3  5  2  0
  3  6  1  0
  4  7  1  0
  4 12  2  0
  5 10  1  0
  5 11  1  0
  6  8  2  0
  6 13  1  0
  7  9  2  0
  7 16  1  0
  8  9  1  0
  8 17  1  0
  9 18  1  0
 10 14  2  0
 10 19  1  0
 11 15  1  0
 11 20  2  0
 12 14  1  0
 13 15  2  0
 17 22  2  0
 18 23  2  0
 19 21  2  0
 20 21  1  0
 22 23  1  0
 24 25  1  0
 25 26  2  0
 25 27  1  0
 26 28  1  0
 27 29  2  0
 28 30  2  0
 29 30  1  0
M  END
>  <PUBCHEM_COMPOUND_CID>  (1) 
39362

>  <PUBCHEM_CONFORMER_RMSD>  (1) 
0.8

>  <PUBCHEM_CONFORMER_DIVERSEORDER>  (1) 
1
15
7
16
10
8
20
5
21
17
11
13
6
9
18
19
3
4
12
14
2

>  <PUBCHEM_MMFF94_PARTIAL_CHARGES>  (1) 
38
1 -0.43
12 -0.15
13 -0.15
14 -0.15
15 -0.15
16 0.42
17 -0.15
18 -0.15
19 -0.15
2 -0.57
20 -0.15
21 -0.15
22 -0.15
23 -0.15
24 0.63
25 0.09
26 -0.15
27 -0.15
28 -0.15
29 -0.15
30 -0.15
31 0.15
32 0.15
33 0.15
34 0.15
37 0.15
38 0.15
39 0.15
40 0.15
41 0.15
42 0.15
43 0.15
44 0.15
45 0.15
46 0.15
47 0.15
48 0.15
7 -0.14

>  <PUBCHEM_EFFECTIVE_ROTOR_COUNT>  (1) 
4

>  <PUBCHEM_PHARMACOPHORE_FEATURES>  (1) 
7
1 2 acceptor
6 25 26 27 28 29 30 rings
6 3 4 5 10 12 14 rings
6 3 4 6 7 8 9 rings
6 3 5 6 11 13 15 rings
6 5 10 11 19 20 21 rings
6 8 9 17 18 22 23 rings

>  <PUBCHEM_HEAVY_ATOM_COUNT>  (1) 
30

>  <PUBCHEM_ATOM_DEF_STEREO_COUNT>  (1) 
0

>  <PUBCHEM_ATOM_UDEF_STEREO_COUNT>  (1) 
0

>  <PUBCHEM_BOND_DEF_STEREO_COUNT>  (1) 
0

>  <PUBCHEM_BOND_UDEF_STEREO_COUNT>  (1) 
0

>  <PUBCHEM_ISOTOPIC_ATOM_COUNT>  (1) 
0

>  <PUBCHEM_COMPONENT_COUNT>  (1) 
1

>  <PUBCHEM_CACTVS_TAUTO_COUNT>  (1) 
1

>  <PUBCHEM_CONFORMER_ID>  (1) 
000099C200000001

>  <PUBCHEM_MMFF94_ENERGY>  (1) 
116.1203

>  <PUBCHEM_FEATURE_SELFOVERLAP>  (1) 
35.676

>  <PUBCHEM_SHAPE_FINGERPRINT>  (1) 
10076449 9 18341060636369420358
10190108 129 18341343287629275568
10688039 33 18335137557674922028
1100329 8 17836629088111765088
11135609 12 18333731282276778457
11399510 152 17977967979567801593
117089 54 17905888072738491890
11796584 16 17385991845936831723
11828532 37 17387421349236239211
12342043 65 17894920685005704987
12422481 6 17702948019778264759
12661589 4 15793722151392459539
12788726 201 18263078830288075410
13075007 39 18260834855482563387
13140716 1 17838032056195056544
13402501 40 18113340816820067483
13540713 4 17698998484687873334
13782708 43 17894914066377141003
14341114 328 16773795913427024387
14363568 33 18339640161186774052
14790565 3 17761207018336067748
14950920 106 18197516193496278763
14955137 171 18339648948647124732
15475509 84 17988931033108464833
15927050 60 17765153165615174100
15950262 2 14977697636470373680
1979834 28 18343023328015112874
20739085 24 18273218611996232668
21796203 349 18340503238964206802
22121540 332 16524432414656200592
24941158 1 17829923127585138825
2747138 104 18411132495153726418
3178227 256 18193564582580830672
3380486 145 18269249370614491213
3421961 26 18410294752390613065
4015057 19 18339061792795853317
5104073 3 17983276155202842970
5309563 4 18411134701743445255
6004065 56 18340476851297316831
6009941 240 18115017486331960277
6371380 46 18114462272178692809
6679774 75 17754728666087397752
6695519 79 16842439447343009946
86090 222 17676493886516909555

>  <PUBCHEM_SHAPE_MULTIPOLES>  (1) 
605.65
12.68
4.95
1.57
16.15
5.52
-0.03
-12.76
-6.25
-3.99
-0.62
1.82
-0.58
2.06

>  <PUBCHEM_SHAPE_SELFOVERLAP>  (1) 
1402.813

>  <PUBCHEM_SHAPE_VOLUME>  (1) 
311

>  <PUBCHEM_COORDINATE_TYPE>  (1) 
2
5
10

$$$$
