3936
     RDKit          3D

 23 25  0  0  0  0  0  0  0  0999 V2000
    1.9615    4.0983    0.0280 S   0  0  0  0  0  0  0  0  0  0  0  0
    0.3575    2.1836    0.8481 O   0  0  0  0  0  0  0  0  0  0  0  0
    2.5484   -3.2842   -0.7074 O   0  0  0  0  0  0  0  0  0  0  0  0
    2.2714    1.3831   -0.4021 N   0  0  0  0  0  0  0  0  0  0  0  0
    2.4121   -0.9719   -0.5668 N   0  0  0  0  0  0  0  0  0  0  0  0
   -4.8399   -1.1422    0.8775 C   0  0  0  0  0  0  0  0  0  0  0  0
   -4.6769   -1.6128   -0.5620 C   0  0  0  0  0  0  0  0  0  0  0  0
   -3.4821   -0.7867    1.4801 C   0  0  0  0  0  0  0  0  0  0  0  0
   -4.0963   -0.4952   -1.4265 C   0  0  0  0  0  0  0  0  0  0  0  0
   -2.6390    0.0800    0.5784 C   0  0  0  0  0  0  0  0  0  0  0  0
   -2.9050    0.1851   -0.7995 C   0  0  0  0  0  0  0  0  0  0  0  0
   -1.5307    0.7497    1.1188 C   0  0  0  0  0  0  0  0  0  0  0  0
   -2.0788    0.9870   -1.6013 C   0  0  0  0  0  0  0  0  0  0  0  0
   -0.7113    1.5355    0.3091 C   0  0  0  0  0  0  0  0  0  0  0  0
   -0.9865    1.6559   -1.0497 C   0  0  0  0  0  0  0  0  0  0  0  0
    1.5567    2.4740    0.1208 C   0  0  0  0  0  0  0  0  0  0  0  0
    2.2667    0.0834    0.2308 C   0  0  0  0  0  0  0  0  0  0  0  0
    3.0006    1.5085   -1.6704 C   0  0  0  0  0  0  0  0  0  0  0  0
    2.1124    0.0842    1.5872 C   0  0  0  0  0  0  0  0  0  0  0  0
    2.1068   -1.1613    2.2054 C   0  0  0  0  0  0  0  0  0  0  0  0
    2.4019   -2.1648    0.0693 C   0  0  0  0  0  0  0  0  0  0  0  0
    2.2539   -2.3122    1.4392 C   0  0  0  0  0  0  0  0  0  0  0  0
    2.6968   -3.0772   -2.1069 C   0  0  0  0  0  0  0  0  0  0  0  0
  1 16  2  0
  2 14  1  0
  2 16  1  0
  3 21  1  0
  3 23  1  0
  4 16  1  0
  4 17  1  0
  4 18  1  0
  5 17  2  0
  5 21  1  0
  6  7  1  0
  6  8  1  0
  7  9  1  0
  8 10  1  0
  9 11  1  0
 10 11  2  0
 10 12  1  0
 11 13  1  0
 12 14  2  0
 13 15  2  0
 14 15  1  0
 17 19  1  0
 19 20  2  0
 20 22  1  0
 21 22  2  0
M  END
>  <PUBCHEM_COMPOUND_CID>  (1) 
3936

>  <PUBCHEM_CONFORMER_RMSD>  (1) 
0.8

>  <PUBCHEM_CONFORMER_DIVERSEORDER>  (1) 
2
109
249
267
199
38
265
32
225
47
171
3
195
118
191
130
252
145
108
51
119
98
229
241
186
144
209
132
278
105
14
59
251
263
82
64
244
87
71
85
254
117
159
170
153
276
37
50
248
220
76
161
200
34
192
66
253
260
194
183
135
60
35
190
115
255
83
165
242
210
55
211
273
22
46
27
23
151
237
262
25
185
212
201
239
74
219
178
111
155
234
181
88
112
258
230
136
236
228
75
95
126
86
43
213
116
160
54
121
53
6
150
275
140
41
58
196
8
180
12
177
197
137
147
207
243
129
110
167
247
214
182
133
143
148
69
128
77
152
1
40
100
67
238
91
175
169
246
240
48
164
215
113
104
101
26
99
270
266
127
20
223
29
39
9
24
139
141
79
68
204
102
274
271
173
156
174
18
94
172
97
7
235
96
36
84
146
80
256
208
245
188
163
203
122
120
131
184
17
61
232
272
257
157
124
15
227
269
52
250
63
106
45
176
158
78
154
81
114
168
73
56
277
261
10
21
11
62
90
149
206
189
70
4
42
142
198
217
193
222
138
33
107
31
221
218
231
224
93
166
13
72
89
259
5
28
44
19
123
162
216
16
264
30
268
202
65
134
226
103
187
125
57
233
179
205
49
92

>  <PUBCHEM_MMFF94_PARTIAL_CHARGES>  (1) 
27
1 -0.38
10 -0.14
11 -0.14
12 -0.15
13 -0.15
14 0.08
15 -0.15
16 0.59
17 0.43
18 0.3
19 -0.15
2 -0.23
20 -0.15
21 0.39
22 -0.15
23 0.28
3 -0.36
32 0.15
33 0.15
34 0.15
38 0.15
39 0.15
4 -0.48
40 0.15
5 -0.62
8 0.14
9 0.14

>  <PUBCHEM_EFFECTIVE_ROTOR_COUNT>  (1) 
5.8

>  <PUBCHEM_PHARMACOPHORE_FEATURES>  (1) 
6
1 1 acceptor
1 3 acceptor
3 4 5 17 cation
6 10 11 12 13 14 15 rings
6 5 17 19 20 21 22 rings
6 6 7 8 9 10 11 rings

>  <PUBCHEM_HEAVY_ATOM_COUNT>  (1) 
23

>  <PUBCHEM_ATOM_DEF_STEREO_COUNT>  (1) 
0

>  <PUBCHEM_ATOM_UDEF_STEREO_COUNT>  (1) 
0

>  <PUBCHEM_BOND_DEF_STEREO_COUNT>  (1) 
0

>  <PUBCHEM_BOND_UDEF_STEREO_COUNT>  (1) 
0

>  <PUBCHEM_ISOTOPIC_ATOM_COUNT>  (1) 
0

>  <PUBCHEM_COMPONENT_COUNT>  (1) 
1

>  <PUBCHEM_CACTVS_TAUTO_COUNT>  (1) 
1

>  <PUBCHEM_CONFORMER_ID>  (1) 
00000F6000000002

>  <PUBCHEM_MMFF94_ENERGY>  (1) 
93.8303

>  <PUBCHEM_FEATURE_SELFOVERLAP>  (1) 
30.468

>  <PUBCHEM_SHAPE_FINGERPRINT>  (1) 
107951 10 15956718792362402746
11421498 54 17774455991088782640
11640471 11 11819283294597852673
12156800 1 11450887362646263582
12363563 72 18191293901615807931
12553582 1 18342174479426687477
12596599 1 18340208462642728747
128993 33 9942370805224367210
13383661 66 17119760764516913551
13533116 47 18270966851655190619
13583140 156 18194150562512851825
14659021 117 17110985064236641234
14848160 33 18334846213058621931
14863182 85 18412539938360720890
15422964 175 18199174118610510508
15635459 17 18187365484372467675
15664445 248 17531823466327338373
17134984 74 17622700422220689559
17138139 8 16763360693665769215
18981168 100 8069159207496894588
20600515 1 17536843634709170544
20645477 70 18264759021325069093
20775530 9 18056480551925754951
21285901 2 17677314143871002351
21315764 371 17129283523461528635
21344244 181 17841176625153626684
21452121 199 18264200323426064280
21731516 1 18269559346930763320
2255824 54 18268430320261829616
23419403 2 17101941817685011108
23559900 14 17313650625159486589
238 59 18187930641638288216
3060560 45 18044937015827281668
4280585 95 17828197697905430898
5262128 65 18335986346281082378
6669772 16 18120935268756769200
7399639 24 17899118693014636373
81228 2 17620172257845211264
9709674 26 18041547092708249001

>  <PUBCHEM_SHAPE_MULTIPOLES>  (1) 
455.48
7.79
3.94
1.93
9.76
0.58
0.1
-3.77
0.82
-5.26
0.83
-0.54
-0.94
0.5

>  <PUBCHEM_SHAPE_SELFOVERLAP>  (1) 
961.485

>  <PUBCHEM_SHAPE_VOLUME>  (1) 
258.8

>  <PUBCHEM_COORDINATE_TYPE>  (1) 
2
5
10

$$$$
