39378
     RDKit          3D

 14 15  0  0  0  0  0  0  0  0999 V2000
   -0.6689   -0.6702   -0.1536 O   0  0  0  0  0  0  0  0  0  0  0  0
    1.9414   -1.9545   -0.4207 O   0  0  0  0  0  0  0  0  0  0  0  0
   -3.9628    0.6345    0.1423 O   0  0  0  0  0  0  0  0  0  0  0  0
    0.3254    1.3458    0.0719 C   0  0  0  0  0  0  0  0  0  0  0  0
    0.5271   -0.0180   -0.1137 C   0  0  0  0  0  0  0  0  0  0  0  0
   -1.0814    1.5210    0.1482 C   0  0  0  0  0  0  0  0  0  0  0  0
   -1.6363    0.2702    0.0058 C   0  0  0  0  0  0  0  0  0  0  0  0
    1.7813   -0.6126   -0.2392 C   0  0  0  0  0  0  0  0  0  0  0  0
    1.4491    2.1879    0.1390 C   0  0  0  0  0  0  0  0  0  0  0  0
    2.8846    0.2434   -0.1695 C   0  0  0  0  0  0  0  0  0  0  0  0
    2.7242    1.6187    0.0161 C   0  0  0  0  0  0  0  0  0  0  0  0
   -2.9922   -0.1623    0.0008 C   0  0  0  0  0  0  0  0  0  0  0  0
   -3.3568   -1.6484   -0.1796 C   0  0  0  0  0  0  0  0  0  0  0  0
    2.0653   -2.7556    0.7521 C   0  0  0  0  0  0  0  0  0  0  0  0
  1  5  1  0
  1  7  1  0
  2  8  1  0
  2 14  1  0
  3 12  2  0
  4  5  2  0
  4  6  1  0
  4  9  1  0
  5  8  1  0
  6  7  2  0
  7 12  1  0
  8 10  2  0
  9 11  2  0
 10 11  1  0
 12 13  1  0
M  END
>  <PUBCHEM_COMPOUND_CID>  (1) 
39378

>  <PUBCHEM_CONFORMER_RMSD>  (1) 
0.6

>  <PUBCHEM_CONFORMER_DIVERSEORDER>  (1) 
1
5
4
3
2

>  <PUBCHEM_MMFF94_PARTIAL_CHARGES>  (1) 
17
1 -0.28
10 -0.15
11 -0.15
12 0.59
13 0.06
14 0.28
15 0.15
16 0.15
17 0.15
18 0.15
2 -0.36
3 -0.57
5 0.14
6 -0.15
7 0.05
8 0.08
9 -0.15

>  <PUBCHEM_EFFECTIVE_ROTOR_COUNT>  (1) 
2

>  <PUBCHEM_PHARMACOPHORE_FEATURES>  (1) 
5
1 1 acceptor
1 2 acceptor
1 3 acceptor
5 1 4 5 6 7 rings
6 4 5 8 9 10 11 rings

>  <PUBCHEM_HEAVY_ATOM_COUNT>  (1) 
14

>  <PUBCHEM_ATOM_DEF_STEREO_COUNT>  (1) 
0

>  <PUBCHEM_ATOM_UDEF_STEREO_COUNT>  (1) 
0

>  <PUBCHEM_BOND_DEF_STEREO_COUNT>  (1) 
0

>  <PUBCHEM_BOND_UDEF_STEREO_COUNT>  (1) 
0

>  <PUBCHEM_ISOTOPIC_ATOM_COUNT>  (1) 
0

>  <PUBCHEM_COMPONENT_COUNT>  (1) 
1

>  <PUBCHEM_CACTVS_TAUTO_COUNT>  (1) 
2

>  <PUBCHEM_CONFORMER_ID>  (1) 
000099D200000001

>  <PUBCHEM_MMFF94_ENERGY>  (1) 
35.0786

>  <PUBCHEM_FEATURE_SELFOVERLAP>  (1) 
25.476

>  <PUBCHEM_SHAPE_FINGERPRINT>  (1) 
10608611 8 18410290345960148949
10967382 1 18411419518204251005
10980938 120 18411982489616691013
11471102 20 18411696608156853461
12553582 1 18050289171800437835
13380535 76 18264204892907452098
14251717 144 18339920540598125567
14325111 11 18340770463287064181
15375462 189 18411987961742876883
15442244 35 18196656194344687865
15501101 241 18334296478418818708
16945 1 18410854373601987532
19021347 11 18410572933095525182
193761 8 18194965132544806196
20201158 50 18408041831405600355
20559304 39 18339923723363953720
20645476 183 17681566058198938980
20645477 70 18342455946156686647
20871998 22 18126568908111662318
21501502 16 18339928086882298105
21501925 9 18266447733498459754
21650355 55 17398934000113726514
22445834 79 18413113840132444545
2334 1 17835239330455384140
23463225 33 18340487759796420823
23552423 10 18409171004045964933
257057 1 17975403625629471202
2748010 2 18195804064179864964
2871803 45 18195520630977973599
3312278 4 18341899631716558833
33824 294 18337669840470362179
34934 24 18341887489722635221
528886 8 18268425913851899520
581208 293 18340202002653049868
7364860 26 18342457019718915246
81228 2 17333927552368747640

>  <PUBCHEM_SHAPE_MULTIPOLES>  (1) 
270.51
5.47
2.55
0.66
4.54
1.22
0.03
0.7
-0.05
-1.7
0.38
-0.11
0.12
-0.26

>  <PUBCHEM_SHAPE_SELFOVERLAP>  (1) 
585.523

>  <PUBCHEM_SHAPE_VOLUME>  (1) 
151.3

>  <PUBCHEM_COORDINATE_TYPE>  (1) 
2
5
10

$$$$
