39374
     RDKit          3D

 20 22  0  0  0  0  0  0  0  0999 V2000
   -2.2701    2.4005   -0.6782 S   0  0  0  0  0  0  0  0  0  0  0  0
    5.7586   -2.0062   -1.0380 O   0  0  0  0  0  0  0  0  0  0  0  0
    5.9750   -0.5814    0.7176 O   0  0  0  0  0  0  0  0  0  0  0  0
   -1.4244   -0.1010    1.4964 C   0  0  0  0  0  0  0  0  0  0  0  0
   -0.3934    0.6550    0.6892 C   0  0  0  0  0  0  0  0  0  0  0  0
   -2.5161   -0.7298    0.6706 C   0  0  0  0  0  0  0  0  0  0  0  0
   -0.6742    1.7087   -0.2073 C   0  0  0  0  0  0  0  0  0  0  0  0
   -3.5295    0.0729    0.1207 C   0  0  0  0  0  0  0  0  0  0  0  0
    2.0016    0.9069    0.2253 C   0  0  0  0  0  0  0  0  0  0  0  0
    0.9535    0.2770    0.8920 C   0  0  0  0  0  0  0  0  0  0  0  0
   -3.5102    1.5572    0.3439 C   0  0  0  0  0  0  0  0  0  0  0  0
    3.4088    0.4747    0.4613 C   0  0  0  0  0  0  0  0  0  0  0  0
    0.4064    2.3303   -0.8722 C   0  0  0  0  0  0  0  0  0  0  0  0
    1.7271    1.9360   -0.6598 C   0  0  0  0  0  0  0  0  0  0  0  0
   -2.5170   -2.1101    0.4233 C   0  0  0  0  0  0  0  0  0  0  0  0
   -4.5307   -0.5188   -0.6625 C   0  0  0  0  0  0  0  0  0  0  0  0
    3.8826   -0.6320   -0.4886 C   0  0  0  0  0  0  0  0  0  0  0  0
   -3.5201   -2.6886   -0.3536 C   0  0  0  0  0  0  0  0  0  0  0  0
   -4.5268   -1.8939   -0.8951 C   0  0  0  0  0  0  0  0  0  0  0  0
    5.2989   -1.0576   -0.1854 C   0  0  0  0  0  0  0  0  0  0  0  0
  1  7  1  0
  1 11  1  0
  2 20  1  0
  3 20  2  0
  4  5  1  0
  4  6  1  0
  5  7  2  0
  5 10  1  0
  6  8  2  0
  6 15  1  0
  7 13  1  0
  8 11  1  0
  8 16  1  0
  9 10  2  0
  9 12  1  0
  9 14  1  0
 12 17  1  0
 13 14  2  0
 15 18  2  0
 16 19  2  0
 17 20  1  0
 18 19  1  0
M  END
>  <PUBCHEM_COMPOUND_CID>  (1) 
39374

>  <PUBCHEM_CONFORMER_RMSD>  (1) 
0.6

>  <PUBCHEM_CONFORMER_DIVERSEORDER>  (1) 
2
8
42
37
27
23
10
25
21
3
20
6
38
13
40
15
43
12
17
26
34
39
18
35
41
28
19
4
44
29
22
1
24
36
30
9
33
5
7
14
11
31
32
16

>  <PUBCHEM_MMFF94_PARTIAL_CHARGES>  (1) 
28
1 -0.33
10 -0.15
11 0.37
12 0.14
13 -0.15
14 -0.15
15 -0.15
16 -0.15
17 0.06
18 -0.15
19 -0.15
2 -0.65
20 0.66
23 0.15
28 0.15
29 0.15
3 -0.57
30 0.15
31 0.15
34 0.15
35 0.15
36 0.5
4 0.29
5 -0.14
6 -0.14
7 0.1
8 -0.14
9 -0.14

>  <PUBCHEM_EFFECTIVE_ROTOR_COUNT>  (1) 
3.6

>  <PUBCHEM_PHARMACOPHORE_FEATURES>  (1) 
6
1 2 acceptor
1 3 acceptor
3 2 3 20 anion
6 5 7 9 10 13 14 rings
6 6 8 15 16 18 19 rings
7 1 4 5 6 7 8 11 rings

>  <PUBCHEM_HEAVY_ATOM_COUNT>  (1) 
20

>  <PUBCHEM_ATOM_DEF_STEREO_COUNT>  (1) 
0

>  <PUBCHEM_ATOM_UDEF_STEREO_COUNT>  (1) 
0

>  <PUBCHEM_BOND_DEF_STEREO_COUNT>  (1) 
0

>  <PUBCHEM_BOND_UDEF_STEREO_COUNT>  (1) 
0

>  <PUBCHEM_ISOTOPIC_ATOM_COUNT>  (1) 
0

>  <PUBCHEM_COMPONENT_COUNT>  (1) 
1

>  <PUBCHEM_CACTVS_TAUTO_COUNT>  (1) 
1

>  <PUBCHEM_CONFORMER_ID>  (1) 
000099CE00000002

>  <PUBCHEM_MMFF94_ENERGY>  (1) 
55.3232

>  <PUBCHEM_FEATURE_SELFOVERLAP>  (1) 
30.519

>  <PUBCHEM_SHAPE_FINGERPRINT>  (1) 
10693767 8 17768512139574470431
10968037 57 18412831308667787863
12553582 1 18040149621629027161
12555020 224 18409158940184658599
12596602 18 14117511052102643230
13583140 156 16056877992350892744
14178000 29 18410013264739977652
14251740 79 18409729543453069307
14251751 18 18343021095001318998
14790565 3 17402332568505761097
14848178 5 18273497883823986814
15352361 1 18411138052076204254
17492 89 18120938570921942667
17857418 61 18335134281126487226
18186145 218 16733260274212061921
19141452 34 18340775848943828041
193927 3 18340212984921524514
19784866 240 18343025518701556683
19862831 5 17313097596480175417
200 152 18060136531277347808
20374829 77 18407755937192450234
21069387 34 18337396053347617105
21267235 1 18334017220409915883
21634736 98 18041839639905297141
23379529 103 18192998333823480947
23402539 116 18260544490023705084
23559900 14 18270952539859075681
25122255 55 17916597431987789126
2748010 2 15524577694991675801
2838139 119 11458423566057336950
3286 77 17846216708397087649
335352 9 18408602553041375501
4280585 95 18259976102841913258
559249 180 18411698747192920083
59755656 520 18126565622741755897
76465 3 18271242823966255629
7970288 3 17981602985846865239
960060 61 18040722493610984150
9709674 26 18190181380568723153

>  <PUBCHEM_SHAPE_MULTIPOLES>  (1) 
403.7
11.37
2.83
1.07
14.86
0.02
-0.09
8.62
2.19
-1.61
0.9
-0.08
0.05
0.06

>  <PUBCHEM_SHAPE_SELFOVERLAP>  (1) 
856.852

>  <PUBCHEM_SHAPE_VOLUME>  (1) 
224.2

>  <PUBCHEM_COORDINATE_TYPE>  (1) 
2
5
10

$$$$
