39390
     RDKit          3D

 10 10  0  0  0  0  0  0  0  0999 V2000
   -3.5655    0.4556    0.0960 O   0  0  0  0  0  0  0  0  0  0  0  0
    1.2020    0.2006   -0.1180 C   0  0  0  0  0  0  0  0  0  0  0  0
   -1.2111    0.2451   -0.0067 C   0  0  0  0  0  0  0  0  0  0  0  0
    0.0074    0.9199   -0.0832 C   0  0  0  0  0  0  0  0  0  0  0  0
    1.1782   -1.1935   -0.0761 C   0  0  0  0  0  0  0  0  0  0  0  0
   -1.2348   -1.1490    0.0350 C   0  0  0  0  0  0  0  0  0  0  0  0
   -0.0401   -1.8683    0.0004 C   0  0  0  0  0  0  0  0  0  0  0  0
    2.4729    0.9035   -0.1978 C   0  0  0  0  0  0  0  0  0  0  0  0
   -2.4571    0.9943    0.0294 C   0  0  0  0  0  0  0  0  0  0  0  0
    3.6480    0.4919    0.3210 C   0  0  0  0  0  0  0  0  0  0  0  0
  1  9  2  0
  2  4  2  0
  2  5  1  0
  2  8  1  0
  3  4  1  0
  3  6  2  0
  3  9  1  0
  5  7  2  0
  6  7  1  0
  8 10  2  0
M  END
>  <PUBCHEM_COMPOUND_CID>  (1) 
39390

>  <PUBCHEM_CONFORMER_RMSD>  (1) 
0.4

>  <PUBCHEM_CONFORMER_DIVERSEORDER>  (1) 
1
7
2
6
8
5
3
4

>  <PUBCHEM_MMFF94_PARTIAL_CHARGES>  (1) 
18
1 -0.57
10 -0.3
11 0.15
12 0.15
13 0.15
14 0.15
15 0.15
16 0.06
17 0.15
18 0.15
2 0.03
3 0.09
4 -0.15
5 -0.15
6 -0.15
7 -0.15
8 -0.18
9 0.42

>  <PUBCHEM_EFFECTIVE_ROTOR_COUNT>  (1) 
2

>  <PUBCHEM_PHARMACOPHORE_FEATURES>  (1) 
3
1 1 acceptor
1 10 hydrophobe
6 2 3 4 5 6 7 rings

>  <PUBCHEM_HEAVY_ATOM_COUNT>  (1) 
10

>  <PUBCHEM_ATOM_DEF_STEREO_COUNT>  (1) 
0

>  <PUBCHEM_ATOM_UDEF_STEREO_COUNT>  (1) 
0

>  <PUBCHEM_BOND_DEF_STEREO_COUNT>  (1) 
0

>  <PUBCHEM_BOND_UDEF_STEREO_COUNT>  (1) 
0

>  <PUBCHEM_ISOTOPIC_ATOM_COUNT>  (1) 
0

>  <PUBCHEM_COMPONENT_COUNT>  (1) 
1

>  <PUBCHEM_CACTVS_TAUTO_COUNT>  (1) 
1

>  <PUBCHEM_CONFORMER_ID>  (1) 
000099DE00000001

>  <PUBCHEM_MMFF94_ENERGY>  (1) 
26.191

>  <PUBCHEM_FEATURE_SELFOVERLAP>  (1) 
15.223

>  <PUBCHEM_SHAPE_FINGERPRINT>  (1) 
10219947 1 18186803564836767740
13380535 76 18410854364917185351
14325111 11 18410856559655750260
14897335 6 18412538808140789278
15775835 57 18412544310014922968
16945 1 18409737269698191036
20871998 184 18055360390115928886
21040471 1 18410015454814433462
23235685 24 18411132537100747748
23402539 116 18272358785139602813
23402655 69 18268977719087952669
23559900 14 18272938259008669724
2748010 2 18338249201251247991
366044 4 18411135848494107290
369184 2 18129662040473348818
528862 383 18187919513383532994
528886 8 18411414020661975456
53812653 166 18343580767557077016
6333449 129 18270678782869555975
7364860 26 18127411150987521734

>  <PUBCHEM_SHAPE_MULTIPOLES>  (1) 
199.93
4.75
1.57
0.63
0.56
0.69
0
-2.03
-0.41
-0.16
0.02
0.08
0
0

>  <PUBCHEM_SHAPE_SELFOVERLAP>  (1) 
415.373

>  <PUBCHEM_SHAPE_VOLUME>  (1) 
114.4

>  <PUBCHEM_COORDINATE_TYPE>  (1) 
2
5
10

$$$$
