39398
     RDKit          3D

 10  9  0  0  0  0  0  0  0  0999 V2000
   -0.4504   -2.1247    0.0243 Cl  0  0  0  0  0  0  0  0  0  0  0  0
    0.4506    2.1249    0.0244 Cl  0  0  0  0  0  0  0  0  0  0  0  0
   -2.7727   -0.6838    0.5892 O   0  0  0  0  0  0  0  0  0  0  0  0
    2.7729    0.6837    0.5890 O   0  0  0  0  0  0  0  0  0  0  0  0
   -2.2508    1.2254   -0.5372 O   0  0  0  0  0  0  0  0  0  0  0  0
    2.2505   -1.2254   -0.5372 O   0  0  0  0  0  0  0  0  0  0  0  0
   -0.5459   -0.3924   -0.0382 C   0  0  0  0  0  0  0  0  0  0  0  0
    0.5459    0.3923   -0.0380 C   0  0  0  0  0  0  0  0  0  0  0  0
   -1.9211    0.1610   -0.0382 C   0  0  0  0  0  0  0  0  0  0  0  0
    1.9210   -0.1611   -0.0380 C   0  0  0  0  0  0  0  0  0  0  0  0
  1  7  1  0
  2  8  1  0
  3  9  1  0
  4 10  1  0
  5  9  2  0
  6 10  2  0
  7  8  2  0
  7  9  1  0
  8 10  1  0
M  END
>  <PUBCHEM_COMPOUND_CID>  (1) 
39398

>  <PUBCHEM_CONFORMER_RMSD>  (1) 
0.4

>  <PUBCHEM_CONFORMER_DIVERSEORDER>  (1) 
1
3
2

>  <PUBCHEM_MMFF94_PARTIAL_CHARGES>  (1) 
12
1 -0.14
10 0.71
11 0.5
12 0.5
2 -0.14
3 -0.65
4 -0.65
5 -0.57
6 -0.57
7 0.15
8 0.15
9 0.71

>  <PUBCHEM_EFFECTIVE_ROTOR_COUNT>  (1) 
2

>  <PUBCHEM_PHARMACOPHORE_FEATURES>  (1) 
6
1 3 acceptor
1 4 acceptor
1 5 acceptor
1 6 acceptor
3 3 5 9 anion
3 4 6 10 anion

>  <PUBCHEM_HEAVY_ATOM_COUNT>  (1) 
10

>  <PUBCHEM_ATOM_DEF_STEREO_COUNT>  (1) 
0

>  <PUBCHEM_ATOM_UDEF_STEREO_COUNT>  (1) 
0

>  <PUBCHEM_BOND_DEF_STEREO_COUNT>  (1) 
0

>  <PUBCHEM_BOND_UDEF_STEREO_COUNT>  (1) 
1

>  <PUBCHEM_ISOTOPIC_ATOM_COUNT>  (1) 
0

>  <PUBCHEM_COMPONENT_COUNT>  (1) 
1

>  <PUBCHEM_CACTVS_TAUTO_COUNT>  (1) 
1

>  <PUBCHEM_CONFORMER_ID>  (1) 
000099E600000001

>  <PUBCHEM_MMFF94_ENERGY>  (1) 
26.8046

>  <PUBCHEM_FEATURE_SELFOVERLAP>  (1) 
30.561

>  <PUBCHEM_SHAPE_FINGERPRINT>  (1) 
10857977 72 18335133219689186425
14325111 11 18411136922378232623
16945 1 18338516472717901934
21040471 1 18409449193530936694
23552423 10 18188217489703579526
2748010 2 18338798918357221567
29004967 10 18412265042814913352
5084963 1 18201438112163409779
66348 1 18122624946537496589

>  <PUBCHEM_SHAPE_MULTIPOLES>  (1) 
186.06
3.54
2.02
0.69
0
0
-0.01
0
-0.3
0
0.1
0
0
0.4

>  <PUBCHEM_SHAPE_SELFOVERLAP>  (1) 
354.009

>  <PUBCHEM_SHAPE_VOLUME>  (1) 
114.5

>  <PUBCHEM_COORDINATE_TYPE>  (1) 
2
5
10

$$$$
