39392
     RDKit          3D

 21 22  0  0  1  0  0  0  0  0999 V2000
   -2.5682    1.4933    0.2598 O   0  0  0  0  0  0  0  0  0  0  0  0
   -4.5863   -0.4090   -0.2937 O   0  0  0  0  0  0  0  0  0  0  0  0
   -0.9653    1.8028    1.8342 O   0  0  0  0  0  0  0  0  0  0  0  0
    6.9196   -1.4967    0.3170 O   0  0  0  0  0  0  0  0  0  0  0  0
    4.7867   -2.1740    0.6992 O   0  0  0  0  0  0  0  0  0  0  0  0
   -0.4552    0.9411   -0.3095 N   0  0  0  0  0  0  0  0  0  0  0  0
   -2.6601    0.8149   -1.0008 C   0  0  0  0  0  0  0  0  0  0  0  0
   -1.2342    0.7674   -1.5063 C   0  0  0  0  0  0  0  0  0  0  0  0
   -3.2623   -0.5650   -0.7736 C   0  0  0  0  0  0  0  0  0  0  0  0
    0.9520    0.7257   -0.2668 C   0  0  0  0  0  0  0  0  0  0  0  0
   -1.2679    1.4331    0.7085 C   0  0  0  0  0  0  0  0  0  0  0  0
    1.6212    0.2214   -1.3861 C   0  0  0  0  0  0  0  0  0  0  0  0
    1.6742    1.0169    0.8945 C   0  0  0  0  0  0  0  0  0  0  0  0
    3.7150    0.3025   -0.1835 C   0  0  0  0  0  0  0  0  0  0  0  0
    2.9995    0.0103   -1.3445 C   0  0  0  0  0  0  0  0  0  0  0  0
    3.0524    0.8059    0.9361 C   0  0  0  0  0  0  0  0  0  0  0  0
    5.1887    0.0769   -0.1388 C   0  0  0  0  0  0  0  0  0  0  0  0
   -5.2121   -1.6650   -0.0587 C   0  0  0  0  0  0  0  0  0  0  0  0
    5.5734   -1.3103    0.3363 C   0  0  0  0  0  0  0  0  0  0  0  0
   -6.5759   -1.4736    0.4356 C   0  0  0  0  0  0  0  0  0  0  0  0
   -7.6952   -1.3187    0.8410 C   0  0  0  0  0  0  0  0  0  0  0  0
  1  7  1  0
  1 11  1  0
  2  9  1  0
  2 18  1  0
  3 11  2  0
  4 19  1  0
  5 19  2  0
  6  8  1  0
  6 10  1  0
  6 11  1  0
  7  8  1  0
  7  9  1  0
 10 12  2  0
 10 13  1  0
 12 15  1  0
 13 16  2  0
 14 15  2  0
 14 16  1  0
 14 17  1  0
 17 19  1  0
 18 20  1  0
 20 21  3  0
M  END
>  <PUBCHEM_COMPOUND_CID>  (1) 
39392

>  <PUBCHEM_CONFORMER_RMSD>  (1) 
0.8

>  <PUBCHEM_CONFORMER_DIVERSEORDER>  (1) 
1
84
60
76
30
77
53
67
50
28
55
40
78
58
56
35
57
69
20
26
71
36
82
43
11
47
72
66
3
12
63
83
34
41
7
54
73
46
52
32
64
15
68
45
39
61
79
4
49
5
80
62
31
65
38
75
8
85
44
33
24
9
86
14
6
74
23
37
59
51
81
27
29
70
42
17
22
18
48
19
21
16
2
13
25
10

>  <PUBCHEM_MMFF94_PARTIAL_CHARGES>  (1) 
27
1 -0.43
10 0.12
11 0.78
12 -0.15
13 -0.15
14 -0.14
15 -0.15
16 -0.15
17 0.2
18 0.48
19 0.66
2 -0.56
20 -0.2
21 -0.18
27 0.15
28 0.15
29 0.15
3 -0.57
30 0.15
35 0.5
36 0.18
4 -0.65
5 -0.57
6 -0.48
7 0.28
8 0.3
9 0.28

>  <PUBCHEM_EFFECTIVE_ROTOR_COUNT>  (1) 
6.8

>  <PUBCHEM_PHARMACOPHORE_FEATURES>  (1) 
8
1 2 acceptor
1 21 hydrophobe
1 3 acceptor
1 4 acceptor
1 5 acceptor
3 4 5 19 anion
5 1 6 7 8 11 rings
6 10 12 13 14 15 16 rings

>  <PUBCHEM_HEAVY_ATOM_COUNT>  (1) 
21

>  <PUBCHEM_ATOM_DEF_STEREO_COUNT>  (1) 
0

>  <PUBCHEM_ATOM_UDEF_STEREO_COUNT>  (1) 
1

>  <PUBCHEM_BOND_DEF_STEREO_COUNT>  (1) 
0

>  <PUBCHEM_BOND_UDEF_STEREO_COUNT>  (1) 
0

>  <PUBCHEM_ISOTOPIC_ATOM_COUNT>  (1) 
0

>  <PUBCHEM_COMPONENT_COUNT>  (1) 
1

>  <PUBCHEM_CACTVS_TAUTO_COUNT>  (1) 
1

>  <PUBCHEM_CONFORMER_ID>  (1) 
000099E000000001

>  <PUBCHEM_MMFF94_ENERGY>  (1) 
51.8836

>  <PUBCHEM_FEATURE_SELFOVERLAP>  (1) 
40.655

>  <PUBCHEM_SHAPE_FINGERPRINT>  (1) 
10 15 16774078487772509608
10554248 39 11819263435048799912
10693767 8 16081633488582678842
11796584 16 18264481785407278582
11961588 58 8430319030589016021
12011746 2 13551191086820173182
12596602 18 18271238336405777250
12633257 1 17060051596590885391
12760667 363 18412542124573128919
13533116 47 18336265738425533548
13540713 4 16556801667104381956
13540713 5 14492128867169420669
13668630 136 17240483628537625251
13685833 64 18334575754382719050
14251764 18 16415196823710617117
14251764 30 18335700594092191595
14341114 176 18130783486573166308
15183329 4 14995996644891722721
15238133 3 13542463215227261154
15475509 35 18411408498015028578
19784866 240 18113340816755984253
200 152 16877939447323299725
20281389 69 12463300193475603003
21150785 3 17022905666405564286
21267235 1 18060704970942616062
21344244 181 17095246947112239211
21521239 73 16588021324890890466
21637258 2 18408881867422481407
221357 26 14562802283663285215
22224240 67 15195569005219066079
23503953 91 15482666926616035756
25122255 55 18186810174797081475
26918003 58 18131626764298793525
2838139 119 9943537293031404819
29717793 49 17167864170608259486
3004659 81 16950560012915851935
33382 64 18335137583355055026
465052 167 18343581829110292422
5104073 3 16701188456332790762
5207 217 11674876719599309385

>  <PUBCHEM_SHAPE_MULTIPOLES>  (1) 
397.84
17.05
1.83
1.31
13.14
0.52
-0.05
14.9
3.57
-0.02
0.55
0.04
-0.42
0

>  <PUBCHEM_SHAPE_SELFOVERLAP>  (1) 
831.77

>  <PUBCHEM_SHAPE_VOLUME>  (1) 
224.2

>  <PUBCHEM_COORDINATE_TYPE>  (1) 
2
5
10

$$$$
