39408
     RDKit          3D

 15 15  0  0  0  0  0  0  0  0999 V2000
    3.8757    2.3105    0.4476 F   0  0  0  0  0  0  0  0  0  0  0  0
   -4.8823    1.3836   -1.3684 O   0  0  0  0  0  0  0  0  0  0  0  0
   -2.3622   -1.7515    0.5324 O   0  0  0  0  0  0  0  0  0  0  0  0
   -2.9797    0.4888    0.5367 N   0  0  0  0  0  0  0  0  0  0  0  0
   -4.4021    0.2930    0.7057 C   0  0  0  0  0  0  0  0  0  0  0  0
    1.6956   -0.5866   -0.0055 C   0  0  0  0  0  0  0  0  0  0  0  0
   -5.0922    0.1784   -0.6443 C   0  0  0  0  0  0  0  0  0  0  0  0
    0.3245   -0.9616    0.1824 C   0  0  0  0  0  0  0  0  0  0  0  0
   -2.0785   -0.5600    0.4645 C   0  0  0  0  0  0  0  0  0  0  0  0
    2.1368    0.7078    0.3178 C   0  0  0  0  0  0  0  0  0  0  0  0
    2.6275   -1.5057   -0.5171 C   0  0  0  0  0  0  0  0  0  0  0  0
   -0.6782   -0.0764    0.2872 C   0  0  0  0  0  0  0  0  0  0  0  0
    3.4707    1.0725    0.1350 C   0  0  0  0  0  0  0  0  0  0  0  0
    3.9613   -1.1409   -0.7001 C   0  0  0  0  0  0  0  0  0  0  0  0
    4.3830    0.1481   -0.3740 C   0  0  0  0  0  0  0  0  0  0  0  0
  1 13  1  0
  2  7  1  0
  3  9  2  0
  4  5  1  0
  4  9  1  0
  5  7  1  0
  6  8  1  0
  6 10  2  0
  6 11  1  0
  8 12  2  0
  9 12  1  0
 10 13  1  0
 11 14  2  0
 13 15  2  0
 14 15  1  0
M  END
>  <PUBCHEM_COMPOUND_CID>  (1) 
39408

>  <PUBCHEM_CONFORMER_RMSD>  (1) 
0.6

>  <PUBCHEM_CONFORMER_DIVERSEORDER>  (1) 
1
16
35
5
21
39
41
28
29
12
8
26
17
37
27
4
15
31
13
33
40
25
6
11
30
34
10
18
14
20
7
3
23
32
2
24
22
36
9
19
38

>  <PUBCHEM_MMFF94_PARTIAL_CHARGES>  (1) 
23
1 -0.19
10 -0.15
11 -0.15
12 -0.14
13 0.19
14 -0.15
15 -0.15
18 0.37
2 -0.68
21 0.15
22 0.15
23 0.15
24 0.15
25 0.15
26 0.15
27 0.4
3 -0.57
4 -0.73
5 0.3
6 0.03
7 0.28
8 -0.18
9 0.62

>  <PUBCHEM_EFFECTIVE_ROTOR_COUNT>  (1) 
5

>  <PUBCHEM_PHARMACOPHORE_FEATURES>  (1) 
5
1 2 acceptor
1 2 donor
1 3 acceptor
1 4 donor
6 6 10 11 13 14 15 rings

>  <PUBCHEM_HEAVY_ATOM_COUNT>  (1) 
15

>  <PUBCHEM_ATOM_DEF_STEREO_COUNT>  (1) 
0

>  <PUBCHEM_ATOM_UDEF_STEREO_COUNT>  (1) 
0

>  <PUBCHEM_BOND_DEF_STEREO_COUNT>  (1) 
0

>  <PUBCHEM_BOND_UDEF_STEREO_COUNT>  (1) 
1

>  <PUBCHEM_ISOTOPIC_ATOM_COUNT>  (1) 
0

>  <PUBCHEM_COMPONENT_COUNT>  (1) 
1

>  <PUBCHEM_CACTVS_TAUTO_COUNT>  (1) 
2

>  <PUBCHEM_CONFORMER_ID>  (1) 
000099F000000001

>  <PUBCHEM_MMFF94_ENERGY>  (1) 
27.5795

>  <PUBCHEM_FEATURE_SELFOVERLAP>  (1) 
25.375

>  <PUBCHEM_SHAPE_FINGERPRINT>  (1) 
10014705 185 18333730247605956271
10608611 8 18340210786193291426
11089746 13 18261100864107792138
11128504 68 16988839505857639921
11471102 20 18343305855765063526
11543360 7 17846776321603849335
12500047 106 18260270767162666811
12596602 18 13407087972414715077
12616999 72 15841559569595576988
13081056 2 18408888425531742937
13675066 3 17967823759892017955
13760787 5 17846504720756841995
15242439 84 18335709325365006918
15375358 24 18335422382678533803
17834072 33 18202562903979363127
18186145 218 18334863809244104618
193927 3 12751231554241290861
200 152 17275387586221643755
20279233 1 18410020935198257314
20432913 95 8862938386091565877
20645477 56 18260833713216285347
20645477 70 18130796628878057118
212847 35 18041000626986963742
212916 134 16877937248447503521
21503847 285 16660653972500922252
22289505 5 18409446951821999444
231179 274 18259703389081560818
23402539 116 18187078468534608087
23402655 69 18202005442999284278
23559900 14 18342461426540386698
29717793 49 17203332169489457493
3060560 45 18060146418835661950
3545911 37 18410018757718163139
4028521 119 18333730191739830349
449060 50 18410299141947111057
495365 180 18202556302751792322
5104073 3 18410862091653042146
522135 26 18343025467304432398
633830 44 17095808814644184562
77779 3 18342746233915677987

>  <PUBCHEM_SHAPE_MULTIPOLES>  (1) 
284.7
11.35
1.61
0.89
9.09
0.3
0.17
3.2
2.55
-1.32
-0.02
0.74
0.09
1.1

>  <PUBCHEM_SHAPE_SELFOVERLAP>  (1) 
582.514

>  <PUBCHEM_SHAPE_VOLUME>  (1) 
163.8

>  <PUBCHEM_COORDINATE_TYPE>  (1) 
2
5
10

$$$$
