39406
     RDKit          3D

 18 18  0  0  0  0  0  0  0  0999 V2000
   -6.1454    1.5090   -1.4355 O   0  0  0  0  0  0  0  0  0  0  0  0
   -3.6478   -1.7484    0.2864 O   0  0  0  0  0  0  0  0  0  0  0  0
    5.5068   -1.0207   -0.8519 O   0  0  0  0  0  0  0  0  0  0  0  0
   -4.3591    0.4541    0.5002 N   0  0  0  0  0  0  0  0  0  0  0  0
    4.4161    0.8090    0.1527 N   0  0  0  0  0  0  0  0  0  0  0  0
    0.4308   -0.4027    0.2272 C   0  0  0  0  0  0  0  0  0  0  0  0
    3.0813    0.4035    0.1769 C   0  0  0  0  0  0  0  0  0  0  0  0
    0.7719    0.8393    0.7377 C   0  0  0  0  0  0  0  0  0  0  0  0
    1.3877   -1.2499   -0.3079 C   0  0  0  0  0  0  0  0  0  0  0  0
    2.1062    1.2451    0.7123 C   0  0  0  0  0  0  0  0  0  0  0  0
    2.7220   -0.8440   -0.3332 C   0  0  0  0  0  0  0  0  0  0  0  0
   -5.7815    0.1959    0.5304 C   0  0  0  0  0  0  0  0  0  0  0  0
   -0.9787   -0.8318    0.2534 C   0  0  0  0  0  0  0  0  0  0  0  0
   -6.3614    0.2207   -0.8748 C   0  0  0  0  0  0  0  0  0  0  0  0
   -2.0249   -0.0014    0.3754 C   0  0  0  0  0  0  0  0  0  0  0  0
   -3.4116   -0.5483    0.3800 C   0  0  0  0  0  0  0  0  0  0  0  0
    5.5033    0.0949   -0.3422 C   0  0  0  0  0  0  0  0  0  0  0  0
    6.7843    0.8758   -0.1871 C   0  0  0  0  0  0  0  0  0  0  0  0
  1 14  1  0
  2 16  2  0
  3 17  2  0
  4 12  1  0
  4 16  1  0
  5  7  1  0
  5 17  1  0
  6  8  2  0
  6  9  1  0
  6 13  1  0
  7 10  2  0
  7 11  1  0
  8 10  1  0
  9 11  2  0
 12 14  1  0
 13 15  2  0
 15 16  1  0
 17 18  1  0
M  END
>  <PUBCHEM_COMPOUND_CID>  (1) 
39406

>  <PUBCHEM_CONFORMER_RMSD>  (1) 
0.8

>  <PUBCHEM_CONFORMER_DIVERSEORDER>  (1) 
2
7
13
14
3
9
6
15
11
16
12
1
8
10
4
5

>  <PUBCHEM_MMFF94_PARTIAL_CHARGES>  (1) 
27
1 -0.68
10 -0.15
11 -0.15
12 0.3
13 -0.18
14 0.28
15 -0.14
16 0.62
17 0.57
18 0.06
19 0.15
2 -0.57
20 0.15
21 0.15
22 0.15
25 0.15
26 0.37
29 0.15
3 -0.57
30 0.37
34 0.4
4 -0.73
5 -0.55
6 0.03
7 0.12
8 -0.15
9 -0.15

>  <PUBCHEM_EFFECTIVE_ROTOR_COUNT>  (1) 
7

>  <PUBCHEM_PHARMACOPHORE_FEATURES>  (1) 
7
1 1 acceptor
1 1 donor
1 2 acceptor
1 3 acceptor
1 4 donor
1 5 donor
6 6 7 8 9 10 11 rings

>  <PUBCHEM_HEAVY_ATOM_COUNT>  (1) 
18

>  <PUBCHEM_ATOM_DEF_STEREO_COUNT>  (1) 
0

>  <PUBCHEM_ATOM_UDEF_STEREO_COUNT>  (1) 
0

>  <PUBCHEM_BOND_DEF_STEREO_COUNT>  (1) 
0

>  <PUBCHEM_BOND_UDEF_STEREO_COUNT>  (1) 
1

>  <PUBCHEM_ISOTOPIC_ATOM_COUNT>  (1) 
0

>  <PUBCHEM_COMPONENT_COUNT>  (1) 
1

>  <PUBCHEM_CACTVS_TAUTO_COUNT>  (1) 
4

>  <PUBCHEM_CONFORMER_ID>  (1) 
000099EE00000002

>  <PUBCHEM_MMFF94_ENERGY>  (1) 
41.6216

>  <PUBCHEM_FEATURE_SELFOVERLAP>  (1) 
35.525

>  <PUBCHEM_SHAPE_FINGERPRINT>  (1) 
11089746 13 17203608194258106225
12091667 2 17676207996460861219
12236239 1 16343706521241941315
12616971 3 12107795128567706467
12670543 26 18341613689757472029
13533116 47 16271655490653000998
13668630 136 15841835555598899573
14251718 22 13614521857168494171
14251752 14 18186516575116514360
14251764 46 17822012030017637035
14729087 3 17894907429992928405
15048467 5 17894632573824285492
15183329 4 18343585118285003787
15242439 84 18413108376944658571
15716309 27 9007057967881957677
17834072 8 18272088305284249505
17834076 25 16298386872321774347
200 152 17132116836213886603
20281389 69 17967812747474733389
20645477 56 18113614586988718063
20645477 70 18060143089761467935
20681677 155 17312823805210572211
21054139 6 15123501515307690341
21150785 3 15769773580878861184
21709351 56 18341609377900359999
220451 1 13984662568514105152
2215653 11 17988929968156287654
22224240 67 12829490376052700721
23035841 295 12612751324249874456
23402539 116 17967812781639156518
23402655 69 18273495667673232555
23536379 177 17385723595243371578
23559900 14 18201996676891931881
29717793 49 17060345114861745436
300161 21 18186799179749122115
3014965 18 18262797363648136930
3545911 37 18412265051948180003
4072396 5 18342168952416084330
4463277 17 18342744039741108800
542803 24 15719110266740106683
59682541 35 7853561405455655957
59755656 215 18409167679820522614
59755656 520 17603581954827568571

>  <PUBCHEM_SHAPE_MULTIPOLES>  (1) 
342.86
17.29
1.31
0.9
5.68
0.12
-0.17
-4.04
-5.05
0.01
-0.06
0.85
-0.17
1.07

>  <PUBCHEM_SHAPE_SELFOVERLAP>  (1) 
699.578

>  <PUBCHEM_SHAPE_VOLUME>  (1) 
197

>  <PUBCHEM_COORDINATE_TYPE>  (1) 
2
5
10

$$$$
