39403
     RDKit          3D

 16 16  0  0  0  0  0  0  0  0999 V2000
    2.4876    1.9871   -0.2343 O   0  0  0  0  0  0  0  0  0  0  0  0
   -5.0158   -0.2453    1.8264 O   0  0  0  0  0  0  0  0  0  0  0  0
   -2.2109    1.0104   -1.3939 O   0  0  0  0  0  0  0  0  0  0  0  0
   -3.1300   -0.7768   -0.2257 N   0  0  0  0  0  0  0  0  0  0  0  0
    1.7192   -0.2895   -0.2481 C   0  0  0  0  0  0  0  0  0  0  0  0
    2.7196    0.6536   -0.0697 C   0  0  0  0  0  0  0  0  0  0  0  0
   -4.5208   -0.4927   -0.5006 C   0  0  0  0  0  0  0  0  0  0  0  0
    0.3575    0.1283   -0.6259 C   0  0  0  0  0  0  0  0  0  0  0  0
    1.9690   -1.6429   -0.0776 C   0  0  0  0  0  0  0  0  0  0  0  0
    4.0007    0.2334    0.2880 C   0  0  0  0  0  0  0  0  0  0  0  0
   -5.1051    0.4144    0.5703 C   0  0  0  0  0  0  0  0  0  0  0  0
   -0.7631   -0.5150   -0.2667 C   0  0  0  0  0  0  0  0  0  0  0  0
   -2.0909    0.0057   -0.7004 C   0  0  0  0  0  0  0  0  0  0  0  0
    3.2503   -2.0629    0.2800 C   0  0  0  0  0  0  0  0  0  0  0  0
    4.2660   -1.1248    0.4627 C   0  0  0  0  0  0  0  0  0  0  0  0
    2.0667    2.7172    0.9155 C   0  0  0  0  0  0  0  0  0  0  0  0
  1  6  1  0
  1 16  1  0
  2 11  1  0
  3 13  2  0
  4  7  1  0
  4 13  1  0
  5  6  2  0
  5  8  1  0
  5  9  1  0
  6 10  1  0
  7 11  1  0
  8 12  2  0
  9 14  2  0
 10 15  2  0
 12 13  1  0
 14 15  1  0
M  END
>  <PUBCHEM_COMPOUND_CID>  (1) 
39403

>  <PUBCHEM_CONFORMER_RMSD>  (1) 
0.8

>  <PUBCHEM_CONFORMER_DIVERSEORDER>  (1) 
1
13
5
10
15
14
4
12
19
11
17
16
18
2
6
8
3
9
7

>  <PUBCHEM_MMFF94_PARTIAL_CHARGES>  (1) 
24
1 -0.36
10 -0.15
11 0.28
12 -0.14
13 0.62
14 -0.15
15 -0.15
16 0.28
19 0.15
2 -0.68
20 0.15
21 0.37
24 0.15
25 0.15
26 0.15
27 0.15
3 -0.57
31 0.4
4 -0.73
5 0.03
6 0.08
7 0.3
8 -0.18
9 -0.15

>  <PUBCHEM_EFFECTIVE_ROTOR_COUNT>  (1) 
6

>  <PUBCHEM_PHARMACOPHORE_FEATURES>  (1) 
6
1 1 acceptor
1 2 acceptor
1 2 donor
1 3 acceptor
1 4 donor
6 5 6 9 10 14 15 rings

>  <PUBCHEM_HEAVY_ATOM_COUNT>  (1) 
16

>  <PUBCHEM_ATOM_DEF_STEREO_COUNT>  (1) 
0

>  <PUBCHEM_ATOM_UDEF_STEREO_COUNT>  (1) 
0

>  <PUBCHEM_BOND_DEF_STEREO_COUNT>  (1) 
0

>  <PUBCHEM_BOND_UDEF_STEREO_COUNT>  (1) 
1

>  <PUBCHEM_ISOTOPIC_ATOM_COUNT>  (1) 
0

>  <PUBCHEM_COMPONENT_COUNT>  (1) 
1

>  <PUBCHEM_CACTVS_TAUTO_COUNT>  (1) 
2

>  <PUBCHEM_CONFORMER_ID>  (1) 
000099EB00000001

>  <PUBCHEM_MMFF94_ENERGY>  (1) 
44.4693

>  <PUBCHEM_FEATURE_SELFOVERLAP>  (1) 
30.45

>  <PUBCHEM_SHAPE_FINGERPRINT>  (1) 
10354089 29 18272374178238828130
10912923 1 18060699520328683751
11552529 35 18127414673267185251
12236239 1 17561361790414805578
12251169 10 18342172267297218087
12670546 177 10087634871767409105
13675066 3 17967816055089856615
14252887 29 17967533467073148310
14341114 176 18410578370313079864
17834072 33 18201150057771724527
18186145 218 18343861125757842711
18785283 64 18189614015832559104
19050596 39 18342455971662564127
20559304 39 18342453742817215004
20645477 70 18336252462581850047
21041028 32 18270396084086063992
21065201 7 16660633017223518519
21267235 1 18338801113903590022
22854114 111 18341324599904128332
23402539 116 13542170680815192934
23503953 91 18202559584001447515
23557571 272 17095790032825708869
23559900 14 17385723595058930567
2838139 119 14977678914934374440
42 15 18259984851379299343
5104073 3 18339076107204893987
5895379 119 15266803073031407744
602551 16 16298677182304819283

>  <PUBCHEM_SHAPE_MULTIPOLES>  (1) 
306.68
10.52
2
1.04
12.46
1.06
-0.2
-1.46
-3.18
-2.68
-0.38
1.13
0.15
0

>  <PUBCHEM_SHAPE_SELFOVERLAP>  (1) 
624.232

>  <PUBCHEM_SHAPE_VOLUME>  (1) 
178

>  <PUBCHEM_COORDINATE_TYPE>  (1) 
2
5
10

$$$$
