39405
     RDKit          3D

 15 15  0  0  0  0  0  0  0  0999 V2000
    5.3935   -1.4761   -0.8846 Br  0  0  0  0  0  0  0  0  0  0  0  0
   -5.0754    0.9349   -1.5820 O   0  0  0  0  0  0  0  0  0  0  0  0
   -2.2776   -1.6955    0.6642 O   0  0  0  0  0  0  0  0  0  0  0  0
   -3.1750    0.4388    0.4654 N   0  0  0  0  0  0  0  0  0  0  0  0
   -4.5676    0.0712    0.5900 C   0  0  0  0  0  0  0  0  0  0  0  0
    1.6209   -0.0515    0.2051 C   0  0  0  0  0  0  0  0  0  0  0  0
   -5.1670   -0.2313   -0.7742 C   0  0  0  0  0  0  0  0  0  0  0  0
    0.3010   -0.5881    0.3648 C   0  0  0  0  0  0  0  0  0  0  0  0
   -2.1449   -0.4853    0.5141 C   0  0  0  0  0  0  0  0  0  0  0  0
    2.6883   -0.8743   -0.1933 C   0  0  0  0  0  0  0  0  0  0  0  0
    1.8756    1.3100    0.4431 C   0  0  0  0  0  0  0  0  0  0  0  0
   -0.8104    0.1633    0.3575 C   0  0  0  0  0  0  0  0  0  0  0  0
    3.9720   -0.3513   -0.3490 C   0  0  0  0  0  0  0  0  0  0  0  0
    3.1592    1.8330    0.2876 C   0  0  0  0  0  0  0  0  0  0  0  0
    4.2075    1.0023   -0.1085 C   0  0  0  0  0  0  0  0  0  0  0  0
  1 13  1  0
  2  7  1  0
  3  9  2  0
  4  5  1  0
  4  9  1  0
  5  7  1  0
  6  8  1  0
  6 10  2  0
  6 11  1  0
  8 12  2  0
  9 12  1  0
 10 13  1  0
 11 14  2  0
 13 15  2  0
 14 15  1  0
M  END
>  <PUBCHEM_COMPOUND_CID>  (1) 
39405

>  <PUBCHEM_CONFORMER_RMSD>  (1) 
0.6

>  <PUBCHEM_CONFORMER_DIVERSEORDER>  (1) 
1
16
35
18
38
36
15
11
40
26
31
30
9
28
22
13
17
8
34
37
21
29
27
33
4
7
39
6
24
32
20
14
3
10
19
5
12
25
2
23

>  <PUBCHEM_MMFF94_PARTIAL_CHARGES>  (1) 
23
1 -0.11
10 -0.15
11 -0.15
12 -0.14
13 0.11
14 -0.15
15 -0.15
18 0.37
2 -0.68
21 0.15
22 0.15
23 0.15
24 0.15
25 0.15
26 0.15
27 0.4
3 -0.57
4 -0.73
5 0.3
6 0.03
7 0.28
8 -0.18
9 0.62

>  <PUBCHEM_EFFECTIVE_ROTOR_COUNT>  (1) 
5

>  <PUBCHEM_PHARMACOPHORE_FEATURES>  (1) 
6
1 1 hydrophobe
1 2 acceptor
1 2 donor
1 3 acceptor
1 4 donor
6 6 10 11 13 14 15 rings

>  <PUBCHEM_HEAVY_ATOM_COUNT>  (1) 
15

>  <PUBCHEM_ATOM_DEF_STEREO_COUNT>  (1) 
0

>  <PUBCHEM_ATOM_UDEF_STEREO_COUNT>  (1) 
0

>  <PUBCHEM_BOND_DEF_STEREO_COUNT>  (1) 
0

>  <PUBCHEM_BOND_UDEF_STEREO_COUNT>  (1) 
1

>  <PUBCHEM_ISOTOPIC_ATOM_COUNT>  (1) 
0

>  <PUBCHEM_COMPONENT_COUNT>  (1) 
1

>  <PUBCHEM_CACTVS_TAUTO_COUNT>  (1) 
2

>  <PUBCHEM_CONFORMER_ID>  (1) 
000099ED00000001

>  <PUBCHEM_MMFF94_ENERGY>  (1) 
28.5347

>  <PUBCHEM_FEATURE_SELFOVERLAP>  (1) 
30.449

>  <PUBCHEM_SHAPE_FINGERPRINT>  (1) 
10014705 185 18114178683429291041
10354089 29 12179850489401761014
10680689 15 17749114417744064835
10912923 1 16487263183117446011
11471102 20 18341897402818371288
12236239 1 16988564589285213298
12500047 106 18113900502281514363
12555020 224 18343865498293519583
12670543 26 18260549970291120774
13760787 5 18060708298809079929
14251752 14 17385723548378825030
14573314 32 18114180804678957477
15242439 84 18261116270319104210
17834072 33 18130786797729077687
17834072 8 18335143076850205190
18186145 218 18187364354664096018
18222031 100 17917999326677519702
200 152 17561366179644438067
20645477 56 18113899403101747449
20645477 70 18272939314716075822
21065201 7 17895194458235661651
21503847 285 16371012935747207948
221357 26 18411978031673311733
22289505 5 18335134267898862940
23402539 116 17703792488133024993
23402655 69 18343304803207997120
23559900 14 18412265064611490458
23590187 135 13470679365520316517
29717793 49 17704075066404621324
3060560 45 18342178860710496350
32948 21 18040998410462124790
3545911 37 18335987553288081897
4028521 119 18187359931148617137
5104073 3 18340493364934705282
522135 26 18413111667190190024
633830 44 17386006238577955954
7471813 234 17203608185779383480
77779 3 18340494459792473946
90127 26 17458633345089630881
9971528 1 18272368677013755320

>  <PUBCHEM_SHAPE_MULTIPOLES>  (1) 
297.92
12.75
1.53
0.96
8.37
0.17
0.28
-1.73
4.31
-1.91
-0.01
1.01
-0.03
0.84

>  <PUBCHEM_SHAPE_SELFOVERLAP>  (1) 
592.996

>  <PUBCHEM_SHAPE_VOLUME>  (1) 
178.7

>  <PUBCHEM_COORDINATE_TYPE>  (1) 
2
5
10

$$$$
