39401
     RDKit          3D

 15 15  0  0  0  0  0  0  0  0999 V2000
    1.5829   -2.3732    0.7942 Cl  0  0  0  0  0  0  0  0  0  0  0  0
   -4.7729   -1.5425   -0.9764 O   0  0  0  0  0  0  0  0  0  0  0  0
   -2.1132    1.0082    1.5160 O   0  0  0  0  0  0  0  0  0  0  0  0
   -2.8686    0.5318   -0.6293 N   0  0  0  0  0  0  0  0  0  0  0  0
   -4.2800    0.7208   -0.3796 C   0  0  0  0  0  0  0  0  0  0  0  0
    1.8770    0.2864    0.2241 C   0  0  0  0  0  0  0  0  0  0  0  0
   -4.9263   -0.5829    0.0612 C   0  0  0  0  0  0  0  0  0  0  0  0
    0.5274    0.5323    0.6412 C   0  0  0  0  0  0  0  0  0  0  0  0
   -1.9024    0.6938    0.3492 C   0  0  0  0  0  0  0  0  0  0  0  0
    2.4679   -0.9916    0.2482 C   0  0  0  0  0  0  0  0  0  0  0  0
    2.6502    1.3691   -0.2322 C   0  0  0  0  0  0  0  0  0  0  0  0
   -0.5307    0.4356   -0.1779 C   0  0  0  0  0  0  0  0  0  0  0  0
    3.7854   -1.1784   -0.1697 C   0  0  0  0  0  0  0  0  0  0  0  0
    3.9678    1.1823   -0.6501 C   0  0  0  0  0  0  0  0  0  0  0  0
    4.5355   -0.0915   -0.6188 C   0  0  0  0  0  0  0  0  0  0  0  0
  1 10  1  0
  2  7  1  0
  3  9  2  0
  4  5  1  0
  4  9  1  0
  5  7  1  0
  6  8  1  0
  6 10  2  0
  6 11  1  0
  8 12  2  0
  9 12  1  0
 10 13  1  0
 11 14  2  0
 13 15  2  0
 14 15  1  0
M  END
>  <PUBCHEM_COMPOUND_CID>  (1) 
39401

>  <PUBCHEM_CONFORMER_RMSD>  (1) 
0.6

>  <PUBCHEM_CONFORMER_DIVERSEORDER>  (1) 
1
40
26
15
20
8
29
12
47
36
46
18
13
43
28
3
7
14
32
48
39
31
9
6
5
23
42
38
37
16
10
17
30
41
4
27
11
24
44
2
45
22
35
34
33
21
25
19

>  <PUBCHEM_MMFF94_PARTIAL_CHARGES>  (1) 
23
1 -0.18
10 0.18
11 -0.15
12 -0.14
13 -0.15
14 -0.15
15 -0.15
18 0.37
2 -0.68
21 0.15
22 0.15
23 0.15
24 0.15
25 0.15
26 0.15
27 0.4
3 -0.57
4 -0.73
5 0.3
6 0.03
7 0.28
8 -0.18
9 0.62

>  <PUBCHEM_EFFECTIVE_ROTOR_COUNT>  (1) 
5

>  <PUBCHEM_PHARMACOPHORE_FEATURES>  (1) 
5
1 2 acceptor
1 2 donor
1 3 acceptor
1 4 donor
6 6 10 11 13 14 15 rings

>  <PUBCHEM_HEAVY_ATOM_COUNT>  (1) 
15

>  <PUBCHEM_ATOM_DEF_STEREO_COUNT>  (1) 
0

>  <PUBCHEM_ATOM_UDEF_STEREO_COUNT>  (1) 
0

>  <PUBCHEM_BOND_DEF_STEREO_COUNT>  (1) 
0

>  <PUBCHEM_BOND_UDEF_STEREO_COUNT>  (1) 
1

>  <PUBCHEM_ISOTOPIC_ATOM_COUNT>  (1) 
0

>  <PUBCHEM_COMPONENT_COUNT>  (1) 
1

>  <PUBCHEM_CACTVS_TAUTO_COUNT>  (1) 
2

>  <PUBCHEM_CONFORMER_ID>  (1) 
000099E900000001

>  <PUBCHEM_MMFF94_ENERGY>  (1) 
30.0931

>  <PUBCHEM_FEATURE_SELFOVERLAP>  (1) 
25.375

>  <PUBCHEM_SHAPE_FINGERPRINT>  (1) 
11045515 52 18408040715274175509
11089746 13 12613036132126422982
11471102 20 18260553299328618300
11543360 7 18333165072711964473
11615757 297 18341617001040308681
12236239 1 18202567254955300580
12251169 10 9799684900686686696
12616999 72 18333448742306005258
13167823 11 18412543206635589455
13675066 3 12895356603356407809
13760787 19 18341331115765031673
13836976 161 18333735719373413630
13862211 1 18189898609546390058
14251717 144 18335140860842155218
14251718 22 18341332274847097532
14251764 18 18201725055693642091
14252887 29 14549022065703731436
14576447 43 18412543210819845318
15375358 24 16950287299287368289
15477762 27 18410294671218484726
17834072 33 18411983571953860925
18222031 100 16343409688090258845
18915474 69 18343862233970194263
19422 9 18130795503627754120
200 152 18411983563706759313
20279233 1 17168152221364672416
20281475 54 18341609266125754121
20645477 70 18114743733463828490
21054139 6 18409441527130832110
23402539 116 17312817156685554741
23402655 69 18335137544837499325
235170 7 17458611312245155911
23557571 272 16443344230712622863
23596394 208 17677043560161519115
2871803 45 18334293158366835598
3060560 45 18259706696855283838
3268164 11 16660634142795081349
33824 294 18259703385309014938
351380 3 18060134380037049711
42 15 11815898954847322461
465052 167 17632297934284964967
4990 188 18201444657667097942
58051976 378 18333733532849872742
602551 16 16128362822403700655
77779 3 18409449167903681221
8272917 22 18264492775890933287

>  <PUBCHEM_SHAPE_MULTIPOLES>  (1) 
293.84
10.54
1.75
0.95
9.26
0.97
0.13
1.01
-3.06
-0.88
0.11
0.4
0
-0.79

>  <PUBCHEM_SHAPE_SELFOVERLAP>  (1) 
590.707

>  <PUBCHEM_SHAPE_VOLUME>  (1) 
171.5

>  <PUBCHEM_COORDINATE_TYPE>  (1) 
2
5
10

$$$$
