39409
     RDKit          3D

 16 16  0  0  0  0  0  0  0  0999 V2000
   -5.3706    1.7515   -1.1083 O   0  0  0  0  0  0  0  0  0  0  0  0
   -2.9342   -1.7615    0.1223 O   0  0  0  0  0  0  0  0  0  0  0  0
   -3.5480    0.4250    0.6145 N   0  0  0  0  0  0  0  0  0  0  0  0
    6.3354    0.9330   -0.1400 N   0  0  0  0  0  0  0  0  0  0  0  0
   -4.9763    0.2110    0.6786 C   0  0  0  0  0  0  0  0  0  0  0  0
    1.1438   -0.5481    0.0239 C   0  0  0  0  0  0  0  0  0  0  0  0
   -5.6114    0.4151   -0.6877 C   0  0  0  0  0  0  0  0  0  0  0  0
   -0.2343   -0.9413    0.0674 C   0  0  0  0  0  0  0  0  0  0  0  0
    1.5735    0.6336    0.6514 C   0  0  0  0  0  0  0  0  0  0  0  0
    2.0944   -1.3358   -0.6474 C   0  0  0  0  0  0  0  0  0  0  0  0
   -2.6461   -0.5891    0.3398 C   0  0  0  0  0  0  0  0  0  0  0  0
   -1.2391   -0.0928    0.3325 C   0  0  0  0  0  0  0  0  0  0  0  0
    2.9143    1.0161    0.6090 C   0  0  0  0  0  0  0  0  0  0  0  0
    3.4351   -0.9533   -0.6898 C   0  0  0  0  0  0  0  0  0  0  0  0
    3.8451    0.2225   -0.0614 C   0  0  0  0  0  0  0  0  0  0  0  0
    5.2184    0.6143   -0.1048 C   0  0  0  0  0  0  0  0  0  0  0  0
  1  7  1  0
  2 11  2  0
  3  5  1  0
  3 11  1  0
  4 16  3  0
  5  7  1  0
  6  8  1  0
  6  9  2  0
  6 10  1  0
  8 12  2  0
  9 13  1  0
 10 14  2  0
 11 12  1  0
 13 15  2  0
 14 15  1  0
 15 16  1  0
M  END
>  <PUBCHEM_COMPOUND_CID>  (1) 
39409

>  <PUBCHEM_CONFORMER_RMSD>  (1) 
0.6

>  <PUBCHEM_CONFORMER_DIVERSEORDER>  (1) 
1
10
14
15
16
12
13
8
6
4
5
9
3
11
2
7

>  <PUBCHEM_MMFF94_PARTIAL_CHARGES>  (1) 
24
1 -0.68
10 -0.15
11 0.62
12 -0.14
13 -0.15
14 -0.15
15 0.07
16 0.48
19 0.37
2 -0.57
22 0.15
23 0.15
24 0.15
25 0.15
26 0.15
27 0.15
28 0.4
3 -0.73
4 -0.56
5 0.3
6 0.03
7 0.28
8 -0.18
9 -0.15

>  <PUBCHEM_EFFECTIVE_ROTOR_COUNT>  (1) 
5

>  <PUBCHEM_PHARMACOPHORE_FEATURES>  (1) 
6
1 1 acceptor
1 1 donor
1 2 acceptor
1 3 donor
1 4 acceptor
6 6 9 10 13 14 15 rings

>  <PUBCHEM_HEAVY_ATOM_COUNT>  (1) 
16

>  <PUBCHEM_ATOM_DEF_STEREO_COUNT>  (1) 
0

>  <PUBCHEM_ATOM_UDEF_STEREO_COUNT>  (1) 
0

>  <PUBCHEM_BOND_DEF_STEREO_COUNT>  (1) 
0

>  <PUBCHEM_BOND_UDEF_STEREO_COUNT>  (1) 
1

>  <PUBCHEM_ISOTOPIC_ATOM_COUNT>  (1) 
0

>  <PUBCHEM_COMPONENT_COUNT>  (1) 
1

>  <PUBCHEM_CACTVS_TAUTO_COUNT>  (1) 
2

>  <PUBCHEM_CONFORMER_ID>  (1) 
000099F100000001

>  <PUBCHEM_MMFF94_ENERGY>  (1) 
28.8244

>  <PUBCHEM_FEATURE_SELFOVERLAP>  (1) 
30.449

>  <PUBCHEM_SHAPE_FINGERPRINT>  (1) 
10014705 185 18408040723863259031
11089746 13 17458340870775235973
11401426 45 18131635608026540722
11471102 20 18131355193822420946
117890 112 18113336401239648388
12236239 1 15647054875957059136
12500047 106 18410856598495527059
12616971 3 13045949035732495930
13288520 33 11312059850805950147
14251718 22 17632857542553285055
14252887 29 13118273759698498440
14350574 20 10519984867947506298
15048467 5 18260832631158937380
15242439 84 18202003248017762570
16079462 125 18412254051999144008
17834072 33 17561078120656935895
17834072 8 18060421326232155512
18222031 100 13901904496933658050
19489759 90 17167863071998607545
200 152 16702304542349937163
20281389 69 18259983786190629480
20645477 56 18335137601041040323
20645477 70 17917718946105378838
21054139 6 14764339444613560045
21150785 3 13901905648649531680
21709351 56 18200871893470864116
220451 1 14764353717190596423
22289505 5 18342736287003645828
23402539 116 18187362168557455614
23402655 69 18060702783876022734
23559900 14 17917425470862897017
2916195 48 18186802512606645073
29717793 49 16128383661848777212
300161 21 18409726270535125714
3014965 18 18335700478117719854
3545911 37 18343586261115608595
4028521 119 18409728431367723849
4072396 5 18272362058822567178
42 15 7853573508958280355
465052 167 9223235144153759528
542803 24 16081091484583385295

>  <PUBCHEM_SHAPE_MULTIPOLES>  (1) 
307.57
14.1
1.37
0.86
5.2
0.17
-0.09
-5.72
-2.64
0.17
-0.18
0.61
-0.13
0.95

>  <PUBCHEM_SHAPE_SELFOVERLAP>  (1) 
631.222

>  <PUBCHEM_SHAPE_VOLUME>  (1) 
174.6

>  <PUBCHEM_COORDINATE_TYPE>  (1) 
2
5
10

$$$$
