39416
     RDKit          3D

 21 22  0  0  0  0  0  0  0  0999 V2000
   -6.5047   -2.0917   -0.3650 Cl  0  0  0  0  0  0  0  0  0  0  0  0
    1.0859   -1.5236   -0.4507 O   0  0  0  0  0  0  0  0  0  0  0  0
    1.4339    4.1801   -0.1515 O   0  0  0  0  0  0  0  0  0  0  0  0
    1.8753    0.5407    0.2710 N   0  0  0  0  0  0  0  0  0  0  0  0
    3.2555    0.1197    0.2629 C   0  0  0  0  0  0  0  0  0  0  0  0
    3.4771   -1.0298    1.2495 C   0  0  0  0  0  0  0  0  0  0  0  0
    3.6893   -0.2695   -1.1524 C   0  0  0  0  0  0  0  0  0  0  0  0
    4.9199   -1.5274    1.2177 C   0  0  0  0  0  0  0  0  0  0  0  0
    5.1313   -0.7695   -1.1813 C   0  0  0  0  0  0  0  0  0  0  0  0
    5.3510   -1.9128   -0.1945 C   0  0  0  0  0  0  0  0  0  0  0  0
    1.6316    1.9362    0.6531 C   0  0  0  0  0  0  0  0  0  0  0  0
    0.8675   -0.3618   -0.1043 C   0  0  0  0  0  0  0  0  0  0  0  0
    1.6919    2.8445   -0.5646 C   0  0  0  0  0  0  0  0  0  0  0  0
   -0.5309    0.1604   -0.1011 C   0  0  0  0  0  0  0  0  0  0  0  0
   -1.5520   -0.6865    0.0970 C   0  0  0  0  0  0  0  0  0  0  0  0
   -2.9735   -0.2985    0.0915 C   0  0  0  0  0  0  0  0  0  0  0  0
   -3.9414   -1.2690   -0.1115 C   0  0  0  0  0  0  0  0  0  0  0  0
   -3.3147    1.0298    0.2887 C   0  0  0  0  0  0  0  0  0  0  0  0
   -5.2868   -0.9011   -0.1173 C   0  0  0  0  0  0  0  0  0  0  0  0
   -4.6602    1.3977    0.2827 C   0  0  0  0  0  0  0  0  0  0  0  0
   -5.6462    0.4321    0.0798 C   0  0  0  0  0  0  0  0  0  0  0  0
  1 19  1  0
  2 12  2  0
  3 13  1  0
  4  5  1  0
  4 11  1  0
  4 12  1  0
  5  6  1  0
  5  7  1  0
  6  8  1  0
  7  9  1  0
  8 10  1  0
  9 10  1  0
 11 13  1  0
 12 14  1  0
 14 15  2  0
 15 16  1  0
 16 17  2  0
 16 18  1  0
 17 19  1  0
 18 20  2  0
 19 21  2  0
 20 21  1  0
M  END
>  <PUBCHEM_COMPOUND_CID>  (1) 
39416

>  <PUBCHEM_CONFORMER_RMSD>  (1) 
0.8

>  <PUBCHEM_CONFORMER_DIVERSEORDER>  (1) 
1
22
30
99
109
89
77
76
42
118
37
94
34
24
95
64
96
27
83
85
69
78
29
67
7
106
54
61
110
55
38
112
72
113
97
6
45
44
92
26
111
114
88
74
23
91
47
51
39
18
46
50
10
40
21
19
117
65
66
33
59
49
81
25
93
101
103
75
31
73
53
90
100
5
63
71
86
9
36
11
105
20
32
52
14
28
43
107
80
56
108
104
70
48
15
84
87
13
62
58
16
116
2
115
79
102
35
12
60
8
68
41
57
98
17
82
3
4

>  <PUBCHEM_MMFF94_PARTIAL_CHARGES>  (1) 
23
1 -0.18
11 0.3
12 0.62
13 0.28
14 -0.14
15 -0.18
16 0.03
17 -0.15
18 -0.15
19 0.18
2 -0.57
20 -0.15
21 -0.15
3 -0.68
37 0.15
38 0.15
39 0.4
4 -0.66
40 0.15
41 0.15
42 0.15
43 0.15
5 0.3

>  <PUBCHEM_EFFECTIVE_ROTOR_COUNT>  (1) 
7.2

>  <PUBCHEM_PHARMACOPHORE_FEATURES>  (1) 
5
1 2 acceptor
1 3 acceptor
1 3 donor
6 16 17 18 19 20 21 rings
6 5 6 7 8 9 10 rings

>  <PUBCHEM_HEAVY_ATOM_COUNT>  (1) 
21

>  <PUBCHEM_ATOM_DEF_STEREO_COUNT>  (1) 
0

>  <PUBCHEM_ATOM_UDEF_STEREO_COUNT>  (1) 
0

>  <PUBCHEM_BOND_DEF_STEREO_COUNT>  (1) 
0

>  <PUBCHEM_BOND_UDEF_STEREO_COUNT>  (1) 
1

>  <PUBCHEM_ISOTOPIC_ATOM_COUNT>  (1) 
0

>  <PUBCHEM_COMPONENT_COUNT>  (1) 
1

>  <PUBCHEM_CACTVS_TAUTO_COUNT>  (1) 
1

>  <PUBCHEM_CONFORMER_ID>  (1) 
000099F800000001

>  <PUBCHEM_MMFF94_ENERGY>  (1) 
46.684

>  <PUBCHEM_FEATURE_SELFOVERLAP>  (1) 
25.372

>  <PUBCHEM_SHAPE_FINGERPRINT>  (1) 
10366900 7 17603586331182309033
11405975 8 18410295856566265667
12166972 35 18202003243854917801
12236239 1 18259706679016265287
12403260 363 18412824711898630137
12516196 113 18409446969080664858
12616971 3 17846216713535839823
12633257 1 18339086999558558049
12788726 201 18043532699265879032
12916754 54 18410856603402079697
13009979 54 18130798844986288625
13167823 11 18410852196507327083
13533116 47 18263925608838718509
13675066 3 17489300893119752683
13862211 1 18410855434622615354
14251764 18 18333448751175872026
14341114 176 18412547634678189465
14950920 106 18120406309042128425
15183329 4 18408887304550611911
15196674 1 18413107286260692881
15788980 27 17346594171165634911
15885798 251 18338514145462935944
1601671 61 18341335483388004244
17349148 13 18059861661976169059
17492 89 18194120944043766235
17844677 252 18412831308878687121
1813 80 18341900658445851300
18222031 100 18412265017277114170
18681886 176 18343299296944015762
20028762 73 18201716284311225263
20369508 70 18335135423371256554
21033648 29 17059196069339118147
21267235 1 18412270558223081147
21285901 2 17986967245559055782
21315763 129 18411980261261894021
21709351 56 18412257338155144741
22950370 63 18335703793499643282
23402539 116 18412538791578020647
23522609 53 18117588178287153932
23558518 356 17834101323500250106
23559900 14 18411412956095674649
300161 21 8502381014394841043
3004659 81 18411140242234971616
312423 11 18341061816983870497
338550 245 17845933038850637175
3411729 13 18199457943836952016
345986 75 17678718052399514848
3545911 37 18272653403391192835
4214541 1 18413108347386192027
465052 167 18412547621651447406
5104073 3 18271248322072852553
542803 24 16443064989419696327
621550 34 10879724164612864538
67856867 119 18340763866428287761
7164475 11 18044659690352643348
7495541 125 18261114092538446619
8863177 126 17969518176315196011
960060 61 17967258593904309366
9709674 26 18265336290747032003
9971528 1 18341890801306204184
9981440 41 17472974481367348856

>  <PUBCHEM_SHAPE_MULTIPOLES>  (1) 
417.32
15.02
2.82
0.96
11.34
3.2
-0.03
-9.03
0.71
-1.2
0.17
-1.23
-0.19
-0.76

>  <PUBCHEM_SHAPE_SELFOVERLAP>  (1) 
850.411

>  <PUBCHEM_SHAPE_VOLUME>  (1) 
241.7

>  <PUBCHEM_COORDINATE_TYPE>  (1) 
2
5
10

$$$$
