39414
     RDKit          3D

 16 16  0  0  0  0  0  0  0  0999 V2000
   -5.4688   -0.9106    0.8717 Cl  0  0  0  0  0  0  0  0  0  0  0  0
    3.7374    2.9500    0.3514 O   0  0  0  0  0  0  0  0  0  0  0  0
    1.9645   -2.3807   -0.7518 O   0  0  0  0  0  0  0  0  0  0  0  0
    3.1905   -0.6935    0.2741 N   0  0  0  0  0  0  0  0  0  0  0  0
    3.2936    0.6507    0.8389 C   0  0  0  0  0  0  0  0  0  0  0  0
    3.6652    1.6581   -0.2374 C   0  0  0  0  0  0  0  0  0  0  0  0
    2.0246   -1.2555   -0.2539 C   0  0  0  0  0  0  0  0  0  0  0  0
    4.4290   -1.4609    0.2491 C   0  0  0  0  0  0  0  0  0  0  0  0
    0.8059   -0.3943   -0.2190 C   0  0  0  0  0  0  0  0  0  0  0  0
   -1.6807   -0.2265   -0.1654 C   0  0  0  0  0  0  0  0  0  0  0  0
   -0.4064   -0.9664   -0.1720 C   0  0  0  0  0  0  0  0  0  0  0  0
   -2.8274   -0.8524    0.2961 C   0  0  0  0  0  0  0  0  0  0  0  0
   -1.7067    1.0820   -0.6200 C   0  0  0  0  0  0  0  0  0  0  0  0
   -4.0329   -0.1508    0.3030 C   0  0  0  0  0  0  0  0  0  0  0  0
   -2.9124    1.7835   -0.6132 C   0  0  0  0  0  0  0  0  0  0  0  0
   -4.0754    1.1672   -0.1516 C   0  0  0  0  0  0  0  0  0  0  0  0
  1 14  1  0
  2  6  1  0
  3  7  2  0
  4  5  1  0
  4  7  1  0
  4  8  1  0
  5  6  1  0
  7  9  1  0
  9 11  2  0
 10 11  1  0
 10 12  2  0
 10 13  1  0
 12 14  1  0
 13 15  2  0
 14 16  2  0
 15 16  1  0
M  END
>  <PUBCHEM_COMPOUND_CID>  (1) 
39414

>  <PUBCHEM_CONFORMER_RMSD>  (1) 
0.6

>  <PUBCHEM_CONFORMER_DIVERSEORDER>  (1) 
5
85
115
55
103
23
49
117
63
100
94
91
83
59
97
10
61
90
96
52
29
81
22
93
8
116
64
86
67
73
98
78
15
62
58
40
112
84
60
109
88
80
79
89
101
99
110
50
53
27
77
72
51
43
56
45
75
68
105
34
18
113
25
82
104
42
26
76
9
87
3
36
19
114
92
35
20
38
1
111
70
4
47
102
7
21
48
16
39
44
11
6
71
41
24
57
31
17
30
107
46
2
32
12
54
108
106
13
69
66
33
14
74
65
95
28
37

>  <PUBCHEM_MMFF94_PARTIAL_CHARGES>  (1) 
23
1 -0.18
10 0.03
11 -0.18
12 -0.15
13 -0.15
14 0.18
15 -0.15
16 -0.15
2 -0.68
24 0.15
25 0.15
26 0.15
27 0.15
28 0.15
29 0.15
3 -0.57
30 0.4
4 -0.66
5 0.3
6 0.28
7 0.62
8 0.3
9 -0.14

>  <PUBCHEM_EFFECTIVE_ROTOR_COUNT>  (1) 
5

>  <PUBCHEM_PHARMACOPHORE_FEATURES>  (1) 
4
1 2 acceptor
1 2 donor
1 3 acceptor
6 10 12 13 14 15 16 rings

>  <PUBCHEM_HEAVY_ATOM_COUNT>  (1) 
16

>  <PUBCHEM_ATOM_DEF_STEREO_COUNT>  (1) 
0

>  <PUBCHEM_ATOM_UDEF_STEREO_COUNT>  (1) 
0

>  <PUBCHEM_BOND_DEF_STEREO_COUNT>  (1) 
0

>  <PUBCHEM_BOND_UDEF_STEREO_COUNT>  (1) 
1

>  <PUBCHEM_ISOTOPIC_ATOM_COUNT>  (1) 
0

>  <PUBCHEM_COMPONENT_COUNT>  (1) 
1

>  <PUBCHEM_CACTVS_TAUTO_COUNT>  (1) 
1

>  <PUBCHEM_CONFORMER_ID>  (1) 
000099F600000005

>  <PUBCHEM_MMFF94_ENERGY>  (1) 
39.5988

>  <PUBCHEM_FEATURE_SELFOVERLAP>  (1) 
20.297

>  <PUBCHEM_SHAPE_FINGERPRINT>  (1) 
10366900 7 17749398031187286010
10608611 8 18337105666255894413
11615757 297 17846499222898009731
12507557 5 18340480076358410832
13081056 2 18410293609686368257
13237642 15 18334580170015047771
13533116 47 17241036613992866859
13583140 156 17751057168173866439
14026960 21 18410292544666503724
14289901 80 18272364248664992179
14341114 176 18410294688245600538
14415576 193 18413387622938759574
14787075 74 18340204210772616467
15196674 1 18408603656188723613
18186145 218 18130231441014318895
18222031 100 16370446661262427703
19433438 28 18261110755454320339
20645477 56 18043251241569393965
21065198 57 18337953372699354343
21065199 12 18334293145624150729
21652331 79 18409166649033808605
21709351 56 18342447119808956934
22854114 59 18412825789428967275
22943178 12 18265051336683378791
23402539 116 18260827090862336495
23557571 272 18334583399751378447
23559900 14 18265891346097122755
351380 180 18335697208993070754
4214541 1 18335983056499598739
449060 50 18341615931973117015
49207404 50 18336267928658297192
5104073 3 18334297543976864513
5281201 14 18270686367977005798
5374978 207 18187366545086782931
57483677 85 18411984684466409050
6333272 397 18334574663582260866
77779 3 18409167688441897723
7808743 9 17906730663822433728
9709674 26 18410297965058266631

>  <PUBCHEM_SHAPE_MULTIPOLES>  (1) 
314.42
10.84
2.31
0.82
2.32
1.02
-0.04
0.59
-2.45
-2.29
0.15
0.11
-0.02
1.07

>  <PUBCHEM_SHAPE_SELFOVERLAP>  (1) 
630.806

>  <PUBCHEM_SHAPE_VOLUME>  (1) 
186

>  <PUBCHEM_COORDINATE_TYPE>  (1) 
2
5
10

$$$$
