39413
     RDKit          3D

 16 16  0  0  0  0  0  0  0  0999 V2000
   -6.2028    1.1993    0.1640 Cl  0  0  0  0  0  0  0  0  0  0  0  0
    5.7109    2.0569   -1.0337 O   0  0  0  0  0  0  0  0  0  0  0  0
    1.9620   -1.9617   -0.5733 O   0  0  0  0  0  0  0  0  0  0  0  0
    2.7453   -0.3542    0.9136 N   0  0  0  0  0  0  0  0  0  0  0  0
    4.9403   -0.0338   -0.1553 C   0  0  0  0  0  0  0  0  0  0  0  0
    4.1282   -0.7467    0.9179 C   0  0  0  0  0  0  0  0  0  0  0  0
    4.9469    1.4803    0.0171 C   0  0  0  0  0  0  0  0  0  0  0  0
    1.7705   -0.9994    0.1628 C   0  0  0  0  0  0  0  0  0  0  0  0
   -2.0113   -0.3773   -0.1834 C   0  0  0  0  0  0  0  0  0  0  0  0
    0.4242   -0.3861    0.3468 C   0  0  0  0  0  0  0  0  0  0  0  0
   -0.6363   -0.8952   -0.2971 C   0  0  0  0  0  0  0  0  0  0  0  0
   -2.2144    0.9146    0.2737 C   0  0  0  0  0  0  0  0  0  0  0  0
   -3.0744   -1.1930   -0.5360 C   0  0  0  0  0  0  0  0  0  0  0  0
   -3.5160    1.4043    0.3814 C   0  0  0  0  0  0  0  0  0  0  0  0
   -4.3761   -0.7033   -0.4285 C   0  0  0  0  0  0  0  0  0  0  0  0
   -4.5970    0.5954    0.0302 C   0  0  0  0  0  0  0  0  0  0  0  0
  1 16  1  0
  2  7  1  0
  3  8  2  0
  4  6  1  0
  4  8  1  0
  5  6  1  0
  5  7  1  0
  8 10  1  0
  9 11  1  0
  9 12  2  0
  9 13  1  0
 10 11  2  0
 12 14  1  0
 13 15  2  0
 14 16  2  0
 15 16  1  0
M  END
>  <PUBCHEM_COMPOUND_CID>  (1) 
39413

>  <PUBCHEM_CONFORMER_RMSD>  (1) 
0.8

>  <PUBCHEM_CONFORMER_DIVERSEORDER>  (1) 
1
10
11
7
5
12
9
6
3
8
13
4
2

>  <PUBCHEM_MMFF94_PARTIAL_CHARGES>  (1) 
23
1 -0.18
10 -0.14
11 -0.18
12 -0.15
13 -0.15
14 -0.15
15 -0.15
16 0.18
2 -0.68
23 0.37
24 0.15
25 0.15
26 0.15
27 0.15
28 0.15
29 0.15
3 -0.57
30 0.4
4 -0.73
6 0.3
7 0.28
8 0.62
9 0.03

>  <PUBCHEM_EFFECTIVE_ROTOR_COUNT>  (1) 
6

>  <PUBCHEM_PHARMACOPHORE_FEATURES>  (1) 
5
1 2 acceptor
1 2 donor
1 3 acceptor
1 4 donor
6 9 12 13 14 15 16 rings

>  <PUBCHEM_HEAVY_ATOM_COUNT>  (1) 
16

>  <PUBCHEM_ATOM_DEF_STEREO_COUNT>  (1) 
0

>  <PUBCHEM_ATOM_UDEF_STEREO_COUNT>  (1) 
0

>  <PUBCHEM_BOND_DEF_STEREO_COUNT>  (1) 
0

>  <PUBCHEM_BOND_UDEF_STEREO_COUNT>  (1) 
1

>  <PUBCHEM_ISOTOPIC_ATOM_COUNT>  (1) 
0

>  <PUBCHEM_COMPONENT_COUNT>  (1) 
1

>  <PUBCHEM_CACTVS_TAUTO_COUNT>  (1) 
2

>  <PUBCHEM_CONFORMER_ID>  (1) 
000099F500000001

>  <PUBCHEM_MMFF94_ENERGY>  (1) 
28.3173

>  <PUBCHEM_FEATURE_SELFOVERLAP>  (1) 
25.371

>  <PUBCHEM_SHAPE_FINGERPRINT>  (1) 
10014705 185 18336540530723178133
100836 57 18341895186119283474
10354089 29 17822012008484739160
10670039 82 17988092101821136544
10912923 1 18334002904508783210
12236239 1 18334573538506538007
12390115 104 17059788689649612209
12555020 224 12247679370362302005
12596602 18 17821447950282056689
13533116 47 16878499017084523770
13897977 58 18413107268969670505
13955234 65 17458614576689196754
1420 369 9223241749697344752
14251732 16 18187087303714787835
14251764 75 16591427750128720228
14252887 29 14996559539285162114
14528608 73 18341611551169804724
15048467 5 18411417302296726761
15142526 21 17751077131994183384
17834072 33 18412822503699871078
19784866 140 15195295213627909798
20374829 77 10809349936257692355
20645477 56 18271803493808903403
20645477 70 16844729703386223119
20767249 213 18409728439952331665
212847 35 18342171168476394528
21652331 79 18260545619637287164
22079108 93 17385726910694393179
2297311 6 17203613713633914169
23253445 4 15647053785309724724
23272321 79 18408323306630172281
23402539 116 18201706346125303127
23402655 69 18060414699013345207
23559900 14 17916300529040372126
23596394 208 15769505239954229748
245318 6 17388836454765656116
270888 7 17898295155122427236
300161 21 18260823783225510191
3004659 81 18130225952900923206
34797466 226 17489032664091390364
3545911 37 18202280269335056659
449060 50 18409728426534796839
465052 167 8646765616767907416
474 4 17967816097897228036
542803 24 18334853909318022491
543368 44 18337672039451497716
59682541 52 16127817348645969316
633830 44 18408036313000950662
7062679 6 18273217461203966977
77779 3 18271523113305463947
960060 61 12895074059291543480

>  <PUBCHEM_SHAPE_MULTIPOLES>  (1) 
314.42
14.59
1.74
0.83
4.83
0.34
0.01
7.51
-0.93
0.99
-0.31
0.55
0.04
-1.26

>  <PUBCHEM_SHAPE_SELFOVERLAP>  (1) 
628.617

>  <PUBCHEM_SHAPE_VOLUME>  (1) 
185.4

>  <PUBCHEM_COORDINATE_TYPE>  (1) 
2
5
10

$$$$
