39419
     RDKit          3D

 19 19  0  0  0  0  0  0  0  0999 V2000
   -3.3267    0.5137   -0.4436 O   0  0  0  0  0  0  0  0  0  0  0  0
   -4.5055   -1.3496   -0.2535 O   0  0  0  0  0  0  0  0  0  0  0  0
    0.4306    2.6418    0.7455 O   0  0  0  0  0  0  0  0  0  0  0  0
   -4.7793    0.2997    1.3334 O   0  0  0  0  0  0  0  0  0  0  0  0
   -0.7158    1.5824   -0.9768 N   0  0  0  0  0  0  0  0  0  0  0  0
   -1.9144    2.3900   -0.9368 C   0  0  0  0  0  0  0  0  0  0  0  0
   -2.9482    1.8071    0.0093 C   0  0  0  0  0  0  0  0  0  0  0  0
    3.7173   -0.0684    0.1958 C   0  0  0  0  0  0  0  0  0  0  0  0
    0.3582    1.7815   -0.1260 C   0  0  0  0  0  0  0  0  0  0  0  0
    2.5739    0.8471    0.3570 C   0  0  0  0  0  0  0  0  0  0  0  0
    1.4575    0.8086   -0.3852 C   0  0  0  0  0  0  0  0  0  0  0  0
    3.8739   -0.7544   -0.9977 C   0  0  0  0  0  0  0  0  0  0  0  0
    4.6134   -0.2254    1.2408 C   0  0  0  0  0  0  0  0  0  0  0  0
    4.9559   -1.6213   -1.1503 C   0  0  0  0  0  0  0  0  0  0  0  0
    5.6955   -1.0923    1.0880 C   0  0  0  0  0  0  0  0  0  0  0  0
    5.8667   -1.7902   -0.1076 C   0  0  0  0  0  0  0  0  0  0  0  0
   -5.4679   -2.1652    0.4230 C   0  0  0  0  0  0  0  0  0  0  0  0
   -4.2581   -0.1368    0.3160 C   0  0  0  0  0  0  0  0  0  0  0  0
   -5.6270   -3.4681   -0.3310 C   0  0  0  0  0  0  0  0  0  0  0  0
  1  7  1  0
  1 18  1  0
  2 17  1  0
  2 18  1  0
  3  9  2  0
  4 18  2  0
  5  6  1  0
  5  9  1  0
  6  7  1  0
  8 10  1  0
  8 12  2  0
  8 13  1  0
  9 11  1  0
 10 11  2  0
 12 14  1  0
 13 15  2  0
 14 16  2  0
 15 16  1  0
 17 19  1  0
M  END
>  <PUBCHEM_COMPOUND_CID>  (1) 
39419

>  <PUBCHEM_CONFORMER_RMSD>  (1) 
0.8

>  <PUBCHEM_CONFORMER_DIVERSEORDER>  (1) 
1
23
15
90
39
11
13
62
86
40
41
51
33
30
19
84
46
37
68
56
88
69
87
47
76
29
32
52
70
18
49
12
89
92
61
58
71
26
24
74
21
31
35
36
17
5
91
83
53
77
80
64
43
55
2
66
81
45
50
48
4
78
25
9
72
16
85
8
63
22
28
14
60
6
79
75
54
67
42
65
34
3
27
20
57
73
59
10
44
82
7
38

>  <PUBCHEM_MMFF94_PARTIAL_CHARGES>  (1) 
26
1 -0.43
10 -0.18
11 -0.14
12 -0.15
13 -0.15
14 -0.15
15 -0.15
16 -0.15
17 0.28
18 0.87
2 -0.43
24 0.37
25 0.15
26 0.15
27 0.15
28 0.15
29 0.15
3 -0.57
30 0.15
31 0.15
4 -0.57
5 -0.73
6 0.3
7 0.28
8 0.03
9 0.62

>  <PUBCHEM_EFFECTIVE_ROTOR_COUNT>  (1) 
9

>  <PUBCHEM_PHARMACOPHORE_FEATURES>  (1) 
3
1 3 acceptor
1 5 donor
6 8 12 13 14 15 16 rings

>  <PUBCHEM_HEAVY_ATOM_COUNT>  (1) 
19

>  <PUBCHEM_ATOM_DEF_STEREO_COUNT>  (1) 
0

>  <PUBCHEM_ATOM_UDEF_STEREO_COUNT>  (1) 
0

>  <PUBCHEM_BOND_DEF_STEREO_COUNT>  (1) 
0

>  <PUBCHEM_BOND_UDEF_STEREO_COUNT>  (1) 
1

>  <PUBCHEM_ISOTOPIC_ATOM_COUNT>  (1) 
0

>  <PUBCHEM_COMPONENT_COUNT>  (1) 
1

>  <PUBCHEM_CACTVS_TAUTO_COUNT>  (1) 
2

>  <PUBCHEM_CONFORMER_ID>  (1) 
000099FB00000001

>  <PUBCHEM_MMFF94_ENERGY>  (1) 
33.6806

>  <PUBCHEM_FEATURE_SELFOVERLAP>  (1) 
15.223

>  <PUBCHEM_SHAPE_FINGERPRINT>  (1) 
10042902 136 18335143128431926375
10378564 45 11025786571345473480
10968037 57 18409732902570993363
10981352 41 18059857328602678959
11197282 1 18410577322642669015
11796584 16 18263918848159573268
11809386 21 17967808311042353905
12596602 18 17775286075202026610
13103583 49 18059871544975687345
13740256 8 18411700967786126516
1420 369 18408605876675941293
14216079 64 18410292558416945567
14251740 57 18412547634915813092
14251751 18 18409728452404612948
14251764 30 18411136935126432738
14848178 5 18410288142556978015
14950920 106 17203328953033745819
15188451 53 18059851814196577007
15348495 7 18131628976112064281
15537594 2 18040719117508142523
15880784 105 18341615940373297561
17138139 8 17894625955200750282
17780758 139 18059859437494489369
193927 3 18333739004532901192
20028762 73 18341611555059447751
20281389 69 10447920677013833284
20403669 9 18408888459944365263
20621476 21 18270689671092082870
20621476 91 18337379505123455952
20843269 155 18335412482753010698
21054139 6 17822010862008293274
21315759 148 17917711271399240586
21401589 2 11600013171818725959
21585480 29 17270301429899524047
229767 44 17988360485505784775
23402539 116 15937259876498659652
270888 7 9871483010497547451
2748736 6 10375604655058124739
2838139 119 8502373304253226996
3014063 24 18200306749559788231
3089732 80 18411421691569024846
312425 54 17988650649042325819
316301 35 18338514265210414827
351380 3 17967537852466846937
5104073 3 18202565098665856625
559249 180 18408885140762495723
59682541 52 13984924234721975002
6712543 237 16558480781239397223
7062679 13 18407757045009279803
7970288 3 18335698377514871219
8863177 126 18342457032788641326

>  <PUBCHEM_SHAPE_MULTIPOLES>  (1) 
362.55
16.54
3.22
1.12
3.02
0.94
0.06
16.63
2.13
4.84
-0.47
-0.76
0.02
0.46

>  <PUBCHEM_SHAPE_SELFOVERLAP>  (1) 
732.223

>  <PUBCHEM_SHAPE_VOLUME>  (1) 
210.9

>  <PUBCHEM_COORDINATE_TYPE>  (1) 
2
5
10

$$$$
