3941
     RDKit          3D

 21 24  0  0  0  0  0  0  0  0999 V2000
    2.7285   -2.0887    0.0000 N   0  0  0  0  0  0  0  0  0  0  0  0
    2.1582    0.4609    0.0000 C   0  0  0  0  0  0  0  0  0  0  0  0
    2.9744    0.0706   -1.2436 C   0  0  0  0  0  0  0  0  0  0  0  0
    2.9737    0.0704    1.2443 C   0  0  0  0  0  0  0  0  0  0  0  0
    0.9178   -0.4062   -0.0002 C   0  0  0  0  0  0  0  0  0  0  0  0
    3.2992   -1.4367   -1.2026 C   0  0  0  0  0  0  0  0  0  0  0  0
    3.2996   -1.4366    1.2025 C   0  0  0  0  0  0  0  0  0  0  0  0
    1.2544   -1.8805    0.0001 C   0  0  0  0  0  0  0  0  0  0  0  0
   -0.3340    0.0676    0.0003 C   0  0  0  0  0  0  0  0  0  0  0  0
   -0.5344    1.5429   -0.0001 C   0  0  0  0  0  0  0  0  0  0  0  0
   -1.4601   -0.9065    0.0002 C   0  0  0  0  0  0  0  0  0  0  0  0
   -0.6238    2.2001    1.2080 C   0  0  0  0  0  0  0  0  0  0  0  0
   -1.9614   -1.3404   -1.2079 C   0  0  0  0  0  0  0  0  0  0  0  0
   -0.6236    2.1999   -1.2082 C   0  0  0  0  0  0  0  0  0  0  0  0
   -1.9618   -1.3402    1.2082 C   0  0  0  0  0  0  0  0  0  0  0  0
   -0.8119    3.5822    1.2078 C   0  0  0  0  0  0  0  0  0  0  0  0
   -3.0165   -2.2527   -1.2081 C   0  0  0  0  0  0  0  0  0  0  0  0
   -0.8115    3.5821   -1.2081 C   0  0  0  0  0  0  0  0  0  0  0  0
   -3.0170   -2.2526    1.2078 C   0  0  0  0  0  0  0  0  0  0  0  0
   -0.9057    4.2731    0.0000 C   0  0  0  0  0  0  0  0  0  0  0  0
   -3.5442   -2.7088   -0.0003 C   0  0  0  0  0  0  0  0  0  0  0  0
  1  6  1  0
  1  7  1  0
  1  8  1  0
  2  3  1  0
  2  4  1  0
  2  5  1  0
  3  6  1  0
  4  7  1  0
  5  8  1  0
  5  9  2  3
  9 10  1  0
  9 11  1  0
 10 12  2  0
 10 14  1  0
 11 13  2  0
 11 15  1  0
 12 16  1  0
 13 17  1  0
 14 18  2  0
 15 19  2  0
 16 20  2  0
 17 21  2  0
 18 20  1  0
 19 21  1  0
M  END
>  <PUBCHEM_COMPOUND_CID>  (1) 
3941

>  <PUBCHEM_CONFORMER_RMSD>  (1) 
0.6

>  <PUBCHEM_CONFORMER_DIVERSEORDER>  (1) 
1

>  <PUBCHEM_MMFF94_PARTIAL_CHARGES>  (1) 
29
1 -0.81
10 0.03
11 0.03
12 -0.15
13 -0.15
14 -0.15
15 -0.15
16 -0.15
17 -0.15
18 -0.15
19 -0.15
2 0.14
20 -0.15
21 -0.15
33 0.15
34 0.15
35 0.15
36 0.15
37 0.15
38 0.15
39 0.15
40 0.15
41 0.15
42 0.15
5 -0.28
6 0.27
7 0.27
8 0.41
9 -0.06

>  <PUBCHEM_EFFECTIVE_ROTOR_COUNT>  (1) 
3

>  <PUBCHEM_PHARMACOPHORE_FEATURES>  (1) 
4
1 1 cation
6 10 12 14 16 18 20 rings
6 11 13 15 17 19 21 rings
8 1 2 3 4 5 6 7 8 rings

>  <PUBCHEM_HEAVY_ATOM_COUNT>  (1) 
21

>  <PUBCHEM_ATOM_DEF_STEREO_COUNT>  (1) 
0

>  <PUBCHEM_ATOM_UDEF_STEREO_COUNT>  (1) 
0

>  <PUBCHEM_BOND_DEF_STEREO_COUNT>  (1) 
0

>  <PUBCHEM_BOND_UDEF_STEREO_COUNT>  (1) 
0

>  <PUBCHEM_ISOTOPIC_ATOM_COUNT>  (1) 
0

>  <PUBCHEM_COMPONENT_COUNT>  (1) 
1

>  <PUBCHEM_CACTVS_TAUTO_COUNT>  (1) 
1

>  <PUBCHEM_CONFORMER_ID>  (1) 
00000F6500000001

>  <PUBCHEM_MMFF94_ENERGY>  (1) 
73.7222

>  <PUBCHEM_FEATURE_SELFOVERLAP>  (1) 
20.297

>  <PUBCHEM_SHAPE_FINGERPRINT>  (1) 
11101153 10 18263942076255431292
11578080 2 17631432575372976793
121448 382 17765406782948842181
12160290 23 18266459789371452101
12553582 1 18339088201685333099
12592029 89 9870931029806178223
12643181 29 17476925650271469006
12707595 3 18190743244022577555
12730499 353 16896243812071424489
12788726 201 18263636277897520187
13004483 165 18411135814461709115
13134695 92 18120356899105442311
13140716 1 18410290311230665035
133893 2 17546986981383030567
13681431 1 18121784086578108249
13878862 14 18121775295951418563
13911987 19 17754759430684184358
14178342 30 18119518852608232266
14181834 199 17693082372662320519
14955137 171 17836383905149003218
15309172 13 17471019077357302196
15906896 17 18121784928497193335
16752209 62 18048025286190790153
16945 1 18266740181889654208
1813 80 18127712601645993431
18785283 64 17613442563941112347
19591789 44 16751006632286308498
20567600 347 17472135077628154813
20600515 1 18114736157020017330
20739085 24 18198086826365652171
21304303 282 17396650412751042372
21524375 3 17545318584051411397
21731228 192 17618225009518884144
22112679 90 18052855612491323553
2255824 54 17763466514324315783
22907989 373 18266752298077091916
23419403 2 17395804025089577484
23557571 272 18340192025776213710
23558518 356 17905882587610437367
2748010 2 18341317989706652269
283562 15 18408324389310395962
3084891 72 17116915817350855586
3091708 16 9207866182930361793
350125 39 17762629386506560057
3729539 64 17393628182168518732
404807 78 17460577149585326237
458136 41 16971131565996973465
484985 159 15182138298412409158
495365 180 17617651498937200911
5845 1 9686392201718122021
6442390 28 17765447447878620569
6443956 14 18268710700380075745
6786 2 17261912873528159213
70251023 43 18340781398448113686
7364860 26 17764877183500337677
81228 2 18337388240791718609
84936 182 17407407296394653609
84936 31 17693653032192801621
9981440 41 17124742343070252874

>  <PUBCHEM_SHAPE_MULTIPOLES>  (1) 
427.19
5.25
4.9
1.46
1.78
6.98
0
-6.67
0
0.03
0
-0.04
0.1
0

>  <PUBCHEM_SHAPE_SELFOVERLAP>  (1) 
943.745

>  <PUBCHEM_SHAPE_VOLUME>  (1) 
223.7

>  <PUBCHEM_COORDINATE_TYPE>  (1) 
2
5
10

$$$$
