39427
     RDKit          3D

 20 21  0  0  0  0  0  0  0  0999 V2000
    1.1079    0.3537   -2.3415 O   0  0  0  0  0  0  0  0  0  0  0  0
    2.0910    1.6888    1.9850 O   0  0  0  0  0  0  0  0  0  0  0  0
   -3.5433    1.3684    0.8781 O   0  0  0  0  0  0  0  0  0  0  0  0
    1.3355    1.3725   -0.2277 N   0  0  0  0  0  0  0  0  0  0  0  0
   -3.6482   -0.2489   -0.7844 N   0  0  0  0  0  0  0  0  0  0  0  0
    0.4653    2.5054   -0.3810 C   0  0  0  0  0  0  0  0  0  0  0  0
   -0.9485    2.2268    0.1252 C   0  0  0  0  0  0  0  0  0  0  0  0
   -1.6587    1.0944   -0.6186 C   0  0  0  0  0  0  0  0  0  0  0  0
    2.5101   -0.5322   -0.6478 C   0  0  0  0  0  0  0  0  0  0  0  0
    2.8037   -0.1316    0.6474 C   0  0  0  0  0  0  0  0  0  0  0  0
    1.5640    0.4275   -1.2155 C   0  0  0  0  0  0  0  0  0  0  0  0
    2.0495    1.0902    0.9262 C   0  0  0  0  0  0  0  0  0  0  0  0
   -3.0452    0.7827   -0.0793 C   0  0  0  0  0  0  0  0  0  0  0  0
    3.0701   -1.6622   -1.2072 C   0  0  0  0  0  0  0  0  0  0  0  0
    3.6728   -0.8399    1.4513 C   0  0  0  0  0  0  0  0  0  0  0  0
   -4.9607   -0.7556   -0.4570 C   0  0  0  0  0  0  0  0  0  0  0  0
   -4.8520   -1.8948    0.5533 C   0  0  0  0  0  0  0  0  0  0  0  0
    3.9546   -2.3956   -0.4111 C   0  0  0  0  0  0  0  0  0  0  0  0
    4.2528   -1.9885    0.9054 C   0  0  0  0  0  0  0  0  0  0  0  0
   -6.2206   -2.4610    0.8989 C   0  0  0  0  0  0  0  0  0  0  0  0
  1 11  2  0
  2 12  2  0
  3 13  2  0
  4  6  1  0
  4 11  1  0
  4 12  1  0
  5 13  1  0
  5 16  1  0
  6  7  1  0
  7  8  1  0
  8 13  1  0
  9 10  2  0
  9 11  1  0
  9 14  1  0
 10 12  1  0
 10 15  1  0
 14 18  2  0
 15 19  2  0
 16 17  1  0
 17 20  1  0
 18 19  1  0
M  END
>  <PUBCHEM_COMPOUND_CID>  (1) 
39427

>  <PUBCHEM_CONFORMER_RMSD>  (1) 
0.8

>  <PUBCHEM_CONFORMER_DIVERSEORDER>  (1) 
1
27
44
66
74
73
78
76
68
69
24
55
48
17
77
61
81
64
39
67
65
71
51
36
79
58
62
52
72
70
16
4
35
30
11
18
23
9
34
53
38
75
21
82
80
22
28
60
40
14
20
59
25
57
7
41
45
47
5
54
12
42
6
63
3
15
32
43
56
31
2
46
26
10
49
29
8
50
19
33
37
13

>  <PUBCHEM_MMFF94_PARTIAL_CHARGES>  (1) 
22
1 -0.57
10 0.09
11 0.54
12 0.54
13 0.57
14 -0.15
15 -0.15
16 0.3
18 -0.15
19 -0.15
2 -0.57
27 0.15
28 0.15
3 -0.57
31 0.37
34 0.15
35 0.15
4 -0.42
5 -0.73
6 0.3
8 0.06
9 0.09

>  <PUBCHEM_EFFECTIVE_ROTOR_COUNT>  (1) 
7.2

>  <PUBCHEM_PHARMACOPHORE_FEATURES>  (1) 
7
1 1 acceptor
1 2 acceptor
1 20 hydrophobe
1 3 acceptor
1 5 donor
5 4 9 10 11 12 rings
6 9 10 14 15 18 19 rings

>  <PUBCHEM_HEAVY_ATOM_COUNT>  (1) 
20

>  <PUBCHEM_ATOM_DEF_STEREO_COUNT>  (1) 
0

>  <PUBCHEM_ATOM_UDEF_STEREO_COUNT>  (1) 
0

>  <PUBCHEM_BOND_DEF_STEREO_COUNT>  (1) 
0

>  <PUBCHEM_BOND_UDEF_STEREO_COUNT>  (1) 
0

>  <PUBCHEM_ISOTOPIC_ATOM_COUNT>  (1) 
0

>  <PUBCHEM_COMPONENT_COUNT>  (1) 
1

>  <PUBCHEM_CACTVS_TAUTO_COUNT>  (1) 
2

>  <PUBCHEM_CONFORMER_ID>  (1) 
00009A0300000001

>  <PUBCHEM_MMFF94_ENERGY>  (1) 
29.1596

>  <PUBCHEM_FEATURE_SELFOVERLAP>  (1) 
35.613

>  <PUBCHEM_SHAPE_FINGERPRINT>  (1) 
10042902 136 18335428906839624462
10498660 4 8430315740712820951
10764073 3 11073809794525306900
11720765 8 11387458839322066696
11796584 16 18189046491284715295
12363563 72 18408609140961901533
12633257 1 16630238195173921599
12892183 10 17703497814442213016
13103583 49 18129669569260888291
13965767 371 12535352259584633649
14178342 30 18058461902423182725
1420 369 18408887352095984555
14251740 57 18341619264905181727
14251751 18 18113329813139760731
14251764 38 10446001995407769931
14341114 328 15195275465220420859
14537116 161 13696405839187877087
14848178 5 18260259742334824779
14848178 96 8935009174332577391
15163728 17 10806780463583114082
15342816 4 17967809397700695610
18186145 218 12614188291827342700
193927 3 18411421704801709527
1979834 28 17632311077048908351
20403669 9 18409729556501787079
20626108 58 17967530147142504580
21864079 5 10087642589744336557
23503958 8 18340770351754889609
25222932 49 17979925126786241431
270888 7 10447927269910497531
2748010 2 15404400099476573308
3009799 131 11963672163329100160
316301 35 18408599262337135242
3472631 163 9727636090431859851
44062 13 18113893837319958879
5104073 3 18273218599586396777
7064713 232 15984821575630019327
7808743 9 10447627119983148786
7970288 3 18261672567326674875
88748 71 18260552234176956379
960060 61 15068617197673837031

>  <PUBCHEM_SHAPE_MULTIPOLES>  (1) 
384.02
11.41
2.9
1.52
17.24
0.3
-0.1
11.65
2.57
0.63
0.45
-1.19
-0.09
0.89

>  <PUBCHEM_SHAPE_SELFOVERLAP>  (1) 
805.498

>  <PUBCHEM_SHAPE_VOLUME>  (1) 
218.9

>  <PUBCHEM_COORDINATE_TYPE>  (1) 
2
5
10

$$$$
