39430
     RDKit          3D

 11 10  0  0  1  0  0  0  0  0999 V2000
    2.5874    0.0353   -0.0223 P   0  0  0  0  0  0  0  0  0  0  0  0
    2.5312    0.8589    1.3158 F   0  0  0  0  0  0  0  0  0  0  0  0
    1.1404    0.3114   -0.6893 O   0  0  0  0  0  0  0  0  0  0  0  0
    3.7256    0.5232   -0.8730 O   0  0  0  0  0  0  0  0  0  0  0  0
   -2.5152    0.0033   -0.0055 N   0  0  0  0  0  0  0  0  0  0  0  0
   -1.2574    0.3280   -0.7984 C   0  0  0  0  0  0  0  0  0  0  0  0
   -2.5105    0.7891    1.2978 C   0  0  0  0  0  0  0  0  0  0  0  0
   -3.7418    0.3831   -0.8225 C   0  0  0  0  0  0  0  0  0  0  0  0
   -2.5513   -1.4870    0.3009 C   0  0  0  0  0  0  0  0  0  0  0  0
   -0.0383   -0.0231    0.0314 C   0  0  0  0  0  0  0  0  0  0  0  0
    2.6297   -1.7224    0.2652 C   0  0  0  0  0  0  0  0  0  0  0  0
  1  2  1  0
  1  3  1  0
  1  4  2  0
  1 11  1  0
  3 10  1  0
  5  6  1  0
  5  7  1  0
  5  8  1  0
  5  9  1  0
  6 10  1  0
M  CHG  1   5   1
M  END
>  <PUBCHEM_COMPOUND_CID>  (1) 
39430

>  <PUBCHEM_CONFORMER_RMSD>  (1) 
0.6

>  <PUBCHEM_CONFORMER_DIVERSEORDER>  (1) 
2
24
7
4
23
9
5
14
20
3
12
6
10
22
1
17
13
18
25
11
26
21
8
16
19
15

>  <PUBCHEM_MMFF94_PARTIAL_CHARGES>  (1) 
10
1 1.3
10 0.28
2 -0.33
3 -0.55
4 -0.7
5 -1.01
6 0.5
7 0.5
8 0.5
9 0.5

>  <PUBCHEM_EFFECTIVE_ROTOR_COUNT>  (1) 
4

>  <PUBCHEM_PHARMACOPHORE_FEATURES>  (1) 
1
1 5 cation

>  <PUBCHEM_HEAVY_ATOM_COUNT>  (1) 
11

>  <PUBCHEM_ATOM_DEF_STEREO_COUNT>  (1) 
0

>  <PUBCHEM_ATOM_UDEF_STEREO_COUNT>  (1) 
1

>  <PUBCHEM_BOND_DEF_STEREO_COUNT>  (1) 
0

>  <PUBCHEM_BOND_UDEF_STEREO_COUNT>  (1) 
0

>  <PUBCHEM_ISOTOPIC_ATOM_COUNT>  (1) 
0

>  <PUBCHEM_COMPONENT_COUNT>  (1) 
1

>  <PUBCHEM_CACTVS_TAUTO_COUNT>  (1) 
1

>  <PUBCHEM_CONFORMER_ID>  (1) 
00009A0600000002

>  <PUBCHEM_MMFF94_ENERGY>  (1) 
25.4252

>  <PUBCHEM_FEATURE_SELFOVERLAP>  (1) 
5.074

>  <PUBCHEM_SHAPE_FINGERPRINT>  (1) 
11062470 55 16877660166879451589
12162725 195 17275102816820322913
12500047 106 18335414673259658215
12932764 1 18202841058698252148
13296908 3 17022910033680305403
14144814 61 18131634460811330178
14325111 11 18186239528230116903
15775835 57 18260832596108193323
190213 19 18343868826924263692
20279233 1 17240486892148111906
20281407 28 18260267447115471453
20528008 55 18412820292050195999
20645477 70 18041836208084210758
20711985 344 16517364362801307116
22169311 21 18336536179441428151
3248919 1 18202285775219366607
581208 293 18186796980989506482
8030462 33 18202002114040868680

>  <PUBCHEM_SHAPE_MULTIPOLES>  (1) 
206.23
6.87
1.26
1.1
0.98
0.71
-0.32
-0.22
0.44
0.27
-0.07
-0.23
-0.3
-0.03

>  <PUBCHEM_SHAPE_SELFOVERLAP>  (1) 
360.875

>  <PUBCHEM_SHAPE_VOLUME>  (1) 
139.7

>  <PUBCHEM_COORDINATE_TYPE>  (1) 
2
5
10

$$$$
