39439
     RDKit          3D

 12 12  0  0  0  0  0  0  0  0999 V2000
    4.8416   -0.0261    0.5653 Br  0  0  0  0  0  0  0  0  0  0  0  0
   -2.0214    0.0460    0.4349 N   0  0  0  0  0  0  0  0  0  0  0  0
   -4.1558    0.0130    1.3283 N   0  0  0  0  0  0  0  0  0  0  0  0
   -3.9856   -0.0679   -0.9432 N   0  0  0  0  0  0  0  0  0  0  0  0
    0.2727    0.0136   -0.4462 C   0  0  0  0  0  0  0  0  0  0  0  0
   -1.1831    0.0265   -0.7703 C   0  0  0  0  0  0  0  0  0  0  0  0
    0.9665    1.2155   -0.3063 C   0  0  0  0  0  0  0  0  0  0  0  0
    0.9405   -1.2003   -0.2841 C   0  0  0  0  0  0  0  0  0  0  0  0
    2.3282    1.2035   -0.0044 C   0  0  0  0  0  0  0  0  0  0  0  0
    2.3023   -1.2123    0.0178 C   0  0  0  0  0  0  0  0  0  0  0  0
    2.9962   -0.0103    0.1577 C   0  0  0  0  0  0  0  0  0  0  0  0
   -3.3021   -0.0012    0.2505 C   0  0  0  0  0  0  0  0  0  0  0  0
  1 11  1  0
  2  6  1  0
  2 12  2  3
  3 12  1  0
  4 12  1  0
  5  6  1  0
  5  7  2  0
  5  8  1  0
  7  9  1  0
  8 10  2  0
  9 11  2  0
 10 11  1  0
M  END
>  <PUBCHEM_COMPOUND_CID>  (1) 
39439

>  <PUBCHEM_CONFORMER_RMSD>  (1) 
0.6

>  <PUBCHEM_CONFORMER_DIVERSEORDER>  (1) 
1
2
3

>  <PUBCHEM_MMFF94_PARTIAL_CHARGES>  (1) 
20
1 -0.11
10 -0.15
11 0.11
12 0.55
15 0.15
16 0.15
17 0.15
18 0.15
19 0.4
2 -0.7
20 0.4
21 0.4
22 0.4
3 -0.85
4 -0.85
5 -0.14
6 0.39
7 -0.15
8 -0.15
9 -0.15

>  <PUBCHEM_EFFECTIVE_ROTOR_COUNT>  (1) 
2

>  <PUBCHEM_PHARMACOPHORE_FEATURES>  (1) 
5
1 1 hydrophobe
1 3 donor
1 4 donor
4 2 3 4 12 cation
6 5 7 8 9 10 11 rings

>  <PUBCHEM_HEAVY_ATOM_COUNT>  (1) 
12

>  <PUBCHEM_ATOM_DEF_STEREO_COUNT>  (1) 
0

>  <PUBCHEM_ATOM_UDEF_STEREO_COUNT>  (1) 
0

>  <PUBCHEM_BOND_DEF_STEREO_COUNT>  (1) 
0

>  <PUBCHEM_BOND_UDEF_STEREO_COUNT>  (1) 
0

>  <PUBCHEM_ISOTOPIC_ATOM_COUNT>  (1) 
0

>  <PUBCHEM_COMPONENT_COUNT>  (1) 
1

>  <PUBCHEM_CACTVS_TAUTO_COUNT>  (1) 
2

>  <PUBCHEM_CONFORMER_ID>  (1) 
00009A0F00000001

>  <PUBCHEM_MMFF94_ENERGY>  (1) 
32.2934

>  <PUBCHEM_FEATURE_SELFOVERLAP>  (1) 
25.427

>  <PUBCHEM_SHAPE_FINGERPRINT>  (1) 
10219947 1 18409446990254801516
10465860 250 17167855357620373212
11062470 55 14129058110305893886
11471102 20 18409725171223737252
12032990 46 18262236617307947814
12251169 10 18410294726377988667
124424 183 17676199174144367389
12500047 106 16732974324048136379
14252887 29 18409733924425355578
14943859 89 14764342752080950358
15775835 57 17275106123934519811
200 152 18272076202593884941
20201158 50 18114181917044000811
20279233 1 17821729425279956519
20281407 28 17167865235833994995
20645477 70 18264194834226355695
20871998 22 18268153046290324054
22485316 2 16370720426746123994
23402539 116 14129052617116789622
23402655 69 18342165636279169901
23557571 272 16660914479215159550
265663 24 16702016491730674148
26918003 58 18260833704800326977
2748010 2 18051398579728403990

>  <PUBCHEM_SHAPE_MULTIPOLES>  (1) 
237.95
8.48
1.11
0.92
2.78
0.01
-0.11
-0.13
-2.3
-0.79
0.08
0.66
0
-0.02

>  <PUBCHEM_SHAPE_SELFOVERLAP>  (1) 
473.288

>  <PUBCHEM_SHAPE_VOLUME>  (1) 
144.5

>  <PUBCHEM_COORDINATE_TYPE>  (1) 
2
5
10

$$$$
