39449
     RDKit          3D

 14 14  0  0  0  0  0  0  0  0999 V2000
    5.2750    0.7955   -0.6473 Cl  0  0  0  0  0  0  0  0  0  0  0  0
   -0.2178   -0.6666    0.8245 O   0  0  0  0  0  0  0  0  0  0  0  0
   -2.6790    0.1855   -0.2728 N   0  0  0  0  0  0  0  0  0  0  0  0
   -4.2382    1.8814   -0.5140 N   0  0  0  0  0  0  0  0  0  0  0  0
   -5.0276   -0.1720    0.0824 N   0  0  0  0  0  0  0  0  0  0  0  0
   -0.9356   -1.4983   -0.0859 C   0  0  0  0  0  0  0  0  0  0  0  0
   -2.4221   -1.2218    0.0451 C   0  0  0  0  0  0  0  0  0  0  0  0
    1.0549   -0.3272    0.4819 C   0  0  0  0  0  0  0  0  0  0  0  0
    1.8237   -1.1952   -0.2932 C   0  0  0  0  0  0  0  0  0  0  0  0
    1.5910    0.8880    0.9080 C   0  0  0  0  0  0  0  0  0  0  0  0
    3.1288   -0.8480   -0.6423 C   0  0  0  0  0  0  0  0  0  0  0  0
    2.8961    1.2353    0.5587 C   0  0  0  0  0  0  0  0  0  0  0  0
    3.6650    0.3672   -0.2164 C   0  0  0  0  0  0  0  0  0  0  0  0
   -3.9139    0.5760   -0.2287 C   0  0  0  0  0  0  0  0  0  0  0  0
  1 13  1  0
  2  6  1  0
  2  8  1  0
  3  7  1  0
  3 14  2  3
  4 14  1  0
  5 14  1  0
  6  7  1  0
  8  9  2  0
  8 10  1  0
  9 11  1  0
 10 12  2  0
 11 13  2  0
 12 13  1  0
M  END
>  <PUBCHEM_COMPOUND_CID>  (1) 
39449

>  <PUBCHEM_CONFORMER_RMSD>  (1) 
0.6

>  <PUBCHEM_CONFORMER_DIVERSEORDER>  (1) 
1
26
13
51
16
34
10
49
20
48
24
4
39
14
42
5
8
21
46
27
9
41
11
2
12
15
47
40
31
37
18
33
17
25
38
3
50
32
30
45
6
7
28
22
43
36
19
23
29
52
44
35

>  <PUBCHEM_MMFF94_PARTIAL_CHARGES>  (1) 
22
1 -0.18
10 -0.15
11 -0.15
12 -0.15
13 0.18
14 0.55
19 0.15
2 -0.36
20 0.15
21 0.15
22 0.15
23 0.4
24 0.4
25 0.4
26 0.4
3 -0.7
4 -0.85
5 -0.85
6 0.28
7 0.25
8 0.08
9 -0.15

>  <PUBCHEM_EFFECTIVE_ROTOR_COUNT>  (1) 
4

>  <PUBCHEM_PHARMACOPHORE_FEATURES>  (1) 
5
1 2 acceptor
1 4 donor
1 5 donor
4 3 4 5 14 cation
6 8 9 10 11 12 13 rings

>  <PUBCHEM_HEAVY_ATOM_COUNT>  (1) 
14

>  <PUBCHEM_ATOM_DEF_STEREO_COUNT>  (1) 
0

>  <PUBCHEM_ATOM_UDEF_STEREO_COUNT>  (1) 
0

>  <PUBCHEM_BOND_DEF_STEREO_COUNT>  (1) 
0

>  <PUBCHEM_BOND_UDEF_STEREO_COUNT>  (1) 
0

>  <PUBCHEM_ISOTOPIC_ATOM_COUNT>  (1) 
0

>  <PUBCHEM_COMPONENT_COUNT>  (1) 
1

>  <PUBCHEM_CACTVS_TAUTO_COUNT>  (1) 
2

>  <PUBCHEM_CONFORMER_ID>  (1) 
00009A1900000001

>  <PUBCHEM_MMFF94_ENERGY>  (1) 
42.2683

>  <PUBCHEM_FEATURE_SELFOVERLAP>  (1) 
25.427

>  <PUBCHEM_SHAPE_FINGERPRINT>  (1) 
100836 57 18259990383265450084
10498660 4 18187918418631382125
10608611 8 18269550696824288401
11401426 45 17917429861147648058
11471102 20 18202284697630948582
12251169 10 12324242775740117626
12500047 106 18340205288514320358
12670543 26 18271538528834139628
12815109 37 9871753490041092459
13081056 2 18412543219583794721
14252887 29 13190329154903048840
14911166 2 17989494039053962038
14993402 34 16559036004065798862
177051 138 9943806694306121162
17834072 8 18130796668017526756
18186145 218 17774999102936026515
200 152 16056886822956640330
20645477 56 18410294743890277715
20645477 70 17846507993474988262
20671657 53 13182734862101936179
20871999 31 18059569256403064703
21119208 17 17203611497014006022
212847 35 18334572413077374528
21637258 2 14117250408518950660
221357 26 18059852849020159033
22485316 2 10375870775325570779
22926399 65 18408323293634598024
231179 274 18411136935389800014
23402539 116 18334289903372189790
23402655 69 18130506357618036581
23557571 272 18340496680480755791
23559900 14 17846499270997146906
25 1 18412823577505316822
276578 36 16950277391019453834
32948 21 18410859858855194076
3545911 37 18342178886026346307
4028521 119 18411697664977238465
4047638 21 18260832600840848114
4072396 5 18272923909290740922
58051976 100 17702941560490720279
6430166 295 18409722950335248546
76465 3 12319469749025769140
93112 12 18060136578326873975

>  <PUBCHEM_SHAPE_MULTIPOLES>  (1) 
269.17
10.41
1.55
0.84
4.73
0.1
-0.05
4.05
2.54
0.56
0.09
-0.35
0.09
0.57

>  <PUBCHEM_SHAPE_SELFOVERLAP>  (1) 
538.82

>  <PUBCHEM_SHAPE_VOLUME>  (1) 
159.4

>  <PUBCHEM_COORDINATE_TYPE>  (1) 
2
5
10

$$$$
