39445
     RDKit          3D

 14 14  0  0  0  0  0  0  0  0999 V2000
   -0.5541   -2.2013    0.5127 Cl  0  0  0  0  0  0  0  0  0  0  0  0
   -0.1996    0.7778    0.7076 O   0  0  0  0  0  0  0  0  0  0  0  0
    2.3404    0.0124   -0.2657 N   0  0  0  0  0  0  0  0  0  0  0  0
    3.9889   -1.6103   -0.3870 N   0  0  0  0  0  0  0  0  0  0  0  0
    4.6532    0.4996    0.1624 N   0  0  0  0  0  0  0  0  0  0  0  0
    0.5107    1.6118   -0.2051 C   0  0  0  0  0  0  0  0  0  0  0  0
    2.0027    1.4151   -0.0093 C   0  0  0  0  0  0  0  0  0  0  0  0
   -1.4418    0.3632    0.3288 C   0  0  0  0  0  0  0  0  0  0  0  0
   -1.7441   -0.9922    0.1999 C   0  0  0  0  0  0  0  0  0  0  0  0
   -2.4198    1.3237    0.0701 C   0  0  0  0  0  0  0  0  0  0  0  0
   -3.0244   -1.3875   -0.1879 C   0  0  0  0  0  0  0  0  0  0  0  0
   -3.7000    0.9285   -0.3177 C   0  0  0  0  0  0  0  0  0  0  0  0
   -4.0024   -0.4270   -0.4468 C   0  0  0  0  0  0  0  0  0  0  0  0
    3.5903   -0.3137   -0.1619 C   0  0  0  0  0  0  0  0  0  0  0  0
  1  9  1  0
  2  6  1  0
  2  8  1  0
  3  7  1  0
  3 14  2  3
  4 14  1  0
  5 14  1  0
  6  7  1  0
  8  9  2  0
  8 10  1  0
  9 11  1  0
 10 12  2  0
 11 13  2  0
 12 13  1  0
M  END
>  <PUBCHEM_COMPOUND_CID>  (1) 
39445

>  <PUBCHEM_CONFORMER_RMSD>  (1) 
0.6

>  <PUBCHEM_CONFORMER_DIVERSEORDER>  (1) 
1
29
42
57
28
15
79
19
49
21
50
73
96
16
107
52
6
83
47
88
75
105
113
30
108
25
104
109
114
99
97
71
31
67
22
72
46
41
69
66
4
56
48
35
58
11
9
86
68
14
3
91
98
74
110
90
18
5
84
82
115
10
26
106
62
89
111
100
60
81
65
38
61
76
116
85
39
93
51
43
24
17
77
23
33
36
63
95
92
80
44
54
37
59
103
112
40
78
64
20
94
13
27
117
87
8
70
2
102
32
55
45
53
12
7
34
101

>  <PUBCHEM_MMFF94_PARTIAL_CHARGES>  (1) 
22
1 -0.18
10 -0.15
11 -0.15
12 -0.15
13 -0.15
14 0.55
19 0.15
2 -0.36
20 0.15
21 0.15
22 0.15
23 0.4
24 0.4
25 0.4
26 0.4
3 -0.7
4 -0.85
5 -0.85
6 0.28
7 0.25
8 0.08
9 0.18

>  <PUBCHEM_EFFECTIVE_ROTOR_COUNT>  (1) 
4

>  <PUBCHEM_PHARMACOPHORE_FEATURES>  (1) 
5
1 2 acceptor
1 4 donor
1 5 donor
4 3 4 5 14 cation
6 8 9 10 11 12 13 rings

>  <PUBCHEM_HEAVY_ATOM_COUNT>  (1) 
14

>  <PUBCHEM_ATOM_DEF_STEREO_COUNT>  (1) 
0

>  <PUBCHEM_ATOM_UDEF_STEREO_COUNT>  (1) 
0

>  <PUBCHEM_BOND_DEF_STEREO_COUNT>  (1) 
0

>  <PUBCHEM_BOND_UDEF_STEREO_COUNT>  (1) 
0

>  <PUBCHEM_ISOTOPIC_ATOM_COUNT>  (1) 
0

>  <PUBCHEM_COMPONENT_COUNT>  (1) 
1

>  <PUBCHEM_CACTVS_TAUTO_COUNT>  (1) 
2

>  <PUBCHEM_CONFORMER_ID>  (1) 
00009A1500000001

>  <PUBCHEM_MMFF94_ENERGY>  (1) 
43.2758

>  <PUBCHEM_FEATURE_SELFOVERLAP>  (1) 
25.428

>  <PUBCHEM_SHAPE_FINGERPRINT>  (1) 
10062212 137 18271801311628290327
11458722 379 18336268942270942610
13549 16 18333730212824289705
13690532 89 18410292501600636649
15196674 1 18411138017727054246
15375358 24 18413106191048891322
15536298 74 18342455911591206554
17834072 14 18343302565582673134
17870717 6 18271541818082847190
18186145 218 18187918504308798309
200 152 17704349983340700301
20201158 50 18343587343215342990
20645476 183 17240758527645073531
20645477 70 18412825810956583950
22485316 2 18411980256650571436
23402539 116 18272927211783169845
23403322 49 18342740701902725279
23559900 14 18270675480520312200
57005193 9 18409722976527305226
69090 78 18342735243120585303
7364860 26 18196652028147750680
93112 12 18335422416953980036
9709674 26 18339646749529118302

>  <PUBCHEM_SHAPE_MULTIPOLES>  (1) 
269.17
8.2
2
0.7
6.17
0.58
-0.02
0.79
1.28
-0.12
-0.09
-0.1
0.04
0.19

>  <PUBCHEM_SHAPE_SELFOVERLAP>  (1) 
539.029

>  <PUBCHEM_SHAPE_VOLUME>  (1) 
158.8

>  <PUBCHEM_COORDINATE_TYPE>  (1) 
2
5
10

$$$$
