39443
     RDKit          3D

 14 14  0  0  0  0  0  0  0  0999 V2000
   -1.6562   -2.5174   -0.1218 Cl  0  0  0  0  0  0  0  0  0  0  0  0
    2.0780    0.2338   -0.2828 N   0  0  0  0  0  0  0  0  0  0  0  0
    3.0535    0.2040    0.6504 N   0  0  0  0  0  0  0  0  0  0  0  0
    5.3474    0.0255    1.0215 N   0  0  0  0  0  0  0  0  0  0  0  0
    4.6339   -0.0997   -1.1429 N   0  0  0  0  0  0  0  0  0  0  0  0
   -0.3019    0.1398   -0.9020 C   0  0  0  0  0  0  0  0  0  0  0  0
   -1.7146    0.1932   -0.3993 C   0  0  0  0  0  0  0  0  0  0  0  0
    0.7192    0.2651    0.2315 C   0  0  0  0  0  0  0  0  0  0  0  0
   -2.3969   -0.9613   -0.0268 C   0  0  0  0  0  0  0  0  0  0  0  0
   -2.3341    1.4368   -0.3130 C   0  0  0  0  0  0  0  0  0  0  0  0
   -3.7098   -0.8717    0.4359 C   0  0  0  0  0  0  0  0  0  0  0  0
   -3.6470    1.5264    0.1495 C   0  0  0  0  0  0  0  0  0  0  0  0
   -4.3349    0.3722    0.5240 C   0  0  0  0  0  0  0  0  0  0  0  0
    4.2634    0.0532    0.1757 C   0  0  0  0  0  0  0  0  0  0  0  0
  1  9  1  0
  2  3  1  0
  2  8  1  0
  3 14  2  3
  4 14  1  0
  5 14  1  0
  6  7  1  0
  6  8  1  0
  7  9  2  0
  7 10  1  0
  9 11  1  0
 10 12  2  0
 11 13  2  0
 12 13  1  0
M  END
>  <PUBCHEM_COMPOUND_CID>  (1) 
39443

>  <PUBCHEM_CONFORMER_RMSD>  (1) 
0.6

>  <PUBCHEM_CONFORMER_DIVERSEORDER>  (1) 
1
75
56
40
32
48
67
27
50
46
54
64
72
44
63
43
61
21
2
17
33
76
22
35
29
6
51
66
25
23
16
49
58
26
13
28
9
41
34
4
59
57
10
24
36
5
60
62
74
45
77
53
65
42
52
38
78
39
68
15
47
11
31
7
3
8
19
30
18
70
79
20
73
12
37
69
14
71
55

>  <PUBCHEM_MMFF94_PARTIAL_CHARGES>  (1) 
23
1 -0.18
10 -0.15
11 -0.15
12 -0.15
13 -0.15
14 0.55
19 0.15
2 -0.58
20 0.36
21 0.15
22 0.15
23 0.15
24 0.4
25 0.4
26 0.4
27 0.4
3 -0.5
4 -0.85
5 -0.85
6 0.14
7 -0.14
8 0.27
9 0.18

>  <PUBCHEM_EFFECTIVE_ROTOR_COUNT>  (1) 
4

>  <PUBCHEM_PHARMACOPHORE_FEATURES>  (1) 
5
1 2 donor
1 4 donor
1 5 donor
4 3 4 5 14 cation
6 7 9 10 11 12 13 rings

>  <PUBCHEM_HEAVY_ATOM_COUNT>  (1) 
14

>  <PUBCHEM_ATOM_DEF_STEREO_COUNT>  (1) 
0

>  <PUBCHEM_ATOM_UDEF_STEREO_COUNT>  (1) 
0

>  <PUBCHEM_BOND_DEF_STEREO_COUNT>  (1) 
0

>  <PUBCHEM_BOND_UDEF_STEREO_COUNT>  (1) 
0

>  <PUBCHEM_ISOTOPIC_ATOM_COUNT>  (1) 
0

>  <PUBCHEM_COMPONENT_COUNT>  (1) 
1

>  <PUBCHEM_CACTVS_TAUTO_COUNT>  (1) 
2

>  <PUBCHEM_CONFORMER_ID>  (1) 
00009A1300000001

>  <PUBCHEM_MMFF94_ENERGY>  (1) 
35.2099

>  <PUBCHEM_FEATURE_SELFOVERLAP>  (1) 
25.433

>  <PUBCHEM_SHAPE_FINGERPRINT>  (1) 
10680689 15 17989487437293563484
12251169 10 18408041827242579853
124424 183 17561081414575163521
12500047 106 18341888588986408058
13167823 11 18040711451118275386
13675066 3 17846215579274076716
13897977 58 18261118490590499068
15042514 8 18266185109729914171
15375358 24 17917993871509689686
15375462 189 17603578621600136944
17804303 29 18411704322007612293
200 152 14562528487797825341
20279233 1 17846504733309402110
20645464 45 18131357410199443791
20645477 56 18413107260000083716
20645477 70 16415204434466486828
20828058 44 18408037416580055698
2297311 6 18341346529870082772
23175994 123 17275109435433705969
23402539 116 18342731945281839663
23559900 14 18198923430455491022
573450 72 18260539022461616378
5924683 9 17987506177481007095

>  <PUBCHEM_SHAPE_MULTIPOLES>  (1) 
270.06
10.42
1.61
0.89
14.36
0.89
0.05
-1.19
-1.97
-2.11
0.06
0.55
-0.01
0.08

>  <PUBCHEM_SHAPE_SELFOVERLAP>  (1) 
539.104

>  <PUBCHEM_SHAPE_VOLUME>  (1) 
158.9

>  <PUBCHEM_COORDINATE_TYPE>  (1) 
2
5
10

$$$$
