39455
     RDKit          3D

 16 16  0  0  1  0  0  0  0  0999 V2000
   -0.3604    0.7459    0.6974 N   0  0  0  0  0  0  0  0  0  0  0  0
    3.0938    0.4679   -0.6320 N   0  0  0  0  0  0  0  0  0  0  0  0
    5.2992    0.0419   -1.2010 N   0  0  0  0  0  0  0  0  0  0  0  0
    4.4919   -0.9967    0.6603 N   0  0  0  0  0  0  0  0  0  0  0  0
   -1.5367    0.1401    0.1977 C   0  0  0  0  0  0  0  0  0  0  0  0
    0.7635    0.9921   -0.1808 C   0  0  0  0  0  0  0  0  0  0  0  0
   -2.5699    0.9316   -0.3038 C   0  0  0  0  0  0  0  0  0  0  0  0
   -1.6640   -1.2488    0.2074 C   0  0  0  0  0  0  0  0  0  0  0  0
    1.9862    0.2198    0.2935 C   0  0  0  0  0  0  0  0  0  0  0  0
   -0.2650    1.1125    2.0944 C   0  0  0  0  0  0  0  0  0  0  0  0
   -3.7305    0.3343   -0.7956 C   0  0  0  0  0  0  0  0  0  0  0  0
   -2.8246   -1.8463   -0.2844 C   0  0  0  0  0  0  0  0  0  0  0  0
   -2.4626    2.4218   -0.3263 C   0  0  0  0  0  0  0  0  0  0  0  0
   -0.5744   -2.1227    0.7383 C   0  0  0  0  0  0  0  0  0  0  0  0
   -3.8578   -1.0547   -0.7858 C   0  0  0  0  0  0  0  0  0  0  0  0
    4.2113   -0.1387   -0.3797 C   0  0  0  0  0  0  0  0  0  0  0  0
  1  5  1  0
  1  6  1  0
  1 10  1  0
  2  9  1  0
  2 16  2  3
  3 16  1  0
  4 16  1  0
  5  7  2  0
  5  8  1  0
  6  9  1  0
  7 11  1  0
  7 13  1  0
  8 12  2  0
  8 14  1  0
 11 15  2  0
 12 15  1  0
M  END
>  <PUBCHEM_COMPOUND_CID>  (1) 
39455

>  <PUBCHEM_CONFORMER_RMSD>  (1) 
0.6

>  <PUBCHEM_CONFORMER_DIVERSEORDER>  (1) 
2
23
18
15
19
27
17
28
16
8
6
13
31
25
3
30
22
14
1
12
11
20
24
29
26
10
9
5
7
4
21

>  <PUBCHEM_MMFF94_PARTIAL_CHARGES>  (1) 
23
1 -0.84
10 0.37
11 -0.15
12 -0.15
13 0.14
14 0.14
15 -0.15
16 0.55
2 -0.7
24 0.15
25 0.15
3 -0.85
32 0.15
33 0.4
34 0.4
35 0.4
36 0.4
4 -0.85
5 0.1
6 0.37
7 -0.14
8 -0.14
9 0.25

>  <PUBCHEM_EFFECTIVE_ROTOR_COUNT>  (1) 
4

>  <PUBCHEM_PHARMACOPHORE_FEATURES>  (1) 
5
1 1 cation
1 3 donor
1 4 donor
4 2 3 4 16 cation
6 5 7 8 11 12 15 rings

>  <PUBCHEM_HEAVY_ATOM_COUNT>  (1) 
16

>  <PUBCHEM_ATOM_DEF_STEREO_COUNT>  (1) 
0

>  <PUBCHEM_ATOM_UDEF_STEREO_COUNT>  (1) 
0

>  <PUBCHEM_BOND_DEF_STEREO_COUNT>  (1) 
0

>  <PUBCHEM_BOND_UDEF_STEREO_COUNT>  (1) 
0

>  <PUBCHEM_ISOTOPIC_ATOM_COUNT>  (1) 
0

>  <PUBCHEM_COMPONENT_COUNT>  (1) 
1

>  <PUBCHEM_CACTVS_TAUTO_COUNT>  (1) 
2

>  <PUBCHEM_CONFORMER_ID>  (1) 
00009A1F00000002

>  <PUBCHEM_MMFF94_ENERGY>  (1) 
68.3775

>  <PUBCHEM_FEATURE_SELFOVERLAP>  (1) 
25.428

>  <PUBCHEM_SHAPE_FINGERPRINT>  (1) 
10062212 137 18338785732855699723
10465860 250 17846774113605570040
11315181 36 18130794452067628768
11458722 379 18408319986394008439
11543360 7 18334297604190821468
12119455 92 12540684942492496545
12363563 72 17418102035296648136
12592029 89 18042127565775012075
14251764 30 17534076443363333811
16752209 62 18410562985756368426
16945 1 18266156440759136913
17834072 14 17917705825264606288
17870717 6 18271257057519562566
1813 80 14764078899450501264
18186145 218 18341886402943227577
19784866 170 9367073297547267417
200 152 17489590069141461350
20645476 183 17458619055849592155
20671657 53 18341617057107212884
20871999 31 18410014338297172260
21061003 4 16917068897239294689
21637258 2 16128080270186738327
23175994 123 17489590082084716969
23402539 116 18410004429955320341
23403322 49 18059859467189988622
23559900 14 18342449387725924608
23598291 2 17677880241492216890
2748010 2 17977643627573857923
3286 77 17130702971755983577
559249 180 18263074414950821154
573450 72 18262507109768251352
58051976 100 18187086178169475694
90316 7 11671796982565607051
93112 12 18261114114424915300
9709674 26 18195241354670564178

>  <PUBCHEM_SHAPE_MULTIPOLES>  (1) 
309.35
8.62
2
1.19
12.11
0.07
-0.48
1.47
3.7
-1.89
-0.2
0.27
-0.24
-0.16

>  <PUBCHEM_SHAPE_SELFOVERLAP>  (1) 
626.578

>  <PUBCHEM_SHAPE_VOLUME>  (1) 
180.6

>  <PUBCHEM_COORDINATE_TYPE>  (1) 
2
5
10

$$$$
