39462
     RDKit          3D

 19 19  0  0  0  0  0  0  0  0999 V2000
    0.2841    0.3616    0.1611 O   0  0  0  0  0  0  0  0  0  0  0  0
    3.0844    0.0702   -0.0772 N   0  0  0  0  0  0  0  0  0  0  0  0
    5.0784   -0.5979    0.8939 N   0  0  0  0  0  0  0  0  0  0  0  0
    5.0439    1.4596   -0.0862 N   0  0  0  0  0  0  0  0  0  0  0  0
   -1.7423    2.3559    0.2067 C   0  0  0  0  0  0  0  0  0  0  0  0
   -0.2308   -2.4297   -0.0033 C   0  0  0  0  0  0  0  0  0  0  0  0
   -2.0445    0.8961    0.1188 C   0  0  0  0  0  0  0  0  0  0  0  0
   -1.3174   -1.4057    0.0176 C   0  0  0  0  0  0  0  0  0  0  0  0
   -1.0161   -0.0462    0.0994 C   0  0  0  0  0  0  0  0  0  0  0  0
   -3.3740    0.4791    0.0565 C   0  0  0  0  0  0  0  0  0  0  0  0
   -2.6471   -1.8228   -0.0448 C   0  0  0  0  0  0  0  0  0  0  0  0
   -2.3086    2.9964    1.4873 C   0  0  0  0  0  0  0  0  0  0  0  0
   -2.2332    3.1326   -1.0288 C   0  0  0  0  0  0  0  0  0  0  0  0
   -0.2188   -3.2463   -1.3086 C   0  0  0  0  0  0  0  0  0  0  0  0
   -0.2949   -3.3785    1.2076 C   0  0  0  0  0  0  0  0  0  0  0  0
   -3.6753   -0.8804   -0.0253 C   0  0  0  0  0  0  0  0  0  0  0  0
    0.9390    0.6231   -1.0777 C   0  0  0  0  0  0  0  0  0  0  0  0
    2.3514    1.1081   -0.8073 C   0  0  0  0  0  0  0  0  0  0  0  0
    4.3220    0.3249    0.2104 C   0  0  0  0  0  0  0  0  0  0  0  0
  1  9  1  0
  1 17  1  0
  2 18  1  0
  2 19  2  3
  3 19  1  0
  4 19  1  0
  5  7  1  0
  5 12  1  0
  5 13  1  0
  6  8  1  0
  6 14  1  0
  6 15  1  0
  7  9  2  0
  7 10  1  0
  8  9  1  0
  8 11  2  0
 10 16  2  0
 11 16  1  0
 17 18  1  0
M  END
>  <PUBCHEM_COMPOUND_CID>  (1) 
39462

>  <PUBCHEM_CONFORMER_RMSD>  (1) 
0.8

>  <PUBCHEM_CONFORMER_DIVERSEORDER>  (1) 
1
10
8
4
2
7
9
5
6
3

>  <PUBCHEM_MMFF94_PARTIAL_CHARGES>  (1) 
22
1 -0.36
10 -0.15
11 -0.15
16 -0.15
17 0.28
18 0.25
19 0.55
2 -0.7
22 0.15
23 0.15
3 -0.85
36 0.15
4 -0.85
41 0.4
42 0.4
43 0.4
44 0.4
5 0.14
6 0.14
7 -0.14
8 -0.14
9 0.08

>  <PUBCHEM_EFFECTIVE_ROTOR_COUNT>  (1) 
6

>  <PUBCHEM_PHARMACOPHORE_FEATURES>  (1) 
7
1 1 acceptor
1 3 donor
1 4 donor
3 5 12 13 hydrophobe
3 6 14 15 hydrophobe
4 2 3 4 19 cation
6 7 8 9 10 11 16 rings

>  <PUBCHEM_HEAVY_ATOM_COUNT>  (1) 
19

>  <PUBCHEM_ATOM_DEF_STEREO_COUNT>  (1) 
0

>  <PUBCHEM_ATOM_UDEF_STEREO_COUNT>  (1) 
0

>  <PUBCHEM_BOND_DEF_STEREO_COUNT>  (1) 
0

>  <PUBCHEM_BOND_UDEF_STEREO_COUNT>  (1) 
0

>  <PUBCHEM_ISOTOPIC_ATOM_COUNT>  (1) 
0

>  <PUBCHEM_COMPONENT_COUNT>  (1) 
1

>  <PUBCHEM_CACTVS_TAUTO_COUNT>  (1) 
2

>  <PUBCHEM_CONFORMER_ID>  (1) 
00009A2600000001

>  <PUBCHEM_MMFF94_ENERGY>  (1) 
60.644

>  <PUBCHEM_FEATURE_SELFOVERLAP>  (1) 
35.576

>  <PUBCHEM_SHAPE_FINGERPRINT>  (1) 
10366900 7 18059293279242611032
11370993 70 18339919316801335044
11578080 2 16518773902454412047
12107183 9 17903914462366327032
12788726 201 18267601262808682580
13140716 1 18051140477262312339
14178342 30 18267880379790572301
14251751 93 18339919320985668938
14251764 3 17274240804294552082
14614273 12 18335424504930740693
15042514 8 18266182905778662595
16752209 62 18336811061490137817
16945 1 18059032643531415277
20510252 161 18342461447440054417
21524375 3 18411420570518795735
23402539 116 18342733065877939847
23558518 356 18265348222018493603
23559900 14 18342738568095406208
23598288 3 17976557318085297686
23598291 2 17822019718046092068
23728640 28 18339079414461956906
2748010 2 17831033329607884349
283562 15 18411699889928358657
3178227 256 18120107328064185139
350125 39 17979089184590364385
352729 6 18264786508704599223
4214541 1 18410292497981298848
43471831 8 18335141938573381275
58807428 26 18192442882671442536
5939293 188 16970269540401041141
59755656 215 18270126690725406183
6992083 37 18113626668183576612
7364860 26 17909836431413116927
81228 2 18268169697535613033
9709674 26 18341621459817950158
9862522 239 18116701920448931148

>  <PUBCHEM_SHAPE_MULTIPOLES>  (1) 
370.2
7.44
4.1
1.1
12.58
1.17
-0.03
-3.25
-1.18
-2.78
-0.17
-0.09
-0.03
-0.46

>  <PUBCHEM_SHAPE_SELFOVERLAP>  (1) 
746.427

>  <PUBCHEM_SHAPE_VOLUME>  (1) 
216.9

>  <PUBCHEM_COORDINATE_TYPE>  (1) 
2
5
10

$$$$
