39465
     RDKit          3D

 20 23  0  0  0  0  0  0  0  0999 V2000
    1.5790    1.0293   -0.1607 N   0  0  0  0  0  0  0  0  0  0  0  0
   -4.2048    1.6962   -0.0157 N   0  0  0  0  0  0  0  0  0  0  0  0
    1.9653   -0.2315   -0.8335 C   0  0  0  0  0  0  0  0  0  0  0  0
    2.5292    1.2422    0.9542 C   0  0  0  0  0  0  0  0  0  0  0  0
    0.1890    1.0427    0.2664 C   0  0  0  0  0  0  0  0  0  0  0  0
    3.4033   -0.4223   -0.4705 C   0  0  0  0  0  0  0  0  0  0  0  0
    3.7335    0.4405    0.5759 C   0  0  0  0  0  0  0  0  0  0  0  0
   -0.7565    0.9182   -0.9308 C   0  0  0  0  0  0  0  0  0  0  0  0
   -2.1987    0.9533   -0.5186 C   0  0  0  0  0  0  0  0  0  0  0  0
   -2.9855   -0.1651   -0.1785 C   0  0  0  0  0  0  0  0  0  0  0  0
    4.3310   -1.3042   -0.9938 C   0  0  0  0  0  0  0  0  0  0  0  0
    5.0008    0.4466    1.1290 C   0  0  0  0  0  0  0  0  0  0  0  0
   -4.2532    0.3289    0.1370 C   0  0  0  0  0  0  0  0  0  0  0  0
   -2.9538    2.0827   -0.4160 C   0  0  0  0  0  0  0  0  0  0  0  0
    5.6176   -1.3014   -0.4505 C   0  0  0  0  0  0  0  0  0  0  0  0
    5.9501   -0.4326    0.6029 C   0  0  0  0  0  0  0  0  0  0  0  0
   -2.7606   -1.5539   -0.1026 C   0  0  0  0  0  0  0  0  0  0  0  0
   -5.3113   -0.5001    0.5262 C   0  0  0  0  0  0  0  0  0  0  0  0
   -3.8098   -2.3952    0.2853 C   0  0  0  0  0  0  0  0  0  0  0  0
   -5.0647   -1.8743    0.5944 C   0  0  0  0  0  0  0  0  0  0  0  0
  1  3  1  0
  1  4  1  0
  1  5  1  0
  2 13  1  0
  2 14  1  0
  3  6  1  0
  4  7  1  0
  5  8  1  0
  6  7  2  0
  6 11  1  0
  7 12  1  0
  8  9  1  0
  9 10  1  0
  9 14  2  0
 10 13  2  0
 10 17  1  0
 11 15  2  0
 12 16  2  0
 13 18  1  0
 15 16  1  0
 17 19  2  0
 18 20  2  0
 19 20  1  0
M  END
>  <PUBCHEM_COMPOUND_CID>  (1) 
39465

>  <PUBCHEM_CONFORMER_RMSD>  (1) 
0.6

>  <PUBCHEM_CONFORMER_DIVERSEORDER>  (1) 
1
22
38
35
34
8
2
33
24
6
7
40
10
23
5
9
17
28
29
13
11
37
18
36
26
27
15
19
4
39
41
42
25
21
3
32
14
20
16
30
12
31
43

>  <PUBCHEM_MMFF94_PARTIAL_CHARGES>  (1) 
29
1 -0.81
11 -0.15
12 -0.15
13 -0.15
14 -0.3
15 -0.15
16 -0.15
17 -0.15
18 -0.15
19 -0.15
2 0.03
20 -0.15
29 0.15
3 0.41
30 0.15
31 0.15
32 0.27
33 0.15
34 0.15
35 0.15
36 0.15
37 0.15
38 0.15
4 0.41
5 0.27
6 -0.14
7 -0.14
8 0.18
9 -0.18

>  <PUBCHEM_EFFECTIVE_ROTOR_COUNT>  (1) 
3.6

>  <PUBCHEM_PHARMACOPHORE_FEATURES>  (1) 
7
1 1 cation
1 2 cation
1 2 donor
5 1 3 4 6 7 rings
5 2 9 10 13 14 rings
6 10 13 17 18 19 20 rings
6 6 7 11 12 15 16 rings

>  <PUBCHEM_HEAVY_ATOM_COUNT>  (1) 
20

>  <PUBCHEM_ATOM_DEF_STEREO_COUNT>  (1) 
0

>  <PUBCHEM_ATOM_UDEF_STEREO_COUNT>  (1) 
0

>  <PUBCHEM_BOND_DEF_STEREO_COUNT>  (1) 
0

>  <PUBCHEM_BOND_UDEF_STEREO_COUNT>  (1) 
0

>  <PUBCHEM_ISOTOPIC_ATOM_COUNT>  (1) 
0

>  <PUBCHEM_COMPONENT_COUNT>  (1) 
1

>  <PUBCHEM_CACTVS_TAUTO_COUNT>  (1) 
1

>  <PUBCHEM_CONFORMER_ID>  (1) 
00009A2900000001

>  <PUBCHEM_MMFF94_ENERGY>  (1) 
47.1846

>  <PUBCHEM_FEATURE_SELFOVERLAP>  (1) 
35.696

>  <PUBCHEM_SHAPE_FINGERPRINT>  (1) 
10 15 18201424918672743008
105312 117 17678443174830583797
11045977 3 18272366468899281632
11046707 91 18040432209392676605
11128504 68 16588031225159577940
11315181 36 18186801383062076565
11370993 144 17845942840049843065
11405975 8 18342459235516202688
11545043 162 18411978057258213457
11796584 16 18191018998635307562
12236239 1 17022621961945090524
12616971 3 17095250206507035109
12633257 1 17202771526271142615
13167823 11 18260827107366550144
13288520 33 18333169470784751957
13402501 40 18413393133139798334
13668630 136 15357699673624576562
13675066 3 18131064935526943692
14216079 64 18336828688933395091
14251751 18 18410013255928425346
14341114 176 18272091604030363360
14386348 63 18343866597836269478
14420673 8 18339085873723348967
14528608 73 10953740019103830906
15188451 53 18261664956628191199
15348495 7 18201997763365657392
15537594 2 17676489406501262361
15788980 27 18272928319604754540
16126227 98 17406543084762407328
17349148 13 16732700537020687656
17844677 252 18410016528799467688
17857418 61 18187641409919232779
1813 80 17530965808270333069
18222031 100 17458060482420171500
18785283 64 18127119999845457296
18927931 339 18408325501712245975
19141452 34 18271809068571315991
193927 3 18041569143044025003
20281389 69 11455896853470385203
21033648 29 17489009488268416032
21054139 6 17603583037185330546
21065198 57 18343018891229675193
21065199 12 18272366494574282856
21065201 7 18335130969147636736
21267235 1 18187653539692782347
21403212 168 18270130020427548937
21623969 137 17846781802187984054
22122407 14 16128665175701656291
23198884 109 13118274868137755319
23402539 116 16298383526811497204
23402655 69 12035442839843846100
23522609 53 17824289049848403036
23559900 14 18338228362502632769
239999 70 18342177757220197766
26918003 58 18130785642261724664
3004659 81 18113904870700617046
312423 11 17968390047019535445
351380 3 17458062668268179747
4073 2 18411983538058157922
4214541 1 18410573968219852589
4325135 7 18114465660565381732
465052 167 18201157664401489654
5104073 3 18201152170684495088
559249 180 18040994021438019303
5924683 9 17631442527181817335
59755656 215 18334290938354248191
602551 16 18261109686292475554
67856867 119 18042410299430867756
7495541 125 18410011057374863040
7970288 3 18045784743883007987
8863177 126 18343585148941079766
9709674 26 18263928911178049859

>  <PUBCHEM_SHAPE_MULTIPOLES>  (1) 
401.63
14.9
2.04
0.98
6.73
0.38
-0.02
5.62
-2.53
-2.37
0.02
0.72
-0.02
1.43

>  <PUBCHEM_SHAPE_SELFOVERLAP>  (1) 
891.673

>  <PUBCHEM_SHAPE_VOLUME>  (1) 
218.8

>  <PUBCHEM_COORDINATE_TYPE>  (1) 
2
5
10

$$$$
