39467
     RDKit          3D

 21 22  0  0  0  0  0  0  0  0999 V2000
   -0.8059   -0.2976    2.6255 O   0  0  0  0  0  0  0  0  0  0  0  0
   -3.4502    1.6973   -0.3625 N   0  0  0  0  0  0  0  0  0  0  0  0
    0.6200    1.4752    2.4687 N   0  0  0  0  0  0  0  0  0  0  0  0
    0.0879    0.2300    0.3854 C   0  0  0  0  0  0  0  0  0  0  0  0
   -1.0618    1.1364   -0.2144 C   0  0  0  0  0  0  0  0  0  0  0  0
   -0.0283   -1.2639   -0.0312 C   0  0  0  0  0  0  0  0  0  0  0  0
    1.4862    0.7227   -0.0937 C   0  0  0  0  0  0  0  0  0  0  0  0
   -2.4869    0.7879    0.2531 C   0  0  0  0  0  0  0  0  0  0  0  0
   -0.0706    0.4055    1.9320 C   0  0  0  0  0  0  0  0  0  0  0  0
    0.4040   -2.2048    0.8570 C   0  0  0  0  0  0  0  0  0  0  0  0
    2.5838    0.0860    0.4035 C   0  0  0  0  0  0  0  0  0  0  0  0
   -0.5555   -1.5406   -1.2585 C   0  0  0  0  0  0  0  0  0  0  0  0
    1.5211    1.7581   -0.9793 C   0  0  0  0  0  0  0  0  0  0  0  0
   -4.8042    1.4055    0.1089 C   0  0  0  0  0  0  0  0  0  0  0  0
   -3.3865    1.6014   -1.8209 C   0  0  0  0  0  0  0  0  0  0  0  0
    0.2997   -3.5447    0.4836 C   0  0  0  0  0  0  0  0  0  0  0  0
    3.8357    0.5268   -0.0254 C   0  0  0  0  0  0  0  0  0  0  0  0
   -0.6598   -2.8805   -1.6318 C   0  0  0  0  0  0  0  0  0  0  0  0
    2.7731    2.1988   -1.4082 C   0  0  0  0  0  0  0  0  0  0  0  0
   -0.2322   -3.8826   -0.7607 C   0  0  0  0  0  0  0  0  0  0  0  0
    3.9303    1.5831   -0.9313 C   0  0  0  0  0  0  0  0  0  0  0  0
  1  9  2  0
  2  8  1  0
  2 14  1  0
  2 15  1  0
  3  9  1  0
  4  5  1  0
  4  6  1  0
  4  7  1  0
  4  9  1  0
  5  8  1  0
  6 10  2  0
  6 12  1  0
  7 11  2  0
  7 13  1  0
 10 16  1  0
 11 17  1  0
 12 18  2  0
 13 19  2  0
 16 20  2  0
 17 21  2  0
 18 20  1  0
 19 21  1  0
M  END
>  <PUBCHEM_COMPOUND_CID>  (1) 
39467

>  <PUBCHEM_CONFORMER_RMSD>  (1) 
0.8

>  <PUBCHEM_CONFORMER_DIVERSEORDER>  (1) 
1
7
4
9
12
11
2
8
5
6
3
10

>  <PUBCHEM_MMFF94_PARTIAL_CHARGES>  (1) 
32
1 -0.57
10 -0.15
11 -0.15
12 -0.15
13 -0.15
14 0.27
15 0.27
16 -0.15
17 -0.15
18 -0.15
19 -0.15
2 -0.81
20 -0.15
21 -0.15
26 0.15
27 0.15
28 0.15
29 0.15
3 -0.8
36 0.37
37 0.37
38 0.15
39 0.15
4 0.35
40 0.15
41 0.15
42 0.15
43 0.15
6 -0.14
7 -0.14
8 0.27
9 0.57

>  <PUBCHEM_EFFECTIVE_ROTOR_COUNT>  (1) 
6

>  <PUBCHEM_PHARMACOPHORE_FEATURES>  (1) 
5
1 1 acceptor
1 2 cation
1 3 donor
6 6 10 12 16 18 20 rings
6 7 11 13 17 19 21 rings

>  <PUBCHEM_HEAVY_ATOM_COUNT>  (1) 
21

>  <PUBCHEM_ATOM_DEF_STEREO_COUNT>  (1) 
0

>  <PUBCHEM_ATOM_UDEF_STEREO_COUNT>  (1) 
0

>  <PUBCHEM_BOND_DEF_STEREO_COUNT>  (1) 
0

>  <PUBCHEM_BOND_UDEF_STEREO_COUNT>  (1) 
0

>  <PUBCHEM_ISOTOPIC_ATOM_COUNT>  (1) 
0

>  <PUBCHEM_COMPONENT_COUNT>  (1) 
1

>  <PUBCHEM_CACTVS_TAUTO_COUNT>  (1) 
2

>  <PUBCHEM_CONFORMER_ID>  (1) 
00009A2B00000001

>  <PUBCHEM_MMFF94_ENERGY>  (1) 
86.5736

>  <PUBCHEM_FEATURE_SELFOVERLAP>  (1) 
25.371

>  <PUBCHEM_SHAPE_FINGERPRINT>  (1) 
11421498 54 18058742299521715689
11488393 25 18196674924824192355
12592029 89 18335707083117505627
12714826 92 17697337457145276038
12788726 201 17976819010384477406
13149001 5 17702663418018338600
133893 2 17907885923375911090
13681431 1 17764031268148131599
14251751 93 18336826485029083727
14817 1 15157514580673302923
14863182 85 17128994111459063087
15210252 30 17251436078478223383
15502722 9 18193842544183888333
15852999 172 18131082536518954148
15906896 17 18190750936182118270
16752209 62 18269265940482455767
16945 1 18117558418479040080
1813 80 17261883148381471375
20602899 9 18129679550896772220
20671657 53 17544476354197870247
21524375 3 18113337535164112821
229495 10 17757585170930125520
23419403 2 17760133619687113859
23557571 272 17475207572276513984
298252 57 18333729130461136144
3060560 45 18335698287209229924
394222 165 18339081462796912427
53917941 68 18192132996903047196
59755656 520 17842592684018030920
68419 9 17609741499947762120
81228 2 17764290040133346503
81539 233 18262799558238710229
9999458 23 15430045339524780580

>  <PUBCHEM_SHAPE_MULTIPOLES>  (1) 
416.34
5.63
3.89
1.92
1.76
4.92
0.94
-6.41
-1.86
0.82
-1.38
0.29
-0.24
-0.5

>  <PUBCHEM_SHAPE_SELFOVERLAP>  (1) 
884.21

>  <PUBCHEM_SHAPE_VOLUME>  (1) 
232

>  <PUBCHEM_COORDINATE_TYPE>  (1) 
2
5
10

$$$$
