39466
     RDKit          3D

 20 21  0  0  0  0  0  0  0  0999 V2000
    0.1254   -2.0465   -1.6455 Cl  0  0  0  0  0  0  0  0  0  0  0  0
   -2.9552    0.5653   -2.1240 Cl  0  0  0  0  0  0  0  0  0  0  0  0
    0.8695    0.7370   -0.7859 O   0  0  0  0  0  0  0  0  0  0  0  0
   -1.2252    1.5323    0.1370 O   0  0  0  0  0  0  0  0  0  0  0  0
    0.0754    3.7757    1.0572 O   0  0  0  0  0  0  0  0  0  0  0  0
    1.4500    3.4511   -0.7219 O   0  0  0  0  0  0  0  0  0  0  0  0
    0.2020    1.5563    0.1744 C   0  0  0  0  0  0  0  0  0  0  0  0
    1.7308   -0.2436   -0.3919 C   0  0  0  0  0  0  0  0  0  0  0  0
   -1.8622    0.3405    0.3571 C   0  0  0  0  0  0  0  0  0  0  0  0
    1.5051   -1.5802   -0.7210 C   0  0  0  0  0  0  0  0  0  0  0  0
   -2.6944   -0.2175   -0.6090 C   0  0  0  0  0  0  0  0  0  0  0  0
    2.8546    0.1106    0.3547 C   0  0  0  0  0  0  0  0  0  0  0  0
   -1.6614   -0.3064    1.5732 C   0  0  0  0  0  0  0  0  0  0  0  0
    0.6652    3.0068    0.1056 C   0  0  0  0  0  0  0  0  0  0  0  0
    2.4033   -2.5624   -0.3035 C   0  0  0  0  0  0  0  0  0  0  0  0
   -3.3311   -1.4328   -0.3570 C   0  0  0  0  0  0  0  0  0  0  0  0
    3.7527   -0.8718    0.7722 C   0  0  0  0  0  0  0  0  0  0  0  0
   -2.2983   -1.5216    1.8251 C   0  0  0  0  0  0  0  0  0  0  0  0
    3.5270   -2.2081    0.4432 C   0  0  0  0  0  0  0  0  0  0  0  0
   -3.1331   -2.0847    0.8601 C   0  0  0  0  0  0  0  0  0  0  0  0
  1 10  1  0
  2 11  1  0
  3  7  1  0
  3  8  1  0
  4  7  1  0
  4  9  1  0
  5 14  1  0
  6 14  2  0
  7 14  1  0
  8 10  2  0
  8 12  1  0
  9 11  2  0
  9 13  1  0
 10 15  1  0
 11 16  1  0
 12 17  2  0
 13 18  2  0
 15 19  2  0
 16 20  2  0
 17 19  1  0
 18 20  1  0
M  END
>  <PUBCHEM_COMPOUND_CID>  (1) 
39466

>  <PUBCHEM_CONFORMER_RMSD>  (1) 
0.8

>  <PUBCHEM_CONFORMER_DIVERSEORDER>  (1) 
1
127
56
107
3
129
77
40
122
55
79
59
125
111
103
11
106
18
135
9
85
67
114
68
83
90
28
69
132
139
99
93
15
50
113
2
64
82
6
109
29
38
57
96
44
71
102
13
105
108
134
14
84
88
115
49
89
47
27
120
104
123
73
112
21
61
116
128
137
75
78
87
41
48
26
25
63
100
91
51
20
24
58
97
17
136
138
131
92
80
81
46
30
36
4
42
118
121
130
34
65
70
117
53
19
94
98
74
86
72
8
22
52
35
43
133
23
54
62
95
37
119
10
124
76
31
110
33
66
39
126
45
12
7
60
16
101
5
32

>  <PUBCHEM_MMFF94_PARTIAL_CHARGES>  (1) 
29
1 -0.18
10 0.18
11 0.18
12 -0.15
13 -0.15
14 0.66
15 -0.15
16 -0.15
17 -0.15
18 -0.15
19 -0.15
2 -0.18
20 -0.15
22 0.15
23 0.15
24 0.15
25 0.15
26 0.15
27 0.15
28 0.15
29 0.15
3 -0.36
30 0.5
4 -0.36
5 -0.65
6 -0.57
7 0.62
8 0.08
9 0.08

>  <PUBCHEM_EFFECTIVE_ROTOR_COUNT>  (1) 
5

>  <PUBCHEM_PHARMACOPHORE_FEATURES>  (1) 
7
1 3 acceptor
1 4 acceptor
1 5 acceptor
1 6 acceptor
3 5 6 14 anion
6 8 10 12 15 17 19 rings
6 9 11 13 16 18 20 rings

>  <PUBCHEM_HEAVY_ATOM_COUNT>  (1) 
20

>  <PUBCHEM_ATOM_DEF_STEREO_COUNT>  (1) 
0

>  <PUBCHEM_ATOM_UDEF_STEREO_COUNT>  (1) 
0

>  <PUBCHEM_BOND_DEF_STEREO_COUNT>  (1) 
0

>  <PUBCHEM_BOND_UDEF_STEREO_COUNT>  (1) 
0

>  <PUBCHEM_ISOTOPIC_ATOM_COUNT>  (1) 
0

>  <PUBCHEM_COMPONENT_COUNT>  (1) 
1

>  <PUBCHEM_CACTVS_TAUTO_COUNT>  (1) 
1

>  <PUBCHEM_CONFORMER_ID>  (1) 
00009A2A00000001

>  <PUBCHEM_MMFF94_ENERGY>  (1) 
65.3986

>  <PUBCHEM_FEATURE_SELFOVERLAP>  (1) 
35.617

>  <PUBCHEM_SHAPE_FINGERPRINT>  (1) 
10366900 7 18197765606178114290
10906281 52 18268720398031621661
1100329 8 17909267232672903896
11582403 64 16243138754311260565
12363563 72 18410015403233043590
12553582 1 18339659844578130314
12633257 1 18265350537095855723
12788726 201 17977931398239570480
13004483 165 18196636411551398439
13140716 1 18268435646184222586
14787075 74 18042132119073361098
16945 1 18266190589263599906
19591789 44 17545047464509798812
20600515 1 17896319112876197588
20645477 70 18119522387339728347
23419403 2 18043507585964325717
23526113 38 18188474831353953939
23558518 356 17763460617413359244
23559900 14 17678452176438203917
23728640 28 17615693929451625490
2748010 2 18271811151160767998
31174 14 18119832419353647307
3797600 57 17053050057175583291
81228 2 17979361862909829712
8809292 202 17548141030795733142
9709674 26 18053378795595921326

>  <PUBCHEM_SHAPE_MULTIPOLES>  (1) 
391.85
5.78
3.77
1.57
1.2
3.79
-0.17
-4.05
0.41
1.25
0.28
-1.26
-0.39
0.6

>  <PUBCHEM_SHAPE_SELFOVERLAP>  (1) 
817.412

>  <PUBCHEM_SHAPE_VOLUME>  (1) 
222.9

>  <PUBCHEM_COORDINATE_TYPE>  (1) 
2
5
10

$$$$
