39464
     RDKit          3D

 19 19  0  0  1  0  0  0  0  0999 V2000
    5.5375   -0.0901    0.0632 F   0  0  0  0  0  0  0  0  0  0  0  0
    4.4246   -1.2107    1.5496 F   0  0  0  0  0  0  0  0  0  0  0  0
    4.2789   -1.7536   -0.5510 F   0  0  0  0  0  0  0  0  0  0  0  0
   -5.0398   -1.4174    0.5803 O   0  0  0  0  0  0  0  0  0  0  0  0
   -2.6210   -0.8544   -0.5913 N   0  0  0  0  0  0  0  0  0  0  0  0
   -5.7352    0.7633    0.1869 N   0  0  0  0  0  0  0  0  0  0  0  0
   -1.2601   -0.4313   -0.8935 C   0  0  0  0  0  0  0  0  0  0  0  0
   -0.6029    0.1351    0.3784 C   0  0  0  0  0  0  0  0  0  0  0  0
    0.8029    0.6403    0.1590 C   0  0  0  0  0  0  0  0  0  0  0  0
   -0.4991   -1.6290   -1.4624 C   0  0  0  0  0  0  0  0  0  0  0  0
   -3.3967    0.2439   -0.0331 C   0  0  0  0  0  0  0  0  0  0  0  0
    1.8700   -0.2281    0.3235 C   0  0  0  0  0  0  0  0  0  0  0  0
    0.9996    1.9633   -0.2029 C   0  0  0  0  0  0  0  0  0  0  0  0
    3.1686    0.2388    0.1206 C   0  0  0  0  0  0  0  0  0  0  0  0
    2.2982    2.4304   -0.4058 C   0  0  0  0  0  0  0  0  0  0  0  0
    3.3827    1.5681   -0.2440 C   0  0  0  0  0  0  0  0  0  0  0  0
   -4.7949   -0.2531    0.2718 C   0  0  0  0  0  0  0  0  0  0  0  0
    4.3283   -0.6824    0.2936 C   0  0  0  0  0  0  0  0  0  0  0  0
   -7.1416    0.5670    0.4570 C   0  0  0  0  0  0  0  0  0  0  0  0
  1 18  1  0
  2 18  1  0
  3 18  1  0
  4 17  2  0
  5  7  1  0
  5 11  1  0
  6 17  1  0
  6 19  1  0
  7  8  1  0
  7 10  1  0
  8  9  1  0
  9 12  2  0
  9 13  1  0
 11 17  1  0
 12 14  1  0
 13 15  2  0
 14 16  2  0
 14 18  1  0
 15 16  1  0
M  END
>  <PUBCHEM_COMPOUND_CID>  (1) 
39464

>  <PUBCHEM_CONFORMER_RMSD>  (1) 
0.8

>  <PUBCHEM_CONFORMER_DIVERSEORDER>  (1) 
1
60
57
38
65
43
24
3
51
59
41
29
22
6
27
36
44
20
67
58
52
12
11
34
53
50
26
47
48
45
39
37
30
4
14
46
70
68
8
49
33
32
56
5
17
55
25
7
19
23
28
40
31
16
66
54
69
13
2
35
63
15
21
61
10
9
62
64
42
18

>  <PUBCHEM_MMFF94_PARTIAL_CHARGES>  (1) 
24
1 -0.34
11 0.33
12 -0.15
13 -0.15
14 -0.14
15 -0.15
16 -0.15
17 0.57
18 1.16
19 0.3
2 -0.34
23 0.36
29 0.15
3 -0.34
30 0.15
31 0.15
32 0.15
33 0.37
4 -0.57
5 -0.9
6 -0.73
7 0.27
8 0.14
9 -0.14

>  <PUBCHEM_EFFECTIVE_ROTOR_COUNT>  (1) 
7

>  <PUBCHEM_PHARMACOPHORE_FEATURES>  (1) 
5
1 4 acceptor
1 5 cation
1 5 donor
1 6 donor
6 9 12 13 14 15 16 rings

>  <PUBCHEM_HEAVY_ATOM_COUNT>  (1) 
19

>  <PUBCHEM_ATOM_DEF_STEREO_COUNT>  (1) 
0

>  <PUBCHEM_ATOM_UDEF_STEREO_COUNT>  (1) 
1

>  <PUBCHEM_BOND_DEF_STEREO_COUNT>  (1) 
0

>  <PUBCHEM_BOND_UDEF_STEREO_COUNT>  (1) 
0

>  <PUBCHEM_ISOTOPIC_ATOM_COUNT>  (1) 
0

>  <PUBCHEM_COMPONENT_COUNT>  (1) 
1

>  <PUBCHEM_CACTVS_TAUTO_COUNT>  (1) 
2

>  <PUBCHEM_CONFORMER_ID>  (1) 
00009A2800000001

>  <PUBCHEM_MMFF94_ENERGY>  (1) 
29.2451

>  <PUBCHEM_FEATURE_SELFOVERLAP>  (1) 
25.372

>  <PUBCHEM_SHAPE_FINGERPRINT>  (1) 
11045977 3 17967537913034063617
11458722 120 18272088296931750189
12236239 1 18271807955509888160
12553582 1 18338219510901797598
12592029 89 18342462525651126647
12616971 3 18343581876339023917
12788726 201 17632031813326357304
13167372 99 18341899559198474409
13167823 11 18337107985976304899
13533116 47 16200157539042743430
13675066 3 18059851783440618363
13785724 45 18053389803370663566
14123256 10 8286197249669665291
14251718 22 10087639295799917041
14251764 18 18341048601121353445
14341114 176 18186526518662468073
15142383 8 18186793652041809637
15375358 24 13326857763759408613
15527383 91 18260829306142139268
15806764 133 16950829393106538885
17844677 252 18040438797967727165
18186145 218 17822279232184922796
19141452 34 18131062753630901134
19784866 9 18201721747619615499
20281389 69 18410856564895418105
20645477 70 18335140916718882566
21267235 1 18337112277001723606
212847 35 18131353037706893881
21774942 28 15410063829652457153
23035841 295 14129059210255540673
23402539 116 17060050459094633629
23559900 14 18040997392702770209
23622692 88 18201999936714093532
33382 64 16443617996455197826
345986 75 18267008484492033672
34797466 226 13695878008026136411
4072396 5 17704353247352243543
4073 2 17749958898070831131
42 15 18335139808448508765
42630746 31 17632583712592247855
465052 167 18408047311778881023
5104073 3 18339360881032570395
5486654 2 8502366745896441729
59755656 215 17703518696525629695
633830 44 18114455768928501563
77779 3 18263364840633712049
8272917 22 18410296895595202383
8509985 295 18060419127187937497
9999458 23 18187366544839110054

>  <PUBCHEM_SHAPE_MULTIPOLES>  (1) 
353.36
14.03
1.85
0.94
18.36
0.5
0.05
-0.79
-3.56
-1.55
0.37
-0.24
-0.34
-0.64

>  <PUBCHEM_SHAPE_SELFOVERLAP>  (1) 
720.414

>  <PUBCHEM_SHAPE_VOLUME>  (1) 
206.5

>  <PUBCHEM_COORDINATE_TYPE>  (1) 
2
5
10

$$$$
