39463
     RDKit          3D

 19 19  0  0  0  0  0  0  0  0999 V2000
    2.3947   -1.2349    0.4032 S   0  0  0  0  0  0  0  0  0  0  0  0
    3.9550    0.7725   -0.1262 F   0  0  0  0  0  0  0  0  0  0  0  0
    3.9549   -0.8194   -1.6167 F   0  0  0  0  0  0  0  0  0  0  0  0
    2.2612    0.5454   -1.4867 F   0  0  0  0  0  0  0  0  0  0  0  0
    3.4519   -1.7858    1.2302 O   0  0  0  0  0  0  0  0  0  0  0  0
    1.5099   -2.1079   -0.3421 O   0  0  0  0  0  0  0  0  0  0  0  0
   -4.8504    0.4651   -0.7443 O   0  0  0  0  0  0  0  0  0  0  0  0
    1.5000   -0.1102    1.3485 N   0  0  0  0  0  0  0  0  0  0  0  0
   -3.1426   -0.8818    0.1655 N   0  0  0  0  0  0  0  0  0  0  0  0
    0.2613    0.3812    0.8297 C   0  0  0  0  0  0  0  0  0  0  0  0
    0.1378    1.7053    0.4084 C   0  0  0  0  0  0  0  0  0  0  0  0
   -0.8320   -0.4814    0.7486 C   0  0  0  0  0  0  0  0  0  0  0  0
   -2.0487   -0.0197    0.2462 C   0  0  0  0  0  0  0  0  0  0  0  0
   -1.0788    2.1669   -0.0938 C   0  0  0  0  0  0  0  0  0  0  0  0
   -2.1720    1.3044   -0.1749 C   0  0  0  0  0  0  0  0  0  0  0  0
    1.2933    2.6497    0.4847 C   0  0  0  0  0  0  0  0  0  0  0  0
    3.1681   -0.1383   -0.7481 C   0  0  0  0  0  0  0  0  0  0  0  0
   -4.4322   -0.6014   -0.3054 C   0  0  0  0  0  0  0  0  0  0  0  0
   -5.3313   -1.8097   -0.2268 C   0  0  0  0  0  0  0  0  0  0  0  0
  1  5  2  0
  1  6  2  0
  1  8  1  0
  1 17  1  0
  2 17  1  0
  3 17  1  0
  4 17  1  0
  7 18  2  0
  8 10  1  0
  9 13  1  0
  9 18  1  0
 10 11  2  0
 10 12  1  0
 11 14  1  0
 11 16  1  0
 12 13  2  0
 13 15  1  0
 14 15  2  0
 18 19  1  0
M  END
>  <PUBCHEM_COMPOUND_CID>  (1) 
39463

>  <PUBCHEM_CONFORMER_RMSD>  (1) 
0.6

>  <PUBCHEM_CONFORMER_DIVERSEORDER>  (1) 
2
26
52
22
31
39
36
24
53
41
34
17
38
43
23
55
54
11
50
47
9
1
32
8
19
5
7
51
44
27
28
40
21
25
35
3
29
45
46
13
4
6
15
18
16
48
30
37
12
14
33
49
10
42
20

>  <PUBCHEM_MMFF94_PARTIAL_CHARGES>  (1) 
24
1 1.33
10 0.2
11 -0.14
12 -0.15
13 0.12
14 -0.15
15 -0.15
16 0.14
17 1.13
18 0.57
19 0.06
2 -0.34
20 0.42
21 0.15
22 0.15
23 0.15
27 0.37
3 -0.34
4 -0.34
5 -0.65
6 -0.65
7 -0.57
8 -0.76
9 -0.55

>  <PUBCHEM_EFFECTIVE_ROTOR_COUNT>  (1) 
5

>  <PUBCHEM_PHARMACOPHORE_FEATURES>  (1) 
6
1 5 acceptor
1 6 acceptor
1 7 acceptor
1 8 donor
1 9 donor
6 10 11 12 13 14 15 rings

>  <PUBCHEM_HEAVY_ATOM_COUNT>  (1) 
19

>  <PUBCHEM_ATOM_DEF_STEREO_COUNT>  (1) 
0

>  <PUBCHEM_ATOM_UDEF_STEREO_COUNT>  (1) 
0

>  <PUBCHEM_BOND_DEF_STEREO_COUNT>  (1) 
0

>  <PUBCHEM_BOND_UDEF_STEREO_COUNT>  (1) 
0

>  <PUBCHEM_ISOTOPIC_ATOM_COUNT>  (1) 
0

>  <PUBCHEM_COMPONENT_COUNT>  (1) 
1

>  <PUBCHEM_CACTVS_TAUTO_COUNT>  (1) 
2

>  <PUBCHEM_CONFORMER_ID>  (1) 
00009A2700000002

>  <PUBCHEM_MMFF94_ENERGY>  (1) 
44.9594

>  <PUBCHEM_FEATURE_SELFOVERLAP>  (1) 
30.465

>  <PUBCHEM_SHAPE_FINGERPRINT>  (1) 
10064457 181 14836117797104964756
11543360 7 16081085991932143611
12251169 10 11095882644448518408
12553582 1 18411709763804990755
12670546 177 17894910741750122455
13464513 79 18059857315295283214
14252887 29 16773790390056753858
14576447 43 18408604777048418398
14790565 3 17762620586620808705
15061688 2 13695878077067002854
15342816 4 18412829066505013854
15536298 74 18269549593519184593
16945 1 17822875146487270136
17492 54 18192732235108817212
18186145 218 16226335819598159769
18222031 100 17988918981582530239
18915474 69 18333449828964580995
200 152 18260267429962099390
20281475 54 18410854331121501427
20369508 70 18341325682209487121
20388580 30 18272658981926261805
20645477 70 18270963569624774061
20671657 53 18411133645645597385
20871999 31 18337676317280888653
212916 134 10953746654701761388
21637258 2 16415202235063500878
221490 88 18119248604718146827
23382010 3 17167866374237692665
23402539 116 18261385611897159066
23419403 2 17826474908986448524
23557571 272 18128527172574598250
23559900 14 18335414660643690880
2748010 2 17830466328893680648
2871803 45 18411140220881597518
3004659 81 18040709221455657971
3060560 45 18343018934316420454
3323516 105 18335700589543646317
42630746 31 18199180879000070833
465052 167 18129948987460480255
474 4 8935010278186261919
4990 188 18336827593273077173
7164475 11 18116709617109186716
7364860 26 18198900495024415073
94968 8 18343866631979820846

>  <PUBCHEM_SHAPE_MULTIPOLES>  (1) 
345.47
8.72
2.33
1.1
7.88
0.76
0.13
-4.79
2.4
-0.4
-0.19
-1
-0.16
-0.05

>  <PUBCHEM_SHAPE_SELFOVERLAP>  (1) 
704.563

>  <PUBCHEM_SHAPE_VOLUME>  (1) 
201.3

>  <PUBCHEM_COORDINATE_TYPE>  (1) 
2
5
10

$$$$
