3946
     RDKit          3D

 20 21  0  0  0  0  0  0  0  0999 V2000
    3.1016    3.4035   -1.1540 Cl  0  0  0  0  0  0  0  0  0  0  0  0
    2.9545   -2.9924    0.4205 O   0  0  0  0  0  0  0  0  0  0  0  0
   -3.8648   -1.9098   -0.9712 O   0  0  0  0  0  0  0  0  0  0  0  0
    0.9508   -2.4974    1.3726 O   0  0  0  0  0  0  0  0  0  0  0  0
   -1.7674   -1.6765   -1.8157 O   0  0  0  0  0  0  0  0  0  0  0  0
   -0.1836   -0.3401    0.0373 N   0  0  0  0  0  0  0  0  0  0  0  0
    1.1559    0.0787   -0.0598 C   0  0  0  0  0  0  0  0  0  0  0  0
   -1.3854    0.3546    0.2988 C   0  0  0  0  0  0  0  0  0  0  0  0
    2.2065   -0.7781    0.2813 C   0  0  0  0  0  0  0  0  0  0  0  0
   -2.5972   -0.0842   -0.2347 C   0  0  0  0  0  0  0  0  0  0  0  0
    1.4380    1.3735   -0.5044 C   0  0  0  0  0  0  0  0  0  0  0  0
   -1.3492    1.4937    1.1030 C   0  0  0  0  0  0  0  0  0  0  0  0
    3.5280   -0.3436    0.1787 C   0  0  0  0  0  0  0  0  0  0  0  0
   -3.7727    0.6162    0.0360 C   0  0  0  0  0  0  0  0  0  0  0  0
    2.7595    1.8080   -0.6071 C   0  0  0  0  0  0  0  0  0  0  0  0
   -2.5247    2.1941    1.3737 C   0  0  0  0  0  0  0  0  0  0  0  0
    3.8044    0.9495   -0.2656 C   0  0  0  0  0  0  0  0  0  0  0  0
   -3.7365    1.7553    0.8401 C   0  0  0  0  0  0  0  0  0  0  0  0
    1.9514   -2.1347    0.7490 C   0  0  0  0  0  0  0  0  0  0  0  0
   -2.6691   -1.2704   -1.0784 C   0  0  0  0  0  0  0  0  0  0  0  0
  1 15  1  0
  2 19  1  0
  3 20  1  0
  4 19  2  0
  5 20  2  0
  6  7  1  0
  6  8  1  0
  7  9  2  0
  7 11  1  0
  8 10  2  0
  8 12  1  0
  9 13  1  0
  9 19  1  0
 10 14  1  0
 10 20  1  0
 11 15  2  0
 12 16  2  0
 13 17  2  0
 14 18  2  0
 15 17  1  0
 16 18  1  0
M  END
>  <PUBCHEM_COMPOUND_CID>  (1) 
3946

>  <PUBCHEM_CONFORMER_RMSD>  (1) 
0.6

>  <PUBCHEM_CONFORMER_DIVERSEORDER>  (1) 
1
24
30
26
29
2
28
31
16
19
13
17
25
20
10
9
15
4
18
22
21
11
23
8
12
5
14
27
3
7
6

>  <PUBCHEM_MMFF94_PARTIAL_CHARGES>  (1) 
30
1 -0.18
10 0.09
11 -0.15
12 -0.15
13 -0.15
14 -0.15
15 0.18
16 -0.15
17 -0.15
18 -0.15
19 0.63
2 -0.65
20 0.63
21 0.4
22 0.15
23 0.15
24 0.15
25 0.15
26 0.15
27 0.15
28 0.15
29 0.5
3 -0.65
30 0.5
4 -0.57
5 -0.57
6 -0.6
7 0.1
8 0.1
9 0.09

>  <PUBCHEM_EFFECTIVE_ROTOR_COUNT>  (1) 
4

>  <PUBCHEM_PHARMACOPHORE_FEATURES>  (1) 
10
1 2 acceptor
1 3 acceptor
1 4 acceptor
1 5 acceptor
1 6 cation
1 6 donor
3 2 4 19 anion
3 3 5 20 anion
6 7 9 11 13 15 17 rings
6 8 10 12 14 16 18 rings

>  <PUBCHEM_HEAVY_ATOM_COUNT>  (1) 
20

>  <PUBCHEM_ATOM_DEF_STEREO_COUNT>  (1) 
0

>  <PUBCHEM_ATOM_UDEF_STEREO_COUNT>  (1) 
0

>  <PUBCHEM_BOND_DEF_STEREO_COUNT>  (1) 
0

>  <PUBCHEM_BOND_UDEF_STEREO_COUNT>  (1) 
0

>  <PUBCHEM_ISOTOPIC_ATOM_COUNT>  (1) 
0

>  <PUBCHEM_COMPONENT_COUNT>  (1) 
1

>  <PUBCHEM_CACTVS_TAUTO_COUNT>  (1) 
3

>  <PUBCHEM_CONFORMER_ID>  (1) 
00000F6A00000001

>  <PUBCHEM_MMFF94_ENERGY>  (1) 
77.9463

>  <PUBCHEM_FEATURE_SELFOVERLAP>  (1) 
50.861

>  <PUBCHEM_SHAPE_FINGERPRINT>  (1) 
10616163 171 18273216400093804759
10759866 29 18411984684730153365
11578080 2 17980723174190454144
11640471 11 18341625805770991465
12553582 1 17829041010006646906
12788726 201 18131349739646718527
13009979 54 18128815253153371194
13538477 17 18201432550027780641
13583140 156 17969514723256188113
13965767 371 17407979690580745968
14178342 30 18340752772353390378
14787075 74 17904765827504900207
15099037 8 18340759365044105107
15279307 12 18413393120191001699
15342168 16 17751376168401434829
15375462 189 18343021138051205867
15442244 35 18195528090997997768
15669948 3 17988918968607775597
16752209 62 17774991398023244959
17492 89 18341613689895505671
1813 80 17905336126369086502
20510252 161 17759818326311539768
20645476 183 18341897359858077389
20715895 44 17620193136098325777
21634736 98 18412265025862085910
2255824 54 18335146367016492010
23557571 272 17417813993262272472
23559900 14 17488752164145901196
23566358 27 18336559247626495990
23598288 3 18202004369605672295
23598291 2 18339640023351675119
23598294 1 17917711318601689107
283562 15 16673605391011950776
34934 24 18341328907550747305
352729 6 17974577098081158890
4340502 62 17894643552187930129
474 4 18261396684565720648
53777708 50 18412827988505100227
603831 33 18199741608528947919
633830 44 18337122253778398524
6992083 37 18052538763979158577
7097593 13 18268426828463597274
7364860 26 18337395929120587144
7615 1 18341604906538919065
77492 1 18341330019973325817
7832392 63 18340491045573087264
84936 182 18341614884086123312
90525 40 18130788915264090199
9981440 41 18049719921725833232

>  <PUBCHEM_SHAPE_MULTIPOLES>  (1) 
385
7.5
3.34
1.26
1.51
0.12
-0.13
-1.68
-0.75
-2.13
0.04
0.64
0.11
-2.85

>  <PUBCHEM_SHAPE_SELFOVERLAP>  (1) 
827.234

>  <PUBCHEM_SHAPE_VOLUME>  (1) 
211.3

>  <PUBCHEM_COORDINATE_TYPE>  (1) 
2
5
10

$$$$
