39460
     RDKit          3D

 17 18  0  0  0  0  0  0  0  0999 V2000
    0.4993   -1.2648   -0.7126 O   0  0  0  0  0  0  0  0  0  0  0  0
    2.8165    0.0145    0.2746 N   0  0  0  0  0  0  0  0  0  0  0  0
    4.0917    1.9442    0.3998 N   0  0  0  0  0  0  0  0  0  0  0  0
    5.1835    0.0161   -0.1343 N   0  0  0  0  0  0  0  0  0  0  0  0
   -1.3915    0.1543   -0.2170 C   0  0  0  0  0  0  0  0  0  0  0  0
   -2.7490    0.2569    0.1697 C   0  0  0  0  0  0  0  0  0  0  0  0
   -0.8070   -1.1165   -0.3421 C   0  0  0  0  0  0  0  0  0  0  0  0
   -0.6586    1.3258   -0.4678 C   0  0  0  0  0  0  0  0  0  0  0  0
   -3.4819   -0.9146    0.4201 C   0  0  0  0  0  0  0  0  0  0  0  0
   -1.5500   -2.2699   -0.0892 C   0  0  0  0  0  0  0  0  0  0  0  0
   -3.3334    1.5278    0.2948 C   0  0  0  0  0  0  0  0  0  0  0  0
    1.3589   -1.9298    0.2085 C   0  0  0  0  0  0  0  0  0  0  0  0
   -2.8849   -2.1691    0.2912 C   0  0  0  0  0  0  0  0  0  0  0  0
   -1.2552    2.5803   -0.3385 C   0  0  0  0  0  0  0  0  0  0  0  0
   -2.5899    2.6810    0.0422 C   0  0  0  0  0  0  0  0  0  0  0  0
    2.7792   -1.4286    0.0226 C   0  0  0  0  0  0  0  0  0  0  0  0
    3.9725    0.5924    0.1783 C   0  0  0  0  0  0  0  0  0  0  0  0
  1  7  1  0
  1 12  1  0
  2 16  1  0
  2 17  2  3
  3 17  1  0
  4 17  1  0
  5  6  1  0
  5  7  2  0
  5  8  1  0
  6  9  2  0
  6 11  1  0
  7 10  1  0
  8 14  2  0
  9 13  1  0
 10 13  2  0
 11 15  2  0
 12 16  1  0
 14 15  1  0
M  END
>  <PUBCHEM_COMPOUND_CID>  (1) 
39460

>  <PUBCHEM_CONFORMER_RMSD>  (1) 
0.6

>  <PUBCHEM_CONFORMER_DIVERSEORDER>  (1) 
1
45
61
53
103
101
72
65
62
104
51
87
93
3
41
66
84
44
80
78
59
92
9
48
54
33
99
35
64
11
75
52
34
17
24
29
56
82
88
20
40
90
13
5
42
69
100
79
49
36
7
27
15
102
19
14
23
95
28
30
85
10
32
94
86
77
8
89
4
39
37
83
58
25
74
67
63
6
16
12
98
76
97
31
18
22
73
55
81
91
26
21
43
2
70
38
71
57
50
60
46
47
96
68

>  <PUBCHEM_MMFF94_PARTIAL_CHARGES>  (1) 
26
1 -0.36
10 -0.15
11 -0.15
12 0.28
13 -0.15
14 -0.15
15 -0.15
16 0.25
17 0.55
18 0.15
19 0.15
2 -0.7
20 0.15
21 0.15
24 0.15
25 0.15
28 0.15
29 0.4
3 -0.85
30 0.4
31 0.4
32 0.4
4 -0.85
7 0.08
8 -0.15
9 -0.15

>  <PUBCHEM_EFFECTIVE_ROTOR_COUNT>  (1) 
4

>  <PUBCHEM_PHARMACOPHORE_FEATURES>  (1) 
6
1 1 acceptor
1 3 donor
1 4 donor
4 2 3 4 17 cation
6 5 6 7 9 10 13 rings
6 5 6 8 11 14 15 rings

>  <PUBCHEM_HEAVY_ATOM_COUNT>  (1) 
17

>  <PUBCHEM_ATOM_DEF_STEREO_COUNT>  (1) 
0

>  <PUBCHEM_ATOM_UDEF_STEREO_COUNT>  (1) 
0

>  <PUBCHEM_BOND_DEF_STEREO_COUNT>  (1) 
0

>  <PUBCHEM_BOND_UDEF_STEREO_COUNT>  (1) 
0

>  <PUBCHEM_ISOTOPIC_ATOM_COUNT>  (1) 
0

>  <PUBCHEM_COMPONENT_COUNT>  (1) 
1

>  <PUBCHEM_CACTVS_TAUTO_COUNT>  (1) 
2

>  <PUBCHEM_CONFORMER_ID>  (1) 
00009A2400000001

>  <PUBCHEM_MMFF94_ENERGY>  (1) 
58.3435

>  <PUBCHEM_FEATURE_SELFOVERLAP>  (1) 
30.528

>  <PUBCHEM_SHAPE_FINGERPRINT>  (1) 
10493431 412 18269283361502954217
10498660 4 18409163320613262076
10608611 8 18340487755549114670
10616163 171 18410294718120330986
10670039 82 18262530303124997884
12173636 292 18338233748143078783
12390115 104 18128554681698158857
12403260 363 17906155262388763491
12633257 1 18048028580499310746
13027679 85 18266737060039325813
13140716 1 18122354742098296331
13897977 13 18411140225213481489
14420673 8 17975409119384013666
14787075 74 17752208550185129339
15163728 17 14834743262253591217
15196674 1 18410855490789252704
15475509 84 14158923706797372041
16945 1 17905056850594375311
17834072 32 18195528090935148889
20510252 161 18341616979966301515
21652331 79 18339079397297151850
22182937 141 18270968938012400736
23227448 37 18412261709783200245
23402539 116 18342451586875845807
23557571 272 18342468053242167486
23559900 14 18125999360978048798
2748010 2 17543371366892753039
3524813 1 18130781317308714344
5104073 3 18409448047012189266
7097593 13 17681537152842586562
7364860 26 16897646784897556599
9709674 26 18342177717858785990

>  <PUBCHEM_SHAPE_MULTIPOLES>  (1) 
329.04
7.91
3.1
0.69
10.8
0.7
-0.01
1.97
1.12
-1.85
0.01
-0.07
0
0.3

>  <PUBCHEM_SHAPE_SELFOVERLAP>  (1) 
700.908

>  <PUBCHEM_SHAPE_VOLUME>  (1) 
182.1

>  <PUBCHEM_COORDINATE_TYPE>  (1) 
2
5
10

$$$$
