39472
     RDKit          3D

 25 27  0  0  0  0  0  0  0  0999 V2000
    3.8484    2.4719    2.0629 O   0  0  0  0  0  0  0  0  0  0  0  0
   -0.9643    0.7637   -0.7116 N   0  0  0  0  0  0  0  0  0  0  0  0
    0.9274   -0.1272   -0.9385 C   0  0  0  0  0  0  0  0  0  0  0  0
   -0.1822   -0.1826    0.1211 C   0  0  0  0  0  0  0  0  0  0  0  0
   -0.1991    0.2943   -1.8925 C   0  0  0  0  0  0  0  0  0  0  0  0
    1.5670   -1.4713   -1.2634 C   0  0  0  0  0  0  0  0  0  0  0  0
    2.0693    0.8802   -0.7094 C   0  0  0  0  0  0  0  0  0  0  0  0
   -2.3521    0.3315   -0.8017 C   0  0  0  0  0  0  0  0  0  0  0  0
    2.4259   -1.9450   -0.0919 C   0  0  0  0  0  0  0  0  0  0  0  0
   -3.1195    0.6844    0.4730 C   0  0  0  0  0  0  0  0  0  0  0  0
    3.0490   -3.3125   -0.3736 C   0  0  0  0  0  0  0  0  0  0  0  0
    2.4456    1.2245    0.5889 C   0  0  0  0  0  0  0  0  0  0  0  0
    2.7277    1.4479   -1.8001 C   0  0  0  0  0  0  0  0  0  0  0  0
    3.9347   -3.7696    0.7853 C   0  0  0  0  0  0  0  0  0  0  0  0
    3.4805    2.1363    0.7963 C   0  0  0  0  0  0  0  0  0  0  0  0
    3.7626    2.3598   -1.5927 C   0  0  0  0  0  0  0  0  0  0  0  0
   -4.5531    0.2223    0.4018 C   0  0  0  0  0  0  0  0  0  0  0  0
    4.1389    2.7039   -0.2945 C   0  0  0  0  0  0  0  0  0  0  0  0
    4.5826   -5.1138    0.4948 C   0  0  0  0  0  0  0  0  0  0  0  0
   -5.5337    1.0685   -0.1157 C   0  0  0  0  0  0  0  0  0  0  0  0
   -4.8987   -1.0515    0.8534 C   0  0  0  0  0  0  0  0  0  0  0  0
   -6.8599    0.6411   -0.1816 C   0  0  0  0  0  0  0  0  0  0  0  0
   -6.2248   -1.4788    0.7875 C   0  0  0  0  0  0  0  0  0  0  0  0
    3.1333    1.8543    3.1322 C   0  0  0  0  0  0  0  0  0  0  0  0
   -7.2055   -0.6326    0.2700 C   0  0  0  0  0  0  0  0  0  0  0  0
  1 15  1  0
  1 24  1  0
  2  4  1  0
  2  5  1  0
  2  8  1  0
  3  4  1  0
  3  5  1  0
  3  6  1  0
  3  7  1  0
  6  9  1  0
  7 12  2  0
  7 13  1  0
  8 10  1  0
  9 11  1  0
 10 17  1  0
 11 14  1  0
 12 15  1  0
 13 16  2  0
 14 19  1  0
 15 18  2  0
 16 18  1  0
 17 20  2  0
 17 21  1  0
 20 22  1  0
 21 23  2  0
 22 25  2  0
 23 25  1  0
M  END
>  <PUBCHEM_COMPOUND_CID>  (1) 
39472

>  <PUBCHEM_CONFORMER_RMSD>  (1) 
1

>  <PUBCHEM_CONFORMER_DIVERSEORDER>  (1) 
1
33
51
89
47
52
77
73
6
101
102
60
34
82
72
104
95
76
66
90
54
85
40
55
46
30
43
105
41
61
99
83
91
59
5
12
103
28
53
68
106
78
26
62
20
88
70
79
74
13
69
94
75
17
31
27
93
35
56
25
84
86
22
9
100
71
23
29
16
10
36
37
32
24
63
97
57
65
7
80
98
87
3
45
48
42
11
64
49
81
58
8
92
18
44
2
50
4
39
19
38
21
67
96
14
15

>  <PUBCHEM_MMFF94_PARTIAL_CHARGES>  (1) 
29
1 -0.36
10 0.14
12 -0.15
13 -0.15
15 0.08
16 -0.15
17 -0.14
18 -0.15
2 -0.69
20 -0.15
21 -0.15
22 -0.15
23 -0.15
24 0.28
25 -0.15
3 0.11
4 0.21
40 0.15
41 0.15
44 0.15
45 0.15
49 0.15
5 0.21
50 0.15
51 0.15
52 0.15
56 0.15
7 -0.11
8 0.27

>  <PUBCHEM_EFFECTIVE_ROTOR_COUNT>  (1) 
9.8

>  <PUBCHEM_PHARMACOPHORE_FEATURES>  (1) 
7
1 1 acceptor
1 19 hydrophobe
1 2 cation
4 2 3 4 5 rings
4 6 9 11 14 hydrophobe
6 17 20 21 22 23 25 rings
6 7 12 13 15 16 18 rings

>  <PUBCHEM_HEAVY_ATOM_COUNT>  (1) 
25

>  <PUBCHEM_ATOM_DEF_STEREO_COUNT>  (1) 
0

>  <PUBCHEM_ATOM_UDEF_STEREO_COUNT>  (1) 
0

>  <PUBCHEM_BOND_DEF_STEREO_COUNT>  (1) 
0

>  <PUBCHEM_BOND_UDEF_STEREO_COUNT>  (1) 
0

>  <PUBCHEM_ISOTOPIC_ATOM_COUNT>  (1) 
0

>  <PUBCHEM_COMPONENT_COUNT>  (1) 
1

>  <PUBCHEM_CACTVS_TAUTO_COUNT>  (1) 
1

>  <PUBCHEM_CONFORMER_ID>  (1) 
00009A3000000001

>  <PUBCHEM_MMFF94_ENERGY>  (1) 
72.5807

>  <PUBCHEM_FEATURE_SELFOVERLAP>  (1) 
35.522

>  <PUBCHEM_SHAPE_FINGERPRINT>  (1) 
11070050 100 18270678791754831752
11443803 9 17316215906716463124
11963148 33 18337952428134324583
12107183 9 17905055755367477369
12730499 353 18270130113861722509
13073987 5 18410022031474948081
13533116 47 18410859841580619675
13540713 4 17970050180549104317
1361 4 18335990882811993691
13955234 65 18409733971580000088
14461889 52 18264212581537358659
14528608 73 16845579742529648285
14565420 104 18129656546909906656
146900 427 17632588179674493105
14739800 52 17846770836624761857
14955137 171 17915745275947732198
15475509 84 18058168315069297552
16991971 28 18198074577636330998
20600515 1 17549829880734878604
21049683 271 18262525780608662094
21344244 78 17559948823262443394
23081809 10 12540699237240682503
23559900 14 18260831445557858183
244849 19 17897703414942119095
249999 5 18411138043792205142
32027 91 18116147780022501563
3421961 26 18334860463448925726
376196 1 16197036244754408176
4340502 62 18342178911843512607
5104073 3 18270974453657374113
9658208 31 17986117537576445836
9971528 1 17676498237428796237

>  <PUBCHEM_SHAPE_MULTIPOLES>  (1) 
503.64
15.55
4.42
1.84
34.31
6.35
0.96
3.33
3.85
-12.1
1.1
-2.56
-1.42
0.69

>  <PUBCHEM_SHAPE_SELFOVERLAP>  (1) 
1050.675

>  <PUBCHEM_SHAPE_VOLUME>  (1) 
288.6

>  <PUBCHEM_COORDINATE_TYPE>  (1) 
2
5
10

$$$$
