39478
     RDKit          3D

 30 31  0  0  0  0  0  0  0  0999 V2000
    6.8391   -1.8402   -1.9006 Cl  0  0  0  0  0  0  0  0  0  0  0  0
    4.4976   -0.1138   -1.1421 O   0  0  0  0  0  0  0  0  0  0  0  0
   -4.0517    0.2181    0.1578 O   0  0  0  0  0  0  0  0  0  0  0  0
    3.1117    2.5496    0.6256 O   0  0  0  0  0  0  0  0  0  0  0  0
   -3.7564    1.9434    1.6529 O   0  0  0  0  0  0  0  0  0  0  0  0
   -7.5315   -0.9768   -0.1027 N   0  0  0  0  0  0  0  0  0  0  0  0
    2.1303    0.8717   -0.6784 N   0  0  0  0  0  0  0  0  0  0  0  0
    4.5303    1.2843   -0.8570 C   0  0  0  0  0  0  0  0  0  0  0  0
   -6.1056   -0.8992   -0.3834 C   0  0  0  0  0  0  0  0  0  0  0  0
   -8.1874    0.3002   -0.3944 C   0  0  0  0  0  0  0  0  0  0  0  0
   -8.1543   -2.0532   -0.8770 C   0  0  0  0  0  0  0  0  0  0  0  0
   -5.4522    0.1895    0.4529 C   0  0  0  0  0  0  0  0  0  0  0  0
    3.1827    1.6516   -0.2109 C   0  0  0  0  0  0  0  0  0  0  0  0
    4.7176    2.0035   -2.1913 C   0  0  0  0  0  0  0  0  0  0  0  0
    5.7029    1.5488    0.0867 C   0  0  0  0  0  0  0  0  0  0  0  0
   -9.6640    0.2526   -0.0400 C   0  0  0  0  0  0  0  0  0  0  0  0
   -7.4906   -3.3896   -0.5915 C   0  0  0  0  0  0  0  0  0  0  0  0
    0.7676    0.9407   -0.3006 C   0  0  0  0  0  0  0  0  0  0  0  0
    4.9495   -0.9499   -0.1583 C   0  0  0  0  0  0  0  0  0  0  0  0
   -1.8979    1.0746    0.4379 C   0  0  0  0  0  0  0  0  0  0  0  0
    0.3718    1.8772    0.6395 C   0  0  0  0  0  0  0  0  0  0  0  0
   -0.1398    0.0696   -0.8796 C   0  0  0  0  0  0  0  0  0  0  0  0
   -3.2979    1.1452    0.8248 C   0  0  0  0  0  0  0  0  0  0  0  0
   -0.9708    1.9447    1.0115 C   0  0  0  0  0  0  0  0  0  0  0  0
   -1.4824    0.1371   -0.5077 C   0  0  0  0  0  0  0  0  0  0  0  0
    6.0288   -1.8017   -0.3783 C   0  0  0  0  0  0  0  0  0  0  0  0
    4.3074   -0.9331    1.0774 C   0  0  0  0  0  0  0  0  0  0  0  0
    6.4691   -2.6423    0.6440 C   0  0  0  0  0  0  0  0  0  0  0  0
    4.7476   -1.7739    2.0996 C   0  0  0  0  0  0  0  0  0  0  0  0
    5.8284   -2.6285    1.8830 C   0  0  0  0  0  0  0  0  0  0  0  0
  1 26  1  0
  2  8  1  0
  2 19  1  0
  3 12  1  0
  3 23  1  0
  4 13  2  0
  5 23  2  0
  6  9  1  0
  6 10  1  0
  6 11  1  0
  7 13  1  0
  7 18  1  0
  8 13  1  0
  8 14  1  0
  8 15  1  0
  9 12  1  0
 10 16  1  0
 11 17  1  0
 18 21  2  0
 18 22  1  0
 19 26  2  0
 19 27  1  0
 20 23  1  0
 20 24  2  0
 20 25  1  0
 21 24  1  0
 22 25  2  0
 26 28  1  0
 27 29  2  0
 28 30  2  0
 29 30  1  0
M  END
>  <PUBCHEM_COMPOUND_CID>  (1) 
39478

>  <PUBCHEM_CONFORMER_RMSD>  (1) 
1

>  <PUBCHEM_CONFORMER_DIVERSEORDER>  (1) 
1
80
86
196
201
72
50
119
55
112
77
216
90
151
25
117
76
189
128
63
49
22
183
186
135
141
116
167
207
162
61
45
26
20
111
205
214
114
222
132
221
178
78
171
182
92
42
81
154
12
120
168
140
215
203
7
199
157
136
127
41
70
206
146
134
98
89
181
38
175
147
142
219
87
172
188
193
139
91
197
16
102
210
169
195
131
194
28
208
177
23
220
104
95
99
212
192
148
159
170
166
34
125
21
106
150
65
200
18
121
176
217
69
100
44
138
185
56
4
101
122
68
143
124
218
109
133
190
48
37
52
163
113
118
105
213
54
31
6
152
75
209
126
96
58
160
165
93
179
123
103
184
161
79
180
211
13
82
10
15
137
5
84
144
59
145
30
40
74
9
64
164
62
43
19
173
85
153
3
83
67
129
130
2
8
202
97
108
51
39
47
191
33
110
29
73
57
187
17
107
53
156
35
115
11
149
71
204
32
174
94
158
14
88
24
66
46
198
155
60
27
36

>  <PUBCHEM_MMFF94_PARTIAL_CHARGES>  (1) 
35
1 -0.18
10 0.27
11 0.27
12 0.28
13 0.57
18 0.12
19 0.08
2 -0.36
20 0.09
21 -0.15
22 -0.15
23 0.63
24 -0.15
25 -0.15
26 0.18
27 -0.15
28 -0.15
29 -0.15
3 -0.43
30 -0.15
4 -0.57
5 -0.57
51 0.37
52 0.15
53 0.15
54 0.15
55 0.15
56 0.15
57 0.15
58 0.15
59 0.15
6 -0.81
7 -0.55
8 0.34
9 0.27

>  <PUBCHEM_EFFECTIVE_ROTOR_COUNT>  (1) 
12

>  <PUBCHEM_PHARMACOPHORE_FEATURES>  (1) 
8
1 2 acceptor
1 4 acceptor
1 5 acceptor
1 6 cation
1 7 donor
3 8 14 15 hydrophobe
6 18 20 21 22 24 25 rings
6 19 26 27 28 29 30 rings

>  <PUBCHEM_HEAVY_ATOM_COUNT>  (1) 
30

>  <PUBCHEM_ATOM_DEF_STEREO_COUNT>  (1) 
0

>  <PUBCHEM_ATOM_UDEF_STEREO_COUNT>  (1) 
0

>  <PUBCHEM_BOND_DEF_STEREO_COUNT>  (1) 
0

>  <PUBCHEM_BOND_UDEF_STEREO_COUNT>  (1) 
0

>  <PUBCHEM_ISOTOPIC_ATOM_COUNT>  (1) 
0

>  <PUBCHEM_COMPONENT_COUNT>  (1) 
1

>  <PUBCHEM_CACTVS_TAUTO_COUNT>  (1) 
3

>  <PUBCHEM_CONFORMER_ID>  (1) 
00009A3600000001

>  <PUBCHEM_MMFF94_ENERGY>  (1) 
100.9092

>  <PUBCHEM_FEATURE_SELFOVERLAP>  (1) 
40.596

>  <PUBCHEM_SHAPE_FINGERPRINT>  (1) 
10 15 14764622015028203867
11475781 23 14851604418292719484
11607047 74 18201157763333878472
11719270 70 17989208140361462799
12082328 90 17749108920818765919
12539765 74 11530749381061461113
12592606 108 18339645533984574462
13533116 47 18334012804782829840
13692114 37 17275097340822034631
13782708 43 18409444804549133557
13914758 101 18114180801202134985
14849402 71 10375859797906900107
15183329 4 16805605841680933313
15188451 53 18201717323396969593
15230672 131 18410851059037553327
1754908 1 14476962324857616615
19841028 212 18409444786873671762
20028762 73 18341049631924924330
21781051 124 17846788420258002894
21792934 111 16558748980313348833
22149856 69 16916804963157103075
22224240 67 13758357770093151525
22956985 138 17556313765081411854
23081809 10 18409740555860453625
23522609 53 18123503594206114529
23559900 14 16081953489463688220
3004659 81 18338243670103335052
34797466 226 16660361515008336805
3633792 109 17821449049419514105
397830 11 13038614215454774709
4098825 35 17967526832335360245
4169191 19 9511465516184642531
439807 62 18410292506486525625
474113 269 18342451505313268775
5104073 3 17775290469022415201
5718773 13 18342737425417665195
59682541 52 17167867448074461852
6438161 24 18261105258101962002
9962374 69 18334856109106428914

>  <PUBCHEM_SHAPE_MULTIPOLES>  (1) 
585.82
27.72
3.15
1.58
54.72
1.48
0.02
19.67
-4.66
-2.18
0.3
-2.84
0.29
-3.5

>  <PUBCHEM_SHAPE_SELFOVERLAP>  (1) 
1212.068

>  <PUBCHEM_SHAPE_VOLUME>  (1) 
336.1

>  <PUBCHEM_COORDINATE_TYPE>  (1) 
2
5
10

$$$$
