39470
     RDKit          3D

 22 23  0  0  1  0  0  0  0  0999 V2000
    3.8215    1.2736   -0.3035 N   0  0  0  0  0  0  0  0  0  0  0  0
   -3.8415    0.9918    0.9850 N   0  0  0  0  0  0  0  0  0  0  0  0
    0.0860    1.7210   -0.9358 C   0  0  0  0  0  0  0  0  0  0  0  0
   -1.1143    1.7712    0.0128 C   0  0  0  0  0  0  0  0  0  0  0  0
    1.3900    1.4854   -0.1650 C   0  0  0  0  0  0  0  0  0  0  0  0
   -2.4376    2.0904   -0.6934 C   0  0  0  0  0  0  0  0  0  0  0  0
    2.6188    1.4939   -1.0704 C   0  0  0  0  0  0  0  0  0  0  0  0
   -3.6503    2.2052    0.2276 C   0  0  0  0  0  0  0  0  0  0  0  0
    4.3162   -0.0181   -0.0739 C   0  0  0  0  0  0  0  0  0  0  0  0
   -4.1346   -0.2258    0.3544 C   0  0  0  0  0  0  0  0  0  0  0  0
    4.5362    2.4356    0.2279 C   0  0  0  0  0  0  0  0  0  0  0  0
   -3.7098    1.0474    2.4422 C   0  0  0  0  0  0  0  0  0  0  0  0
    5.6572   -0.2085    0.2764 C   0  0  0  0  0  0  0  0  0  0  0  0
   -3.8972   -1.4371    1.0130 C   0  0  0  0  0  0  0  0  0  0  0  0
    3.4730   -1.1281   -0.1934 C   0  0  0  0  0  0  0  0  0  0  0  0
   -4.6669   -0.2401   -0.9394 C   0  0  0  0  0  0  0  0  0  0  0  0
    6.1494   -1.4937    0.5041 C   0  0  0  0  0  0  0  0  0  0  0  0
   -4.1882   -2.6482    0.3853 C   0  0  0  0  0  0  0  0  0  0  0  0
    3.9652   -2.4133    0.0345 C   0  0  0  0  0  0  0  0  0  0  0  0
   -4.9580   -1.4513   -1.5670 C   0  0  0  0  0  0  0  0  0  0  0  0
    5.3035   -2.5959    0.3832 C   0  0  0  0  0  0  0  0  0  0  0  0
   -4.7186   -2.6554   -0.9046 C   0  0  0  0  0  0  0  0  0  0  0  0
  1  7  1  0
  1  9  1  0
  1 11  1  0
  2  8  1  0
  2 10  1  0
  2 12  1  0
  3  4  1  0
  3  5  1  0
  4  6  1  0
  5  7  1  0
  6  8  1  0
  9 13  2  0
  9 15  1  0
 10 14  2  0
 10 16  1  0
 13 17  1  0
 14 18  1  0
 15 19  2  0
 16 20  2  0
 17 21  2  0
 18 22  2  0
 19 21  1  0
 20 22  1  0
M  END
>  <PUBCHEM_COMPOUND_CID>  (1) 
39470

>  <PUBCHEM_CONFORMER_RMSD>  (1) 
0.8

>  <PUBCHEM_CONFORMER_DIVERSEORDER>  (1) 
1
13
160
119
166
185
41
108
34
88
176
181
8
152
225
216
77
174
11
82
95
217
165
177
187
117
57
17
69
145
84
50
201
170
184
211
43
71
150
109
105
54
58
197
83
159
12
116
100
190
60
203
85
138
89
198
212
21
37
249
224
241
6
162
191
111
232
226
4
234
91
79
20
221
140
233
73
106
55
81
2
46
175
104
147
213
220
72
188
250
44
9
38
31
132
194
243
163
40
39
218
204
158
247
22
171
178
251
5
75
202
61
51
139
18
33
169
70
115
97
76
126
56
219
130
49
65
113
173
15
239
248
134
148
167
161
137
141
47
110
35
94
26
164
74
207
93
42
28
153
80
68
242
7
121
96
237
27
135
155
124
78
30
107
129
214
172
168
32
53
209
189
196
99
240
223
149
142
131
200
120
118
151
246
19
195
245
87
92
143
114
222
25
90
3
14
103
205
63
231
235
238
102
156
193
244
146
236
86
52
123
16
133
228
112
64
199
66
208
45
101
182
136
48
227
10
186
62
210
98
59
229
192
24
128
183
67
29
215
36
127
125
144
206
122
157
230
179
154
180
23

>  <PUBCHEM_MMFF94_PARTIAL_CHARGES>  (1) 
28
1 -0.84
10 0.1
11 0.37
12 0.37
13 -0.15
14 -0.15
15 -0.15
16 -0.15
17 -0.15
18 -0.15
19 -0.15
2 -0.84
20 -0.15
21 -0.15
22 -0.15
41 0.15
42 0.15
43 0.15
44 0.15
45 0.15
46 0.15
47 0.15
48 0.15
49 0.15
50 0.15
7 0.37
8 0.37
9 0.1

>  <PUBCHEM_EFFECTIVE_ROTOR_COUNT>  (1) 
9

>  <PUBCHEM_PHARMACOPHORE_FEATURES>  (1) 
5
1 1 cation
1 2 cation
4 3 4 5 6 hydrophobe
6 10 14 16 18 20 22 rings
6 9 13 15 17 19 21 rings

>  <PUBCHEM_HEAVY_ATOM_COUNT>  (1) 
22

>  <PUBCHEM_ATOM_DEF_STEREO_COUNT>  (1) 
0

>  <PUBCHEM_ATOM_UDEF_STEREO_COUNT>  (1) 
0

>  <PUBCHEM_BOND_DEF_STEREO_COUNT>  (1) 
0

>  <PUBCHEM_BOND_UDEF_STEREO_COUNT>  (1) 
0

>  <PUBCHEM_ISOTOPIC_ATOM_COUNT>  (1) 
0

>  <PUBCHEM_COMPONENT_COUNT>  (1) 
1

>  <PUBCHEM_CACTVS_TAUTO_COUNT>  (1) 
1

>  <PUBCHEM_CONFORMER_ID>  (1) 
00009A2E00000001

>  <PUBCHEM_MMFF94_ENERGY>  (1) 
75.8634

>  <PUBCHEM_FEATURE_SELFOVERLAP>  (1) 
25.371

>  <PUBCHEM_SHAPE_FINGERPRINT>  (1) 
10864689 126 17545607747273160326
11036077 4 18201446831422028041
12107183 9 18196380216762962897
12174731 88 18191016803195395786
12596602 18 17632577154446095216
13103583 49 18059867116395179496
14251751 18 18411980239491684594
14848178 5 18335134336454490853
14950920 106 17918276449924114008
15250474 111 18410857663520322382
15361156 5 17895207558123654900
15728490 83 18189906477478337163
15799311 1 18336562555057074308
15880784 105 18342176678418769112
17627616 140 17605545548960414083
17780758 139 18060139812748621033
17857418 61 18409446981627976124
19377110 9 17845925342738629720
20028762 73 18341325622624004630
20843269 155 18127968809641546047
21033648 29 14620523293962761449
21673915 165 18409449223595577860
23559900 14 18267573779957079401
23572383 38 18042120028128428386
312425 54 18272652311926506120
314194 84 18261965127819438236
5104073 3 18202285809658661936
559249 180 18409446947964868813
5924683 9 18343021090838376277
6431902 208 18335421287393541810
7970288 3 18049445039613890859
8863177 126 18337671915540641062

>  <PUBCHEM_SHAPE_MULTIPOLES>  (1) 
442.79
16.82
3.55
1.32
9.94
0.94
-0.44
9.52
-1.06
-0.12
0.18
-2.11
-0.15
-1.68

>  <PUBCHEM_SHAPE_SELFOVERLAP>  (1) 
904.118

>  <PUBCHEM_SHAPE_VOLUME>  (1) 
254.1

>  <PUBCHEM_COORDINATE_TYPE>  (1) 
2
5
10

$$$$
