3948
     RDKit          3D

 25 27  0  0  1  0  0  0  0  0999 V2000
    0.9191   -1.9713   -0.3670 F   0  0  0  0  0  0  0  0  0  0  0  0
    1.9091    2.5345    0.6021 F   0  0  0  0  0  0  0  0  0  0  0  0
   -3.1086    2.3970    0.3805 O   0  0  0  0  0  0  0  0  0  0  0  0
   -5.4466    1.6255   -0.5247 O   0  0  0  0  0  0  0  0  0  0  0  0
   -5.9878   -0.4817    0.1802 O   0  0  0  0  0  0  0  0  0  0  0  0
    2.7743   -0.0474    0.1009 N   0  0  0  0  0  0  0  0  0  0  0  0
    5.5823   -0.5238    0.2503 N   0  0  0  0  0  0  0  0  0  0  0  0
   -1.9086   -1.4292   -0.3630 N   0  0  0  0  0  0  0  0  0  0  0  0
    5.0426    0.3687   -0.7815 C   0  0  0  0  0  0  0  0  0  0  0  0
    3.7200    0.9974   -0.3181 C   0  0  0  0  0  0  0  0  0  0  0  0
    3.3006   -1.0404    1.0427 C   0  0  0  0  0  0  0  0  0  0  0  0
    4.6334   -1.5957    0.5435 C   0  0  0  0  0  0  0  0  0  0  0  0
    1.4107    0.2667    0.1144 C   0  0  0  0  0  0  0  0  0  0  0  0
    6.0728    1.4527   -1.0937 C   0  0  0  0  0  0  0  0  0  0  0  0
    0.4624   -0.7323   -0.1283 C   0  0  0  0  0  0  0  0  0  0  0  0
   -0.9157   -0.4508   -0.1230 C   0  0  0  0  0  0  0  0  0  0  0  0
    1.0052    1.5724    0.3687 C   0  0  0  0  0  0  0  0  0  0  0  0
   -1.3005    0.8848    0.1378 C   0  0  0  0  0  0  0  0  0  0  0  0
   -0.3502    1.8859    0.3812 C   0  0  0  0  0  0  0  0  0  0  0  0
   -1.5192   -2.8120   -0.6326 C   0  0  0  0  0  0  0  0  0  0  0  0
   -2.7419    1.2499    0.1571 C   0  0  0  0  0  0  0  0  0  0  0  0
   -3.2421   -1.0624   -0.3415 C   0  0  0  0  0  0  0  0  0  0  0  0
   -3.7186    0.1654   -0.1068 C   0  0  0  0  0  0  0  0  0  0  0  0
   -1.4249   -3.6209    0.6446 C   0  0  0  0  0  0  0  0  0  0  0  0
   -5.1677    0.3669   -0.1238 C   0  0  0  0  0  0  0  0  0  0  0  0
  1 15  1  0
  2 17  1  0
  3 21  2  0
  4 25  1  0
  5 25  2  0
  6 10  1  0
  6 11  1  0
  6 13  1  0
  7  9  1  0
  7 12  1  0
  8 16  1  0
  8 20  1  0
  8 22  1  0
  9 10  1  0
  9 14  1  0
 11 12  1  0
 13 15  1  0
 13 17  2  0
 15 16  2  0
 16 18  1  0
 17 19  1  0
 18 19  2  0
 18 21  1  0
 20 24  1  0
 21 23  1  0
 22 23  2  0
 23 25  1  0
M  END
>  <PUBCHEM_COMPOUND_CID>  (1) 
3948

>  <PUBCHEM_CONFORMER_RMSD>  (1) 
0.8

>  <PUBCHEM_CONFORMER_DIVERSEORDER>  (1) 
2
5
6
1
4
3

>  <PUBCHEM_MMFF94_PARTIAL_CHARGES>  (1) 
27
1 -0.19
10 0.37
11 0.37
12 0.27
13 0.1
15 0.19
16 0.1
17 0.19
18 0.09
19 -0.15
2 -0.19
20 0.37
21 0.47
22 -0.05
23 0.03
25 0.71
3 -0.57
33 0.36
37 0.15
4 -0.65
40 0.15
44 0.5
5 -0.57
6 -0.84
7 -0.9
8 -0.57
9 0.27

>  <PUBCHEM_EFFECTIVE_ROTOR_COUNT>  (1) 
4.2

>  <PUBCHEM_PHARMACOPHORE_FEATURES>  (1) 
12
1 23 anion
1 3 acceptor
1 4 acceptor
1 5 acceptor
1 6 cation
1 7 cation
1 7 donor
1 8 cation
3 4 5 25 anion
6 13 15 16 17 18 19 rings
6 6 7 9 10 11 12 rings
6 8 16 18 21 22 23 rings

>  <PUBCHEM_HEAVY_ATOM_COUNT>  (1) 
25

>  <PUBCHEM_ATOM_DEF_STEREO_COUNT>  (1) 
0

>  <PUBCHEM_ATOM_UDEF_STEREO_COUNT>  (1) 
1

>  <PUBCHEM_BOND_DEF_STEREO_COUNT>  (1) 
0

>  <PUBCHEM_BOND_UDEF_STEREO_COUNT>  (1) 
0

>  <PUBCHEM_ISOTOPIC_ATOM_COUNT>  (1) 
0

>  <PUBCHEM_COMPONENT_COUNT>  (1) 
1

>  <PUBCHEM_CACTVS_TAUTO_COUNT>  (1) 
1

>  <PUBCHEM_CONFORMER_ID>  (1) 
00000F6C00000002

>  <PUBCHEM_MMFF94_ENERGY>  (1) 
76.6434

>  <PUBCHEM_FEATURE_SELFOVERLAP>  (1) 
61.319

>  <PUBCHEM_SHAPE_FINGERPRINT>  (1) 
10366900 7 17275388698702491706
10411042 1 17690563404572648239
10616163 171 18339927120926282182
10906281 52 18272105880263986023
10967382 1 18341047437227446571
1100329 8 18340764935801064163
11578080 2 16915082173964197906
11607047 403 15330350688459260363
12011746 2 18342457036809120397
12107183 9 17614557039029161264
12236239 1 18114181921439116812
12390115 104 17916318151438666649
12403814 3 17894628128058556149
12553582 1 18340193155173251544
12788726 201 18059582351621128824
13140716 1 18269550718484007603
13583140 156 17531258278405590593
13760787 19 18333732455287893646
13862211 1 18342733009996067223
14251757 5 18339366361110418758
14790565 3 18338239262670616104
15042514 8 18339079414852229915
15099037 51 18341892995865369047
15196674 1 18340764939906049201
17349148 13 17989203741724016381
17804303 29 18271524290126256265
19319366 153 17967809449283073426
19591789 44 18339077064771233475
20028762 73 18059567032053409631
20511986 3 18260535750102835500
20681677 155 18408884079103941370
21267235 1 18412268315411233266
21279426 13 18197500631837650423
21859007 373 17972007328347903556
23175994 123 16630527349161839384
23402539 116 18272641347164798719
23522609 53 18196119744345563201
23559900 14 18129095787748755520
23569943 247 16843342098269172111
3004659 81 18335141952243889910
3178227 256 18337403694869851737
335352 9 18413669128059479789
34797466 226 17489595597471857116
34934 24 18410007775919271402
350125 39 18411419492988945825
3680242 22 18338238133178509754
3759504 43 18114184150775446595
4058900 60 18116154368512077689
4340502 62 16805611338922568203
474 4 17531537585278417548
484989 97 18193551401964509303
5104073 3 18270961362101255443
59755656 215 18271526394834506415
6138700 20 18339641114268450659
9709674 26 18054501671486818569

>  <PUBCHEM_SHAPE_MULTIPOLES>  (1) 
467.39
12.3
2.91
0.82
4.22
1.67
0.02
-2.85
1.9
-1.18
-0.3
0.54
0.05
-0.77

>  <PUBCHEM_SHAPE_SELFOVERLAP>  (1) 
1010.379

>  <PUBCHEM_SHAPE_VOLUME>  (1) 
256

>  <PUBCHEM_COORDINATE_TYPE>  (1) 
2
5
10

$$$$
