39486
     RDKit          3D

 16 16  0  0  0  0  0  0  0  0999 V2000
    4.7779    1.4423    0.0076 O   0  0  0  0  0  0  0  0  0  0  0  0
    5.9996   -0.5454    0.0960 N   0  0  0  0  0  0  0  0  0  0  0  0
    7.1960   -0.0735    0.7283 C   0  0  0  0  0  0  0  0  0  0  0  0
    7.1358   -0.2719   -0.7337 C   0  0  0  0  0  0  0  0  0  0  0  0
   -0.1858    0.3556   -0.0669 C   0  0  0  0  0  0  0  0  0  0  0  0
    1.0554   -0.5385   -0.0311 C   0  0  0  0  0  0  0  0  0  0  0  0
   -1.4695   -0.4768   -0.0291 C   0  0  0  0  0  0  0  0  0  0  0  0
    2.3687    0.2473   -0.0355 C   0  0  0  0  0  0  0  0  0  0  0  0
    3.6060   -0.6416    0.0260 C   0  0  0  0  0  0  0  0  0  0  0  0
   -2.7118    0.4130   -0.0988 C   0  0  0  0  0  0  0  0  0  0  0  0
    4.8426    0.2158    0.0404 C   0  0  0  0  0  0  0  0  0  0  0  0
   -3.9950   -0.4164   -0.0274 C   0  0  0  0  0  0  0  0  0  0  0  0
   -5.2377    0.4763   -0.0639 C   0  0  0  0  0  0  0  0  0  0  0  0
   -6.5192   -0.3535    0.0416 C   0  0  0  0  0  0  0  0  0  0  0  0
   -7.7929    0.4945    0.0339 C   0  0  0  0  0  0  0  0  0  0  0  0
   -9.0701   -0.3271    0.1127 C   0  0  0  0  0  0  0  0  0  0  0  0
  1 11  2  0
  2  3  1  0
  2  4  1  0
  2 11  1  0
  3  4  1  0
  5  6  1  0
  5  7  1  0
  6  8  1  0
  7 10  1  0
  8  9  1  0
  9 11  1  0
 10 12  1  0
 12 13  1  0
 13 14  1  0
 14 15  1  0
 15 16  1  0
M  END
>  <PUBCHEM_COMPOUND_CID>  (1) 
39486

>  <PUBCHEM_CONFORMER_RMSD>  (1) 
1

>  <PUBCHEM_CONFORMER_DIVERSEORDER>  (1) 
1
318
241
257
83
282
267
6
161
118
37
289
18
326
226
224
25
124
50
91
69
64
314
183
114
41
262
229
33
189
55
89
44
23
277
191
255
209
336
184
84
73
302
171
286
79
197
76
19
28
265
74
14
340
26
290
312
159
228
60
273
88
200
163
166
344
96
175
87
58
71
130
144
160
208
342
115
56
15
95
141
347
202
4
291
213
45
100
207
231
172
278
194
192
298
150
170
11
285
259
292
138
215
180
190
43
7
24
139
20
131
53
39
52
283
280
284
319
206
85
325
263
322
155
145
110
205
22
143
59
57
295
16
305
254
251
78
333
187
310
264
337
345
12
195
125
148
243
36
341
288
307
98
167
198
149
113
173
293
218
177
135
62
261
199
40
70
75
111
47
133
101
108
211
252
331
221
116
32
72
303
186
13
272
49
178
212
8
323
137
120
225
306
196
227
294
9
320
203
233
316
266
287
29
327
343
185
123
168
258
188
2
315
253
119
151
17
245
313
247
201
92
42
260
239
105
31
308
165
38
338
10
77
158
235
346
300
82
249
68
30
181
269
94
232
164
304
27
140
335
156
179
112
176
339
97
217
104
210
330
324
61
134
332
162
348
182
132
65
220
128
236
317
349
129
281
106
274
248
169
296
93
147
48
174
256
136
51
328
21
299
90
214
321
81
122
238
268
279
126
270
246
222
34
311
234
103
216
275
242
86
154
35
67
152
99
102
250
297
109
153
271
117
157
54
5
329
193
309
3
46
80
146
204
223
301
142
107
66
240
127
276
244
237
63
219
121
334
230

>  <PUBCHEM_MMFF94_PARTIAL_CHARGES>  (1) 
10
1 -0.57
11 0.57
17 0.1
18 0.1
19 0.1
2 -0.36
20 0.1
3 -0.05
4 -0.05
9 0.06

>  <PUBCHEM_EFFECTIVE_ROTOR_COUNT>  (1) 
11.6

>  <PUBCHEM_PHARMACOPHORE_FEATURES>  (1) 
2
1 1 acceptor
1 16 hydrophobe

>  <PUBCHEM_HEAVY_ATOM_COUNT>  (1) 
16

>  <PUBCHEM_ATOM_DEF_STEREO_COUNT>  (1) 
0

>  <PUBCHEM_ATOM_UDEF_STEREO_COUNT>  (1) 
0

>  <PUBCHEM_BOND_DEF_STEREO_COUNT>  (1) 
0

>  <PUBCHEM_BOND_UDEF_STEREO_COUNT>  (1) 
0

>  <PUBCHEM_ISOTOPIC_ATOM_COUNT>  (1) 
0

>  <PUBCHEM_COMPONENT_COUNT>  (1) 
1

>  <PUBCHEM_CACTVS_TAUTO_COUNT>  (1) 
1

>  <PUBCHEM_CONFORMER_ID>  (1) 
00009A3E00000001

>  <PUBCHEM_MMFF94_ENERGY>  (1) 
16.3052

>  <PUBCHEM_FEATURE_SELFOVERLAP>  (1) 
10.148

>  <PUBCHEM_SHAPE_FINGERPRINT>  (1) 
11315181 36 18272655662728542273
11638347 137 17531245036931772459
12091667 2 18409448086320690431
13533116 47 17313092017802883834
14123256 10 15554448492260091627
14251764 18 18333731299825438723
14251764 46 18343301470218345458
155225 1 12463276035355812722
17834076 25 17561363980547303319
18006028 8 18410855460693015101
20281389 69 18408038515670203424
20621476 8 18343864394328149239
21150785 3 12175621776403020687
21315763 28 18410855460661275537
22224240 67 18342454850671110839
23035841 295 18260265256903794035
23521765 1 18341894091329929743
28498 318 18201439155529187534
33684 2 18408040701834554154
42788 4 18410292514469792260
4325135 7 18343021086421771605
59567204 34 18337669699813289981
59682541 35 16950569908547005633
59755656 520 17895188935309139003
67123 10 18410575101848229365
8209 1 18410856559639789575

>  <PUBCHEM_SHAPE_MULTIPOLES>  (1) 
318.42
28.23
0.86
0.68
22.22
0.11
0
-0.56
-0.96
-0.29
0
-0.44
-0.02
0.09

>  <PUBCHEM_SHAPE_SELFOVERLAP>  (1) 
593.284

>  <PUBCHEM_SHAPE_VOLUME>  (1) 
200.5

>  <PUBCHEM_COORDINATE_TYPE>  (1) 
2
5
10

$$$$
