39499
     RDKit          3D

 13 12  0  0  1  0  0  0  0  0999 V2000
    2.8169   -0.1021   -0.2479 C   0  0  0  0  0  0  0  0  0  0  0  0
    1.4529   -0.5285    0.4506 C   0  0  0  0  0  0  0  0  0  0  0  0
    0.1905   -0.0526   -0.3218 C   0  0  0  0  0  0  0  0  0  0  0  0
    2.8166    1.4442   -0.4837 C   0  0  0  0  0  0  0  0  0  0  0  0
    4.0089   -0.4777    0.6642 C   0  0  0  0  0  0  0  0  0  0  0  0
    3.0070   -0.8259   -1.5974 C   0  0  0  0  0  0  0  0  0  0  0  0
   -1.1282   -0.2827    0.4307 C   0  0  0  0  0  0  0  0  0  0  0  0
    1.3546   -2.0392    0.7345 C   0  0  0  0  0  0  0  0  0  0  0  0
   -2.3630    0.1592   -0.3640 C   0  0  0  0  0  0  0  0  0  0  0  0
    2.6899    2.3308    0.7522 C   0  0  0  0  0  0  0  0  0  0  0  0
   -3.7129   -0.0667    0.3240 C   0  0  0  0  0  0  0  0  0  0  0  0
   -4.9102    0.3387   -0.5361 C   0  0  0  0  0  0  0  0  0  0  0  0
   -6.2231    0.1026    0.1950 C   0  0  0  0  0  0  0  0  0  0  0  0
  1  2  1  0
  1  4  1  0
  1  5  1  0
  1  6  1  0
  2  3  1  0
  2  8  1  0
  3  7  1  0
  4 10  1  0
  7  9  1  0
  9 11  1  0
 11 12  1  0
 12 13  1  0
M  END
>  <PUBCHEM_COMPOUND_CID>  (1) 
39499

>  <PUBCHEM_CONFORMER_RMSD>  (1) 
0.8

>  <PUBCHEM_CONFORMER_DIVERSEORDER>  (1) 
1
26
35
44
16
27
12
40
45
33
4
39
49
32
6
9
2
18
11
42
51
37
14
25
43
22
5
8
29
13
28
46
3
7
30
23
24
20
47
21
50
17
10
48
19
38
31
34
36
15
41

>  <PUBCHEM_MMFF94_PARTIAL_CHARGES>  (1) 
0

>  <PUBCHEM_EFFECTIVE_ROTOR_COUNT>  (1) 
7

>  <PUBCHEM_PHARMACOPHORE_FEATURES>  (1) 
4
1 10 hydrophobe
1 13 hydrophobe
1 8 hydrophobe
3 1 5 6 hydrophobe

>  <PUBCHEM_HEAVY_ATOM_COUNT>  (1) 
13

>  <PUBCHEM_ATOM_DEF_STEREO_COUNT>  (1) 
0

>  <PUBCHEM_ATOM_UDEF_STEREO_COUNT>  (1) 
1

>  <PUBCHEM_BOND_DEF_STEREO_COUNT>  (1) 
0

>  <PUBCHEM_BOND_UDEF_STEREO_COUNT>  (1) 
0

>  <PUBCHEM_ISOTOPIC_ATOM_COUNT>  (1) 
0

>  <PUBCHEM_COMPONENT_COUNT>  (1) 
1

>  <PUBCHEM_CACTVS_TAUTO_COUNT>  (1) 
1

>  <PUBCHEM_CONFORMER_ID>  (1) 
00009A4B00000001

>  <PUBCHEM_MMFF94_ENERGY>  (1) 
21.5687

>  <PUBCHEM_FEATURE_SELFOVERLAP>  (1) 
20.306

>  <PUBCHEM_SHAPE_FINGERPRINT>  (1) 
11287383 113 18412265073459913659
11471102 20 18409166610378797600
13922767 16 18408881854484851400
13955234 65 18408601431401095635
14123238 8 10303809882958494315
14344429 50 18407758140937830420
17802600 8 18408317761527193481
17834072 33 18272649091302076039
17834076 25 17458065954514259951
18186145 218 18407759244232748661
20279233 1 17095531660626022715
20606313 2 18342176691551441024
20645477 70 18343867705879978703
212847 35 17967534571011651276
23402655 69 18343303694884856389
23532345 1 18407761439166797875
23557571 272 15554173592683243440
23590187 302 18413111649424907820
3060560 45 18412547587412957078
4047638 21 18342176687050427098
449060 62 18333733537113282629
4990 188 18343588429963492247
522135 26 17275106119766107519
5374978 207 18113613482755043553
542803 24 18060423513087830049
58051976 378 18343581820098624343

>  <PUBCHEM_SHAPE_MULTIPOLES>  (1) 
267.53
11.05
1.63
1.04
20.3
0.49
0.24
1.48
0.33
-2.21
-0.41
-0.79
-0.14
0.33

>  <PUBCHEM_SHAPE_SELFOVERLAP>  (1) 
481.978

>  <PUBCHEM_SHAPE_VOLUME>  (1) 
176

>  <PUBCHEM_COORDINATE_TYPE>  (1) 
2
5
10

$$$$
