39496
     RDKit          3D

 17 18  0  0  1  0  0  0  0  0999 V2000
   -0.3880    2.5076   -0.1298 O   0  0  0  0  0  0  0  0  0  0  0  0
   -2.8325    1.3307   -0.3762 O   0  0  0  0  0  0  0  0  0  0  0  0
   -3.1062   -1.3980   -0.0204 O   0  0  0  0  0  0  0  0  0  0  0  0
    4.0489    1.6567   -0.6375 N   0  0  0  0  0  0  0  0  0  0  0  0
    3.0024    0.6287   -0.5561 C   0  0  0  0  0  0  0  0  0  0  0  0
    3.6697   -0.7185   -0.2379 C   0  0  0  0  0  0  0  0  0  0  0  0
    1.9847    1.0694    0.5073 C   0  0  0  0  0  0  0  0  0  0  0  0
    2.7245   -1.9208   -0.2352 C   0  0  0  0  0  0  0  0  0  0  0  0
    1.6774   -1.8858    0.8764 C   0  0  0  0  0  0  0  0  0  0  0  0
    0.6454    0.3843    0.3662 C   0  0  0  0  0  0  0  0  0  0  0  0
    0.5008   -1.0034    0.5439 C   0  0  0  0  0  0  0  0  0  0  0  0
   -0.4877    1.1571    0.0574 C   0  0  0  0  0  0  0  0  0  0  0  0
   -0.7726   -1.5835    0.4111 C   0  0  0  0  0  0  0  0  0  0  0  0
   -1.7441    0.5670   -0.0740 C   0  0  0  0  0  0  0  0  0  0  0  0
   -1.8867   -0.8038    0.1035 C   0  0  0  0  0  0  0  0  0  0  0  0
   -3.5643    1.8760    0.7193 C   0  0  0  0  0  0  0  0  0  0  0  0
   -3.4717   -1.8636   -1.3180 C   0  0  0  0  0  0  0  0  0  0  0  0
  1 12  1  0
  2 14  1  0
  2 16  1  0
  3 15  1  0
  3 17  1  0
  4  5  1  0
  5  6  1  0
  5  7  1  0
  6  8  1  0
  7 10  1  0
  8  9  1  0
  9 11  1  0
 10 11  2  0
 10 12  1  0
 11 13  1  0
 12 14  2  0
 13 15  2  0
 14 15  1  0
M  END
>  <PUBCHEM_COMPOUND_CID>  (1) 
39496

>  <PUBCHEM_CONFORMER_RMSD>  (1) 
0.6

>  <PUBCHEM_CONFORMER_DIVERSEORDER>  (1) 
2
4
10
5
6
3
9
11
1
7
8

>  <PUBCHEM_MMFF94_PARTIAL_CHARGES>  (1) 
19
1 -0.53
10 -0.14
11 -0.14
12 0.08
13 -0.15
14 0.08
15 0.08
16 0.28
17 0.28
2 -0.36
27 0.15
28 0.36
29 0.36
3 -0.36
30 0.45
4 -0.99
5 0.27
7 0.14
9 0.14

>  <PUBCHEM_EFFECTIVE_ROTOR_COUNT>  (1) 
3

>  <PUBCHEM_PHARMACOPHORE_FEATURES>  (1) 
7
1 1 donor
1 2 acceptor
1 3 acceptor
1 4 cation
1 4 donor
6 10 11 12 13 14 15 rings
7 5 6 7 8 9 10 11 rings

>  <PUBCHEM_HEAVY_ATOM_COUNT>  (1) 
17

>  <PUBCHEM_ATOM_DEF_STEREO_COUNT>  (1) 
0

>  <PUBCHEM_ATOM_UDEF_STEREO_COUNT>  (1) 
1

>  <PUBCHEM_BOND_DEF_STEREO_COUNT>  (1) 
0

>  <PUBCHEM_BOND_UDEF_STEREO_COUNT>  (1) 
0

>  <PUBCHEM_ISOTOPIC_ATOM_COUNT>  (1) 
0

>  <PUBCHEM_COMPONENT_COUNT>  (1) 
1

>  <PUBCHEM_CACTVS_TAUTO_COUNT>  (1) 
9

>  <PUBCHEM_CONFORMER_ID>  (1) 
00009A4800000002

>  <PUBCHEM_MMFF94_ENERGY>  (1) 
62.5122

>  <PUBCHEM_FEATURE_SELFOVERLAP>  (1) 
35.533

>  <PUBCHEM_SHAPE_FINGERPRINT>  (1) 
10062212 137 18337664231153506874
10756046 5 18411134706027584030
10967382 1 18192994820386537592
11132069 177 18340198583922184698
11206711 2 18335691797708681405
12553582 1 18198050590011464231
13140716 1 18337386033226008131
13221675 6 18263929825863659131
13380535 21 18410016502844443617
13897977 150 18408886209254739180
14790565 3 18052830147710100713
15196674 1 18410014329991898762
15536298 74 18412826863482040578
15775835 57 18336554819641560872
16945 1 18193836170215187155
18186145 218 17603307033617191754
19422 9 18413671300885721806
21267235 1 18409739438725721555
21501502 16 18410570665205262306
2334 1 18409161125832226299
23402539 116 18408881850379950644
23402655 69 18411418388617367797
23552423 10 18261107435502863170
23557571 272 18060409223299477170
23559900 14 18341897373328567596
25147074 1 18337379466316009731
2748010 2 18409720764365777875
2871803 45 18338230578267641446
335352 9 18122063096159091374
353137 74 18260828224100355546
5104073 3 18409449176693777896
57096353 35 18336829800648858478
58051976 378 18194122043618256092
7832392 63 18339642235201764745
9709674 26 18410582790388802678

>  <PUBCHEM_SHAPE_MULTIPOLES>  (1) 
327.26
6.55
2.57
0.89
0.5
0.18
-0.06
0.34
-1.44
-0.65
-0.1
-0.18
-0.2
-1.02

>  <PUBCHEM_SHAPE_SELFOVERLAP>  (1) 
684.374

>  <PUBCHEM_SHAPE_VOLUME>  (1) 
185.2

>  <PUBCHEM_COORDINATE_TYPE>  (1) 
2
5
10

$$$$
