39492
     RDKit          3D

 18 19  0  0  0  0  0  0  0  0999 V2000
    4.8895    0.5611   -0.3213 O   0  0  0  0  0  0  0  0  0  0  0  0
   -2.9373   -2.4556    0.2442 O   0  0  0  0  0  0  0  0  0  0  0  0
   -0.2483    1.4628   -0.1771 O   0  0  0  0  0  0  0  0  0  0  0  0
   -4.8421    1.7300   -0.0010 O   0  0  0  0  0  0  0  0  0  0  0  0
   -3.8722   -0.3544    0.1221 N   0  0  0  0  0  0  0  0  0  0  0  0
   -2.5465    1.5773   -0.0854 N   0  0  0  0  0  0  0  0  0  0  0  0
    1.0081   -0.8351   -0.0488 C   0  0  0  0  0  0  0  0  0  0  0  0
   -1.4789   -0.5742    0.0364 C   0  0  0  0  0  0  0  0  0  0  0  0
   -0.3733   -1.3315    0.0490 C   0  0  0  0  0  0  0  0  0  0  0  0
    1.6048   -0.7211   -1.2952 C   0  0  0  0  0  0  0  0  0  0  0  0
    1.6898   -0.4893    1.1081 C   0  0  0  0  0  0  0  0  0  0  0  0
   -2.8035   -1.2395    0.1450 C   0  0  0  0  0  0  0  0  0  0  0  0
   -1.3351    0.9000   -0.0850 C   0  0  0  0  0  0  0  0  0  0  0  0
    3.6120    0.1014   -0.2312 C   0  0  0  0  0  0  0  0  0  0  0  0
    2.9145   -0.2502   -1.3869 C   0  0  0  0  0  0  0  0  0  0  0  0
    2.9996   -0.0182    1.0165 C   0  0  0  0  0  0  0  0  0  0  0  0
   -3.8257    1.0336    0.0113 C   0  0  0  0  0  0  0  0  0  0  0  0
    5.5447    0.9028    0.8994 C   0  0  0  0  0  0  0  0  0  0  0  0
  1 14  1  0
  1 18  1  0
  2 12  2  0
  3 13  2  0
  4 17  2  0
  5 12  1  0
  5 17  1  0
  6 13  1  0
  6 17  1  0
  7  9  1  0
  7 10  2  0
  7 11  1  0
  8  9  2  3
  8 12  1  0
  8 13  1  0
 10 15  1  0
 11 16  2  0
 14 15  2  0
 14 16  1  0
M  END
>  <PUBCHEM_COMPOUND_CID>  (1) 
39492

>  <PUBCHEM_CONFORMER_RMSD>  (1) 
0.6

>  <PUBCHEM_CONFORMER_DIVERSEORDER>  (1) 
1

>  <PUBCHEM_MMFF94_PARTIAL_CHARGES>  (1) 
25
1 -0.36
10 -0.15
11 -0.15
12 0.62
13 0.62
14 0.08
15 -0.15
16 -0.15
17 0.69
18 0.28
19 0.15
2 -0.57
20 0.15
21 0.15
22 0.15
23 0.15
24 0.37
25 0.37
3 -0.57
4 -0.57
5 -0.49
6 -0.49
7 0.03
8 0.03
9 -0.18

>  <PUBCHEM_EFFECTIVE_ROTOR_COUNT>  (1) 
2.4

>  <PUBCHEM_PHARMACOPHORE_FEATURES>  (1) 
9
1 1 acceptor
1 2 acceptor
1 3 acceptor
1 4 acceptor
1 5 donor
1 6 donor
1 8 anion
6 5 6 8 12 13 17 rings
6 7 10 11 14 15 16 rings

>  <PUBCHEM_HEAVY_ATOM_COUNT>  (1) 
18

>  <PUBCHEM_ATOM_DEF_STEREO_COUNT>  (1) 
0

>  <PUBCHEM_ATOM_UDEF_STEREO_COUNT>  (1) 
0

>  <PUBCHEM_BOND_DEF_STEREO_COUNT>  (1) 
0

>  <PUBCHEM_BOND_UDEF_STEREO_COUNT>  (1) 
0

>  <PUBCHEM_ISOTOPIC_ATOM_COUNT>  (1) 
0

>  <PUBCHEM_COMPONENT_COUNT>  (1) 
1

>  <PUBCHEM_CACTVS_TAUTO_COUNT>  (1) 
5

>  <PUBCHEM_CONFORMER_ID>  (1) 
00009A4400000001

>  <PUBCHEM_MMFF94_ENERGY>  (1) 
61.7517

>  <PUBCHEM_FEATURE_SELFOVERLAP>  (1) 
45.712

>  <PUBCHEM_SHAPE_FINGERPRINT>  (1) 
10366900 7 17561357366429686097
10498660 4 18412264999749449101
10646746 165 18411138043654847276
11132069 177 18335708225615755621
11471102 20 16559033783747048182
12236239 1 17603303765152087970
12788726 201 17028276948243305490
13214271 11 18343580771846704575
15209294 21 18114178635963130746
15219456 202 18060424599192518078
15375358 24 18201720634932695221
16945 1 18409169887950495383
17980427 23 18187648058702564132
18186145 218 17916605175412766734
19050596 39 17530687619054243000
200 152 15791723135509002862
20279233 1 18059860549374021535
20510252 161 18198909115377134529
20645477 56 18410859837148222829
20645477 70 16845018909593937662
23402539 116 18411412943078981878
23402655 69 16773798069458038528
23557571 272 18271531986734108818
23559900 14 18341622469193137782
2916195 48 18200866396588121072
296302 2 17988925561055540317
3472631 163 18407761426050235853
34934 24 18408880707607276895
3545911 37 18410015403612371126
4340502 62 16298680378388403761
465052 167 10303226089682409661
474 4 16951702478643671492
5104073 3 18337114466733782755
7364860 26 18194964028685716950
77492 1 17530685424289278374

>  <PUBCHEM_SHAPE_MULTIPOLES>  (1) 
336.99
9.76
1.69
1.01
3.62
0.16
0.11
-3.76
-1.05
-2.02
-0.07
1.06
0.11
0.54

>  <PUBCHEM_SHAPE_SELFOVERLAP>  (1) 
728.065

>  <PUBCHEM_SHAPE_VOLUME>  (1) 
182.2

>  <PUBCHEM_COORDINATE_TYPE>  (1) 
2
5
10

$$$$
