39495
     RDKit          3D

 23 25  0  0  1  0  0  0  0  0999 V2000
    3.9434   -2.9647    1.0028 O   0  0  0  0  0  0  0  0  0  0  0  0
   -0.8663   -0.6862   -1.1289 N   0  0  0  0  0  0  0  0  0  0  0  0
    2.6031   -1.6718   -0.3059 N   0  0  0  0  0  0  0  0  0  0  0  0
    4.3615   -1.5938    1.0846 N   0  0  0  0  0  0  0  0  0  0  0  0
   -2.0647   -0.4699   -0.3130 C   0  0  0  0  0  0  0  0  0  0  0  0
    0.2562   -1.0822   -0.2950 C   0  0  0  0  0  0  0  0  0  0  0  0
    1.4975   -1.3078   -1.1485 C   0  0  0  0  0  0  0  0  0  0  0  0
   -3.2516   -0.1164   -1.2278 C   0  0  0  0  0  0  0  0  0  0  0  0
   -1.7615    0.6296    0.7050 C   0  0  0  0  0  0  0  0  0  0  0  0
   -4.5493    0.0870   -0.4831 C   0  0  0  0  0  0  0  0  0  0  0  0
    2.8235   -3.0290    0.1007 C   0  0  0  0  0  0  0  0  0  0  0  0
    3.5589   -0.9086    0.3034 C   0  0  0  0  0  0  0  0  0  0  0  0
    3.7264    0.5481    0.1510 C   0  0  0  0  0  0  0  0  0  0  0  0
   -5.3874   -0.9962   -0.2710 C   0  0  0  0  0  0  0  0  0  0  0  0
   -4.8782    1.3528   -0.0251 C   0  0  0  0  0  0  0  0  0  0  0  0
    4.5545    1.0551   -0.8514 C   0  0  0  0  0  0  0  0  0  0  0  0
    3.0567    1.4222    1.0085 C   0  0  0  0  0  0  0  0  0  0  0  0
   -6.5861   -0.8084    0.4170 C   0  0  0  0  0  0  0  0  0  0  0  0
   -6.0769    1.5405    0.6631 C   0  0  0  0  0  0  0  0  0  0  0  0
   -6.9309    0.4598    0.8841 C   0  0  0  0  0  0  0  0  0  0  0  0
    4.7129    2.4334   -0.9960 C   0  0  0  0  0  0  0  0  0  0  0  0
    3.2151    2.8006    0.8638 C   0  0  0  0  0  0  0  0  0  0  0  0
    4.0431    3.3060   -0.1385 C   0  0  0  0  0  0  0  0  0  0  0  0
  1  4  1  0
  1 11  1  0
  2  5  1  0
  2  6  1  0
  3  7  1  0
  3 11  1  0
  3 12  1  0
  4 12  2  0
  5  8  1  0
  5  9  1  0
  6  7  1  0
  8 10  1  0
 10 14  2  0
 10 15  1  0
 12 13  1  0
 13 16  2  0
 13 17  1  0
 14 18  1  0
 15 19  2  0
 16 21  1  0
 17 22  2  0
 18 20  2  0
 19 20  1  0
 21 23  2  0
 22 23  1  0
M  END
>  <PUBCHEM_COMPOUND_CID>  (1) 
39495

>  <PUBCHEM_CONFORMER_RMSD>  (1) 
0.8

>  <PUBCHEM_CONFORMER_DIVERSEORDER>  (1) 
3
136
119
78
227
15
75
124
85
29
157
191
89
178
185
108
160
84
198
161
168
156
233
98
31
8
44
69
94
43
169
76
210
243
86
142
62
179
147
17
27
129
21
109
228
167
154
217
58
33
66
67
216
171
63
222
199
159
234
208
140
101
195
88
46
53
231
79
236
190
153
54
7
131
128
80
187
47
87
36
64
223
93
26
138
204
188
60
164
9
91
212
196
95
224
145
194
214
117
106
114
219
215
177
144
99
125
175
184
180
82
123
137
242
74
22
134
230
2
132
81
61
116
42
197
220
105
52
73
77
40
25
104
146
232
148
107
71
229
139
189
176
112
211
18
14
247
16
5
127
170
205
122
244
20
241
141
48
41
72
11
19
150
201
68
38
158
130
206
1
225
115
155
70
172
113
163
245
100
111
102
192
12
83
103
183
50
186
152
173
143
209
235
118
181
182
49
90
193
59
39
202
65
51
24
13
126
239
162
246
10
30
23
56
207
165
37
55
120
200
237
32
4
57
92
238
97
34
6
121
174
110
166
213
221
35
149
218
240
151
135
203
45
226
96
28
133

>  <PUBCHEM_MMFF94_PARTIAL_CHARGES>  (1) 
33
1 -0.22
10 -0.14
11 0.65
12 0.41
13 0.09
14 -0.15
15 -0.15
16 -0.15
17 -0.15
18 -0.15
19 -0.15
2 -0.9
20 -0.15
21 -0.15
22 -0.15
23 -0.15
3 -0.79
31 0.36
37 0.15
38 0.15
39 0.15
4 -0.51
40 0.15
41 0.15
42 0.15
43 0.15
44 0.15
45 0.15
46 0.15
5 0.27
6 0.27
7 0.37
8 0.14

>  <PUBCHEM_EFFECTIVE_ROTOR_COUNT>  (1) 
7.6

>  <PUBCHEM_PHARMACOPHORE_FEATURES>  (1) 
6
1 2 cation
1 2 donor
3 3 4 12 cation
5 1 3 4 11 12 rings
6 10 14 15 18 19 20 rings
6 13 16 17 21 22 23 rings

>  <PUBCHEM_HEAVY_ATOM_COUNT>  (1) 
23

>  <PUBCHEM_ATOM_DEF_STEREO_COUNT>  (1) 
0

>  <PUBCHEM_ATOM_UDEF_STEREO_COUNT>  (1) 
1

>  <PUBCHEM_BOND_DEF_STEREO_COUNT>  (1) 
0

>  <PUBCHEM_BOND_UDEF_STEREO_COUNT>  (1) 
0

>  <PUBCHEM_ISOTOPIC_ATOM_COUNT>  (1) 
0

>  <PUBCHEM_COMPONENT_COUNT>  (1) 
1

>  <PUBCHEM_CACTVS_TAUTO_COUNT>  (1) 
1

>  <PUBCHEM_CONFORMER_ID>  (1) 
00009A4700000003

>  <PUBCHEM_MMFF94_ENERGY>  (1) 
64.2339

>  <PUBCHEM_FEATURE_SELFOVERLAP>  (1) 
30.446

>  <PUBCHEM_SHAPE_FINGERPRINT>  (1) 
10162869 55 18341313553575440407
10165383 225 18113907104595366316
10595046 47 18412543245585713647
10670039 82 16415216545594071689
11545043 162 17241316950486505159
1200032 147 17823422785405150868
12596602 18 18260269642703492747
12616971 3 18201990011192586479
12730499 353 18335144232238521466
12788726 201 17417822716346217009
13533116 47 18334296444132861771
13785724 45 17910962335636825102
13878862 14 18192406650517504453
13955234 65 18333725810984283410
14251732 16 18337394945968942447
14251764 75 18194403527006254748
14528608 73 18202282545673069909
146900 427 18411701010529720335
14849402 71 18335138700747911924
15183329 4 17917996079524248321
15250474 111 18129364029926141191
15348495 7 18333453123621300203
15475509 35 16443612499139879778
17844677 252 18337957788305412881
17868525 174 18047175363829243260
20465049 17 18342187682757471164
21049683 271 18042128674916168262
21315764 119 15841286890416782076
21315764 268 18335416821307899829
21344244 78 18197200483081940154
21641784 216 16271940276827509777
23081809 10 18131346406778262999
23559900 14 17346043268284665663
23845131 108 18189333649015517970
239999 70 18201163143830843494
255183 451 17700425689040196790
3178227 256 18334854979493431810
34797466 226 17845948393885558591
394071 54 16733275645647164749
397830 11 18187939408552782515
4073 2 18188215411361622723
5104073 3 18408893919385628803
9849439 229 18051968423063046680

>  <PUBCHEM_SHAPE_MULTIPOLES>  (1) 
452.52
17.28
3.25
1.12
25.3
0.16
0.06
5.21
-2.5
-6.54
-0.5
-0.36
0.01
-1.38

>  <PUBCHEM_SHAPE_SELFOVERLAP>  (1) 
952.868

>  <PUBCHEM_SHAPE_VOLUME>  (1) 
255.8

>  <PUBCHEM_COORDINATE_TYPE>  (1) 
2
5
10

$$$$
