39507
     RDKit          3D

 27 30  0  0  1  0  0  0  0  0999 V2000
   -0.5195   -2.5304   -0.3387 O   0  0  0  0  0  0  0  0  0  0  0  0
    4.9365    0.0338   -1.1343 O   0  0  0  0  0  0  0  0  0  0  0  0
   -6.6326   -0.0965    0.4066 O   0  0  0  0  0  0  0  0  0  0  0  0
    1.6398   -0.2450   -0.1212 C   0  0  0  0  0  0  0  0  0  0  0  0
    0.6776    0.9858   -0.2730 C   0  0  0  0  0  0  0  0  0  0  0  0
    3.0419    0.3842    0.2782 C   0  0  0  0  0  0  0  0  0  0  0  0
   -0.5117    0.9591    0.7119 C   0  0  0  0  0  0  0  0  0  0  0  0
   -1.3259   -0.3800    0.6565 C   0  0  0  0  0  0  0  0  0  0  0  0
    2.9845    1.7695   -0.4113 C   0  0  0  0  0  0  0  0  0  0  0  0
    1.5624    2.2370   -0.1153 C   0  0  0  0  0  0  0  0  0  0  0  0
    1.1005   -1.2621    0.9194 C   0  0  0  0  0  0  0  0  0  0  0  0
   -0.3814   -1.6237    0.7424 C   0  0  0  0  0  0  0  0  0  0  0  0
   -2.5266   -0.4257   -0.3766 C   0  0  0  0  0  0  0  0  0  0  0  0
   -1.4153    2.2045    0.6362 C   0  0  0  0  0  0  0  0  0  0  0  0
    1.7367   -0.9383   -1.5113 C   0  0  0  0  0  0  0  0  0  0  0  0
    3.2889    0.4966    1.7950 C   0  0  0  0  0  0  0  0  0  0  0  0
    4.1959   -0.4239   -0.2655 C   0  0  0  0  0  0  0  0  0  0  0  0
   -2.4482    2.1430   -0.4753 C   0  0  0  0  0  0  0  0  0  0  0  0
   -3.2827    0.9034   -0.2957 C   0  0  0  0  0  0  0  0  0  0  0  0
    4.0233    2.7971    0.0261 C   0  0  0  0  0  0  0  0  0  0  0  0
   -2.1259   -0.6225   -1.8555 C   0  0  0  0  0  0  0  0  0  0  0  0
   -3.4425   -1.5948   -0.0267 C   0  0  0  0  0  0  0  0  0  0  0  0
    4.3754   -1.8115    0.3220 C   0  0  0  0  0  0  0  0  0  0  0  0
   -4.5967    1.0048   -0.0399 C   0  0  0  0  0  0  0  0  0  0  0  0
   -4.7501   -1.5007    0.2349 C   0  0  0  0  0  0  0  0  0  0  0  0
   -5.4258   -0.1910    0.2108 C   0  0  0  0  0  0  0  0  0  0  0  0
    5.8213   -2.2730    0.3002 C   0  0  0  0  0  0  0  0  0  0  0  0
  1 12  1  0
  2 17  2  0
  3 26  2  0
  4  5  1  0
  4  6  1  0
  4 11  1  0
  4 15  1  0
  5  7  1  0
  5 10  1  0
  6  9  1  0
  6 16  1  0
  6 17  1  0
  7  8  1  0
  7 14  1  0
  8 12  1  0
  8 13  1  0
  9 10  1  0
  9 20  1  0
 11 12  1  0
 13 19  1  0
 13 21  1  0
 13 22  1  0
 14 18  1  0
 17 23  1  0
 18 19  1  0
 19 24  2  0
 22 25  2  0
 23 27  1  0
 24 26  1  0
 25 26  1  0
M  END
>  <PUBCHEM_COMPOUND_CID>  (1) 
39507

>  <PUBCHEM_CONFORMER_RMSD>  (1) 
0.8

>  <PUBCHEM_CONFORMER_DIVERSEORDER>  (1) 
2
1
16
13
3
4
6
15
9
11
12
5
14
7
8
10

>  <PUBCHEM_MMFF94_PARTIAL_CHARGES>  (1) 
18
1 -0.68
12 0.28
13 0.28
17 0.45
18 0.14
19 -0.28
2 -0.57
22 -0.29
23 0.06
24 -0.14
25 -0.14
26 0.54
3 -0.57
53 0.15
54 0.4
57 0.15
58 0.15
6 0.06

>  <PUBCHEM_EFFECTIVE_ROTOR_COUNT>  (1) 
3.4

>  <PUBCHEM_PHARMACOPHORE_FEATURES>  (1) 
9
1 1 acceptor
1 1 donor
1 2 acceptor
1 27 hydrophobe
1 3 acceptor
5 4 5 6 9 10 rings
6 13 19 22 24 25 26 rings
6 4 5 7 8 11 12 rings
6 7 8 13 14 18 19 rings

>  <PUBCHEM_HEAVY_ATOM_COUNT>  (1) 
27

>  <PUBCHEM_ATOM_DEF_STEREO_COUNT>  (1) 
5

>  <PUBCHEM_ATOM_UDEF_STEREO_COUNT>  (1) 
3

>  <PUBCHEM_BOND_DEF_STEREO_COUNT>  (1) 
0

>  <PUBCHEM_BOND_UDEF_STEREO_COUNT>  (1) 
0

>  <PUBCHEM_ISOTOPIC_ATOM_COUNT>  (1) 
0

>  <PUBCHEM_COMPONENT_COUNT>  (1) 
1

>  <PUBCHEM_CACTVS_TAUTO_COUNT>  (1) 
6

>  <PUBCHEM_CONFORMER_ID>  (1) 
00009A5300000002

>  <PUBCHEM_MMFF94_ENERGY>  (1) 
110.3819

>  <PUBCHEM_FEATURE_SELFOVERLAP>  (1) 
45.787

>  <PUBCHEM_SHAPE_FINGERPRINT>  (1) 
10366900 7 13695873614348121117
11578080 2 13407943507966130772
12107698 1 18412262817831917525
12166972 35 17822297863816441284
12236239 1 17894916195878410239
12403259 226 18408317770365307828
12403259 415 17894622665044765517
12403260 363 18411982429756369240
12422481 6 18059860528120685631
12592029 89 18201162070099198391
12788726 201 17632031817573793441
13140716 1 18341613659888458200
13224815 77 18412542145351639769
13533116 47 18410293623067220376
13782708 43 17749106695092673603
14178342 30 17985553251646024352
14341114 176 18408324384371583981
14787075 74 18338234989805514305
14790565 3 18412832378563420953
15196674 1 18410012173728503081
15209289 33 18334857199384303507
15420108 30 17405436498694987312
15788980 27 17632573859641624367
15840311 113 18259990384152024501
16945 1 18339353192930444000
17349148 13 18272370862613726872
17492 89 18337389439235702922
18186145 218 18114170960577127932
18335252 98 18042697263295966051
19591789 44 18338796831541543139
200 152 18202565072779591881
20028762 73 18272084989575590647
21033648 29 17168130252448672157
21267235 1 18409454652307814899
21792934 111 18342449319264976009
221357 26 18408041801367326484
22393880 68 17896028871554834669
23402539 116 18342733005347841094
23522609 53 18120971397109462581
23557571 272 18271530814561484397
23559900 14 18412823608034103848
3004659 81 18335140895191383060
335352 9 18410011001207524479
34934 24 18195526119935472200
350125 39 18410294683523391216
3680242 22 18410016494402130971
4073 2 18042411398646388186
465052 167 18341616988767382054
5104073 3 18342741827389970273
59755656 215 18335985264113425623
6138700 20 18263646165281961842
633830 44 18336256933436556870
9709674 26 18263083365224413458
9981440 41 17759800738816699592

>  <PUBCHEM_SHAPE_MULTIPOLES>  (1) 
538.04
11.76
2.65
1.14
3.93
0.58
0.14
-2.91
-0.48
-1.81
-0.07
-0.39
-0.12
-0.1

>  <PUBCHEM_SHAPE_SELFOVERLAP>  (1) 
1152.398

>  <PUBCHEM_SHAPE_VOLUME>  (1) 
295.9

>  <PUBCHEM_COORDINATE_TYPE>  (1) 
2
5
10

$$$$
