39503
     RDKit          3D

 40 43  0  0  1  0  0  0  0  0999 V2000
   -1.7815    3.4540    0.3190 O   0  0  0  0  0  0  0  0  0  0  0  0
    0.4864   -0.8194   -0.2015 O   0  0  0  0  0  0  0  0  0  0  0  0
    0.8158   -0.9421    2.1100 O   0  0  0  0  0  0  0  0  0  0  0  0
    3.0495    2.3225   -1.0148 N   0  0  0  0  0  0  0  0  0  0  0  0
    5.1648   -2.8109    0.5295 N   0  0  0  0  0  0  0  0  0  0  0  0
   -0.5596    4.1746    0.5972 C   0  0  0  0  0  0  0  0  0  0  0  0
    0.7096    3.4536    0.1545 C   0  0  0  0  0  0  0  0  0  0  0  0
    0.7190    2.1346   -0.1170 C   0  0  0  0  0  0  0  0  0  0  0  0
    1.9919    4.2541    0.0561 C   0  0  0  0  0  0  0  0  0  0  0  0
    1.9713    1.4200   -0.5742 C   0  0  0  0  0  0  0  0  0  0  0  0
   -0.5335    1.3852    0.0656 C   0  0  0  0  0  0  0  0  0  0  0  0
    3.2536    3.3880   -0.0323 C   0  0  0  0  0  0  0  0  0  0  0  0
   -4.2860   -0.6833    0.5097 C   0  0  0  0  0  0  0  0  0  0  0  0
   -4.6815   -1.5519   -0.7419 C   0  0  0  0  0  0  0  0  0  0  0  0
   -1.7221    2.0904    0.2743 C   0  0  0  0  0  0  0  0  0  0  0  0
   -2.9863    0.0311    0.3601 C   0  0  0  0  0  0  0  0  0  0  0  0
   -0.5339    4.4370    2.1116 C   0  0  0  0  0  0  0  0  0  0  0  0
   -0.7352    5.5092   -0.1456 C   0  0  0  0  0  0  0  0  0  0  0  0
   -0.5942   -0.0166    0.0221 C   0  0  0  0  0  0  0  0  0  0  0  0
   -2.9432    1.4211    0.4077 C   0  0  0  0  0  0  0  0  0  0  0  0
   -6.0018   -2.3486   -0.5942 C   0  0  0  0  0  0  0  0  0  0  0  0
   -1.8109   -0.6881    0.1710 C   0  0  0  0  0  0  0  0  0  0  0  0
   -4.2850   -1.5409    1.7985 C   0  0  0  0  0  0  0  0  0  0  0  0
    4.2854    1.5773   -1.2468 C   0  0  0  0  0  0  0  0  0  0  0  0
   -4.7181   -0.6920   -2.0165 C   0  0  0  0  0  0  0  0  0  0  0  0
   -7.2751   -1.4959   -0.5427 C   0  0  0  0  0  0  0  0  0  0  0  0
    6.0851   -1.9595    1.2964 C   0  0  0  0  0  0  0  0  0  0  0  0
    5.9004   -3.7728   -0.3033 C   0  0  0  0  0  0  0  0  0  0  0  0
    7.0214   -1.1837    0.3688 C   0  0  0  0  0  0  0  0  0  0  0  0
    6.8306   -3.0561   -1.2835 C   0  0  0  0  0  0  0  0  0  0  0  0
    7.7899   -2.1220   -0.5549 C   0  0  0  0  0  0  0  0  0  0  0  0
    4.2459   -3.5096    1.4276 C   0  0  0  0  0  0  0  0  0  0  0  0
   -8.5562   -2.3317   -0.4418 C   0  0  0  0  0  0  0  0  0  0  0  0
    3.0908   -2.5923    1.8232 C   0  0  0  0  0  0  0  0  0  0  0  0
    2.3156   -2.1186    0.5943 C   0  0  0  0  0  0  0  0  0  0  0  0
    1.1422   -1.2402    0.9693 C   0  0  0  0  0  0  0  0  0  0  0  0
   -9.8319   -1.4884   -0.4177 C   0  0  0  0  0  0  0  0  0  0  0  0
    4.0950    0.5565   -2.2819 C   0  0  0  0  0  0  0  0  0  0  0  0
  -11.0729   -2.3636   -0.3269 C   0  0  0  0  0  0  0  0  0  0  0  0
    3.9447   -0.2809   -3.1292 C   0  0  0  0  0  0  0  0  0  0  0  0
  1  6  1  0
  1 15  1  0
  2 19  1  0
  2 36  1  0
  3 36  2  0
  4 10  1  0
  4 12  1  0
  4 24  1  0
  5 27  1  0
  5 28  1  0
  5 32  1  0
  6  7  1  0
  6 17  1  0
  6 18  1  0
  7  8  2  0
  7  9  1  0
  8 10  1  0
  8 11  1  0
  9 12  1  0
 11 15  2  0
 11 19  1  0
 13 14  1  0
 13 16  1  0
 13 23  1  0
 14 21  1  0
 14 25  1  0
 15 20  1  0
 16 20  2  0
 16 22  1  0
 19 22  2  0
 21 26  1  0
 24 38  1  0
 26 33  1  0
 27 29  1  0
 28 30  1  0
 29 31  1  0
 30 31  1  0
 32 34  1  0
 33 37  1  0
 34 35  1  0
 35 36  1  0
 37 39  1  0
 38 40  3  0
M  END
>  <PUBCHEM_COMPOUND_CID>  (1) 
39503

>  <PUBCHEM_CONFORMER_RMSD>  (1) 
1.4

>  <PUBCHEM_CONFORMER_DIVERSEORDER>  (1) 
6
135
61
21
100
129
41
53
112
14
126
23
7
45
76
17
90
20
101
108
65
93
77
139
55
44
95
13
64
1
97
109
96
132
4
54
106
39
12
66
92
71
130
122
119
103
133
74
32
118
128
27
59
15
85
11
28
84
36
24
34
70
113
52
111
120
31
75
62
3
58
102
26
86
10
38
63
19
80
114
127
125
5
123
48
105
124
2
16
78
56
9
134
50
137
82
138
72
37
81
46
49
57
117
89
18
88
107
22
98
8
83
104
116
60
91
121
29
99
136
43
33
35
42
69
67
40
140
115
131
94
47
73
87
30
25
110
51
68
79

>  <PUBCHEM_MMFF94_PARTIAL_CHARGES>  (1) 
29
1 -0.36
10 0.41
11 0.03
12 0.27
13 0.14
15 0.08
16 -0.14
19 0.08
2 -0.23
20 -0.15
22 -0.15
24 0.47
27 0.27
28 0.27
3 -0.57
32 0.27
35 0.06
36 0.66
38 -0.2
4 -0.81
40 -0.18
5 -0.81
55 0.15
58 0.15
6 0.42
7 -0.28
8 -0.17
9 0.14
92 0.18

>  <PUBCHEM_EFFECTIVE_ROTOR_COUNT>  (1) 
15.4

>  <PUBCHEM_PHARMACOPHORE_FEATURES>  (1) 
15
1 1 acceptor
1 23 hydrophobe
1 25 hydrophobe
1 3 acceptor
1 39 hydrophobe
1 4 cation
1 40 hydrophobe
1 5 cation
3 13 14 21 hydrophobe
3 26 33 37 hydrophobe
3 6 17 18 hydrophobe
6 1 6 7 8 11 15 rings
6 11 15 16 19 20 22 rings
6 4 7 8 9 10 12 rings
6 5 27 28 29 30 31 rings

>  <PUBCHEM_HEAVY_ATOM_COUNT>  (1) 
40

>  <PUBCHEM_ATOM_DEF_STEREO_COUNT>  (1) 
0

>  <PUBCHEM_ATOM_UDEF_STEREO_COUNT>  (1) 
2

>  <PUBCHEM_BOND_DEF_STEREO_COUNT>  (1) 
0

>  <PUBCHEM_BOND_UDEF_STEREO_COUNT>  (1) 
0

>  <PUBCHEM_ISOTOPIC_ATOM_COUNT>  (1) 
0

>  <PUBCHEM_COMPONENT_COUNT>  (1) 
1

>  <PUBCHEM_CACTVS_TAUTO_COUNT>  (1) 
1

>  <PUBCHEM_CONFORMER_ID>  (1) 
00009A4F00000006

>  <PUBCHEM_MMFF94_ENERGY>  (1) 
86.3833

>  <PUBCHEM_FEATURE_SELFOVERLAP>  (1) 
76.494

>  <PUBCHEM_SHAPE_FINGERPRINT>  (1) 
10290309 65 17540277740646925872
10411042 1 18410852123371317075
11227688 84 18191034601935418299
11513181 2 17905896877726799670
131258 43 18343015588884842272
14068700 675 18335133142385205770
14340393 91 18334288739626002083
14784336 7 18408328783230894140
15351339 4 18259988180601355368
15876981 60 18119256069291666580
16664035 1 18267298923076956089
16991971 28 18412265029978231287
208703 8 18412825763781081014
21120745 212 18266737978656100752
21792938 131 18410011070217606384
255183 451 18412822491158068323
4112364 45 9511468818534315571
45266715 3 18263648527898797700
6673363 416 18339934749541924294
6700243 42 17700718193502784422
70251023 43 18334849490266245347

>  <PUBCHEM_SHAPE_MULTIPOLES>  (1) 
795.61
22.62
6.61
1.8
46.57
8.12
0.53
-35.91
6.52
-5.1
-1.66
-1.88
-0.41
-2.2

>  <PUBCHEM_SHAPE_SELFOVERLAP>  (1) 
1641.856

>  <PUBCHEM_SHAPE_VOLUME>  (1) 
453.6

>  <PUBCHEM_COORDINATE_TYPE>  (1) 
2
5
10

$$$$
