3950
     RDKit          3D

 15 15  0  0  0  0  0  0  0  0999 V2000
    5.4639    0.8671    0.1850 Cl  0  0  0  0  0  0  0  0  0  0  0  0
    0.7531    1.8292   -0.2064 O   0  0  0  0  0  0  0  0  0  0  0  0
    2.3266   -2.4947   -0.2491 O   0  0  0  0  0  0  0  0  0  0  0  0
   -0.6674    0.0797    0.2488 N   0  0  0  0  0  0  0  0  0  0  0  0
    1.6090   -0.3242   -0.2464 N   0  0  0  0  0  0  0  0  0  0  0  0
    1.3345   -1.7795   -0.0728 N   0  0  0  0  0  0  0  0  0  0  0  0
   -1.8287    0.9156    0.4569 C   0  0  0  0  0  0  0  0  0  0  0  0
   -2.5621    1.1780   -0.8627 C   0  0  0  0  0  0  0  0  0  0  0  0
   -2.7677    0.3041    1.5022 C   0  0  0  0  0  0  0  0  0  0  0  0
   -3.2935   -0.0601   -1.3815 C   0  0  0  0  0  0  0  0  0  0  0  0
   -3.4987   -0.9327    0.9795 C   0  0  0  0  0  0  0  0  0  0  0  0
   -4.2298   -0.6438   -0.3279 C   0  0  0  0  0  0  0  0  0  0  0  0
    0.5778    0.6132   -0.0778 C   0  0  0  0  0  0  0  0  0  0  0  0
    2.9637    0.0913   -0.5875 C   0  0  0  0  0  0  0  0  0  0  0  0
    3.8193    0.3568    0.6397 C   0  0  0  0  0  0  0  0  0  0  0  0
  1 15  1  0
  2 13  2  0
  3  6  2  0
  4  7  1  0
  4 13  1  0
  5  6  1  0
  5 13  1  0
  5 14  1  0
  7  8  1  0
  7  9  1  0
  8 10  1  0
  9 11  1  0
 10 12  1  0
 11 12  1  0
 14 15  1  0
M  END
>  <PUBCHEM_COMPOUND_CID>  (1) 
3950

>  <PUBCHEM_CONFORMER_RMSD>  (1) 
0.8

>  <PUBCHEM_CONFORMER_DIVERSEORDER>  (1) 
1
65
64
58
30
60
19
62
25
12
29
13
70
21
68
46
32
38
52
69
23
33
36
66
59
47
71
15
49
6
17
14
63
8
35
27
26
45
43
54
34
48
53
5
16
67
56
72
40
28
9
4
37
31
2
22
57
18
61
11
39
20
41
3
55
24
10
51
50
7
42
44

>  <PUBCHEM_MMFF94_PARTIAL_CHARGES>  (1) 
11
1 -0.29
13 0.69
14 0.3
15 0.29
2 -0.57
27 0.37
3 -0.16
4 -0.73
5 -0.18
6 -0.02
7 0.3

>  <PUBCHEM_EFFECTIVE_ROTOR_COUNT>  (1) 
7.2

>  <PUBCHEM_PHARMACOPHORE_FEATURES>  (1) 
3
1 2 acceptor
1 4 donor
6 7 8 9 10 11 12 rings

>  <PUBCHEM_HEAVY_ATOM_COUNT>  (1) 
15

>  <PUBCHEM_ATOM_DEF_STEREO_COUNT>  (1) 
0

>  <PUBCHEM_ATOM_UDEF_STEREO_COUNT>  (1) 
0

>  <PUBCHEM_BOND_DEF_STEREO_COUNT>  (1) 
0

>  <PUBCHEM_BOND_UDEF_STEREO_COUNT>  (1) 
0

>  <PUBCHEM_ISOTOPIC_ATOM_COUNT>  (1) 
0

>  <PUBCHEM_COMPONENT_COUNT>  (1) 
1

>  <PUBCHEM_CACTVS_TAUTO_COUNT>  (1) 
2

>  <PUBCHEM_CONFORMER_ID>  (1) 
00000F6E00000001

>  <PUBCHEM_MMFF94_ENERGY>  (1) 
15.4126

>  <PUBCHEM_FEATURE_SELFOVERLAP>  (1) 
15.223

>  <PUBCHEM_SHAPE_FINGERPRINT>  (1) 
124424 183 16805601482004440588
12932764 1 17632573812460378609
13296908 3 18336551495157571279
14004511 7 12035445043046017901
14787075 74 17774719887233640960
15375358 24 18187079533876109111
15375462 189 17846780702217238427
17834072 14 18113893823665014298
17834072 8 11169906174225475856
18186145 218 17386576743046489578
19433438 38 18040148526744623647
19489759 90 16732975436339346240
200 152 18272083920607936989
20201158 50 18261114080043954451
20279233 1 18113621174951611363
204376 136 18340206392689667208
20645477 56 17967810497365798173
22485316 2 18343584019184754473
23402539 116 16732973241283718445
23557571 272 17386002845242679733
23559900 14 17968933064377668122
3248919 1 17749681700697047341
474229 33 18410292553762859842
58051976 378 18408323297781918054
581208 293 18411983550879834014
9971528 1 11818993007049805574

>  <PUBCHEM_SHAPE_MULTIPOLES>  (1) 
283.88
9.49
1.62
1.11
7.26
0.78
-0.1
-0.3
-0.4
0.75
0.16
-1.11
-0.07
0.4

>  <PUBCHEM_SHAPE_SELFOVERLAP>  (1) 
540.641

>  <PUBCHEM_SHAPE_VOLUME>  (1) 
174.4

>  <PUBCHEM_COORDINATE_TYPE>  (1) 
2
5
10

$$$$
