39504
     RDKit          3D

 26 28  0  0  1  0  0  0  0  0999 V2000
    2.2735   -3.6156    0.7965 O   0  0  0  0  0  0  0  0  0  0  0  0
    3.3533   -1.1822   -0.0811 O   0  0  0  0  0  0  0  0  0  0  0  0
    4.7873    1.7560    2.4567 O   0  0  0  0  0  0  0  0  0  0  0  0
   -0.8704   -1.9308   -0.2180 N   0  0  0  0  0  0  0  0  0  0  0  0
   -3.2601   -0.3798   -0.0123 N   0  0  0  0  0  0  0  0  0  0  0  0
   -2.1498   -2.4723   -0.6927 C   0  0  0  0  0  0  0  0  0  0  0  0
   -1.0959   -1.0637    0.9448 C   0  0  0  0  0  0  0  0  0  0  0  0
   -3.1026   -1.3479   -1.1050 C   0  0  0  0  0  0  0  0  0  0  0  0
   -2.0144    0.1076    0.5879 C   0  0  0  0  0  0  0  0  0  0  0  0
    0.0510   -3.0147    0.1212 C   0  0  0  0  0  0  0  0  0  0  0  0
    1.4327   -2.4917    0.5208 C   0  0  0  0  0  0  0  0  0  0  0  0
   -4.3947    0.4393   -0.0181 C   0  0  0  0  0  0  0  0  0  0  0  0
    2.0947   -1.6433   -0.5627 C   0  0  0  0  0  0  0  0  0  0  0  0
   -4.2767    1.8430   -0.0635 C   0  0  0  0  0  0  0  0  0  0  0  0
   -5.6898   -0.1149    0.0219 C   0  0  0  0  0  0  0  0  0  0  0  0
   -5.4077    2.6592   -0.0686 C   0  0  0  0  0  0  0  0  0  0  0  0
   -6.8210    0.7016    0.0168 C   0  0  0  0  0  0  0  0  0  0  0  0
    3.7998    0.0145   -0.5743 C   0  0  0  0  0  0  0  0  0  0  0  0
    4.0461    1.0839    0.2814 C   0  0  0  0  0  0  0  0  0  0  0  0
   -6.6798    2.0886   -0.0284 C   0  0  0  0  0  0  0  0  0  0  0  0
    3.8308    0.9558    1.7533 C   0  0  0  0  0  0  0  0  0  0  0  0
    4.0040    0.1455   -1.9446 C   0  0  0  0  0  0  0  0  0  0  0  0
    4.5010    2.2959   -0.2384 C   0  0  0  0  0  0  0  0  0  0  0  0
    4.4591    1.3574   -2.4642 C   0  0  0  0  0  0  0  0  0  0  0  0
    2.4222    1.3761    2.1815 C   0  0  0  0  0  0  0  0  0  0  0  0
    4.7074    2.4325   -1.6111 C   0  0  0  0  0  0  0  0  0  0  0  0
  1 11  1  0
  2 13  1  0
  2 18  1  0
  3 21  1  0
  4  6  1  0
  4  7  1  0
  4 10  1  0
  5  8  1  0
  5  9  1  0
  5 12  1  0
  6  8  1  0
  7  9  1  0
 10 11  1  0
 11 13  1  0
 12 14  2  0
 12 15  1  0
 14 16  1  0
 15 17  2  0
 16 20  2  0
 17 20  1  0
 18 19  2  0
 18 22  1  0
 19 21  1  0
 19 23  1  0
 21 25  1  0
 22 24  2  0
 23 26  2  0
 24 26  1  0
M  END
>  <PUBCHEM_COMPOUND_CID>  (1) 
39504

>  <PUBCHEM_CONFORMER_RMSD>  (1) 
1

>  <PUBCHEM_CONFORMER_DIVERSEORDER>  (1) 
1
36
113
257
171
105
31
119
88
155
180
239
100
89
258
224
73
109
96
24
35
133
90
136
240
275
158
204
232
244
225
302
227
64
233
300
205
209
38
112
189
186
146
182
59
67
131
230
212
125
117
236
144
154
198
235
253
307
55
211
78
299
127
278
266
145
103
8
199
165
27
50
219
274
75
174
234
134
295
63
46
54
29
179
87
269
265
56
241
28
177
62
255
6
246
126
289
298
159
163
228
15
175
118
81
223
16
80
60
107
201
285
293
303
168
33
84
114
123
184
231
122
142
200
7
115
194
261
252
86
193
291
65
162
47
76
130
45
248
161
3
280
260
66
20
277
242
152
196
11
213
111
249
164
167
139
210
181
98
9
172
23
243
262
281
153
51
287
13
166
121
95
58
124
286
183
85
40
71
254
279
17
92
41
129
237
22
132
30
160
37
292
156
116
226
290
102
57
270
250
91
296
4
197
169
306
97
68
202
294
18
259
44
238
305
218
267
143
120
5
101
149
14
263
272
220
217
19
268
48
284
222
215
187
178
282
256
77
39
221
176
141
135
276
208
148
245
206
93
70
271
26
190
188
79
49
191
140
82
69
53
34
52
128
137
108
61
32
104
74
138
106
42
173
203
72
94
2
83
151
301
21
216
207
192
288
229
25
147
10
99
170
157
195
214
247
297
185
251
12
273
110
43
304
150
283
264

>  <PUBCHEM_MMFF94_PARTIAL_CHARGES>  (1) 
36
1 -0.68
10 0.27
11 0.28
12 0.1
13 0.28
14 -0.15
15 -0.15
16 -0.15
17 -0.15
18 0.08
19 -0.14
2 -0.36
20 -0.15
21 0.42
22 -0.15
23 -0.15
24 -0.15
26 -0.15
3 -0.68
4 -0.81
40 0.15
41 0.15
42 0.4
43 0.15
44 0.15
45 0.15
47 0.15
48 0.15
49 0.15
5 -0.84
53 0.15
54 0.4
6 0.27
7 0.27
8 0.37
9 0.37

>  <PUBCHEM_EFFECTIVE_ROTOR_COUNT>  (1) 
8.2

>  <PUBCHEM_PHARMACOPHORE_FEATURES>  (1) 
10
1 1 acceptor
1 1 donor
1 2 acceptor
1 3 acceptor
1 3 donor
1 4 cation
1 5 cation
6 12 14 15 16 17 20 rings
6 18 19 22 23 24 26 rings
6 4 5 6 7 8 9 rings

>  <PUBCHEM_HEAVY_ATOM_COUNT>  (1) 
26

>  <PUBCHEM_ATOM_DEF_STEREO_COUNT>  (1) 
0

>  <PUBCHEM_ATOM_UDEF_STEREO_COUNT>  (1) 
2

>  <PUBCHEM_BOND_DEF_STEREO_COUNT>  (1) 
0

>  <PUBCHEM_BOND_UDEF_STEREO_COUNT>  (1) 
0

>  <PUBCHEM_ISOTOPIC_ATOM_COUNT>  (1) 
0

>  <PUBCHEM_COMPONENT_COUNT>  (1) 
1

>  <PUBCHEM_CACTVS_TAUTO_COUNT>  (1) 
1

>  <PUBCHEM_CONFORMER_ID>  (1) 
00009A5000000001

>  <PUBCHEM_MMFF94_ENERGY>  (1) 
84.8728

>  <PUBCHEM_FEATURE_SELFOVERLAP>  (1) 
50.752

>  <PUBCHEM_SHAPE_FINGERPRINT>  (1) 
10498660 4 18270972361565188744
10622 236 13469035509621681076
10937287 8 18409171025505626895
10981352 41 12035735331623057825
11720765 8 17774168877800960102
1200032 147 17531263785318464428
12342043 65 13046481126704481584
12422481 6 17313657153673242597
12596602 18 16950288446423743369
12633257 1 16732977652389457954
13617811 41 18409442592805344269
13726171 33 17971209259352991048
13782708 43 11671768361736853013
13878862 14 18117538649214010831
13965767 371 17676762197655435310
14114211 68 18337974332113515302
14251751 18 11455894620345626977
14347329 18 18336271257732867508
14429115 67 8142077676453624255
14528608 73 18341613681642388647
14537116 161 17561084662298952833
14790565 3 18268996393415636609
14840074 17 17676212394138478109
14848178 96 18410015424775951756
14849402 71 18042125367110978466
14931854 50 17988658375894459420
15142526 21 18040722463235438099
15183329 4 17060625486343188729
15210252 30 18335427923725111012
15322687 12 18412548708277874552
15342168 16 18260553320418742615
15342816 4 10591771982668619054
15721738 15 17489317338655265238
15979999 66 17693668008523425734
16992828 155 15180051945055993200
19438510 23 17460324471799890236
20567600 9 18338527326321896036
20691028 202 18266457612720364661
21968339 14 16558743538594819200
22393880 68 18060137677981056814
22956985 138 8342890367402108294
23559900 14 18041847177620836083
23569914 2 17244942088180704469
245318 6 18042143040742652837
2748736 6 18334287670037091253
2838139 119 18413385428142049263
3472631 163 18412833490411032639
34797466 226 16988840601353667389
3918712 181 18409726279431840573
44249763 50 17559663126184927431
444735 82 18263649460155062517
474 4 18187369826199632590
513532 50 17917992759334615204
57091435 61 18335422352740181277
57724786 102 17822010943422462470
59682541 52 16486981665370787197
7288768 16 17822016453449271939
7808743 9 18191029095839332214
960060 61 14045739335182144994
9849439 229 18336823203679266352

>  <PUBCHEM_SHAPE_MULTIPOLES>  (1) 
507.5
16.12
3.64
1.78
17.76
1.87
0.22
-14.44
-2.01
-0.74
0.05
-3.88
-0.97
-0.58

>  <PUBCHEM_SHAPE_SELFOVERLAP>  (1) 
1062.263

>  <PUBCHEM_SHAPE_VOLUME>  (1) 
287.2

>  <PUBCHEM_COORDINATE_TYPE>  (1) 
2
5
10

$$$$
