39509
     RDKit          3D

 23 25  0  0  0  0  0  0  0  0999 V2000
   -1.3064    1.9282    0.5411 S   0  0  0  0  0  0  0  0  0  0  0  0
    6.2305   -0.7590   -0.2900 O   0  0  0  0  0  0  0  0  0  0  0  0
   -7.0250   -1.3050    0.0736 O   0  0  0  0  0  0  0  0  0  0  0  0
    4.5264   -0.6395    1.2600 O   0  0  0  0  0  0  0  0  0  0  0  0
   -0.6867   -0.3522   -0.4924 N   0  0  0  0  0  0  0  0  0  0  0  0
    0.4926    0.3688   -0.3736 C   0  0  0  0  0  0  0  0  0  0  0  0
    2.8815    0.7695   -0.5695 C   0  0  0  0  0  0  0  0  0  0  0  0
    0.3549    1.6478    0.1743 C   0  0  0  0  0  0  0  0  0  0  0  0
    1.7799   -0.0721   -0.7498 C   0  0  0  0  0  0  0  0  0  0  0  0
    4.2415    0.3000   -0.9662 C   0  0  0  0  0  0  0  0  0  0  0  0
   -1.6888    0.3672   -0.0442 C   0  0  0  0  0  0  0  0  0  0  0  0
    2.7198    2.0376   -0.0225 C   0  0  0  0  0  0  0  0  0  0  0  0
    1.4569    2.4984    0.3583 C   0  0  0  0  0  0  0  0  0  0  0  0
   -3.0663   -0.0645   -0.0136 C   0  0  0  0  0  0  0  0  0  0  0  0
   -3.3714   -1.4234   -0.0761 C   0  0  0  0  0  0  0  0  0  0  0  0
   -4.0893    0.8783    0.0782 C   0  0  0  0  0  0  0  0  0  0  0  0
    4.9828   -0.4130    0.1475 C   0  0  0  0  0  0  0  0  0  0  0  0
   -4.7021   -1.8404   -0.0468 C   0  0  0  0  0  0  0  0  0  0  0  0
   -5.4201    0.4613    0.1076 C   0  0  0  0  0  0  0  0  0  0  0  0
   -5.7265   -0.8981    0.0451 C   0  0  0  0  0  0  0  0  0  0  0  0
    7.0493   -1.4453    0.6623 C   0  0  0  0  0  0  0  0  0  0  0  0
    8.3885   -1.7557    0.0285 C   0  0  0  0  0  0  0  0  0  0  0  0
   -8.0220   -0.2888    0.1685 C   0  0  0  0  0  0  0  0  0  0  0  0
  1  8  1  0
  1 11  1  0
  2 17  1  0
  2 21  1  0
  3 20  1  0
  3 23  1  0
  4 17  2  0
  5  6  1  0
  5 11  2  0
  6  8  2  0
  6  9  1  0
  7  9  2  0
  7 10  1  0
  7 12  1  0
  8 13  1  0
 10 17  1  0
 11 14  1  0
 12 13  2  0
 14 15  2  0
 14 16  1  0
 15 18  1  0
 16 19  2  0
 18 20  2  0
 19 20  1  0
 21 22  1  0
M  END
>  <PUBCHEM_COMPOUND_CID>  (1) 
39509

>  <PUBCHEM_CONFORMER_RMSD>  (1) 
0.8

>  <PUBCHEM_CONFORMER_DIVERSEORDER>  (1) 
1
21
2
17
12
19
24
18
23
7
14
6
8
11
3
4
10
25
9
22
15
20
16
5
13

>  <PUBCHEM_MMFF94_PARTIAL_CHARGES>  (1) 
29
1 -0.08
10 0.2
11 0.33
12 -0.15
13 -0.15
14 0.05
15 -0.15
16 -0.15
17 0.66
18 -0.15
19 -0.15
2 -0.43
20 0.08
21 0.28
23 0.28
24 0.15
27 0.15
28 0.15
29 0.15
3 -0.36
30 0.15
31 0.15
32 0.15
4 -0.57
5 -0.57
6 0.23
7 -0.14
8 0.04
9 -0.15

>  <PUBCHEM_EFFECTIVE_ROTOR_COUNT>  (1) 
6

>  <PUBCHEM_PHARMACOPHORE_FEATURES>  (1) 
6
1 3 acceptor
1 4 acceptor
1 5 acceptor
5 1 5 6 8 11 rings
6 14 15 16 18 19 20 rings
6 6 7 8 9 12 13 rings

>  <PUBCHEM_HEAVY_ATOM_COUNT>  (1) 
23

>  <PUBCHEM_ATOM_DEF_STEREO_COUNT>  (1) 
0

>  <PUBCHEM_ATOM_UDEF_STEREO_COUNT>  (1) 
0

>  <PUBCHEM_BOND_DEF_STEREO_COUNT>  (1) 
0

>  <PUBCHEM_BOND_UDEF_STEREO_COUNT>  (1) 
0

>  <PUBCHEM_ISOTOPIC_ATOM_COUNT>  (1) 
0

>  <PUBCHEM_COMPONENT_COUNT>  (1) 
1

>  <PUBCHEM_CACTVS_TAUTO_COUNT>  (1) 
1

>  <PUBCHEM_CONFORMER_ID>  (1) 
00009A5500000001

>  <PUBCHEM_MMFF94_ENERGY>  (1) 
59.5967

>  <PUBCHEM_FEATURE_SELFOVERLAP>  (1) 
30.519

>  <PUBCHEM_SHAPE_FINGERPRINT>  (1) 
10 15 17203323429948239850
10299344 5 18114184125010703158
10411042 1 18410856543167562180
10429389 143 12751246861969302443
106641 1 18059851780068668008
10670039 82 13190330245592978230
10753850 27 18187359922663937456
11456790 92 18059589001132005523
11524674 6 17418373605868252807
11719270 70 18131354111090067662
12166972 35 18041001773564592397
12236239 1 18260552208428063316
12592606 108 18410571812410293503
12616971 3 17703506701088439629
12760667 363 18410854356326847979
13288520 33 18408885122490882805
13668630 136 18040154007149617738
13685833 64 18410575101848229360
13862211 1 18412546517633271013
13885169 127 18334574607969492037
14251752 14 17968089816426752957
14251764 18 18341617039758395653
14556957 393 15720252582534598190
15183329 4 15791447110977575368
15188451 53 18272088284257708656
15690457 1 18412822495120940758
15706992 2 13542177342889971426
15927050 60 17766837604797056948
17492 89 18049724319645866427
19784866 240 18259707787655729020
19841028 212 17822846465076139082
20028762 73 18130790087479556214
20505436 4 10663810859587666364
20735858 18 17275103920837940638
21130935 74 18199467839145949187
21150785 3 13479134596525608099
21267235 1 18409732854466568480
21304304 249 18412547600640880318
21637258 2 17894623739424710680
21792934 111 18202557380319481625
221357 26 14706924047228485358
22224240 67 15554445197466340327
23522609 53 18120408477199836893
23559900 14 18262798613425403001
28498 318 18333729109413372759
3004659 81 18113053848637499056
335352 9 18412265056021471543
3411729 13 17914890070929612944
4073 2 17971476453193606065
4214541 1 18341336656515813421
465052 167 18412548734295305854
5104073 3 18129952294231623777
559249 180 18410855443597145589
5718773 13 18341329002451822383
5758199 1 11887952151228928340
59682541 35 17989480828262230018
59682541 52 15647054850862657502
59755656 520 17603583071925149779
6138700 20 18408323272044054939
636775 8 18341058424629990350
6438161 24 18408037429080069578

>  <PUBCHEM_SHAPE_MULTIPOLES>  (1) 
454.59
21.12
2.1
0.8
6.58
0.64
0.02
-15.67
2.23
0.97
0.27
0.65
0.01
-0.59

>  <PUBCHEM_SHAPE_SELFOVERLAP>  (1) 
969.889

>  <PUBCHEM_SHAPE_VOLUME>  (1) 
255.4

>  <PUBCHEM_COORDINATE_TYPE>  (1) 
2
5
10

$$$$
