39515
     RDKit          3D

 24 25  0  0  0  0  0  0  0  0999 V2000
    4.9180    1.2711    0.7164 O   0  0  0  0  0  0  0  0  0  0  0  0
    0.2009    2.0140   -1.3281 O   0  0  0  0  0  0  0  0  0  0  0  0
    2.3674    2.5231    0.1055 O   0  0  0  0  0  0  0  0  0  0  0  0
    3.3378   -2.9148   -0.6675 O   0  0  0  0  0  0  0  0  0  0  0  0
   -4.6916    0.4856   -0.0943 C   0  0  0  0  0  0  0  0  0  0  0  0
   -5.8790   -0.4652    0.0659 C   0  0  0  0  0  0  0  0  0  0  0  0
   -3.4035   -0.2803   -0.4030 C   0  0  0  0  0  0  0  0  0  0  0  0
   -7.1732    0.3019    0.3414 C   0  0  0  0  0  0  0  0  0  0  0  0
   -2.2093    0.6709   -0.5296 C   0  0  0  0  0  0  0  0  0  0  0  0
   -8.3662   -0.6468    0.4682 C   0  0  0  0  0  0  0  0  0  0  0  0
   -0.9000   -0.0704   -0.8108 C   0  0  0  0  0  0  0  0  0  0  0  0
   -9.6649    0.1222    0.7100 C   0  0  0  0  0  0  0  0  0  0  0  0
    0.3024    0.8546   -0.9342 C   0  0  0  0  0  0  0  0  0  0  0  0
    1.6505    0.3237   -0.5837 C   0  0  0  0  0  0  0  0  0  0  0  0
    4.1255   -0.7343    0.0427 C   0  0  0  0  0  0  0  0  0  0  0  0
    3.8336    0.6148    0.2159 C   0  0  0  0  0  0  0  0  0  0  0  0
    2.6017    1.1930   -0.0853 C   0  0  0  0  0  0  0  0  0  0  0  0
    5.4708   -0.8956    0.4668 C   0  0  0  0  0  0  0  0  0  0  0  0
    1.8738   -1.0253   -0.7802 C   0  0  0  0  0  0  0  0  0  0  0  0
    3.1234   -1.5780   -0.4677 C   0  0  0  0  0  0  0  0  0  0  0  0
  -10.8582   -0.8150    0.8035 C   0  0  0  0  0  0  0  0  0  0  0  0
    5.9038    0.3481    0.8646 C   0  0  0  0  0  0  0  0  0  0  0  0
    6.2569   -2.1444    0.4838 C   0  0  0  0  0  0  0  0  0  0  0  0
    7.1792    0.8473    1.3998 C   0  0  0  0  0  0  0  0  0  0  0  0
  1 16  1  0
  1 22  1  0
  2 13  2  0
  3 17  1  0
  4 20  1  0
  5  6  1  0
  5  7  1  0
  6  8  1  0
  7  9  1  0
  8 10  1  0
  9 11  1  0
 10 12  1  0
 11 13  1  0
 12 21  1  0
 13 14  1  0
 14 17  2  0
 14 19  1  0
 15 16  2  0
 15 18  1  0
 15 20  1  0
 16 17  1  0
 18 22  2  0
 18 23  1  0
 19 20  2  0
 22 24  1  0
M  END
>  <PUBCHEM_COMPOUND_CID>  (1) 
39515

>  <PUBCHEM_CONFORMER_RMSD>  (1) 
1

>  <PUBCHEM_CONFORMER_DIVERSEORDER>  (1) 
2
202
71
195
86
5
203
168
10
128
106
188
53
23
142
165
116
122
54
200
156
152
161
45
132
6
59
140
213
130
199
83
131
22
18
97
26
175
34
138
15
217
24
218
4
30
196
127
180
25
126
169
114
98
185
183
141
153
93
155
14
119
193
47
209
61
198
143
192
67
56
12
129
118
154
65
158
189
78
44
187
89
73
74
197
107
125
77
39
211
16
136
171
103
111
72
92
7
204
8
101
37
1
139
184
51
42
219
135
57
120
124
84
123
36
60
32
68
28
80
149
52
76
177
69
35
191
170
41
105
173
58
63
46
33
95
17
186
49
179
50
96
112
110
201
64
75
82
11
133
181
91
48
88
113
215
40
194
164
38
208
19
146
90
174
66
117
21
207
157
163
212
144
147
55
160
27
216
85
210
104
134
94
159
43
29
182
115
172
167
109
13
20
102
145
151
3
70
148
121
9
62
178
190
205
150
176
162
206
31
137
100
79
99
214
87
81
108
166

>  <PUBCHEM_MMFF94_PARTIAL_CHARGES>  (1) 
18
1 -0.28
11 0.06
13 0.42
14 0.09
16 0.14
17 0.08
18 -0.18
19 -0.15
2 -0.57
20 0.08
22 -0.04
23 0.18
24 0.18
3 -0.53
4 -0.53
41 0.15
51 0.45
52 0.45

>  <PUBCHEM_EFFECTIVE_ROTOR_COUNT>  (1) 
9

>  <PUBCHEM_PHARMACOPHORE_FEATURES>  (1) 
7
1 1 acceptor
1 2 acceptor
1 21 hydrophobe
1 3 donor
1 4 donor
5 1 15 16 18 22 rings
6 14 15 16 17 19 20 rings

>  <PUBCHEM_HEAVY_ATOM_COUNT>  (1) 
24

>  <PUBCHEM_ATOM_DEF_STEREO_COUNT>  (1) 
0

>  <PUBCHEM_ATOM_UDEF_STEREO_COUNT>  (1) 
0

>  <PUBCHEM_BOND_DEF_STEREO_COUNT>  (1) 
0

>  <PUBCHEM_BOND_UDEF_STEREO_COUNT>  (1) 
0

>  <PUBCHEM_ISOTOPIC_ATOM_COUNT>  (1) 
0

>  <PUBCHEM_COMPONENT_COUNT>  (1) 
1

>  <PUBCHEM_CACTVS_TAUTO_COUNT>  (1) 
16

>  <PUBCHEM_CONFORMER_ID>  (1) 
00009A5B00000002

>  <PUBCHEM_MMFF94_ENERGY>  (1) 
29.4963

>  <PUBCHEM_FEATURE_SELFOVERLAP>  (1) 
35.625

>  <PUBCHEM_SHAPE_FINGERPRINT>  (1) 
10 15 16773799199946924111
10162869 55 17917139590362830229
10165383 225 12751520687065984664
10299344 5 12684808910504683661
106641 1 18409727382678408873
10693767 8 11747198144841759464
11607047 141 15051457060229147422
11638347 137 18408045109410042331
11724838 91 17917706933519045677
13073987 5 18271246011217227893
13673619 4 16588022420883102405
13685833 64 18114181926071603301
13885169 127 17967812718475586021
14251764 18 18131069347001461349
14251764 46 17094959952943984849
15183329 4 11241965976282795471
15247644 1 15791728603418902169
15475509 35 17459732754561326338
155225 1 14548736226755269035
15690457 1 18113617907257063259
15706992 2 17060058202746705776
15840311 113 17346597517293805920
1754911 235 9439404606758737123
18335252 114 8070026666463495239
20554085 129 14692569901711710479
20721686 124 9799700302757025696
21150785 3 7853857179275026961
21267235 1 18341048515929019278
21344244 246 12685355328307031856
21792934 111 18410571787278819077
22224240 67 18343010130129127754
246663 6 16153708726662658353
29717793 49 13190339045669522718
3004659 81 12107785224705320637
4325135 7 8070029965615141579
4340502 62 18131630088856616902
5104073 3 18196356049820329760
59521099 67 13334740149872047934
59682541 35 18413105087252839681
59682541 52 7853579032418208936
99344 41 18342176679273746423

>  <PUBCHEM_SHAPE_MULTIPOLES>  (1) 
470.43
28.84
1.9
1.03
85.08
0.41
0.03
7.07
14.4
-3.54
-0.24
-0.51
-0.12
0.98

>  <PUBCHEM_SHAPE_SELFOVERLAP>  (1) 
973.578

>  <PUBCHEM_SHAPE_VOLUME>  (1) 
272.3

>  <PUBCHEM_COORDINATE_TYPE>  (1) 
2
5
10

$$$$
