3951
     RDKit          3D

 30 32  0  0  1  0  0  0  0  0999 V2000
   -1.2385    0.0363    0.2700 O   0  0  0  0  0  0  0  0  0  0  0  0
    2.7061    2.8132   -0.2382 O   0  0  0  0  0  0  0  0  0  0  0  0
    3.0488   -1.6339    1.4278 O   0  0  0  0  0  0  0  0  0  0  0  0
    0.3513    3.6202   -0.9381 O   0  0  0  0  0  0  0  0  0  0  0  0
   -7.4834   -0.1515   -0.2324 O   0  0  0  0  0  0  0  0  0  0  0  0
   -2.0207    1.2398    0.3189 C   0  0  0  0  0  0  0  0  0  0  0  0
   -1.5887    2.2186   -0.7713 C   0  0  0  0  0  0  0  0  0  0  0  0
    0.1091    0.2715    0.3623 C   0  0  0  0  0  0  0  0  0  0  0  0
    0.7083    1.4777   -0.0124 C   0  0  0  0  0  0  0  0  0  0  0  0
    0.8987   -0.7787    0.8324 C   0  0  0  0  0  0  0  0  0  0  0  0
   -0.1310    2.5506   -0.5848 C   0  0  0  0  0  0  0  0  0  0  0  0
    2.8710    0.6019    0.6031 C   0  0  0  0  0  0  0  0  0  0  0  0
    2.0892    1.6486    0.1131 C   0  0  0  0  0  0  0  0  0  0  0  0
    2.2781   -0.6106    0.9572 C   0  0  0  0  0  0  0  0  0  0  0  0
   -3.4810    0.8680    0.1713 C   0  0  0  0  0  0  0  0  0  0  0  0
    0.2721   -2.0826    1.2147 C   0  0  0  0  0  0  0  0  0  0  0  0
    4.3502    0.7750    0.7461 C   0  0  0  0  0  0  0  0  0  0  0  0
   -4.3735    1.1240    1.2115 C   0  0  0  0  0  0  0  0  0  0  0  0
   -3.9321    0.2696   -1.0048 C   0  0  0  0  0  0  0  0  0  0  0  0
    0.1908   -3.0512    0.0626 C   0  0  0  0  0  0  0  0  0  0  0  0
    5.1079    0.3713   -0.4928 C   0  0  0  0  0  0  0  0  0  0  0  0
   -5.7187    0.7813    1.0757 C   0  0  0  0  0  0  0  0  0  0  0  0
   -5.2773   -0.0730   -1.1408 C   0  0  0  0  0  0  0  0  0  0  0  0
   -0.9118   -3.5885   -0.4935 C   0  0  0  0  0  0  0  0  0  0  0  0
   -6.1708    0.1829   -0.1005 C   0  0  0  0  0  0  0  0  0  0  0  0
    6.3457   -0.1531   -0.5746 C   0  0  0  0  0  0  0  0  0  0  0  0
   -0.9208   -4.5526   -1.6457 C   0  0  0  0  0  0  0  0  0  0  0  0
   -2.2778   -3.2464    0.0398 C   0  0  0  0  0  0  0  0  0  0  0  0
    7.0441   -0.5344   -1.8489 C   0  0  0  0  0  0  0  0  0  0  0  0
    7.1547   -0.3939    0.6723 C   0  0  0  0  0  0  0  0  0  0  0  0
  1  6  1  0
  1  8  1  0
  2 13  1  0
  3 14  1  0
  4 11  2  0
  5 25  1  0
  6  7  1  0
  6 15  1  0
  7 11  1  0
  8  9  2  0
  8 10  1  0
  9 11  1  0
  9 13  1  0
 10 14  2  0
 10 16  1  0
 12 13  2  0
 12 14  1  0
 12 17  1  0
 15 18  2  0
 15 19  1  0
 16 20  1  0
 17 21  1  0
 18 22  1  0
 19 23  2  0
 20 24  2  3
 21 26  2  3
 22 25  2  0
 23 25  1  0
 24 27  1  0
 24 28  1  0
 26 29  1  0
 26 30  1  0
M  END
>  <PUBCHEM_COMPOUND_CID>  (1) 
3951

>  <PUBCHEM_CONFORMER_RMSD>  (1) 
0.8

>  <PUBCHEM_CONFORMER_DIVERSEORDER>  (1) 
1
119
32
70
71
95
186
76
36
180
21
60
91
140
44
135
85
113
97
147
170
129
10
35
59
69
185
54
52
27
160
4
25
134
57
187
87
183
128
46
117
181
115
111
64
51
144
137
172
120
141
178
173
116
182
84
43
118
167
20
154
124
156
41
90
29
149
50
145
99
66
132
136
49
30
106
63
81
104
93
139
42
133
58
153
72
175
7
88
65
162
56
11
102
39
8
109
83
105
112
34
89
53
48
163
75
28
150
158
114
74
108
138
151
92
17
164
55
168
155
130
122
62
37
174
146
40
45
165
68
5
19
169
16
148
157
101
94
73
67
161
107
77
179
177
12
123
47
14
96
189
80
86
3
2
171
103
33
110
126
176
166
100
26
143
24
125
79
131
23
31
61
18
121
142
15
82
38
188
22
159
13
78
9
127
152
98
6
184

>  <PUBCHEM_MMFF94_PARTIAL_CHARGES>  (1) 
39
1 -0.36
10 -0.14
11 0.42
12 -0.14
13 0.08
14 0.08
15 -0.14
16 0.28
17 0.28
18 -0.15
19 -0.15
2 -0.53
20 -0.29
21 -0.29
22 -0.15
23 -0.15
24 -0.28
25 0.08
26 -0.28
27 0.14
28 0.14
29 0.14
3 -0.53
30 0.14
38 0.15
39 0.15
4 -0.57
40 0.15
41 0.15
42 0.45
43 0.45
44 0.15
45 0.15
5 -0.53
58 0.45
6 0.42
7 0.06
8 0.08
9 0.09

>  <PUBCHEM_EFFECTIVE_ROTOR_COUNT>  (1) 
5.6

>  <PUBCHEM_PHARMACOPHORE_FEATURES>  (1) 
10
1 1 acceptor
1 2 donor
1 3 donor
1 4 acceptor
1 5 donor
3 24 27 28 hydrophobe
3 26 29 30 hydrophobe
6 1 6 7 8 9 11 rings
6 15 18 19 22 23 25 rings
6 8 9 10 12 13 14 rings

>  <PUBCHEM_HEAVY_ATOM_COUNT>  (1) 
30

>  <PUBCHEM_ATOM_DEF_STEREO_COUNT>  (1) 
0

>  <PUBCHEM_ATOM_UDEF_STEREO_COUNT>  (1) 
1

>  <PUBCHEM_BOND_DEF_STEREO_COUNT>  (1) 
0

>  <PUBCHEM_BOND_UDEF_STEREO_COUNT>  (1) 
0

>  <PUBCHEM_ISOTOPIC_ATOM_COUNT>  (1) 
0

>  <PUBCHEM_COMPONENT_COUNT>  (1) 
1

>  <PUBCHEM_CACTVS_TAUTO_COUNT>  (1) 
42

>  <PUBCHEM_CONFORMER_ID>  (1) 
00000F6F00000001

>  <PUBCHEM_MMFF94_ENERGY>  (1) 
80.2698

>  <PUBCHEM_FEATURE_SELFOVERLAP>  (1) 
50.776

>  <PUBCHEM_SHAPE_FINGERPRINT>  (1) 
10050765 1 18123751113460623760
10906281 52 18042134154645493753
1100329 8 18336545039790297864
11421498 54 17846218796447143051
11488393 25 18051696538099435482
11524674 6 18060420213762124047
11578080 2 17558253595670793656
11991303 11 17749678483746203890
12011746 2 18187366523585949432
12058002 1 17415033289527179184
12107698 1 16128372679496141505
12156800 1 18049187706331717431
12236239 1 18130788975541793097
13140716 1 18190176969632340977
14117953 113 18409444787485374213
14289585 56 17823114840011518333
14790565 3 18409736127248277760
14840074 17 18260829280714941063
15131766 46 15142396713479624598
15183329 4 18412830175102526238
15297060 5 17989491827436514243
15849732 13 17749112205609008732
15927050 60 17977107086742272532
16090146 7 18201175303114983866
17138139 8 17626351840343849095
17492 54 18260539013961436779
18603816 31 17275095125140785478
18681886 176 18410849988609352809
19319366 153 17821726109687069714
20028762 73 18272367590175942119
20642791 13 17835222821155064568
21197605 99 18191030200321972987
21267235 1 18408045113172538817
21344244 181 18131360678723051118
21781051 124 18115888423562453883
22311459 1 18408322177629026880
23559900 14 18271522117627477640
23569917 315 18342745156517918055
23569943 247 17914064088341253062
23576562 1 17969794161848779852
244849 19 16844150450148480898
249057 3 18411702118974161228
3178227 256 18261967296614113633
335352 9 18408041836259814804
340366 18 18262523709558667076
4017518 198 18131919247445996302
404807 14 15405311662612901742
563151 248 17561079220042093631
58260988 647 17059790905762936022
59755656 215 18410858733289055814
59755656 520 18343017804998530039
6287921 2 17986108509956752355
6669772 16 18341897338336697438
7164475 11 17836080448397835262
9896288 288 17986682467426219649

>  <PUBCHEM_SHAPE_MULTIPOLES>  (1) 
588.04
15.2
4.03
1.29
5.35
4.1
0.16
-1.79
2.14
-1.31
1.5
0.49
0.39
-0.59

>  <PUBCHEM_SHAPE_SELFOVERLAP>  (1) 
1260.31

>  <PUBCHEM_SHAPE_VOLUME>  (1) 
326.5

>  <PUBCHEM_COORDINATE_TYPE>  (1) 
2
5
10

$$$$
