39510
     RDKit          3D

 21 23  0  0  0  0  0  0  0  0999 V2000
    0.3617    1.9343   -0.1956 S   0  0  0  0  0  0  0  0  0  0  0  0
    6.6841   -0.3243    0.0347 O   0  0  0  0  0  0  0  0  0  0  0  0
   -6.6700    0.5658    0.2987 O   0  0  0  0  0  0  0  0  0  0  0  0
    0.6227   -0.6184    0.0663 N   0  0  0  0  0  0  0  0  0  0  0  0
   -6.3927   -1.6441   -0.2475 N   0  0  0  0  0  0  0  0  0  0  0  0
    1.9031   -0.0872    0.0114 C   0  0  0  0  0  0  0  0  0  0  0  0
    1.9647    1.3024   -0.1311 C   0  0  0  0  0  0  0  0  0  0  0  0
   -0.2591    0.3488   -0.0326 C   0  0  0  0  0  0  0  0  0  0  0  0
   -1.6908    0.1648   -0.0140 C   0  0  0  0  0  0  0  0  0  0  0  0
    3.1106   -0.8148    0.0860 C   0  0  0  0  0  0  0  0  0  0  0  0
    4.3327   -0.1395    0.0166 C   0  0  0  0  0  0  0  0  0  0  0  0
    3.1885    1.9872   -0.2015 C   0  0  0  0  0  0  0  0  0  0  0  0
    4.3688    1.2433   -0.1254 C   0  0  0  0  0  0  0  0  0  0  0  0
   -2.2360   -1.0859   -0.3007 C   0  0  0  0  0  0  0  0  0  0  0  0
   -2.5265    1.2381    0.2920 C   0  0  0  0  0  0  0  0  0  0  0  0
   -4.4565   -0.1906    0.0247 C   0  0  0  0  0  0  0  0  0  0  0  0
   -3.6194   -1.2636   -0.2815 C   0  0  0  0  0  0  0  0  0  0  0  0
   -3.9099    1.0604    0.3113 C   0  0  0  0  0  0  0  0  0  0  0  0
    5.5755   -0.8920    0.0936 C   0  0  0  0  0  0  0  0  0  0  0  0
    5.5470   -2.4083    0.2492 C   0  0  0  0  0  0  0  0  0  0  0  0
   -5.8985   -0.3763    0.0454 C   0  0  0  0  0  0  0  0  0  0  0  0
  1  7  1  0
  1  8  1  0
  2 19  2  0
  3 21  2  0
  4  6  1  0
  4  8  2  0
  5 21  1  0
  6  7  2  0
  6 10  1  0
  7 12  1  0
  8  9  1  0
  9 14  2  0
  9 15  1  0
 10 11  2  0
 11 13  1  0
 11 19  1  0
 12 13  2  0
 14 17  1  0
 15 18  2  0
 16 17  2  0
 16 18  1  0
 16 21  1  0
 19 20  1  0
M  END
>  <PUBCHEM_COMPOUND_CID>  (1) 
39510

>  <PUBCHEM_CONFORMER_RMSD>  (1) 
0.6

>  <PUBCHEM_CONFORMER_DIVERSEORDER>  (1) 
2
3
1
4

>  <PUBCHEM_MMFF94_PARTIAL_CHARGES>  (1) 
30
1 -0.08
10 -0.15
11 0.09
12 -0.15
13 -0.15
14 -0.15
15 -0.15
16 0.09
17 -0.15
18 -0.15
19 0.42
2 -0.57
20 0.06
21 0.54
22 0.15
23 0.15
24 0.15
25 0.15
26 0.15
27 0.15
28 0.15
3 -0.57
32 0.37
33 0.37
4 -0.57
5 -0.8
6 0.23
7 0.04
8 0.33
9 0.05

>  <PUBCHEM_EFFECTIVE_ROTOR_COUNT>  (1) 
3

>  <PUBCHEM_PHARMACOPHORE_FEATURES>  (1) 
7
1 2 acceptor
1 3 acceptor
1 4 acceptor
1 5 donor
5 1 4 6 7 8 rings
6 6 7 10 11 12 13 rings
6 9 14 15 16 17 18 rings

>  <PUBCHEM_HEAVY_ATOM_COUNT>  (1) 
21

>  <PUBCHEM_ATOM_DEF_STEREO_COUNT>  (1) 
0

>  <PUBCHEM_ATOM_UDEF_STEREO_COUNT>  (1) 
0

>  <PUBCHEM_BOND_DEF_STEREO_COUNT>  (1) 
0

>  <PUBCHEM_BOND_UDEF_STEREO_COUNT>  (1) 
0

>  <PUBCHEM_ISOTOPIC_ATOM_COUNT>  (1) 
0

>  <PUBCHEM_COMPONENT_COUNT>  (1) 
1

>  <PUBCHEM_CACTVS_TAUTO_COUNT>  (1) 
4

>  <PUBCHEM_CONFORMER_ID>  (1) 
00009A5600000002

>  <PUBCHEM_MMFF94_ENERGY>  (1) 
61.2994

>  <PUBCHEM_FEATURE_SELFOVERLAP>  (1) 
35.593

>  <PUBCHEM_SHAPE_FINGERPRINT>  (1) 
10 15 12247671686533641686
10366900 7 16443063889396781529
10595046 47 18340488966603382501
11315181 36 18202004335151053241
11524674 6 16558747923329550839
12107183 9 17763467214335283985
12166972 35 18408888455317536785
12236239 1 18413390955886278073
12516196 113 18201717362188981128
12616971 3 16558740243579968781
13073987 5 18343019995194669088
13167823 11 18410572898598727730
13288520 33 18411699885796908525
13533116 47 18412262856940355872
13685833 64 18408042901031915554
13862211 1 18410575076073163810
14251764 18 18342176691519630116
14341114 176 18335425698641154073
15196674 1 18410856577004651869
17492 89 18048312242232254970
17844677 252 18410299102955425244
17857418 61 18413388735003142174
1813 80 17603305934443025396
18222031 100 16950000344201504404
18681886 176 18342451573605347840
19141452 34 18343017826172666735
19489759 90 16343989100584494371
200 152 18343863316212294944
20028762 73 18342174445231395494
20612939 158 18041285451885659084
20645477 70 18408322181538859222
21130935 74 18272369784677753715
21150785 3 16153432757364672230
21267235 1 18410580582221224295
21682296 61 18338805511143102970
21792934 111 18201431481288248017
22224240 67 16558742417365891662
23035841 295 18335420166491265803
23081809 10 18272653484869139893
23402539 116 18202560692535429389
23522609 53 18193871229875917148
23536379 177 18412263934845148433
23559900 14 18338230578589446849
28498 318 18335980887910295175
29717793 49 18344149189367431260
3004659 81 18260829302321756624
335352 9 18410855473561664327
34797466 226 16988570138884574356
350125 39 18411418392997075229
3545911 37 18411419518188433229
4073 2 18041846241491480258
4214541 1 18411419492761917061
4325135 7 18333454249182092444
4463277 17 18409729560437843884
46194498 28 17240484732391356156
465052 167 18413673504731563014
5104073 3 18272093846187571105
542803 24 13551185589578415389
559249 180 18339358570203033783
59682541 35 18341601643487134762
59682541 52 12757427191043091650
59755656 215 17749385936380220571
59755656 520 17458060491342779459
67856867 119 18270397320920665704
7495541 125 17560798887632165441
9965369 4 18342177735312669393
9971528 1 18041278854673591116

>  <PUBCHEM_SHAPE_MULTIPOLES>  (1) 
414.32
16.47
1.96
0.64
5.51
0.02
0
6.68
0.68
-1.47
-0.04
0.04
-0.02
-0.65

>  <PUBCHEM_SHAPE_SELFOVERLAP>  (1) 
904.583

>  <PUBCHEM_SHAPE_VOLUME>  (1) 
227.6

>  <PUBCHEM_COORDINATE_TYPE>  (1) 
2
5
10

$$$$
