39521
     RDKit          3D

 18 18  0  0  0  0  0  0  0  0999 V2000
    5.8976   -0.7026   -0.0056 O   0  0  0  0  0  0  0  0  0  0  0  0
    3.4256   -1.2983   -0.5806 O   0  0  0  0  0  0  0  0  0  0  0  0
   -5.0953   -0.3311    0.0275 N   0  0  0  0  0  0  0  0  0  0  0  0
   -2.9239    0.3251   -0.6364 N   0  0  0  0  0  0  0  0  0  0  0  0
    2.5759    0.7453    0.2292 N   0  0  0  0  0  0  0  0  0  0  0  0
   -1.5423    0.4311   -0.4197 C   0  0  0  0  0  0  0  0  0  0  0  0
    1.2019    0.6405    0.0116 C   0  0  0  0  0  0  0  0  0  0  0  0
   -3.7218   -0.1839    0.2713 C   0  0  0  0  0  0  0  0  0  0  0  0
   -0.7006   -0.6154   -0.7889 C   0  0  0  0  0  0  0  0  0  0  0  0
   -1.0179    1.5818    0.1644 C   0  0  0  0  0  0  0  0  0  0  0  0
    0.6735   -0.5105   -0.5730 C   0  0  0  0  0  0  0  0  0  0  0  0
    0.3561    1.6866    0.3802 C   0  0  0  0  0  0  0  0  0  0  0  0
   -3.1884   -0.6715    1.6177 C   0  0  0  0  0  0  0  0  0  0  0  0
   -5.6839    0.1098   -1.2348 C   0  0  0  0  0  0  0  0  0  0  0  0
   -6.0053   -1.0007    0.9500 C   0  0  0  0  0  0  0  0  0  0  0  0
    3.5736   -0.1921   -0.0699 C   0  0  0  0  0  0  0  0  0  0  0  0
    4.9521    0.2950    0.3206 C   0  0  0  0  0  0  0  0  0  0  0  0
    7.2231   -0.3092    0.3365 C   0  0  0  0  0  0  0  0  0  0  0  0
  1 17  1  0
  1 18  1  0
  2 16  2  0
  3  8  1  0
  3 14  1  0
  3 15  1  0
  4  6  1  0
  4  8  2  0
  5  7  1  0
  5 16  1  0
  6  9  2  0
  6 10  1  0
  7 11  2  0
  7 12  1  0
  8 13  1  0
  9 11  1  0
 10 12  2  0
 16 17  1  0
M  END
>  <PUBCHEM_COMPOUND_CID>  (1) 
39521

>  <PUBCHEM_CONFORMER_RMSD>  (1) 
0.8

>  <PUBCHEM_CONFORMER_DIVERSEORDER>  (1) 
1
7
3
8
9
2
6
5
4

>  <PUBCHEM_MMFF94_PARTIAL_CHARGES>  (1) 
23
1 -0.56
10 -0.15
11 -0.15
12 -0.15
13 0.06
14 0.37
15 0.37
16 0.57
17 0.34
18 0.28
19 0.15
2 -0.57
20 0.15
21 0.15
22 0.15
23 0.37
3 -0.79
4 -0.63
5 -0.55
6 0.18
7 0.12
8 0.44
9 -0.15

>  <PUBCHEM_EFFECTIVE_ROTOR_COUNT>  (1) 
6

>  <PUBCHEM_PHARMACOPHORE_FEATURES>  (1) 
5
1 1 acceptor
1 2 acceptor
1 5 donor
3 3 4 8 cation
6 6 7 9 10 11 12 rings

>  <PUBCHEM_HEAVY_ATOM_COUNT>  (1) 
18

>  <PUBCHEM_ATOM_DEF_STEREO_COUNT>  (1) 
0

>  <PUBCHEM_ATOM_UDEF_STEREO_COUNT>  (1) 
0

>  <PUBCHEM_BOND_DEF_STEREO_COUNT>  (1) 
0

>  <PUBCHEM_BOND_UDEF_STEREO_COUNT>  (1) 
0

>  <PUBCHEM_ISOTOPIC_ATOM_COUNT>  (1) 
0

>  <PUBCHEM_COMPONENT_COUNT>  (1) 
1

>  <PUBCHEM_CACTVS_TAUTO_COUNT>  (1) 
2

>  <PUBCHEM_CONFORMER_ID>  (1) 
00009A6100000001

>  <PUBCHEM_MMFF94_ENERGY>  (1) 
59.792

>  <PUBCHEM_FEATURE_SELFOVERLAP>  (1) 
25.383

>  <PUBCHEM_SHAPE_FINGERPRINT>  (1) 
10 15 18338506531034696232
106641 1 17703789262122079258
11315181 36 17967255299348038005
11796584 16 17603304851715796731
12091667 2 18202561774645524853
12236239 1 16702302360205746823
12596602 18 16272206405248222122
12670543 26 11819264551497579986
12714333 28 9151175346180124970
13288520 33 17385444332464916407
13533116 47 15338845218884393846
13685833 64 18334581273980041259
13862211 1 18272929435974446239
13964095 4 17240476988459838781
1420 363 18410295805021369942
14251731 8 17676485055899857483
14251764 18 16773793723526128608
14386348 63 18334016103032753051
14911166 2 11818996287766444708
17834076 25 8286200552388785126
17862501 102 16917349251535411525
18006028 8 18342736321083776824
187816 3 13045943503624519692
19141452 34 17560797766466450774
19489759 90 17749106673691202661
200 152 17989485221850087301
20281389 69 12391513071072235458
20645477 56 11095882653297071889
21267235 1 18343306947066480532
21637258 2 17531239590923647362
22224240 67 17060331934060807942
23035841 295 16443063902291680824
23402539 116 14189571936554861809
23536379 177 16225763004062700196
23557571 272 17603580790437348060
23559900 14 17386006229714046044
26918003 58 18259987080277239946
293599 30 9007057958975667876
29717793 49 14851606549493297170
4463277 17 18343581841446821092
465052 167 18410300241121362495
5104073 3 18057884641812759754
59682541 35 18271800259983438258

>  <PUBCHEM_SHAPE_MULTIPOLES>  (1) 
343.75
15.69
1.22
1.02
10.98
0.31
0.1
-5.24
1.25
-0.07
0.15
-1.19
-0.16
0.83

>  <PUBCHEM_SHAPE_SELFOVERLAP>  (1) 
692.545

>  <PUBCHEM_SHAPE_VOLUME>  (1) 
202.1

>  <PUBCHEM_COORDINATE_TYPE>  (1) 
2
5
10

$$$$
