39538
     RDKit          3D

  7  7  0  0  0  0  0  0  0  0999 V2000
   -0.9144   -1.1215    0.0002 N   0  0  0  0  0  0  0  0  0  0  0  0
    0.3769   -0.6621    0.0005 C   0  0  0  0  0  0  0  0  0  0  0  0
    0.3350    0.7147    0.0003 C   0  0  0  0  0  0  0  0  0  0  0  0
   -1.0294    1.0963   -0.0001 C   0  0  0  0  0  0  0  0  0  0  0  0
   -1.7797   -0.0588   -0.0003 C   0  0  0  0  0  0  0  0  0  0  0  0
    1.5179   -1.5980   -0.0004 C   0  0  0  0  0  0  0  0  0  0  0  0
    1.4938    1.6294   -0.0001 C   0  0  0  0  0  0  0  0  0  0  0  0
  1  2  1  0
  1  5  1  0
  2  3  2  0
  2  6  1  0
  3  4  1  0
  3  7  1  0
  4  5  2  0
M  END
>  <PUBCHEM_COMPOUND_CID>  (1) 
39538

>  <PUBCHEM_CONFORMER_RMSD>  (1) 
0.4

>  <PUBCHEM_CONFORMER_DIVERSEORDER>  (1) 
1

>  <PUBCHEM_MMFF94_PARTIAL_CHARGES>  (1) 
10
1 0.03
10 0.15
2 -0.33
3 -0.18
4 -0.15
5 -0.3
6 0.18
7 0.18
8 0.27
9 0.15

>  <PUBCHEM_EFFECTIVE_ROTOR_COUNT>  (1) 
0

>  <PUBCHEM_PHARMACOPHORE_FEATURES>  (1) 
3
1 1 cation
1 1 donor
5 1 2 3 4 5 rings

>  <PUBCHEM_HEAVY_ATOM_COUNT>  (1) 
7

>  <PUBCHEM_ATOM_DEF_STEREO_COUNT>  (1) 
0

>  <PUBCHEM_ATOM_UDEF_STEREO_COUNT>  (1) 
0

>  <PUBCHEM_BOND_DEF_STEREO_COUNT>  (1) 
0

>  <PUBCHEM_BOND_UDEF_STEREO_COUNT>  (1) 
0

>  <PUBCHEM_ISOTOPIC_ATOM_COUNT>  (1) 
0

>  <PUBCHEM_COMPONENT_COUNT>  (1) 
1

>  <PUBCHEM_CACTVS_TAUTO_COUNT>  (1) 
1

>  <PUBCHEM_CONFORMER_ID>  (1) 
00009A7200000001

>  <PUBCHEM_MMFF94_ENERGY>  (1) 
2.8891

>  <PUBCHEM_FEATURE_SELFOVERLAP>  (1) 
15.223

>  <PUBCHEM_SHAPE_FINGERPRINT>  (1) 
16714656 1 17619634583541652846
20096714 4 18411703226595779473
21040471 1 17906171003027340832
23552423 10 18334861657665728454
29004967 10 18121225281173208259

>  <PUBCHEM_SHAPE_MULTIPOLES>  (1) 
139.08
2.04
1.83
0.6
0.06
0.44
0
-0.34
0
-0.77
0
-0.01
0.02
0

>  <PUBCHEM_SHAPE_SELFOVERLAP>  (1) 
282.848

>  <PUBCHEM_SHAPE_VOLUME>  (1) 
84.1

>  <PUBCHEM_COORDINATE_TYPE>  (1) 
2
5
10

$$$$
