39535
     RDKit          3D

 19 20  0  0  0  0  0  0  0  0999 V2000
    6.5329    0.8915   -0.3271 O   0  0  0  0  0  0  0  0  0  0  0  0
   -2.6623    0.3254   -0.6481 O   0  0  0  0  0  0  0  0  0  0  0  0
   -0.1525    1.1555   -0.1400 O   0  0  0  0  0  0  0  0  0  0  0  0
    4.1193   -0.5408    0.1463 N   0  0  0  0  0  0  0  0  0  0  0  0
    0.4552   -0.9238    0.7026 N   0  0  0  0  0  0  0  0  0  0  0  0
    4.2319    0.8941    0.4425 C   0  0  0  0  0  0  0  0  0  0  0  0
    5.0225   -0.8998   -0.9557 C   0  0  0  0  0  0  0  0  0  0  0  0
    2.7393   -0.8971   -0.1768 C   0  0  0  0  0  0  0  0  0  0  0  0
    5.6820    1.2444    0.7642 C   0  0  0  0  0  0  0  0  0  0  0  0
    6.4539   -0.5079   -0.6002 C   0  0  0  0  0  0  0  0  0  0  0  0
    1.8411   -0.5999    1.0171 C   0  0  0  0  0  0  0  0  0  0  0  0
   -0.4159   -0.0084    0.1499 C   0  0  0  0  0  0  0  0  0  0  0  0
   -1.7844   -0.6171   -0.0700 C   0  0  0  0  0  0  0  0  0  0  0  0
   -3.9990    0.2034   -0.3500 C   0  0  0  0  0  0  0  0  0  0  0  0
   -4.5278   -1.0516   -0.0821 C   0  0  0  0  0  0  0  0  0  0  0  0
   -4.7991    1.3371   -0.3223 C   0  0  0  0  0  0  0  0  0  0  0  0
   -5.8841   -1.1753    0.2195 C   0  0  0  0  0  0  0  0  0  0  0  0
   -6.1553    1.2133   -0.0205 C   0  0  0  0  0  0  0  0  0  0  0  0
   -6.6977   -0.0430    0.2504 C   0  0  0  0  0  0  0  0  0  0  0  0
  1  9  1  0
  1 10  1  0
  2 13  1  0
  2 14  1  0
  3 12  2  0
  4  6  1  0
  4  7  1  0
  4  8  1  0
  5 11  1  0
  5 12  1  0
  6  9  1  0
  7 10  1  0
  8 11  1  0
 12 13  1  0
 14 15  2  0
 14 16  1  0
 15 17  1  0
 16 18  2  0
 17 19  2  0
 18 19  1  0
M  END
>  <PUBCHEM_COMPOUND_CID>  (1) 
39535

>  <PUBCHEM_CONFORMER_RMSD>  (1) 
0.8

>  <PUBCHEM_CONFORMER_DIVERSEORDER>  (1) 
1
227
120
163
91
125
213
229
8
3
122
155
140
146
226
198
48
216
237
156
119
10
25
94
183
179
58
190
73
40
18
19
243
126
124
83
77
231
208
70
88
7
128
72
103
37
102
111
177
118
15
54
24
162
245
224
13
60
234
38
241
67
214
175
98
21
90
223
87
157
221
193
101
46
2
203
92
167
139
220
66
108
212
64
123
34
62
132
187
79
204
239
168
131
249
144
28
76
233
242
43
170
158
17
31
71
137
160
117
248
85
145
93
180
202
169
30
228
89
114
52
65
32
173
55
20
51
235
210
244
225
149
104
6
57
151
209
35
247
192
11
141
105
130
82
150
207
197
84
50
205
200
86
159
39
186
36
56
115
42
78
53
166
41
95
194
135
47
121
219
81
116
14
174
182
240
49
181
68
129
238
112
133
142
199
246
127
148
196
12
74
96
236
222
161
178
211
218
171
217
99
232
63
188
164
27
80
23
184
136
59
33
61
176
154
75
100
189
22
26
152
201
4
109
107
153
44
29
230
165
45
138
113
106
9
206
143
191
16
134
195
5
110
97
69
215
172
185
147

>  <PUBCHEM_MMFF94_PARTIAL_CHARGES>  (1) 
25
1 -0.56
10 0.28
11 0.3
12 0.57
13 0.34
14 0.08
15 -0.15
16 -0.15
17 -0.15
18 -0.15
19 -0.15
2 -0.36
3 -0.57
32 0.37
35 0.15
36 0.15
37 0.15
38 0.15
39 0.15
4 -0.81
5 -0.73
6 0.27
7 0.27
8 0.27
9 0.28

>  <PUBCHEM_EFFECTIVE_ROTOR_COUNT>  (1) 
8.2

>  <PUBCHEM_PHARMACOPHORE_FEATURES>  (1) 
7
1 1 acceptor
1 2 acceptor
1 3 acceptor
1 4 cation
1 5 donor
6 1 4 6 7 9 10 rings
6 14 15 16 17 18 19 rings

>  <PUBCHEM_HEAVY_ATOM_COUNT>  (1) 
19

>  <PUBCHEM_ATOM_DEF_STEREO_COUNT>  (1) 
0

>  <PUBCHEM_ATOM_UDEF_STEREO_COUNT>  (1) 
0

>  <PUBCHEM_BOND_DEF_STEREO_COUNT>  (1) 
0

>  <PUBCHEM_BOND_UDEF_STEREO_COUNT>  (1) 
0

>  <PUBCHEM_ISOTOPIC_ATOM_COUNT>  (1) 
0

>  <PUBCHEM_COMPONENT_COUNT>  (1) 
1

>  <PUBCHEM_CACTVS_TAUTO_COUNT>  (1) 
2

>  <PUBCHEM_CONFORMER_ID>  (1) 
00009A6F00000001

>  <PUBCHEM_MMFF94_ENERGY>  (1) 
41.3586

>  <PUBCHEM_FEATURE_SELFOVERLAP>  (1) 
35.528

>  <PUBCHEM_SHAPE_FINGERPRINT>  (1) 
10 15 10953746638313319494
10354089 29 14345797150225949646
10638233 991 16200151031855748720
10968037 39 18186801383884677967
11287383 113 18413670227270498306
11315181 36 18408042919108492505
12091667 2 18411700993956584039
12236239 1 18186801357249834339
12516196 113 18342457049520189193
12730499 353 18412829075591106386
13533116 47 15123517965259274358
14123256 10 17530684312034978595
1420 363 18409731767861071499
14251718 22 18410011039841234843
14251732 16 18409729599208425219
14251752 14 17418375770388688170
14251764 18 11312051050338923842
14251764 46 18060137639262845934
14933364 13 18341896289984063113
15183329 4 14836405830512520811
15716309 27 12684812216933260561
17834072 8 14117515450190968495
17834076 25 17676206866325292866
17844677 252 18272375260771378145
18222031 100 12679462002085102434
19377110 9 16443058366279627513
20281389 69 17967810526828837884
21150785 3 17988914592384267493
21267235 1 18335706079218888315
220451 1 17821445746673975475
221357 26 18131633366386343968
2297311 6 18343022177739226881
23035841 295 18411981347435238115
23424782 7 18340488975367572419
23536379 177 18202846543266032987
23559900 14 17632004347125790371
29717793 49 15985109609153632944
300161 21 17676762098771148499
34797466 226 18131637798111832060
4073 2 18260552272494344562
42788 4 18412544305883453451
4325135 7 17603304851683998471
4340502 62 14995999930599766240
4463277 17 18411981355982799185
53794403 172 17896888862101212204
559249 180 10879990259981789149
5758199 1 17676490540230223019
59682541 35 16660651786283739241
59755656 520 17530679931132070178

>  <PUBCHEM_SHAPE_MULTIPOLES>  (1) 
363.44
20.78
1.34
0.83
2.2
0.19
0.04
2.52
-1.51
-0.23
0.02
0.55
-0.05
0.88

>  <PUBCHEM_SHAPE_SELFOVERLAP>  (1) 
741.797

>  <PUBCHEM_SHAPE_VOLUME>  (1) 
209.5

>  <PUBCHEM_COORDINATE_TYPE>  (1) 
2
5
10

$$$$
