3953
     RDKit          3D

 21 23  0  0  0  0  0  0  0  0999 V2000
    4.3031    2.1127    0.7535 Cl  0  0  0  0  0  0  0  0  0  0  0  0
    5.4205   -0.8158    1.5605 Cl  0  0  0  0  0  0  0  0  0  0  0  0
   -2.9435   -3.1760    0.2083 O   0  0  0  0  0  0  0  0  0  0  0  0
   -4.2784   -1.6662    1.2394 O   0  0  0  0  0  0  0  0  0  0  0  0
   -0.6926   -0.1918   -1.0384 N   0  0  0  0  0  0  0  0  0  0  0  0
   -1.3200   -1.3358   -0.7182 N   0  0  0  0  0  0  0  0  0  0  0  0
   -1.2883    0.9341   -0.5371 C   0  0  0  0  0  0  0  0  0  0  0  0
    0.5038   -0.2481   -1.8464 C   0  0  0  0  0  0  0  0  0  0  0  0
   -2.3970    0.4789    0.1677 C   0  0  0  0  0  0  0  0  0  0  0  0
    1.7371   -0.3739   -0.9936 C   0  0  0  0  0  0  0  0  0  0  0  0
   -2.3565   -0.9239    0.0154 C   0  0  0  0  0  0  0  0  0  0  0  0
   -0.9544    2.2862   -0.6410 C   0  0  0  0  0  0  0  0  0  0  0  0
   -3.2319    1.4072    0.8116 C   0  0  0  0  0  0  0  0  0  0  0  0
   -1.7948    3.1982    0.0058 C   0  0  0  0  0  0  0  0  0  0  0  0
    2.3859    0.7728   -0.5561 C   0  0  0  0  0  0  0  0  0  0  0  0
    2.2086   -1.6348   -0.6543 C   0  0  0  0  0  0  0  0  0  0  0  0
   -2.9149    2.7683    0.7199 C   0  0  0  0  0  0  0  0  0  0  0  0
   -3.2759   -1.8911    0.5464 C   0  0  0  0  0  0  0  0  0  0  0  0
    3.5282    0.6563    0.2360 C   0  0  0  0  0  0  0  0  0  0  0  0
    3.3507   -1.7513    0.1377 C   0  0  0  0  0  0  0  0  0  0  0  0
    4.0105   -0.6059    0.5829 C   0  0  0  0  0  0  0  0  0  0  0  0
  1 19  1  0
  2 21  1  0
  3 18  1  0
  4 18  2  0
  5  6  1  0
  5  7  1  0
  5  8  1  0
  6 11  2  0
  7  9  2  0
  7 12  1  0
  8 10  1  0
  9 11  1  0
  9 13  1  0
 10 15  2  0
 10 16  1  0
 11 18  1  0
 12 14  2  0
 13 17  2  0
 14 17  1  0
 15 19  1  0
 16 20  2  0
 19 21  2  0
 20 21  1  0
M  END
>  <PUBCHEM_COMPOUND_CID>  (1) 
3953

>  <PUBCHEM_CONFORMER_RMSD>  (1) 
0.6

>  <PUBCHEM_CONFORMER_DIVERSEORDER>  (1) 
1
14
11
34
24
21
10
13
17
31
16
23
22
18
9
15
19
36
35
20
33
28
6
27
2
5
12
32
3
30
29
4
26
25
7
8

>  <PUBCHEM_MMFF94_PARTIAL_CHARGES>  (1) 
28
1 -0.18
10 -0.14
11 0.2
12 -0.15
13 -0.15
14 -0.15
15 -0.15
16 -0.15
17 -0.15
18 0.81
19 0.18
2 -0.18
20 -0.15
21 0.18
24 0.15
25 0.15
26 0.15
27 0.15
28 0.15
29 0.15
3 -0.65
30 0.15
31 0.5
4 -0.57
5 0.31
6 -0.71
7 -0.15
8 0.4

>  <PUBCHEM_EFFECTIVE_ROTOR_COUNT>  (1) 
3

>  <PUBCHEM_PHARMACOPHORE_FEATURES>  (1) 
7
1 3 acceptor
1 4 acceptor
1 6 acceptor
3 3 4 18 anion
5 5 6 7 9 11 rings
6 10 15 16 19 20 21 rings
6 7 9 12 13 14 17 rings

>  <PUBCHEM_HEAVY_ATOM_COUNT>  (1) 
21

>  <PUBCHEM_ATOM_DEF_STEREO_COUNT>  (1) 
0

>  <PUBCHEM_ATOM_UDEF_STEREO_COUNT>  (1) 
0

>  <PUBCHEM_BOND_DEF_STEREO_COUNT>  (1) 
0

>  <PUBCHEM_BOND_UDEF_STEREO_COUNT>  (1) 
0

>  <PUBCHEM_ISOTOPIC_ATOM_COUNT>  (1) 
0

>  <PUBCHEM_COMPONENT_COUNT>  (1) 
1

>  <PUBCHEM_CACTVS_TAUTO_COUNT>  (1) 
1

>  <PUBCHEM_CONFORMER_ID>  (1) 
00000F7100000001

>  <PUBCHEM_MMFF94_ENERGY>  (1) 
43.4023

>  <PUBCHEM_FEATURE_SELFOVERLAP>  (1) 
35.683

>  <PUBCHEM_SHAPE_FINGERPRINT>  (1) 
10319926 262 18268424647359046666
10366900 7 18342170081501489270
11036077 4 18116699721605010914
11552529 35 18409438202905188362
11578080 2 17604138341759686821
12251169 10 18337672997345054564
12363563 72 15213012769730662654
12403814 3 18059851809421477295
12507560 40 18130787807294585038
12553582 1 18122366802372348967
12633257 1 18336260129346042280
12788726 201 18189920732189137043
12892183 10 18410565206945134554
13004483 165 18339634659370448303
13083527 12 17981892148935322087
13103583 49 18116138979813217666
13140716 1 18339648832303114988
13583140 156 18130493168190137290
13675066 3 17988915649046669378
14081887 123 18412267250370068259
14178342 30 18262237716434752574
14223421 5 18413111645377743612
14289901 80 18335146409813262288
14341114 176 18409167693243208826
14420673 8 17977104553281364426
14787075 74 17755299311977913446
15209289 33 17676771955562948162
15295992 7 17631159801936684288
15806764 133 17702688556973267836
17780758 139 18189320313215429818
20361792 2 15936419913743701118
20681677 274 18335131025382767872
21033648 29 17416944181176073786
21065198 57 18339923702079112162
21065199 12 18341330011805585826
21421861 104 17974034991530321473
21650355 55 18409168822613931237
21731228 192 18051981316200791581
21756936 100 18057877130200093900
21864079 5 18060128886742463124
23366157 5 17469053606392197253
23402655 69 10303820899586947626
23419403 2 17974829959975305197
23557571 272 18200892706808456063
23559900 14 18055090777981029342
266924 78 14547349601296988485
27216 239 17917137321507209160
312423 11 18186809088765752980
392239 28 18120935276786918088
49207404 50 18131072614949314654
5104073 3 18339068325414879944
5283173 99 18189034470320334909
58807428 26 17904779786412174641
6049 1 17773337667714882750
7097593 13 18117555128966952346
81228 2 18265640739630143207
90316 7 18336560360460894965
9709674 26 18271244898319558238
9981440 41 17559095589180073090

>  <PUBCHEM_SHAPE_MULTIPOLES>  (1) 
414.21
9.21
3.27
1.27
7.67
0.69
-0.12
-1.19
5.02
-3.15
0.59
0.41
-0.15
0.39

>  <PUBCHEM_SHAPE_SELFOVERLAP>  (1) 
895.603

>  <PUBCHEM_SHAPE_VOLUME>  (1) 
230

>  <PUBCHEM_COORDINATE_TYPE>  (1) 
2
5
10

$$$$
