39539
     RDKit          3D

  7  7  0  0  0  0  0  0  0  0999 V2000
    0.6986    1.1350   -0.0001 N   0  0  0  0  0  0  0  0  0  0  0  0
    1.1154   -0.1705   -0.0005 C   0  0  0  0  0  0  0  0  0  0  0  0
   -1.1357   -0.1172    0.0000 C   0  0  0  0  0  0  0  0  0  0  0  0
   -0.0054   -0.9713   -0.0004 C   0  0  0  0  0  0  0  0  0  0  0  0
   -0.6713    1.1796    0.0001 C   0  0  0  0  0  0  0  0  0  0  0  0
    2.5485   -0.5180    0.0006 C   0  0  0  0  0  0  0  0  0  0  0  0
   -2.5501   -0.5376    0.0003 C   0  0  0  0  0  0  0  0  0  0  0  0
  1  2  1  0
  1  5  1  0
  2  4  2  0
  2  6  1  0
  3  4  1  0
  3  5  2  0
  3  7  1  0
M  END
>  <PUBCHEM_COMPOUND_CID>  (1) 
39539

>  <PUBCHEM_CONFORMER_RMSD>  (1) 
0.4

>  <PUBCHEM_CONFORMER_DIVERSEORDER>  (1) 
1

>  <PUBCHEM_MMFF94_PARTIAL_CHARGES>  (1) 
10
1 0.03
10 0.15
2 -0.33
3 -0.18
4 -0.15
5 -0.3
6 0.18
7 0.18
8 0.15
9 0.27

>  <PUBCHEM_EFFECTIVE_ROTOR_COUNT>  (1) 
0

>  <PUBCHEM_PHARMACOPHORE_FEATURES>  (1) 
3
1 1 cation
1 1 donor
5 1 2 3 4 5 rings

>  <PUBCHEM_HEAVY_ATOM_COUNT>  (1) 
7

>  <PUBCHEM_ATOM_DEF_STEREO_COUNT>  (1) 
0

>  <PUBCHEM_ATOM_UDEF_STEREO_COUNT>  (1) 
0

>  <PUBCHEM_BOND_DEF_STEREO_COUNT>  (1) 
0

>  <PUBCHEM_BOND_UDEF_STEREO_COUNT>  (1) 
0

>  <PUBCHEM_ISOTOPIC_ATOM_COUNT>  (1) 
0

>  <PUBCHEM_COMPONENT_COUNT>  (1) 
1

>  <PUBCHEM_CACTVS_TAUTO_COUNT>  (1) 
1

>  <PUBCHEM_CONFORMER_ID>  (1) 
00009A7300000001

>  <PUBCHEM_MMFF94_ENERGY>  (1) 
2.6689

>  <PUBCHEM_FEATURE_SELFOVERLAP>  (1) 
15.223

>  <PUBCHEM_SHAPE_FINGERPRINT>  (1) 
10857977 72 18340474630102515730
16714656 1 18412546491984942414
21040471 1 18050287273535032673
23552423 10 18044383720960075302
29004967 10 18410577296603040947
5460574 1 9295289443260544994

>  <PUBCHEM_SHAPE_MULTIPOLES>  (1) 
139.08
3.02
1.18
0.6
0.17
0.25
0
-0.84
0
-0.07
0
-0.01
-0.01
0

>  <PUBCHEM_SHAPE_SELFOVERLAP>  (1) 
282.33

>  <PUBCHEM_SHAPE_VOLUME>  (1) 
84.4

>  <PUBCHEM_COORDINATE_TYPE>  (1) 
2
5
10

$$$$
