39545
     RDKit          3D

 20 21  0  0  1  0  0  0  0  0999 V2000
    0.8989    1.5849   -0.3695 O   0  0  0  0  0  0  0  0  0  0  0  0
   -3.6498    0.0122   -0.0683 N   0  0  0  0  0  0  0  0  0  0  0  0
    1.4065   -0.7788   -0.7216 C   0  0  0  0  0  0  0  0  0  0  0  0
    3.6085   -0.3813   -0.7819 C   0  0  0  0  0  0  0  0  0  0  0  0
    3.1167    0.7028    0.2400 C   0  0  0  0  0  0  0  0  0  0  0  0
    1.5523    0.4571    0.2373 C   0  0  0  0  0  0  0  0  0  0  0  0
    2.4573   -0.4483   -1.7947 C   0  0  0  0  0  0  0  0  0  0  0  0
    2.0242   -2.0546   -0.0972 C   0  0  0  0  0  0  0  0  0  0  0  0
    3.5325   -1.8015   -0.1951 C   0  0  0  0  0  0  0  0  0  0  0  0
    0.0159   -1.0214   -1.2871 C   0  0  0  0  0  0  0  0  0  0  0  0
    0.8947    0.2835    1.6085 C   0  0  0  0  0  0  0  0  0  0  0  0
    3.7910    0.5592    1.6167 C   0  0  0  0  0  0  0  0  0  0  0  0
    3.5073    2.1041   -0.2884 C   0  0  0  0  0  0  0  0  0  0  0  0
   -0.5432    0.0468    1.4708 C   0  0  0  0  0  0  0  0  0  0  0  0
   -1.7241   -0.1480    1.3679 C   0  0  0  0  0  0  0  0  0  0  0  0
   -3.1649   -0.3886    1.2462 C   0  0  0  0  0  0  0  0  0  0  0  0
   -3.4047    1.4376   -0.2964 C   0  0  0  0  0  0  0  0  0  0  0  0
   -5.0770   -0.2850   -0.2048 C   0  0  0  0  0  0  0  0  0  0  0  0
   -3.8964    1.8650   -1.6412 C   0  0  0  0  0  0  0  0  0  0  0  0
   -5.3458   -1.7459   -0.0413 C   0  0  0  0  0  0  0  0  0  0  0  0
  1  6  1  0
  2 16  1  0
  2 17  1  0
  2 18  1  0
  3  6  1  0
  3  7  1  0
  3  8  1  0
  3 10  1  0
  4  5  1  0
  4  7  1  0
  4  9  1  0
  5  6  1  0
  5 12  1  0
  5 13  1  0
  6 11  1  0
  8  9  1  0
 11 14  1  0
 14 15  3  0
 15 16  1  0
 17 19  1  0
 18 20  1  0
M  END
>  <PUBCHEM_COMPOUND_CID>  (1) 
39545

>  <PUBCHEM_CONFORMER_RMSD>  (1) 
0.8

>  <PUBCHEM_CONFORMER_DIVERSEORDER>  (1) 
2
1
16
9
14
4
12
3
15
5
13
8
7
10
6
11

>  <PUBCHEM_MMFF94_PARTIAL_CHARGES>  (1) 
10
1 -0.68
11 0.2
14 -0.2
15 -0.2
16 0.47
17 0.27
18 0.27
2 -0.81
39 0.4
6 0.28

>  <PUBCHEM_EFFECTIVE_ROTOR_COUNT>  (1) 
5

>  <PUBCHEM_PHARMACOPHORE_FEATURES>  (1) 
5
1 1 acceptor
1 1 donor
1 2 cation
3 5 12 13 hydrophobe
7 3 4 5 6 7 8 9 rings

>  <PUBCHEM_HEAVY_ATOM_COUNT>  (1) 
20

>  <PUBCHEM_ATOM_DEF_STEREO_COUNT>  (1) 
0

>  <PUBCHEM_ATOM_UDEF_STEREO_COUNT>  (1) 
3

>  <PUBCHEM_BOND_DEF_STEREO_COUNT>  (1) 
0

>  <PUBCHEM_BOND_UDEF_STEREO_COUNT>  (1) 
0

>  <PUBCHEM_ISOTOPIC_ATOM_COUNT>  (1) 
0

>  <PUBCHEM_COMPONENT_COUNT>  (1) 
1

>  <PUBCHEM_CACTVS_TAUTO_COUNT>  (1) 
1

>  <PUBCHEM_CONFORMER_ID>  (1) 
00009A7900000002

>  <PUBCHEM_MMFF94_ENERGY>  (1) 
78.0925

>  <PUBCHEM_FEATURE_SELFOVERLAP>  (1) 
25.371

>  <PUBCHEM_SHAPE_FINGERPRINT>  (1) 
10498660 4 17604139338582255013
10646746 165 17749109980357279336
10759866 29 18201441440578798974
11370993 70 18334295379166062955
12553582 1 15697998539912379641
12670546 177 18338800125759963905
12670546 56 17240473719509905841
128620 24 17203610393476423393
12916748 109 17458350745163616369
13224815 77 17060341799225919459
13583140 156 18335427893084911354
14251764 38 17967816089054820517
14787075 74 15769477769380685066
15375462 189 15697999626412433523
15537594 2 15410900677938213061
15788980 27 18335986393552135323
15961568 22 17677898013883161828
16945 1 17839787787501974378
17349148 13 16081089294735639987
18186145 218 18271255932074626179
19433438 38 18411138013685203567
200 152 17632016351369504153
20261772 1 14692574321195776895
20645477 70 18202291281541682262
21864079 5 16081663170943548381
22393880 68 18339083683522013399
22646028 28 16558754477512622115
235170 7 18411698786121640365
23557571 272 18335413587181734185
23559900 14 18261955116345253122
3268164 11 17894906335424711719
351380 180 18040994072740451413
4340502 62 17917424380373824266
5104073 3 17560809805550211427
5161694 15 18116441340751690503
5281201 14 18409172090883771885
5895379 119 17095813130838365500
633830 44 16443641081798859727

>  <PUBCHEM_SHAPE_MULTIPOLES>  (1) 
400.74
9.97
1.92
1.63
11.46
0.06
-0.11
-0.55
1.08
-0.26
0.54
-0.09
0.21
1.13

>  <PUBCHEM_SHAPE_SELFOVERLAP>  (1) 
821.162

>  <PUBCHEM_SHAPE_VOLUME>  (1) 
237.8

>  <PUBCHEM_COORDINATE_TYPE>  (1) 
2
5
10

$$$$
