39541
     RDKit          3D

 10 11  0  0  1  0  0  0  0  0999 V2000
    1.4128   -0.8083   -0.5619 C   0  0  0  0  0  0  0  0  0  0  0  0
    0.4453    1.2701   -0.0568 C   0  0  0  0  0  0  0  0  0  0  0  0
    1.2781    0.5971   -1.1487 C   0  0  0  0  0  0  0  0  0  0  0  0
    1.8060   -0.5229    0.8974 C   0  0  0  0  0  0  0  0  0  0  0  0
    1.1820    0.8433    1.2259 C   0  0  0  0  0  0  0  0  0  0  0  0
    0.0478   -1.5230   -0.6550 C   0  0  0  0  0  0  0  0  0  0  0  0
   -0.9754    0.7203   -0.0897 C   0  0  0  0  0  0  0  0  0  0  0  0
   -1.0889   -0.7414   -0.0209 C   0  0  0  0  0  0  0  0  0  0  0  0
   -2.0306    1.5407   -0.2214 C   0  0  0  0  0  0  0  0  0  0  0  0
   -2.0771   -1.3757    0.6312 C   0  0  0  0  0  0  0  0  0  0  0  0
  1  3  1  0
  1  4  1  0
  1  6  1  0
  2  3  1  0
  2  5  1  0
  2  7  1  0
  4  5  1  0
  6  8  1  0
  7  8  1  0
  7  9  2  0
  8 10  2  0
M  END
>  <PUBCHEM_COMPOUND_CID>  (1) 
39541

>  <PUBCHEM_CONFORMER_RMSD>  (1) 
0.4

>  <PUBCHEM_CONFORMER_DIVERSEORDER>  (1) 
1
2

>  <PUBCHEM_MMFF94_PARTIAL_CHARGES>  (1) 
10
10 -0.3
2 0.14
21 0.15
22 0.15
23 0.15
24 0.15
6 0.14
7 -0.14
8 -0.14
9 -0.3

>  <PUBCHEM_EFFECTIVE_ROTOR_COUNT>  (1) 
0.8

>  <PUBCHEM_PHARMACOPHORE_FEATURES>  (1) 
1
8 1 2 3 4 5 6 7 8 rings

>  <PUBCHEM_HEAVY_ATOM_COUNT>  (1) 
10

>  <PUBCHEM_ATOM_DEF_STEREO_COUNT>  (1) 
0

>  <PUBCHEM_ATOM_UDEF_STEREO_COUNT>  (1) 
2

>  <PUBCHEM_BOND_DEF_STEREO_COUNT>  (1) 
0

>  <PUBCHEM_BOND_UDEF_STEREO_COUNT>  (1) 
0

>  <PUBCHEM_ISOTOPIC_ATOM_COUNT>  (1) 
0

>  <PUBCHEM_COMPONENT_COUNT>  (1) 
1

>  <PUBCHEM_CACTVS_TAUTO_COUNT>  (1) 
1

>  <PUBCHEM_CONFORMER_ID>  (1) 
00009A7500000001

>  <PUBCHEM_MMFF94_ENERGY>  (1) 
25.9532

>  <PUBCHEM_FEATURE_SELFOVERLAP>  (1) 
5.074

>  <PUBCHEM_SHAPE_FINGERPRINT>  (1) 
12423570 1 11010859223075899044
13024252 1 13556767633992718472
137420 1 16197359178569793704
16945 1 18047759204250170446
18185500 45 17403160994676751998
21040471 1 18193558869930857333
21922407 69 16950564432067940793
241688 4 16609147010583875394
2748010 2 18413671305138354796
29004967 10 17346604023736105422
5084963 1 18130798905052188783
68250623 7 17968111827675046332

>  <PUBCHEM_SHAPE_MULTIPOLES>  (1) 
205.8
2.52
1.74
1.1
0.7
0.03
0.08
0.07
0.33
0.63
-0.07
-0.45
-0.03
0.27

>  <PUBCHEM_SHAPE_SELFOVERLAP>  (1) 
433.236

>  <PUBCHEM_SHAPE_VOLUME>  (1) 
111.9

>  <PUBCHEM_COORDINATE_TYPE>  (1) 
2
5
10

$$$$
