39544
     RDKit          3D

 19 21  0  0  0  0  0  0  0  0999 V2000
    3.5055   -1.5533   -0.5832 O   0  0  0  0  0  0  0  0  0  0  0  0
   -0.6719    0.3191    1.6282 O   0  0  0  0  0  0  0  0  0  0  0  0
   -2.7591   -0.4276    0.2763 N   0  0  0  0  0  0  0  0  0  0  0  0
    0.8382   -0.7897    0.2059 N   0  0  0  0  0  0  0  0  0  0  0  0
   -2.5570    0.8169   -0.4788 C   0  0  0  0  0  0  0  0  0  0  0  0
   -3.9617   -1.1375   -0.1816 C   0  0  0  0  0  0  0  0  0  0  0  0
   -3.7587    1.7517   -0.3335 C   0  0  0  0  0  0  0  0  0  0  0  0
   -5.2094   -0.2665   -0.0263 C   0  0  0  0  0  0  0  0  0  0  0  0
   -5.0516    1.0628   -0.7554 C   0  0  0  0  0  0  0  0  0  0  0  0
   -1.5827   -1.2899    0.1657 C   0  0  0  0  0  0  0  0  0  0  0  0
   -0.4279   -0.4985    0.7389 C   0  0  0  0  0  0  0  0  0  0  0  0
    1.1737   -2.1196   -0.3256 C   0  0  0  0  0  0  0  0  0  0  0  0
    1.9041    0.1761    0.1071 C   0  0  0  0  0  0  0  0  0  0  0  0
    2.6042   -2.4789    0.0147 C   0  0  0  0  0  0  0  0  0  0  0  0
    3.1851   -0.2474   -0.3015 C   0  0  0  0  0  0  0  0  0  0  0  0
    1.7240    1.5474    0.3460 C   0  0  0  0  0  0  0  0  0  0  0  0
    4.2341    0.6644   -0.4714 C   0  0  0  0  0  0  0  0  0  0  0  0
    2.7789    2.4552    0.1916 C   0  0  0  0  0  0  0  0  0  0  0  0
    4.0321    2.0154   -0.2171 C   0  0  0  0  0  0  0  0  0  0  0  0
  1 14  1  0
  1 15  1  0
  2 11  2  0
  3  5  1  0
  3  6  1  0
  3 10  1  0
  4 11  1  0
  4 12  1  0
  4 13  1  0
  5  7  1  0
  6  8  1  0
  7  9  1  0
  8  9  1  0
 10 11  1  0
 12 14  1  0
 13 15  2  0
 13 16  1  0
 15 17  1  0
 16 18  2  0
 17 19  2  0
 18 19  1  0
M  END
>  <PUBCHEM_COMPOUND_CID>  (1) 
39544

>  <PUBCHEM_CONFORMER_RMSD>  (1) 
0.6

>  <PUBCHEM_CONFORMER_DIVERSEORDER>  (1) 
2
19
11
30
9
24
20
10
29
12
21
1
23
16
15
25
4
3
13
5
6
14
7
26
8
28
17
22
18
27

>  <PUBCHEM_MMFF94_PARTIAL_CHARGES>  (1) 
20
1 -0.36
10 0.33
11 0.57
12 0.3
13 0.12
14 0.28
15 0.08
16 -0.15
17 -0.15
18 -0.15
19 -0.15
2 -0.57
3 -0.81
36 0.15
37 0.15
38 0.15
39 0.15
4 -0.48
5 0.27
6 0.27

>  <PUBCHEM_EFFECTIVE_ROTOR_COUNT>  (1) 
5

>  <PUBCHEM_PHARMACOPHORE_FEATURES>  (1) 
6
1 1 acceptor
1 2 acceptor
1 3 cation
6 1 4 12 13 14 15 rings
6 13 15 16 17 18 19 rings
6 3 5 6 7 8 9 rings

>  <PUBCHEM_HEAVY_ATOM_COUNT>  (1) 
19

>  <PUBCHEM_ATOM_DEF_STEREO_COUNT>  (1) 
0

>  <PUBCHEM_ATOM_UDEF_STEREO_COUNT>  (1) 
0

>  <PUBCHEM_BOND_DEF_STEREO_COUNT>  (1) 
0

>  <PUBCHEM_BOND_UDEF_STEREO_COUNT>  (1) 
0

>  <PUBCHEM_ISOTOPIC_ATOM_COUNT>  (1) 
0

>  <PUBCHEM_COMPONENT_COUNT>  (1) 
1

>  <PUBCHEM_CACTVS_TAUTO_COUNT>  (1) 
1

>  <PUBCHEM_CONFORMER_ID>  (1) 
00009A7800000002

>  <PUBCHEM_MMFF94_ENERGY>  (1) 
53.0336

>  <PUBCHEM_FEATURE_SELFOVERLAP>  (1) 
30.478

>  <PUBCHEM_SHAPE_FINGERPRINT>  (1) 
10498660 4 17822842092577443421
10608611 8 18408041822768134401
10646746 165 18259703423573330324
10693767 8 17988088781927656974
11370993 70 18410290358464904894
11471102 20 18412265025766880390
11595378 159 16153979162972428317
116883 192 18053666867631576324
12403259 415 18196941178483908696
12670546 177 18059573633042960335
12730499 353 18336273417732204483
12769317 202 18200305653799932096
12788726 201 17131282246864773897
13009979 54 17415289329913291706
13081056 2 18335421266387852989
14415576 193 18409450301516376652
15196674 1 18409166597815785613
15536298 74 18409728456757804029
15961568 22 17604151531340606108
16752209 62 16415483701476637459
17959699 21 18409167705737986849
18186145 218 18272379671539000939
19862831 5 17703794742457923297
200 152 17917994970667772553
20612939 158 18412266107993085459
20645477 56 18187366545340022851
20645477 70 18273220776575730646
221357 26 18412542085633684277
221490 88 18410300211125494547
22289505 5 18410289173138483428
22393880 68 18342461482147887678
23227448 37 18340485685512112919
23402655 69 18342739619634166237
23557571 272 17678187181578224795
23559900 14 18341326691500843778
25 1 18408884057634230018
3060560 45 18272937115909046470
3545911 37 18408044030771779693
4028521 119 18186794777898150189
4072396 5 18410281516055391296
4280585 95 17482568394977888702
474 4 17603871138800524613
495365 180 18200866379149710928
5104073 3 18334014969572649339
5281201 14 18410858728840938941
5312625 73 18339079393255496011
543358 83 18341055099137794962
58051976 378 18343301474307714486
633830 44 18334566907377908351
77779 3 18410573968536084471
8272917 22 18342743996243011118
9709674 26 18408889555145389875

>  <PUBCHEM_SHAPE_MULTIPOLES>  (1) 
369.31
10.29
2.5
0.84
8.58
0.1
0.15
-3.12
-2.22
-2.15
-0.17
0.12
-0.05
0.54

>  <PUBCHEM_SHAPE_SELFOVERLAP>  (1) 
780.59

>  <PUBCHEM_SHAPE_VOLUME>  (1) 
205.6

>  <PUBCHEM_COORDINATE_TYPE>  (1) 
2
5
10

$$$$
