39542
     RDKit          3D

 14 13  0  0  0  0  0  0  0  0999 V2000
   -0.0077   -2.4710   -1.7888 N   0  0  0  0  0  0  0  0  0  0  0  0
    0.0015   -1.1365    0.4940 C   0  0  0  0  0  0  0  0  0  0  0  0
    0.8949    0.1290    0.3626 C   0  0  0  0  0  0  0  0  0  0  0  0
   -1.4597   -0.7415    0.8643 C   0  0  0  0  0  0  0  0  0  0  0  0
    2.3791   -0.1385    0.0634 C   0  0  0  0  0  0  0  0  0  0  0  0
   -2.1683    0.1955   -0.1269 C   0  0  0  0  0  0  0  0  0  0  0  0
    0.5217   -2.0746    1.6020 C   0  0  0  0  0  0  0  0  0  0  0  0
    3.2226    1.1407    0.0010 C   0  0  0  0  0  0  0  0  0  0  0  0
   -3.5677    0.5678    0.3742 C   0  0  0  0  0  0  0  0  0  0  0  0
   -0.0040   -1.8854   -0.7868 C   0  0  0  0  0  0  0  0  0  0  0  0
    4.7145    0.8782   -0.2093 C   0  0  0  0  0  0  0  0  0  0  0  0
   -4.3300    1.4852   -0.5845 C   0  0  0  0  0  0  0  0  0  0  0  0
    5.5133    2.1727   -0.1844 C   0  0  0  0  0  0  0  0  0  0  0  0
   -5.7102    1.8783   -0.0809 C   0  0  0  0  0  0  0  0  0  0  0  0
  1 10  3  0
  2  3  1  0
  2  4  1  0
  2  7  1  0
  2 10  1  0
  3  5  1  0
  4  6  1  0
  5  8  1  0
  6  9  1  0
  8 11  1  0
  9 12  1  0
 11 13  1  0
 12 14  1  0
M  END
>  <PUBCHEM_COMPOUND_CID>  (1) 
39542

>  <PUBCHEM_CONFORMER_RMSD>  (1) 
0.8

>  <PUBCHEM_CONFORMER_DIVERSEORDER>  (1) 
1
10
69
98
24
36
63
62
67
2
102
9
82
48
97
22
84
45
75
17
12
91
38
77
35
100
26
74
65
55
29
88
4
53
99
96
101
71
21
28
66
95
85
6
30
94
59
79
13
40
57
76
3
32
93
54
81
5
25
86
87
43
56
19
60
89
15
41
23
92
70
39
14
33
37
80
34
90
47
58
50
61
52
8
64
78
51
49
83
46
31
72
73
44
27
18
20
11
68
42
16
7

>  <PUBCHEM_MMFF94_PARTIAL_CHARGES>  (1) 
3
1 -0.56
10 0.36
2 0.2

>  <PUBCHEM_EFFECTIVE_ROTOR_COUNT>  (1) 
8

>  <PUBCHEM_PHARMACOPHORE_FEATURES>  (1) 
4
1 1 acceptor
1 13 hydrophobe
1 14 hydrophobe
1 7 hydrophobe

>  <PUBCHEM_HEAVY_ATOM_COUNT>  (1) 
14

>  <PUBCHEM_ATOM_DEF_STEREO_COUNT>  (1) 
0

>  <PUBCHEM_ATOM_UDEF_STEREO_COUNT>  (1) 
0

>  <PUBCHEM_BOND_DEF_STEREO_COUNT>  (1) 
0

>  <PUBCHEM_BOND_UDEF_STEREO_COUNT>  (1) 
0

>  <PUBCHEM_ISOTOPIC_ATOM_COUNT>  (1) 
0

>  <PUBCHEM_COMPONENT_COUNT>  (1) 
1

>  <PUBCHEM_CACTVS_TAUTO_COUNT>  (1) 
1

>  <PUBCHEM_CONFORMER_ID>  (1) 
00009A7600000001

>  <PUBCHEM_MMFF94_ENERGY>  (1) 
9.7324

>  <PUBCHEM_FEATURE_SELFOVERLAP>  (1) 
20.297

>  <PUBCHEM_SHAPE_FINGERPRINT>  (1) 
10014705 185 18199188576193407840
100836 57 18261115170580954360
10756046 70 18197192794658469582
122479 349 18262240035811752064
12500047 106 18059294396123778294
12555020 224 17417550055064260950
12616999 72 17845925218337123807
12892183 10 15213287587255090513
14123255 352 18407761443061338473
14252887 29 12540692591950830056
15061688 2 18409451388079759878
167882 2 18200883881342285670
17539 30 17627498664281727438
17834072 32 18334579091804858444
18186145 218 16988559143045311803
187816 3 16702028599116926522
200 152 13829865637996469840
20374829 77 11455896840643557601
20473742 2 18197782107026000862
20621476 66 18260552277396025100
20645477 56 17986118619960951618
20723712 36 16805332093134000454
20871999 31 17774713289884026591
21524375 3 18410012147631573833
23402539 116 18202278134694327060
23402655 69 18201718444462769149
2838139 119 18335975402572998180
2916195 48 18337672022266457872
293599 30 18408041827343144312
298252 57 18272931639366833826
3060560 45 17846205623408015965
449060 62 18336261245910925553
633830 44 18334008372049669006
77188 2 17251729170957049218
81539 233 18337671914833980175
9999458 23 17823417102382482210

>  <PUBCHEM_SHAPE_MULTIPOLES>  (1) 
283.13
10.83
2.59
1.14
0.44
0.61
-0.18
-13.58
-0.79
-0.32
-0.38
0.09
0.96
0.03

>  <PUBCHEM_SHAPE_SELFOVERLAP>  (1) 
517.567

>  <PUBCHEM_SHAPE_VOLUME>  (1) 
179.7

>  <PUBCHEM_COORDINATE_TYPE>  (1) 
2
5
10

$$$$
