39549
     RDKit          3D

 20 22  0  0  1  0  0  0  0  0999 V2000
    0.6720   -0.0799   -1.5440 O   0  0  0  0  0  0  0  0  0  0  0  0
   -3.9683    0.2620   -0.2110 N   0  0  0  0  0  0  0  0  0  0  0  0
    2.8255    0.4164   -0.4609 C   0  0  0  0  0  0  0  0  0  0  0  0
    3.1757   -1.0666   -0.0766 C   0  0  0  0  0  0  0  0  0  0  0  0
    2.4145   -0.9367    1.2665 C   0  0  0  0  0  0  0  0  0  0  0  0
    1.2555    0.4546   -0.3538 C   0  0  0  0  0  0  0  0  0  0  0  0
    0.9888   -0.4927    0.8438 C   0  0  0  0  0  0  0  0  0  0  0  0
    3.4130    1.1988    0.7491 C   0  0  0  0  0  0  0  0  0  0  0  0
    3.0794    0.2858    1.9405 C   0  0  0  0  0  0  0  0  0  0  0  0
    3.3828    0.9020   -1.7898 C   0  0  0  0  0  0  0  0  0  0  0  0
    4.6684   -1.4192    0.0819 C   0  0  0  0  0  0  0  0  0  0  0  0
    2.6046   -2.1481   -1.0223 C   0  0  0  0  0  0  0  0  0  0  0  0
    0.6205    1.8325   -0.1583 C   0  0  0  0  0  0  0  0  0  0  0  0
   -0.8316    1.7218   -0.0078 C   0  0  0  0  0  0  0  0  0  0  0  0
   -2.0236    1.6403    0.1168 C   0  0  0  0  0  0  0  0  0  0  0  0
   -3.4781    1.5446    0.2715 C   0  0  0  0  0  0  0  0  0  0  0  0
   -5.4182    0.1304   -0.0722 C   0  0  0  0  0  0  0  0  0  0  0  0
   -3.4115   -0.8654    0.5361 C   0  0  0  0  0  0  0  0  0  0  0  0
   -5.6436   -1.3630   -0.2563 C   0  0  0  0  0  0  0  0  0  0  0  0
   -4.3259   -2.0177    0.1469 C   0  0  0  0  0  0  0  0  0  0  0  0
  1  6  1  0
  2 16  1  0
  2 17  1  0
  2 18  1  0
  3  4  1  0
  3  6  1  0
  3  8  1  0
  3 10  1  0
  4  5  1  0
  4 11  1  0
  4 12  1  0
  5  7  1  0
  5  9  1  0
  6  7  1  0
  6 13  1  0
  8  9  1  0
 13 14  1  0
 14 15  3  0
 15 16  1  0
 17 19  1  0
 18 20  1  0
 19 20  1  0
M  END
>  <PUBCHEM_COMPOUND_CID>  (1) 
39549

>  <PUBCHEM_CONFORMER_RMSD>  (1) 
0.6

>  <PUBCHEM_CONFORMER_DIVERSEORDER>  (1) 
6
33
19
24
30
11
13
31
18
26
36
32
15
9
20
34
35
22
27
25
14
8
10
3
23
21
5
28
16
4
12
17
29
7
1
2

>  <PUBCHEM_MMFF94_PARTIAL_CHARGES>  (1) 
10
1 -0.68
13 0.2
14 -0.2
15 -0.2
16 0.47
17 0.27
18 0.27
2 -0.81
39 0.4
6 0.28

>  <PUBCHEM_EFFECTIVE_ROTOR_COUNT>  (1) 
4

>  <PUBCHEM_PHARMACOPHORE_FEATURES>  (1) 
6
1 1 acceptor
1 1 donor
1 2 cation
3 4 11 12 hydrophobe
5 2 17 18 19 20 rings
7 3 4 5 6 7 8 9 rings

>  <PUBCHEM_HEAVY_ATOM_COUNT>  (1) 
20

>  <PUBCHEM_ATOM_DEF_STEREO_COUNT>  (1) 
0

>  <PUBCHEM_ATOM_UDEF_STEREO_COUNT>  (1) 
3

>  <PUBCHEM_BOND_DEF_STEREO_COUNT>  (1) 
0

>  <PUBCHEM_BOND_UDEF_STEREO_COUNT>  (1) 
0

>  <PUBCHEM_ISOTOPIC_ATOM_COUNT>  (1) 
0

>  <PUBCHEM_COMPONENT_COUNT>  (1) 
1

>  <PUBCHEM_CACTVS_TAUTO_COUNT>  (1) 
1

>  <PUBCHEM_CONFORMER_ID>  (1) 
00009A7D00000006

>  <PUBCHEM_MMFF94_ENERGY>  (1) 
76.4482

>  <PUBCHEM_FEATURE_SELFOVERLAP>  (1) 
30.446

>  <PUBCHEM_SHAPE_FINGERPRINT>  (1) 
10447042 23 18335405903189556543
108634 29 17969511578739091995
11135609 201 12173328298132334418
11552529 35 17346310553322217879
12363563 72 18411143554308982073
12553582 1 18341051925700301767
12916748 109 9799402352347986029
13167823 11 18186803569643255941
13224815 77 18272933817089079153
13544653 18 18059853982949326713
13583140 156 17774427283775152301
13911882 115 18059861627833098558
1420 369 18410575102518259411
14576447 43 18113054913509846274
14787075 74 18261393394752861800
15183329 4 17604137148523110301
15196674 1 18410011044357644217
15352361 1 18411136948622868011
15537594 2 18263096534185110075
15788980 27 17822010891698407153
15880784 105 17060331959809479975
16945 1 16554210089145129720
17093844 170 18411418414582928482
17349148 13 17458060447933715761
1798214 20 18040147431723044531
18186145 218 11747222311862525861
18915474 69 18261117374035937621
20261772 1 17846213397399152775
20281475 54 18410017615473562341
20403669 9 18411703188611136327
20645477 56 7925619021501260761
20645477 70 18261674873987207045
21054139 6 17967813860077011202
21250096 35 18412544345055188889
22646028 1 18113616794406709849
22646028 28 18335421253444831353
23557571 272 18341609261709896369
23559900 14 18341049614380486716
239999 70 18409166619211299410
2871803 45 18113896061569718465
3004659 81 18040995137849980437
316301 35 18339920390543899706
339767 52 18337380630542206099
439807 62 17314227955592363179
4921388 177 15430324689425902385
5104073 3 18201998794205482937
59682541 52 14779807379205543643
6442390 28 17987510575985985990
7495541 125 18131068225756638208
960060 61 17821730559109072989
9709674 26 18334861662229760251

>  <PUBCHEM_SHAPE_MULTIPOLES>  (1) 
400.74
11.32
2.14
1.3
14.53
0.21
0.02
4.49
-0.05
0.5
-0.17
-1.62
-0.02
-0.01

>  <PUBCHEM_SHAPE_SELFOVERLAP>  (1) 
840.166

>  <PUBCHEM_SHAPE_VOLUME>  (1) 
233.2

>  <PUBCHEM_COORDINATE_TYPE>  (1) 
2
5
10

$$$$
