39552
     RDKit          3D

 23 25  0  0  1  0  0  0  0  0999 V2000
    0.8977   -0.5310   -2.1371 O   0  0  0  0  0  0  0  0  0  0  0  0
    1.9170    2.4429    1.3105 O   0  0  0  0  0  0  0  0  0  0  0  0
    1.4612    1.0662   -0.5312 N   0  0  0  0  0  0  0  0  0  0  0  0
   -3.9002    0.5239   -0.0523 N   0  0  0  0  0  0  0  0  0  0  0  0
    2.7103   -1.0262    0.9346 C   0  0  0  0  0  0  0  0  0  0  0  0
    2.7096   -1.0882   -0.6160 C   0  0  0  0  0  0  0  0  0  0  0  0
    3.1942    0.4273    1.0963 C   0  0  0  0  0  0  0  0  0  0  0  0
    4.0562   -0.4331   -1.0129 C   0  0  0  0  0  0  0  0  0  0  0  0
    4.3715    0.5565    0.1172 C   0  0  0  0  0  0  0  0  0  0  0  0
    1.5934   -0.1808   -1.1822 C   0  0  0  0  0  0  0  0  0  0  0  0
    3.7185   -2.0017    1.5901 C   0  0  0  0  0  0  0  0  0  0  0  0
    1.3466   -1.3077    1.5937 C   0  0  0  0  0  0  0  0  0  0  0  0
    2.1273    1.4204    0.6581 C   0  0  0  0  0  0  0  0  0  0  0  0
    2.5876   -2.4967   -1.2013 C   0  0  0  0  0  0  0  0  0  0  0  0
    0.5746    2.0541   -1.1318 C   0  0  0  0  0  0  0  0  0  0  0  0
   -0.7768    1.9417   -0.5856 C   0  0  0  0  0  0  0  0  0  0  0  0
   -3.1396   -0.6596    0.3727 C   0  0  0  0  0  0  0  0  0  0  0  0
   -5.2854    0.4686    0.4357 C   0  0  0  0  0  0  0  0  0  0  0  0
   -3.7863   -1.9458   -0.1438 C   0  0  0  0  0  0  0  0  0  0  0  0
   -6.0024   -0.7807   -0.0789 C   0  0  0  0  0  0  0  0  0  0  0  0
   -5.2430   -2.0487    0.2941 C   0  0  0  0  0  0  0  0  0  0  0  0
   -3.2437    1.7467    0.4092 C   0  0  0  0  0  0  0  0  0  0  0  0
   -1.8883    1.8517   -0.1390 C   0  0  0  0  0  0  0  0  0  0  0  0
  1 10  2  0
  2 13  2  0
  3 10  1  0
  3 13  1  0
  3 15  1  0
  4 17  1  0
  4 18  1  0
  4 22  1  0
  5  6  1  0
  5  7  1  0
  5 11  1  0
  5 12  1  0
  6  8  1  0
  6 10  1  0
  6 14  1  0
  7  9  1  0
  7 13  1  0
  8  9  1  0
 15 16  1  0
 16 23  3  0
 17 19  1  0
 18 20  1  0
 19 21  1  0
 20 21  1  0
 22 23  1  0
M  END
>  <PUBCHEM_COMPOUND_CID>  (1) 
39552

>  <PUBCHEM_CONFORMER_RMSD>  (1) 
0.6

>  <PUBCHEM_CONFORMER_DIVERSEORDER>  (1) 
1
51
48
44
57
46
26
83
60
40
84
9
59
47
42
85
28
10
80
77
67
45
72
27
30
19
73
23
76
31
63
29
86
5
22
65
13
61
78
32
64
69
74
21
17
7
79
49
82
39
11
54
20
8
66
18
70
14
71
58
34
50
43
12
41
15
6
37
75
68
33
56
4
24
81
16
62
25
53
2
36
38
3
35
52
55

>  <PUBCHEM_MMFF94_PARTIAL_CHARGES>  (1) 
14
1 -0.57
10 0.57
13 0.57
15 0.5
16 -0.2
17 0.27
18 0.27
2 -0.57
22 0.47
23 -0.2
3 -0.42
4 -0.81
6 0.06
7 0.06

>  <PUBCHEM_EFFECTIVE_ROTOR_COUNT>  (1) 
4

>  <PUBCHEM_PHARMACOPHORE_FEATURES>  (1) 
6
1 1 acceptor
1 2 acceptor
1 4 cation
3 5 11 12 hydrophobe
6 4 17 18 19 20 21 rings
8 3 5 6 7 8 9 10 13 rings

>  <PUBCHEM_HEAVY_ATOM_COUNT>  (1) 
23

>  <PUBCHEM_ATOM_DEF_STEREO_COUNT>  (1) 
0

>  <PUBCHEM_ATOM_UDEF_STEREO_COUNT>  (1) 
2

>  <PUBCHEM_BOND_DEF_STEREO_COUNT>  (1) 
0

>  <PUBCHEM_BOND_UDEF_STEREO_COUNT>  (1) 
0

>  <PUBCHEM_ISOTOPIC_ATOM_COUNT>  (1) 
0

>  <PUBCHEM_COMPONENT_COUNT>  (1) 
1

>  <PUBCHEM_CACTVS_TAUTO_COUNT>  (1) 
1

>  <PUBCHEM_CONFORMER_ID>  (1) 
00009A8000000001

>  <PUBCHEM_MMFF94_ENERGY>  (1) 
51.6466

>  <PUBCHEM_FEATURE_SELFOVERLAP>  (1) 
30.446

>  <PUBCHEM_SHAPE_FINGERPRINT>  (1) 
10447042 23 17821720628706847434
108634 29 18115036306303969946
11552529 35 17632291302866041631
11578080 2 16126670760841296392
11796584 16 18117837694422140685
12596599 1 18270408161501958721
12633257 1 18271807861310745385
13464513 79 18409169922088882596
13911882 115 18130797749916996158
14251764 30 17201659752680620526
14341114 176 17917999373204650577
14787075 74 18333739043862996188
14955137 171 18131628981325032944
15183329 4 17894901920562484429
15352361 1 18409732872231928693
15537594 2 18114195098789021939
16945 1 16765866064712713242
17857418 61 18409445895597316581
1813 80 17458346351428085477
20261772 1 17918270982657144695
20403669 9 18409729560891355615
21033648 29 16701732748995465633
21250096 35 18335417980853909569
21673915 165 18409728465257859961
23559900 14 18343308046124772149
239999 70 18341898523678397412
3004659 81 18187368757411853853
3009799 131 11386365925112216544
314173 41 18260835925166835693
316301 35 18338517409295715614
339767 52 18334851732334060343
3680242 22 18261681381231984451
38570 142 13973390448468276506
439807 62 17458912664863489963
463206 1 18193556907748364939
6823239 73 18059590035354135390
7808743 9 11023522731947192483
8988823 20 17774715476724331097

>  <PUBCHEM_SHAPE_MULTIPOLES>  (1) 
451.63
11.4
2.7
1.46
16.2
0.08
0.11
-4.88
-1.39
0.24
-0.11
-1.59
-0.32
0.02

>  <PUBCHEM_SHAPE_SELFOVERLAP>  (1) 
945.869

>  <PUBCHEM_SHAPE_VOLUME>  (1) 
255.5

>  <PUBCHEM_COORDINATE_TYPE>  (1) 
2
5
10

$$$$
