39550
     RDKit          3D

 22 23  0  0  1  0  0  0  0  0999 V2000
    0.7584    0.7086    2.1068 O   0  0  0  0  0  0  0  0  0  0  0  0
    1.3271   -2.5171   -1.2162 O   0  0  0  0  0  0  0  0  0  0  0  0
    1.0794   -1.0166    0.5677 N   0  0  0  0  0  0  0  0  0  0  0  0
   -4.1381    0.2965    0.0266 N   0  0  0  0  0  0  0  0  0  0  0  0
    2.6298    0.8067   -0.9680 C   0  0  0  0  0  0  0  0  0  0  0  0
    2.6359    0.9287    0.5790 C   0  0  0  0  0  0  0  0  0  0  0  0
    2.8912   -0.7081   -1.0701 C   0  0  0  0  0  0  0  0  0  0  0  0
    3.8686    0.0959    1.0109 C   0  0  0  0  0  0  0  0  0  0  0  0
    4.0343   -0.9733   -0.0779 C   0  0  0  0  0  0  0  0  0  0  0  0
    1.3955    0.2211    1.1713 C   0  0  0  0  0  0  0  0  0  0  0  0
    3.7736    1.5942   -1.6530 C   0  0  0  0  0  0  0  0  0  0  0  0
    1.3246    1.2627   -1.6477 C   0  0  0  0  0  0  0  0  0  0  0  0
    1.6869   -1.5126   -0.6021 C   0  0  0  0  0  0  0  0  0  0  0  0
    2.7249    2.3616    1.1087 C   0  0  0  0  0  0  0  0  0  0  0  0
    0.0540   -1.8367    1.1993 C   0  0  0  0  0  0  0  0  0  0  0  0
   -1.2645   -1.5452    0.6389 C   0  0  0  0  0  0  0  0  0  0  0  0
   -2.3493   -1.3077    0.1809 C   0  0  0  0  0  0  0  0  0  0  0  0
   -3.6727   -1.0230   -0.3811 C   0  0  0  0  0  0  0  0  0  0  0  0
   -5.4602    0.5748   -0.5379 C   0  0  0  0  0  0  0  0  0  0  0  0
   -3.1844    1.3295   -0.3828 C   0  0  0  0  0  0  0  0  0  0  0  0
   -6.4681   -0.4295   -0.0814 C   0  0  0  0  0  0  0  0  0  0  0  0
   -3.6471    2.6896    0.0281 C   0  0  0  0  0  0  0  0  0  0  0  0
  1 10  2  0
  2 13  2  0
  3 10  1  0
  3 13  1  0
  3 15  1  0
  4 18  1  0
  4 19  1  0
  4 20  1  0
  5  6  1  0
  5  7  1  0
  5 11  1  0
  5 12  1  0
  6  8  1  0
  6 10  1  0
  6 14  1  0
  7  9  1  0
  7 13  1  0
  8  9  1  0
 15 16  1  0
 16 17  3  0
 17 18  1  0
 19 21  1  0
 20 22  1  0
M  END
>  <PUBCHEM_COMPOUND_CID>  (1) 
39550

>  <PUBCHEM_CONFORMER_RMSD>  (1) 
0.8

>  <PUBCHEM_CONFORMER_DIVERSEORDER>  (1) 
1
24
33
5
38
26
22
30
12
37
27
15
36
9
39
35
11
29
13
40
34
4
8
25
32
41
28
7
6
31
17
14
23
21
16
3
2
20
18
19
10

>  <PUBCHEM_MMFF94_PARTIAL_CHARGES>  (1) 
14
1 -0.57
10 0.57
13 0.57
15 0.5
16 -0.2
17 -0.2
18 0.47
19 0.27
2 -0.57
20 0.27
3 -0.42
4 -0.81
6 0.06
7 0.06

>  <PUBCHEM_EFFECTIVE_ROTOR_COUNT>  (1) 
4.8

>  <PUBCHEM_PHARMACOPHORE_FEATURES>  (1) 
5
1 1 acceptor
1 2 acceptor
1 4 cation
3 5 11 12 hydrophobe
8 3 5 6 7 8 9 10 13 rings

>  <PUBCHEM_HEAVY_ATOM_COUNT>  (1) 
22

>  <PUBCHEM_ATOM_DEF_STEREO_COUNT>  (1) 
0

>  <PUBCHEM_ATOM_UDEF_STEREO_COUNT>  (1) 
2

>  <PUBCHEM_BOND_DEF_STEREO_COUNT>  (1) 
0

>  <PUBCHEM_BOND_UDEF_STEREO_COUNT>  (1) 
0

>  <PUBCHEM_ISOTOPIC_ATOM_COUNT>  (1) 
0

>  <PUBCHEM_COMPONENT_COUNT>  (1) 
1

>  <PUBCHEM_CACTVS_TAUTO_COUNT>  (1) 
1

>  <PUBCHEM_CONFORMER_ID>  (1) 
00009A7E00000001

>  <PUBCHEM_MMFF94_ENERGY>  (1) 
57.1183

>  <PUBCHEM_FEATURE_SELFOVERLAP>  (1) 
25.372

>  <PUBCHEM_SHAPE_FINGERPRINT>  (1) 
10447042 23 12607407658946884193
10498660 4 18335412483438175913
10646746 165 18411133653876517496
10670039 82 18187652357917555725
10764073 3 17192307216459229362
11578080 2 18125717049004818488
12596602 18 16805609217683386161
12633257 1 17385995208690522174
12730499 353 18341901809502887523
13224815 77 17821729416795575549
14955137 171 11386372552162644246
15163728 17 16808733003443378220
15210252 30 18410296951367019617
16945 1 17054192373201070972
18186145 218 17774456004274162850
21503847 285 17167864175045605916
221357 26 18201718427757523817
3060560 45 17632293488572118966
46194498 28 18131073735846270853
474 4 17894351081662521747
495365 180 17988635346005148282
5281201 14 18200600194177446119
5895379 119 18335708204331381892
5939293 188 17895477054162069260
6328613 192 18040443217863361540
7808743 9 17896326993861578093

>  <PUBCHEM_SHAPE_MULTIPOLES>  (1) 
431.05
10.77
2.45
1.49
17.4
0.47
-0.09
2.55
1.65
0.01
0.08
-1.52
0.29
0.16

>  <PUBCHEM_SHAPE_SELFOVERLAP>  (1) 
888.399

>  <PUBCHEM_SHAPE_VOLUME>  (1) 
250.5

>  <PUBCHEM_COORDINATE_TYPE>  (1) 
2
5
10

$$$$
