39569
     RDKit          3D

 26 30  0  0  1  0  0  0  0  0999 V2000
    6.3985   -0.8478    0.0381 Cl  0  0  0  0  0  0  0  0  0  0  0  0
   -0.5402    4.5574   -0.0742 O   0  0  0  0  0  0  0  0  0  0  0  0
    1.6363    3.5483    0.1162 O   0  0  0  0  0  0  0  0  0  0  0  0
    0.1681   -3.1038   -0.0585 O   0  0  0  0  0  0  0  0  0  0  0  0
   -0.5007   -0.9453   -0.0243 N   0  0  0  0  0  0  0  0  0  0  0  0
   -4.6216   -1.2349    0.3759 N   0  0  0  0  0  0  0  0  0  0  0  0
   -2.5605   -0.0202   -0.0676 C   0  0  0  0  0  0  0  0  0  0  0  0
   -1.8611   -1.2052   -0.0146 C   0  0  0  0  0  0  0  0  0  0  0  0
   -2.5255   -2.5437    0.0183 C   0  0  0  0  0  0  0  0  0  0  0  0
   -4.0527    0.0390   -0.1185 C   0  0  0  0  0  0  0  0  0  0  0  0
   -1.6168    1.0355   -0.0822 C   0  0  0  0  0  0  0  0  0  0  0  0
   -4.0261   -2.3987   -0.3127 C   0  0  0  0  0  0  0  0  0  0  0  0
   -0.3353    0.4488   -0.0169 C   0  0  0  0  0  0  0  0  0  0  0  0
   -1.7541    2.4434   -0.1221 C   0  0  0  0  0  0  0  0  0  0  0  0
    0.8231    1.2503    0.0828 C   0  0  0  0  0  0  0  0  0  0  0  0
   -6.0755   -1.2308    0.2134 C   0  0  0  0  0  0  0  0  0  0  0  0
    0.5160   -1.9269   -0.0196 C   0  0  0  0  0  0  0  0  0  0  0  0
   -0.5983    3.1969   -0.0603 C   0  0  0  0  0  0  0  0  0  0  0  0
    0.6392    2.6214    0.0458 C   0  0  0  0  0  0  0  0  0  0  0  0
    1.9638   -1.6602   -0.0056 C   0  0  0  0  0  0  0  0  0  0  0  0
    0.8807    4.7730    0.0341 C   0  0  0  0  0  0  0  0  0  0  0  0
    2.6369   -1.5395    1.2090 C   0  0  0  0  0  0  0  0  0  0  0  0
    2.6592   -1.5306   -1.2069 C   0  0  0  0  0  0  0  0  0  0  0  0
    4.0090   -1.2884    1.2225 C   0  0  0  0  0  0  0  0  0  0  0  0
    4.0313   -1.2795   -1.1934 C   0  0  0  0  0  0  0  0  0  0  0  0
    4.7063   -1.1585    0.0214 C   0  0  0  0  0  0  0  0  0  0  0  0
  1 26  1  0
  2 18  1  0
  2 21  1  0
  3 19  1  0
  3 21  1  0
  4 17  2  0
  5  8  1  0
  5 13  1  0
  5 17  1  0
  6 10  1  0
  6 12  1  0
  6 16  1  0
  7  8  2  0
  7 10  1  0
  7 11  1  0
  8  9  1  0
  9 12  1  0
 11 13  2  0
 11 14  1  0
 13 15  1  0
 14 18  2  0
 15 19  2  0
 17 20  1  0
 18 19  1  0
 20 22  2  0
 20 23  1  0
 22 24  1  0
 23 25  2  0
 24 26  2  0
 25 26  1  0
M  END
>  <PUBCHEM_COMPOUND_CID>  (1) 
39569

>  <PUBCHEM_CONFORMER_RMSD>  (1) 
0.8

>  <PUBCHEM_CONFORMER_DIVERSEORDER>  (1) 
1
4
6
2
3
7
5

>  <PUBCHEM_MMFF94_PARTIAL_CHARGES>  (1) 
31
1 -0.18
10 0.45
12 0.27
13 -0.15
14 -0.15
15 -0.15
16 0.27
17 0.49
18 0.08
19 0.08
2 -0.36
20 0.09
21 0.56
22 -0.15
23 -0.15
24 -0.15
25 -0.15
26 0.18
3 -0.36
33 0.15
34 0.15
4 -0.57
40 0.15
41 0.15
42 0.15
43 0.15
5 0.29
6 -0.81
7 -0.18
8 -0.33
9 0.18

>  <PUBCHEM_EFFECTIVE_ROTOR_COUNT>  (1) 
3.4

>  <PUBCHEM_PHARMACOPHORE_FEATURES>  (1) 
9
1 2 acceptor
1 3 acceptor
1 4 acceptor
1 6 cation
5 2 3 18 19 21 rings
5 5 7 8 11 13 rings
6 11 13 14 15 18 19 rings
6 20 22 23 24 25 26 rings
6 6 7 8 9 10 12 rings

>  <PUBCHEM_HEAVY_ATOM_COUNT>  (1) 
26

>  <PUBCHEM_ATOM_DEF_STEREO_COUNT>  (1) 
0

>  <PUBCHEM_ATOM_UDEF_STEREO_COUNT>  (1) 
0

>  <PUBCHEM_BOND_DEF_STEREO_COUNT>  (1) 
0

>  <PUBCHEM_BOND_UDEF_STEREO_COUNT>  (1) 
0

>  <PUBCHEM_ISOTOPIC_ATOM_COUNT>  (1) 
0

>  <PUBCHEM_COMPONENT_COUNT>  (1) 
1

>  <PUBCHEM_CACTVS_TAUTO_COUNT>  (1) 
1

>  <PUBCHEM_CONFORMER_ID>  (1) 
00009A9100000001

>  <PUBCHEM_MMFF94_ENERGY>  (1) 
73.9643

>  <PUBCHEM_FEATURE_SELFOVERLAP>  (1) 
46.004

>  <PUBCHEM_SHAPE_FINGERPRINT>  (1) 
10006869 2 17905321824348991331
10050765 1 18122343751947814547
10319926 262 18052235325637611826
10411042 1 18410573989562885223
10498660 4 18194402182859975180
10670039 82 18264501590166184142
10675989 125 16676955005688688445
10967382 1 18194401319270978581
1100329 8 18337391663954980691
11115154 58 17485893439037820341
11265709 11 18409730664043745001
11578080 2 17387384974313644796
12156800 1 11341745586439731956
12166972 35 17748829609867613862
12173636 292 17689995639648853044
12236239 1 17749108851403684514
12553582 1 18410570661290330471
12788726 201 18261111803553266282
13009979 54 17897994743133651258
13140716 1 18337394967180353443
13540713 4 17826509157562452243
13540713 5 17841718701888326735
138480 1 14735917726123295949
13965767 371 17031915902360458660
14020679 6 18042707047943558627
14347332 77 18195249915084665678
14787075 74 18113338621928008426
14955137 171 18410303526988095971
15042514 8 18194118521233337803
15475509 8 17914083952606435263
15664445 248 18342190972091126726
15927050 60 17691411132205179422
15961568 22 18411699929000081484
16087824 20 18266179419193763013
167882 2 18121500425531628717
17492 89 18050849124615948211
1813 80 18343026583637272239
18336668 15 18113339717191628860
18681886 176 18341325694920932939
18785283 64 18193282008176264539
19319366 153 17821727247442297322
19591789 44 18410294730826190133
20510252 161 18197498411629740866
20642791 35 18267873959130625228
21033648 29 17489011683350509003
21049683 271 18115316695012306429
21133665 82 17473833196556319540
21304253 13 18341897381380614193
21796203 349 17975452192918922347
2260408 40 17344378651442625563
23352939 185 18271815639470047248
23366157 5 17972315380808010125
23419403 2 17970882639594419279
23557571 272 18271810060619038534
23559900 14 18267578186445026571
23845131 108 17260759443118995785
24771293 8 18201429337255054576
24771750 20 17974583682033883373
283562 15 18264492788913167338
3091708 16 9282729713568201297
3298306 158 17905052804329429636
335352 9 18410291411612763391
352729 6 17329139179409163603
469060 322 18339655429451938730
5104073 3 18265626562392161779
532947 4 18122911094438924189
6443956 14 18337674225431537413
7364860 26 18195529413927208485
7808743 9 18122345680097376184
8863177 126 17752502099217301547
9981440 41 17255677495890251368

>  <PUBCHEM_SHAPE_MULTIPOLES>  (1) 
509.37
9.88
5.16
0.85
2.66
8.31
0
-8.98
0.37
-0.77
-0.05
0.75
-0.33
0.09

>  <PUBCHEM_SHAPE_SELFOVERLAP>  (1) 
1137.211

>  <PUBCHEM_SHAPE_VOLUME>  (1) 
273.8

>  <PUBCHEM_COORDINATE_TYPE>  (1) 
2
5
10

$$$$
