39567
     RDKit          3D

 26 30  0  0  1  0  0  0  0  0999 V2000
    4.8855   -1.1780   -1.9562 F   0  0  0  0  0  0  0  0  0  0  0  0
   -0.4809    4.5666   -0.1159 O   0  0  0  0  0  0  0  0  0  0  0  0
    1.6827    3.5679    0.2205 O   0  0  0  0  0  0  0  0  0  0  0  0
    0.2352   -3.0903    0.1188 O   0  0  0  0  0  0  0  0  0  0  0  0
   -0.4372   -0.9334    0.0647 N   0  0  0  0  0  0  0  0  0  0  0  0
   -4.5738   -1.2242    0.2383 N   0  0  0  0  0  0  0  0  0  0  0  0
   -2.4925   -0.0148   -0.1163 C   0  0  0  0  0  0  0  0  0  0  0  0
   -1.7956   -1.1965    0.0037 C   0  0  0  0  0  0  0  0  0  0  0  0
   -2.4591   -2.5356    0.0303 C   0  0  0  0  0  0  0  0  0  0  0  0
   -3.9795    0.0392   -0.2528 C   0  0  0  0  0  0  0  0  0  0  0  0
   -1.5508    1.0426   -0.1024 C   0  0  0  0  0  0  0  0  0  0  0  0
   -3.9388   -2.4022   -0.3881 C   0  0  0  0  0  0  0  0  0  0  0  0
   -0.2743    0.4610    0.0489 C   0  0  0  0  0  0  0  0  0  0  0  0
   -1.6875    2.4489   -0.1828 C   0  0  0  0  0  0  0  0  0  0  0  0
    0.8756    1.2676    0.1950 C   0  0  0  0  0  0  0  0  0  0  0  0
   -6.0162   -1.2278   -0.0060 C   0  0  0  0  0  0  0  0  0  0  0  0
    0.5789   -1.9120    0.1498 C   0  0  0  0  0  0  0  0  0  0  0  0
   -0.5379    3.2066   -0.0735 C   0  0  0  0  0  0  0  0  0  0  0  0
    0.6923    2.6370    0.1156 C   0  0  0  0  0  0  0  0  0  0  0  0
    2.0232   -1.6412    0.2393 C   0  0  0  0  0  0  0  0  0  0  0  0
    0.9313    4.7883    0.0673 C   0  0  0  0  0  0  0  0  0  0  0  0
    2.7844   -1.5364   -0.9240 C   0  0  0  0  0  0  0  0  0  0  0  0
    2.6273   -1.4903    1.4865 C   0  0  0  0  0  0  0  0  0  0  0  0
    4.1531   -1.2802   -0.8397 C   0  0  0  0  0  0  0  0  0  0  0  0
    3.9957   -1.2341    1.5709 C   0  0  0  0  0  0  0  0  0  0  0  0
    4.7586   -1.1289    0.4079 C   0  0  0  0  0  0  0  0  0  0  0  0
  1 24  1  0
  2 18  1  0
  2 21  1  0
  3 19  1  0
  3 21  1  0
  4 17  2  0
  5  8  1  0
  5 13  1  0
  5 17  1  0
  6 10  1  0
  6 12  1  0
  6 16  1  0
  7  8  2  0
  7 10  1  0
  7 11  1  0
  8  9  1  0
  9 12  1  0
 11 13  2  0
 11 14  1  0
 13 15  1  0
 14 18  2  0
 15 19  2  0
 17 20  1  0
 18 19  1  0
 20 22  2  0
 20 23  1  0
 22 24  1  0
 23 25  2  0
 24 26  2  0
 25 26  1  0
M  END
>  <PUBCHEM_COMPOUND_CID>  (1) 
39567

>  <PUBCHEM_CONFORMER_RMSD>  (1) 
0.8

>  <PUBCHEM_CONFORMER_DIVERSEORDER>  (1) 
1
7
11
8
5
4
9
6
3
10
2
13
15
12
14

>  <PUBCHEM_MMFF94_PARTIAL_CHARGES>  (1) 
31
1 -0.19
10 0.45
12 0.27
13 -0.15
14 -0.15
15 -0.15
16 0.27
17 0.49
18 0.08
19 0.08
2 -0.36
20 0.09
21 0.56
22 -0.15
23 -0.15
24 0.19
25 -0.15
26 -0.15
3 -0.36
33 0.15
34 0.15
4 -0.57
40 0.15
41 0.15
42 0.15
43 0.15
5 0.29
6 -0.81
7 -0.18
8 -0.33
9 0.18

>  <PUBCHEM_EFFECTIVE_ROTOR_COUNT>  (1) 
3.4

>  <PUBCHEM_PHARMACOPHORE_FEATURES>  (1) 
9
1 2 acceptor
1 3 acceptor
1 4 acceptor
1 6 cation
5 2 3 18 19 21 rings
5 5 7 8 11 13 rings
6 11 13 14 15 18 19 rings
6 20 22 23 24 25 26 rings
6 6 7 8 9 10 12 rings

>  <PUBCHEM_HEAVY_ATOM_COUNT>  (1) 
26

>  <PUBCHEM_ATOM_DEF_STEREO_COUNT>  (1) 
0

>  <PUBCHEM_ATOM_UDEF_STEREO_COUNT>  (1) 
0

>  <PUBCHEM_BOND_DEF_STEREO_COUNT>  (1) 
0

>  <PUBCHEM_BOND_UDEF_STEREO_COUNT>  (1) 
0

>  <PUBCHEM_ISOTOPIC_ATOM_COUNT>  (1) 
0

>  <PUBCHEM_COMPONENT_COUNT>  (1) 
1

>  <PUBCHEM_CACTVS_TAUTO_COUNT>  (1) 
1

>  <PUBCHEM_CONFORMER_ID>  (1) 
00009A8F00000001

>  <PUBCHEM_MMFF94_ENERGY>  (1) 
73.3026

>  <PUBCHEM_FEATURE_SELFOVERLAP>  (1) 
46.004

>  <PUBCHEM_SHAPE_FINGERPRINT>  (1) 
10006869 2 17833263117977687915
10050765 1 18121779698214158967
10319926 262 17980171134487732434
10369192 42 17130121304767779536
10411042 1 18410571773428377819
10498660 4 18194119621203726084
10670039 82 18263937531916229414
10967382 1 18193835075030226985
1100329 8 18337388352798913699
11115154 58 17413266302229493309
11578080 2 17315042606848499372
11640471 11 17462592523769076734
12156800 1 15695790707257093264
12160290 23 17697013869713742569
12166972 35 17676486125621430454
12173636 292 17690272716652912020
12236239 1 17676768678614112450
12553582 1 18410572855960498967
12788726 201 18261397676518420122
13009979 54 17897994743165286770
13140716 1 18339351964195803424
13540713 5 17913210043185180743
138480 1 14664139408049359689
13899415 154 18335432274299673667
14020679 6 18114480967992063355
14081887 123 18195797471505091050
14178342 30 17975684001237070002
14347332 77 18195533584705268678
14787075 74 18040720255358510251
14790565 3 17619633479862561313
14931854 50 18190203311442156628
14955137 171 18265641856047924851
15042514 8 18193832643930966627
15230672 131 17326617402838524924
15475509 8 18057629597848640295
15664445 248 18341341058382694318
15927050 60 17762903572776368758
15961568 22 18339356470513094040
16087824 20 18194402187714943037
1813 80 18342455941328839115
18785283 64 18192433185167953515
19319366 153 17749103405005696666
19591789 44 18410293618556254485
20510252 161 18125436410749593570
20642791 35 18338802324271561876
20715895 44 17030483268088734733
21033648 29 17489292063136965435
21049683 271 18115318894193746101
21133665 82 17545324542132316404
22182313 1 18266434612262899289
23352939 185 18272099313390879096
23366157 5 17971749127993096093
23419403 2 17898258788520437052
23557571 272 18201163126935284510
23559900 14 18339354296985153811
24771293 8 18201144563722381152
24771750 20 17974019632600443813
25147074 1 17915178156108755631
3091708 16 9498902499918943177
314173 41 18410293644088648971
3298306 158 17904770229862190180
335352 9 18410571782809246255
352729 6 17329418455272928507
4017518 198 17408527694755144252
469060 322 18339651022757451336
5104073 3 18264777739431323459
532947 4 18122628515681946741
6443956 14 18337390551410472149
7164475 11 18192712250694910862
7364860 26 18195244640352330465
7399639 24 17988350487037742006
7808743 9 18050010991928280336
9981440 41 17183898069625140432

>  <PUBCHEM_SHAPE_MULTIPOLES>  (1) 
500.22
8.8
5.25
0.98
2.63
8.41
0.05
-8.5
0.67
-0.38
-0.04
-1.38
-0.48
0.12

>  <PUBCHEM_SHAPE_SELFOVERLAP>  (1) 
1129.225

>  <PUBCHEM_SHAPE_VOLUME>  (1) 
265.2

>  <PUBCHEM_COORDINATE_TYPE>  (1) 
2
5
10

$$$$
