39560
     RDKit          3D

 15 15  0  0  1  0  0  0  0  0999 V2000
    1.5240    1.3571   -0.0377 O   0  0  0  0  0  0  0  0  0  0  0  0
    2.1551   -2.5935    1.2691 O   0  0  0  0  0  0  0  0  0  0  0  0
    2.2331   -1.7665   -1.2160 N   0  0  0  0  0  0  0  0  0  0  0  0
    1.4983   -1.3824    1.0328 N   0  0  0  0  0  0  0  0  0  0  0  0
    0.9004    0.2409   -0.6701 C   0  0  0  0  0  0  0  0  0  0  0  0
   -0.5627    0.2104   -0.3825 C   0  0  0  0  0  0  0  0  0  0  0  0
   -1.4524   -0.2764   -1.3402 C   0  0  0  0  0  0  0  0  0  0  0  0
   -1.0416    0.6690    0.8448 C   0  0  0  0  0  0  0  0  0  0  0  0
   -3.2994    0.1538    0.1563 C   0  0  0  0  0  0  0  0  0  0  0  0
    1.5974   -1.0559   -0.2232 C   0  0  0  0  0  0  0  0  0  0  0  0
   -2.8207   -0.3046   -1.0710 C   0  0  0  0  0  0  0  0  0  0  0  0
   -2.4100    0.6406    1.1142 C   0  0  0  0  0  0  0  0  0  0  0  0
    2.9169    1.3920   -0.3074 C   0  0  0  0  0  0  0  0  0  0  0  0
   -4.7622    0.1227    0.4445 C   0  0  0  0  0  0  0  0  0  0  0  0
    3.5237    2.5928    0.3865 C   0  0  0  0  0  0  0  0  0  0  0  0
  1  5  1  0
  1 13  1  0
  2  4  1  0
  3 10  1  0
  4 10  2  0
  5  6  1  0
  5 10  1  0
  6  7  2  0
  6  8  1  0
  7 11  1  0
  8 12  2  0
  9 11  2  0
  9 12  1  0
  9 14  1  0
 13 15  1  0
M  END
>  <PUBCHEM_COMPOUND_CID>  (1) 
39560

>  <PUBCHEM_CONFORMER_RMSD>  (1) 
0.6

>  <PUBCHEM_CONFORMER_DIVERSEORDER>  (1) 
1
35
31
16
8
7
23
26
12
27
20
14
9
11
24
10
6
30
25
33
18
29
17
15
34
32
3
22
21
13
28
19
4
2
5

>  <PUBCHEM_MMFF94_PARTIAL_CHARGES>  (1) 
21
1 -0.56
10 0.44
11 -0.15
12 -0.15
13 0.28
14 0.14
17 0.15
18 0.15
19 0.15
2 -0.34
20 0.15
29 0.4
3 -0.85
30 0.4
31 0.4
4 -0.51
5 0.48
6 -0.14
7 -0.15
8 -0.15
9 -0.14

>  <PUBCHEM_EFFECTIVE_ROTOR_COUNT>  (1) 
4

>  <PUBCHEM_PHARMACOPHORE_FEATURES>  (1) 
5
1 1 acceptor
1 2 anion
1 3 donor
3 3 4 10 cation
6 6 7 8 9 11 12 rings

>  <PUBCHEM_HEAVY_ATOM_COUNT>  (1) 
15

>  <PUBCHEM_ATOM_DEF_STEREO_COUNT>  (1) 
0

>  <PUBCHEM_ATOM_UDEF_STEREO_COUNT>  (1) 
1

>  <PUBCHEM_BOND_DEF_STEREO_COUNT>  (1) 
0

>  <PUBCHEM_BOND_UDEF_STEREO_COUNT>  (1) 
1

>  <PUBCHEM_ISOTOPIC_ATOM_COUNT>  (1) 
0

>  <PUBCHEM_COMPONENT_COUNT>  (1) 
1

>  <PUBCHEM_CACTVS_TAUTO_COUNT>  (1) 
3

>  <PUBCHEM_CONFORMER_ID>  (1) 
00009A8800000001

>  <PUBCHEM_MMFF94_ENERGY>  (1) 
38.6171

>  <PUBCHEM_FEATURE_SELFOVERLAP>  (1) 
25.371

>  <PUBCHEM_SHAPE_FINGERPRINT>  (1) 
12326174 3 18408603634961527758
12346645 44 18201156671330484492
12644460 14 18131083635977827753
12932764 1 18188213109090054511
13538477 17 17704067417447467517
15207287 21 16878778451941108273
15669948 3 16988559139203934253
15775835 57 18059298763457217437
15852999 172 17458341987208218322
16945 1 18186798097395939700
170605 34 18343026630987414108
1813 80 17984428438814430566
18186145 218 18187369783887827893
19026448 4 18187088343466099397
19765921 60 18270114759232515032
201361 129 18342745117287562432
20279233 1 17385443237190240177
20361792 2 18192988210426990662
204376 136 18116151267266504780
20559304 39 17703792474804809873
20645476 183 17846217812810097469
20645477 70 18411982434373174567
21499 59 18268429225277141484
21524375 3 18268988872690758388
2255824 54 18411985728312526982
23048698 100 18343589525401510225
23236772 104 18058451070125265653
23402539 116 15864897885411840863
23419403 2 15507665290358389210
23557571 272 16515677828012876573
23558518 356 17547562043328972508
23559900 14 17417536791640787167
23598291 2 18056499269424385633
3286 77 17895755080548968595
4340502 62 18262806284563840155
474 4 18268715089705361568
528862 383 18411417310569955348
633830 44 18270403926801926428
7364860 26 18130794438581372932
77492 1 18059850666901991877
81228 2 17112956476026395136
81539 233 18335984263364563468
88987 49 16200137812094078181
9981440 41 16765899449151361568

>  <PUBCHEM_SHAPE_MULTIPOLES>  (1) 
286.99
6.72
2.08
1.24
3.83
0.4
0.04
-2.39
0.62
-3.4
0.54
0.13
0.46
-0.57

>  <PUBCHEM_SHAPE_SELFOVERLAP>  (1) 
583.451

>  <PUBCHEM_SHAPE_VOLUME>  (1) 
167.7

>  <PUBCHEM_COORDINATE_TYPE>  (1) 
2
5
10

$$$$
