39561
     RDKit          3D

 15 15  0  0  1  0  0  0  0  0999 V2000
    4.9748   -0.1208    0.4646 Cl  0  0  0  0  0  0  0  0  0  0  0  0
   -1.5385   -1.3573   -0.0386 O   0  0  0  0  0  0  0  0  0  0  0  0
   -2.1666    2.5888    1.2829 O   0  0  0  0  0  0  0  0  0  0  0  0
   -2.2535    1.7696   -1.2046 N   0  0  0  0  0  0  0  0  0  0  0  0
   -1.5101    1.3787    1.0403 N   0  0  0  0  0  0  0  0  0  0  0  0
   -0.9180   -0.2389   -0.6700 C   0  0  0  0  0  0  0  0  0  0  0  0
    0.5463   -0.2087   -0.3877 C   0  0  0  0  0  0  0  0  0  0  0  0
   -1.6137    1.0561   -0.2165 C   0  0  0  0  0  0  0  0  0  0  0  0
    1.4304    0.2923   -1.3431 C   0  0  0  0  0  0  0  0  0  0  0  0
    1.0314   -0.6824    0.8312 C   0  0  0  0  0  0  0  0  0  0  0  0
   -2.9325   -1.3922   -0.3032 C   0  0  0  0  0  0  0  0  0  0  0  0
    2.7999    0.3195   -1.0795 C   0  0  0  0  0  0  0  0  0  0  0  0
    2.4009   -0.6551    1.0950 C   0  0  0  0  0  0  0  0  0  0  0  0
    3.2853   -0.1540    0.1395 C   0  0  0  0  0  0  0  0  0  0  0  0
   -3.5360   -2.5955    0.3895 C   0  0  0  0  0  0  0  0  0  0  0  0
  1 14  1  0
  2  6  1  0
  2 11  1  0
  3  5  1  0
  4  8  1  0
  5  8  2  0
  6  7  1  0
  6  8  1  0
  7  9  2  0
  7 10  1  0
  9 12  1  0
 10 13  2  0
 11 15  1  0
 12 14  2  0
 13 14  1  0
M  END
>  <PUBCHEM_COMPOUND_CID>  (1) 
39561

>  <PUBCHEM_CONFORMER_RMSD>  (1) 
0.6

>  <PUBCHEM_CONFORMER_DIVERSEORDER>  (1) 
1
36
31
17
9
23
24
15
26
13
14
18
25
16
10
7
35
27
34
30
19
8
29
28
3
12
20
2
5
32
11
22
6
21
33
4

>  <PUBCHEM_MMFF94_PARTIAL_CHARGES>  (1) 
21
1 -0.18
10 -0.15
11 0.28
12 -0.15
13 -0.15
14 0.18
17 0.15
18 0.15
2 -0.56
21 0.15
22 0.15
26 0.4
27 0.4
28 0.4
3 -0.34
4 -0.85
5 -0.51
6 0.48
7 -0.14
8 0.44
9 -0.15

>  <PUBCHEM_EFFECTIVE_ROTOR_COUNT>  (1) 
4

>  <PUBCHEM_PHARMACOPHORE_FEATURES>  (1) 
5
1 2 acceptor
1 3 anion
1 4 donor
3 4 5 8 cation
6 7 9 10 12 13 14 rings

>  <PUBCHEM_HEAVY_ATOM_COUNT>  (1) 
15

>  <PUBCHEM_ATOM_DEF_STEREO_COUNT>  (1) 
0

>  <PUBCHEM_ATOM_UDEF_STEREO_COUNT>  (1) 
1

>  <PUBCHEM_BOND_DEF_STEREO_COUNT>  (1) 
0

>  <PUBCHEM_BOND_UDEF_STEREO_COUNT>  (1) 
1

>  <PUBCHEM_ISOTOPIC_ATOM_COUNT>  (1) 
0

>  <PUBCHEM_COMPONENT_COUNT>  (1) 
1

>  <PUBCHEM_CACTVS_TAUTO_COUNT>  (1) 
3

>  <PUBCHEM_CONFORMER_ID>  (1) 
00009A8900000001

>  <PUBCHEM_MMFF94_ENERGY>  (1) 
36.8088

>  <PUBCHEM_FEATURE_SELFOVERLAP>  (1) 
25.371

>  <PUBCHEM_SHAPE_FINGERPRINT>  (1) 
11806522 49 17749946782237412622
12932764 1 17968104071032863716
13296909 8 18335411362008691204
13538477 17 18336266760432512729
13583140 156 17559369445660624970
13764800 53 17988649545167061241
15279308 16 17561082462879525492
15775835 57 18187644644161520884
16945 1 18130788975108678775
17844478 74 17346606295568154682
18186145 218 13046207429708088239
19010151 120 17676201420428126606
19026448 4 18202279191831041334
19422 9 18260266339699893174
200 152 17530960332155517891
20510252 161 18412261765628376450
20645477 70 13623791810106995184
21524375 3 17411902769675140809
22112679 90 18189070787951833773
22802520 49 17202221611464265452
228727 97 18044110152685412319
2306618 200 18333725793429809301
23402539 116 18340480170426120551
23419403 2 18053074488683958597
23557571 272 18272088309547457852
6049 1 17346049908715093396
633830 44 12966846892797594824
6992083 37 18042124254534405660
77492 1 18041003938074465718
81228 2 18341908380786356907

>  <PUBCHEM_SHAPE_MULTIPOLES>  (1) 
288.86
6.98
2.08
1.24
4.8
0.36
0.04
-2.43
0.75
-3.43
0.55
0.11
0.47
-0.58

>  <PUBCHEM_SHAPE_SELFOVERLAP>  (1) 
580.347

>  <PUBCHEM_SHAPE_VOLUME>  (1) 
171.1

>  <PUBCHEM_COORDINATE_TYPE>  (1) 
2
5
10

$$$$
