39563
     RDKit          3D

 32 35  0  0  1  0  0  0  0  0999 V2000
   -2.0354    0.2531    1.7626 S   0  0  0  0  0  0  0  0  0  0  0  0
   -0.7693    0.1584   -2.5276 O   0  0  0  0  0  0  0  0  0  0  0  0
    1.6709   -1.8029   -0.3925 O   0  0  0  0  0  0  0  0  0  0  0  0
    0.9644   -3.9680   -0.7116 O   0  0  0  0  0  0  0  0  0  0  0  0
    6.8136    2.5748    1.4386 O   0  0  0  0  0  0  0  0  0  0  0  0
    6.8597    2.8797   -0.7349 O   0  0  0  0  0  0  0  0  0  0  0  0
   -0.7098   -0.7769   -0.3691 N   0  0  0  0  0  0  0  0  0  0  0  0
   -1.7520    2.0936   -0.0930 N   0  0  0  0  0  0  0  0  0  0  0  0
    6.4695    2.2484    0.2769 N   0  0  0  0  0  0  0  0  0  0  0  0
   -0.5240    0.1005    0.7673 C   0  0  0  0  0  0  0  0  0  0  0  0
   -0.5452    1.2765   -0.2376 C   0  0  0  0  0  0  0  0  0  0  0  0
   -0.6979    0.1880   -1.3205 C   0  0  0  0  0  0  0  0  0  0  0  0
   -0.6848   -2.2132   -0.4544 C   0  0  0  0  0  0  0  0  0  0  0  0
   -2.5176    1.6676    0.8595 C   0  0  0  0  0  0  0  0  0  0  0  0
   -1.4038   -2.8099    0.7301 C   0  0  0  0  0  0  0  0  0  0  0  0
   -3.8090    2.3201    1.2218 C   0  0  0  0  0  0  0  0  0  0  0  0
    0.7282   -2.7753   -0.5490 C   0  0  0  0  0  0  0  0  0  0  0  0
   -2.8918   -3.0145    0.6320 C   0  0  0  0  0  0  0  0  0  0  0  0
   -4.9575    1.7039    0.4740 C   0  0  0  0  0  0  0  0  0  0  0  0
   -0.7338   -3.1575    1.8409 C   0  0  0  0  0  0  0  0  0  0  0  0
    3.0319   -2.2450   -0.4259 C   0  0  0  0  0  0  0  0  0  0  0  0
   -5.3288    2.2210   -0.7609 C   0  0  0  0  0  0  0  0  0  0  0  0
   -5.6352    0.6236    1.0257 C   0  0  0  0  0  0  0  0  0  0  0  0
    3.9360   -1.0620   -0.2408 C   0  0  0  0  0  0  0  0  0  0  0  0
   -6.3947    1.6490   -1.4552 C   0  0  0  0  0  0  0  0  0  0  0  0
   -6.7011    0.0516    0.3312 C   0  0  0  0  0  0  0  0  0  0  0  0
   -7.0808    0.5643   -0.9093 C   0  0  0  0  0  0  0  0  0  0  0  0
    4.3256   -0.6871    1.0400 C   0  0  0  0  0  0  0  0  0  0  0  0
    4.3763   -0.3519   -1.3520 C   0  0  0  0  0  0  0  0  0  0  0  0
    5.1665    0.4124    1.2119 C   0  0  0  0  0  0  0  0  0  0  0  0
    5.2174    0.7477   -1.1802 C   0  0  0  0  0  0  0  0  0  0  0  0
    5.6126    1.1298    0.1019 C   0  0  0  0  0  0  0  0  0  0  0  0
  1 10  1  0
  1 14  1  0
  2 12  2  0
  3 17  1  0
  3 21  1  0
  4 17  2  0
  5  9  1  0
  6  9  2  0
  7 10  1  0
  7 12  1  0
  7 13  1  0
  8 11  1  0
  8 14  2  0
  9 32  1  0
 10 11  1  0
 11 12  1  0
 13 15  1  0
 13 17  1  0
 14 16  1  0
 15 18  1  0
 15 20  2  0
 16 19  1  0
 19 22  2  0
 19 23  1  0
 21 24  1  0
 22 25  1  0
 23 26  2  0
 24 28  2  0
 24 29  1  0
 25 27  2  0
 26 27  1  0
 28 30  1  0
 29 31  2  0
 30 32  2  0
 31 32  1  0
M  CHG  2   5  -1   9   1
M  END
>  <PUBCHEM_COMPOUND_CID>  (1) 
39563

>  <PUBCHEM_CONFORMER_RMSD>  (1) 
1.4

>  <PUBCHEM_CONFORMER_DIVERSEORDER>  (1) 
1
30
21
128
39
134
174
132
42
173
163
131
181
156
113
171
45
2
151
19
135
140
150
5
127
11
64
182
137
78
73
115
170
6
25
157
14
153
147
33
145
36
176
116
167
175
184
130
57
88
66
46
136
126
114
18
124
188
185
28
76
187
32
84
67
87
179
143
27
7
149
97
31
96
104
29
164
59
50
98
169
177
72
103
26
139
160
77
183
158
43
159
154
75
152
4
37
8
123
189
125
71
15
161
89
56
155
165
144
49
142
148
54
92
48
83
101
111
3
63
13
74
117
53
52
180
93
107
80
85
12
119
60
102
82
68
118
110
168
16
166
190
129
34
9
191
10
94
65
146
35
122
24
186
162
55
100
120
90
23
138
58
172
141
108
112
22
51
109
178
61
133
17
62
38
70
99
106
40
20
44
86
91
41
95
81
79
69
47
121
105

>  <PUBCHEM_MMFF94_PARTIAL_CHARGES>  (1) 
43
1 -0.36
10 0.44
11 0.34
12 0.58
13 0.5
14 0.53
15 -0.28
16 0.2
17 0.66
18 0.14
19 -0.14
2 -0.57
20 -0.3
21 0.42
22 -0.15
23 -0.15
24 -0.14
25 -0.15
26 -0.15
27 -0.15
28 -0.15
29 -0.15
3 -0.43
30 -0.15
31 -0.15
32 0.13
4 -0.57
41 0.15
42 0.15
45 0.15
46 0.15
47 0.15
48 0.15
49 0.15
5 -0.52
50 0.15
51 0.15
52 0.15
53 0.15
6 -0.52
7 -0.59
8 -0.74
9 0.91

>  <PUBCHEM_EFFECTIVE_ROTOR_COUNT>  (1) 
9.4

>  <PUBCHEM_PHARMACOPHORE_FEATURES>  (1) 
9
1 2 acceptor
1 4 acceptor
1 5 acceptor
1 5 anion
1 6 acceptor
1 8 acceptor
6 19 22 23 25 26 27 rings
6 24 28 29 30 31 32 rings
7 1 7 8 10 11 12 14 rings

>  <PUBCHEM_HEAVY_ATOM_COUNT>  (1) 
32

>  <PUBCHEM_ATOM_DEF_STEREO_COUNT>  (1) 
0

>  <PUBCHEM_ATOM_UDEF_STEREO_COUNT>  (1) 
3

>  <PUBCHEM_BOND_DEF_STEREO_COUNT>  (1) 
0

>  <PUBCHEM_BOND_UDEF_STEREO_COUNT>  (1) 
0

>  <PUBCHEM_ISOTOPIC_ATOM_COUNT>  (1) 
0

>  <PUBCHEM_COMPONENT_COUNT>  (1) 
1

>  <PUBCHEM_CACTVS_TAUTO_COUNT>  (1) 
1

>  <PUBCHEM_CONFORMER_ID>  (1) 
00009A8B00000001

>  <PUBCHEM_MMFF94_ENERGY>  (1) 
77.3536

>  <PUBCHEM_FEATURE_SELFOVERLAP>  (1) 
45.756

>  <PUBCHEM_SHAPE_FINGERPRINT>  (1) 
10074138 170 17822575018072253418
11007060 377 18342745113314453009
11135609 187 18413100650225308985
12422481 6 17458350706287553319
1361 2 18411983542058271800
14068700 686 18265896852677927765
14347424 109 11963400647553633742
14787075 74 18200031729628266147
14856354 85 14764341648913158941
14955137 171 10663519518917569451
15131766 46 15866350383258808468
15274700 34 17824558576251612187
15685185 35 18198056074774709836
16067689 68 15140958491460118769
20197701 30 18260833648929107835
20511986 3 17603300432484352547
21521721 280 18340211795874570611
21987483 16 18186804673550618107
23559900 14 17244170148790769843
3246875 12 18412544335847906955
4258327 124 18188502392286277892
4340502 62 18337675209247943607
437795 139 15431470414759508395
437795 163 18341887524879342407
437795 51 18201716267246549233
550186 72 18341895139376991961
6036956 94 17471574807602957892
6523845 18 18261960644458787158
9555976 147 14129640817732161449

>  <PUBCHEM_SHAPE_MULTIPOLES>  (1) 
618.1
17.61
3.96
1.63
4.64
2.64
0.1
-16.88
0.74
1.75
-0.47
-0.25
-0.1
1.2

>  <PUBCHEM_SHAPE_SELFOVERLAP>  (1) 
1322.692

>  <PUBCHEM_SHAPE_VOLUME>  (1) 
344.2

>  <PUBCHEM_COORDINATE_TYPE>  (1) 
2
5
10

$$$$
