39562
     RDKit          3D

 21 23  0  0  0  0  0  0  0  0999 V2000
   -1.9940   -2.6589    0.9149 Cl  0  0  0  0  0  0  0  0  0  0  0  0
   -5.5094    0.3426   -1.8424 Cl  0  0  0  0  0  0  0  0  0  0  0  0
    2.4445   -3.2730   -0.2949 O   0  0  0  0  0  0  0  0  0  0  0  0
    3.9854   -1.8916   -1.2349 O   0  0  0  0  0  0  0  0  0  0  0  0
    0.5255   -0.0589    0.9674 N   0  0  0  0  0  0  0  0  0  0  0  0
    1.0179   -1.2641    0.6354 N   0  0  0  0  0  0  0  0  0  0  0  0
    1.2733    0.9959    0.5182 C   0  0  0  0  0  0  0  0  0  0  0  0
   -0.6970    0.0145    1.7340 C   0  0  0  0  0  0  0  0  0  0  0  0
    2.3420    0.4235   -0.1626 C   0  0  0  0  0  0  0  0  0  0  0  0
   -1.9049    0.0638    0.8379 C   0  0  0  0  0  0  0  0  0  0  0  0
    2.1231   -0.9666   -0.0517 C   0  0  0  0  0  0  0  0  0  0  0  0
    1.1054    2.3761    0.6496 C   0  0  0  0  0  0  0  0  0  0  0  0
    3.3078    1.2561   -0.7521 C   0  0  0  0  0  0  0  0  0  0  0  0
    2.0748    3.1918    0.0569 C   0  0  0  0  0  0  0  0  0  0  0  0
   -2.5454   -1.0983    0.4251 C   0  0  0  0  0  0  0  0  0  0  0  0
   -2.3655    1.3111    0.4324 C   0  0  0  0  0  0  0  0  0  0  0  0
    3.1583    2.6434   -0.6320 C   0  0  0  0  0  0  0  0  0  0  0  0
    2.9345   -2.0276   -0.5797 C   0  0  0  0  0  0  0  0  0  0  0  0
   -3.6626   -1.0123   -0.4058 C   0  0  0  0  0  0  0  0  0  0  0  0
   -3.4826    1.3971   -0.3983 C   0  0  0  0  0  0  0  0  0  0  0  0
   -4.1311    0.2354   -0.8174 C   0  0  0  0  0  0  0  0  0  0  0  0
  1 15  1  0
  2 21  1  0
  3 18  1  0
  4 18  2  0
  5  6  1  0
  5  7  1  0
  5  8  1  0
  6 11  2  0
  7  9  2  0
  7 12  1  0
  8 10  1  0
  9 11  1  0
  9 13  1  0
 10 15  2  0
 10 16  1  0
 11 18  1  0
 12 14  2  0
 13 17  2  0
 14 17  1  0
 15 19  1  0
 16 20  2  0
 19 21  2  0
 20 21  1  0
M  END
>  <PUBCHEM_COMPOUND_CID>  (1) 
39562

>  <PUBCHEM_CONFORMER_RMSD>  (1) 
0.6

>  <PUBCHEM_CONFORMER_DIVERSEORDER>  (1) 
1
18
19
24
28
13
21
5
22
27
26
20
17
4
9
23
11
14
8
25
12
3
10
2
6
7
15
16

>  <PUBCHEM_MMFF94_PARTIAL_CHARGES>  (1) 
28
1 -0.18
10 -0.14
11 0.2
12 -0.15
13 -0.15
14 -0.15
15 0.18
16 -0.15
17 -0.15
18 0.81
19 -0.15
2 -0.18
20 -0.15
21 0.18
24 0.15
25 0.15
26 0.15
27 0.15
28 0.15
29 0.15
3 -0.65
30 0.15
31 0.5
4 -0.57
5 0.31
6 -0.71
7 -0.15
8 0.4

>  <PUBCHEM_EFFECTIVE_ROTOR_COUNT>  (1) 
3

>  <PUBCHEM_PHARMACOPHORE_FEATURES>  (1) 
7
1 3 acceptor
1 4 acceptor
1 6 acceptor
3 3 4 18 anion
5 5 6 7 9 11 rings
6 10 15 16 19 20 21 rings
6 7 9 12 13 14 17 rings

>  <PUBCHEM_HEAVY_ATOM_COUNT>  (1) 
21

>  <PUBCHEM_ATOM_DEF_STEREO_COUNT>  (1) 
0

>  <PUBCHEM_ATOM_UDEF_STEREO_COUNT>  (1) 
0

>  <PUBCHEM_BOND_DEF_STEREO_COUNT>  (1) 
0

>  <PUBCHEM_BOND_UDEF_STEREO_COUNT>  (1) 
0

>  <PUBCHEM_ISOTOPIC_ATOM_COUNT>  (1) 
0

>  <PUBCHEM_COMPONENT_COUNT>  (1) 
1

>  <PUBCHEM_CACTVS_TAUTO_COUNT>  (1) 
1

>  <PUBCHEM_CONFORMER_ID>  (1) 
00009A8A00000001

>  <PUBCHEM_MMFF94_ENERGY>  (1) 
44.3006

>  <PUBCHEM_FEATURE_SELFOVERLAP>  (1) 
35.68

>  <PUBCHEM_SHAPE_FINGERPRINT>  (1) 
10498660 4 17676757735047608805
10756046 5 18412263922002782161
10871710 139 16462495236562635339
11370993 70 18265328593622071662
116883 192 18124599678406880628
12363563 72 15626215802179926187
12553582 1 18123211012511924514
12730499 353 18264776626358988323
12892183 10 8934714552792984599
13004483 165 17903055752090761922
14250199 8 18409730655812617049
15475509 84 7997154372953808639
15502722 9 18340209690734063576
17539 30 17618505377010886086
17980427 23 17834068217512102904
18186145 218 18259979345684724505
20465049 17 17974289812124934133
20645477 70 18410856585668199187
21069387 34 17988926613407053751
21304303 282 16835120281487638028
21634736 98 18341335500499418518
221357 26 18337104562961184397
221490 88 18338249261612853226
22182313 1 18041568052343878115
22393880 68 18267871755770074652
23114952 82 18407758144579007949
23557571 272 17678182805032774243
23559900 14 18412255151357589755
23598288 3 17058119660582942721
23598291 2 18130517322838426489
238 59 18270118053435293334
26353 1 18047495343330233684
2748010 2 17402912501170587240
2838139 119 16300661878672300004
3472631 163 16951395689113867933
394222 165 13826988288801956747
4028521 119 18041552650554549381
4280585 95 18196661696688794542
5161694 15 18334854996313929127
5262128 65 18272098149444159495
5281201 14 18408603652204700541
6049 1 17896623810630216891
6287921 2 17899996098697557789
633830 44 18263628625077928781
7364860 26 18412829105333682408
7471813 234 18201153244194365596
81228 2 17764038969351496090
960060 61 18059559331192274341
9709674 26 18410012182334508811

>  <PUBCHEM_SHAPE_MULTIPOLES>  (1) 
414.21
8.52
3.36
1.29
7.12
0.67
-0.05
-0.86
-5.02
-3.5
-0.2
0.77
0.07
1.12

>  <PUBCHEM_SHAPE_SELFOVERLAP>  (1) 
896.164

>  <PUBCHEM_SHAPE_VOLUME>  (1) 
229.6

>  <PUBCHEM_COORDINATE_TYPE>  (1) 
2
5
10

$$$$
