39579
     RDKit          3D

 26 30  0  0  1  0  0  0  0  0999 V2000
   -0.5316    4.5585   -0.0741 O   0  0  0  0  0  0  0  0  0  0  0  0
    1.6450    3.5495    0.1166 O   0  0  0  0  0  0  0  0  0  0  0  0
    0.1769   -3.1027   -0.0582 O   0  0  0  0  0  0  0  0  0  0  0  0
   -0.4919   -0.9442   -0.0241 N   0  0  0  0  0  0  0  0  0  0  0  0
   -4.6129   -1.2339    0.3753 N   0  0  0  0  0  0  0  0  0  0  0  0
   -2.5518   -0.0191   -0.0678 C   0  0  0  0  0  0  0  0  0  0  0  0
   -1.8523   -1.2041   -0.0146 C   0  0  0  0  0  0  0  0  0  0  0  0
   -2.5167   -2.5427    0.0181 C   0  0  0  0  0  0  0  0  0  0  0  0
   -4.0439    0.0400   -0.1190 C   0  0  0  0  0  0  0  0  0  0  0  0
   -1.6081    1.0365   -0.0823 C   0  0  0  0  0  0  0  0  0  0  0  0
   -4.0172   -2.3977   -0.3131 C   0  0  0  0  0  0  0  0  0  0  0  0
   -0.3266    0.4499   -0.0167 C   0  0  0  0  0  0  0  0  0  0  0  0
   -1.7454    2.4445   -0.1222 C   0  0  0  0  0  0  0  0  0  0  0  0
    0.8318    1.2514    0.0831 C   0  0  0  0  0  0  0  0  0  0  0  0
   -6.0668   -1.2299    0.2126 C   0  0  0  0  0  0  0  0  0  0  0  0
    0.5248   -1.9258   -0.0192 C   0  0  0  0  0  0  0  0  0  0  0  0
   -0.5896    3.1980   -0.0602 C   0  0  0  0  0  0  0  0  0  0  0  0
    0.6479    2.6225    0.0461 C   0  0  0  0  0  0  0  0  0  0  0  0
    1.9726   -1.6590   -0.0050 C   0  0  0  0  0  0  0  0  0  0  0  0
    0.8893    4.7741    0.0344 C   0  0  0  0  0  0  0  0  0  0  0  0
    2.6459   -1.5382    1.2095 C   0  0  0  0  0  0  0  0  0  0  0  0
    2.6676   -1.5280   -1.2063 C   0  0  0  0  0  0  0  0  0  0  0  0
    4.0177   -1.2856    1.2228 C   0  0  0  0  0  0  0  0  0  0  0  0
    4.0394   -1.2757   -1.1931 C   0  0  0  0  0  0  0  0  0  0  0  0
    4.7146   -1.1545    0.0215 C   0  0  0  0  0  0  0  0  0  0  0  0
    6.1813   -0.8837    0.0360 C   0  0  0  0  0  0  0  0  0  0  0  0
  1 17  1  0
  1 20  1  0
  2 18  1  0
  2 20  1  0
  3 16  2  0
  4  7  1  0
  4 12  1  0
  4 16  1  0
  5  9  1  0
  5 11  1  0
  5 15  1  0
  6  7  2  0
  6  9  1  0
  6 10  1  0
  7  8  1  0
  8 11  1  0
 10 12  2  0
 10 13  1  0
 12 14  1  0
 13 17  2  0
 14 18  2  0
 16 19  1  0
 17 18  1  0
 19 21  2  0
 19 22  1  0
 21 23  1  0
 22 24  2  0
 23 25  2  0
 24 25  1  0
 25 26  1  0
M  END
>  <PUBCHEM_COMPOUND_CID>  (1) 
39579

>  <PUBCHEM_CONFORMER_RMSD>  (1) 
0.8

>  <PUBCHEM_CONFORMER_DIVERSEORDER>  (1) 
1
4
6
2
3
7
5

>  <PUBCHEM_MMFF94_PARTIAL_CHARGES>  (1) 
31
1 -0.36
11 0.27
12 -0.15
13 -0.15
14 -0.15
15 0.27
16 0.49
17 0.08
18 0.08
19 0.09
2 -0.36
20 0.56
21 -0.15
22 -0.15
23 -0.15
24 -0.15
25 -0.14
26 0.14
3 -0.57
33 0.15
34 0.15
4 0.29
40 0.15
41 0.15
42 0.15
43 0.15
5 -0.81
6 -0.18
7 -0.33
8 0.18
9 0.45

>  <PUBCHEM_EFFECTIVE_ROTOR_COUNT>  (1) 
3.4

>  <PUBCHEM_PHARMACOPHORE_FEATURES>  (1) 
9
1 1 acceptor
1 2 acceptor
1 3 acceptor
1 5 cation
5 1 2 17 18 20 rings
5 4 6 7 10 12 rings
6 10 12 13 14 17 18 rings
6 19 21 22 23 24 25 rings
6 5 6 7 8 9 11 rings

>  <PUBCHEM_HEAVY_ATOM_COUNT>  (1) 
26

>  <PUBCHEM_ATOM_DEF_STEREO_COUNT>  (1) 
0

>  <PUBCHEM_ATOM_UDEF_STEREO_COUNT>  (1) 
0

>  <PUBCHEM_BOND_DEF_STEREO_COUNT>  (1) 
0

>  <PUBCHEM_BOND_UDEF_STEREO_COUNT>  (1) 
0

>  <PUBCHEM_ISOTOPIC_ATOM_COUNT>  (1) 
0

>  <PUBCHEM_COMPONENT_COUNT>  (1) 
1

>  <PUBCHEM_CACTVS_TAUTO_COUNT>  (1) 
1

>  <PUBCHEM_CONFORMER_ID>  (1) 
00009A9B00000001

>  <PUBCHEM_MMFF94_ENERGY>  (1) 
75.7883

>  <PUBCHEM_FEATURE_SELFOVERLAP>  (1) 
46.004

>  <PUBCHEM_SHAPE_FINGERPRINT>  (1) 
10006869 2 17905603303604877499
10050765 1 18122343751942539787
10319926 262 18052235325632337066
10411042 1 18410573989557603971
10498660 4 18194401087627464452
10670039 82 18264502689662000678
10675989 125 16676955005678132453
10967382 1 18194401323581815613
1100329 8 18337673138984445363
11115154 58 17485610868833880269
11265709 11 18410012139015180897
11578080 2 17387384974318913052
12156800 1 11341745586476661716
12166972 35 17749112180018812982
12173636 292 17762054337525024572
12236239 1 17749108851398416242
12553582 1 18410569566052590479
12788726 201 18261393278540519938
13009979 54 17897993643622036514
13140716 1 18337394967169803939
13540713 4 17826227682596278107
13540713 5 17841718701898876239
138480 1 14735917726118027692
14020679 6 18042707052227995907
14081887 123 18195800774377126594
14347332 77 18195249915074122662
14787075 74 18113338621928008426
14790565 3 17475799749625725481
14955137 171 18410304622294420795
15042514 8 18266176119539846275
15230672 131 17327462931564734996
15475509 8 17914083952595885767
15664445 248 18342472447083661646
15927050 60 17691411132189355166
15961568 22 18411698833788708732
16087824 20 18266179419188488261
167882 2 18121500425552734253
17492 89 18050849124589600451
1813 80 18343026583626716255
18336668 15 18113339717212792828
18785283 64 18193282008160446771
19319366 153 17821445772476129690
19591789 44 18410293635583142893
20510252 161 18197779886622269282
20642791 35 18267872859677032692
21033648 29 17489011683334684747
21049683 271 18115316694980703397
21133665 82 17473833196561594348
21304253 13 18341897381391170193
21796203 349 17975453288135576331
2260408 40 17344378651447906803
23352939 185 18271815639459504248
23366157 5 17972315380792185869
23419403 2 17970882639578614519
23557571 272 18272091531290232430
23559900 14 18267578182171171283
23845131 108 17260479067669737161
24771293 8 18201429337281434872
24771750 20 17974583682049707629
283562 15 18264492788918422594
3091708 16 9282729713552377025
3298306 158 17904771329384373980
335352 9 18410572886594755295
352729 6 17329139175103633819
469060 322 18339655425141147186
5104073 3 18265908037353041683
532947 4 18122909994937839420
6443956 14 18337674225405170149
7364860 26 18195529409648039477
7808743 9 18122345680107925664
8863177 126 17752502099206745547
9981440 41 17255677495848066352

>  <PUBCHEM_SHAPE_MULTIPOLES>  (1) 
507.5
9.65
5.18
0.85
1.43
8.33
0
-8.91
0.36
-0.57
-0.05
0.75
-0.33
0.09

>  <PUBCHEM_SHAPE_SELFOVERLAP>  (1) 
1140.299

>  <PUBCHEM_SHAPE_VOLUME>  (1) 
268.4

>  <PUBCHEM_COORDINATE_TYPE>  (1) 
2
5
10

$$$$
