39571
     RDKit          3D

 26 30  0  0  1  0  0  0  0  0999 V2000
    4.2775    0.0698   -2.4376 Cl  0  0  0  0  0  0  0  0  0  0  0  0
   -0.4060    4.5716   -0.0169 O   0  0  0  0  0  0  0  0  0  0  0  0
    1.6805    3.5815    0.6600 O   0  0  0  0  0  0  0  0  0  0  0  0
    0.2001   -2.9532    1.1059 O   0  0  0  0  0  0  0  0  0  0  0  0
   -0.4200   -0.9200    0.3384 N   0  0  0  0  0  0  0  0  0  0  0  0
   -4.5398   -1.2006   -0.0796 N   0  0  0  0  0  0  0  0  0  0  0  0
   -2.4223   -0.0053   -0.1666 C   0  0  0  0  0  0  0  0  0  0  0  0
   -1.7568   -1.1834    0.0896 C   0  0  0  0  0  0  0  0  0  0  0  0
   -2.4247   -2.5203    0.0613 C   0  0  0  0  0  0  0  0  0  0  0  0
   -3.8736    0.0461   -0.5185 C   0  0  0  0  0  0  0  0  0  0  0  0
   -1.4865    1.0510   -0.0492 C   0  0  0  0  0  0  0  0  0  0  0  0
   -3.8276   -2.3984   -0.5708 C   0  0  0  0  0  0  0  0  0  0  0  0
   -0.2486    0.4730    0.3032 C   0  0  0  0  0  0  0  0  0  0  0  0
   -1.6022    2.4542   -0.1921 C   0  0  0  0  0  0  0  0  0  0  0  0
    0.8726    1.2825    0.5891 C   0  0  0  0  0  0  0  0  0  0  0  0
   -5.9317   -1.2103   -0.5299 C   0  0  0  0  0  0  0  0  0  0  0  0
    0.5675   -1.8966    0.5999 C   0  0  0  0  0  0  0  0  0  0  0  0
   -0.4762    3.2137    0.0589 C   0  0  0  0  0  0  0  0  0  0  0  0
    0.7105    2.6489    0.4417 C   0  0  0  0  0  0  0  0  0  0  0  0
    2.0006   -1.7705    0.2866 C   0  0  0  0  0  0  0  0  0  0  0  0
    0.9661    4.7974    0.3619 C   0  0  0  0  0  0  0  0  0  0  0  0
    2.4102   -1.0011   -0.8011 C   0  0  0  0  0  0  0  0  0  0  0  0
    2.9449   -2.4199    1.0800 C   0  0  0  0  0  0  0  0  0  0  0  0
    3.7682   -0.8807   -1.0962 C   0  0  0  0  0  0  0  0  0  0  0  0
    4.3028   -2.2996    0.7849 C   0  0  0  0  0  0  0  0  0  0  0  0
    4.7146   -1.5299   -0.3030 C   0  0  0  0  0  0  0  0  0  0  0  0
  1 24  1  0
  2 18  1  0
  2 21  1  0
  3 19  1  0
  3 21  1  0
  4 17  2  0
  5  8  1  0
  5 13  1  0
  5 17  1  0
  6 10  1  0
  6 12  1  0
  6 16  1  0
  7  8  2  0
  7 10  1  0
  7 11  1  0
  8  9  1  0
  9 12  1  0
 11 13  2  0
 11 14  1  0
 13 15  1  0
 14 18  2  0
 15 19  2  0
 17 20  1  0
 18 19  1  0
 20 22  2  0
 20 23  1  0
 22 24  1  0
 23 25  2  0
 24 26  2  0
 25 26  1  0
M  END
>  <PUBCHEM_COMPOUND_CID>  (1) 
39571

>  <PUBCHEM_CONFORMER_RMSD>  (1) 
0.8

>  <PUBCHEM_CONFORMER_DIVERSEORDER>  (1) 
1
13
9
12
7
5
8
11
14
6
10
4
15
3
18
2
16
17

>  <PUBCHEM_MMFF94_PARTIAL_CHARGES>  (1) 
31
1 -0.18
10 0.45
12 0.27
13 -0.15
14 -0.15
15 -0.15
16 0.27
17 0.49
18 0.08
19 0.08
2 -0.36
20 0.09
21 0.56
22 -0.15
23 -0.15
24 0.18
25 -0.15
26 -0.15
3 -0.36
33 0.15
34 0.15
4 -0.57
40 0.15
41 0.15
42 0.15
43 0.15
5 0.29
6 -0.81
7 -0.18
8 -0.33
9 0.18

>  <PUBCHEM_EFFECTIVE_ROTOR_COUNT>  (1) 
3.4

>  <PUBCHEM_PHARMACOPHORE_FEATURES>  (1) 
9
1 2 acceptor
1 3 acceptor
1 4 acceptor
1 6 cation
5 2 3 18 19 21 rings
5 5 7 8 11 13 rings
6 11 13 14 15 18 19 rings
6 20 22 23 24 25 26 rings
6 6 7 8 9 10 12 rings

>  <PUBCHEM_HEAVY_ATOM_COUNT>  (1) 
26

>  <PUBCHEM_ATOM_DEF_STEREO_COUNT>  (1) 
0

>  <PUBCHEM_ATOM_UDEF_STEREO_COUNT>  (1) 
0

>  <PUBCHEM_BOND_DEF_STEREO_COUNT>  (1) 
0

>  <PUBCHEM_BOND_UDEF_STEREO_COUNT>  (1) 
0

>  <PUBCHEM_ISOTOPIC_ATOM_COUNT>  (1) 
0

>  <PUBCHEM_COMPONENT_COUNT>  (1) 
1

>  <PUBCHEM_CACTVS_TAUTO_COUNT>  (1) 
1

>  <PUBCHEM_CONFORMER_ID>  (1) 
00009A9300000001

>  <PUBCHEM_MMFF94_ENERGY>  (1) 
73.7331

>  <PUBCHEM_FEATURE_SELFOVERLAP>  (1) 
46.004

>  <PUBCHEM_SHAPE_FINGERPRINT>  (1) 
10050765 1 18194959885065760303
10319926 262 17836334101389605434
10411042 1 18410848833279032531
1100329 8 18339643313808833545
11524674 6 17125361664728916032
11578080 2 17460564040252647556
11640471 11 17609240973729301518
12166972 35 17822287956023461750
12173636 292 17619059534639037100
12293681 160 18188789343625501710
12553582 1 18411698751572413339
12788726 201 18264501597954329814
13009979 54 17972023748524568338
13140716 1 18268986497115038168
133893 2 17982755226370422105
13402501 40 18196936797944534960
13540713 4 17971183979898069363
13590594 115 18410862019355976945
138480 1 14520868636339997113
13965767 371 16314698888304496762
14178342 30 17758944940581214938
14347332 77 18124600782404081678
14787075 74 18114188514393784163
14790565 3 17692536611264067809
14931854 50 18262819440090834060
14955137 171 18195557864133754771
15042514 8 18123467181314077523
15230672 131 17471011854014517380
15439362 3 18193552505211779061
15475509 8 17915203255512011495
15664445 248 18272101508182899750
15775530 1 17538292021908704291
15927050 60 17763746889747545095
16087824 20 18122903128393493629
17818456 19 17759793746361963098
1813 80 18202566172322933287
19319366 153 17823984429334729339
19591789 44 18410009910381146873
20028762 73 16181016544694679639
20642791 105 17899682475673955574
20642791 239 18190759684951008657
20642791 35 18340774852463715157
20715895 44 17320973144999078141
20775438 99 17766263654510199582
21033648 29 10881701120800853382
21033650 10 17977128789945053926
21049683 271 18188217605989372317
2132832 1 18114738227742983910
22182313 1 18266150938558293205
23352939 185 18271812332171175523
23366157 5 18118113908274773711
23557571 272 18057883542111467502
23558518 356 17686345269761600467
23559900 14 18196930183224894089
24771293 8 18201142356109191144
24771750 20 17974581487289731813
3004659 81 18114179696947432950
3091708 16 9499463268039371817
3298306 158 17835529597557600492
352729 6 17329982496221915569
4017518 198 17410214337049625708
469060 322 18268719311414893850
532947 4 18123471849700921972
57527293 21 17487588958507248066
57527358 35 14459138982623920210
6443956 14 18338232790212845381
6669772 16 17978791538449965380
7164475 11 18194404390415714654
7364860 26 18268425926894784049
9709674 26 18121493824657940419
9981440 41 17040910967515288176

>  <PUBCHEM_SHAPE_MULTIPOLES>  (1) 
509.37
8.62
5.38
1.15
2.66
8.03
0.54
-8.42
3.17
-0.41
-1.39
-1.48
-0.26
-0.7

>  <PUBCHEM_SHAPE_SELFOVERLAP>  (1) 
1137.947

>  <PUBCHEM_SHAPE_VOLUME>  (1) 
273.1

>  <PUBCHEM_COORDINATE_TYPE>  (1) 
2
5
10

$$$$
