39583
     RDKit          3D

 24 28  0  0  1  0  0  0  0  0999 V2000
   -3.1401    3.1268   -0.8485 S   0  0  0  0  0  0  0  0  0  0  0  0
   -0.5903   -4.4822    0.1127 O   0  0  0  0  0  0  0  0  0  0  0  0
   -2.5564   -3.1865   -0.3847 O   0  0  0  0  0  0  0  0  0  0  0  0
   -0.1730    3.0681   -0.9207 O   0  0  0  0  0  0  0  0  0  0  0  0
    0.2023    0.9534   -0.2169 N   0  0  0  0  0  0  0  0  0  0  0  0
    4.3388    0.6242   -0.1370 N   0  0  0  0  0  0  0  0  0  0  0  0
    2.0828   -0.2522    0.1157 C   0  0  0  0  0  0  0  0  0  0  0  0
    1.5788    1.0147   -0.0773 C   0  0  0  0  0  0  0  0  0  0  0  0
    2.4354    2.2395   -0.0948 C   0  0  0  0  0  0  0  0  0  0  0  0
    3.5345   -0.5210    0.3457 C   0  0  0  0  0  0  0  0  0  0  0  0
    0.9956   -1.1585    0.0710 C   0  0  0  0  0  0  0  0  0  0  0  0
    3.8512    1.9029    0.4200 C   0  0  0  0  0  0  0  0  0  0  0  0
   -0.1684   -0.3999   -0.1747 C   0  0  0  0  0  0  0  0  0  0  0  0
    0.9148   -2.5657    0.1972 C   0  0  0  0  0  0  0  0  0  0  0  0
   -1.4159   -1.0319   -0.3708 C   0  0  0  0  0  0  0  0  0  0  0  0
    5.7488    0.4226    0.1961 C   0  0  0  0  0  0  0  0  0  0  0  0
   -0.3273   -3.1482    0.0370 C   0  0  0  0  0  0  0  0  0  0  0  0
   -0.6491    2.0679   -0.3911 C   0  0  0  0  0  0  0  0  0  0  0  0
   -1.4451   -2.4096   -0.2436 C   0  0  0  0  0  0  0  0  0  0  0  0
   -2.0549    2.1464    0.0389 C   0  0  0  0  0  0  0  0  0  0  0  0
   -2.0073   -4.4984   -0.1502 C   0  0  0  0  0  0  0  0  0  0  0  0
   -2.6664    1.5208    1.1000 C   0  0  0  0  0  0  0  0  0  0  0  0
   -4.0497    1.8508    1.1873 C   0  0  0  0  0  0  0  0  0  0  0  0
   -4.4392    2.7160    0.1886 C   0  0  0  0  0  0  0  0  0  0  0  0
  1 20  1  0
  1 24  1  0
  2 17  1  0
  2 21  1  0
  3 19  1  0
  3 21  1  0
  4 18  2  0
  5  8  1  0
  5 13  1  0
  5 18  1  0
  6 10  1  0
  6 12  1  0
  6 16  1  0
  7  8  2  0
  7 10  1  0
  7 11  1  0
  8  9  1  0
  9 12  1  0
 11 13  2  0
 11 14  1  0
 13 15  1  0
 14 17  2  0
 15 19  2  0
 17 19  1  0
 18 20  1  0
 20 22  2  0
 22 23  1  0
 23 24  2  0
M  END
>  <PUBCHEM_COMPOUND_CID>  (1) 
39583

>  <PUBCHEM_CONFORMER_RMSD>  (1) 
0.6

>  <PUBCHEM_CONFORMER_DIVERSEORDER>  (1) 
2
10
12
13
16
18
7
14
3
15
6
17
4
11
22
20
5
8
19
23
9
21
1

>  <PUBCHEM_MMFF94_PARTIAL_CHARGES>  (1) 
28
1 -0.08
10 0.45
12 0.27
13 -0.15
14 -0.15
15 -0.15
16 0.27
17 0.08
18 0.66
19 0.08
2 -0.36
20 -0.05
21 0.56
22 -0.15
23 -0.15
24 -0.11
3 -0.36
31 0.15
32 0.15
38 0.15
39 0.15
4 -0.57
40 0.15
5 0.29
6 -0.81
7 -0.18
8 -0.33
9 0.18

>  <PUBCHEM_EFFECTIVE_ROTOR_COUNT>  (1) 
3.4

>  <PUBCHEM_PHARMACOPHORE_FEATURES>  (1) 
9
1 2 acceptor
1 3 acceptor
1 4 acceptor
1 6 cation
5 1 20 22 23 24 rings
5 2 3 17 19 21 rings
5 5 7 8 11 13 rings
6 11 13 14 15 17 19 rings
6 6 7 8 9 10 12 rings

>  <PUBCHEM_HEAVY_ATOM_COUNT>  (1) 
24

>  <PUBCHEM_ATOM_DEF_STEREO_COUNT>  (1) 
0

>  <PUBCHEM_ATOM_UDEF_STEREO_COUNT>  (1) 
0

>  <PUBCHEM_BOND_DEF_STEREO_COUNT>  (1) 
0

>  <PUBCHEM_BOND_UDEF_STEREO_COUNT>  (1) 
0

>  <PUBCHEM_ISOTOPIC_ATOM_COUNT>  (1) 
0

>  <PUBCHEM_COMPONENT_COUNT>  (1) 
1

>  <PUBCHEM_CACTVS_TAUTO_COUNT>  (1) 
1

>  <PUBCHEM_CONFORMER_ID>  (1) 
00009A9F00000002

>  <PUBCHEM_MMFF94_ENERGY>  (1) 
60.8713

>  <PUBCHEM_FEATURE_SELFOVERLAP>  (1) 
46.004

>  <PUBCHEM_SHAPE_FINGERPRINT>  (1) 
10050765 1 18339079423922218976
10074138 170 18264744684613582930
10411042 1 17834113426417799598
10493431 412 18412264999844466224
10967382 1 18050284760868329838
1100329 8 18412546539335733936
11115154 58 17341221013113996087
11578080 2 15403365792987503976
11582403 64 16881284058816395341
12553582 1 17688323699269920878
12597179 24 18201444623650511174
12788726 201 17977396249878325588
13004483 165 17980472687602730802
13052359 8 18411136952321736440
13134695 92 17332518485046975791
13140716 1 18338515240104512152
13540713 5 18115305726336089364
13583140 156 16733252470188283436
138480 1 17186157570362100735
13911987 19 18335415703999880941
140371 6 17759239987696284780
14178000 15 17474950303624674919
14178342 30 18265879441112300064
14363568 33 17620775894034097467
14787075 74 18060693992642892633
14790565 3 18266747878957209364
14863182 85 18046652039333882885
14866123 147 18410570682817992610
15042514 8 18337957899410027786
15475509 84 17468783109236500963
15927050 60 18340205176961585606
16087824 20 18265614471974683831
16728300 4 17028792241128230466
17138139 8 17699247154656632165
19427546 20 18264498454682042668
19591789 44 18050572846106001998
1979834 28 17905091081716061457
20028762 73 18128242399105709111
204376 136 18339643321886837713
20642791 13 18268144452060459302
20645477 70 17830168001172500165
20739085 24 17904500505900365216
21029758 11 17762609994571495791
21033648 29 18268414768523452536
21041028 32 17906736152009396575
21197605 99 18337406976430802179
21202864 24 18410863165326118137
21236236 1 18341610456079718708
21478907 32 18122061172013982782
21796203 349 17116101109294566947
22033318 11 17330599773645096131
221490 88 17327744998707322197
22224240 67 18343022151727317593
23419403 2 16984387527204856431
23558518 356 18190179190668463848
23559900 14 17327169949609839209
23845131 108 18337391531322074051
25147074 1 17969502787895773084
283562 15 18193266627598041578
3091708 16 9412799752737168595
3178227 256 17978243659700244650
33824 294 18121503458026635025
350125 39 18411140272468846753
3729539 64 17764896605812547110
3886686 26 17979313635417987208
5104073 3 18341036524454396976
59755656 520 18341331098258407460
6438718 38 18060418057719826263
6443956 14 17328017080136901974
6669772 16 18127131871177014862
7164475 11 18049725410546226932
7364860 26 17833832664215106393
81228 2 18045774852208600632
9777508 108 18341042025305247760

>  <PUBCHEM_SHAPE_MULTIPOLES>  (1) 
470.19
7.72
5.74
0.82
4.01
7.89
-0.08
-8.19
-1.38
-3.52
0.66
-0.54
-0.34
-0.13

>  <PUBCHEM_SHAPE_SELFOVERLAP>  (1) 
1047.109

>  <PUBCHEM_SHAPE_VOLUME>  (1) 
254.8

>  <PUBCHEM_COORDINATE_TYPE>  (1) 
2
5
10

$$$$
