39589
     RDKit          3D

 11 10  0  0  0  0  0  0  0  0999 V2000
   -0.1362    1.8979    0.9841 O   0  0  0  0  0  0  0  0  0  0  0  0
    2.7522   -0.8534   -1.2087 O   0  0  0  0  0  0  0  0  0  0  0  0
   -1.0385   -0.0394    0.1271 N   0  0  0  0  0  0  0  0  0  0  0  0
    1.3330    0.3566    0.1182 N   0  0  0  0  0  0  0  0  0  0  0  0
    1.5657   -0.5488   -1.0465 N   0  0  0  0  0  0  0  0  0  0  0  0
   -0.9192   -1.4961    0.1059 C   0  0  0  0  0  0  0  0  0  0  0  0
   -2.3582    0.4823   -0.2022 C   0  0  0  0  0  0  0  0  0  0  0  0
    0.0432    0.7983    0.4428 C   0  0  0  0  0  0  0  0  0  0  0  0
   -1.2357   -2.0928    1.4668 C   0  0  0  0  0  0  0  0  0  0  0  0
   -2.4944    0.7283   -1.6953 C   0  0  0  0  0  0  0  0  0  0  0  0
    2.4881    0.7671    0.9077 C   0  0  0  0  0  0  0  0  0  0  0  0
  1  8  2  0
  2  5  2  0
  3  6  1  0
  3  7  1  0
  3  8  1  0
  4  5  1  0
  4  8  1  0
  4 11  1  0
  6  9  1  0
  7 10  1  0
M  END
>  <PUBCHEM_COMPOUND_CID>  (1) 
39589

>  <PUBCHEM_CONFORMER_RMSD>  (1) 
0.6

>  <PUBCHEM_CONFORMER_DIVERSEORDER>  (1) 
2
13
6
15
8
5
11
7
14
1
10
9
12
3
4

>  <PUBCHEM_MMFF94_PARTIAL_CHARGES>  (1) 
9
1 -0.57
11 0.3
2 -0.16
3 -0.66
4 -0.18
5 -0.02
6 0.3
7 0.3
8 0.69

>  <PUBCHEM_EFFECTIVE_ROTOR_COUNT>  (1) 
5

>  <PUBCHEM_PHARMACOPHORE_FEATURES>  (1) 
1
1 1 acceptor

>  <PUBCHEM_HEAVY_ATOM_COUNT>  (1) 
11

>  <PUBCHEM_ATOM_DEF_STEREO_COUNT>  (1) 
0

>  <PUBCHEM_ATOM_UDEF_STEREO_COUNT>  (1) 
0

>  <PUBCHEM_BOND_DEF_STEREO_COUNT>  (1) 
0

>  <PUBCHEM_BOND_UDEF_STEREO_COUNT>  (1) 
0

>  <PUBCHEM_ISOTOPIC_ATOM_COUNT>  (1) 
0

>  <PUBCHEM_COMPONENT_COUNT>  (1) 
1

>  <PUBCHEM_CACTVS_TAUTO_COUNT>  (1) 
1

>  <PUBCHEM_CONFORMER_ID>  (1) 
00009AA500000002

>  <PUBCHEM_MMFF94_ENERGY>  (1) 
30.8399

>  <PUBCHEM_FEATURE_SELFOVERLAP>  (1) 
5.074

>  <PUBCHEM_SHAPE_FINGERPRINT>  (1) 
1 1 17535439583977147763
12138202 97 18265316464724176638
12423570 1 9140117317237205051
12716758 59 18261109668822397626
15310529 11 16443074897365851312
18534176 82 18189324835240940140
20201158 50 18201711868978348996
20711978 78 17627527251773297019
20711985 344 17823427169833108235
21040471 1 17968366879902247227
21061003 4 17770801292058429680
23552333 60 15841259432759007676
2748010 2 18271532008440988998
29004967 10 17987525973042718344

>  <PUBCHEM_SHAPE_MULTIPOLES>  (1) 
199.69
3.64
1.84
1.43
1.09
1.12
0.28
-0.72
1.13
-1.15
-0.56
0.42
-0.15
0.96

>  <PUBCHEM_SHAPE_SELFOVERLAP>  (1) 
366.641

>  <PUBCHEM_SHAPE_VOLUME>  (1) 
126.2

>  <PUBCHEM_COORDINATE_TYPE>  (1) 
2
5
10

$$$$
