39585
     RDKit          3D

 25 29  0  0  1  0  0  0  0  0999 V2000
    2.1185   -1.2314   -1.5335 O   0  0  0  0  0  0  0  0  0  0  0  0
   -1.9160    4.0687   -0.1512 O   0  0  0  0  0  0  0  0  0  0  0  0
   -3.9827    2.9940    0.4515 O   0  0  0  0  0  0  0  0  0  0  0  0
    0.2627   -0.4236   -0.4728 N   0  0  0  0  0  0  0  0  0  0  0  0
   -2.1041   -3.8190   -0.0731 N   0  0  0  0  0  0  0  0  0  0  0  0
    3.8448    0.5985   -0.3499 C   0  0  0  0  0  0  0  0  0  0  0  0
    4.6740    1.8123    0.0577 C   0  0  0  0  0  0  0  0  0  0  0  0
    4.1034   -0.3723    0.7978 C   0  0  0  0  0  0  0  0  0  0  0  0
    5.9531    1.2118    0.6329 C   0  0  0  0  0  0  0  0  0  0  0  0
    5.5885   -0.1990    1.0985 C   0  0  0  0  0  0  0  0  0  0  0  0
    2.3728    0.9170   -0.5446 C   0  0  0  0  0  0  0  0  0  0  0  0
   -0.3608   -1.6372   -0.1922 C   0  0  0  0  0  0  0  0  0  0  0  0
   -1.6858   -1.4298    0.1130 C   0  0  0  0  0  0  0  0  0  0  0  0
    1.6118   -0.3177   -0.8926 C   0  0  0  0  0  0  0  0  0  0  0  0
    0.2487   -3.0050   -0.2402 C   0  0  0  0  0  0  0  0  0  0  0  0
   -0.7001    0.5900   -0.2679 C   0  0  0  0  0  0  0  0  0  0  0  0
   -1.9182   -0.0368    0.0864 C   0  0  0  0  0  0  0  0  0  0  0  0
   -2.6317   -2.5382    0.4456 C   0  0  0  0  0  0  0  0  0  0  0  0
   -0.7142   -4.0456    0.3696 C   0  0  0  0  0  0  0  0  0  0  0  0
   -0.6409    2.0002   -0.3656 C   0  0  0  0  0  0  0  0  0  0  0  0
   -3.0791    0.7328    0.3450 C   0  0  0  0  0  0  0  0  0  0  0  0
   -1.8009    2.7108   -0.1030 C   0  0  0  0  0  0  0  0  0  0  0  0
   -2.9758    2.1033    0.2386 C   0  0  0  0  0  0  0  0  0  0  0  0
   -2.9648   -4.9240    0.3490 C   0  0  0  0  0  0  0  0  0  0  0  0
   -3.3032    4.2401    0.2010 C   0  0  0  0  0  0  0  0  0  0  0  0
  1 14  2  0
  2 22  1  0
  2 25  1  0
  3 23  1  0
  3 25  1  0
  4 12  1  0
  4 14  1  0
  4 16  1  0
  5 18  1  0
  5 19  1  0
  5 24  1  0
  6  7  1  0
  6  8  1  0
  6 11  1  0
  7  9  1  0
  8 10  1  0
  9 10  1  0
 11 14  1  0
 12 13  2  0
 12 15  1  0
 13 17  1  0
 13 18  1  0
 15 19  1  0
 16 17  2  0
 16 20  1  0
 17 21  1  0
 20 22  2  0
 21 23  2  0
 22 23  1  0
M  END
>  <PUBCHEM_COMPOUND_CID>  (1) 
39585

>  <PUBCHEM_CONFORMER_RMSD>  (1) 
0.8

>  <PUBCHEM_CONFORMER_DIVERSEORDER>  (1) 
1
21
9
18
11
10
20
19
12
23
8
15
14
24
16
22
6
17
26
4
25
3
28
7
27
5
13
2

>  <PUBCHEM_MMFF94_PARTIAL_CHARGES>  (1) 
21
1 -0.57
11 0.06
12 -0.33
13 -0.18
14 0.52
15 0.18
16 -0.15
18 0.45
19 0.27
2 -0.36
20 -0.15
21 -0.15
22 0.08
23 0.08
24 0.27
25 0.56
3 -0.36
4 0.29
43 0.15
44 0.15
5 -0.81

>  <PUBCHEM_EFFECTIVE_ROTOR_COUNT>  (1) 
5.4

>  <PUBCHEM_PHARMACOPHORE_FEATURES>  (1) 
9
1 1 acceptor
1 2 acceptor
1 3 acceptor
1 5 cation
5 2 3 22 23 25 rings
5 4 12 13 16 17 rings
5 6 7 8 9 10 rings
6 16 17 20 21 22 23 rings
6 5 12 13 15 18 19 rings

>  <PUBCHEM_HEAVY_ATOM_COUNT>  (1) 
25

>  <PUBCHEM_ATOM_DEF_STEREO_COUNT>  (1) 
0

>  <PUBCHEM_ATOM_UDEF_STEREO_COUNT>  (1) 
0

>  <PUBCHEM_BOND_DEF_STEREO_COUNT>  (1) 
0

>  <PUBCHEM_BOND_UDEF_STEREO_COUNT>  (1) 
0

>  <PUBCHEM_ISOTOPIC_ATOM_COUNT>  (1) 
0

>  <PUBCHEM_COMPONENT_COUNT>  (1) 
1

>  <PUBCHEM_CACTVS_TAUTO_COUNT>  (1) 
1

>  <PUBCHEM_CONFORMER_ID>  (1) 
00009AA100000001

>  <PUBCHEM_MMFF94_ENERGY>  (1) 
65.0281

>  <PUBCHEM_FEATURE_SELFOVERLAP>  (1) 
45.999

>  <PUBCHEM_SHAPE_FINGERPRINT>  (1) 
10074138 170 18337656603127604714
10319926 262 18341879819860409658
10411042 1 17906454677022493543
1100329 8 18193280917433893363
11049842 53 18119274812698148054
11056379 131 18338245976337080550
11265709 11 17977387466375390654
11370993 70 18267302028253258472
11552529 35 18335409227757948562
11582403 64 17701236067468257764
12107183 9 18191293885390591250
12173636 292 18410575059009508532
12293681 160 18195779987125895477
12553582 1 17905914799749372703
12788726 201 18045515359069767446
13004483 165 18051406567835376322
13140716 1 18194968671634404665
138480 1 16969141436891138917
13955234 65 17546174004593953601
13965767 371 17825388470996574028
14178342 30 18408045130389299014
14420673 8 18265330600533186434
14787075 74 18130780123482424417
14844126 61 18335137656385323827
15042514 8 18337393862930477571
15230672 131 18192156993729822918
15326921 28 17975667534712999512
15842332 3 17750530631643991836
15927050 60 18267584615774627310
15950262 2 15480457896772637011
16087824 20 18410857707699467127
17980427 26 17764013680083196429
19246450 95 17614252509311740120
19301679 30 18337394962791090250
20101258 96 18049732002967338800
20600515 1 17767142151489223358
21033648 29 18195822781737524676
212916 134 18269258081156404624
21304303 282 18195219201429848535
21650355 55 18265897054013544758
21796203 349 17180562649842515578
22149856 69 17905076680950129009
23402539 116 18198054979098808383
23558518 356 18333736827522799146
23845131 108 18192716648825461025
283562 15 18340763763686604657
3091708 16 9055041737444249499
3117164 225 18265041450227852354
3178227 256 18191038979329857147
345986 75 17826487123699670994
3886686 26 18193548970665094242
4409770 3 18262507195862983959
508706 21 18342742914422656862
5104073 3 17759537569033101513
57124632 79 17834105351683792688
58807428 26 18264491676490127392
7097593 13 18187916245672842074
7364860 26 17472425348544595071
77188 2 17834113430743655391
7808743 9 18410576197788174152
79837 15 18409451349462185787
84936 182 17765997203365298433
90316 7 18194971974232458530
9777508 108 18411704253235440034
9981440 41 18264490581516391849

>  <PUBCHEM_SHAPE_MULTIPOLES>  (1) 
486.92
9.28
6.17
0.87
17.25
1.45
0.07
-3.15
-2.91
-10.88
-0.63
0.61
0.15
0

>  <PUBCHEM_SHAPE_SELFOVERLAP>  (1) 
1075.434

>  <PUBCHEM_SHAPE_VOLUME>  (1) 
262.1

>  <PUBCHEM_COORDINATE_TYPE>  (1) 
2
5
10

$$$$
