39581
     RDKit          3D

 27 31  0  0  1  0  0  0  0  0999 V2000
   -0.9435    4.5587   -0.0652 O   0  0  0  0  0  0  0  0  0  0  0  0
    1.2732    3.6284    0.0484 O   0  0  0  0  0  0  0  0  0  0  0  0
    0.0420   -3.0716   -0.1270 O   0  0  0  0  0  0  0  0  0  0  0  0
    5.8355   -0.6681   -0.2044 O   0  0  0  0  0  0  0  0  0  0  0  0
   -0.7031   -0.9392   -0.0560 N   0  0  0  0  0  0  0  0  0  0  0  0
   -4.7959   -1.3810    0.4733 N   0  0  0  0  0  0  0  0  0  0  0  0
   -2.7954   -0.0894   -0.0270 C   0  0  0  0  0  0  0  0  0  0  0  0
   -2.0522   -1.2485   -0.0048 C   0  0  0  0  0  0  0  0  0  0  0  0
   -2.6662   -2.6105    0.0397 C   0  0  0  0  0  0  0  0  0  0  0  0
   -4.2896   -0.0844   -0.0299 C   0  0  0  0  0  0  0  0  0  0  0  0
   -1.8915    0.9999   -0.0641 C   0  0  0  0  0  0  0  0  0  0  0  0
   -4.1810   -2.5182   -0.2422 C   0  0  0  0  0  0  0  0  0  0  0  0
   -0.5881    0.4600   -0.0439 C   0  0  0  0  0  0  0  0  0  0  0  0
   -2.0809    2.4022   -0.0895 C   0  0  0  0  0  0  0  0  0  0  0  0
    0.5431    1.3025    0.0245 C   0  0  0  0  0  0  0  0  0  0  0  0
   -6.2534   -1.4290    0.3573 C   0  0  0  0  0  0  0  0  0  0  0  0
    0.3481   -1.8831   -0.0908 C   0  0  0  0  0  0  0  0  0  0  0  0
   -0.9517    3.1969   -0.0592 C   0  0  0  0  0  0  0  0  0  0  0  0
    0.3086    2.6662    0.0032 C   0  0  0  0  0  0  0  0  0  0  0  0
    1.7850   -1.5639   -0.1211 C   0  0  0  0  0  0  0  0  0  0  0  0
    0.4714    4.8252   -0.0008 C   0  0  0  0  0  0  0  0  0  0  0  0
    2.4917   -1.4260    1.0726 C   0  0  0  0  0  0  0  0  0  0  0  0
    2.4367   -1.4006   -1.3427 C   0  0  0  0  0  0  0  0  0  0  0  0
    3.8533   -1.1242    1.0446 C   0  0  0  0  0  0  0  0  0  0  0  0
    3.7982   -1.0989   -1.3705 C   0  0  0  0  0  0  0  0  0  0  0  0
    4.5066   -0.9607   -0.1770 C   0  0  0  0  0  0  0  0  0  0  0  0
    6.4989   -0.5427    1.0526 C   0  0  0  0  0  0  0  0  0  0  0  0
  1 18  1  0
  1 21  1  0
  2 19  1  0
  2 21  1  0
  3 17  2  0
  4 26  1  0
  4 27  1  0
  5  8  1  0
  5 13  1  0
  5 17  1  0
  6 10  1  0
  6 12  1  0
  6 16  1  0
  7  8  2  0
  7 10  1  0
  7 11  1  0
  8  9  1  0
  9 12  1  0
 11 13  2  0
 11 14  1  0
 13 15  1  0
 14 18  2  0
 15 19  2  0
 17 20  1  0
 18 19  1  0
 20 22  2  0
 20 23  1  0
 22 24  1  0
 23 25  2  0
 24 26  2  0
 25 26  1  0
M  END
>  <PUBCHEM_COMPOUND_CID>  (1) 
39581

>  <PUBCHEM_CONFORMER_RMSD>  (1) 
0.8

>  <PUBCHEM_CONFORMER_DIVERSEORDER>  (1) 
1
5
4
9
3
2
6
10
8
7

>  <PUBCHEM_MMFF94_PARTIAL_CHARGES>  (1) 
32
1 -0.36
10 0.45
12 0.27
13 -0.15
14 -0.15
15 -0.15
16 0.27
17 0.49
18 0.08
19 0.08
2 -0.36
20 0.09
21 0.56
22 -0.15
23 -0.15
24 -0.15
25 -0.15
26 0.08
27 0.28
3 -0.57
34 0.15
35 0.15
4 -0.36
41 0.15
42 0.15
43 0.15
44 0.15
5 0.29
6 -0.81
7 -0.18
8 -0.33
9 0.18

>  <PUBCHEM_EFFECTIVE_ROTOR_COUNT>  (1) 
4.4

>  <PUBCHEM_PHARMACOPHORE_FEATURES>  (1) 
10
1 1 acceptor
1 2 acceptor
1 3 acceptor
1 4 acceptor
1 6 cation
5 1 2 18 19 21 rings
5 5 7 8 11 13 rings
6 11 13 14 15 18 19 rings
6 20 22 23 24 25 26 rings
6 6 7 8 9 10 12 rings

>  <PUBCHEM_HEAVY_ATOM_COUNT>  (1) 
27

>  <PUBCHEM_ATOM_DEF_STEREO_COUNT>  (1) 
0

>  <PUBCHEM_ATOM_UDEF_STEREO_COUNT>  (1) 
0

>  <PUBCHEM_BOND_DEF_STEREO_COUNT>  (1) 
0

>  <PUBCHEM_BOND_UDEF_STEREO_COUNT>  (1) 
0

>  <PUBCHEM_ISOTOPIC_ATOM_COUNT>  (1) 
0

>  <PUBCHEM_COMPONENT_COUNT>  (1) 
1

>  <PUBCHEM_CACTVS_TAUTO_COUNT>  (1) 
1

>  <PUBCHEM_CONFORMER_ID>  (1) 
00009A9D00000001

>  <PUBCHEM_MMFF94_ENERGY>  (1) 
87.5873

>  <PUBCHEM_FEATURE_SELFOVERLAP>  (1) 
51.079

>  <PUBCHEM_SHAPE_FINGERPRINT>  (1) 
10006869 2 18049998892878852555
10319926 262 18124296231100515146
10369192 42 17060049394369882352
10411042 1 18410575110623183031
10498660 4 18194402191333897724
10670039 82 18264504905859675358
10675989 125 16821070206696879989
1100329 8 18265052612051626491
11115154 58 17558234720029136149
11265709 11 18410013247406848177
11578080 2 17459725155698458813
11963148 33 17114661277291091663
12156800 1 15649541966758673333
12166972 35 17676207983486360326
12173636 292 17834114143413100709
12236239 1 17676487225006671658
12516196 113 18410012152053661291
12553582 1 18410570678533574663
12788726 201 18260828142216623482
13140716 1 18265619960573701067
13402501 40 18343858927325255504
13540713 4 17754168997673606251
13540713 5 17841718714799641359
13782708 43 17560528283492663774
138480 1 14879753646983369877
13965767 371 17104252780889113180
14020679 6 18042708160387632523
14787075 74 18113338634770679794
14790565 3 17475799749799792265
14955137 171 18337964466647755475
15042514 8 18338235934049336459
15927050 60 17547297056478283030
15961568 22 18339644542527936020
16087824 20 18266178332646125941
167882 2 18049442844521046989
17492 89 18120372060583447730
1813 80 18343030990384435839
18336668 15 18113338626016767036
18785283 64 18193565690840057339
20510252 161 18197780998913264898
20642791 105 18114738227004460532
20642791 35 18196101146967444084
21033648 29 17489013890990066387
21033650 10 18118991108749577854
21049683 271 18115317807524900133
21133665 82 17330000600074870308
21304253 13 18341897394334074881
21344244 246 17908968152524975215
21796203 349 17975452205888220257
2260408 40 17344380863345514731
23352939 185 18271817846845906016
23366157 5 17972597968307864029
23402539 116 18342450461336178686
23557571 272 18271529693706895558
23558518 356 17756995506027207595
23559900 14 18267296724458680395
23845131 108 17404311698484589993
24771293 8 18201997780424187601
24771750 20 17974583690750418501
283562 15 18336830771090025026
3298306 158 17832996318203218484
335352 9 18410291424555713519
352729 6 17401198976881339419
392239 28 18408887330583887392
469060 322 18339656541758810584
5104073 3 18194134130210583315
532947 4 18051137183143910397
58902169 19 12535054387804844370
7399639 24 18060138687699571142
7808743 9 18194683662422069808
8863177 126 17752502112133851955
9981440 41 18047470028713850146

>  <PUBCHEM_SHAPE_MULTIPOLES>  (1) 
522.21
10.65
5.06
0.89
5.01
8.23
-0.06
-9.07
1.83
-1.9
-0.14
0.94
-0.34
0.21

>  <PUBCHEM_SHAPE_SELFOVERLAP>  (1) 
1170.744

>  <PUBCHEM_SHAPE_VOLUME>  (1) 
276.7

>  <PUBCHEM_COORDINATE_TYPE>  (1) 
2
5
10

$$$$
