39593
     RDKit          3D

 16 16  0  0  1  0  0  0  0  0999 V2000
    0.8564    0.3586   -1.4366 O   0  0  0  0  0  0  0  0  0  0  0  0
    3.2882    0.1167   -0.1559 N   0  0  0  0  0  0  0  0  0  0  0  0
   -0.2073    0.3027    0.6556 N   0  0  0  0  0  0  0  0  0  0  0  0
    2.1517    0.6776    0.5737 C   0  0  0  0  0  0  0  0  0  0  0  0
   -1.5614    0.0673    0.3178 C   0  0  0  0  0  0  0  0  0  0  0  0
    4.5374    0.3934    0.5527 C   0  0  0  0  0  0  0  0  0  0  0  0
   -2.4049    1.1451    0.0925 C   0  0  0  0  0  0  0  0  0  0  0  0
   -2.0221   -1.2371    0.2186 C   0  0  0  0  0  0  0  0  0  0  0  0
    0.8754    0.4311   -0.2121 C   0  0  0  0  0  0  0  0  0  0  0  0
    3.1151   -1.3233   -0.3431 C   0  0  0  0  0  0  0  0  0  0  0  0
   -3.7396    0.9131   -0.2393 C   0  0  0  0  0  0  0  0  0  0  0  0
   -3.3569   -1.4691   -0.1134 C   0  0  0  0  0  0  0  0  0  0  0  0
    5.7353   -0.1290   -0.2222 C   0  0  0  0  0  0  0  0  0  0  0  0
   -1.9248    2.5566    0.1960 C   0  0  0  0  0  0  0  0  0  0  0  0
   -1.1268   -2.4096    0.4580 C   0  0  0  0  0  0  0  0  0  0  0  0
   -4.2156   -0.3939   -0.3424 C   0  0  0  0  0  0  0  0  0  0  0  0
  1  9  2  0
  2  4  1  0
  2  6  1  0
  2 10  1  0
  3  5  1  0
  3  9  1  0
  4  9  1  0
  5  7  2  0
  5  8  1  0
  6 13  1  0
  7 11  1  0
  7 14  1  0
  8 12  2  0
  8 15  1  0
 11 16  2  0
 12 16  1  0
M  END
>  <PUBCHEM_COMPOUND_CID>  (1) 
39593

>  <PUBCHEM_CONFORMER_RMSD>  (1) 
0.6

>  <PUBCHEM_CONFORMER_DIVERSEORDER>  (1) 
1
13
14
8
9
10
3
7
12
15
11
2
6
4
5

>  <PUBCHEM_MMFF94_PARTIAL_CHARGES>  (1) 
19
1 -0.57
10 0.27
11 -0.15
12 -0.15
14 0.14
15 0.14
16 -0.15
2 -0.81
21 0.37
25 0.15
26 0.15
3 -0.55
36 0.15
4 0.33
5 0.12
6 0.27
7 -0.14
8 -0.14
9 0.57

>  <PUBCHEM_EFFECTIVE_ROTOR_COUNT>  (1) 
5

>  <PUBCHEM_PHARMACOPHORE_FEATURES>  (1) 
4
1 1 acceptor
1 2 cation
1 3 donor
6 5 7 8 11 12 16 rings

>  <PUBCHEM_HEAVY_ATOM_COUNT>  (1) 
16

>  <PUBCHEM_ATOM_DEF_STEREO_COUNT>  (1) 
0

>  <PUBCHEM_ATOM_UDEF_STEREO_COUNT>  (1) 
0

>  <PUBCHEM_BOND_DEF_STEREO_COUNT>  (1) 
0

>  <PUBCHEM_BOND_UDEF_STEREO_COUNT>  (1) 
0

>  <PUBCHEM_ISOTOPIC_ATOM_COUNT>  (1) 
0

>  <PUBCHEM_COMPONENT_COUNT>  (1) 
1

>  <PUBCHEM_CACTVS_TAUTO_COUNT>  (1) 
2

>  <PUBCHEM_CONFORMER_ID>  (1) 
00009AA900000001

>  <PUBCHEM_MMFF94_ENERGY>  (1) 
62.0292

>  <PUBCHEM_FEATURE_SELFOVERLAP>  (1) 
20.297

>  <PUBCHEM_SHAPE_FINGERPRINT>  (1) 
10366900 7 18131066056645043090
11315181 36 18187366549825069640
12107183 9 17687741641381403864
12236239 1 17603301548674689225
124424 183 18131632300622147896
12500047 106 18410852157588520010
13288520 33 18411701006345470919
14115302 16 18114748243173870287
14573314 32 18342182133448825478
15042514 8 18264212589985316467
15196674 1 18410573942328924442
15375358 24 18343021099301723302
15536298 74 18340204081670838074
17834072 33 18334579079315225372
17870717 6 18271539627723541478
187816 3 18410004451656730341
19489759 90 18341891879416588656
200 152 16988841683163166995
20279233 1 18272939327642941726
20510252 161 18343021051883010177
20645476 183 17530958116501084675
20645477 56 18409450245756102993
20645477 70 17131558228783729270
21267235 1 18336272326905456651
2297311 6 18342466949567402084
2306618 200 18130795542414537065
23402539 116 18341606023546972917
23557571 272 18202290173566986660
23559900 14 18341042017005456920
2748010 2 17903904906301144755
2838139 119 16081909474775658735
351380 180 18272928332204800100
4214541 1 18411699855431619512
5104073 3 18341613668425249610
559249 180 18262511486519676794
573450 72 18261381218430257536
58051976 100 18259985998156588286
69090 78 18341890796747427687
9709674 26 18341619217496946318

>  <PUBCHEM_SHAPE_MULTIPOLES>  (1) 
313.44
9.63
1.98
0.81
11.59
0.09
0.1
0.32
0.6
-1.83
-0.22
0.17
-0.02
0.22

>  <PUBCHEM_SHAPE_SELFOVERLAP>  (1) 
633.716

>  <PUBCHEM_SHAPE_VOLUME>  (1) 
185.6

>  <PUBCHEM_COORDINATE_TYPE>  (1) 
2
5
10

$$$$
