39591
     RDKit          3D

 20 20  0  0  1  0  0  0  0  0999 V2000
    6.5294   -3.2266   -0.1399 Br  0  0  0  0  0  0  0  0  0  0  0  0
   -0.3053    0.3207   -1.3823 O   0  0  0  0  0  0  0  0  0  0  0  0
    1.6233    1.9080   -0.2083 N   0  0  0  0  0  0  0  0  0  0  0  0
   -1.4241    0.2151    0.6792 N   0  0  0  0  0  0  0  0  0  0  0  0
    3.7019    1.2309    0.9561 C   0  0  0  0  0  0  0  0  0  0  0  0
    2.7977    2.3827    0.5133 C   0  0  0  0  0  0  0  0  0  0  0  0
    4.1956    0.3703   -0.2123 C   0  0  0  0  0  0  0  0  0  0  0  0
    5.0372   -0.8093    0.2884 C   0  0  0  0  0  0  0  0  0  0  0  0
    0.8294    1.0099    0.6323 C   0  0  0  0  0  0  0  0  0  0  0  0
    0.8054    3.0350   -0.6603 C   0  0  0  0  0  0  0  0  0  0  0  0
   -0.3487    0.4798   -0.1665 C   0  0  0  0  0  0  0  0  0  0  0  0
    5.5453   -1.6983   -0.8361 C   0  0  0  0  0  0  0  0  0  0  0  0
   -2.6985   -0.2876    0.3240 C   0  0  0  0  0  0  0  0  0  0  0  0
   -3.7135    0.5989   -0.0040 C   0  0  0  0  0  0  0  0  0  0  0  0
   -2.9110   -1.6581    0.3108 C   0  0  0  0  0  0  0  0  0  0  0  0
   -4.9699    0.1035   -0.3530 C   0  0  0  0  0  0  0  0  0  0  0  0
   -4.1675   -2.1534   -0.0384 C   0  0  0  0  0  0  0  0  0  0  0  0
   -3.5016    2.0782    0.0058 C   0  0  0  0  0  0  0  0  0  0  0  0
   -1.8284   -2.6271    0.6614 C   0  0  0  0  0  0  0  0  0  0  0  0
   -5.1968   -1.2725   -0.3702 C   0  0  0  0  0  0  0  0  0  0  0  0
  1 12  1  0
  2 11  2  0
  3  6  1  0
  3  9  1  0
  3 10  1  0
  4 11  1  0
  4 13  1  0
  5  6  1  0
  5  7  1  0
  7  8  1  0
  8 12  1  0
  9 11  1  0
 13 14  2  0
 13 15  1  0
 14 16  1  0
 14 18  1  0
 15 17  2  0
 15 19  1  0
 16 20  2  0
 17 20  1  0
M  END
>  <PUBCHEM_COMPOUND_CID>  (1) 
39591

>  <PUBCHEM_CONFORMER_RMSD>  (1) 
0.8

>  <PUBCHEM_CONFORMER_DIVERSEORDER>  (1) 
4
58
107
54
7
25
103
127
9
95
55
80
49
79
81
61
132
90
42
38
60
28
99
51
136
105
88
67
47
33
87
100
3
52
2
40
108
56
10
112
43
5
133
84
122
39
130
109
45
106
44
12
96
120
53
72
92
22
126
41
31
110
57
85
123
94
98
35
97
46
11
74
13
59
69
114
21
121
101
128
24
71
66
125
129
137
86
16
50
23
104
78
131
75
27
77
26
82
102
29
134
113
37
138
36
15
14
19
70
68
32
111
118
34
63
76
18
48
62
91
93
6
65
115
8
64
30
20
83
117
73
1
116
124
89
17
135
119

>  <PUBCHEM_MMFF94_PARTIAL_CHARGES>  (1) 
21
1 -0.23
10 0.27
11 0.57
12 0.23
13 0.12
14 -0.14
15 -0.14
16 -0.15
17 -0.15
18 0.14
19 0.14
2 -0.57
20 -0.15
3 -0.81
36 0.37
37 0.15
38 0.15
4 -0.55
45 0.15
6 0.27
9 0.33

>  <PUBCHEM_EFFECTIVE_ROTOR_COUNT>  (1) 
9

>  <PUBCHEM_PHARMACOPHORE_FEATURES>  (1) 
5
1 1 hydrophobe
1 2 acceptor
1 3 cation
1 4 donor
6 13 14 15 16 17 20 rings

>  <PUBCHEM_HEAVY_ATOM_COUNT>  (1) 
20

>  <PUBCHEM_ATOM_DEF_STEREO_COUNT>  (1) 
0

>  <PUBCHEM_ATOM_UDEF_STEREO_COUNT>  (1) 
0

>  <PUBCHEM_BOND_DEF_STEREO_COUNT>  (1) 
0

>  <PUBCHEM_BOND_UDEF_STEREO_COUNT>  (1) 
0

>  <PUBCHEM_ISOTOPIC_ATOM_COUNT>  (1) 
0

>  <PUBCHEM_COMPONENT_COUNT>  (1) 
1

>  <PUBCHEM_CACTVS_TAUTO_COUNT>  (1) 
2

>  <PUBCHEM_CONFORMER_ID>  (1) 
00009AA700000004

>  <PUBCHEM_MMFF94_ENERGY>  (1) 
64.5632

>  <PUBCHEM_FEATURE_SELFOVERLAP>  (1) 
25.371

>  <PUBCHEM_SHAPE_FINGERPRINT>  (1) 
12107183 9 18198633128925614336
12555020 224 18409160030890093279
12596602 18 13614229348906675414
12760667 363 18269835320682063302
13167823 11 18338230587041912905
13402501 40 18411702054756016686
13533116 47 18271524320222539617
13583140 156 17629759247350726144
13911852 28 18341329999068507014
13955234 65 18057040423078442472
14251751 18 18335423422751683702
14251764 30 18338796720072840558
14341114 176 18337675316595862673
14420673 8 18338520725036770426
14866123 147 18124883347974781928
15052358 14 18189044322479342013
15256400 18 18410571824936096473
15352361 1 18411703150040924058
15848702 151 18335414729046948584
17349148 13 17846225496089955493
17492 89 18265616678733279659
1813 80 17095515232017614436
20403669 9 18342179921699378118
20645477 70 18337106865074048336
21279426 13 18336822013704209085
21682296 61 18343586209354812326
2215653 11 18410569604295508438
23402539 116 18268701883366144229
23559900 14 18339636836686421121
2916195 48 8718536212727801270
3004659 81 18186522086530447246
3421961 26 18342454864146635720
4214541 1 18410290337306768017
437815 12 18272089349610025486
465052 167 18273218595285978966
5104073 3 17989495133801222417
5207 123 18411702076029743414
543368 44 12251904802032122295
559249 180 18341049610243586483
59755656 215 18334850581303722871
6138700 20 18337955576223786274
7970288 3 18340205164572607582
960060 61 18040723593122598884
9709674 26 18191870243519857635
9971528 1 18334853974038470172

>  <PUBCHEM_SHAPE_MULTIPOLES>  (1) 
401.7
14.42
3.58
0.9
13.89
0.35
0.05
12.08
1.39
2.89
0.03
0.31
-0.06
0.89

>  <PUBCHEM_SHAPE_SELFOVERLAP>  (1) 
785.927

>  <PUBCHEM_SHAPE_VOLUME>  (1) 
247.3

>  <PUBCHEM_COORDINATE_TYPE>  (1) 
2
5
10

$$$$
