39600
     RDKit          3D

 27 28  0  0  0  0  0  0  0  0999 V2000
   -3.0177    1.7783    0.6885 S   0  0  0  0  0  0  0  0  0  0  0  0
    3.6148    1.5929   -0.3015 S   0  0  0  0  0  0  0  0  0  0  0  0
   -1.9585   -0.2526   -2.1783 O   0  0  0  0  0  0  0  0  0  0  0  0
    2.2705   -1.5104   -1.2514 O   0  0  0  0  0  0  0  0  0  0  0  0
    0.4208    2.0234    1.1122 O   0  0  0  0  0  0  0  0  0  0  0  0
   -0.7885    0.9374   -0.5532 N   0  0  0  0  0  0  0  0  0  0  0  0
    1.3700    0.1699    0.0840 N   0  0  0  0  0  0  0  0  0  0  0  0
   -5.1424    3.2321    1.2816 N   0  0  0  0  0  0  0  0  0  0  0  0
    6.0322    2.5869    0.0841 N   0  0  0  0  0  0  0  0  0  0  0  0
   -3.8264    4.0089   -0.5190 N   0  0  0  0  0  0  0  0  0  0  0  0
    5.2374    1.1199    1.7555 N   0  0  0  0  0  0  0  0  0  0  0  0
   -0.1449   -1.3902   -1.0498 C   0  0  0  0  0  0  0  0  0  0  0  0
   -0.1516   -2.3121   -2.2914 C   0  0  0  0  0  0  0  0  0  0  0  0
   -1.0456   -0.1891   -1.3526 C   0  0  0  0  0  0  0  0  0  0  0  0
    1.2922   -0.9297   -0.7802 C   0  0  0  0  0  0  0  0  0  0  0  0
   -0.6637   -2.2193    0.1463 C   0  0  0  0  0  0  0  0  0  0  0  0
    0.3333    1.1059    0.2900 C   0  0  0  0  0  0  0  0  0  0  0  0
    0.3756   -1.5868   -3.5101 C   0  0  0  0  0  0  0  0  0  0  0  0
   -2.0271   -2.2692    0.4046 C   0  0  0  0  0  0  0  0  0  0  0  0
    0.2398   -2.9045    0.9478 C   0  0  0  0  0  0  0  0  0  0  0  0
   -1.7697    2.0170   -0.5934 C   0  0  0  0  0  0  0  0  0  0  0  0
    2.6527    0.4544    0.7165 C   0  0  0  0  0  0  0  0  0  0  0  0
   -2.4956   -3.0178    1.4843 C   0  0  0  0  0  0  0  0  0  0  0  0
   -0.2288   -3.6532    2.0274 C   0  0  0  0  0  0  0  0  0  0  0  0
   -1.5966   -3.7098    2.2955 C   0  0  0  0  0  0  0  0  0  0  0  0
   -4.0801    3.1603    0.4253 C   0  0  0  0  0  0  0  0  0  0  0  0
    5.0980    1.7574    0.6374 C   0  0  0  0  0  0  0  0  0  0  0  0
  1 21  1  0
  1 26  1  0
  2 22  1  0
  2 27  1  0
  3 14  2  0
  4 15  2  0
  5 17  2  0
  6 14  1  0
  6 17  1  0
  6 21  1  0
  7 15  1  0
  7 17  1  0
  7 22  1  0
  8 26  1  0
  9 27  1  0
 10 26  2  0
 11 27  2  0
 12 13  1  0
 12 14  1  0
 12 15  1  0
 12 16  1  0
 13 18  1  0
 16 19  2  0
 16 20  1  0
 19 23  1  0
 20 24  2  0
 23 25  2  0
 24 25  1  0
M  END
>  <PUBCHEM_COMPOUND_CID>  (1) 
39600

>  <PUBCHEM_CONFORMER_RMSD>  (1) 
1

>  <PUBCHEM_CONFORMER_DIVERSEORDER>  (1) 
1
7
31
56
48
35
41
51
43
29
53
15
55
44
61
5
3
52
40
38
20
42
25
33
27
46
50
39
6
58
4
11
60
18
14
57
24
37
54
9
30
19
17
45
2
8
28
49
32
21
47
26
59
10
34
22
36
13
12
16
23

>  <PUBCHEM_MMFF94_PARTIAL_CHARGES>  (1) 
36
1 -0.37
10 -0.85
11 -0.85
12 0.27
14 0.57
15 0.57
16 -0.14
17 0.69
19 -0.15
2 -0.37
20 -0.15
21 0.53
22 0.53
23 -0.15
24 -0.15
25 -0.15
26 0.64
27 0.64
3 -0.57
33 0.15
34 0.15
39 0.15
4 -0.57
40 0.15
41 0.15
42 0.4
43 0.4
44 0.4
45 0.4
46 0.4
47 0.4
5 -0.57
6 -0.42
7 -0.42
8 -0.85
9 -0.85

>  <PUBCHEM_EFFECTIVE_ROTOR_COUNT>  (1) 
8.6

>  <PUBCHEM_PHARMACOPHORE_FEATURES>  (1) 
12
1 10 donor
1 11 donor
1 18 hydrophobe
1 3 acceptor
1 4 acceptor
1 5 acceptor
1 8 donor
1 9 donor
3 8 10 26 cation
3 9 11 27 cation
6 16 19 20 23 24 25 rings
6 6 7 12 14 15 17 rings

>  <PUBCHEM_HEAVY_ATOM_COUNT>  (1) 
27

>  <PUBCHEM_ATOM_DEF_STEREO_COUNT>  (1) 
0

>  <PUBCHEM_ATOM_UDEF_STEREO_COUNT>  (1) 
0

>  <PUBCHEM_BOND_DEF_STEREO_COUNT>  (1) 
0

>  <PUBCHEM_BOND_UDEF_STEREO_COUNT>  (1) 
0

>  <PUBCHEM_ISOTOPIC_ATOM_COUNT>  (1) 
0

>  <PUBCHEM_COMPONENT_COUNT>  (1) 
1

>  <PUBCHEM_CACTVS_TAUTO_COUNT>  (1) 
1

>  <PUBCHEM_CONFORMER_ID>  (1) 
00009AB000000001

>  <PUBCHEM_MMFF94_ENERGY>  (1) 
68.2004

>  <PUBCHEM_FEATURE_SELFOVERLAP>  (1) 
60.972

>  <PUBCHEM_SHAPE_FINGERPRINT>  (1) 
10074138 170 18263063552688698240
107951 10 18409735032315603052
1100329 8 18047468924659776786
11443803 9 17844217714848629665
12160290 23 17979037743229470720
12293681 4 18192711374389622955
12633257 1 17760947524616869674
12714826 92 16593055044142929386
12788726 201 18265317585810971843
13135754 10 18190472747139927194
13140716 1 18264488390708153762
133893 2 17617055189566564701
13583140 156 17468471517853872405
14020679 6 18190744129308067378
14955137 171 16535117541326675217
15338160 23 18192157207655059824
16945 1 17766299929824690199
17980427 26 18048303454232788789
20600515 1 17680153164061137055
21041028 32 17832147495236923076
21049683 118 18267280102271062272
21421861 104 16823640864781886569
22182313 1 17987259848717012732
23419403 2 17196627360436695383
23558518 356 18409448093913866167
23598288 3 18194970866595185068
3411729 13 18055915390470247457
3552219 110 16954519504764523972
3759504 43 18409446990197396416
376196 1 18200872851211998428
394222 165 18054217731309806113
4058900 60 18194130607440958608
497634 4 17460306879834768572
59755656 520 18259702285987434256
7288768 16 18410853235398925729
9841814 1 17404022522710222593
9981440 41 18129928062363781554
9999458 23 18047759195539040284

>  <PUBCHEM_SHAPE_MULTIPOLES>  (1) 
515.85
7.93
5.45
2.4
10.75
0.31
-1.69
11.7
4.22
-6.76
2.7
-0.27
-2.32
1.18

>  <PUBCHEM_SHAPE_SELFOVERLAP>  (1) 
1059.226

>  <PUBCHEM_SHAPE_VOLUME>  (1) 
298.9

>  <PUBCHEM_COORDINATE_TYPE>  (1) 
2
5
10

$$$$
