39605
     RDKit          3D

  6  5  0  0  0  0  0  0  0  0999 V2000
   -0.0466    1.4651    0.0784 O   0  0  0  0  0  0  0  0  0  0  0  0
   -2.2461   -0.2175   -0.5482 O   0  0  0  0  0  0  0  0  0  0  0  0
   -0.0004    0.0908    0.1824 C   0  0  0  0  0  0  0  0  0  0  0  0
   -1.3287   -0.5321    0.4914 C   0  0  0  0  0  0  0  0  0  0  0  0
    1.1190   -0.6435    0.0466 C   0  0  0  0  0  0  0  0  0  0  0  0
    2.5028   -0.1627   -0.2505 C   0  0  0  0  0  0  0  0  0  0  0  0
  1  3  1  0
  2  4  1  0
  3  4  1  0
  3  5  2  0
  5  6  1  0
M  END
>  <PUBCHEM_COMPOUND_CID>  (1) 
39605

>  <PUBCHEM_CONFORMER_RMSD>  (1) 
0.4

>  <PUBCHEM_CONFORMER_DIVERSEORDER>  (1) 
1
3
2

>  <PUBCHEM_MMFF94_PARTIAL_CHARGES>  (1) 
9
1 -0.53
13 0.45
14 0.4
2 -0.68
3 -0.06
4 0.42
5 -0.29
6 0.14
9 0.15

>  <PUBCHEM_EFFECTIVE_ROTOR_COUNT>  (1) 
1

>  <PUBCHEM_PHARMACOPHORE_FEATURES>  (1) 
4
1 1 donor
1 2 acceptor
1 2 donor
1 6 hydrophobe

>  <PUBCHEM_HEAVY_ATOM_COUNT>  (1) 
6

>  <PUBCHEM_ATOM_DEF_STEREO_COUNT>  (1) 
0

>  <PUBCHEM_ATOM_UDEF_STEREO_COUNT>  (1) 
0

>  <PUBCHEM_BOND_DEF_STEREO_COUNT>  (1) 
0

>  <PUBCHEM_BOND_UDEF_STEREO_COUNT>  (1) 
1

>  <PUBCHEM_ISOTOPIC_ATOM_COUNT>  (1) 
0

>  <PUBCHEM_COMPONENT_COUNT>  (1) 
1

>  <PUBCHEM_CACTVS_TAUTO_COUNT>  (1) 
4

>  <PUBCHEM_CONFORMER_ID>  (1) 
00009AB500000001

>  <PUBCHEM_MMFF94_ENERGY>  (1) 
2.7046

>  <PUBCHEM_FEATURE_SELFOVERLAP>  (1) 
20.3

>  <PUBCHEM_SHAPE_FINGERPRINT>  (1) 
139733 1 8574712390416066834
16714656 1 18343869904824034798
29004967 10 18411144653240413250
5460574 1 9511464415797139258
5943 1 8410003817750933313

>  <PUBCHEM_SHAPE_MULTIPOLES>  (1) 
111.74
2.95
1
0.68
0.55
0.34
0
-0.5
-0.51
-0.02
0.06
-0.12
-0.04
0.02

>  <PUBCHEM_SHAPE_SELFOVERLAP>  (1) 
198.897

>  <PUBCHEM_SHAPE_VOLUME>  (1) 
73

>  <PUBCHEM_COORDINATE_TYPE>  (1) 
2
5
10

$$$$
