39618
     RDKit          3D

 24 27  0  0  0  0  0  0  0  0999 V2000
   -4.3725   -1.4560   -0.5534 S   0  0  0  0  0  0  0  0  0  0  0  0
    1.5045    4.0299   -0.0964 O   0  0  0  0  0  0  0  0  0  0  0  0
   -0.8918    3.8060   -0.1277 O   0  0  0  0  0  0  0  0  0  0  0  0
   -1.7832   -2.7430   -1.2086 O   0  0  0  0  0  0  0  0  0  0  0  0
    5.1588   -1.9285    0.8551 O   0  0  0  0  0  0  0  0  0  0  0  0
    3.2067   -1.3772    1.8780 O   0  0  0  0  0  0  0  0  0  0  0  0
   -0.3559   -1.1211   -0.5320 N   0  0  0  0  0  0  0  0  0  0  0  0
    1.3486    0.3653   -0.4015 C   0  0  0  0  0  0  0  0  0  0  0  0
   -0.0551    0.2416   -0.4125 C   0  0  0  0  0  0  0  0  0  0  0  0
    1.8857   -0.9396   -0.5102 C   0  0  0  0  0  0  0  0  0  0  0  0
    0.8355   -1.8193   -0.5812 C   0  0  0  0  0  0  0  0  0  0  0  0
    1.9495    1.6406   -0.2927 C   0  0  0  0  0  0  0  0  0  0  0  0
   -0.8907    1.3761   -0.3269 C   0  0  0  0  0  0  0  0  0  0  0  0
    3.3216   -1.2920   -0.5373 C   0  0  0  0  0  0  0  0  0  0  0  0
    1.1062    2.7320   -0.2050 C   0  0  0  0  0  0  0  0  0  0  0  0
   -0.2577    2.6028   -0.2223 C   0  0  0  0  0  0  0  0  0  0  0  0
    0.9314   -3.2945   -0.6982 C   0  0  0  0  0  0  0  0  0  0  0  0
   -1.6385   -1.7114   -0.5609 C   0  0  0  0  0  0  0  0  0  0  0  0
    0.2320    4.7048   -0.0455 C   0  0  0  0  0  0  0  0  0  0  0  0
   -2.8287   -1.1687    0.1220 C   0  0  0  0  0  0  0  0  0  0  0  0
    3.8585   -1.5420    0.8545 C   0  0  0  0  0  0  0  0  0  0  0  0
   -2.8920   -0.4289    1.2779 C   0  0  0  0  0  0  0  0  0  0  0  0
   -4.2335   -0.0904    1.6182 C   0  0  0  0  0  0  0  0  0  0  0  0
   -5.1394   -0.5863    0.7065 C   0  0  0  0  0  0  0  0  0  0  0  0
  1 20  1  0
  1 24  1  0
  2 15  1  0
  2 19  1  0
  3 16  1  0
  3 19  1  0
  4 18  2  0
  5 21  1  0
  6 21  2  0
  7  9  1  0
  7 11  1  0
  7 18  1  0
  8  9  2  0
  8 10  1  0
  8 12  1  0
  9 13  1  0
 10 11  2  0
 10 14  1  0
 11 17  1  0
 12 15  2  0
 13 16  2  0
 14 21  1  0
 15 16  1  0
 18 20  1  0
 20 22  2  0
 22 23  1  0
 23 24  2  0
M  END
>  <PUBCHEM_COMPOUND_CID>  (1) 
39618

>  <PUBCHEM_CONFORMER_RMSD>  (1) 
0.8

>  <PUBCHEM_CONFORMER_DIVERSEORDER>  (1) 
2
7
17
22
20
21
23
14
4
16
3
11
13
18
15
10
8
9
12
1
19
6
5

>  <PUBCHEM_MMFF94_PARTIAL_CHARGES>  (1) 
29
1 -0.08
10 -0.18
11 -0.33
12 -0.15
13 -0.15
14 0.24
15 0.08
16 0.08
17 0.18
18 0.66
19 0.56
2 -0.36
20 -0.05
21 0.66
22 -0.15
23 -0.15
24 -0.11
25 0.15
26 0.15
3 -0.36
34 0.15
35 0.15
36 0.15
37 0.5
4 -0.57
5 -0.65
6 -0.57
7 0.29
9 -0.15

>  <PUBCHEM_EFFECTIVE_ROTOR_COUNT>  (1) 
4.6

>  <PUBCHEM_PHARMACOPHORE_FEATURES>  (1) 
10
1 2 acceptor
1 3 acceptor
1 4 acceptor
1 5 acceptor
1 6 acceptor
3 5 6 21 anion
5 1 20 22 23 24 rings
5 2 3 15 16 19 rings
5 7 8 9 10 11 rings
6 8 9 12 13 15 16 rings

>  <PUBCHEM_HEAVY_ATOM_COUNT>  (1) 
24

>  <PUBCHEM_ATOM_DEF_STEREO_COUNT>  (1) 
0

>  <PUBCHEM_ATOM_UDEF_STEREO_COUNT>  (1) 
0

>  <PUBCHEM_BOND_DEF_STEREO_COUNT>  (1) 
0

>  <PUBCHEM_BOND_UDEF_STEREO_COUNT>  (1) 
0

>  <PUBCHEM_ISOTOPIC_ATOM_COUNT>  (1) 
0

>  <PUBCHEM_COMPONENT_COUNT>  (1) 
1

>  <PUBCHEM_CACTVS_TAUTO_COUNT>  (1) 
1

>  <PUBCHEM_CONFORMER_ID>  (1) 
00009AC200000002

>  <PUBCHEM_MMFF94_ENERGY>  (1) 
54.6339

>  <PUBCHEM_FEATURE_SELFOVERLAP>  (1) 
51.055

>  <PUBCHEM_SHAPE_FINGERPRINT>  (1) 
10074138 170 17612841852661631464
10382601 240 18192722364762449472
10411042 1 18410854347943207134
10967382 1 18268154334284543317
1100329 8 18050288364947563708
12166972 35 18200860881866027627
12293681 4 18115888350822420819
12403260 363 18342175609720666935
12553582 1 18411427184747677191
12633257 1 18334024886726612107
12788726 201 18189349982707176306
13004483 165 18337100177466914898
13009979 54 17988371471920785899
13134695 92 18334299803002905053
13140716 1 18338514127967036272
13583140 156 17971480838946279835
13692114 37 17258767128254680053
138480 1 18411426132680909229
14022347 108 18266480757565880526
14178342 30 17903074439498273318
14466204 15 18265052440827330625
14790565 3 17904774619176965428
14955137 171 18338251430460873102
15042514 8 18120937200879453628
15420108 30 17914610798785022516
15475509 35 17313393369951998915
15475509 8 17770820941538999484
16945 1 18341049618802145814
17980427 23 17632572790579830999
1813 80 18412832365108605382
192875 21 18271522083198952763
20600515 1 18273218611970274510
20642791 35 18269571588125991324
20739085 24 18412267263376289328
21033648 29 17702935938378621107
21041028 32 18408323259180005212
2132832 1 17986372602952786287
21796203 349 18048636760632052960
22149856 69 16628311821851222035
22182313 1 17911805669629115054
23366157 5 18045502177487685893
23419403 2 17969200352454947365
23558518 356 17401194578365297853
23559900 14 17488763287815701231
2748010 2 17837778820010970158
3091708 16 9282729704857018780
345986 75 17751059341596169634
352729 6 17977946787339838652
3886686 26 16614452768659499720
4409770 3 18118390748981791965
474 4 17907018726967148777
5104073 3 18266475363772480243
513202 73 18049729516509140490
5939293 188 18340778133866423103
5951187 136 13825102313085665225
69474 34 18411416206868933419
81228 2 17901963945253648789
84936 182 17698168687930963825
90316 7 18339351977091014202
9777508 108 17619913859452962104
9981440 41 17334733567617764210

>  <PUBCHEM_SHAPE_MULTIPOLES>  (1) 
463.43
7.51
5.03
1.15
4.52
6.64
-0.44
-5.7
-3.21
-3.24
0.78
0.14
-0.6
-1.14

>  <PUBCHEM_SHAPE_SELFOVERLAP>  (1) 
1025.988

>  <PUBCHEM_SHAPE_VOLUME>  (1) 
252.9

>  <PUBCHEM_COORDINATE_TYPE>  (1) 
2
5
10

$$$$
