39617
     RDKit          3D

 25 28  0  0  0  0  0  0  0  0999 V2000
   -4.3997    0.5433    2.6855 Br  0  0  0  0  0  0  0  0  0  0  0  0
    1.2702    4.1140   -0.1682 O   0  0  0  0  0  0  0  0  0  0  0  0
   -1.0811    3.6680   -0.4241 O   0  0  0  0  0  0  0  0  0  0  0  0
   -1.2600   -2.9463   -1.4596 O   0  0  0  0  0  0  0  0  0  0  0  0
   -2.5480   -0.7315    0.8744 O   0  0  0  0  0  0  0  0  0  0  0  0
    5.3454   -1.4686    1.2421 O   0  0  0  0  0  0  0  0  0  0  0  0
    3.2611   -1.0908    2.0630 O   0  0  0  0  0  0  0  0  0  0  0  0
   -0.0595   -1.1918   -0.6809 N   0  0  0  0  0  0  0  0  0  0  0  0
    1.4809    0.4479   -0.4166 C   0  0  0  0  0  0  0  0  0  0  0  0
    0.1022    0.1941   -0.5593 C   0  0  0  0  0  0  0  0  0  0  0  0
    2.1432   -0.8024   -0.4484 C   0  0  0  0  0  0  0  0  0  0  0  0
    1.1899   -1.7766   -0.6026 C   0  0  0  0  0  0  0  0  0  0  0  0
    1.9491    1.7746   -0.2753 C   0  0  0  0  0  0  0  0  0  0  0  0
   -0.8381    1.2467   -0.5756 C   0  0  0  0  0  0  0  0  0  0  0  0
    3.6013   -1.0200   -0.3315 C   0  0  0  0  0  0  0  0  0  0  0  0
    1.0049    2.7836   -0.2895 C   0  0  0  0  0  0  0  0  0  0  0  0
   -0.3333    2.5280   -0.4346 C   0  0  0  0  0  0  0  0  0  0  0  0
    1.4314   -3.2377   -0.6817 C   0  0  0  0  0  0  0  0  0  0  0  0
   -1.2738   -1.8991   -0.8210 C   0  0  0  0  0  0  0  0  0  0  0  0
   -0.0576    4.6681   -0.2521 C   0  0  0  0  0  0  0  0  0  0  0  0
   -2.5693   -1.4625   -0.2654 C   0  0  0  0  0  0  0  0  0  0  0  0
    4.0214   -1.2048    1.1098 C   0  0  0  0  0  0  0  0  0  0  0  0
   -3.8509   -1.6649   -0.7013 C   0  0  0  0  0  0  0  0  0  0  0  0
   -4.6849   -1.0117    0.2371 C   0  0  0  0  0  0  0  0  0  0  0  0
   -3.8447   -0.4595    1.1759 C   0  0  0  0  0  0  0  0  0  0  0  0
  1 25  1  0
  2 16  1  0
  2 20  1  0
  3 17  1  0
  3 20  1  0
  4 19  2  0
  5 21  1  0
  5 25  1  0
  6 22  1  0
  7 22  2  0
  8 10  1  0
  8 12  1  0
  8 19  1  0
  9 10  2  0
  9 11  1  0
  9 13  1  0
 10 14  1  0
 11 12  2  0
 11 15  1  0
 12 18  1  0
 13 16  2  0
 14 17  2  0
 15 22  1  0
 16 17  1  0
 19 21  1  0
 21 23  2  0
 23 24  1  0
 24 25  2  0
M  END
>  <PUBCHEM_COMPOUND_CID>  (1) 
39617

>  <PUBCHEM_CONFORMER_RMSD>  (1) 
0.8

>  <PUBCHEM_CONFORMER_DIVERSEORDER>  (1) 
4
5
30
32
14
24
20
36
2
35
29
27
31
17
13
34
10
19
9
8
11
23
22
33
6
18
1
16
7
25
26
28
12
3
15
21

>  <PUBCHEM_MMFF94_PARTIAL_CHARGES>  (1) 
29
1 -0.06
10 -0.15
11 -0.18
12 -0.33
13 -0.15
14 -0.15
15 0.24
16 0.08
17 0.08
18 0.18
19 0.66
2 -0.36
20 0.56
21 0.05
22 0.66
23 -0.15
24 -0.15
25 0.2
26 0.15
27 0.15
3 -0.36
35 0.15
36 0.15
37 0.5
4 -0.57
5 -0.28
6 -0.65
7 -0.57
8 0.29

>  <PUBCHEM_EFFECTIVE_ROTOR_COUNT>  (1) 
4.6

>  <PUBCHEM_PHARMACOPHORE_FEATURES>  (1) 
12
1 1 hydrophobe
1 2 acceptor
1 3 acceptor
1 4 acceptor
1 5 acceptor
1 6 acceptor
1 7 acceptor
3 6 7 22 anion
5 2 3 16 17 20 rings
5 5 21 23 24 25 rings
5 8 9 10 11 12 rings
6 9 10 13 14 16 17 rings

>  <PUBCHEM_HEAVY_ATOM_COUNT>  (1) 
25

>  <PUBCHEM_ATOM_DEF_STEREO_COUNT>  (1) 
0

>  <PUBCHEM_ATOM_UDEF_STEREO_COUNT>  (1) 
0

>  <PUBCHEM_BOND_DEF_STEREO_COUNT>  (1) 
0

>  <PUBCHEM_BOND_UDEF_STEREO_COUNT>  (1) 
0

>  <PUBCHEM_ISOTOPIC_ATOM_COUNT>  (1) 
0

>  <PUBCHEM_COMPONENT_COUNT>  (1) 
1

>  <PUBCHEM_CACTVS_TAUTO_COUNT>  (1) 
1

>  <PUBCHEM_CONFORMER_ID>  (1) 
00009AC100000004

>  <PUBCHEM_MMFF94_ENERGY>  (1) 
49.5395

>  <PUBCHEM_FEATURE_SELFOVERLAP>  (1) 
61.206

>  <PUBCHEM_SHAPE_FINGERPRINT>  (1) 
10074138 170 17613117847302348352
10382601 240 18119823644366274064
10411042 1 18410287021539417590
1100329 8 17905605854704967228
11387372 6 16669915975023364122
11640471 11 17557740050974129961
12160290 23 17683246867516258973
12166972 35 18128235961287173191
12403259 327 17679617590550773955
12422481 6 18198347255843993410
12553582 1 18337686238465490423
12633257 1 18261123980081183411
12788726 201 18188500073156476946
13009979 54 17987516094766136979
13134695 92 18261393403089101565
13140716 1 18338227181244195012
13583140 156 17898858108753253827
138480 1 18410858806034455181
14022347 108 18337972124732726198
14178342 30 17974846177777179806
14739800 52 17272847864632901752
14790565 3 17976835503165136452
14844126 61 18046884031876299626
14955137 171 18337688510751486638
15003188 8 18054522309506653697
15042514 8 18192707839652150036
15420108 30 17985544700439737612
15475509 35 17313390084259884323
15475509 8 17842031924693116628
1601671 61 18198927870966189375
17980427 23 17703790344912637121
192875 21 18272081756071267247
20600515 1 18272937154273497478
20642791 268 18131080324304919201
20739085 24 18411143575377753528
21033648 29 17704066270559987203
21041028 32 18335415764297415564
2132832 1 17842256336739944911
21796203 349 18047507570896481488
22149856 69 16627472864419590051
22182313 1 17983016652714536934
23419403 2 17897136178590399580
23558518 356 17545306489291462196
2748010 2 17982171110939797254
3091708 16 9641895082338506396
3380486 145 18338237038531151991
345986 75 17678714792255937378
3472631 163 15410062743041510011
352729 6 18049719625072454612
3886686 26 16397435578763843512
4409770 3 18118385272766594885
474 4 17906739451018929461
513202 73 18120656825589321506
58260988 114 16808141186693345002
5939293 188 18339929336638556374
5951187 136 14185108825510202825
7064713 232 17917722266383571835
81228 2 18045792177884834197
90316 7 18338786845273042506
9777508 108 17764025766210772456
9981440 41 17406508600052158090

>  <PUBCHEM_SHAPE_MULTIPOLES>  (1) 
480.23
7.69
4.86
1.54
2.35
6.36
-1.21
-5.07
-5.27
-1.41
1.62
0.72
-0.48
-1.47

>  <PUBCHEM_SHAPE_SELFOVERLAP>  (1) 
1061.868

>  <PUBCHEM_SHAPE_VOLUME>  (1) 
266.4

>  <PUBCHEM_COORDINATE_TYPE>  (1) 
2
5
10

$$$$
