39616
     RDKit          3D

 31 34  0  0  0  0  0  0  0  0999 V2000
    2.8803    3.9468   -0.4889 O   0  0  0  0  0  0  0  0  0  0  0  0
    0.5045    3.7564   -0.8248 O   0  0  0  0  0  0  0  0  0  0  0  0
   -0.4134   -2.8515   -1.4128 O   0  0  0  0  0  0  0  0  0  0  0  0
    6.2095   -1.9496    1.4911 O   0  0  0  0  0  0  0  0  0  0  0  0
    4.1543   -1.2747    2.1849 O   0  0  0  0  0  0  0  0  0  0  0  0
   -2.7405    1.1033    2.2508 O   0  0  0  0  0  0  0  0  0  0  0  0
   -5.1196   -1.0608   -1.2973 O   0  0  0  0  0  0  0  0  0  0  0  0
   -5.1139    0.6081    0.9121 O   0  0  0  0  0  0  0  0  0  0  0  0
    0.9544   -1.1942   -0.6999 N   0  0  0  0  0  0  0  0  0  0  0  0
    2.6662    0.2724   -0.4757 C   0  0  0  0  0  0  0  0  0  0  0  0
    1.2738    0.1690   -0.6658 C   0  0  0  0  0  0  0  0  0  0  0  0
    3.1770   -1.0447   -0.3904 C   0  0  0  0  0  0  0  0  0  0  0  0
    2.1220   -1.9115   -0.5227 C   0  0  0  0  0  0  0  0  0  0  0  0
    3.2818    1.5432   -0.4034 C   0  0  0  0  0  0  0  0  0  0  0  0
    0.4657    1.3188   -0.7987 C   0  0  0  0  0  0  0  0  0  0  0  0
    4.5932   -1.4197   -0.1900 C   0  0  0  0  0  0  0  0  0  0  0  0
    2.4646    2.6504   -0.5313 C   0  0  0  0  0  0  0  0  0  0  0  0
    1.1123    2.5403   -0.7218 C   0  0  0  0  0  0  0  0  0  0  0  0
   -0.3285   -1.7656   -0.8486 C   0  0  0  0  0  0  0  0  0  0  0  0
    2.1822   -3.3925   -0.4912 C   0  0  0  0  0  0  0  0  0  0  0  0
   -1.5841   -1.1433   -0.3863 C   0  0  0  0  0  0  0  0  0  0  0  0
    1.6314    4.6422   -0.6733 C   0  0  0  0  0  0  0  0  0  0  0  0
    4.9322   -1.5452    1.2787 C   0  0  0  0  0  0  0  0  0  0  0  0
   -2.7736   -1.3964   -1.0644 C   0  0  0  0  0  0  0  0  0  0  0  0
   -1.5737   -0.3052    0.7261 C   0  0  0  0  0  0  0  0  0  0  0  0
   -2.7603    0.2835    1.1628 C   0  0  0  0  0  0  0  0  0  0  0  0
   -3.9604   -0.8077   -0.6278 C   0  0  0  0  0  0  0  0  0  0  0  0
   -3.9539    0.0321    0.4860 C   0  0  0  0  0  0  0  0  0  0  0  0
   -2.9495    0.4958    3.5240 C   0  0  0  0  0  0  0  0  0  0  0  0
   -5.8887   -2.1800   -0.8614 C   0  0  0  0  0  0  0  0  0  0  0  0
   -5.4455    1.8801    0.3600 C   0  0  0  0  0  0  0  0  0  0  0  0
  1 17  1  0
  1 22  1  0
  2 18  1  0
  2 22  1  0
  3 19  2  0
  4 23  1  0
  5 23  2  0
  6 26  1  0
  6 29  1  0
  7 27  1  0
  7 30  1  0
  8 28  1  0
  8 31  1  0
  9 11  1  0
  9 13  1  0
  9 19  1  0
 10 11  2  0
 10 12  1  0
 10 14  1  0
 11 15  1  0
 12 13  2  0
 12 16  1  0
 13 20  1  0
 14 17  2  0
 15 18  2  0
 16 23  1  0
 17 18  1  0
 19 21  1  0
 21 24  2  0
 21 25  1  0
 24 27  1  0
 25 26  2  0
 26 28  1  0
 27 28  2  0
M  END
>  <PUBCHEM_COMPOUND_CID>  (1) 
39616

>  <PUBCHEM_CONFORMER_RMSD>  (1) 
1

>  <PUBCHEM_CONFORMER_DIVERSEORDER>  (1) 
3
19
7
22
12
13
26
1
15
25
10
16
20
4
17
21
18
14
5
2
23
27
6
24
8
28
11
9

>  <PUBCHEM_MMFF94_PARTIAL_CHARGES>  (1) 
35
1 -0.36
11 -0.15
12 -0.18
13 -0.33
14 -0.15
15 -0.15
16 0.24
17 0.08
18 0.08
19 0.49
2 -0.36
20 0.18
21 0.09
22 0.56
23 0.66
24 -0.15
25 -0.15
26 0.08
27 0.08
28 0.08
29 0.28
3 -0.57
30 0.28
31 0.28
32 0.15
33 0.15
4 -0.65
41 0.15
42 0.15
43 0.5
5 -0.57
6 -0.36
7 -0.36
8 -0.36
9 0.29

>  <PUBCHEM_EFFECTIVE_ROTOR_COUNT>  (1) 
7.6

>  <PUBCHEM_PHARMACOPHORE_FEATURES>  (1) 
13
1 1 acceptor
1 2 acceptor
1 3 acceptor
1 4 acceptor
1 5 acceptor
1 6 acceptor
1 7 acceptor
1 8 acceptor
3 4 5 23 anion
5 1 2 17 18 22 rings
5 9 10 11 12 13 rings
6 10 11 14 15 17 18 rings
6 21 24 25 26 27 28 rings

>  <PUBCHEM_HEAVY_ATOM_COUNT>  (1) 
31

>  <PUBCHEM_ATOM_DEF_STEREO_COUNT>  (1) 
0

>  <PUBCHEM_ATOM_UDEF_STEREO_COUNT>  (1) 
0

>  <PUBCHEM_BOND_DEF_STEREO_COUNT>  (1) 
0

>  <PUBCHEM_BOND_UDEF_STEREO_COUNT>  (1) 
0

>  <PUBCHEM_ISOTOPIC_ATOM_COUNT>  (1) 
0

>  <PUBCHEM_COMPONENT_COUNT>  (1) 
1

>  <PUBCHEM_CACTVS_TAUTO_COUNT>  (1) 
1

>  <PUBCHEM_CONFORMER_ID>  (1) 
00009AC000000003

>  <PUBCHEM_MMFF94_ENERGY>  (1) 
115.8092

>  <PUBCHEM_FEATURE_SELFOVERLAP>  (1) 
66.295

>  <PUBCHEM_SHAPE_FINGERPRINT>  (1) 
10411042 1 18337384947164063838
11049842 53 16556256361356037159
11387372 6 16236166313330921250
11640471 11 17916328158559205809
12156800 1 17465339111699171616
12160290 23 17321274407016468348
12166972 35 18343013423867884123
12403259 118 18343021086601476735
12403260 363 18340482357160144375
12553582 1 18336560313258309990
12633257 1 18260832578928597122
12788726 201 18042699295411615194
13009979 54 17917161523822027971
13134695 92 18187373137898921412
13140716 1 18337949095339481342
13560911 43 18336263530870463217
13583140 156 17969229017098439387
13782708 43 17095533902451615971
14117953 113 18198063577881473317
14466204 15 18191585255186052097
14739800 52 17487043712345432344
14790565 3 17903085761206782684
15003188 8 17981898436414704337
15420108 30 18127964412090387220
15475509 8 18129403556910242158
17349148 13 18343586261026178011
17980427 23 17917703612955613117
1813 80 18409728427057016766
20642791 268 18201726111221816752
20715895 44 18055921992309598561
20739085 24 18410293623341572516
21033648 29 17702926081175676738
2132832 1 18272082820927718513
21796203 349 18047226057734569960
244849 19 17386291024985008337
24771293 8 18272079522888337042
3380486 145 18193285078634944885
345986 75 17461137895565844450
392239 28 17346591976195189507
4409770 3 15892817358674268487
469060 322 18339360752014908490
474 4 18266742565617615749
5104073 3 18410016576270429131
513202 73 17903638484948320138
5895379 119 17488766513515728576
5951187 136 14185662974527235697
6086070 43 17970320708207675391
653340 110 17909267979723173256
67856867 119 18342172310637079481
7064713 232 17845660248212798256
9981440 41 17473254856990154304

>  <PUBCHEM_SHAPE_MULTIPOLES>  (1) 
586.03
11.44
4.44
1.84
6.36
4.62
-2.03
-4.64
-3.1
-4.2
1.72
1.07
-0.14
-2.99

>  <PUBCHEM_SHAPE_SELFOVERLAP>  (1) 
1294.356

>  <PUBCHEM_SHAPE_VOLUME>  (1) 
318.3

>  <PUBCHEM_COORDINATE_TYPE>  (1) 
2
5
10

$$$$
