39615
     RDKit          3D

 27 30  0  0  0  0  0  0  0  0999 V2000
    2.1316    4.0476   -0.0799 O   0  0  0  0  0  0  0  0  0  0  0  0
   -0.2452    3.7914   -0.3595 O   0  0  0  0  0  0  0  0  0  0  0  0
   -0.9353   -2.7753   -1.4797 O   0  0  0  0  0  0  0  0  0  0  0  0
    5.7422   -1.8563    1.2910 O   0  0  0  0  0  0  0  0  0  0  0  0
    3.6874   -1.3245    2.1008 O   0  0  0  0  0  0  0  0  0  0  0  0
   -5.6781    0.2883    1.2706 O   0  0  0  0  0  0  0  0  0  0  0  0
    0.3928   -1.1304   -0.6697 N   0  0  0  0  0  0  0  0  0  0  0  0
    2.0552    0.3795   -0.3728 C   0  0  0  0  0  0  0  0  0  0  0  0
    0.6620    0.2369   -0.5293 C   0  0  0  0  0  0  0  0  0  0  0  0
    2.6173   -0.9187   -0.4153 C   0  0  0  0  0  0  0  0  0  0  0  0
    1.5915   -1.8128   -0.5891 C   0  0  0  0  0  0  0  0  0  0  0  0
    2.6251    1.6634   -0.2112 C   0  0  0  0  0  0  0  0  0  0  0  0
   -0.1923    1.3605   -0.5397 C   0  0  0  0  0  0  0  0  0  0  0  0
    4.0524   -1.2523   -0.2899 C   0  0  0  0  0  0  0  0  0  0  0  0
    1.7634    2.7438   -0.2200 C   0  0  0  0  0  0  0  0  0  0  0  0
    0.4106    2.5962   -0.3786 C   0  0  0  0  0  0  0  0  0  0  0  0
    1.7079   -3.2876   -0.6855 C   0  0  0  0  0  0  0  0  0  0  0  0
   -0.8722   -1.7380   -0.8280 C   0  0  0  0  0  0  0  0  0  0  0  0
   -2.1341   -1.2073   -0.2770 C   0  0  0  0  0  0  0  0  0  0  0  0
    0.8523    4.7056   -0.1671 C   0  0  0  0  0  0  0  0  0  0  0  0
    4.4443   -1.4868    1.1520 C   0  0  0  0  0  0  0  0  0  0  0  0
   -2.1171   -0.4661    0.9018 C   0  0  0  0  0  0  0  0  0  0  0  0
   -3.3357   -1.4490   -0.9383 C   0  0  0  0  0  0  0  0  0  0  0  0
   -3.3094    0.0365    1.4229 C   0  0  0  0  0  0  0  0  0  0  0  0
   -4.5280   -0.9463   -0.4172 C   0  0  0  0  0  0  0  0  0  0  0  0
   -4.5149   -0.2036    0.7633 C   0  0  0  0  0  0  0  0  0  0  0  0
   -6.8738    0.0053    0.5454 C   0  0  0  0  0  0  0  0  0  0  0  0
  1 15  1  0
  1 20  1  0
  2 16  1  0
  2 20  1  0
  3 18  2  0
  4 21  1  0
  5 21  2  0
  6 26  1  0
  6 27  1  0
  7  9  1  0
  7 11  1  0
  7 18  1  0
  8  9  2  0
  8 10  1  0
  8 12  1  0
  9 13  1  0
 10 11  2  0
 10 14  1  0
 11 17  1  0
 12 15  2  0
 13 16  2  0
 14 21  1  0
 15 16  1  0
 18 19  1  0
 19 22  2  0
 19 23  1  0
 22 24  1  0
 23 25  2  0
 24 26  2  0
 25 26  1  0
M  END
>  <PUBCHEM_COMPOUND_CID>  (1) 
39615

>  <PUBCHEM_CONFORMER_RMSD>  (1) 
0.8

>  <PUBCHEM_CONFORMER_DIVERSEORDER>  (1) 
2
10
15
3
16
12
23
11
22
19
18
13
14
20
7
9
1
5
6
21
17
4
8

>  <PUBCHEM_MMFF94_PARTIAL_CHARGES>  (1) 
33
1 -0.36
10 -0.18
11 -0.33
12 -0.15
13 -0.15
14 0.24
15 0.08
16 0.08
17 0.18
18 0.49
19 0.09
2 -0.36
20 0.56
21 0.66
22 -0.15
23 -0.15
24 -0.15
25 -0.15
26 0.08
27 0.28
28 0.15
29 0.15
3 -0.57
37 0.15
38 0.15
39 0.15
4 -0.65
40 0.15
41 0.5
5 -0.57
6 -0.36
7 0.29
9 -0.15

>  <PUBCHEM_EFFECTIVE_ROTOR_COUNT>  (1) 
5.6

>  <PUBCHEM_PHARMACOPHORE_FEATURES>  (1) 
11
1 1 acceptor
1 2 acceptor
1 3 acceptor
1 4 acceptor
1 5 acceptor
1 6 acceptor
3 4 5 21 anion
5 1 2 15 16 20 rings
5 7 8 9 10 11 rings
6 19 22 23 24 25 26 rings
6 8 9 12 13 15 16 rings

>  <PUBCHEM_HEAVY_ATOM_COUNT>  (1) 
27

>  <PUBCHEM_ATOM_DEF_STEREO_COUNT>  (1) 
0

>  <PUBCHEM_ATOM_UDEF_STEREO_COUNT>  (1) 
0

>  <PUBCHEM_BOND_DEF_STEREO_COUNT>  (1) 
0

>  <PUBCHEM_BOND_UDEF_STEREO_COUNT>  (1) 
0

>  <PUBCHEM_ISOTOPIC_ATOM_COUNT>  (1) 
0

>  <PUBCHEM_COMPONENT_COUNT>  (1) 
1

>  <PUBCHEM_CACTVS_TAUTO_COUNT>  (1) 
1

>  <PUBCHEM_CONFORMER_ID>  (1) 
00009ABF00000002

>  <PUBCHEM_MMFF94_ENERGY>  (1) 
81.7576

>  <PUBCHEM_FEATURE_SELFOVERLAP>  (1) 
56.132

>  <PUBCHEM_SHAPE_FINGERPRINT>  (1) 
10162869 55 18272649048969743855
10411042 1 18123481479276660511
10688039 33 18040438746069332765
1100329 8 18339361975917466438
11456790 92 18041852706002888481
11640471 11 17773618176714191937
12166972 35 18202285805779880219
12293681 4 18187661166916494435
12403259 118 18272377473423347211
12403259 327 17967542289195009323
12553582 1 18411140203934051534
12633257 1 18334576849921587763
12788726 201 18188781526769094962
13009979 54 18060140997816839523
13134695 92 18333735744636873461
13140716 1 18339639057290365238
13540713 5 18055064617224751655
13583140 156 18043255849673748147
13692114 37 17186148770238498497
13782708 43 17386013892600555547
138480 1 18411706486428608076
13878862 14 18262784273041383269
13965767 371 18050830402088562321
14022347 108 18338252478854834862
14117953 113 18271248205887176231
14466204 15 18265051336862616353
14739800 52 17416114221163363360
14790565 3 17904489854455772732
14955137 171 18409739456259161510
15042514 8 18120933902571488628
15081414 286 18270408187277426919
15420108 30 17914043455354370540
15475509 35 17240484723648817651
15475509 8 18058474074465735628
17980427 23 17632002143712699557
1813 80 18411420583820591478
19301679 30 18119242857746489082
20642791 35 18269285715297974396
20715895 44 18200322005536675121
20739085 24 18411701015141257244
20832881 197 18113618963111948257
21033648 29 17702651156092248819
2132832 1 17842533404842859135
21421861 104 18261382399863287984
21796203 349 18120408473320711512
22182313 1 17983292626001658774
23558518 356 17472141047437283774
23559900 14 17131572590352591727
24771293 8 18129932503528549936
2748010 2 17838054802167588470
345986 75 17678719168985757154
376196 1 17123964193464973268
4409770 3 18046047277520290468
474 4 18269282425151999923
5104073 3 18338244881289543843
513202 73 18049442539869175770
5283268 108 18338520733678893938
5939293 188 18340494451408287246
5951187 136 13970057549403998745
653340 110 17982455888609435721
67856867 119 18271242837273079227
7064713 232 17846504694860444339
90316 7 18339346479933730370
9777508 108 17547856252683236456
9981440 41 17402886121059540208

>  <PUBCHEM_SHAPE_MULTIPOLES>  (1) 
515.45
10.35
4.58
1.25
12.41
6.12
-0.45
-4.74
-5.12
-4.54
1.05
-0.2
-0.68
-1.41

>  <PUBCHEM_SHAPE_SELFOVERLAP>  (1) 
1150.554

>  <PUBCHEM_SHAPE_VOLUME>  (1) 
275.8

>  <PUBCHEM_COORDINATE_TYPE>  (1) 
2
5
10

$$$$
