39619
     RDKit          3D

 20 22  0  0  1  0  0  0  0  0999 V2000
    3.0613   -1.7698   -0.0613 O   0  0  0  0  0  0  0  0  0  0  0  0
    3.5803    0.5345   -0.5241 O   0  0  0  0  0  0  0  0  0  0  0  0
   -0.4200    3.8258    0.2369 O   0  0  0  0  0  0  0  0  0  0  0  0
   -3.7084   -3.4982   -0.0141 O   0  0  0  0  0  0  0  0  0  0  0  0
   -2.9351   -1.8901   -1.4201 O   0  0  0  0  0  0  0  0  0  0  0  0
   -1.2086    1.6844    0.1780 N   0  0  0  0  0  0  0  0  0  0  0  0
   -0.3313   -0.4010    0.3455 C   0  0  0  0  0  0  0  0  0  0  0  0
   -0.0207    0.9464    0.0741 C   0  0  0  0  0  0  0  0  0  0  0  0
   -1.7186   -0.4653    0.6136 C   0  0  0  0  0  0  0  0  0  0  0  0
    1.9630   -0.9666    0.0082 C   0  0  0  0  0  0  0  0  0  0  0  0
    2.2567    0.3453   -0.2547 C   0  0  0  0  0  0  0  0  0  0  0  0
    0.6827   -1.3862    0.3143 C   0  0  0  0  0  0  0  0  0  0  0  0
    1.2987    1.3443   -0.2334 C   0  0  0  0  0  0  0  0  0  0  0  0
   -2.2246    0.8051    0.5057 C   0  0  0  0  0  0  0  0  0  0  0  0
    4.0790   -0.8189   -0.4443 C   0  0  0  0  0  0  0  0  0  0  0  0
   -2.4961   -1.6755    0.9500 C   0  0  0  0  0  0  0  0  0  0  0  0
   -1.3503    3.0733   -0.0152 C   0  0  0  0  0  0  0  0  0  0  0  0
    5.2151   -0.8717    0.5655 C   0  0  0  0  0  0  0  0  0  0  0  0
   -3.0428   -2.3487   -0.2898 C   0  0  0  0  0  0  0  0  0  0  0  0
   -2.6803    3.5329   -0.5348 C   0  0  0  0  0  0  0  0  0  0  0  0
  1 10  1  0
  1 15  1  0
  2 11  1  0
  2 15  1  0
  3 17  2  0
  4 19  1  0
  5 19  2  0
  6  8  1  0
  6 14  1  0
  6 17  1  0
  7  8  1  0
  7  9  1  0
  7 12  2  0
  8 13  2  0
  9 14  2  0
  9 16  1  0
 10 11  2  0
 10 12  1  0
 11 13  1  0
 15 18  1  0
 16 19  1  0
 17 20  1  0
M  END
>  <PUBCHEM_COMPOUND_CID>  (1) 
39619

>  <PUBCHEM_CONFORMER_RMSD>  (1) 
0.6

>  <PUBCHEM_CONFORMER_DIVERSEORDER>  (1) 
3
9
5
23
24
21
22
19
7
18
11
20
17
4
13
2
16
14
12
15
8
10
6
1

>  <PUBCHEM_MMFF94_PARTIAL_CHARGES>  (1) 
22
1 -0.36
10 0.08
11 0.08
12 -0.15
13 -0.15
14 -0.3
15 0.56
16 0.24
17 0.52
19 0.66
2 -0.36
20 0.06
21 0.15
22 0.15
23 0.15
3 -0.57
33 0.5
4 -0.65
5 -0.57
6 0.29
8 -0.15
9 -0.18

>  <PUBCHEM_EFFECTIVE_ROTOR_COUNT>  (1) 
3.6

>  <PUBCHEM_PHARMACOPHORE_FEATURES>  (1) 
9
1 1 acceptor
1 2 acceptor
1 3 acceptor
1 4 acceptor
1 5 acceptor
3 4 5 19 anion
5 1 2 10 11 15 rings
5 6 7 8 9 14 rings
6 7 8 10 11 12 13 rings

>  <PUBCHEM_HEAVY_ATOM_COUNT>  (1) 
20

>  <PUBCHEM_ATOM_DEF_STEREO_COUNT>  (1) 
0

>  <PUBCHEM_ATOM_UDEF_STEREO_COUNT>  (1) 
1

>  <PUBCHEM_BOND_DEF_STEREO_COUNT>  (1) 
0

>  <PUBCHEM_BOND_UDEF_STEREO_COUNT>  (1) 
0

>  <PUBCHEM_ISOTOPIC_ATOM_COUNT>  (1) 
0

>  <PUBCHEM_COMPONENT_COUNT>  (1) 
1

>  <PUBCHEM_CACTVS_TAUTO_COUNT>  (1) 
1

>  <PUBCHEM_CONFORMER_ID>  (1) 
00009AC300000003

>  <PUBCHEM_MMFF94_ENERGY>  (1) 
42.2027

>  <PUBCHEM_FEATURE_SELFOVERLAP>  (1) 
45.979

>  <PUBCHEM_SHAPE_FINGERPRINT>  (1) 
10062212 137 18114741513155582322
10319926 262 18196350573963959026
10411042 1 18338518667462664067
10967382 1 17687188591027139672
11045515 52 18188768482726492447
11578080 2 17631438107449382497
12173636 292 17905608804709397692
12403259 226 18342454872520221152
12500047 106 18193834839028688776
12553582 1 18266474263348254506
12788726 201 18334848377806431523
13004483 165 18341043120653744131
13140716 1 18411146860869590345
13583140 156 17702927151308016930
138480 1 15960053568274531401
13911987 19 17250353055035276556
13955234 65 17331688354443192763
14178342 30 18263634075070063850
14508225 48 18339070588177115141
15042514 8 18338243673970872187
16087824 20 18337956680858543369
16945 1 18265902366993494112
17539 30 18411972560148246621
1813 80 18127431139802169455
200 152 18334852865836557654
20510252 161 18053669079144569472
20671657 53 18196376042312960191
21339142 126 18410299090365442011
21426921 1 18410857629498193866
21452121 199 18264199391133441416
21524375 3 17756431452229981913
221490 88 17543355307451637155
2255824 54 17547862205702795031
23114952 82 17611457928394329645
2334 1 18265906936822924785
23402539 116 18408601478967410586
23419403 2 17250562958476350044
23526113 38 17753889729465723155
23557571 272 18201441329151975788
23558518 356 18187372042835345536
23559900 14 18053946157134876742
23598288 3 18116456780916493977
257057 1 18338801237908872417
2748010 2 18339919445418602689
298252 57 17829613863932613153
3091708 16 8845330797993856553
352729 6 17832994845229765905
53917941 68 18117821223259743885
58779409 54 18337101285473674477
633830 44 17024615316950847370
69090 78 18120093879466253649
7164475 11 18409172108285154886
7364860 26 17691128557843240017
81228 2 18408037416538325769
9709674 26 18198345057263816734

>  <PUBCHEM_SHAPE_MULTIPOLES>  (1) 
377.26
7.17
4.11
0.83
8.37
1.99
-0.06
-3.69
-0.38
-6.1
-0.4
-0.28
-0.23
-0.23

>  <PUBCHEM_SHAPE_SELFOVERLAP>  (1) 
831.538

>  <PUBCHEM_SHAPE_VOLUME>  (1) 
205.7

>  <PUBCHEM_COORDINATE_TYPE>  (1) 
2
5
10

$$$$
