39613
     RDKit          3D

 26 29  0  0  0  0  0  0  0  0999 V2000
   -6.5723   -0.6431   -0.5760 Br  0  0  0  0  0  0  0  0  0  0  0  0
    2.2319    3.9282   -0.1450 O   0  0  0  0  0  0  0  0  0  0  0  0
   -0.1739    3.8813   -0.1986 O   0  0  0  0  0  0  0  0  0  0  0  0
   -1.5359   -2.5932   -1.2374 O   0  0  0  0  0  0  0  0  0  0  0  0
    5.4274   -2.2759    0.8890 O   0  0  0  0  0  0  0  0  0  0  0  0
    3.5121   -1.5729    1.8883 O   0  0  0  0  0  0  0  0  0  0  0  0
    0.0007   -1.0751   -0.5592 N   0  0  0  0  0  0  0  0  0  0  0  0
    1.8089    0.2826   -0.4231 C   0  0  0  0  0  0  0  0  0  0  0  0
    0.4001    0.2626   -0.4472 C   0  0  0  0  0  0  0  0  0  0  0  0
    2.2492   -1.0592   -0.5162 C   0  0  0  0  0  0  0  0  0  0  0  0
    1.1377   -1.8596   -0.5910 C   0  0  0  0  0  0  0  0  0  0  0  0
    2.5012    1.5110   -0.3182 C   0  0  0  0  0  0  0  0  0  0  0  0
   -0.3503    1.4563   -0.3788 C   0  0  0  0  0  0  0  0  0  0  0  0
    3.6552   -1.5170   -0.5263 C   0  0  0  0  0  0  0  0  0  0  0  0
    1.7399    2.6623   -0.2474 C   0  0  0  0  0  0  0  0  0  0  0  0
    0.3705    2.6338   -0.2774 C   0  0  0  0  0  0  0  0  0  0  0  0
    1.1155   -3.3383   -0.6954 C   0  0  0  0  0  0  0  0  0  0  0  0
   -1.3216   -1.5696   -0.5964 C   0  0  0  0  0  0  0  0  0  0  0  0
   -2.4749   -0.9348    0.0703 C   0  0  0  0  0  0  0  0  0  0  0  0
    1.0123    4.6955   -0.1121 C   0  0  0  0  0  0  0  0  0  0  0  0
    4.1593   -1.7942    0.8725 C   0  0  0  0  0  0  0  0  0  0  0  0
   -3.7498   -1.0673   -0.4740 C   0  0  0  0  0  0  0  0  0  0  0  0
   -2.2821   -0.2057    1.2410 C   0  0  0  0  0  0  0  0  0  0  0  0
   -4.8394   -0.4667    0.1570 C   0  0  0  0  0  0  0  0  0  0  0  0
   -3.3715    0.3948    1.8718 C   0  0  0  0  0  0  0  0  0  0  0  0
   -4.6502    0.2642    1.3299 C   0  0  0  0  0  0  0  0  0  0  0  0
  1 24  1  0
  2 15  1  0
  2 20  1  0
  3 16  1  0
  3 20  1  0
  4 18  2  0
  5 21  1  0
  6 21  2  0
  7  9  1  0
  7 11  1  0
  7 18  1  0
  8  9  2  0
  8 10  1  0
  8 12  1  0
  9 13  1  0
 10 11  2  0
 10 14  1  0
 11 17  1  0
 12 15  2  0
 13 16  2  0
 14 21  1  0
 15 16  1  0
 18 19  1  0
 19 22  2  0
 19 23  1  0
 22 24  1  0
 23 25  2  0
 24 26  2  0
 25 26  1  0
M  END
>  <PUBCHEM_COMPOUND_CID>  (1) 
39613

>  <PUBCHEM_CONFORMER_RMSD>  (1) 
0.8

>  <PUBCHEM_CONFORMER_DIVERSEORDER>  (1) 
5
21
37
30
40
20
1
44
10
35
6
34
22
32
45
25
15
31
36
17
46
41
2
26
42
29
18
19
9
39
4
13
43
7
33
24
14
38
16
8
3
11
27
12
23
28

>  <PUBCHEM_MMFF94_PARTIAL_CHARGES>  (1) 
32
1 -0.11
10 -0.18
11 -0.33
12 -0.15
13 -0.15
14 0.24
15 0.08
16 0.08
17 0.18
18 0.49
19 0.09
2 -0.36
20 0.56
21 0.66
22 -0.15
23 -0.15
24 0.11
25 -0.15
26 -0.15
27 0.15
28 0.15
3 -0.36
36 0.15
37 0.15
38 0.15
39 0.15
4 -0.57
40 0.5
5 -0.65
6 -0.57
7 0.29
9 -0.15

>  <PUBCHEM_EFFECTIVE_ROTOR_COUNT>  (1) 
4.6

>  <PUBCHEM_PHARMACOPHORE_FEATURES>  (1) 
11
1 1 hydrophobe
1 2 acceptor
1 3 acceptor
1 4 acceptor
1 5 acceptor
1 6 acceptor
3 5 6 21 anion
5 2 3 15 16 20 rings
5 7 8 9 10 11 rings
6 19 22 23 24 25 26 rings
6 8 9 12 13 15 16 rings

>  <PUBCHEM_HEAVY_ATOM_COUNT>  (1) 
26

>  <PUBCHEM_ATOM_DEF_STEREO_COUNT>  (1) 
0

>  <PUBCHEM_ATOM_UDEF_STEREO_COUNT>  (1) 
0

>  <PUBCHEM_BOND_DEF_STEREO_COUNT>  (1) 
0

>  <PUBCHEM_BOND_UDEF_STEREO_COUNT>  (1) 
0

>  <PUBCHEM_ISOTOPIC_ATOM_COUNT>  (1) 
0

>  <PUBCHEM_COMPONENT_COUNT>  (1) 
1

>  <PUBCHEM_CACTVS_TAUTO_COUNT>  (1) 
1

>  <PUBCHEM_CONFORMER_ID>  (1) 
00009ABD00000005

>  <PUBCHEM_MMFF94_ENERGY>  (1) 
68.32

>  <PUBCHEM_FEATURE_SELFOVERLAP>  (1) 
56.13

>  <PUBCHEM_SHAPE_FINGERPRINT>  (1) 
10411042 1 18338798905799828646
10674148 151 13623808268200574858
1100329 8 18195531617609551732
11796584 16 16515692104352819779
12156800 1 17537684773852535153
12160290 23 17394751474539153205
12166972 35 18272927233162638611
12403260 363 18342176674756433929
12553582 1 18338809913674297286
12633257 1 18334586719846020587
12788726 201 18117009792837942314
13004483 165 18337379445030940890
13009979 54 18060429035735570315
13134695 92 18334021600638468517
13140716 1 18411701027783968738
13583140 156 18043540606184795115
13692114 37 17042033573620089825
13782708 43 17386300865203938019
138480 1 18411707573118604949
13878862 14 18190158235723325197
14022347 108 18266761116035717054
14117953 113 18270961233352710095
14178342 30 17693364951693747552
14466204 15 18264768749499860521
14739800 52 17416959719872145200
14790565 3 18048889790336696268
14955137 171 18409737248588059446
15042514 8 18048877390812474308
15420108 30 17914603106793910108
15475509 35 17313110769535555619
15475509 8 17843154491747405628
17349148 13 18202847660548620411
17492 89 18195813088096811271
17980427 23 17704069594969648881
1813 80 18340493266155718270
18222031 100 18341618083461945918
192875 21 18343303669653077403
19301679 30 18047747105465578402
20600515 1 18273218586390296846
20642791 268 18059306352795967257
20642791 35 18269284607206831596
20715895 44 18271530776619045897
20739085 24 18412266142616632868
20832881 197 18114180805032456843
21033648 29 17385717041903999813
21041028 32 18335983069453221996
2132832 1 17914312801059049199
21796203 349 17976861715544833216
22149856 69 16987744406201254283
22182313 1 17839464384611766310
23419403 2 17968919955662740588
23558518 356 17544482311132815822
23559900 14 17774735262841916719
25147074 1 18128246981471739071
2748010 2 17693663610739807182
3091708 16 9212075083593287316
3380486 145 18049740515999104033
345986 75 17678720255544047658
352729 6 17833551198287571988
376196 1 17123678324710247700
4409770 3 17973713684478203860
474 4 18268998759641767505
5104073 3 18337964497303143667
513202 73 17977388231407421698
5939293 188 18412552036851122734
5951187 136 13753603262169683473
67856867 119 18271239551549264203
7064713 232 17774168890041991417
90316 7 18339071576103988906
9777508 108 17475797550606919768
9981440 41 17547003491063178513

>  <PUBCHEM_SHAPE_MULTIPOLES>  (1) 
506.68
9.77
4.67
1.22
11.26
5.75
-0.56
-5.5
-2.11
-5.51
0.78
0.34
-0.46
-1.43

>  <PUBCHEM_SHAPE_SELFOVERLAP>  (1) 
1119.602

>  <PUBCHEM_SHAPE_VOLUME>  (1) 
280.9

>  <PUBCHEM_COORDINATE_TYPE>  (1) 
2
5
10

$$$$
