39621
     RDKit          3D

 25 29  0  0  0  0  0  0  0  0999 V2000
   -5.8602   -0.1408    0.7830 F   0  0  0  0  0  0  0  0  0  0  0  0
    1.8780   -4.2403    0.1222 O   0  0  0  0  0  0  0  0  0  0  0  0
   -0.4086   -3.8309   -0.5071 O   0  0  0  0  0  0  0  0  0  0  0  0
   -0.6801    2.8508   -1.0409 O   0  0  0  0  0  0  0  0  0  0  0  0
    0.4649    1.0631   -0.2653 N   0  0  0  0  0  0  0  0  0  0  0  0
    2.6448    0.7038    0.1969 C   0  0  0  0  0  0  0  0  0  0  0  0
    1.6925    1.6718   -0.0458 C   0  0  0  0  0  0  0  0  0  0  0  0
    4.0698    1.0208    0.5078 C   0  0  0  0  0  0  0  0  0  0  0  0
    1.9634    3.1459   -0.0371 C   0  0  0  0  0  0  0  0  0  0  0  0
    4.4163    2.4698    0.1325 C   0  0  0  0  0  0  0  0  0  0  0  0
    3.3298    3.4469    0.6032 C   0  0  0  0  0  0  0  0  0  0  0  0
    2.0117   -0.5599    0.1082 C   0  0  0  0  0  0  0  0  0  0  0  0
    0.6598   -0.3258   -0.2158 C   0  0  0  0  0  0  0  0  0  0  0  0
    2.4898   -1.8840    0.2550 C   0  0  0  0  0  0  0  0  0  0  0  0
   -0.2206   -1.4005   -0.4694 C   0  0  0  0  0  0  0  0  0  0  0  0
   -0.7489    1.7425   -0.5170 C   0  0  0  0  0  0  0  0  0  0  0  0
    1.5931   -2.9115    0.0369 C   0  0  0  0  0  0  0  0  0  0  0  0
    0.2923   -2.6769   -0.3187 C   0  0  0  0  0  0  0  0  0  0  0  0
   -2.0932    1.2472   -0.1749 C   0  0  0  0  0  0  0  0  0  0  0  0
    0.6022   -4.8173   -0.2192 C   0  0  0  0  0  0  0  0  0  0  0  0
   -2.2675    0.4131    0.9281 C   0  0  0  0  0  0  0  0  0  0  0  0
   -3.1888    1.6135   -0.9553 C   0  0  0  0  0  0  0  0  0  0  0  0
   -3.5406   -0.0559    1.2519 C   0  0  0  0  0  0  0  0  0  0  0  0
   -4.4620    1.1447   -0.6314 C   0  0  0  0  0  0  0  0  0  0  0  0
   -4.6379    0.3099    0.4723 C   0  0  0  0  0  0  0  0  0  0  0  0
  1 25  1  0
  2 17  1  0
  2 20  1  0
  3 18  1  0
  3 20  1  0
  4 16  2  0
  5  7  1  0
  5 13  1  0
  5 16  1  0
  6  7  2  0
  6  8  1  0
  6 12  1  0
  7  9  1  0
  8 10  1  0
  9 11  1  0
 10 11  1  0
 12 13  2  0
 12 14  1  0
 13 15  1  0
 14 17  2  0
 15 18  2  0
 16 19  1  0
 17 18  1  0
 19 21  2  0
 19 22  1  0
 21 23  1  0
 22 24  2  0
 23 25  2  0
 24 25  1  0
M  END
>  <PUBCHEM_COMPOUND_CID>  (1) 
39621

>  <PUBCHEM_CONFORMER_RMSD>  (1) 
0.6

>  <PUBCHEM_CONFORMER_DIVERSEORDER>  (1) 
1
7
3
4
2
5
6

>  <PUBCHEM_MMFF94_PARTIAL_CHARGES>  (1) 
28
1 -0.19
13 -0.15
14 -0.15
15 -0.15
16 0.49
17 0.08
18 0.08
19 0.09
2 -0.36
20 0.56
21 -0.15
22 -0.15
23 -0.15
24 -0.15
25 0.19
3 -0.36
34 0.15
35 0.15
38 0.15
39 0.15
4 -0.57
40 0.15
41 0.15
5 0.29
6 -0.18
7 -0.33
8 0.18
9 0.18

>  <PUBCHEM_EFFECTIVE_ROTOR_COUNT>  (1) 
3.4

>  <PUBCHEM_PHARMACOPHORE_FEATURES>  (1) 
8
1 2 acceptor
1 3 acceptor
1 4 acceptor
5 2 3 17 18 20 rings
5 5 6 7 12 13 rings
6 12 13 14 15 17 18 rings
6 19 21 22 23 24 25 rings
6 6 7 8 9 10 11 rings

>  <PUBCHEM_HEAVY_ATOM_COUNT>  (1) 
25

>  <PUBCHEM_ATOM_DEF_STEREO_COUNT>  (1) 
0

>  <PUBCHEM_ATOM_UDEF_STEREO_COUNT>  (1) 
0

>  <PUBCHEM_BOND_DEF_STEREO_COUNT>  (1) 
0

>  <PUBCHEM_BOND_UDEF_STEREO_COUNT>  (1) 
0

>  <PUBCHEM_ISOTOPIC_ATOM_COUNT>  (1) 
0

>  <PUBCHEM_COMPONENT_COUNT>  (1) 
1

>  <PUBCHEM_CACTVS_TAUTO_COUNT>  (1) 
1

>  <PUBCHEM_CONFORMER_ID>  (1) 
00009AC500000001

>  <PUBCHEM_MMFF94_ENERGY>  (1) 
63.6162

>  <PUBCHEM_FEATURE_SELFOVERLAP>  (1) 
40.925

>  <PUBCHEM_SHAPE_FINGERPRINT>  (1) 
10050765 1 17834675282062233632
10074138 170 17906141286702235888
10411042 1 17618782462183659511
10493431 412 18268146642098700008
10940486 97 15671561500062069582
10967382 1 18338793416894459974
1100329 8 18341327915993609248
11227688 84 17621025469972690671
11370993 70 18339360867852593761
114674 6 18188780435668411427
11578080 2 16010980984094174038
11582403 64 16811737843614481493
12553582 1 17475804151781658526
12788726 201 17327726805320886882
13140716 1 18339360871952148202
13540713 5 17539400343290097620
13583140 156 16734920519632761028
1361 2 18337952406853763939
138480 1 18051128090724369022
13911987 19 18335978778612783933
140371 6 17186148770427856996
14223421 5 18192149300398312461
14363568 33 18195829395797061578
14659021 117 16391261172111714651
14787075 74 17844526815382022897
14790565 3 18265617760980869700
14863182 85 18261690232500010117
14866123 147 18266733774595235186
14955137 171 18194113024414171130
15927050 60 18340486785493459750
16728300 4 17535155931884289024
17138139 8 17413276390684801559
19591789 44 18410858720725907270
1979834 28 18190482583058322241
19930381 70 18337951186682274593
20028762 73 18200869672915276262
204376 136 18340206400657603385
20642791 13 17692243462971609892
20645477 70 18263072237454850829
20739085 24 18335712598083055364
20775438 99 17470117572560052277
21033648 29 18269823367230040145
21133410 32 16233711304880519675
21197605 99 18192441985841533619
21285901 2 17749105553037295125
21796203 349 17979101308640087170
221490 88 18120654621822049343
22224240 67 18270961366322713425
23558518 356 17541935838224833040
23559900 14 18120365454669700649
23845131 108 18337950216088568987
25222932 49 17313672680275404083
283562 15 17401755823723130562
3091708 16 9548756569093598898
3178227 256 18410020909844788992
3380486 145 17545619850342930664
33824 294 18410013230132124481
3421961 26 18266461993000788011
3729539 64 18195836015132384750
3886686 26 17765391665391896856
5104073 3 17837192038334414136
5309563 4 18051131389544517751
621550 34 18407761426424775397
6438718 38 17556024923823714006
6442390 28 18339081621937334252
6443956 14 17977384928154837141
653340 110 17476632556763819408
6669772 16 18343309171817569886
7399639 24 18334853931352431093
81228 2 17470153126272505496
9709674 26 18047465622161754541
9777508 108 17837201941621117120

>  <PUBCHEM_SHAPE_MULTIPOLES>  (1) 
484.63
7.99
5.51
0.89
7.86
7.02
0.06
-6.24
1.93
-4.6
-0.68
0.61
-0.22
0.62

>  <PUBCHEM_SHAPE_SELFOVERLAP>  (1) 
1099.369

>  <PUBCHEM_SHAPE_VOLUME>  (1) 
255

>  <PUBCHEM_COORDINATE_TYPE>  (1) 
2
5
10

$$$$
