39622
     RDKit          3D

 25 29  0  0  0  0  0  0  0  0999 V2000
    3.9002    0.6120    2.1375 F   0  0  0  0  0  0  0  0  0  0  0  0
   -1.5156    4.3188    0.0444 O   0  0  0  0  0  0  0  0  0  0  0  0
    0.7220    3.7542   -0.6388 O   0  0  0  0  0  0  0  0  0  0  0  0
    0.5494   -2.9376   -1.0782 O   0  0  0  0  0  0  0  0  0  0  0  0
   -0.4568   -1.0695   -0.2998 N   0  0  0  0  0  0  0  0  0  0  0  0
   -2.5957   -0.5640    0.2142 C   0  0  0  0  0  0  0  0  0  0  0  0
   -1.7145   -1.5947   -0.0389 C   0  0  0  0  0  0  0  0  0  0  0  0
   -4.0291   -0.7842    0.5674 C   0  0  0  0  0  0  0  0  0  0  0  0
   -2.0792   -3.0480   -0.0007 C   0  0  0  0  0  0  0  0  0  0  0  0
   -4.4780   -2.2127    0.2234 C   0  0  0  0  0  0  0  0  0  0  0  0
   -3.4440   -3.2515    0.6799 C   0  0  0  0  0  0  0  0  0  0  0  0
   -1.8855    0.6549    0.0897 C   0  0  0  0  0  0  0  0  0  0  0  0
   -0.5608    0.3296   -0.2663 C   0  0  0  0  0  0  0  0  0  0  0  0
   -2.2734    2.0089    0.2290 C   0  0  0  0  0  0  0  0  0  0  0  0
    0.3795    1.3417   -0.5593 C   0  0  0  0  0  0  0  0  0  0  0  0
    0.7036   -1.8292   -0.5732 C   0  0  0  0  0  0  0  0  0  0  0  0
   -1.3190    2.9734   -0.0282 C   0  0  0  0  0  0  0  0  0  0  0  0
   -0.0461    2.6505   -0.4144 C   0  0  0  0  0  0  0  0  0  0  0  0
    2.0857   -1.4171   -0.2743 C   0  0  0  0  0  0  0  0  0  0  0  0
   -0.2152    4.8076   -0.3392 C   0  0  0  0  0  0  0  0  0  0  0  0
    2.3426   -0.5810    0.8111 C   0  0  0  0  0  0  0  0  0  0  0  0
    3.1342   -1.8633   -1.0773 C   0  0  0  0  0  0  0  0  0  0  0  0
    3.6514   -0.1902    1.0943 C   0  0  0  0  0  0  0  0  0  0  0  0
    4.4428   -1.4726   -0.7942 C   0  0  0  0  0  0  0  0  0  0  0  0
    4.7015   -0.6362    0.2917 C   0  0  0  0  0  0  0  0  0  0  0  0
  1 23  1  0
  2 17  1  0
  2 20  1  0
  3 18  1  0
  3 20  1  0
  4 16  2  0
  5  7  1  0
  5 13  1  0
  5 16  1  0
  6  7  2  0
  6  8  1  0
  6 12  1  0
  7  9  1  0
  8 10  1  0
  9 11  1  0
 10 11  1  0
 12 13  2  0
 12 14  1  0
 13 15  1  0
 14 17  2  0
 15 18  2  0
 16 19  1  0
 17 18  1  0
 19 21  2  0
 19 22  1  0
 21 23  1  0
 22 24  2  0
 23 25  2  0
 24 25  1  0
M  END
>  <PUBCHEM_COMPOUND_CID>  (1) 
39622

>  <PUBCHEM_CONFORMER_RMSD>  (1) 
0.6

>  <PUBCHEM_CONFORMER_DIVERSEORDER>  (1) 
1
15
12
11
5
2
16
13
20
7
8
6
14
18
4
9
19
17
10
3

>  <PUBCHEM_MMFF94_PARTIAL_CHARGES>  (1) 
28
1 -0.19
13 -0.15
14 -0.15
15 -0.15
16 0.49
17 0.08
18 0.08
19 0.09
2 -0.36
20 0.56
21 -0.15
22 -0.15
23 0.19
24 -0.15
25 -0.15
3 -0.36
34 0.15
35 0.15
38 0.15
39 0.15
4 -0.57
40 0.15
41 0.15
5 0.29
6 -0.18
7 -0.33
8 0.18
9 0.18

>  <PUBCHEM_EFFECTIVE_ROTOR_COUNT>  (1) 
3.4

>  <PUBCHEM_PHARMACOPHORE_FEATURES>  (1) 
8
1 2 acceptor
1 3 acceptor
1 4 acceptor
5 2 3 17 18 20 rings
5 5 6 7 12 13 rings
6 12 13 14 15 17 18 rings
6 19 21 22 23 24 25 rings
6 6 7 8 9 10 11 rings

>  <PUBCHEM_HEAVY_ATOM_COUNT>  (1) 
25

>  <PUBCHEM_ATOM_DEF_STEREO_COUNT>  (1) 
0

>  <PUBCHEM_ATOM_UDEF_STEREO_COUNT>  (1) 
0

>  <PUBCHEM_BOND_DEF_STEREO_COUNT>  (1) 
0

>  <PUBCHEM_BOND_UDEF_STEREO_COUNT>  (1) 
0

>  <PUBCHEM_ISOTOPIC_ATOM_COUNT>  (1) 
0

>  <PUBCHEM_COMPONENT_COUNT>  (1) 
1

>  <PUBCHEM_CACTVS_TAUTO_COUNT>  (1) 
1

>  <PUBCHEM_CONFORMER_ID>  (1) 
00009AC600000001

>  <PUBCHEM_MMFF94_ENERGY>  (1) 
63.5926

>  <PUBCHEM_FEATURE_SELFOVERLAP>  (1) 
40.925

>  <PUBCHEM_SHAPE_FINGERPRINT>  (1) 
10006869 2 17975973168885186779
10050765 1 17905614651331467059
10165383 225 17547873853670263900
10319926 262 18195510516862949778
10369192 42 17273404205528492144
10411042 1 18338243755386002751
10498660 4 18336264523007720372
10670039 82 18336562542868427372
1100329 8 18408613565300417049
11115154 58 17630013076831319461
12173636 292 17977103457341114876
12403259 226 18272088245587704686
12553582 1 18337972154802388455
12592029 89 17400087864430904819
12623949 98 17417547872425108406
12788726 201 18187651267022060810
13140716 1 18410013264365288313
138480 1 15310691857786188661
140371 6 18411428293455543559
14081887 123 18338510833563284842
14178342 30 18190736441142306474
14787075 74 17823982440622212178
14790565 3 17184476954192254237
14955137 171 18049447242788948312
15042514 8 18336831879291813915
15475509 35 16951976274477736099
15927050 60 17042899451758553630
15961568 22 18338517573068734996
17357779 13 18270664425057649375
1813 80 18335982077036273275
19591789 44 16753257332593738191
19611394 137 17610912562164132258
20510252 161 18197500627632379563
20600515 1 18270978911269190671
21033648 29 17846771932063436243
21421861 104 18049461523613269211
23366157 5 17682118021404158871
23557571 272 18411421674478586238
23558518 356 17972890154717376010
23559900 14 18194679496129738859
238 59 17189226333201501204
23845131 108 17474401171177787505
3091708 16 8991131516088937973
3178227 256 16610278408180875553
3187 122 18337093640453058256
350125 39 17617104602906854918
3524813 1 18059849563275063490
43471831 8 17112414970713034731
44317340 157 15883757365360668572
508706 21 18124871262300476278
57091435 65 17905047310849661544
6287921 2 17985263234269044688
6442390 28 17762345708164588985
7364860 26 17977672235839359087
7399639 24 18201143439190224098
7808743 9 18120384159837928444
81228 2 18339094678796351723
90316 7 18408882927889338251
9777508 108 18123751946014346761
9981440 41 17470447335426368073

>  <PUBCHEM_SHAPE_MULTIPOLES>  (1) 
484.63
7.42
5.52
1.02
4.11
7.18
0.28
-6.56
1.87
-3.37
-0.93
1.01
-0.18
0.84

>  <PUBCHEM_SHAPE_SELFOVERLAP>  (1) 
1099.404

>  <PUBCHEM_SHAPE_VOLUME>  (1) 
254.7

>  <PUBCHEM_COORDINATE_TYPE>  (1) 
2
5
10

$$$$
