39623
     RDKit          3D

 25 29  0  0  0  0  0  0  0  0999 V2000
   -6.2014   -0.1847    0.8416 Cl  0  0  0  0  0  0  0  0  0  0  0  0
    1.8383   -4.2590    0.1232 O   0  0  0  0  0  0  0  0  0  0  0  0
   -0.4400   -3.8204   -0.5166 O   0  0  0  0  0  0  0  0  0  0  0  0
   -0.6254    2.8645   -1.0453 O   0  0  0  0  0  0  0  0  0  0  0  0
    0.4934    1.0620   -0.2660 N   0  0  0  0  0  0  0  0  0  0  0  0
    2.6664    0.6751    0.2062 C   0  0  0  0  0  0  0  0  0  0  0  0
    1.7275    1.6552   -0.0402 C   0  0  0  0  0  0  0  0  0  0  0  0
    4.0938    0.9740    0.5241 C   0  0  0  0  0  0  0  0  0  0  0  0
    2.0168    3.1258   -0.0288 C   0  0  0  0  0  0  0  0  0  0  0  0
    4.4601    2.4189    0.1519 C   0  0  0  0  0  0  0  0  0  0  0  0
    3.3837    3.4091    0.6183 C   0  0  0  0  0  0  0  0  0  0  0  0
    2.0180   -0.5805    0.1132 C   0  0  0  0  0  0  0  0  0  0  0  0
    0.6707   -0.3292   -0.2169 C   0  0  0  0  0  0  0  0  0  0  0  0
    2.4788   -1.9105    0.2611 C   0  0  0  0  0  0  0  0  0  0  0  0
   -0.2219   -1.3926   -0.4757 C   0  0  0  0  0  0  0  0  0  0  0  0
   -0.7106    1.7568   -0.5228 C   0  0  0  0  0  0  0  0  0  0  0  0
    1.5704   -2.9266    0.0378 C   0  0  0  0  0  0  0  0  0  0  0  0
    0.2744   -2.6755   -0.3238 C   0  0  0  0  0  0  0  0  0  0  0  0
   -2.0626    1.2780   -0.1876 C   0  0  0  0  0  0  0  0  0  0  0  0
    0.5570   -4.8197   -0.2248 C   0  0  0  0  0  0  0  0  0  0  0  0
   -2.2520    0.4453    0.9139 C   0  0  0  0  0  0  0  0  0  0  0  0
   -3.1503    1.6597   -0.9716 C   0  0  0  0  0  0  0  0  0  0  0  0
   -3.5325   -0.0071    1.2325 C   0  0  0  0  0  0  0  0  0  0  0  0
   -4.4308    1.2075   -0.6530 C   0  0  0  0  0  0  0  0  0  0  0  0
   -4.6219    0.3741    0.4492 C   0  0  0  0  0  0  0  0  0  0  0  0
  1 25  1  0
  2 17  1  0
  2 20  1  0
  3 18  1  0
  3 20  1  0
  4 16  2  0
  5  7  1  0
  5 13  1  0
  5 16  1  0
  6  7  2  0
  6  8  1  0
  6 12  1  0
  7  9  1  0
  8 10  1  0
  9 11  1  0
 10 11  1  0
 12 13  2  0
 12 14  1  0
 13 15  1  0
 14 17  2  0
 15 18  2  0
 16 19  1  0
 17 18  1  0
 19 21  2  0
 19 22  1  0
 21 23  1  0
 22 24  2  0
 23 25  2  0
 24 25  1  0
M  END
>  <PUBCHEM_COMPOUND_CID>  (1) 
39623

>  <PUBCHEM_CONFORMER_RMSD>  (1) 
0.6

>  <PUBCHEM_CONFORMER_DIVERSEORDER>  (1) 
1
5
3
4
2
6
7

>  <PUBCHEM_MMFF94_PARTIAL_CHARGES>  (1) 
28
1 -0.18
13 -0.15
14 -0.15
15 -0.15
16 0.49
17 0.08
18 0.08
19 0.09
2 -0.36
20 0.56
21 -0.15
22 -0.15
23 -0.15
24 -0.15
25 0.18
3 -0.36
34 0.15
35 0.15
38 0.15
39 0.15
4 -0.57
40 0.15
41 0.15
5 0.29
6 -0.18
7 -0.33
8 0.18
9 0.18

>  <PUBCHEM_EFFECTIVE_ROTOR_COUNT>  (1) 
3.4

>  <PUBCHEM_PHARMACOPHORE_FEATURES>  (1) 
8
1 2 acceptor
1 3 acceptor
1 4 acceptor
5 2 3 17 18 20 rings
5 5 6 7 12 13 rings
6 12 13 14 15 17 18 rings
6 19 21 22 23 24 25 rings
6 6 7 8 9 10 11 rings

>  <PUBCHEM_HEAVY_ATOM_COUNT>  (1) 
25

>  <PUBCHEM_ATOM_DEF_STEREO_COUNT>  (1) 
0

>  <PUBCHEM_ATOM_UDEF_STEREO_COUNT>  (1) 
0

>  <PUBCHEM_BOND_DEF_STEREO_COUNT>  (1) 
0

>  <PUBCHEM_BOND_UDEF_STEREO_COUNT>  (1) 
0

>  <PUBCHEM_ISOTOPIC_ATOM_COUNT>  (1) 
0

>  <PUBCHEM_COMPONENT_COUNT>  (1) 
1

>  <PUBCHEM_CACTVS_TAUTO_COUNT>  (1) 
1

>  <PUBCHEM_CONFORMER_ID>  (1) 
00009AC700000001

>  <PUBCHEM_MMFF94_ENERGY>  (1) 
64.2937

>  <PUBCHEM_FEATURE_SELFOVERLAP>  (1) 
40.925

>  <PUBCHEM_SHAPE_FINGERPRINT>  (1) 
10050765 1 17834674178255632064
10074138 170 17905860906926367954
10165383 225 18340493382099249640
10411042 1 17691122634920549071
10493431 412 18268146637756240448
10940486 97 15671842975022962486
10967382 1 18338792313098420902
1100329 8 18269270330482403328
11227688 84 17621027664753745935
114674 6 18188500064540500387
11582403 64 16811737843603944981
12403259 226 17973445404010278279
12553582 1 17475804151723675238
12788726 201 17040082507289662260
13140716 1 18338795718844118794
13540713 5 17539681818261526996
13583140 156 16734920519616949780
1361 2 18337953502065169219
138480 1 18051128086434676478
13911987 19 18335978774312548381
140371 6 17114091176384654300
14363568 33 18195828291990466474
14659021 117 16391262271697227947
14787075 74 17844526815392578929
14790565 3 18265899240147007140
14863182 85 18261689128719782333
14866123 147 18266732675083620410
14955137 171 18194111920607556562
15927050 60 18340768256138299350
16728300 4 17607214625439145466
17138139 8 17413275286878199983
19591789 44 18410857621214260006
1979834 28 18262537973778046769
19930381 70 18337950082891490777
20028762 73 18200869677226061311
204376 136 18340206396357367833
20642791 13 17692524933626934036
20645477 70 18263074440762498085
20775438 99 17470118672082223037
21033648 29 18270104842328031169
21133410 32 16233712408687140739
21197605 99 18192441981541278579
21285901 2 17748826290010894357
21781051 124 18115325470020570176
21796203 349 17979382779290182011
221490 88 18120654621874816351
22224240 67 18270961361980292849
23558518 356 17469878248444975120
23559900 14 18048306756851551401
23845131 108 18337951315610765787
25222932 49 17313670481304902523
283562 15 17401755819417639754
3091708 16 9549038044080859050
3178227 256 18410301285304603616
3380486 145 17473844830777471464
33824 294 18410013230142680489
3421961 26 18266181621888707699
4340502 62 18200317739879821505
5309563 4 18051132493393310791
58260988 647 16843358664358082308
59755656 520 18269837682513571988
621550 34 18407761426435324893
6438718 38 17556023820017099470
6442390 28 18339363092603214372
6443956 14 17905327329784979669
653340 110 17476914031635002536
6669772 16 18343309171796464382
7399639 24 18334853927057463797
81228 2 17470153126267204760
9709674 26 18047465622172310533
9777508 108 17837484516067244552

>  <PUBCHEM_SHAPE_MULTIPOLES>  (1) 
493.77
8.69
5.42
0.91
10.37
6.96
0.05
-6.14
2.44
-4.91
-0.69
0.64
-0.24
0.7

>  <PUBCHEM_SHAPE_SELFOVERLAP>  (1) 
1107.323

>  <PUBCHEM_SHAPE_VOLUME>  (1) 
263.4

>  <PUBCHEM_COORDINATE_TYPE>  (1) 
2
5
10

$$$$
