39620
     RDKit          3D

 23 25  0  0  0  0  0  0  0  0999 V2000
   -6.6845    0.4844   -1.4888 Cl  0  0  0  0  0  0  0  0  0  0  0  0
    0.1697   -4.0471   -0.0095 O   0  0  0  0  0  0  0  0  0  0  0  0
    2.5226   -3.5792   -0.2030 O   0  0  0  0  0  0  0  0  0  0  0  0
   -2.4815    1.8997    1.5345 O   0  0  0  0  0  0  0  0  0  0  0  0
    4.3318    3.2242   -0.9431 O   0  0  0  0  0  0  0  0  0  0  0  0
    2.5526    2.2524   -1.9650 O   0  0  0  0  0  0  0  0  0  0  0  0
   -0.6715    0.8085    0.6718 N   0  0  0  0  0  0  0  0  0  0  0  0
   -0.0076   -0.4073    0.4529 C   0  0  0  0  0  0  0  0  0  0  0  0
    1.3686   -0.1265    0.3402 C   0  0  0  0  0  0  0  0  0  0  0  0
    1.5251    1.2709    0.4933 C   0  0  0  0  0  0  0  0  0  0  0  0
    0.2802    1.8117    0.6922 C   0  0  0  0  0  0  0  0  0  0  0  0
   -0.4948   -1.7279    0.3443 C   0  0  0  0  0  0  0  0  0  0  0  0
    2.2929   -1.1725    0.1144 C   0  0  0  0  0  0  0  0  0  0  0  0
    2.8028    2.0144    0.4455 C   0  0  0  0  0  0  0  0  0  0  0  0
   -2.0595    0.9848    0.8416 C   0  0  0  0  0  0  0  0  0  0  0  0
    0.4465   -2.7187    0.1232 C   0  0  0  0  0  0  0  0  0  0  0  0
    1.7860   -2.4539    0.0125 C   0  0  0  0  0  0  0  0  0  0  0  0
   -0.0008    3.2522    0.8963 C   0  0  0  0  0  0  0  0  0  0  0  0
   -2.9395   -0.0017    0.1329 C   0  0  0  0  0  0  0  0  0  0  0  0
   -4.2441    0.6525   -0.3071 C   0  0  0  0  0  0  0  0  0  0  0  0
    1.4907   -4.5851   -0.2162 C   0  0  0  0  0  0  0  0  0  0  0  0
    3.1870    2.4914   -0.9467 C   0  0  0  0  0  0  0  0  0  0  0  0
   -5.1728   -0.3273   -1.0162 C   0  0  0  0  0  0  0  0  0  0  0  0
  1 23  1  0
  2 16  1  0
  2 21  1  0
  3 17  1  0
  3 21  1  0
  4 15  2  0
  5 22  1  0
  6 22  2  0
  7  8  1  0
  7 11  1  0
  7 15  1  0
  8  9  2  0
  8 12  1  0
  9 10  1  0
  9 13  1  0
 10 11  2  0
 10 14  1  0
 11 18  1  0
 12 16  2  0
 13 17  2  0
 14 22  1  0
 15 19  1  0
 16 17  1  0
 19 20  1  0
 20 23  1  0
M  END
>  <PUBCHEM_COMPOUND_CID>  (1) 
39620

>  <PUBCHEM_CONFORMER_RMSD>  (1) 
0.8

>  <PUBCHEM_CONFORMER_DIVERSEORDER>  (1) 
3
25
50
60
13
39
10
21
23
55
51
31
26
11
30
62
54
1
36
34
44
33
59
56
52
53
19
2
37
43
5
41
57
27
46
38
32
24
8
48
42
20
12
28
6
49
9
35
47
29
18
40
14
58
15
22
45
16
17
7
61
4

>  <PUBCHEM_MMFF94_PARTIAL_CHARGES>  (1) 
24
1 -0.29
10 -0.18
11 -0.33
12 -0.15
13 -0.15
14 0.24
15 0.52
16 0.08
17 0.08
18 0.18
19 0.06
2 -0.36
21 0.56
22 0.66
23 0.29
24 0.15
25 0.15
3 -0.36
39 0.5
4 -0.57
5 -0.65
6 -0.57
7 0.29
8 -0.15

>  <PUBCHEM_EFFECTIVE_ROTOR_COUNT>  (1) 
6.6

>  <PUBCHEM_PHARMACOPHORE_FEATURES>  (1) 
9
1 2 acceptor
1 3 acceptor
1 4 acceptor
1 5 acceptor
1 6 acceptor
3 5 6 22 anion
5 2 3 16 17 21 rings
5 7 8 9 10 11 rings
6 8 9 12 13 16 17 rings

>  <PUBCHEM_HEAVY_ATOM_COUNT>  (1) 
23

>  <PUBCHEM_ATOM_DEF_STEREO_COUNT>  (1) 
0

>  <PUBCHEM_ATOM_UDEF_STEREO_COUNT>  (1) 
0

>  <PUBCHEM_BOND_DEF_STEREO_COUNT>  (1) 
0

>  <PUBCHEM_BOND_UDEF_STEREO_COUNT>  (1) 
0

>  <PUBCHEM_ISOTOPIC_ATOM_COUNT>  (1) 
0

>  <PUBCHEM_COMPONENT_COUNT>  (1) 
1

>  <PUBCHEM_CACTVS_TAUTO_COUNT>  (1) 
1

>  <PUBCHEM_CONFORMER_ID>  (1) 
00009AC400000003

>  <PUBCHEM_MMFF94_ENERGY>  (1) 
51.2021

>  <PUBCHEM_FEATURE_SELFOVERLAP>  (1) 
45.98

>  <PUBCHEM_SHAPE_FINGERPRINT>  (1) 
10693767 8 17988641887045330718
11045515 52 17686059392389968807
11069576 57 18199452308502048279
12293681 160 18058735843558200177
12553582 1 17907871599855573595
12730499 353 18337110168130466467
13004483 165 17038669063379670291
13009979 54 17558830577372405075
13052359 8 18050567644990004616
13140716 1 18339378421573706938
13540713 5 18058456400754966321
13836976 161 18336255812518618765
13911987 19 18264497358880261213
13968360 50 18336536196452258447
14508225 48 17761488097600248150
14790565 3 17835268970378622577
14863182 85 18341599426076117274
15475509 35 13183024038419382197
15842332 3 17915755184463527977
16752209 62 17906449188401819010
16945 1 18194416493295321386
19591789 44 18123779640380241882
20642791 105 17903915900768628128
20645477 70 18335973195745284715
221490 88 18410575055363718795
2255824 54 18339368452564345762
23114952 82 18260825947873534781
2334 1 18267595782694092306
23559900 14 18340473479542150635
25147074 1 17987525814677866609
266924 1 18130794404512213849
2748010 2 18266479756843288138
3060560 45 18339634667733633461
3380486 145 17615420155773314960
352729 6 18339372966975894258
394222 165 18040708221039352504
4409770 3 17833275594172289594
46194498 28 18114451259529365685
484989 97 18265627652243118338
58779409 8 17978235181381768646
6025842 7 18410566293503321303
70251023 43 18192993708638796203

>  <PUBCHEM_SHAPE_MULTIPOLES>  (1) 
440.87
8.39
5.33
1.19
17.98
4.74
-0.31
-3.55
-5.08
-7.11
-0.49
0.29
-0.96
-1.3

>  <PUBCHEM_SHAPE_SELFOVERLAP>  (1) 
946.811

>  <PUBCHEM_SHAPE_VOLUME>  (1) 
247.3

>  <PUBCHEM_COORDINATE_TYPE>  (1) 
2
5
10

$$$$
