39624
     RDKit          3D

 25 29  0  0  0  0  0  0  0  0999 V2000
    4.0112    0.7507    2.3848 Cl  0  0  0  0  0  0  0  0  0  0  0  0
   -1.4205    4.3439    0.0191 O   0  0  0  0  0  0  0  0  0  0  0  0
    0.7975    3.7247   -0.6802 O   0  0  0  0  0  0  0  0  0  0  0  0
    0.4699   -2.9640   -1.0768 O   0  0  0  0  0  0  0  0  0  0  0  0
   -0.4869   -1.0690   -0.3012 N   0  0  0  0  0  0  0  0  0  0  0  0
   -2.6092   -0.5121    0.2285 C   0  0  0  0  0  0  0  0  0  0  0  0
   -1.7538   -1.5640   -0.0259 C   0  0  0  0  0  0  0  0  0  0  0  0
   -4.0440   -0.6977    0.5956 C   0  0  0  0  0  0  0  0  0  0  0  0
   -2.1508   -3.0084    0.0245 C   0  0  0  0  0  0  0  0  0  0  0  0
   -4.5280   -2.1176    0.2644 C   0  0  0  0  0  0  0  0  0  0  0  0
   -3.5138   -3.1769    0.7183 C   0  0  0  0  0  0  0  0  0  0  0  0
   -1.8728    0.6896    0.0902 C   0  0  0  0  0  0  0  0  0  0  0  0
   -0.5589    0.3323   -0.2753 C   0  0  0  0  0  0  0  0  0  0  0  0
   -2.2287    2.0528    0.2246 C   0  0  0  0  0  0  0  0  0  0  0  0
    0.4014    1.3211   -0.5828 C   0  0  0  0  0  0  0  0  0  0  0  0
    0.6535   -1.8564   -0.5800 C   0  0  0  0  0  0  0  0  0  0  0  0
   -1.2550    2.9939   -0.0470 C   0  0  0  0  0  0  0  0  0  0  0  0
    0.0067    2.6400   -0.4424 C   0  0  0  0  0  0  0  0  0  0  0  0
    2.0472   -1.4739   -0.2958 C   0  0  0  0  0  0  0  0  0  0  0  0
   -0.1129    4.8008   -0.3790 C   0  0  0  0  0  0  0  0  0  0  0  0
    2.3337   -0.6392    0.7831 C   0  0  0  0  0  0  0  0  0  0  0  0
    3.0772   -1.9493   -1.1059 C   0  0  0  0  0  0  0  0  0  0  0  0
    3.6540   -0.2787    1.0527 C   0  0  0  0  0  0  0  0  0  0  0  0
    4.3973   -1.5889   -0.8364 C   0  0  0  0  0  0  0  0  0  0  0  0
    4.6858   -0.7537    0.2429 C   0  0  0  0  0  0  0  0  0  0  0  0
  1 23  1  0
  2 17  1  0
  2 20  1  0
  3 18  1  0
  3 20  1  0
  4 16  2  0
  5  7  1  0
  5 13  1  0
  5 16  1  0
  6  7  2  0
  6  8  1  0
  6 12  1  0
  7  9  1  0
  8 10  1  0
  9 11  1  0
 10 11  1  0
 12 13  2  0
 12 14  1  0
 13 15  1  0
 14 17  2  0
 15 18  2  0
 16 19  1  0
 17 18  1  0
 19 21  2  0
 19 22  1  0
 21 23  1  0
 22 24  2  0
 23 25  2  0
 24 25  1  0
M  END
>  <PUBCHEM_COMPOUND_CID>  (1) 
39624

>  <PUBCHEM_CONFORMER_RMSD>  (1) 
0.6

>  <PUBCHEM_CONFORMER_DIVERSEORDER>  (1) 
1
21
12
13
6
7
16
11
4
14
8
5
18
20
15
3
2
19
17
10
9

>  <PUBCHEM_MMFF94_PARTIAL_CHARGES>  (1) 
28
1 -0.18
13 -0.15
14 -0.15
15 -0.15
16 0.49
17 0.08
18 0.08
19 0.09
2 -0.36
20 0.56
21 -0.15
22 -0.15
23 0.18
24 -0.15
25 -0.15
3 -0.36
34 0.15
35 0.15
38 0.15
39 0.15
4 -0.57
40 0.15
41 0.15
5 0.29
6 -0.18
7 -0.33
8 0.18
9 0.18

>  <PUBCHEM_EFFECTIVE_ROTOR_COUNT>  (1) 
3.4

>  <PUBCHEM_PHARMACOPHORE_FEATURES>  (1) 
8
1 2 acceptor
1 3 acceptor
1 4 acceptor
5 2 3 17 18 20 rings
5 5 6 7 12 13 rings
6 12 13 14 15 17 18 rings
6 19 21 22 23 24 25 rings
6 6 7 8 9 10 11 rings

>  <PUBCHEM_HEAVY_ATOM_COUNT>  (1) 
25

>  <PUBCHEM_ATOM_DEF_STEREO_COUNT>  (1) 
0

>  <PUBCHEM_ATOM_UDEF_STEREO_COUNT>  (1) 
0

>  <PUBCHEM_BOND_DEF_STEREO_COUNT>  (1) 
0

>  <PUBCHEM_BOND_UDEF_STEREO_COUNT>  (1) 
0

>  <PUBCHEM_ISOTOPIC_ATOM_COUNT>  (1) 
0

>  <PUBCHEM_COMPONENT_COUNT>  (1) 
1

>  <PUBCHEM_CACTVS_TAUTO_COUNT>  (1) 
1

>  <PUBCHEM_CONFORMER_ID>  (1) 
00009AC800000001

>  <PUBCHEM_MMFF94_ENERGY>  (1) 
64.0694

>  <PUBCHEM_FEATURE_SELFOVERLAP>  (1) 
40.925

>  <PUBCHEM_SHAPE_FINGERPRINT>  (1) 
10006869 2 17975974264107096051
10165383 225 17548153133934536436
10319926 262 18195509417340759538
10369192 42 17272840156058174856
10411042 1 18338244846328781951
10498660 4 18264206920379831868
10670039 82 18336562538578695860
1100329 8 18336557062178914065
11115154 58 17773005659240222725
12173636 292 17977103453046154084
12403259 226 18272090431710312126
12553582 1 18337973250019055431
12623949 98 17417266393132357430
12788726 201 18187370891556971442
13140716 1 18409731780735261505
138480 1 15238353883993485317
140371 6 18411146818484107623
14081887 123 18337946784124590098
14178342 30 18190735337351509754
14787075 74 17823700961361064234
14790565 3 17256536742953215181
14955137 171 18049446138992928776
15042514 8 18336832970218788331
15475509 35 16951694790910999923
15927050 60 17114958140997337286
15961568 22 18338233899068788164
17357779 13 18270384041002631911
1813 80 18334853973779494371
19591789 44 16825597496840861535
19611394 137 17682970151901824642
20510252 161 18197500623332137499
20600515 1 18270978902679243119
21033648 29 17846490452786457555
21421861 104 18048613795800441641
23366157 5 17681836542127186679
23557571 272 18410293575564292742
23559900 14 18194399116311633923
238 59 17261844686817564732
23845131 108 17402343572829080993
2748010 2 18342167860850617902
3091708 16 8991411887259047077
3178227 256 16537939334865994897
3187 122 18336811065991119592
350125 39 17544765525265364974
3524813 1 18059566984518125026
43471831 8 17184755134949595563
508706 21 18124869067598457758
57091435 65 17904764727824207496
6287921 2 17985264316616627496
6442390 28 17690288109831693753
7364860 26 17977672231544385303
7399639 24 18200860860391100642
7808743 9 18120383056041876364
81228 2 18338813199529942027
90316 7 18408599253841879811
9777508 108 18123750846476390721
9981440 41 17470448426337518233

>  <PUBCHEM_SHAPE_MULTIPOLES>  (1) 
493.77
7.62
5.46
1.16
3.28
7.11
0.51
-6.53
2.49
-2.81
-1.18
1.41
-0.13
1.18

>  <PUBCHEM_SHAPE_SELFOVERLAP>  (1) 
1107.345

>  <PUBCHEM_SHAPE_VOLUME>  (1) 
263.2

>  <PUBCHEM_COORDINATE_TYPE>  (1) 
2
5
10

$$$$
