39633
     RDKit          3D

 26 30  0  0  1  0  0  0  0  0999 V2000
    6.9487   -2.2171    0.2270 Cl  0  0  0  0  0  0  0  0  0  0  0  0
   -4.0515   -2.8534    0.5007 O   0  0  0  0  0  0  0  0  0  0  0  0
   -5.7481   -1.3330   -0.2774 O   0  0  0  0  0  0  0  0  0  0  0  0
    1.1092    0.3287   -1.7323 O   0  0  0  0  0  0  0  0  0  0  0  0
   -2.3376    2.2041   -0.5412 N   0  0  0  0  0  0  0  0  0  0  0  0
    0.6537    0.3824    0.5997 C   0  0  0  0  0  0  0  0  0  0  0  0
   -0.6920    0.8807    0.1763 C   0  0  0  0  0  0  0  0  0  0  0  0
    1.3813    1.2896    1.6002 C   0  0  0  0  0  0  0  0  0  0  0  0
   -0.9993    2.1617   -0.2485 C   0  0  0  0  0  0  0  0  0  0  0  0
    1.8253    2.6673    1.0936 C   0  0  0  0  0  0  0  0  0  0  0  0
   -0.1307    3.3591   -0.4144 C   0  0  0  0  0  0  0  0  0  0  0  0
    0.6901    3.6607    0.8368 C   0  0  0  0  0  0  0  0  0  0  0  0
   -1.9104    0.1204    0.1303 C   0  0  0  0  0  0  0  0  0  0  0  0
   -2.9218    0.9798   -0.3219 C   0  0  0  0  0  0  0  0  0  0  0  0
    1.5121    0.0948   -0.5952 C   0  0  0  0  0  0  0  0  0  0  0  0
   -2.2377   -1.2230    0.4324 C   0  0  0  0  0  0  0  0  0  0  0  0
   -4.2563    0.5822   -0.4928 C   0  0  0  0  0  0  0  0  0  0  0  0
   -3.5577   -1.6062    0.2605 C   0  0  0  0  0  0  0  0  0  0  0  0
   -4.5249   -0.7387   -0.1834 C   0  0  0  0  0  0  0  0  0  0  0  0
    2.8707   -0.4818   -0.3893 C   0  0  0  0  0  0  0  0  0  0  0  0
   -5.4397   -2.6717    0.1586 C   0  0  0  0  0  0  0  0  0  0  0  0
    3.0871   -1.2902    0.7044 C   0  0  0  0  0  0  0  0  0  0  0  0
    3.8600   -0.1867   -1.3011 C   0  0  0  0  0  0  0  0  0  0  0  0
    4.3583   -1.8313    0.8965 C   0  0  0  0  0  0  0  0  0  0  0  0
    5.1311   -0.7280   -1.1092 C   0  0  0  0  0  0  0  0  0  0  0  0
    5.3804   -1.5504   -0.0104 C   0  0  0  0  0  0  0  0  0  0  0  0
  1 26  1  0
  2 18  1  0
  2 21  1  0
  3 19  1  0
  3 21  1  0
  4 15  2  0
  5  9  1  0
  5 14  1  0
  6  7  1  0
  6  8  1  0
  6 15  1  0
  7  9  2  0
  7 13  1  0
  8 10  1  0
  9 11  1  0
 10 12  1  0
 11 12  1  0
 13 14  2  0
 13 16  1  0
 14 17  1  0
 15 20  1  0
 16 18  2  0
 17 19  2  0
 18 19  1  0
 20 22  2  0
 20 23  1  0
 22 24  1  0
 23 25  2  0
 24 26  2  0
 25 26  1  0
M  END
>  <PUBCHEM_COMPOUND_CID>  (1) 
39633

>  <PUBCHEM_CONFORMER_RMSD>  (1) 
0.8

>  <PUBCHEM_CONFORMER_DIVERSEORDER>  (1) 
1
9
13
17
7
6
14
2
11
4
5
18
8
10
3
12
15
16

>  <PUBCHEM_MMFF94_PARTIAL_CHARGES>  (1) 
29
1 -0.18
11 0.18
14 -0.15
15 0.42
16 -0.15
17 -0.15
18 0.08
19 0.08
2 -0.36
20 0.09
21 0.56
22 -0.15
23 -0.15
24 -0.15
25 -0.15
26 0.18
3 -0.36
36 0.27
37 0.15
38 0.15
4 -0.57
41 0.15
42 0.15
43 0.15
44 0.15
5 0.03
6 0.24
7 -0.18
9 -0.33

>  <PUBCHEM_EFFECTIVE_ROTOR_COUNT>  (1) 
3.6

>  <PUBCHEM_PHARMACOPHORE_FEATURES>  (1) 
10
1 2 acceptor
1 3 acceptor
1 4 acceptor
1 5 cation
1 5 donor
5 2 3 18 19 21 rings
5 5 7 9 13 14 rings
6 13 14 16 17 18 19 rings
6 20 22 23 24 25 26 rings
7 6 7 8 9 10 11 12 rings

>  <PUBCHEM_HEAVY_ATOM_COUNT>  (1) 
26

>  <PUBCHEM_ATOM_DEF_STEREO_COUNT>  (1) 
0

>  <PUBCHEM_ATOM_UDEF_STEREO_COUNT>  (1) 
1

>  <PUBCHEM_BOND_DEF_STEREO_COUNT>  (1) 
0

>  <PUBCHEM_BOND_UDEF_STEREO_COUNT>  (1) 
0

>  <PUBCHEM_ISOTOPIC_ATOM_COUNT>  (1) 
0

>  <PUBCHEM_COMPONENT_COUNT>  (1) 
1

>  <PUBCHEM_CACTVS_TAUTO_COUNT>  (1) 
2

>  <PUBCHEM_CONFORMER_ID>  (1) 
00009AD100000001

>  <PUBCHEM_MMFF94_ENERGY>  (1) 
58.3823

>  <PUBCHEM_FEATURE_SELFOVERLAP>  (1) 
51.031

>  <PUBCHEM_SHAPE_FINGERPRINT>  (1) 
10411042 1 18411418422971759763
10622 236 17606383368663465474
11045515 52 18040437655132211764
11578080 2 17242700222056441220
11796584 16 18336546002026541446
11963148 33 18050278473548638910
12166972 35 17822016423357789734
12236239 1 18113903719802687230
12516196 113 18342174466763578586
12633257 1 18201734933269233489
12788726 201 18117273662268654754
13140716 1 18343019965114151721
13533116 47 18056763363464696667
13540713 4 18265596827927518741
13631057 29 18336828590064354994
13955234 65 17910678988085651857
13965767 371 12463030808673530067
14068700 675 18260829268357618166
14790565 3 17547293307067740577
14866123 147 18268433439204451049
15927050 60 17694782222487841100
17138139 8 18040149622072639274
17492 89 18122905597709415107
17686467 74 18412538796574471736
1813 80 18059870462306272892
18222031 100 17917993888510061470
18681886 176 18335138679589904970
20028762 73 17632009866381351719
20775438 99 17615395296418904723
21033648 29 16701443577105389138
21267235 1 18334299777681832059
22182313 1 18266719424497972117
22950370 63 18410862052924092761
23522609 53 18122661376662026801
23557571 272 17985828138543751332
23559900 14 18337102479843912689
249999 5 17984979547374348352
255183 313 17979654337620104569
3004659 81 17967812739138181778
3178227 256 18121235194992560137
329604 57 18409735066965459350
335352 9 18409163282718179397
3421961 26 18341048643865421633
38570 142 13900764424420846466
4280585 95 18334570222818451592
439807 62 18113341929380029827
4409770 3 18046339743614236685
463206 1 18334860558054829051
465052 167 18273218629129077422
5104073 3 18202567284519068449
5486654 36 18411149030397579329
5718773 13 18342452699193708967
6371380 46 18339637842442355033
6669772 16 17766284550280344708
6823239 73 18338786896844214745
7495541 125 18341614845182834892
7970288 3 18410572894288852158
8863177 126 18117851121160471067
9709674 26 18119808273379623587

>  <PUBCHEM_SHAPE_MULTIPOLES>  (1) 
514.35
12.91
3.66
1.13
5.88
2.23
-0.04
-14.95
-0.94
-1.43
0.87
0.92
0.27
0.55

>  <PUBCHEM_SHAPE_SELFOVERLAP>  (1) 
1149.374

>  <PUBCHEM_SHAPE_VOLUME>  (1) 
274.2

>  <PUBCHEM_COORDINATE_TYPE>  (1) 
2
5
10

$$$$
