39638
     RDKit          3D

 26 30  0  0  1  0  0  0  0  0999 V2000
   -4.0576   -2.8375    0.5020 O   0  0  0  0  0  0  0  0  0  0  0  0
   -5.7463   -1.3101   -0.2792 O   0  0  0  0  0  0  0  0  0  0  0  0
    1.1199    0.3174   -1.7307 O   0  0  0  0  0  0  0  0  0  0  0  0
   -2.3189    2.2105   -0.5446 N   0  0  0  0  0  0  0  0  0  0  0  0
    0.6628    0.3761    0.6008 C   0  0  0  0  0  0  0  0  0  0  0  0
   -0.6802    0.8803    0.1757 C   0  0  0  0  0  0  0  0  0  0  0  0
    1.3939    1.2811    1.6008 C   0  0  0  0  0  0  0  0  0  0  0  0
   -0.9811    2.1622   -0.2509 C   0  0  0  0  0  0  0  0  0  0  0  0
    1.8449    2.6560    1.0928 C   0  0  0  0  0  0  0  0  0  0  0  0
   -0.1067    3.3553   -0.4175 C   0  0  0  0  0  0  0  0  0  0  0  0
    0.7145    3.6546    0.8340 C   0  0  0  0  0  0  0  0  0  0  0  0
   -1.9021    0.1257    0.1297 C   0  0  0  0  0  0  0  0  0  0  0  0
   -2.9090    0.9893   -0.3243 C   0  0  0  0  0  0  0  0  0  0  0  0
    1.5208    0.0830   -0.5930 C   0  0  0  0  0  0  0  0  0  0  0  0
   -2.2359   -1.2157    0.4332 C   0  0  0  0  0  0  0  0  0  0  0  0
   -4.2453    0.5978   -0.4958 C   0  0  0  0  0  0  0  0  0  0  0  0
   -3.5577   -1.5929    0.2607 C   0  0  0  0  0  0  0  0  0  0  0  0
   -4.5204   -0.7214   -0.1850 C   0  0  0  0  0  0  0  0  0  0  0  0
    2.8766   -0.4998   -0.3853 C   0  0  0  0  0  0  0  0  0  0  0  0
    3.0888   -1.3079    0.7094 C   0  0  0  0  0  0  0  0  0  0  0  0
    3.8680   -0.2091   -1.2962 C   0  0  0  0  0  0  0  0  0  0  0  0
   -5.4446   -2.6496    0.1586 C   0  0  0  0  0  0  0  0  0  0  0  0
    4.3577   -1.8534    0.9035 C   0  0  0  0  0  0  0  0  0  0  0  0
    5.1370   -0.7548   -1.1022 C   0  0  0  0  0  0  0  0  0  0  0  0
    5.3819   -1.5771   -0.0023 C   0  0  0  0  0  0  0  0  0  0  0  0
    6.7390   -2.1599    0.2058 C   0  0  0  0  0  0  0  0  0  0  0  0
  1 17  1  0
  1 22  1  0
  2 18  1  0
  2 22  1  0
  3 14  2  0
  4  8  1  0
  4 13  1  0
  5  6  1  0
  5  7  1  0
  5 14  1  0
  6  8  2  0
  6 12  1  0
  7  9  1  0
  8 10  1  0
  9 11  1  0
 10 11  1  0
 12 13  2  0
 12 15  1  0
 13 16  1  0
 14 19  1  0
 15 17  2  0
 16 18  2  0
 17 18  1  0
 19 20  2  0
 19 21  1  0
 20 23  1  0
 21 24  2  0
 23 25  2  0
 24 25  1  0
 25 26  1  0
M  END
>  <PUBCHEM_COMPOUND_CID>  (1) 
39638

>  <PUBCHEM_CONFORMER_RMSD>  (1) 
0.8

>  <PUBCHEM_CONFORMER_DIVERSEORDER>  (1) 
1
9
14
10
13
8
2
17
18
7
5
6
4
3
12
11
15
16

>  <PUBCHEM_MMFF94_PARTIAL_CHARGES>  (1) 
29
1 -0.36
10 0.18
13 -0.15
14 0.42
15 -0.15
16 -0.15
17 0.08
18 0.08
19 0.09
2 -0.36
20 -0.15
21 -0.15
22 0.56
23 -0.15
24 -0.15
25 -0.14
26 0.14
3 -0.57
36 0.27
37 0.15
38 0.15
39 0.15
4 0.03
40 0.15
43 0.15
44 0.15
5 0.24
6 -0.18
8 -0.33

>  <PUBCHEM_EFFECTIVE_ROTOR_COUNT>  (1) 
3.6

>  <PUBCHEM_PHARMACOPHORE_FEATURES>  (1) 
10
1 1 acceptor
1 2 acceptor
1 3 acceptor
1 4 cation
1 4 donor
5 1 2 17 18 22 rings
5 4 6 8 12 13 rings
6 12 13 15 16 17 18 rings
6 19 20 21 23 24 25 rings
7 5 6 7 8 9 10 11 rings

>  <PUBCHEM_HEAVY_ATOM_COUNT>  (1) 
26

>  <PUBCHEM_ATOM_DEF_STEREO_COUNT>  (1) 
0

>  <PUBCHEM_ATOM_UDEF_STEREO_COUNT>  (1) 
1

>  <PUBCHEM_BOND_DEF_STEREO_COUNT>  (1) 
0

>  <PUBCHEM_BOND_UDEF_STEREO_COUNT>  (1) 
0

>  <PUBCHEM_ISOTOPIC_ATOM_COUNT>  (1) 
0

>  <PUBCHEM_COMPONENT_COUNT>  (1) 
1

>  <PUBCHEM_CACTVS_TAUTO_COUNT>  (1) 
2

>  <PUBCHEM_CONFORMER_ID>  (1) 
00009AD600000001

>  <PUBCHEM_MMFF94_ENERGY>  (1) 
60.1846

>  <PUBCHEM_FEATURE_SELFOVERLAP>  (1) 
51.031

>  <PUBCHEM_SHAPE_FINGERPRINT>  (1) 
10411042 1 18411418422971759763
10622 236 17606664843619083610
11045515 52 17967817106882805524
11578080 2 17242700217793128924
11796584 16 18336546002026547942
11963148 33 18049996998571934770
12166972 35 17821734948344155814
12236239 1 18041283175737484958
12516196 113 18342174466768859834
12633257 1 18201734933248121489
12788726 201 18117273662247575242
13140716 1 18343019965103595721
13533116 47 18056480788971070491
13540713 4 18265596832254121581
13631057 29 18336828590064348490
13955234 65 17910960463051806529
13965767 371 12463310084558348459
14068700 675 18260829268352349918
14790565 3 17547574777723103705
14866123 147 18268433434898934249
15927050 60 17694783317688657852
17138139 8 18040149622056821514
17492 89 18122624122737979203
1813 80 18059588987308450236
18222031 100 17917994983753108702
18681886 176 18335138675300218898
20028762 73 17632009862059997679
20775438 99 17615395296429447723
21033648 29 16701443572836795610
21267235 1 18334299777697649819
22182313 1 18266719424492697365
22950370 63 18410862052913543265
23522609 53 18122379901706408641
23557571 272 18057884633085862724
23559900 14 18336821004861940277
249999 5 17984979547358524088
255183 313 17979372858364257353
3004659 81 17967812739127625762
3178227 256 18121235194987278881
329604 57 18409735062670505046
335352 9 18409163282723454157
3421961 26 18341048643849597377
38570 142 13900763324914506442
4280585 95 18334569123301529576
439807 62 18113341929390579339
4409770 3 18046339739324550637
463206 1 18334860558044279547
465052 167 18273218624834110126
5104073 3 18202567284524343201
5486654 36 18411149030402860577
5718773 13 18342452699230638743
6371380 46 18339637842442342041
6669772 16 17838342144339365132
6823239 73 18338786892538697953
7495541 125 18341614845188109644
7970288 3 18410573993784655678
8863177 126 18117851121134090803
9709674 26 18119808269079381547

>  <PUBCHEM_SHAPE_MULTIPOLES>  (1) 
512.48
12.67
3.64
1.13
4.31
2.27
-0.04
-14.47
-0.99
-1.26
0.85
0.92
0.26
0.59

>  <PUBCHEM_SHAPE_SELFOVERLAP>  (1) 
1152.509

>  <PUBCHEM_SHAPE_VOLUME>  (1) 
270

>  <PUBCHEM_COORDINATE_TYPE>  (1) 
2
5
10

$$$$
