39637
     RDKit          3D

 25 29  0  0  1  0  0  0  0  0999 V2000
   -4.0049   -2.6182    0.5135 O   0  0  0  0  0  0  0  0  0  0  0  0
   -5.5665   -0.9726   -0.2921 O   0  0  0  0  0  0  0  0  0  0  0  0
    1.4126    0.1068   -1.7160 O   0  0  0  0  0  0  0  0  0  0  0  0
   -1.8764    2.2706   -0.5684 N   0  0  0  0  0  0  0  0  0  0  0  0
    0.9487    0.2228    0.6120 C   0  0  0  0  0  0  0  0  0  0  0  0
   -0.3491    0.8250    0.1741 C   0  0  0  0  0  0  0  0  0  0  0  0
    1.7419    1.0783    1.6082 C   0  0  0  0  0  0  0  0  0  0  0  0
   -0.5479    2.1221   -0.2660 C   0  0  0  0  0  0  0  0  0  0  0  0
    2.3004    2.4095    1.0905 C   0  0  0  0  0  0  0  0  0  0  0  0
    0.4168    3.2426   -0.4381 C   0  0  0  0  0  0  0  0  0  0  0  0
    1.2518    3.4896    0.8157 C   0  0  0  0  0  0  0  0  0  0  0  0
   -1.6253    0.1663    0.1275 C   0  0  0  0  0  0  0  0  0  0  0  0
   -2.5601    1.1006   -0.3406 C   0  0  0  0  0  0  0  0  0  0  0  0
    1.7880   -0.1469   -0.5738 C   0  0  0  0  0  0  0  0  0  0  0  0
   -2.0633   -1.1424    0.4411 C   0  0  0  0  0  0  0  0  0  0  0  0
   -3.9217    0.8116   -0.5168 C   0  0  0  0  0  0  0  0  0  0  0  0
   -3.4092   -1.4182    0.2639 C   0  0  0  0  0  0  0  0  0  0  0  0
   -4.2994   -0.4794   -0.1957 C   0  0  0  0  0  0  0  0  0  0  0  0
    3.0936   -0.8304   -0.3524 C   0  0  0  0  0  0  0  0  0  0  0  0
   -5.3714   -2.3272    0.1598 C   0  0  0  0  0  0  0  0  0  0  0  0
    3.2365   -1.6419    0.7511 C   0  0  0  0  0  0  0  0  0  0  0  0
    4.1094   -0.6261   -1.2597 C   0  0  0  0  0  0  0  0  0  0  0  0
    4.4584   -2.2820    0.9583 C   0  0  0  0  0  0  0  0  0  0  0  0
    5.3312   -1.2663   -1.0526 C   0  0  0  0  0  0  0  0  0  0  0  0
    5.5057   -2.0943    0.0564 C   0  0  0  0  0  0  0  0  0  0  0  0
  1 17  1  0
  1 20  1  0
  2 18  1  0
  2 20  1  0
  3 14  2  0
  4  8  1  0
  4 13  1  0
  5  6  1  0
  5  7  1  0
  5 14  1  0
  6  8  2  0
  6 12  1  0
  7  9  1  0
  8 10  1  0
  9 11  1  0
 10 11  1  0
 12 13  2  0
 12 15  1  0
 13 16  1  0
 14 19  1  0
 15 17  2  0
 16 18  2  0
 17 18  1  0
 19 21  2  0
 19 22  1  0
 21 23  1  0
 22 24  2  0
 23 25  2  0
 24 25  1  0
M  END
>  <PUBCHEM_COMPOUND_CID>  (1) 
39637

>  <PUBCHEM_CONFORMER_RMSD>  (1) 
0.8

>  <PUBCHEM_CONFORMER_DIVERSEORDER>  (1) 
1
10
8
7
11
2
9
15
3
6
16
4
13
5
12
14

>  <PUBCHEM_MMFF94_PARTIAL_CHARGES>  (1) 
29
1 -0.36
10 0.18
13 -0.15
14 0.42
15 -0.15
16 -0.15
17 0.08
18 0.08
19 0.09
2 -0.36
20 0.56
21 -0.15
22 -0.15
23 -0.15
24 -0.15
25 -0.15
3 -0.57
35 0.27
36 0.15
37 0.15
4 0.03
40 0.15
41 0.15
42 0.15
43 0.15
44 0.15
5 0.24
6 -0.18
8 -0.33

>  <PUBCHEM_EFFECTIVE_ROTOR_COUNT>  (1) 
3.6

>  <PUBCHEM_PHARMACOPHORE_FEATURES>  (1) 
10
1 1 acceptor
1 2 acceptor
1 3 acceptor
1 4 cation
1 4 donor
5 1 2 17 18 20 rings
5 4 6 8 12 13 rings
6 12 13 15 16 17 18 rings
6 19 21 22 23 24 25 rings
7 5 6 7 8 9 10 11 rings

>  <PUBCHEM_HEAVY_ATOM_COUNT>  (1) 
25

>  <PUBCHEM_ATOM_DEF_STEREO_COUNT>  (1) 
0

>  <PUBCHEM_ATOM_UDEF_STEREO_COUNT>  (1) 
1

>  <PUBCHEM_BOND_DEF_STEREO_COUNT>  (1) 
0

>  <PUBCHEM_BOND_UDEF_STEREO_COUNT>  (1) 
0

>  <PUBCHEM_ISOTOPIC_ATOM_COUNT>  (1) 
0

>  <PUBCHEM_COMPONENT_COUNT>  (1) 
1

>  <PUBCHEM_CACTVS_TAUTO_COUNT>  (1) 
2

>  <PUBCHEM_CONFORMER_ID>  (1) 
00009AD500000001

>  <PUBCHEM_MMFF94_ENERGY>  (1) 
57.6262

>  <PUBCHEM_FEATURE_SELFOVERLAP>  (1) 
51.031

>  <PUBCHEM_SHAPE_FINGERPRINT>  (1) 
10622 236 17461987783647761714
11045515 52 17968099668618039404
11405975 8 18343866628349505241
11578080 2 17314761101860317244
11796584 16 18264488395135431598
11963148 33 18048305932535004610
12236239 1 17531535269425667182
12363563 72 18342183241091555486
12403259 226 18409442600851316749
12516196 113 18341892983186435762
12553582 1 18337670823790857499
12596602 18 14117503338404774063
12633257 1 18129957697400409769
12788726 201 18117559522581028362
13140716 1 18342455898400603209
13533116 47 18128537261943380395
13540713 4 18264190548297484357
13631057 29 18337113355086292974
13955234 65 18055073430444837153
13965767 371 12535082900705435987
14790565 3 17403176997783861376
14866123 147 18196655082291257713
15352361 1 18409729547394861823
15927050 60 17766840903136534316
17492 89 18194401332710333643
17804303 29 18411699863900013857
1813 80 18059870445258175116
18222031 100 17989486312244312014
20028762 73 17632007650141310231
20374829 77 18410292493301125263
20775438 99 17759510463030480075
21033648 29 16701159890310263274
221490 88 18337674216762091776
22182313 1 18265874986545723309
22950370 63 18410299081516946954
23522609 53 18121535464097038221
23557571 272 17914620449782537900
23559900 14 18337102458268855909
23566358 27 18197212770286930917
3004659 81 17968096391763635718
3178227 256 18048896104402890705
329604 57 18408890624897779662
335352 9 18409165477441179933
3411729 13 17916300718398540368
3421961 26 18340485676605433145
38570 142 13972535037386893706
463206 1 18334577957812543643
465052 167 18201723967859517870
5104073 3 18201719543895224537
5486654 36 18339093622429420273
59755656 215 18195246848118962636
6371380 46 18339074875251068201
6669772 16 17910399721318671716
6823239 73 18410282627460469185
7495541 125 18413108372665430886
7970288 3 18409728465222060323
8863177 126 18117007778540998739
9709674 26 18191584370871078347

>  <PUBCHEM_SHAPE_MULTIPOLES>  (1) 
491.9
11.29
3.54
1.15
1.7
2.16
0.02
-11.97
1.13
-0.25
-0.72
-1.08
0.14
0.84

>  <PUBCHEM_SHAPE_SELFOVERLAP>  (1) 
1110.445

>  <PUBCHEM_SHAPE_VOLUME>  (1) 
257.2

>  <PUBCHEM_COORDINATE_TYPE>  (1) 
2
5
10

$$$$
