39639
     RDKit          3D

 27 31  0  0  1  0  0  0  0  0999 V2000
   -4.2191   -2.9507    0.5113 O   0  0  0  0  0  0  0  0  0  0  0  0
   -5.9595   -1.5117   -0.3230 O   0  0  0  0  0  0  0  0  0  0  0  0
    0.8527    0.3896   -1.6943 O   0  0  0  0  0  0  0  0  0  0  0  0
    6.4204   -1.7625    0.3525 O   0  0  0  0  0  0  0  0  0  0  0  0
   -2.6841    2.1503   -0.5956 N   0  0  0  0  0  0  0  0  0  0  0  0
    0.3551    0.4672    0.6284 C   0  0  0  0  0  0  0  0  0  0  0  0
   -1.0013    0.9051    0.1735 C   0  0  0  0  0  0  0  0  0  0  0  0
    1.0296    1.4198    1.6238 C   0  0  0  0  0  0  0  0  0  0  0  0
   -1.3505    2.1653   -0.2800 C   0  0  0  0  0  0  0  0  0  0  0  0
    1.4288    2.8045    1.0992 C   0  0  0  0  0  0  0  0  0  0  0  0
   -0.5261    3.3925   -0.4536 C   0  0  0  0  0  0  0  0  0  0  0  0
    0.2606    3.7482    0.8052 C   0  0  0  0  0  0  0  0  0  0  0  0
   -2.1884    0.0972    0.1214 C   0  0  0  0  0  0  0  0  0  0  0  0
   -3.2242    0.9083   -0.3634 C   0  0  0  0  0  0  0  0  0  0  0  0
    1.2445    0.1920   -0.5465 C   0  0  0  0  0  0  0  0  0  0  0  0
   -2.4687   -1.2523    0.4429 C   0  0  0  0  0  0  0  0  0  0  0  0
   -4.5393    0.4560   -0.5491 C   0  0  0  0  0  0  0  0  0  0  0  0
   -3.7698   -1.6897    0.2562 C   0  0  0  0  0  0  0  0  0  0  0  0
   -4.7620   -0.8686   -0.2197 C   0  0  0  0  0  0  0  0  0  0  0  0
    2.6207   -0.3275   -0.3074 C   0  0  0  0  0  0  0  0  0  0  0  0
   -5.6071   -2.8293    0.1428 C   0  0  0  0  0  0  0  0  0  0  0  0
    2.8495   -1.1072    0.8046 C   0  0  0  0  0  0  0  0  0  0  0  0
    3.6135   -0.0092   -1.2072 C   0  0  0  0  0  0  0  0  0  0  0  0
    4.1376   -1.5934    1.0284 C   0  0  0  0  0  0  0  0  0  0  0  0
    4.9016   -0.4954   -0.9834 C   0  0  0  0  0  0  0  0  0  0  0  0
    5.1636   -1.2874    0.1344 C   0  0  0  0  0  0  0  0  0  0  0  0
    7.4218   -1.4113   -0.6012 C   0  0  0  0  0  0  0  0  0  0  0  0
  1 18  1  0
  1 21  1  0
  2 19  1  0
  2 21  1  0
  3 15  2  0
  4 26  1  0
  4 27  1  0
  5  9  1  0
  5 14  1  0
  6  7  1  0
  6  8  1  0
  6 15  1  0
  7  9  2  0
  7 13  1  0
  8 10  1  0
  9 11  1  0
 10 12  1  0
 11 12  1  0
 13 14  2  0
 13 16  1  0
 14 17  1  0
 15 20  1  0
 16 18  2  0
 17 19  2  0
 18 19  1  0
 20 22  2  0
 20 23  1  0
 22 24  1  0
 23 25  2  0
 24 26  2  0
 25 26  1  0
M  END
>  <PUBCHEM_COMPOUND_CID>  (1) 
39639

>  <PUBCHEM_CONFORMER_RMSD>  (1) 
0.8

>  <PUBCHEM_CONFORMER_DIVERSEORDER>  (1) 
1
28
13
14
23
16
21
27
19
25
22
17
26
10
18
4
11
8
6
5
3
9
20
15
12
24
2
7

>  <PUBCHEM_MMFF94_PARTIAL_CHARGES>  (1) 
30
1 -0.36
11 0.18
14 -0.15
15 0.42
16 -0.15
17 -0.15
18 0.08
19 0.08
2 -0.36
20 0.09
21 0.56
22 -0.15
23 -0.15
24 -0.15
25 -0.15
26 0.08
27 0.28
3 -0.57
37 0.27
38 0.15
39 0.15
4 -0.36
42 0.15
43 0.15
44 0.15
45 0.15
5 0.03
6 0.24
7 -0.18
9 -0.33

>  <PUBCHEM_EFFECTIVE_ROTOR_COUNT>  (1) 
4.6

>  <PUBCHEM_PHARMACOPHORE_FEATURES>  (1) 
11
1 1 acceptor
1 2 acceptor
1 3 acceptor
1 4 acceptor
1 5 cation
1 5 donor
5 1 2 18 19 21 rings
5 5 7 9 13 14 rings
6 13 14 16 17 18 19 rings
6 20 22 23 24 25 26 rings
7 6 7 8 9 10 11 12 rings

>  <PUBCHEM_HEAVY_ATOM_COUNT>  (1) 
27

>  <PUBCHEM_ATOM_DEF_STEREO_COUNT>  (1) 
0

>  <PUBCHEM_ATOM_UDEF_STEREO_COUNT>  (1) 
1

>  <PUBCHEM_BOND_DEF_STEREO_COUNT>  (1) 
0

>  <PUBCHEM_BOND_UDEF_STEREO_COUNT>  (1) 
0

>  <PUBCHEM_ISOTOPIC_ATOM_COUNT>  (1) 
0

>  <PUBCHEM_COMPONENT_COUNT>  (1) 
1

>  <PUBCHEM_CACTVS_TAUTO_COUNT>  (1) 
2

>  <PUBCHEM_CONFORMER_ID>  (1) 
00009AD700000001

>  <PUBCHEM_MMFF94_ENERGY>  (1) 
72.0035

>  <PUBCHEM_FEATURE_SELFOVERLAP>  (1) 
56.107

>  <PUBCHEM_SHAPE_FINGERPRINT>  (1) 
10411042 1 18411138069424676993
10595046 47 18187650172485765094
10622 236 17679001726400384034
11578080 2 17242981701249030389
11796584 16 18336546014763698294
11963148 33 17906163302431093222
12166972 35 18040158426823706364
12236239 1 18114745932940621734
12516196 113 18342173375778562442
12760667 363 18411420613938317915
12788726 201 18189331273375643090
13140716 1 18342738498848746945
13288520 33 18410293592865325279
13540713 4 18266159790850250949
13631057 29 18336547127861646498
13690498 29 18186235139485664631
13740256 8 18412544314299243393
13782708 43 17416694532245000630
13955234 65 17838339932119484433
13965767 371 12606866729570423291
14068700 675 18261111859904519596
14790565 3 17619348706577820825
14849402 71 13110374916016832322
14866123 147 18340489942389316049
15183329 4 17240476996681034255
15250474 111 17970337123383478258
15461852 350 18336835196262256486
15927050 60 17623006107684784764
17138139 8 17967809470604890330
17492 89 18050848020904142835
17686467 74 18412821383895185336
18681886 176 18335137597157750666
20775438 99 17543337715355536499
21033648 29 16773501179780659515
21054139 6 18040999519081269002
21223535 225 14996557339945454638
21267235 1 18334298691092016427
22182313 1 18267281283645803221
2297311 6 18271248223098706454
23522609 53 18121535489951309445
23557571 272 18057884645875897072
23559900 14 18336821022173691237
249999 5 17984979555906306176
255183 313 17979372871396858801
3004659 81 17967811656648083162
329604 57 18409735075460526340
335352 9 18408880708282594997
3421961 26 18268709587930889745
4015057 19 15575298544274548420
4280585 95 18334570231255463820
437815 12 18131347501499051297
439807 62 18113622317793259595
4409770 3 18118397350695322069
463206 1 18334578000888752163
465052 167 18201442518578582478
5104073 3 18130511920133552617
5486654 36 18411149043377439745
5718773 13 18270677696918927719
636775 8 18201731601103320486
6371380 46 18411412874950608481
6669772 16 17765158658821037876
6823239 73 18339067276657038497
7495541 125 18341614857846229660
7970288 3 18411135852774153318
8863177 126 18117848930779891107

>  <PUBCHEM_SHAPE_MULTIPOLES>  (1) 
527.19
13.97
3.6
1.13
9.97
2.39
0.02
-15.58
-1.88
-2.49
0.8
0.8
0.27
0.63

>  <PUBCHEM_SHAPE_SELFOVERLAP>  (1) 
1182.956

>  <PUBCHEM_SHAPE_VOLUME>  (1) 
278.3

>  <PUBCHEM_COORDINATE_TYPE>  (1) 
2
5
10

$$$$
