39631
     RDKit          3D

 26 30  0  0  1  0  0  0  0  0999 V2000
    6.5995   -2.1220    0.1910 F   0  0  0  0  0  0  0  0  0  0  0  0
   -4.0609   -2.8274    0.5030 O   0  0  0  0  0  0  0  0  0  0  0  0
   -5.7447   -1.2956   -0.2805 O   0  0  0  0  0  0  0  0  0  0  0  0
    1.1271    0.3103   -1.7296 O   0  0  0  0  0  0  0  0  0  0  0  0
   -2.3067    2.2146   -0.5470 N   0  0  0  0  0  0  0  0  0  0  0  0
    0.6689    0.3723    0.6017 C   0  0  0  0  0  0  0  0  0  0  0  0
   -0.6723    0.8801    0.1754 C   0  0  0  0  0  0  0  0  0  0  0  0
    1.4021    1.2760    1.6012 C   0  0  0  0  0  0  0  0  0  0  0  0
   -0.9692    2.1625   -0.2524 C   0  0  0  0  0  0  0  0  0  0  0  0
    1.8574    2.6491    1.0924 C   0  0  0  0  0  0  0  0  0  0  0  0
   -0.0912    3.3529   -0.4197 C   0  0  0  0  0  0  0  0  0  0  0  0
    0.7302    3.6508    0.8320 C   0  0  0  0  0  0  0  0  0  0  0  0
   -1.8965    0.1291    0.1294 C   0  0  0  0  0  0  0  0  0  0  0  0
   -2.9006    0.9953   -0.3260 C   0  0  0  0  0  0  0  0  0  0  0  0
    1.5267    0.0757   -0.5915 C   0  0  0  0  0  0  0  0  0  0  0  0
   -2.2345   -1.2111    0.4338 C   0  0  0  0  0  0  0  0  0  0  0  0
   -4.2380    0.6076   -0.4979 C   0  0  0  0  0  0  0  0  0  0  0  0
   -3.5572   -1.5845    0.2609 C   0  0  0  0  0  0  0  0  0  0  0  0
   -4.5171   -0.7105   -0.1861 C   0  0  0  0  0  0  0  0  0  0  0  0
    2.8806   -0.5109   -0.3825 C   0  0  0  0  0  0  0  0  0  0  0  0
   -5.4472   -2.6357    0.1587 C   0  0  0  0  0  0  0  0  0  0  0  0
    3.0898   -1.3188    0.7130 C   0  0  0  0  0  0  0  0  0  0  0  0
    3.8734   -0.2240   -1.2930 C   0  0  0  0  0  0  0  0  0  0  0  0
    4.3571   -1.8677    0.9085 C   0  0  0  0  0  0  0  0  0  0  0  0
    5.1407   -0.7730   -1.0978 C   0  0  0  0  0  0  0  0  0  0  0  0
    5.3826   -1.5951    0.0030 C   0  0  0  0  0  0  0  0  0  0  0  0
  1 26  1  0
  2 18  1  0
  2 21  1  0
  3 19  1  0
  3 21  1  0
  4 15  2  0
  5  9  1  0
  5 14  1  0
  6  7  1  0
  6  8  1  0
  6 15  1  0
  7  9  2  0
  7 13  1  0
  8 10  1  0
  9 11  1  0
 10 12  1  0
 11 12  1  0
 13 14  2  0
 13 16  1  0
 14 17  1  0
 15 20  1  0
 16 18  2  0
 17 19  2  0
 18 19  1  0
 20 22  2  0
 20 23  1  0
 22 24  1  0
 23 25  2  0
 24 26  2  0
 25 26  1  0
M  END
>  <PUBCHEM_COMPOUND_CID>  (1) 
39631

>  <PUBCHEM_CONFORMER_RMSD>  (1) 
0.8

>  <PUBCHEM_CONFORMER_DIVERSEORDER>  (1) 
1
8
12
9
13
7
2
16
17
4
5
6
3
10
15
11
14

>  <PUBCHEM_MMFF94_PARTIAL_CHARGES>  (1) 
29
1 -0.19
11 0.18
14 -0.15
15 0.42
16 -0.15
17 -0.15
18 0.08
19 0.08
2 -0.36
20 0.09
21 0.56
22 -0.15
23 -0.15
24 -0.15
25 -0.15
26 0.19
3 -0.36
36 0.27
37 0.15
38 0.15
4 -0.57
41 0.15
42 0.15
43 0.15
44 0.15
5 0.03
6 0.24
7 -0.18
9 -0.33

>  <PUBCHEM_EFFECTIVE_ROTOR_COUNT>  (1) 
3.6

>  <PUBCHEM_PHARMACOPHORE_FEATURES>  (1) 
10
1 2 acceptor
1 3 acceptor
1 4 acceptor
1 5 cation
1 5 donor
5 2 3 18 19 21 rings
5 5 7 9 13 14 rings
6 13 14 16 17 18 19 rings
6 20 22 23 24 25 26 rings
7 6 7 8 9 10 11 12 rings

>  <PUBCHEM_HEAVY_ATOM_COUNT>  (1) 
26

>  <PUBCHEM_ATOM_DEF_STEREO_COUNT>  (1) 
0

>  <PUBCHEM_ATOM_UDEF_STEREO_COUNT>  (1) 
1

>  <PUBCHEM_BOND_DEF_STEREO_COUNT>  (1) 
0

>  <PUBCHEM_BOND_UDEF_STEREO_COUNT>  (1) 
0

>  <PUBCHEM_ISOTOPIC_ATOM_COUNT>  (1) 
0

>  <PUBCHEM_COMPONENT_COUNT>  (1) 
1

>  <PUBCHEM_CACTVS_TAUTO_COUNT>  (1) 
2

>  <PUBCHEM_CONFORMER_ID>  (1) 
00009ACF00000001

>  <PUBCHEM_MMFF94_ENERGY>  (1) 
57.6831

>  <PUBCHEM_FEATURE_SELFOVERLAP>  (1) 
51.031

>  <PUBCHEM_SHAPE_FINGERPRINT>  (1) 
10622 236 17606383368616005698
11045515 52 17968098581822592916
11578080 2 17242701317294200708
11796584 16 18336546001994892942
11963148 33 18049714419778079610
12166972 35 17821734948312507310
12236239 1 17968099685924086446
12516196 113 18342174471021596618
12633257 1 18201734933253409233
12788726 201 18117274761753895770
13140716 1 18343019965108870473
13533116 47 18056480784676103187
13540713 4 18265315357314321221
13631057 29 18336829689581244490
13955234 65 17910960463062356025
13965767 371 12463031908211544571
14068700 675 18260829264062670350
14790565 3 17547574777733653193
14866123 147 18268433434904215497
15352361 1 18410012139173761295
15927050 60 17694783321941433644
17138139 8 17967810557268578434
17492 89 18122624127048764259
1813 80 18059307512315921836
18222031 100 17917994983747827454
18681886 176 18335420150276923026
20028762 73 17632009862091652687
20374829 77 18410575080742878911
20775438 99 17615395296450546723
21033648 29 16701443572815703098
22182313 1 18266719424487422613
22950370 63 18410862048623844217
23522609 53 18122379901727501145
23557571 272 17985828138496311044
23559900 14 18337102479859756437
249999 5 17984698076634589184
3004659 81 17967812739122350994
3178227 256 18121235194992534137
329604 57 18409453591967649702
335352 9 18409164382250886701
3411729 13 17844525715933965448
3421961 26 18341048643860146881
38570 142 13900763324914506434
4280585 95 18334287652609249712
439807 62 18040721385441454115
4409770 3 18046058264353114725
463206 1 18334860558081196331
465052 167 18273218629097422422
5104073 3 18202847660005256849
5486654 36 18411150129925037849
6371380 46 18339356367476167889
6669772 16 17766284550285619460
6823239 73 18338786892543972697
7495541 125 18341614845161735892
7970288 3 18410572894230829894
8863177 126 18117850021654111523
9709674 26 18119808269079381539

>  <PUBCHEM_SHAPE_MULTIPOLES>  (1) 
505.21
12.15
3.61
1.13
1.98
2.28
-0.03
-13.64
-1.06
-0.73
0.81
0.95
0.23
0.67

>  <PUBCHEM_SHAPE_SELFOVERLAP>  (1) 
1141.408

>  <PUBCHEM_SHAPE_VOLUME>  (1) 
265.4

>  <PUBCHEM_COORDINATE_TYPE>  (1) 
2
5
10

$$$$
