39635
     RDKit          3D

 26 30  0  0  1  0  0  0  0  0999 V2000
    7.1064   -2.2525    0.2445 Br  0  0  0  0  0  0  0  0  0  0  0  0
   -4.0494   -2.8640    0.4989 O   0  0  0  0  0  0  0  0  0  0  0  0
   -5.7509   -1.3472   -0.2755 O   0  0  0  0  0  0  0  0  0  0  0  0
    1.1004    0.3358   -1.7343 O   0  0  0  0  0  0  0  0  0  0  0  0
   -2.3506    2.1998   -0.5373 N   0  0  0  0  0  0  0  0  0  0  0  0
    0.6468    0.3849    0.5982 C   0  0  0  0  0  0  0  0  0  0  0  0
   -0.7006    0.8800    0.1767 C   0  0  0  0  0  0  0  0  0  0  0  0
    1.3728    1.2927    1.5993 C   0  0  0  0  0  0  0  0  0  0  0  0
   -1.0119    2.1608   -0.2459 C   0  0  0  0  0  0  0  0  0  0  0  0
    1.8125    2.6723    1.0943 C   0  0  0  0  0  0  0  0  0  0  0  0
   -0.1468    3.3608   -0.4109 C   0  0  0  0  0  0  0  0  0  0  0  0
    0.6743    3.6630    0.8400 C   0  0  0  0  0  0  0  0  0  0  0  0
   -1.9170    0.1163    0.1308 C   0  0  0  0  0  0  0  0  0  0  0  0
   -2.9311    0.9735   -0.3192 C   0  0  0  0  0  0  0  0  0  0  0  0
    1.5049    0.1014   -0.5979 C   0  0  0  0  0  0  0  0  0  0  0  0
   -2.2401   -1.2283    0.4313 C   0  0  0  0  0  0  0  0  0  0  0  0
   -4.2647    0.5724   -0.4895 C   0  0  0  0  0  0  0  0  0  0  0  0
   -3.5593   -1.6150    0.2600 C   0  0  0  0  0  0  0  0  0  0  0  0
   -4.5294   -0.7496   -0.1818 C   0  0  0  0  0  0  0  0  0  0  0  0
    2.8654   -0.4717   -0.3941 C   0  0  0  0  0  0  0  0  0  0  0  0
   -5.4384   -2.6856    0.1583 C   0  0  0  0  0  0  0  0  0  0  0  0
    3.0856   -1.2811    0.6982 C   0  0  0  0  0  0  0  0  0  0  0  0
    3.8537   -0.1697   -1.3047 C   0  0  0  0  0  0  0  0  0  0  0  0
    4.3594   -1.8161    0.8898 C   0  0  0  0  0  0  0  0  0  0  0  0
    5.1276   -0.7048   -1.1132 C   0  0  0  0  0  0  0  0  0  0  0  0
    5.3805   -1.5281   -0.0159 C   0  0  0  0  0  0  0  0  0  0  0  0
  1 26  1  0
  2 18  1  0
  2 21  1  0
  3 19  1  0
  3 21  1  0
  4 15  2  0
  5  9  1  0
  5 14  1  0
  6  7  1  0
  6  8  1  0
  6 15  1  0
  7  9  2  0
  7 13  1  0
  8 10  1  0
  9 11  1  0
 10 12  1  0
 11 12  1  0
 13 14  2  0
 13 16  1  0
 14 17  1  0
 15 20  1  0
 16 18  2  0
 17 19  2  0
 18 19  1  0
 20 22  2  0
 20 23  1  0
 22 24  1  0
 23 25  2  0
 24 26  2  0
 25 26  1  0
M  END
>  <PUBCHEM_COMPOUND_CID>  (1) 
39635

>  <PUBCHEM_CONFORMER_RMSD>  (1) 
0.8

>  <PUBCHEM_CONFORMER_DIVERSEORDER>  (1) 
1
9
13
8
12
2
7
15
11
5
6
4
16
3
10
14

>  <PUBCHEM_MMFF94_PARTIAL_CHARGES>  (1) 
29
1 -0.11
11 0.18
14 -0.15
15 0.42
16 -0.15
17 -0.15
18 0.08
19 0.08
2 -0.36
20 0.09
21 0.56
22 -0.15
23 -0.15
24 -0.15
25 -0.15
26 0.11
3 -0.36
36 0.27
37 0.15
38 0.15
4 -0.57
41 0.15
42 0.15
43 0.15
44 0.15
5 0.03
6 0.24
7 -0.18
9 -0.33

>  <PUBCHEM_EFFECTIVE_ROTOR_COUNT>  (1) 
3.6

>  <PUBCHEM_PHARMACOPHORE_FEATURES>  (1) 
11
1 1 hydrophobe
1 2 acceptor
1 3 acceptor
1 4 acceptor
1 5 cation
1 5 donor
5 2 3 18 19 21 rings
5 5 7 9 13 14 rings
6 13 14 16 17 18 19 rings
6 20 22 23 24 25 26 rings
7 6 7 8 9 10 11 12 rings

>  <PUBCHEM_HEAVY_ATOM_COUNT>  (1) 
26

>  <PUBCHEM_ATOM_DEF_STEREO_COUNT>  (1) 
0

>  <PUBCHEM_ATOM_UDEF_STEREO_COUNT>  (1) 
1

>  <PUBCHEM_BOND_DEF_STEREO_COUNT>  (1) 
0

>  <PUBCHEM_BOND_UDEF_STEREO_COUNT>  (1) 
0

>  <PUBCHEM_ISOTOPIC_ATOM_COUNT>  (1) 
0

>  <PUBCHEM_COMPONENT_COUNT>  (1) 
1

>  <PUBCHEM_CACTVS_TAUTO_COUNT>  (1) 
2

>  <PUBCHEM_CONFORMER_ID>  (1) 
00009AD300000001

>  <PUBCHEM_MMFF94_ENERGY>  (1) 
58.5567

>  <PUBCHEM_FEATURE_SELFOVERLAP>  (1) 
56.105

>  <PUBCHEM_SHAPE_FINGERPRINT>  (1) 
10 15 11312057673453106431
10411042 1 18411418422971759763
10622 236 17606664843650725626
11045515 52 18040437655126930532
11578080 2 17242700222072258964
11796584 16 18336546002026541446
11963148 33 18050561052342481214
12166972 35 17967538969506380334
12236239 1 18114185194832164886
12516196 113 18342174466774134594
12633257 1 18201734933274508241
12788726 201 18117274766091074082
13140716 1 18343019965124701225
13533116 47 18056763363464690171
13540713 4 18265596832227754301
13631057 29 18336547115082376106
13955234 65 17910678988090926617
13965767 371 12463031908195707339
14068700 675 18261110743334328830
14790565 3 17547574782054994257
14866123 147 18268433439204444561
15927050 60 17694782222514234340
17138139 8 18040149622083188786
17492 89 18122905597698872107
17686467 74 18412538796574478248
1813 80 18059590091083416300
18222031 100 17917994988016401502
18681886 176 18335138679589898490
20028762 73 17631729490937361343
20775438 99 17615395296413629979
21033648 29 16701726151588446322
21054139 6 18040716927481724202
21223535 225 14924219366295286478
21267235 1 18334299777644902299
22182313 1 18266719428798214165
23522609 53 18122661380956994097
23557571 272 17986392187977158444
23559900 14 18336822108673797109
249999 5 17984979547390172616
255183 313 17979654337604273833
3004659 81 17967812739159280802
3178227 256 18121235194997828393
329604 57 18409735066970727598
335352 9 18409163282718185893
3421961 26 18268991049838049697
38570 142 13901045899397557122
4280585 95 18334851697795162240
439807 62 18113623404335628467
4409770 3 18118398437158511141
463206 1 18335142033031539707
465052 167 18273219728645979958
5104073 3 18202567284508525441
5486654 36 18411149030397585825
5718773 13 18342171224185349783
57527293 21 17417799678516096310
6371380 46 18339637842437093281
6669772 16 17766284554564769004
6823239 73 18338786896844214745
7495541 125 18341614845177573132
7970288 3 18410572894304676414
8863177 126 18117569646189041683
9709674 26 18119808273384898339

>  <PUBCHEM_SHAPE_MULTIPOLES>  (1) 
518.42
13.3
3.68
1.13
7.97
2.18
-0.05
-15.54
-0.87
-1.75
0.89
0.92
0.28
0.49

>  <PUBCHEM_SHAPE_SELFOVERLAP>  (1) 
1151.915

>  <PUBCHEM_SHAPE_VOLUME>  (1) 
284.5

>  <PUBCHEM_COORDINATE_TYPE>  (1) 
2
5
10

$$$$
