39648
     RDKit          3D

 24 25  0  0  0  0  0  0  0  0999 V2000
   -1.6913   -2.3982    1.3367 O   0  0  0  0  0  0  0  0  0  0  0  0
   -2.0824   -0.3345    0.3107 N   0  0  0  0  0  0  0  0  0  0  0  0
   -0.4316    2.9426   -0.4094 N   0  0  0  0  0  0  0  0  0  0  0  0
   -1.5620    0.7754   -0.4846 C   0  0  0  0  0  0  0  0  0  0  0  0
   -0.9699    1.8597    0.4037 C   0  0  0  0  0  0  0  0  0  0  0  0
   -3.4774   -0.2225    0.7128 C   0  0  0  0  0  0  0  0  0  0  0  0
   -4.4284   -0.8395   -0.3075 C   0  0  0  0  0  0  0  0  0  0  0  0
   -0.3181    4.1721    0.3777 C   0  0  0  0  0  0  0  0  0  0  0  0
    0.8726    2.5732   -0.9633 C   0  0  0  0  0  0  0  0  0  0  0  0
   -1.2870   -1.4398    0.6649 C   0  0  0  0  0  0  0  0  0  0  0  0
   -5.8974   -0.6995    0.0983 C   0  0  0  0  0  0  0  0  0  0  0  0
    0.0939   -1.4874    0.2117 C   0  0  0  0  0  0  0  0  0  0  0  0
    0.6552    3.9977    1.5312 C   0  0  0  0  0  0  0  0  0  0  0  0
    1.4148    3.6672   -1.8675 C   0  0  0  0  0  0  0  0  0  0  0  0
   -6.8236   -1.2691   -0.9649 C   0  0  0  0  0  0  0  0  0  0  0  0
    1.1058   -0.9377    0.9992 C   0  0  0  0  0  0  0  0  0  0  0  0
    0.4054   -2.0824   -1.0072 C   0  0  0  0  0  0  0  0  0  0  0  0
    2.4443   -0.9760    0.5758 C   0  0  0  0  0  0  0  0  0  0  0  0
    2.7611   -1.5811   -0.6637 C   0  0  0  0  0  0  0  0  0  0  0  0
    1.7298   -2.1298   -1.4433 C   0  0  0  0  0  0  0  0  0  0  0  0
    3.4755   -0.4276    1.3558 C   0  0  0  0  0  0  0  0  0  0  0  0
    4.0996   -1.6194   -1.0870 C   0  0  0  0  0  0  0  0  0  0  0  0
    4.7999   -0.4745    0.9196 C   0  0  0  0  0  0  0  0  0  0  0  0
    5.1113   -1.0692   -0.2995 C   0  0  0  0  0  0  0  0  0  0  0  0
  1 10  2  0
  2  4  1  0
  2  6  1  0
  2 10  1  0
  3  5  1  0
  3  8  1  0
  3  9  1  0
  4  5  1  0
  6  7  1  0
  7 11  1  0
  8 13  1  0
  9 14  1  0
 10 12  1  0
 11 15  1  0
 12 16  2  0
 12 17  1  0
 16 18  1  0
 17 20  2  0
 18 19  2  0
 18 21  1  0
 19 20  1  0
 19 22  1  0
 21 23  2  0
 22 24  2  0
 23 24  1  0
M  END
>  <PUBCHEM_COMPOUND_CID>  (1) 
39648

>  <PUBCHEM_CONFORMER_RMSD>  (1) 
1

>  <PUBCHEM_CONFORMER_DIVERSEORDER>  (1) 
1
50
73
145
130
95
70
131
28
75
141
100
78
103
133
143
91
102
63
59
21
11
15
92
14
124
122
129
134
45
46
86
104
25
16
94
27
74
89
19
112
43
153
132
77
6
2
101
60
116
20
97
8
72
120
38
41
126
47
68
93
115
64
55
52
23
12
125
106
17
138
58
29
96
54
39
71
56
146
40
108
34
33
144
127
66
44
9
119
67
99
128
22
110
32
98
82
90
5
3
84
142
113
88
69
83
139
107
136
10
85
4
24
62
53
114
123
37
31
87
18
51
140
36
76
148
81
109
49
26
121
30
137
117
57
152
13
147
61
111
79
149
65
151
42
80
135
48
118
105
7
35
150

>  <PUBCHEM_MMFF94_PARTIAL_CHARGES>  (1) 
24
1 -0.57
10 0.54
12 0.09
16 -0.15
17 -0.15
2 -0.66
20 -0.15
21 -0.15
22 -0.15
23 -0.15
24 -0.15
3 -0.81
4 0.3
48 0.15
49 0.15
5 0.27
50 0.15
51 0.15
52 0.15
53 0.15
54 0.15
6 0.3
8 0.27
9 0.27

>  <PUBCHEM_EFFECTIVE_ROTOR_COUNT>  (1) 
10

>  <PUBCHEM_PHARMACOPHORE_FEATURES>  (1) 
5
1 1 acceptor
1 15 hydrophobe
1 3 cation
6 12 16 17 18 19 20 rings
6 18 19 21 22 23 24 rings

>  <PUBCHEM_HEAVY_ATOM_COUNT>  (1) 
24

>  <PUBCHEM_ATOM_DEF_STEREO_COUNT>  (1) 
0

>  <PUBCHEM_ATOM_UDEF_STEREO_COUNT>  (1) 
0

>  <PUBCHEM_BOND_DEF_STEREO_COUNT>  (1) 
0

>  <PUBCHEM_BOND_UDEF_STEREO_COUNT>  (1) 
0

>  <PUBCHEM_ISOTOPIC_ATOM_COUNT>  (1) 
0

>  <PUBCHEM_COMPONENT_COUNT>  (1) 
1

>  <PUBCHEM_CACTVS_TAUTO_COUNT>  (1) 
1

>  <PUBCHEM_CONFORMER_ID>  (1) 
00009AE000000001

>  <PUBCHEM_MMFF94_ENERGY>  (1) 
54.1618

>  <PUBCHEM_FEATURE_SELFOVERLAP>  (1) 
25.398

>  <PUBCHEM_SHAPE_FINGERPRINT>  (1) 
10006869 2 17615413559088618513
10165383 225 16824774469828383548
10498660 4 18191023391843331092
1100329 8 18335701714788661523
11578080 2 17097215167362594679
11646440 116 18336838524065066267
12156800 1 16410746988357940128
12166972 35 17603587404687074606
12236239 1 16443067205312247619
12403259 226 18125721184683745542
12623949 98 17274553022415624879
12788726 201 18262237707707434562
128993 33 16897932657799666948
13540713 4 17826233175854045451
140371 6 18340782489438164267
14347332 77 18195245503746986034
14955137 171 18342459274571607479
15840311 113 17489598831687109587
167882 2 18119250807793633541
17357779 13 18341600478285238276
17492 54 18115327673117572172
17980427 23 17917725595378761161
1813 80 18413392016785346319
18222031 100 18411697686436335219
20344682 1 18131068208149923255
20510252 161 18263646152006098250
20600515 1 18262255351390900999
20642791 13 18341051796498173217
20642791 239 17388002938735268828
21285901 2 18201723899176879894
23402539 116 18337951186424097607
23419403 2 18044908338293476597
23557571 272 18339084770106372246
23559900 14 18340199812932178131
24771293 8 18271802453804689801
25019877 29 17275099544393094702
283562 15 18264773151271672395
3298306 158 17830747803912914060
3524813 1 18201994392380806346
469060 322 18189344463204904400
513532 50 17773887573958556172
621550 34 18060132099024449302
6443956 14 18412823594996610809
7399639 24 17987787511045387502
81228 2 18120111493052866008

>  <PUBCHEM_SHAPE_MULTIPOLES>  (1) 
478.08
10.2
4.6
1.45
12.66
7.72
0.16
-8.44
1.05
-1.1
0.51
-0.76
0.41
0.02

>  <PUBCHEM_SHAPE_SELFOVERLAP>  (1) 
982.608

>  <PUBCHEM_SHAPE_VOLUME>  (1) 
278.1

>  <PUBCHEM_COORDINATE_TYPE>  (1) 
2
5
10

$$$$
