39645
     RDKit          3D

 26 28  0  0  0  0  0  0  0  0999 V2000
    0.0453   -2.9079    0.0031 O   0  0  0  0  0  0  0  0  0  0  0  0
    0.8474    2.9393    0.1510 N   0  0  0  0  0  0  0  0  0  0  0  0
    0.9894   -0.7833    0.4204 N   0  0  0  0  0  0  0  0  0  0  0  0
    1.1177    1.5659   -0.2553 C   0  0  0  0  0  0  0  0  0  0  0  0
    0.7363    0.5987    0.8581 C   0  0  0  0  0  0  0  0  0  0  0  0
    1.6017    3.2781    1.3594 C   0  0  0  0  0  0  0  0  0  0  0  0
    1.1759    3.8712   -0.9296 C   0  0  0  0  0  0  0  0  0  0  0  0
   -0.0667   -1.7279    0.3567 C   0  0  0  0  0  0  0  0  0  0  0  0
    2.3339   -1.1841    0.0502 C   0  0  0  0  0  0  0  0  0  0  0  0
   -1.4123   -1.3015    0.7299 C   0  0  0  0  0  0  0  0  0  0  0  0
   -2.3186   -0.7680   -0.2010 C   0  0  0  0  0  0  0  0  0  0  0  0
    1.2785    4.6853    1.8319 C   0  0  0  0  0  0  0  0  0  0  0  0
    0.4038    3.5384   -2.1950 C   0  0  0  0  0  0  0  0  0  0  0  0
   -3.6070   -0.3760    0.2341 C   0  0  0  0  0  0  0  0  0  0  0  0
   -1.7710   -1.4461    2.0705 C   0  0  0  0  0  0  0  0  0  0  0  0
    2.4742   -2.1664   -0.8914 C   0  0  0  0  0  0  0  0  0  0  0  0
    3.3828   -0.5559    0.6636 C   0  0  0  0  0  0  0  0  0  0  0  0
   -1.9747   -0.6153   -1.5541 C   0  0  0  0  0  0  0  0  0  0  0  0
   -3.9512   -0.5291    1.5871 C   0  0  0  0  0  0  0  0  0  0  0  0
   -3.0381   -1.0609    2.4982 C   0  0  0  0  0  0  0  0  0  0  0  0
   -4.5135    0.1573   -0.6966 C   0  0  0  0  0  0  0  0  0  0  0  0
    3.7666   -2.5515   -1.2477 C   0  0  0  0  0  0  0  0  0  0  0  0
    4.6752   -0.9410    0.3071 C   0  0  0  0  0  0  0  0  0  0  0  0
   -2.8878   -0.0832   -2.4649 C   0  0  0  0  0  0  0  0  0  0  0  0
   -4.1547    0.3024   -2.0370 C   0  0  0  0  0  0  0  0  0  0  0  0
    4.8671   -1.9388   -0.6486 C   0  0  0  0  0  0  0  0  0  0  0  0
  1  8  2  0
  2  4  1  0
  2  6  1  0
  2  7  1  0
  3  5  1  0
  3  8  1  0
  3  9  1  0
  4  5  1  0
  6 12  1  0
  7 13  1  0
  8 10  1  0
  9 16  2  0
  9 17  1  0
 10 11  1  0
 10 15  2  0
 11 14  2  0
 11 18  1  0
 14 19  1  0
 14 21  1  0
 15 20  1  0
 16 22  1  0
 17 23  2  0
 18 24  2  0
 19 20  2  0
 21 25  2  0
 22 26  2  0
 23 26  1  0
 24 25  1  0
M  END
>  <PUBCHEM_COMPOUND_CID>  (1) 
39645

>  <PUBCHEM_CONFORMER_RMSD>  (1) 
0.8

>  <PUBCHEM_CONFORMER_DIVERSEORDER>  (1) 
2
128
58
118
129
101
48
77
122
111
54
100
123
68
126
56
104
83
63
106
130
90
60
108
115
67
40
75
109
19
92
22
131
59
114
70
97
89
105
47
62
74
66
93
96
127
14
86
116
98
102
94
117
87
42
36
112
78
61
95
107
51
113
125
79
120
41
71
103
34
110
43
45
81
39
80
46
30
31
37
64
44
76
33
13
121
119
26
8
38
99
35
84
124
65
1
88
73
6
53
18
3
52
24
25
55
4
29
85
12
20
11
49
15
82
23
21
91
9
17
50
10
57
16
7
69
28
5
72
32
27

>  <PUBCHEM_MMFF94_PARTIAL_CHARGES>  (1) 
34
1 -0.57
10 0.09
15 -0.15
16 -0.15
17 -0.15
18 -0.15
19 -0.15
2 -0.81
20 -0.15
21 -0.15
22 -0.15
23 -0.15
24 -0.15
25 -0.15
26 -0.15
3 -0.48
4 0.27
41 0.15
42 0.15
43 0.15
44 0.15
45 0.15
46 0.15
47 0.15
48 0.15
49 0.15
5 0.3
50 0.15
51 0.15
52 0.15
6 0.27
7 0.27
8 0.54
9 0.12

>  <PUBCHEM_EFFECTIVE_ROTOR_COUNT>  (1) 
8

>  <PUBCHEM_PHARMACOPHORE_FEATURES>  (1) 
5
1 1 acceptor
1 2 cation
6 10 11 14 15 19 20 rings
6 11 14 18 21 24 25 rings
6 9 16 17 22 23 26 rings

>  <PUBCHEM_HEAVY_ATOM_COUNT>  (1) 
26

>  <PUBCHEM_ATOM_DEF_STEREO_COUNT>  (1) 
0

>  <PUBCHEM_ATOM_UDEF_STEREO_COUNT>  (1) 
0

>  <PUBCHEM_BOND_DEF_STEREO_COUNT>  (1) 
0

>  <PUBCHEM_BOND_UDEF_STEREO_COUNT>  (1) 
0

>  <PUBCHEM_ISOTOPIC_ATOM_COUNT>  (1) 
0

>  <PUBCHEM_COMPONENT_COUNT>  (1) 
1

>  <PUBCHEM_CACTVS_TAUTO_COUNT>  (1) 
1

>  <PUBCHEM_CONFORMER_ID>  (1) 
00009ADD00000002

>  <PUBCHEM_MMFF94_ENERGY>  (1) 
93.8365

>  <PUBCHEM_FEATURE_SELFOVERLAP>  (1) 
25.399

>  <PUBCHEM_SHAPE_FINGERPRINT>  (1) 
10006869 2 17473838221160744585
10165383 225 17542820901808225209
10366900 7 17749101176349653327
12156800 1 17263049815738326877
12160290 23 17833545692102354280
12166972 35 17560783443293629461
12236239 1 17203327771876002083
12788726 201 18192423066267124122
13009979 54 17060051579806901895
13134695 92 18343302569840918452
13149001 5 18261108612192143715
133893 2 18196369440615553278
13681431 1 18410582816047589824
13911987 19 18336279976416765414
14251757 17 17676207961753021748
15210252 30 17968936362575188804
17138139 8 17185832170702964933
17357779 13 18339921511466358662
17980427 23 17489591198881377770
1813 80 17987535739888202270
18785283 64 18045803413466500643
20567600 299 18271236243997756488
20600515 1 18337972111894822510
21285901 2 18269832008967165406
21304303 282 17319558090951109444
21641784 216 18118993333616185700
22907989 373 17899722080205832510
23175994 123 18335431131616696867
23558518 356 17323791167531387178
23559900 14 17968097585959378675
266924 87 18047754789393802406
283562 15 18194685856934138690
350125 39 17834684064320093226
5081480 168 18336276707418865893
5171179 24 18129924716415862712
5252454 2 17760951909725360465
6287921 2 17318755812355523229
6823239 73 17095806619989723629
7226269 152 17895742999080161218
7399639 24 17545039767580537491
81228 2 18120384155268537576
9862522 239 17469584669881113560
9981440 41 17407372090036214233

>  <PUBCHEM_SHAPE_MULTIPOLES>  (1) 
519.24
8.13
4.69
2.27
0.28
7.72
-0.11
-5.38
-1.43
4.99
0.4
-2.22
0.77
1.95

>  <PUBCHEM_SHAPE_SELFOVERLAP>  (1) 
1113.471

>  <PUBCHEM_SHAPE_VOLUME>  (1) 
287.7

>  <PUBCHEM_COORDINATE_TYPE>  (1) 
2
5
10

$$$$
