39642
     RDKit          3D

 18 19  0  0  0  0  0  0  0  0999 V2000
    0.7676   -1.0749    1.7663 O   0  0  0  0  0  0  0  0  0  0  0  0
    4.7720    0.3681    0.0763 N   0  0  0  0  0  0  0  0  0  0  0  0
    1.3321   -0.9476   -0.4791 N   0  0  0  0  0  0  0  0  0  0  0  0
    3.3316    0.4242   -0.1378 C   0  0  0  0  0  0  0  0  0  0  0  0
    2.7651   -0.9794   -0.2937 C   0  0  0  0  0  0  0  0  0  0  0  0
   -1.7286    0.2102    0.0998 C   0  0  0  0  0  0  0  0  0  0  0  0
   -0.9972   -0.9822    0.2251 C   0  0  0  0  0  0  0  0  0  0  0  0
   -3.0997    0.1478   -0.2451 C   0  0  0  0  0  0  0  0  0  0  0  0
    0.4196   -0.9983    0.5777 C   0  0  0  0  0  0  0  0  0  0  0  0
   -1.6089   -2.2182    0.0138 C   0  0  0  0  0  0  0  0  0  0  0  0
   -1.1293    1.4630    0.3090 C   0  0  0  0  0  0  0  0  0  0  0  0
   -3.6990   -1.1049   -0.4547 C   0  0  0  0  0  0  0  0  0  0  0  0
   -3.8312    1.3401   -0.3706 C   0  0  0  0  0  0  0  0  0  0  0  0
    5.3186    1.7133    0.2652 C   0  0  0  0  0  0  0  0  0  0  0  0
    5.4356   -0.2955   -1.0476 C   0  0  0  0  0  0  0  0  0  0  0  0
   -2.9572   -2.2794   -0.3258 C   0  0  0  0  0  0  0  0  0  0  0  0
   -1.8714    2.6374    0.1803 C   0  0  0  0  0  0  0  0  0  0  0  0
   -3.2198    2.5761   -0.1588 C   0  0  0  0  0  0  0  0  0  0  0  0
  1  9  2  0
  2  4  1  0
  2 14  1  0
  2 15  1  0
  3  5  1  0
  3  9  1  0
  4  5  1  0
  6  7  2  0
  6  8  1  0
  6 11  1  0
  7  9  1  0
  7 10  1  0
  8 12  2  0
  8 13  1  0
 10 16  2  0
 11 17  2  0
 12 16  1  0
 13 18  2  0
 17 18  1  0
M  END
>  <PUBCHEM_COMPOUND_CID>  (1) 
39642

>  <PUBCHEM_CONFORMER_RMSD>  (1) 
0.6

>  <PUBCHEM_CONFORMER_DIVERSEORDER>  (1) 
2
28
15
40
33
17
3
42
39
23
34
25
7
43
11
26
35
41
13
24
30
5
16
6
21
9
36
19
29
8
32
27
38
10
37
18
20
22
1
14
12
31
4

>  <PUBCHEM_MMFF94_PARTIAL_CHARGES>  (1) 
24
1 -0.57
10 -0.15
11 -0.15
12 -0.15
13 -0.15
14 0.27
15 0.27
16 -0.15
17 -0.15
18 -0.15
2 -0.81
23 0.37
24 0.15
25 0.15
26 0.15
27 0.15
3 -0.73
34 0.15
35 0.15
36 0.15
4 0.27
5 0.3
7 0.09
9 0.54

>  <PUBCHEM_EFFECTIVE_ROTOR_COUNT>  (1) 
5

>  <PUBCHEM_PHARMACOPHORE_FEATURES>  (1) 
5
1 1 acceptor
1 2 cation
1 3 donor
6 6 7 8 10 12 16 rings
6 6 8 11 13 17 18 rings

>  <PUBCHEM_HEAVY_ATOM_COUNT>  (1) 
18

>  <PUBCHEM_ATOM_DEF_STEREO_COUNT>  (1) 
0

>  <PUBCHEM_ATOM_UDEF_STEREO_COUNT>  (1) 
0

>  <PUBCHEM_BOND_DEF_STEREO_COUNT>  (1) 
0

>  <PUBCHEM_BOND_UDEF_STEREO_COUNT>  (1) 
0

>  <PUBCHEM_ISOTOPIC_ATOM_COUNT>  (1) 
0

>  <PUBCHEM_COMPONENT_COUNT>  (1) 
1

>  <PUBCHEM_CACTVS_TAUTO_COUNT>  (1) 
2

>  <PUBCHEM_CONFORMER_ID>  (1) 
00009ADA00000002

>  <PUBCHEM_MMFF94_ENERGY>  (1) 
51.5881

>  <PUBCHEM_FEATURE_SELFOVERLAP>  (1) 
25.398

>  <PUBCHEM_SHAPE_FINGERPRINT>  (1) 
10411042 1 17978228593288000255
10493431 412 18269846315899094281
10498660 4 18337949000211786940
11961588 58 18042387081253935557
12107183 9 17902783069169913106
12173636 292 18338795607290877511
12390115 104 18128551362047271689
14142880 1 17968094184155441573
14251757 17 18059569222312313072
14251764 38 18264209278581439812
14739800 52 18265310955104413712
14790565 3 17982739567363805385
15196674 1 18411701002377889028
16945 1 18196636425179650691
17134986 127 17689715260268467837
200 152 16056605335427531862
20300324 65 18412545435364867838
20510252 161 18341614785401517531
20645477 56 18338806619270564983
20645477 70 17060071324346471054
20871999 31 18343291566503828599
21623110 236 18268155433765087656
23227448 37 18411418422998634076
23352939 185 18059018418299064097
23402539 116 18410568517864110806
235170 7 17560815333299442420
23557571 272 18271815639306646630
23559900 14 18057039108728869438
245318 6 16810402139462679068
2748010 2 18196065937595535099
351380 180 18411698816381797728
4028521 119 18409448063954570396
4214541 1 18411702058897269156
4340502 62 16588315917489137569
441001 317 18411135857606261808
474 4 17603594014884063006
5104073 3 18335139756893311570
9709674 26 18342745100355522454
9981440 41 18333447660096099474

>  <PUBCHEM_SHAPE_MULTIPOLES>  (1) 
354.6
10.12
2.73
0.88
16.64
0.89
0.17
3.14
-2.27
-2.78
0.04
0.36
-0.18
0.18

>  <PUBCHEM_SHAPE_SELFOVERLAP>  (1) 
749.494

>  <PUBCHEM_SHAPE_VOLUME>  (1) 
201

>  <PUBCHEM_COORDINATE_TYPE>  (1) 
2
5
10

$$$$
