39643
     RDKit          3D

 19 20  0  0  0  0  0  0  0  0999 V2000
   -0.3482   -1.3185    1.6574 O   0  0  0  0  0  0  0  0  0  0  0  0
   -4.3973   -0.4747   -0.3753 N   0  0  0  0  0  0  0  0  0  0  0  0
   -0.7901   -1.3698   -0.6183 N   0  0  0  0  0  0  0  0  0  0  0  0
   -5.1216    0.7874   -0.3171 C   0  0  0  0  0  0  0  0  0  0  0  0
   -2.9604   -0.2469   -0.4580 C   0  0  0  0  0  0  0  0  0  0  0  0
   -2.2166   -1.5735   -0.5075 C   0  0  0  0  0  0  0  0  0  0  0  0
    1.4726   -1.0260    0.2091 C   0  0  0  0  0  0  0  0  0  0  0  0
    2.0173    0.2626    0.0860 C   0  0  0  0  0  0  0  0  0  0  0  0
   -4.6845    1.5924    0.9035 C   0  0  0  0  0  0  0  0  0  0  0  0
   -6.6214    0.5112   -0.2829 C   0  0  0  0  0  0  0  0  0  0  0  0
    3.3990    0.4069   -0.1837 C   0  0  0  0  0  0  0  0  0  0  0  0
    0.0574   -1.2547    0.4864 C   0  0  0  0  0  0  0  0  0  0  0  0
    2.2786   -2.1562    0.0681 C   0  0  0  0  0  0  0  0  0  0  0  0
    1.2210    1.4112    0.2248 C   0  0  0  0  0  0  0  0  0  0  0  0
    4.1955   -0.7416   -0.3221 C   0  0  0  0  0  0  0  0  0  0  0  0
    3.9439    1.6954   -0.3067 C   0  0  0  0  0  0  0  0  0  0  0  0
    3.6374   -2.0142   -0.1967 C   0  0  0  0  0  0  0  0  0  0  0  0
    1.7792    2.6836    0.0990 C   0  0  0  0  0  0  0  0  0  0  0  0
    3.1380    2.8255   -0.1663 C   0  0  0  0  0  0  0  0  0  0  0  0
  1 12  2  0
  2  4  1  0
  2  5  1  0
  3  6  1  0
  3 12  1  0
  4  9  1  0
  4 10  1  0
  5  6  1  0
  7  8  2  0
  7 12  1  0
  7 13  1  0
  8 11  1  0
  8 14  1  0
 11 15  2  0
 11 16  1  0
 13 17  2  0
 14 18  2  0
 15 17  1  0
 16 19  2  0
 18 19  1  0
M  END
>  <PUBCHEM_COMPOUND_CID>  (1) 
39643

>  <PUBCHEM_CONFORMER_RMSD>  (1) 
0.8

>  <PUBCHEM_CONFORMER_DIVERSEORDER>  (1) 
1
23
34
8
30
24
16
14
33
6
19
5
32
26
27
20
37
10
11
21
18
38
29
25
4
15
22
31
13
9
28
3
35
7
36
2
17
12

>  <PUBCHEM_MMFF94_PARTIAL_CHARGES>  (1) 
24
1 -0.57
12 0.54
13 -0.15
14 -0.15
15 -0.15
16 -0.15
17 -0.15
18 -0.15
19 -0.15
2 -0.9
25 0.36
3 -0.73
32 0.37
33 0.15
34 0.15
35 0.15
36 0.15
37 0.15
38 0.15
39 0.15
4 0.27
5 0.27
6 0.3
7 0.09

>  <PUBCHEM_EFFECTIVE_ROTOR_COUNT>  (1) 
6

>  <PUBCHEM_PHARMACOPHORE_FEATURES>  (1) 
7
1 1 acceptor
1 2 cation
1 2 donor
1 3 donor
3 4 9 10 hydrophobe
6 7 8 11 13 15 17 rings
6 8 11 14 16 18 19 rings

>  <PUBCHEM_HEAVY_ATOM_COUNT>  (1) 
19

>  <PUBCHEM_ATOM_DEF_STEREO_COUNT>  (1) 
0

>  <PUBCHEM_ATOM_UDEF_STEREO_COUNT>  (1) 
0

>  <PUBCHEM_BOND_DEF_STEREO_COUNT>  (1) 
0

>  <PUBCHEM_BOND_UDEF_STEREO_COUNT>  (1) 
0

>  <PUBCHEM_ISOTOPIC_ATOM_COUNT>  (1) 
0

>  <PUBCHEM_COMPONENT_COUNT>  (1) 
1

>  <PUBCHEM_CACTVS_TAUTO_COUNT>  (1) 
2

>  <PUBCHEM_CONFORMER_ID>  (1) 
00009ADB00000001

>  <PUBCHEM_MMFF94_ENERGY>  (1) 
40.5467

>  <PUBCHEM_FEATURE_SELFOVERLAP>  (1) 
35.547

>  <PUBCHEM_SHAPE_FINGERPRINT>  (1) 
10366900 7 17531250496594496865
10411042 1 17977945688219042294
10906281 52 18335146431926447704
11045977 3 18040443187661433771
116883 192 18128544769256076358
12617007 42 18271813367648820382
12730499 353 18260837011667123731
12788726 201 17417824915464651913
13464514 151 18337112384001262190
13590594 115 18265620866442490000
14341114 176 18408329891358498995
14464042 87 17989211412994738417
15042514 8 17545596756794792762
15196674 1 18411135870454162573
15210252 30 17968387852650314164
15295992 7 18113340837872365226
16945 1 18123766511197571434
17844677 252 18411989078735320303
18186145 218 17895184523897359646
20612939 158 18410294700798147445
20832881 197 18187646834890546610
21033648 29 17313373510159969029
21033650 10 15553908631940298843
21478907 32 17833831569515995218
21503847 285 18335700524987261609
221357 26 18337387145807257845
22224240 67 8574132931310356838
22289505 5 18410570652309720220
23402655 69 18341894133978935574
23558518 356 17826230984323699106
25 1 18263076772845356758
2748010 2 17402631022531736150
335352 9 18410575089675666318
427121 178 16660639665527035355
474 4 18334293210217549665
5104073 3 18261106421890646843
543358 83 18412265038704581814
54446538 1 18341048537066199921
5895379 119 17488475078288501376
633830 44 18261667159988787543
7832392 63 18341606066032402663
8272917 22 18413672404861388606
84936 182 17985543596759957752
9981440 41 17764015170616378088

>  <PUBCHEM_SHAPE_MULTIPOLES>  (1) 
375.18
11.83
2.85
0.85
21.41
1.17
-0.19
3.61
1.46
-3.01
-0.07
0.32
-0.12
-0.49

>  <PUBCHEM_SHAPE_SELFOVERLAP>  (1) 
787.169

>  <PUBCHEM_SHAPE_VOLUME>  (1) 
213.5

>  <PUBCHEM_COORDINATE_TYPE>  (1) 
2
5
10

$$$$
