39641
     RDKit          3D

 25 29  0  0  1  0  0  0  0  0999 V2000
    1.7589    0.2603   -1.2599 O   0  0  0  0  0  0  0  0  0  0  0  0
   -4.1997   -2.5643    0.7421 O   0  0  0  0  0  0  0  0  0  0  0  0
   -5.6632   -1.0916   -0.4762 O   0  0  0  0  0  0  0  0  0  0  0  0
   -1.9512    2.1110   -0.8971 N   0  0  0  0  0  0  0  0  0  0  0  0
    3.8739   -1.4599   -0.4043 C   0  0  0  0  0  0  0  0  0  0  0  0
    4.7505   -0.2394   -0.1418 C   0  0  0  0  0  0  0  0  0  0  0  0
    4.7616   -2.6060    0.0702 C   0  0  0  0  0  0  0  0  0  0  0  0
    0.7287    0.3184    0.8840 C   0  0  0  0  0  0  0  0  0  0  0  0
    2.5364   -1.4020    0.3128 C   0  0  0  0  0  0  0  0  0  0  0  0
    6.1503   -0.6945   -0.5428 C   0  0  0  0  0  0  0  0  0  0  0  0
    6.1537   -2.2191   -0.4178 C   0  0  0  0  0  0  0  0  0  0  0  0
   -0.5145    0.8247    0.2233 C   0  0  0  0  0  0  0  0  0  0  0  0
    1.4184    1.3342    1.8036 C   0  0  0  0  0  0  0  0  0  0  0  0
    1.6844   -0.2281   -0.1335 C   0  0  0  0  0  0  0  0  0  0  0  0
   -0.6617    2.0305   -0.4400 C   0  0  0  0  0  0  0  0  0  0  0  0
    2.0327    2.5708    1.1363 C   0  0  0  0  0  0  0  0  0  0  0  0
    0.3203    3.1206   -0.6926 C   0  0  0  0  0  0  0  0  0  0  0  0
    1.0224    3.5785    0.5832 C   0  0  0  0  0  0  0  0  0  0  0  0
   -1.7818    0.1509    0.1539 C   0  0  0  0  0  0  0  0  0  0  0  0
   -2.6595    0.9848   -0.5532 C   0  0  0  0  0  0  0  0  0  0  0  0
   -2.2551   -1.0951    0.6299 C   0  0  0  0  0  0  0  0  0  0  0  0
   -3.9967    0.6536   -0.8187 C   0  0  0  0  0  0  0  0  0  0  0  0
   -3.5766   -1.4132    0.3629 C   0  0  0  0  0  0  0  0  0  0  0  0
   -4.4109   -0.5729   -0.3320 C   0  0  0  0  0  0  0  0  0  0  0  0
   -5.5212   -2.3522    0.2077 C   0  0  0  0  0  0  0  0  0  0  0  0
  1 14  2  0
  2 23  1  0
  2 25  1  0
  3 24  1  0
  3 25  1  0
  4 15  1  0
  4 20  1  0
  5  6  1  0
  5  7  1  0
  5  9  1  0
  6 10  1  0
  7 11  1  0
  8 12  1  0
  8 13  1  0
  8 14  1  0
  9 14  1  0
 10 11  1  0
 12 15  2  0
 12 19  1  0
 13 16  1  0
 15 17  1  0
 16 18  1  0
 17 18  1  0
 19 20  2  0
 19 21  1  0
 20 22  1  0
 21 23  2  0
 22 24  2  0
 23 24  1  0
M  END
>  <PUBCHEM_COMPOUND_CID>  (1) 
39641

>  <PUBCHEM_CONFORMER_RMSD>  (1) 
0.8

>  <PUBCHEM_CONFORMER_DIVERSEORDER>  (1) 
1
14
24
3
7
5
41
8
29
28
45
26
30
37
31
36
43
35
42
9
33
48
38
13
19
44
40
23
2
16
47
39
11
12
20
4
46
32
15
22
34
6
17
21
10
27
25
18

>  <PUBCHEM_MMFF94_PARTIAL_CHARGES>  (1) 
19
1 -0.57
12 -0.18
14 0.45
15 -0.33
17 0.18
2 -0.36
20 -0.15
21 -0.15
22 -0.15
23 0.08
24 0.08
25 0.56
3 -0.36
4 0.03
46 0.27
47 0.15
48 0.15
8 0.24
9 0.06

>  <PUBCHEM_EFFECTIVE_ROTOR_COUNT>  (1) 
5.6

>  <PUBCHEM_PHARMACOPHORE_FEATURES>  (1) 
10
1 1 acceptor
1 2 acceptor
1 3 acceptor
1 4 cation
1 4 donor
5 2 3 23 24 25 rings
5 4 12 15 19 20 rings
5 5 6 7 10 11 rings
6 19 20 21 22 23 24 rings
7 8 12 13 15 16 17 18 rings

>  <PUBCHEM_HEAVY_ATOM_COUNT>  (1) 
25

>  <PUBCHEM_ATOM_DEF_STEREO_COUNT>  (1) 
0

>  <PUBCHEM_ATOM_UDEF_STEREO_COUNT>  (1) 
1

>  <PUBCHEM_BOND_DEF_STEREO_COUNT>  (1) 
0

>  <PUBCHEM_BOND_UDEF_STEREO_COUNT>  (1) 
0

>  <PUBCHEM_ISOTOPIC_ATOM_COUNT>  (1) 
0

>  <PUBCHEM_COMPONENT_COUNT>  (1) 
1

>  <PUBCHEM_CACTVS_TAUTO_COUNT>  (1) 
3

>  <PUBCHEM_CONFORMER_ID>  (1) 
00009AD900000001

>  <PUBCHEM_MMFF94_ENERGY>  (1) 
42.5002

>  <PUBCHEM_FEATURE_SELFOVERLAP>  (1) 
51.031

>  <PUBCHEM_SHAPE_FINGERPRINT>  (1) 
10764073 3 11239460150534033816
11045515 52 18187651233069023932
11578080 2 16445835762542393316
11963148 33 18048025561380726202
12166972 35 18040724645500278638
12516196 113 18341892983112569698
12633257 1 16702020924073899631
12788726 201 18044371621767833408
13402501 40 18411138038965007563
13533116 47 18127973212531052811
13540713 4 18338216246331539773
13544653 18 18202003192489097146
13631057 29 18337393726198444802
13740256 8 18412265034066768566
13955234 65 17983859161814967833
14790565 3 17330272771308015233
14866123 147 18196374706794506777
15352361 1 18409168800759598502
15927050 60 17695346267742396924
17492 89 18122063376155593155
17980427 23 11887657490417789379
1813 80 17917725582114343324
20775438 99 17759791938038813083
20871999 31 18187925036742909521
21033650 10 16877935006585656573
21049683 271 18338242673412758404
21267235 1 18333736840760940675
21307412 95 18409442588562969079
221490 88 18337110171581479945
22182313 1 18266153158655660000
22950370 63 18340772554914668200
23557571 272 18127130780139003796
23559900 14 18336258037707492349
23566358 27 18196647625700095405
2838139 119 13767923511915775470
3004659 81 18040998423663946918
314194 84 18131345315297699542
329604 57 18409170996073234918
335352 9 18335980888332399037
3421961 26 18340768255394078521
4280585 95 18187640293580981644
437815 12 18272650125951272847
5486654 36 18339372894114223361
6669772 16 17981891062536339468
6823239 73 18336817671518887297
7495541 125 18341613745802978470
9709674 26 18117836836130308091

>  <PUBCHEM_SHAPE_MULTIPOLES>  (1) 
491.9
12.66
3.6
1.07
4.54
1.9
0.19
-13.85
-2.14
0.49
0.37
0.13
0.42
1.41

>  <PUBCHEM_SHAPE_SELFOVERLAP>  (1) 
1085.375

>  <PUBCHEM_SHAPE_VOLUME>  (1) 
265

>  <PUBCHEM_COORDINATE_TYPE>  (1) 
2
5
10

$$$$
