39658
     RDKit          3D

 19 20  0  0  0  0  0  0  0  0999 V2000
    3.6568   -3.3873    0.5950 F   0  0  0  0  0  0  0  0  0  0  0  0
   -5.3558   -0.6762    0.5515 F   0  0  0  0  0  0  0  0  0  0  0  0
    0.3361    1.9095   -0.0060 O   0  0  0  0  0  0  0  0  0  0  0  0
    3.2710    4.1141   -0.1391 N   0  0  0  0  0  0  0  0  0  0  0  0
   -0.0307    0.6708   -0.6387 C   0  0  0  0  0  0  0  0  0  0  0  0
    0.9477   -0.4059   -0.3114 C   0  0  0  0  0  0  0  0  0  0  0  0
   -1.4763    0.3050   -0.3156 C   0  0  0  0  0  0  0  0  0  0  0  0
    1.6149    2.3363   -0.4357 C   0  0  0  0  0  0  0  0  0  0  0  0
    1.1844   -1.4341   -1.2237 C   0  0  0  0  0  0  0  0  0  0  0  0
   -2.1994   -0.4182   -1.2389 C   0  0  0  0  0  0  0  0  0  0  0  0
    1.6264   -0.3847    0.9071 C   0  0  0  0  0  0  0  0  0  0  0  0
   -2.0092    0.7105    0.8887 C   0  0  0  0  0  0  0  0  0  0  0  0
    1.9527    3.6448    0.2607 C   0  0  0  0  0  0  0  0  0  0  0  0
    2.0996   -2.4412   -0.9174 C   0  0  0  0  0  0  0  0  0  0  0  0
   -3.5209   -0.7525   -0.9434 C   0  0  0  0  0  0  0  0  0  0  0  0
    2.5417   -1.3916    1.2134 C   0  0  0  0  0  0  0  0  0  0  0  0
   -3.3307    0.3761    1.1844 C   0  0  0  0  0  0  0  0  0  0  0  0
    2.7784   -2.4199    0.3010 C   0  0  0  0  0  0  0  0  0  0  0  0
   -4.0866   -0.3556    0.2683 C   0  0  0  0  0  0  0  0  0  0  0  0
  1 18  1  0
  2 19  1  0
  3  5  1  0
  3  8  1  0
  4 13  1  0
  5  6  1  0
  5  7  1  0
  6  9  2  0
  6 11  1  0
  7 10  2  0
  7 12  1  0
  8 13  1  0
  9 14  1  0
 10 15  1  0
 11 16  2  0
 12 17  2  0
 14 18  2  0
 15 19  2  0
 16 18  1  0
 17 19  1  0
M  END
>  <PUBCHEM_COMPOUND_CID>  (1) 
39658

>  <PUBCHEM_CONFORMER_RMSD>  (1) 
0.6

>  <PUBCHEM_CONFORMER_DIVERSEORDER>  (1) 
1
13
10
11
16
14
12
17
2
15
3
18
9
6
8
5
7
4

>  <PUBCHEM_MMFF94_PARTIAL_CHARGES>  (1) 
29
1 -0.19
10 -0.15
11 -0.15
12 -0.15
13 0.27
14 -0.15
15 -0.15
16 -0.15
17 -0.15
18 0.19
19 0.19
2 -0.19
23 0.15
24 0.15
25 0.15
26 0.15
29 0.15
3 -0.56
30 0.15
31 0.15
32 0.15
33 0.36
34 0.36
4 -0.99
5 0.57
6 -0.14
7 -0.14
8 0.28
9 -0.15

>  <PUBCHEM_EFFECTIVE_ROTOR_COUNT>  (1) 
5

>  <PUBCHEM_PHARMACOPHORE_FEATURES>  (1) 
5
1 3 acceptor
1 4 cation
1 4 donor
6 6 9 11 14 16 18 rings
6 7 10 12 15 17 19 rings

>  <PUBCHEM_HEAVY_ATOM_COUNT>  (1) 
19

>  <PUBCHEM_ATOM_DEF_STEREO_COUNT>  (1) 
0

>  <PUBCHEM_ATOM_UDEF_STEREO_COUNT>  (1) 
0

>  <PUBCHEM_BOND_DEF_STEREO_COUNT>  (1) 
0

>  <PUBCHEM_BOND_UDEF_STEREO_COUNT>  (1) 
0

>  <PUBCHEM_ISOTOPIC_ATOM_COUNT>  (1) 
0

>  <PUBCHEM_COMPONENT_COUNT>  (1) 
1

>  <PUBCHEM_CACTVS_TAUTO_COUNT>  (1) 
1

>  <PUBCHEM_CONFORMER_ID>  (1) 
00009AEA00000001

>  <PUBCHEM_MMFF94_ENERGY>  (1) 
46.8172

>  <PUBCHEM_FEATURE_SELFOVERLAP>  (1) 
25.371

>  <PUBCHEM_SHAPE_FINGERPRINT>  (1) 
10382601 240 18268445674991432873
11578080 2 17604422999043328652
12251169 10 17274248440567426231
12363563 72 18190180087826174243
12532896 13 17835242629322960404
12553582 1 18268998587405804359
12592029 89 18337389469358327536
12644460 14 18340784718394010265
12707595 3 18261108517908585015
12788726 201 17541967298585319928
13083527 12 18338498820555484501
13140716 1 18122061168051285960
13533116 47 18334586763328177243
136203 1 17545600050628247576
13955234 65 18337960090043796241
14347424 109 18338816571865091315
14787075 74 18040722446377146650
15842332 3 17917424380637490447
1813 80 18270408161496969494
18915476 22 18262500607119544509
20361792 2 18263363594782187407
204376 136 17975132363737246581
20559304 39 18131638885002243385
20600515 1 17840028438092272224
20645477 70 18263064635463100431
20739085 24 18272367521504028674
21524375 3 17982455094093304644
21650355 55 17977663104617587954
2255824 54 18341898514750761862
23419403 2 14353877426101319312
23557571 272 17833823877297536078
23559900 14 18411136918484348067
23598288 3 17469351152529893844
298252 57 16986047961593482580
3091708 16 9215157036039278672
31174 14 18334292076261690133
3286 77 18186525376090345615
394222 165 18057899115288115881
458136 41 18264773353135336445
474 4 18268149944838860384
57672749 33 18412258437477173472
59755656 520 17907014333158180756
6138700 20 18339371838016933820
633830 44 17984149424215891597
7364860 26 18412267271781776556
7615 1 17989481944616110149
77188 2 18265332807433589732
81228 2 17691399711882039728
81539 233 18190179181471991300
90316 7 17908146477514025770
9841814 1 18337965501649990611

>  <PUBCHEM_SHAPE_MULTIPOLES>  (1) 
365.61
7.16
3.98
1.2
7.89
3.52
-0.01
-2.32
-1.53
-7.58
0.07
0.2
-0.38
-0.73

>  <PUBCHEM_SHAPE_SELFOVERLAP>  (1) 
778.3

>  <PUBCHEM_SHAPE_VOLUME>  (1) 
204.8

>  <PUBCHEM_COORDINATE_TYPE>  (1) 
2
5
10

$$$$
