39652
     RDKit          3D

 22 24  0  0  0  0  0  0  0  0999 V2000
   -4.8209    3.7344    0.2779 Cl  0  0  0  0  0  0  0  0  0  0  0  0
    6.6059    0.9186    0.4916 O   0  0  0  0  0  0  0  0  0  0  0  0
   -0.0562   -1.4495   -1.8286 O   0  0  0  0  0  0  0  0  0  0  0  0
    3.9674    0.1057   -0.2003 N   0  0  0  0  0  0  0  0  0  0  0  0
    0.5732   -1.3164    0.3991 N   0  0  0  0  0  0  0  0  0  0  0  0
    4.6634   -0.4556    0.9659 C   0  0  0  0  0  0  0  0  0  0  0  0
    4.4450    1.4703   -0.4630 C   0  0  0  0  0  0  0  0  0  0  0  0
    2.5203    0.0926    0.0032 C   0  0  0  0  0  0  0  0  0  0  0  0
    6.1716   -0.4198    0.7360 C   0  0  0  0  0  0  0  0  0  0  0  0
    5.9582    1.4600   -0.6602 C   0  0  0  0  0  0  0  0  0  0  0  0
    2.0003   -1.3276    0.1711 C   0  0  0  0  0  0  0  0  0  0  0  0
   -1.7754   -1.3324   -0.2384 C   0  0  0  0  0  0  0  0  0  0  0  0
   -0.3693   -1.3789   -0.6302 C   0  0  0  0  0  0  0  0  0  0  0  0
   -2.4855   -0.1267   -0.1196 C   0  0  0  0  0  0  0  0  0  0  0  0
   -3.8465   -0.1602    0.2672 C   0  0  0  0  0  0  0  0  0  0  0  0
   -2.3980   -2.5538    0.0206 C   0  0  0  0  0  0  0  0  0  0  0  0
   -1.8747    1.1117   -0.3764 C   0  0  0  0  0  0  0  0  0  0  0  0
   -4.4572   -1.3986    0.5236 C   0  0  0  0  0  0  0  0  0  0  0  0
   -3.7363   -2.5867    0.4009 C   0  0  0  0  0  0  0  0  0  0  0  0
   -4.5564    1.0457    0.3858 C   0  0  0  0  0  0  0  0  0  0  0  0
   -2.5954    2.3000   -0.2535 C   0  0  0  0  0  0  0  0  0  0  0  0
   -3.9336    2.2671    0.1272 C   0  0  0  0  0  0  0  0  0  0  0  0
  1 22  1  0
  2  9  1  0
  2 10  1  0
  3 13  2  0
  4  6  1  0
  4  7  1  0
  4  8  1  0
  5 11  1  0
  5 13  1  0
  6  9  1  0
  7 10  1  0
  8 11  1  0
 12 13  1  0
 12 14  1  0
 12 16  2  0
 14 15  2  0
 14 17  1  0
 15 18  1  0
 15 20  1  0
 16 19  1  0
 17 21  2  0
 18 19  2  0
 20 22  2  0
 21 22  1  0
M  END
>  <PUBCHEM_COMPOUND_CID>  (1) 
39652

>  <PUBCHEM_CONFORMER_RMSD>  (1) 
0.8

>  <PUBCHEM_CONFORMER_DIVERSEORDER>  (1) 
2
13
26
35
19
17
8
41
9
40
23
30
5
3
31
7
36
32
43
10
39
12
37
25
21
15
22
14
20
24
6
38
33
4
11
42
16
29
1
34
28
27
18

>  <PUBCHEM_MMFF94_PARTIAL_CHARGES>  (1) 
27
1 -0.18
10 0.28
11 0.3
12 0.09
13 0.54
16 -0.15
17 -0.15
18 -0.15
19 -0.15
2 -0.56
20 -0.15
21 -0.15
22 0.18
3 -0.57
35 0.37
36 0.15
37 0.15
38 0.15
39 0.15
4 -0.81
40 0.15
41 0.15
5 -0.73
6 0.27
7 0.27
8 0.27
9 0.28

>  <PUBCHEM_EFFECTIVE_ROTOR_COUNT>  (1) 
6.2

>  <PUBCHEM_PHARMACOPHORE_FEATURES>  (1) 
7
1 2 acceptor
1 3 acceptor
1 4 cation
1 5 donor
6 12 14 15 16 18 19 rings
6 14 15 17 20 21 22 rings
6 2 4 6 7 9 10 rings

>  <PUBCHEM_HEAVY_ATOM_COUNT>  (1) 
22

>  <PUBCHEM_ATOM_DEF_STEREO_COUNT>  (1) 
0

>  <PUBCHEM_ATOM_UDEF_STEREO_COUNT>  (1) 
0

>  <PUBCHEM_BOND_DEF_STEREO_COUNT>  (1) 
0

>  <PUBCHEM_BOND_UDEF_STEREO_COUNT>  (1) 
0

>  <PUBCHEM_ISOTOPIC_ATOM_COUNT>  (1) 
0

>  <PUBCHEM_COMPONENT_COUNT>  (1) 
1

>  <PUBCHEM_CACTVS_TAUTO_COUNT>  (1) 
2

>  <PUBCHEM_CONFORMER_ID>  (1) 
00009AE400000002

>  <PUBCHEM_MMFF94_ENERGY>  (1) 
54.0606

>  <PUBCHEM_FEATURE_SELFOVERLAP>  (1) 
35.548

>  <PUBCHEM_SHAPE_FINGERPRINT>  (1) 
10411042 1 17978511163855891771
105312 117 17203608194337253734
10595046 47 18261955258284804722
10675989 125 17257369644634194225
10730089 173 18412267259487620836
11101153 10 18194680599361398981
11315181 36 17968093170305697826
12107183 9 17973997359037508426
12236239 1 18186800301341831946
12390115 104 18271821072788546057
12403259 118 18410566297603070568
12596602 18 17458624561870584602
12925494 130 18412539895153351937
12969540 114 16415477155814810798
13073987 5 18335134332929786994
13167372 99 18408321086754683104
13965767 371 17535193242054451925
14251764 75 18053391994199760217
14341114 176 18186804707751768530
14341114 328 18113334198132311928
14844126 61 18116437127679736243
14849402 71 17896600773412838108
15196674 1 18409167710243879236
15778101 99 18411422773879379064
17844677 252 18409173242425546082
17980427 23 18334298673711330653
20645477 56 17775285010393112422
21033648 29 17774706632974757976
21065198 48 18259980470671081946
21236236 1 18411417327992476127
21302155 148 18410297986327082420
21401589 2 18269846320172592689
21756936 100 18342729728641092206
22956985 138 16890340010472013499
23559900 14 18054515698882442286
245318 6 16809843561569427396
24771293 8 18272381846116636769
2838139 119 18272359850381292668
3633792 109 17604691314920972423
392239 28 17896337967999067531
4214541 1 18408884040470211128
5104073 3 18115028498053211603
54446538 1 18336263539597378860
5969126 39 18200021971858702543
6327066 14 18264201410306653909
7064713 232 18336267859823295796
7808743 9 18410572847312509937
9981440 41 18409735023984807275
9995097 60 18272091552923591006

>  <PUBCHEM_SHAPE_MULTIPOLES>  (1) 
432.92
15.05
3.3
0.9
24.57
1.5
-0.16
7.69
2.91
-5.86
0.05
0.4
-0.17
-0.55

>  <PUBCHEM_SHAPE_SELFOVERLAP>  (1) 
915.437

>  <PUBCHEM_SHAPE_VOLUME>  (1) 
244

>  <PUBCHEM_COORDINATE_TYPE>  (1) 
2
5
10

$$$$
