39660
     RDKit          3D

 15 15  0  0  0  0  0  0  0  0999 V2000
   -0.6124    0.9352   -0.0207 S   0  0  0  0  0  0  0  0  0  0  0  0
   -0.8237    1.6540    1.2252 O   0  0  0  0  0  0  0  0  0  0  0  0
   -0.8503    1.5970   -1.2932 O   0  0  0  0  0  0  0  0  0  0  0  0
   -3.7133   -1.4563    0.0090 O   0  0  0  0  0  0  0  0  0  0  0  0
   -3.5549    0.8442    0.0227 O   0  0  0  0  0  0  0  0  0  0  0  0
    1.0638    0.3701   -0.0091 C   0  0  0  0  0  0  0  0  0  0  0  0
   -1.5658   -0.5459    0.0067 C   0  0  0  0  0  0  0  0  0  0  0  0
    1.7038    0.1316   -1.2122 C   0  0  0  0  0  0  0  0  0  0  0  0
    1.7020    0.1779    1.2033 C   0  0  0  0  0  0  0  0  0  0  0  0
    3.6856   -0.5132    0.0097 C   0  0  0  0  0  0  0  0  0  0  0  0
    3.0257   -0.3138   -1.2027 C   0  0  0  0  0  0  0  0  0  0  0  0
    3.0238   -0.2674    1.2127 C   0  0  0  0  0  0  0  0  0  0  0  0
   -3.0422   -0.2662    0.0141 C   0  0  0  0  0  0  0  0  0  0  0  0
    5.0993   -0.9880    0.0201 C   0  0  0  0  0  0  0  0  0  0  0  0
   -5.1414   -1.3593    0.0145 C   0  0  0  0  0  0  0  0  0  0  0  0
  1  2  2  0
  1  3  2  0
  1  6  1  0
  1  7  1  0
  4 13  1  0
  4 15  1  0
  5 13  2  0
  6  8  2  0
  6  9  1  0
  7 13  1  0
  8 11  1  0
  9 12  2  0
 10 11  2  0
 10 12  1  0
 10 14  1  0
M  END
>  <PUBCHEM_COMPOUND_CID>  (1) 
39660

>  <PUBCHEM_CONFORMER_RMSD>  (1) 
0.6

>  <PUBCHEM_CONFORMER_DIVERSEORDER>  (1) 
1
6
7
2
4
8
5
3

>  <PUBCHEM_MMFF94_PARTIAL_CHARGES>  (1) 
19
1 1.2
10 -0.14
11 -0.15
12 -0.15
13 0.66
14 0.14
15 0.28
18 0.15
19 0.15
2 -0.65
20 0.15
21 0.15
3 -0.65
4 -0.43
5 -0.57
6 -0.01
7 0.17
8 -0.15
9 -0.15

>  <PUBCHEM_EFFECTIVE_ROTOR_COUNT>  (1) 
4

>  <PUBCHEM_PHARMACOPHORE_FEATURES>  (1) 
4
1 2 acceptor
1 3 acceptor
1 5 acceptor
6 6 8 9 10 11 12 rings

>  <PUBCHEM_HEAVY_ATOM_COUNT>  (1) 
15

>  <PUBCHEM_ATOM_DEF_STEREO_COUNT>  (1) 
0

>  <PUBCHEM_ATOM_UDEF_STEREO_COUNT>  (1) 
0

>  <PUBCHEM_BOND_DEF_STEREO_COUNT>  (1) 
0

>  <PUBCHEM_BOND_UDEF_STEREO_COUNT>  (1) 
0

>  <PUBCHEM_ISOTOPIC_ATOM_COUNT>  (1) 
0

>  <PUBCHEM_COMPONENT_COUNT>  (1) 
1

>  <PUBCHEM_CACTVS_TAUTO_COUNT>  (1) 
1

>  <PUBCHEM_CONFORMER_ID>  (1) 
00009AEC00000001

>  <PUBCHEM_MMFF94_ENERGY>  (1) 
22.4615

>  <PUBCHEM_FEATURE_SELFOVERLAP>  (1) 
20.316

>  <PUBCHEM_SHAPE_FINGERPRINT>  (1) 
10980938 120 14549020970439526572
11046707 91 18409166610473762595
11471102 20 15140680280758817586
11543360 7 15719392888652628411
12032990 46 18201720665081888243
12236239 1 17821449040765821284
122479 349 9727625120425879006
12251169 10 15698000751372040111
12892183 10 15625956325962681255
13296908 3 18130785681090315193
13760787 5 17313112951141115973
14115302 16 17967536821437552666
14252887 29 16630535011826658750
14576447 43 17385439925665265498
14911166 2 14851607678610532622
14943859 89 8574709104934987844
14993402 34 17022624165432228858
17844478 74 17203610350490100064
1798214 20 17603861226010912355
18186145 218 14490191613622368293
187816 3 15791731901489664241
18915474 69 17822013154687437551
193927 3 18337123344673892859
200 152 17167583769600238656
20279233 1 17561083588002565253
20281475 54 18261671484819959299
20645477 70 14635140188525346472
20671657 53 18259988201385368045
20871999 31 17458334231088034381
21041028 32 16917067742109669432
21119208 17 16588023523845684271
21256008 61 17458063772639140750
212847 35 8430327813617898742
22218785 32 13190334677772062145
22485316 2 18411980243486036214
23402539 116 17749105560993862798
23402655 69 14706921834967009686
23557571 272 18339643326740980772
23559900 14 18341609309086249312
26918003 58 16845575327028779539
3060560 45 15574712508734955426
31174 14 17561074839317843776
4047638 21 8286203859735253066
42 15 17489592281255567851
4990 188 14056996131185569099
5104073 3 17131273425102271866
57096353 35 16805613542472866806

>  <PUBCHEM_SHAPE_MULTIPOLES>  (1) 
289.07
9.35
1.35
1.17
3.59
0.17
0.02
-5.42
-0.11
1.12
-0.01
-0.8
0.25
0.03

>  <PUBCHEM_SHAPE_SELFOVERLAP>  (1) 
581.321

>  <PUBCHEM_SHAPE_VOLUME>  (1) 
170.5

>  <PUBCHEM_COORDINATE_TYPE>  (1) 
2
5
10

$$$$
