39664
     RDKit          3D

 13 13  0  0  0  0  0  0  0  0999 V2000
   -0.4370   -2.7253   -0.3284 Cl  0  0  0  0  0  0  0  0  0  0  0  0
    1.9254    0.0302    1.3908 O   0  0  0  0  0  0  0  0  0  0  0  0
    0.8159    0.0065   -0.6819 N   0  0  0  0  0  0  0  0  0  0  0  0
    4.3613    0.0318    0.2588 N   0  0  0  0  0  0  0  0  0  0  0  0
   -0.5377    0.0046   -0.3240 C   0  0  0  0  0  0  0  0  0  0  0  0
   -1.2041    1.2187   -0.1576 C   0  0  0  0  0  0  0  0  0  0  0  0
   -1.2200   -1.1971   -0.1337 C   0  0  0  0  0  0  0  0  0  0  0  0
   -2.5527    1.2311    0.1989 C   0  0  0  0  0  0  0  0  0  0  0  0
   -0.5022    2.5236   -0.3538 C   0  0  0  0  0  0  0  0  0  0  0  0
   -2.5686   -1.1846    0.2229 C   0  0  0  0  0  0  0  0  0  0  0  0
   -3.2349    0.0295    0.3891 C   0  0  0  0  0  0  0  0  0  0  0  0
    1.9346    0.0163    0.1641 C   0  0  0  0  0  0  0  0  0  0  0  0
    3.2201    0.0147   -0.6450 C   0  0  0  0  0  0  0  0  0  0  0  0
  1  7  1  0
  2 12  2  0
  3  5  1  0
  3 12  1  0
  4 13  1  0
  5  6  2  0
  5  7  1  0
  6  8  1  0
  6  9  1  0
  7 10  2  0
  8 11  2  0
 10 11  1  0
 12 13  1  0
M  END
>  <PUBCHEM_COMPOUND_CID>  (1) 
39664

>  <PUBCHEM_CONFORMER_RMSD>  (1) 
0.6

>  <PUBCHEM_CONFORMER_DIVERSEORDER>  (1) 
2
1

>  <PUBCHEM_MMFF94_PARTIAL_CHARGES>  (1) 
19
1 -0.18
10 -0.15
11 -0.15
12 0.57
13 0.33
14 0.37
15 0.15
19 0.15
2 -0.57
20 0.15
23 0.36
24 0.36
3 -0.55
4 -0.99
5 0.12
6 -0.14
7 0.18
8 -0.15
9 0.14

>  <PUBCHEM_EFFECTIVE_ROTOR_COUNT>  (1) 
3

>  <PUBCHEM_PHARMACOPHORE_FEATURES>  (1) 
5
1 2 acceptor
1 3 donor
1 4 cation
1 4 donor
6 5 6 7 8 10 11 rings

>  <PUBCHEM_HEAVY_ATOM_COUNT>  (1) 
13

>  <PUBCHEM_ATOM_DEF_STEREO_COUNT>  (1) 
0

>  <PUBCHEM_ATOM_UDEF_STEREO_COUNT>  (1) 
0

>  <PUBCHEM_BOND_DEF_STEREO_COUNT>  (1) 
0

>  <PUBCHEM_BOND_UDEF_STEREO_COUNT>  (1) 
0

>  <PUBCHEM_ISOTOPIC_ATOM_COUNT>  (1) 
0

>  <PUBCHEM_COMPONENT_COUNT>  (1) 
1

>  <PUBCHEM_CACTVS_TAUTO_COUNT>  (1) 
2

>  <PUBCHEM_CONFORMER_ID>  (1) 
00009AF000000002

>  <PUBCHEM_MMFF94_ENERGY>  (1) 
50.6384

>  <PUBCHEM_FEATURE_SELFOVERLAP>  (1) 
25.371

>  <PUBCHEM_SHAPE_FINGERPRINT>  (1) 
11132069 177 18411984650006528309
13024252 1 15574432115978927885
14614273 12 18189616034308647285
14993402 34 18336261327546731847
15076042 46 18117549643855612274
15219456 202 17987808405818358542
15309172 13 18410863135414184923
15375462 189 17894914056932053608
15669948 3 18337673121957147822
15775835 57 18411702041137300850
16945 1 18410579479026539509
193761 8 17761779459971183317
19422 9 17895199917423878906
20510252 161 18271811176751489945
20645464 45 17989489627621408703
20871998 184 18341056289002277431
21501502 16 18052537664868483219
23402539 116 18343575265930856775
23419403 2 16186848156946587445
23463225 33 18261956245626278646
23552423 10 17541949027894864613
23557571 272 18128549330738490364
23559900 14 18272375227149910390
2748010 2 18049175371554212503
3250762 1 17689160006811824069
43471831 8 18335422313991244747
54338 74 18266443490186822223
6333449 129 18413387639770488613
7364860 26 17911241611537162255
75552 356 18410294739341907925
77492 1 17676212381168692300
81228 2 18054206993754694883

>  <PUBCHEM_SHAPE_MULTIPOLES>  (1) 
253.57
5.36
2.25
0.83
5.01
0.39
-0.12
-0.2
-0.75
-1.24
0.37
0.3
0
0.02

>  <PUBCHEM_SHAPE_SELFOVERLAP>  (1) 
511.899

>  <PUBCHEM_SHAPE_VOLUME>  (1) 
148.9

>  <PUBCHEM_COORDINATE_TYPE>  (1) 
2
5
10

$$$$
