39681
     RDKit          3D

 18 18  0  0  0  0  0  0  0  0999 V2000
   -2.7197    0.7610   -0.1658 S   0  0  0  0  0  0  0  0  0  0  0  0
   -0.6755    2.8935   -0.2551 S   0  0  0  0  0  0  0  0  0  0  0  0
    1.9221    0.7587   -0.4535 O   0  0  0  0  0  0  0  0  0  0  0  0
   -0.4176   -1.7701   -0.3274 O   0  0  0  0  0  0  0  0  0  0  0  0
    1.6574    1.3787    1.7506 O   0  0  0  0  0  0  0  0  0  0  0  0
   -1.0231   -1.4169    1.8684 O   0  0  0  0  0  0  0  0  0  0  0  0
   -0.1449    0.3701    0.5312 C   0  0  0  0  0  0  0  0  0  0  0  0
   -1.0661    1.2347    0.0911 C   0  0  0  0  0  0  0  0  0  0  0  0
   -3.1931    2.2861   -1.0387 C   0  0  0  0  0  0  0  0  0  0  0  0
   -2.4038    3.4350   -0.4325 C   0  0  0  0  0  0  0  0  0  0  0  0
    3.3387    0.5996   -0.3237 C   0  0  0  0  0  0  0  0  0  0  0  0
   -0.7749   -3.1514   -0.2117 C   0  0  0  0  0  0  0  0  0  0  0  0
    1.2356    0.8876    0.7135 C   0  0  0  0  0  0  0  0  0  0  0  0
   -0.5945   -1.0211    0.7939 C   0  0  0  0  0  0  0  0  0  0  0  0
    3.6289   -0.6352    0.5159 C   0  0  0  0  0  0  0  0  0  0  0  0
    3.9607    0.5022   -1.7085 C   0  0  0  0  0  0  0  0  0  0  0  0
   -2.2401   -3.2581    0.1824 C   0  0  0  0  0  0  0  0  0  0  0  0
   -0.4900   -3.8545   -1.5301 C   0  0  0  0  0  0  0  0  0  0  0  0
  1  8  1  0
  1  9  1  0
  2  8  1  0
  2 10  1  0
  3 11  1  0
  3 13  1  0
  4 12  1  0
  4 14  1  0
  5 13  2  0
  6 14  2  0
  7  8  2  3
  7 13  1  0
  7 14  1  0
  9 10  1  0
 11 15  1  0
 11 16  1  0
 12 17  1  0
 12 18  1  0
M  END
>  <PUBCHEM_COMPOUND_CID>  (1) 
39681

>  <PUBCHEM_CONFORMER_RMSD>  (1) 
0.8

>  <PUBCHEM_CONFORMER_DIVERSEORDER>  (1) 
3
34
7
5
25
12
24
8
13
1
22
9
33
10
36
26
20
18
2
31
35
16
27
14
28
6
23
21
19
15
37
30
4
32
17
29
11

>  <PUBCHEM_MMFF94_PARTIAL_CHARGES>  (1) 
14
1 -0.33
10 0.23
11 0.28
12 0.28
13 0.71
14 0.71
2 -0.33
3 -0.43
4 -0.43
5 -0.57
6 -0.57
7 0.03
8 0.2
9 0.23

>  <PUBCHEM_EFFECTIVE_ROTOR_COUNT>  (1) 
6.8

>  <PUBCHEM_PHARMACOPHORE_FEATURES>  (1) 
6
1 5 acceptor
1 6 acceptor
1 7 anion
3 11 15 16 hydrophobe
3 12 17 18 hydrophobe
5 1 2 8 9 10 rings

>  <PUBCHEM_HEAVY_ATOM_COUNT>  (1) 
18

>  <PUBCHEM_ATOM_DEF_STEREO_COUNT>  (1) 
0

>  <PUBCHEM_ATOM_UDEF_STEREO_COUNT>  (1) 
0

>  <PUBCHEM_BOND_DEF_STEREO_COUNT>  (1) 
0

>  <PUBCHEM_BOND_UDEF_STEREO_COUNT>  (1) 
0

>  <PUBCHEM_ISOTOPIC_ATOM_COUNT>  (1) 
0

>  <PUBCHEM_COMPONENT_COUNT>  (1) 
1

>  <PUBCHEM_CACTVS_TAUTO_COUNT>  (1) 
1

>  <PUBCHEM_CONFORMER_ID>  (1) 
00009B0100000003

>  <PUBCHEM_MMFF94_ENERGY>  (1) 
49.1615

>  <PUBCHEM_FEATURE_SELFOVERLAP>  (1) 
30.446

>  <PUBCHEM_SHAPE_FINGERPRINT>  (1) 
107951 10 17606144830342586106
11578080 2 17700417167434359977
116883 192 17908975848942663543
12553582 1 17904485452066249610
12788726 201 18115590486139621570
13681431 1 17111281373997736657
13931106 250 18270954752004427686
14181834 199 17396699783394613900
14817 1 7905771697984079305
14955137 171 15678880961562438361
15502722 9 17833830465408310733
15906896 17 18186805785387438699
16945 1 18337376240705971025
20602899 9 18200887162280041672
20645476 183 18187934936880046748
20645477 70 17615111202049836973
20711985 344 18189609625995557690
21421566 26 17907330932339885156
21524375 3 18042964276880784208
22907989 373 18263659496327192565
23114952 82 17251444402088458821
23419403 2 16843015758079242003
23526113 38 17775002358721670872
23557571 272 18195810897879384936
23559900 14 18343298133973138760
23598288 3 18041289832741322714
23598291 2 17822010900525666550
23728640 28 18338504258358991842
2748010 2 18265911167376085427
298252 57 18114466647922783952
3250762 1 18055054704593349584
352729 6 18265055738734576856
458136 41 18051141289438925369
57210444 14 18193573172298534300
6138700 20 17472698023429579218
7364860 26 17547840868147227265
81228 2 18049714411018541435
81539 233 17900536774966445077

>  <PUBCHEM_SHAPE_MULTIPOLES>  (1) 
354.65
5.27
4.8
1.38
1.29
6.04
-0.05
-5.3
2
-0.8
1.26
0.63
0.14
0.44

>  <PUBCHEM_SHAPE_SELFOVERLAP>  (1) 
685.701

>  <PUBCHEM_SHAPE_VOLUME>  (1) 
218.1

>  <PUBCHEM_COORDINATE_TYPE>  (1) 
2
5
10

$$$$
