39687
     RDKit          3D

 21 22  0  0  0  0  0  0  0  0999 V2000
    2.6177   -0.9201    0.2917 O   0  0  0  0  0  0  0  0  0  0  0  0
    1.9879   -3.0951    0.5692 O   0  0  0  0  0  0  0  0  0  0  0  0
   -1.9026   -2.1422    0.3637 O   0  0  0  0  0  0  0  0  0  0  0  0
   -0.3195   -3.6541    0.6060 O   0  0  0  0  0  0  0  0  0  0  0  0
   -1.4642    0.1898    0.0491 N   0  0  0  0  0  0  0  0  0  0  0  0
   -0.7211   -2.4977    0.4365 N   0  0  0  0  0  0  0  0  0  0  0  0
   -2.2050    0.5850    1.2362 C   0  0  0  0  0  0  0  0  0  0  0  0
   -2.0850    0.4817   -1.2329 C   0  0  0  0  0  0  0  0  0  0  0  0
   -0.1577   -0.2177    0.1303 C   0  0  0  0  0  0  0  0  0  0  0  0
   -2.6465    2.0421    1.1246 C   0  0  0  0  0  0  0  0  0  0  0  0
   -1.4360   -0.3489   -2.3371 C   0  0  0  0  0  0  0  0  0  0  0  0
    0.9056    0.8130    0.0068 C   0  0  0  0  0  0  0  0  0  0  0  0
    0.2714   -1.4778    0.3141 C   0  0  0  0  0  0  0  0  0  0  0  0
    2.2476    0.4252    0.0934 C   0  0  0  0  0  0  0  0  0  0  0  0
   -3.4060    2.4872    2.3649 C   0  0  0  0  0  0  0  0  0  0  0  0
   -2.0537   -0.0461   -3.6935 C   0  0  0  0  0  0  0  0  0  0  0  0
    0.6569    2.1809   -0.1973 C   0  0  0  0  0  0  0  0  0  0  0  0
    1.6699   -1.9232    0.4043 C   0  0  0  0  0  0  0  0  0  0  0  0
    3.3051    1.3341   -0.0119 C   0  0  0  0  0  0  0  0  0  0  0  0
    1.7063    3.1033   -0.3055 C   0  0  0  0  0  0  0  0  0  0  0  0
    3.0289    2.6805   -0.2124 C   0  0  0  0  0  0  0  0  0  0  0  0
  1 14  1  0
  1 18  1  0
  2 18  2  0
  3  6  1  0
  4  6  2  0
  5  7  1  0
  5  8  1  0
  5  9  1  0
  6 13  1  0
  7 10  1  0
  8 11  1  0
  9 12  1  0
  9 13  2  0
 10 15  1  0
 11 16  1  0
 12 14  2  0
 12 17  1  0
 13 18  1  0
 14 19  1  0
 17 20  2  0
 19 21  2  0
 20 21  1  0
M  CHG  2   3  -1   6   1
M  END
>  <PUBCHEM_COMPOUND_CID>  (1) 
39687

>  <PUBCHEM_CONFORMER_RMSD>  (1) 
0.8

>  <PUBCHEM_CONFORMER_DIVERSEORDER>  (1) 
1
2
4
3

>  <PUBCHEM_MMFF94_PARTIAL_CHARGES>  (1) 
21
1 -0.23
12 0.03
13 0.22
14 0.08
17 -0.15
18 0.71
19 -0.15
2 -0.57
20 -0.15
21 -0.15
3 -0.52
36 0.15
37 0.15
38 0.15
39 0.15
4 -0.52
5 -0.84
6 0.84
7 0.37
8 0.37
9 0.07

>  <PUBCHEM_EFFECTIVE_ROTOR_COUNT>  (1) 
6

>  <PUBCHEM_PHARMACOPHORE_FEATURES>  (1) 
9
1 15 hydrophobe
1 16 hydrophobe
1 2 acceptor
1 3 acceptor
1 3 anion
1 4 acceptor
1 5 cation
6 1 9 12 13 14 18 rings
6 12 14 17 19 20 21 rings

>  <PUBCHEM_HEAVY_ATOM_COUNT>  (1) 
21

>  <PUBCHEM_ATOM_DEF_STEREO_COUNT>  (1) 
0

>  <PUBCHEM_ATOM_UDEF_STEREO_COUNT>  (1) 
0

>  <PUBCHEM_BOND_DEF_STEREO_COUNT>  (1) 
0

>  <PUBCHEM_BOND_UDEF_STEREO_COUNT>  (1) 
0

>  <PUBCHEM_ISOTOPIC_ATOM_COUNT>  (1) 
0

>  <PUBCHEM_COMPONENT_COUNT>  (1) 
1

>  <PUBCHEM_CACTVS_TAUTO_COUNT>  (1) 
1

>  <PUBCHEM_CONFORMER_ID>  (1) 
00009B0700000001

>  <PUBCHEM_MMFF94_ENERGY>  (1) 
87.014

>  <PUBCHEM_FEATURE_SELFOVERLAP>  (1) 
45.811

>  <PUBCHEM_SHAPE_FINGERPRINT>  (1) 
10967382 1 18120942711285571392
11640471 11 17917428670793367633
12173636 292 18124606528711146528
12553582 1 17904762185436001746
13009979 54 17557668483396481015
13140716 1 18408325497485590914
14178342 30 18339641243518026552
14614273 12 17826218881242450406
14787075 74 18054509381659879663
14790565 3 18121525483014989924
14817 1 15528575501704888597
15906896 17 17987251082462057101
16945 1 18335413535425608104
18219364 16 18114169874093008900
19591789 44 18121518859958466160
20510252 161 17691129657291915312
21524375 3 18059590057051212809
22907989 373 17391337890698982548
2306618 200 17755846868542121340
2334 1 18191585466076981282
23419403 2 17388542605375572413
23598291 2 18058161713952093397
238 59 17753852156801323383
2748010 2 17615678545469166194
350125 39 18118973722262683456
5845 1 8876268663113471308
6438718 38 17559414628136388257
6992083 37 17627491758110958349
81228 2 17249779114518324888

>  <PUBCHEM_SHAPE_MULTIPOLES>  (1) 
398.73
4.65
3.98
2.15
0.9
1.42
2.45
-3.29
-0.77
0.69
-1.86
-3.07
-0.32
-1.91

>  <PUBCHEM_SHAPE_SELFOVERLAP>  (1) 
843.639

>  <PUBCHEM_SHAPE_VOLUME>  (1) 
222.2

>  <PUBCHEM_COORDINATE_TYPE>  (1) 
2
5
10

$$$$
