39689
     RDKit          3D

 18 19  0  0  0  0  0  0  0  0999 V2000
    0.1346    1.4480    1.4650 O   0  0  0  0  0  0  0  0  0  0  0  0
    3.7848    0.1599   -0.6320 N   0  0  0  0  0  0  0  0  0  0  0  0
    1.5435    0.9954   -0.3119 N   0  0  0  0  0  0  0  0  0  0  0  0
   -0.4501   -0.0863   -0.1794 N   0  0  0  0  0  0  0  0  0  0  0  0
    3.9382   -1.1695    1.2638 C   0  0  0  0  0  0  0  0  0  0  0  0
    4.5955   -0.9183   -0.0947 C   0  0  0  0  0  0  0  0  0  0  0  0
    2.4647   -0.8092    1.0645 C   0  0  0  0  0  0  0  0  0  0  0  0
    2.5446    0.2289   -0.0341 C   0  0  0  0  0  0  0  0  0  0  0  0
    4.1749    0.8384   -1.8429 C   0  0  0  0  0  0  0  0  0  0  0  0
   -1.8627   -0.1472   -0.1564 C   0  0  0  0  0  0  0  0  0  0  0  0
    0.3851    0.8438    0.4254 C   0  0  0  0  0  0  0  0  0  0  0  0
   -2.4943   -1.3795   -0.2446 C   0  0  0  0  0  0  0  0  0  0  0  0
   -2.5948    1.0264   -0.0468 C   0  0  0  0  0  0  0  0  0  0  0  0
   -3.8878   -1.4395   -0.2231 C   0  0  0  0  0  0  0  0  0  0  0  0
   -3.9883    0.9663   -0.0252 C   0  0  0  0  0  0  0  0  0  0  0  0
   -1.7219   -2.6533   -0.3638 C   0  0  0  0  0  0  0  0  0  0  0  0
   -1.9314    2.3621    0.0493 C   0  0  0  0  0  0  0  0  0  0  0  0
   -4.6346   -0.2667   -0.1133 C   0  0  0  0  0  0  0  0  0  0  0  0
  1 11  2  0
  2  6  1  0
  2  8  1  0
  2  9  1  0
  3  8  2  0
  3 11  1  0
  4 10  1  0
  4 11  1  0
  5  6  1  0
  5  7  1  0
  7  8  1  0
 10 12  2  0
 10 13  1  0
 12 14  1  0
 12 16  1  0
 13 15  2  0
 13 17  1  0
 14 18  2  0
 15 18  1  0
M  END
>  <PUBCHEM_COMPOUND_CID>  (1) 
39689

>  <PUBCHEM_CONFORMER_RMSD>  (1) 
0.6

>  <PUBCHEM_CONFORMER_DIVERSEORDER>  (1) 
1
8
2
12
7
9
5
4
10
3
11
6

>  <PUBCHEM_MMFF94_PARTIAL_CHARGES>  (1) 
21
1 -0.57
10 0.12
11 0.84
12 -0.14
13 -0.14
14 -0.15
15 -0.15
16 0.14
17 0.14
18 -0.15
2 -0.79
28 0.37
29 0.15
3 -0.66
30 0.15
37 0.15
4 -0.55
6 0.37
7 0.06
8 0.44
9 0.37

>  <PUBCHEM_EFFECTIVE_ROTOR_COUNT>  (1) 
3.8

>  <PUBCHEM_PHARMACOPHORE_FEATURES>  (1) 
5
1 1 acceptor
1 3 donor
1 4 donor
5 2 5 6 7 8 rings
6 10 12 13 14 15 18 rings

>  <PUBCHEM_HEAVY_ATOM_COUNT>  (1) 
18

>  <PUBCHEM_ATOM_DEF_STEREO_COUNT>  (1) 
0

>  <PUBCHEM_ATOM_UDEF_STEREO_COUNT>  (1) 
0

>  <PUBCHEM_BOND_DEF_STEREO_COUNT>  (1) 
0

>  <PUBCHEM_BOND_UDEF_STEREO_COUNT>  (1) 
1

>  <PUBCHEM_ISOTOPIC_ATOM_COUNT>  (1) 
0

>  <PUBCHEM_COMPONENT_COUNT>  (1) 
1

>  <PUBCHEM_CACTVS_TAUTO_COUNT>  (1) 
5

>  <PUBCHEM_CONFORMER_ID>  (1) 
00009B0900000001

>  <PUBCHEM_MMFF94_ENERGY>  (1) 
70.4338

>  <PUBCHEM_FEATURE_SELFOVERLAP>  (1) 
25.429

>  <PUBCHEM_SHAPE_FINGERPRINT>  (1) 
10465860 250 18060131029197485873
10616163 171 18410012147732437102
10751810 167 18409733966868327414
10759866 29 18260835907997568150
11543360 7 17458627843062223909
11578080 2 17898257646434611420
12236239 1 18259985951259958194
12346177 29 17703215313105676679
12553582 1 18340764939874608583
12707595 3 17775287192183549808
12788726 201 18341623585304470401
13167823 11 18259704480198562610
13296908 3 17775560957625268976
13675066 3 15841552968083149649
13760787 19 18333736835880170678
13862211 1 18341606062740034503
14115302 16 18410294722151593196
14252887 29 16415479342237721588
14386348 63 17274825753075679654
15242433 33 18334859424261745934
15375358 24 17704067395809301822
16752209 62 18340474587347988907
17804303 29 18271805756971857793
18186145 218 15068623777510753048
18915474 69 18333450962867439854
19422 9 18186518782914385842
200 152 17895194385453241264
20281475 54 18334006211654530866
21267235 1 18409173203148582131
21634736 98 18263364853175898036
2297311 6 18201449072587665949
23175994 123 16917352545622503185
23402539 116 18272922813799631061
23559900 14 18201717362684853160
23598291 2 18040719113102489396
3004659 81 18334575712018725558
3082319 5 18040155127998600676
4214541 1 18409728426466270444
474 4 16951701361957507748
4921388 177 16081378496147591587
5104073 3 18412824720156191257
5281201 14 16153421714972281406
559249 180 18190171283364620650
573450 72 18336820901239172608
58051976 100 18260829297778824119
633830 44 16225765185906352844
67856867 119 18260826059985919268
81228 2 17202220524753494912
8809292 202 18342457075437478139

>  <PUBCHEM_SHAPE_MULTIPOLES>  (1) 
349.62
9.73
2.08
1.1
3.83
0.35
0.06
1.71
1.44
-1.45
0.02
1.38
-0.14
-1.16

>  <PUBCHEM_SHAPE_SELFOVERLAP>  (1) 
735.742

>  <PUBCHEM_SHAPE_VOLUME>  (1) 
198

>  <PUBCHEM_COORDINATE_TYPE>  (1) 
2
5
10

$$$$
