39696
     RDKit          3D

 26 28  0  0  0  0  0  0  0  0999 V2000
   -1.9524   -1.2902    0.6218 S   0  0  0  0  0  0  0  0  0  0  0  0
    2.4967    1.1758    0.1579 O   0  0  0  0  0  0  0  0  0  0  0  0
    0.9569   -1.2202    0.4463 O   0  0  0  0  0  0  0  0  0  0  0  0
    1.0441   -1.5242   -1.8469 O   0  0  0  0  0  0  0  0  0  0  0  0
   -1.0373   -1.3691   -0.8265 N   0  0  0  0  0  0  0  0  0  0  0  0
    3.6233    2.0512   -0.1378 C   0  0  0  0  0  0  0  0  0  0  0  0
    4.9336    1.3211    0.2390 C   0  0  0  0  0  0  0  0  0  0  0  0
    4.4302   -0.0653    0.3637 C   0  0  0  0  0  0  0  0  0  0  0  0
    3.0462   -0.0670    0.3319 C   0  0  0  0  0  0  0  0  0  0  0  0
    3.5729    2.3850   -1.6342 C   0  0  0  0  0  0  0  0  0  0  0  0
    3.4447    3.3270    0.6865 C   0  0  0  0  0  0  0  0  0  0  0  0
    5.1370   -1.2412    0.5411 C   0  0  0  0  0  0  0  0  0  0  0  0
    2.3130   -1.2295    0.4747 C   0  0  0  0  0  0  0  0  0  0  0  0
    4.4173   -2.4307    0.6790 C   0  0  0  0  0  0  0  0  0  0  0  0
    3.0134   -2.4247    0.6467 C   0  0  0  0  0  0  0  0  0  0  0  0
   -5.0699   -0.9623    0.4869 C   0  0  0  0  0  0  0  0  0  0  0  0
   -4.2403    0.2672    0.2972 C   0  0  0  0  0  0  0  0  0  0  0  0
   -2.8465    0.2323    0.3384 C   0  0  0  0  0  0  0  0  0  0  0  0
   -5.9129   -1.2967   -0.7564 C   0  0  0  0  0  0  0  0  0  0  0  0
   -5.9758   -0.8711    1.7276 C   0  0  0  0  0  0  0  0  0  0  0  0
    0.3630   -1.3831   -0.8311 C   0  0  0  0  0  0  0  0  0  0  0  0
   -4.9014    1.4748    0.0733 C   0  0  0  0  0  0  0  0  0  0  0  0
   -2.1139    1.4053    0.1560 C   0  0  0  0  0  0  0  0  0  0  0  0
   -4.1688    2.6477   -0.1091 C   0  0  0  0  0  0  0  0  0  0  0  0
   -2.7750    2.6130   -0.0678 C   0  0  0  0  0  0  0  0  0  0  0  0
   -1.7981   -1.5249   -2.0582 C   0  0  0  0  0  0  0  0  0  0  0  0
  1  5  1  0
  1 18  1  0
  2  6  1  0
  2  9  1  0
  3 13  1  0
  3 21  1  0
  4 21  2  0
  5 21  1  0
  5 26  1  0
  6  7  1  0
  6 10  1  0
  6 11  1  0
  7  8  1  0
  8  9  2  0
  8 12  1  0
  9 13  1  0
 12 14  2  0
 13 15  2  0
 14 15  1  0
 16 17  1  0
 16 19  1  0
 16 20  1  0
 17 18  2  0
 17 22  1  0
 18 23  1  0
 22 24  2  0
 23 25  2  0
 24 25  1  0
M  END
>  <PUBCHEM_COMPOUND_CID>  (1) 
39696

>  <PUBCHEM_CONFORMER_RMSD>  (1) 
1

>  <PUBCHEM_CONFORMER_DIVERSEORDER>  (1) 
1
191
134
113
112
56
97
199
211
201
51
235
80
233
30
38
271
7
18
160
49
66
214
162
124
268
100
22
83
182
135
98
173
263
213
63
204
197
95
267
123
194
205
255
33
67
4
166
218
104
76
12
195
57
228
259
8
43
129
125
153
130
238
219
242
261
52
232
34
35
250
243
23
266
236
89
131
54
150
21
29
249
180
156
85
181
73
193
240
230
269
143
75
198
207
37
276
158
175
245
84
200
27
226
188
92
32
178
187
157
234
246
225
159
241
41
17
251
42
169
14
216
70
60
152
202
265
172
149
59
165
227
138
254
58
53
69
74
13
139
163
237
273
120
28
190
72
87
107
155
137
167
132
68
133
101
16
40
142
272
221
94
48
146
111
161
192
247
78
136
253
275
151
11
217
3
196
31
141
9
116
262
140
222
77
174
93
154
115
208
61
185
256
109
210
24
2
5
179
36
176
122
15
71
118
26
20
274
231
184
148
91
186
82
215
183
106
248
19
119
223
252
260
126
257
81
90
270
144
128
212
168
147
244
44
177
171
117
45
224
10
121
79
258
110
127
65
114
46
239
220
25
209
47
62
39
105
108
189
203
229
86
6
164
103
206
264
64
170
50
88
102
96
99
145
55

>  <PUBCHEM_MMFF94_PARTIAL_CHARGES>  (1) 
29
1 -0.09
12 -0.15
13 0.08
14 -0.15
15 -0.15
16 0.14
17 -0.14
18 0.1
2 -0.36
21 0.78
22 -0.15
23 -0.15
24 -0.15
25 -0.15
26 0.3
3 -0.23
35 0.15
36 0.15
37 0.15
4 -0.57
45 0.15
46 0.15
47 0.15
48 0.15
5 -0.37
6 0.28
7 0.14
8 -0.14
9 0.08

>  <PUBCHEM_EFFECTIVE_ROTOR_COUNT>  (1) 
6.6

>  <PUBCHEM_PHARMACOPHORE_FEATURES>  (1) 
7
1 2 acceptor
1 4 acceptor
3 16 19 20 hydrophobe
3 6 10 11 hydrophobe
5 2 6 7 8 9 rings
6 17 18 22 23 24 25 rings
6 8 9 12 13 14 15 rings

>  <PUBCHEM_HEAVY_ATOM_COUNT>  (1) 
26

>  <PUBCHEM_ATOM_DEF_STEREO_COUNT>  (1) 
0

>  <PUBCHEM_ATOM_UDEF_STEREO_COUNT>  (1) 
0

>  <PUBCHEM_BOND_DEF_STEREO_COUNT>  (1) 
0

>  <PUBCHEM_BOND_UDEF_STEREO_COUNT>  (1) 
0

>  <PUBCHEM_ISOTOPIC_ATOM_COUNT>  (1) 
0

>  <PUBCHEM_COMPONENT_COUNT>  (1) 
1

>  <PUBCHEM_CACTVS_TAUTO_COUNT>  (1) 
1

>  <PUBCHEM_CONFORMER_ID>  (1) 
00009B1000000001

>  <PUBCHEM_MMFF94_ENERGY>  (1) 
84.4569

>  <PUBCHEM_FEATURE_SELFOVERLAP>  (1) 
35.622

>  <PUBCHEM_SHAPE_FINGERPRINT>  (1) 
10366900 7 17240770532057358954
11045977 3 18113903727917770763
12107183 9 17759516673315014723
12107698 1 18409165480760259555
12166972 35 18059857234165632698
12403259 118 18340758248325851355
12596602 18 17458063793982121779
12616971 3 18273493477145148023
12633257 1 18192999205559281049
12788726 201 17346328080540805080
12925494 130 18267299838247777561
13533116 47 18335421291688093323
13583140 156 18043520630181118615
13782708 43 16516238523383378658
14251764 38 18340208471222321113
14341114 176 18334861606005048514
14787075 74 18340768230320665483
14840074 17 18200036273988684021
14849402 71 18261956349465291904
14955137 171 18269273453076471798
15196674 1 18409729530304572673
15238133 3 18189061889375591326
17844677 252 18409735019409927043
18222031 100 15213022652128955911
18681886 176 18343294843637988554
20715895 44 17908420256421922081
21033648 29 17168129114403625509
21315764 371 16298388006562685689
21503847 285 18334293146183404418
21792934 111 18041572356566136833
23227448 37 18342173392852774295
23559900 14 18266736879344926355
350125 39 18409449180820179516
351380 180 18336544928305491699
38570 142 18189917472826197524
392239 28 18260277356291014643
4144715 1 18263654956784247635
4325135 7 18272086106925788199
474 4 18041560351293397204
5104073 3 18336266752006278217
57527293 21 18272944825718519479
5776283 40 17976554024595162628
6086070 43 17533190025798716111
7288768 16 17606677191696934272

>  <PUBCHEM_SHAPE_MULTIPOLES>  (1) 
516.33
14.23
3.41
1.3
7.46
2
0.54
0.56
-3.17
-2.21
0.06
0.47
-0.43
-0.7

>  <PUBCHEM_SHAPE_SELFOVERLAP>  (1) 
1087.044

>  <PUBCHEM_SHAPE_VOLUME>  (1) 
295.6

>  <PUBCHEM_COORDINATE_TYPE>  (1) 
2
5
10

$$$$
