3969
     RDKit          3D

 23 24  0  0  0  0  0  0  0  0999 V2000
    0.3594   -0.1747   -1.4643 O   0  0  0  0  0  0  0  0  0  0  0  0
    4.4218    1.5417    0.3967 O   0  0  0  0  0  0  0  0  0  0  0  0
    6.1672   -0.1453    1.1322 O   0  0  0  0  0  0  0  0  0  0  0  0
   -5.9712    0.2924    1.3677 N   0  0  0  0  0  0  0  0  0  0  0  0
   -6.4956   -0.9100   -0.4781 N   0  0  0  0  0  0  0  0  0  0  0  0
   -7.0980   -0.4242    1.4845 N   0  0  0  0  0  0  0  0  0  0  0  0
   -7.4476   -1.1519    0.4147 N   0  0  0  0  0  0  0  0  0  0  0  0
   -1.9780    0.1205   -1.0361 C   0  0  0  0  0  0  0  0  0  0  0  0
    2.3863    0.7070   -0.5346 C   0  0  0  0  0  0  0  0  0  0  0  0
    1.8866    2.1038   -0.7219 C   0  0  0  0  0  0  0  0  0  0  0  0
   -3.2063   -0.4175   -0.3053 C   0  0  0  0  0  0  0  0  0  0  0  0
   -0.7471   -0.7350   -0.7711 C   0  0  0  0  0  0  0  0  0  0  0  0
    1.5993   -0.3746   -0.9149 C   0  0  0  0  0  0  0  0  0  0  0  0
    1.1134    2.6097    0.5023 C   0  0  0  0  0  0  0  0  0  0  0  0
   -4.4301    0.4725   -0.5423 C   0  0  0  0  0  0  0  0  0  0  0  0
    3.6455    0.4838    0.0221 C   0  0  0  0  0  0  0  0  0  0  0  0
    4.1103   -0.8199    0.1952 C   0  0  0  0  0  0  0  0  0  0  0  0
    2.0564   -1.6771   -0.7449 C   0  0  0  0  0  0  0  0  0  0  0  0
    3.3158   -1.9003   -0.1882 C   0  0  0  0  0  0  0  0  0  0  0  0
    0.6371    4.0417    0.3179 C   0  0  0  0  0  0  0  0  0  0  0  0
   -5.6579   -0.0566    0.1370 C   0  0  0  0  0  0  0  0  0  0  0  0
    5.4214   -1.0774    0.7749 C   0  0  0  0  0  0  0  0  0  0  0  0
    5.9114   -2.5088    0.9566 C   0  0  0  0  0  0  0  0  0  0  0  0
  1 12  1  0
  1 13  1  0
  2 16  1  0
  3 22  2  0
  4  6  1  0
  4 21  2  0
  5  7  2  0
  5 21  1  0
  6  7  1  0
  8 11  1  0
  8 12  1  0
  9 10  1  0
  9 13  2  0
  9 16  1  0
 10 14  1  0
 11 15  1  0
 13 18  1  0
 14 20  1  0
 15 21  1  0
 16 17  2  0
 17 19  1  0
 17 22  1  0
 18 19  2  0
 22 23  1  0
M  END
>  <PUBCHEM_COMPOUND_CID>  (1) 
3969

>  <PUBCHEM_CONFORMER_RMSD>  (1) 
1

>  <PUBCHEM_CONFORMER_DIVERSEORDER>  (1) 
1
103
47
76
17
32
10
25
19
62
98
38
55
14
104
94
15
58
60
93
43
84
27
68
102
77
54
12
106
30
20
100
81
101
91
85
71
73
40
97
21
31
95
7
26
52
18
50
105
83
42
65
49
11
88
79
66
24
8
36
44
92
2
37
70
51
82
63
16
99
4
89
96
22
35
46
87
59
78
29
90
6
9
5
53
80
75
72
28
74
48
39
41
45
3
33
86
56
61
23
67
13
69
34
57
64

>  <PUBCHEM_MMFF94_PARTIAL_CHARGES>  (1) 
23
1 -0.36
10 0.14
12 0.28
13 0.08
15 0.18
16 0.08
17 0.09
18 -0.15
19 -0.15
2 -0.53
21 0.34
22 0.42
23 0.06
3 -0.57
36 0.15
37 0.15
4 -0.71
41 0.45
45 0.27
5 -0.23
6 0.57
7 -0.42
9 -0.14

>  <PUBCHEM_EFFECTIVE_ROTOR_COUNT>  (1) 
9

>  <PUBCHEM_PHARMACOPHORE_FEATURES>  (1) 
7
1 1 acceptor
1 2 donor
1 20 hydrophobe
1 3 acceptor
3 4 5 21 cation
5 4 5 6 7 21 rings
6 9 13 16 17 18 19 rings

>  <PUBCHEM_HEAVY_ATOM_COUNT>  (1) 
23

>  <PUBCHEM_ATOM_DEF_STEREO_COUNT>  (1) 
0

>  <PUBCHEM_ATOM_UDEF_STEREO_COUNT>  (1) 
0

>  <PUBCHEM_BOND_DEF_STEREO_COUNT>  (1) 
0

>  <PUBCHEM_BOND_UDEF_STEREO_COUNT>  (1) 
0

>  <PUBCHEM_ISOTOPIC_ATOM_COUNT>  (1) 
0

>  <PUBCHEM_COMPONENT_COUNT>  (1) 
1

>  <PUBCHEM_CACTVS_TAUTO_COUNT>  (1) 
18

>  <PUBCHEM_CONFORMER_ID>  (1) 
00000F8100000001

>  <PUBCHEM_MMFF94_ENERGY>  (1) 
50.5514

>  <PUBCHEM_FEATURE_SELFOVERLAP>  (1) 
35.52

>  <PUBCHEM_SHAPE_FINGERPRINT>  (1) 
10162869 55 18059849602699681775
10354089 29 18273498982965985679
10688039 33 18260265226665619149
10693767 8 12108049064836887064
11545043 162 17603579717260013317
11578080 2 14491917843221683900
11646440 116 18411417293632783626
11724838 91 17917708041721127183
12166972 35 18113623373758907789
12616971 3 18130787893510124165
13140716 1 18267000921919969690
13150687 139 8934998214103364168
13668630 136 15068345631650778659
13685833 64 17748827405863627191
13782708 43 17821726131034941163
13899415 154 18412267238039164940
14251764 18 18412825806455868774
14341114 176 18334576853957546645
14528608 73 8286197236969405839
14849402 71 18269273628484828904
15348495 7 18261402204252440763
15475509 35 17023447682804209242
17980427 23 16988264482413747925
1979834 28 17846785083068238382
21267235 1 18410856521797714342
21521239 73 12107781879258119576
23559900 14 16443639007851947573
29717793 49 12540693704136362790
3472631 163 14476952411191797443
465052 167 18260825961111883814
5104073 3 18267868285605427865
58260988 587 16734409285660029332
59755656 215 16225762995731716347
7495541 125 18336550503573955501
8509985 295 18341333370063894437
960060 61 11025795423077683623

>  <PUBCHEM_SHAPE_MULTIPOLES>  (1) 
435.8
18.04
2.83
1.16
30.16
3.19
-0.09
-10.38
-8.52
-3.34
-0.49
0.44
-0.14
-0.39

>  <PUBCHEM_SHAPE_SELFOVERLAP>  (1) 
903.089

>  <PUBCHEM_SHAPE_VOLUME>  (1) 
250.8

>  <PUBCHEM_COORDINATE_TYPE>  (1) 
2
5
10

$$$$
