39690
     RDKit          3D

 23 25  0  0  0  0  0  0  0  0999 V2000
    2.6045    1.8523   -1.0456 S   0  0  0  0  0  0  0  0  0  0  0  0
   -1.2036   -1.1157    0.2240 O   0  0  0  0  0  0  0  0  0  0  0  0
   -0.2523    1.4459   -0.6295 O   0  0  0  0  0  0  0  0  0  0  0  0
   -0.2549    2.1581    1.5730 O   0  0  0  0  0  0  0  0  0  0  0  0
    1.7383    2.2409    0.3827 N   0  0  0  0  0  0  0  0  0  0  0  0
   -2.0940   -2.2551    0.4015 C   0  0  0  0  0  0  0  0  0  0  0  0
   -3.5468   -1.7380    0.5217 C   0  0  0  0  0  0  0  0  0  0  0  0
   -3.3724   -0.3579    0.0156 C   0  0  0  0  0  0  0  0  0  0  0  0
   -2.0238   -0.0694   -0.1064 C   0  0  0  0  0  0  0  0  0  0  0  0
   -1.9207   -3.1748   -0.8138 C   0  0  0  0  0  0  0  0  0  0  0  0
   -1.6603   -2.9856    1.6733 C   0  0  0  0  0  0  0  0  0  0  0  0
   -4.3309    0.5968   -0.2728 C   0  0  0  0  0  0  0  0  0  0  0  0
   -1.5760    1.1716   -0.5170 C   0  0  0  0  0  0  0  0  0  0  0  0
   -3.9020    1.8566   -0.6984 C   0  0  0  0  0  0  0  0  0  0  0  0
   -2.5324    2.1424   -0.8190 C   0  0  0  0  0  0  0  0  0  0  0  0
    0.3728    1.9684    0.5312 C   0  0  0  0  0  0  0  0  0  0  0  0
    2.5246    2.7812    1.4826 C   0  0  0  0  0  0  0  0  0  0  0  0
    3.1484    0.1990   -0.6356 C   0  0  0  0  0  0  0  0  0  0  0  0
    2.3510   -0.8934   -0.9651 C   0  0  0  0  0  0  0  0  0  0  0  0
    4.3670    0.0123    0.0107 C   0  0  0  0  0  0  0  0  0  0  0  0
    2.7757   -2.1832   -0.6455 C   0  0  0  0  0  0  0  0  0  0  0  0
    4.7918   -1.2773    0.3303 C   0  0  0  0  0  0  0  0  0  0  0  0
    3.9960   -2.3750    0.0022 C   0  0  0  0  0  0  0  0  0  0  0  0
  1  5  1  0
  1 18  1  0
  2  6  1  0
  2  9  1  0
  3 13  1  0
  3 16  1  0
  4 16  2  0
  5 16  1  0
  5 17  1  0
  6  7  1  0
  6 10  1  0
  6 11  1  0
  7  8  1  0
  8  9  2  0
  8 12  1  0
  9 13  1  0
 12 14  2  0
 13 15  2  0
 14 15  1  0
 18 19  2  0
 18 20  1  0
 19 21  1  0
 20 22  2  0
 21 23  2  0
 22 23  1  0
M  END
>  <PUBCHEM_COMPOUND_CID>  (1) 
39690

>  <PUBCHEM_CONFORMER_RMSD>  (1) 
0.8

>  <PUBCHEM_CONFORMER_DIVERSEORDER>  (1) 
1
139
159
231
111
206
73
41
193
176
226
67
244
145
254
99
8
258
127
182
261
262
30
256
246
63
87
29
47
19
264
52
138
170
18
109
103
44
166
243
202
252
43
147
151
60
49
121
97
212
191
199
259
219
204
100
188
106
236
194
118
50
249
200
165
94
101
114
130
247
237
179
173
110
245
230
128
122
263
143
215
102
59
98
53
142
123
117
23
208
66
90
62
10
211
84
175
161
192
104
126
70
239
255
221
20
32
112
250
198
150
156
36
75
105
218
134
222
21
77
171
55
33
27
214
223
207
74
79
184
209
91
88
224
253
5
229
120
48
205
240
3
89
28
167
162
238
68
42
181
195
154
39
216
6
22
178
116
257
17
144
227
233
213
149
225
131
189
35
34
155
40
65
54
93
51
197
11
119
71
183
37
242
24
141
187
15
196
7
235
190
61
157
92
113
135
58
72
136
168
85
248
152
160
108
241
124
107
14
217
174
69
260
83
228
125
185
4
164
133
186
31
172
45
148
158
180
64
153
146
177
2
57
96
203
232
81
16
12
56
210
251
38
80
201
115
132
163
76
169
140
46
26
13
78
95
25
234
137
82
86
220
129
9

>  <PUBCHEM_MMFF94_PARTIAL_CHARGES>  (1) 
29
1 -0.09
12 -0.15
13 0.08
14 -0.15
15 -0.15
16 0.78
17 0.3
18 0.1
19 -0.15
2 -0.36
20 -0.15
21 -0.15
22 -0.15
23 -0.15
3 -0.23
32 0.15
33 0.15
34 0.15
38 0.15
39 0.15
4 -0.57
40 0.15
41 0.15
42 0.15
5 -0.37
6 0.28
7 0.14
8 -0.14
9 0.08

>  <PUBCHEM_EFFECTIVE_ROTOR_COUNT>  (1) 
5.6

>  <PUBCHEM_PHARMACOPHORE_FEATURES>  (1) 
6
1 2 acceptor
1 4 acceptor
3 6 10 11 hydrophobe
5 2 6 7 8 9 rings
6 18 19 20 21 22 23 rings
6 8 9 12 13 14 15 rings

>  <PUBCHEM_HEAVY_ATOM_COUNT>  (1) 
23

>  <PUBCHEM_ATOM_DEF_STEREO_COUNT>  (1) 
0

>  <PUBCHEM_ATOM_UDEF_STEREO_COUNT>  (1) 
0

>  <PUBCHEM_BOND_DEF_STEREO_COUNT>  (1) 
0

>  <PUBCHEM_BOND_UDEF_STEREO_COUNT>  (1) 
0

>  <PUBCHEM_ISOTOPIC_ATOM_COUNT>  (1) 
0

>  <PUBCHEM_COMPONENT_COUNT>  (1) 
1

>  <PUBCHEM_CACTVS_TAUTO_COUNT>  (1) 
1

>  <PUBCHEM_CONFORMER_ID>  (1) 
00009B0A00000001

>  <PUBCHEM_MMFF94_ENERGY>  (1) 
71.5667

>  <PUBCHEM_FEATURE_SELFOVERLAP>  (1) 
30.546

>  <PUBCHEM_SHAPE_FINGERPRINT>  (1) 
10616163 171 18191876823325040878
10693767 8 18126544934179801415
10759866 29 18188786040837544444
10764073 3 17611230050388281577
107951 10 16951133846574890633
10906281 52 18058464118341717900
1100329 8 16609979336554126869
11112241 14 17201326763702592184
11370993 70 18189332372840031678
11578080 2 17416671647746247547
12422481 6 18119842199447543123
12506688 2 18341338876496752384
12553582 1 18128276531226354800
12596599 1 17272316779110414046
12633257 1 18271821119721742019
12788726 201 17844822394725749168
13122387 1 17834116342774212762
13140716 1 18339930419044148315
13402501 40 18411419488298066886
14115302 16 18261962855744510412
14251757 17 18410851036396405841
14617045 38 18265630946492863015
14790565 3 17978797800739753089
14866123 147 17262443903358424776
14931854 50 18191307083060428182
19049666 15 18341893043221266321
19591789 44 18335140865332190899
19930381 70 18053101714207529743
20600515 1 18194128421491950668
20715895 44 17974002852047465749
20832881 197 18199745839272739937
20905425 154 18195816394973008070
21521239 73 18199727255655496143
23559900 14 18409726300769111172
3004659 81 18187929413931671894
3298306 158 18046334241839530821
340366 18 17822297842394736013
350125 39 18409172074363434977
3680242 22 18046346336109052098
5309563 4 17398123028241205939
6433294 58 18338801216528897102
7399639 24 17764303242578342001
9709674 26 18336827605688331261

>  <PUBCHEM_SHAPE_MULTIPOLES>  (1) 
454.59
8.79
4
1.2
3.49
1.04
-0.33
1.91
0.68
-0.28
-0.75
0.14
-0.18
1.29

>  <PUBCHEM_SHAPE_SELFOVERLAP>  (1) 
963.537

>  <PUBCHEM_SHAPE_VOLUME>  (1) 
258

>  <PUBCHEM_COORDINATE_TYPE>  (1) 
2
5
10

$$$$
