39691
     RDKit          3D

 24 26  0  0  0  0  0  0  0  0999 V2000
   -2.0974    2.3488    1.0465 S   0  0  0  0  0  0  0  0  0  0  0  0
    1.2352   -1.1512   -0.2048 O   0  0  0  0  0  0  0  0  0  0  0  0
    0.6680    1.5315    0.6174 O   0  0  0  0  0  0  0  0  0  0  0  0
    0.7535    2.2063   -1.5953 O   0  0  0  0  0  0  0  0  0  0  0  0
   -1.1969    2.5899   -0.3930 N   0  0  0  0  0  0  0  0  0  0  0  0
    1.9518   -2.4088   -0.3716 C   0  0  0  0  0  0  0  0  0  0  0  0
    3.4625   -2.1069   -0.5090 C   0  0  0  0  0  0  0  0  0  0  0  0
    3.4919   -0.7093   -0.0220 C   0  0  0  0  0  0  0  0  0  0  0  0
    2.1997   -0.2289    0.1048 C   0  0  0  0  0  0  0  0  0  0  0  0
    1.6590   -3.2777    0.8582 C   0  0  0  0  0  0  0  0  0  0  0  0
    1.4069   -3.0867   -1.6297 C   0  0  0  0  0  0  0  0  0  0  0  0
    4.5797    0.1020    0.2461 C   0  0  0  0  0  0  0  0  0  0  0  0
    1.9378    1.0688    0.5002 C   0  0  0  0  0  0  0  0  0  0  0  0
    4.3394    1.4159    0.6561 C   0  0  0  0  0  0  0  0  0  0  0  0
    3.0260    1.8967    0.7816 C   0  0  0  0  0  0  0  0  0  0  0  0
    0.1142    2.1226   -0.5466 C   0  0  0  0  0  0  0  0  0  0  0  0
   -2.8760    0.7850    0.6644 C   0  0  0  0  0  0  0  0  0  0  0  0
   -1.9073    3.2224   -1.4954 C   0  0  0  0  0  0  0  0  0  0  0  0
   -4.0880   -1.6493    0.0698 C   0  0  0  0  0  0  0  0  0  0  0  0
   -2.2400   -0.4053    1.0047 C   0  0  0  0  0  0  0  0  0  0  0  0
   -4.1140    0.7662    0.0287 C   0  0  0  0  0  0  0  0  0  0  0  0
   -2.8474   -1.6252    0.7067 C   0  0  0  0  0  0  0  0  0  0  0  0
   -4.7214   -0.4536   -0.2692 C   0  0  0  0  0  0  0  0  0  0  0  0
   -4.7374   -2.9535   -0.2486 C   0  0  0  0  0  0  0  0  0  0  0  0
  1  5  1  0
  1 17  1  0
  2  6  1  0
  2  9  1  0
  3 13  1  0
  3 16  1  0
  4 16  2  0
  5 16  1  0
  5 18  1  0
  6  7  1  0
  6 10  1  0
  6 11  1  0
  7  8  1  0
  8  9  2  0
  8 12  1  0
  9 13  1  0
 12 14  2  0
 13 15  2  0
 14 15  1  0
 17 20  2  0
 17 21  1  0
 19 22  2  0
 19 23  1  0
 19 24  1  0
 20 22  1  0
 21 23  2  0
M  END
>  <PUBCHEM_COMPOUND_CID>  (1) 
39691

>  <PUBCHEM_CONFORMER_RMSD>  (1) 
0.8

>  <PUBCHEM_CONFORMER_DIVERSEORDER>  (1) 
1
272
20
273
194
8
32
73
242
219
276
152
117
206
22
88
226
63
140
144
81
60
275
196
115
40
108
277
270
278
43
85
259
173
61
106
267
256
202
76
197
264
77
207
191
233
229
199
246
224
30
66
26
50
268
178
175
260
185
249
190
162
269
70
102
192
255
121
109
49
54
95
125
239
217
134
59
131
236
92
238
136
84
251
203
174
263
222
227
137
198
218
34
168
120
164
56
201
41
82
205
211
179
25
232
15
116
107
65
91
79
220
195
148
127
248
64
271
209
93
243
122
74
87
48
72
146
225
261
53
31
244
213
138
163
23
47
172
139
258
253
33
97
68
135
58
221
245
12
55
21
186
7
159
247
156
118
208
35
14
212
182
89
130
181
161
142
57
126
71
165
19
45
2
141
187
100
193
204
143
158
105
252
67
86
62
83
279
75
80
114
262
171
166
223
188
6
128
147
241
155
214
69
170
133
78
254
4
215
266
101
123
154
132
234
119
257
44
28
176
112
10
157
124
39
149
200
111
90
237
18
210
169
5
151
104
177
113
265
29
180
42
51
98
230
183
37
153
94
274
250
3
240
46
231
17
167
110
96
13
36
150
103
16
27
24
160
52
129
235
189
184
228
216
38
99
145
9
11

>  <PUBCHEM_MMFF94_PARTIAL_CHARGES>  (1) 
29
1 -0.09
12 -0.15
13 0.08
14 -0.15
15 -0.15
16 0.78
17 0.1
18 0.3
19 -0.14
2 -0.36
20 -0.15
21 -0.15
22 -0.15
23 -0.15
24 0.14
3 -0.23
33 0.15
34 0.15
35 0.15
39 0.15
4 -0.57
40 0.15
41 0.15
42 0.15
5 -0.37
6 0.28
7 0.14
8 -0.14
9 0.08

>  <PUBCHEM_EFFECTIVE_ROTOR_COUNT>  (1) 
5.6

>  <PUBCHEM_PHARMACOPHORE_FEATURES>  (1) 
6
1 2 acceptor
1 4 acceptor
3 6 10 11 hydrophobe
5 2 6 7 8 9 rings
6 17 19 20 21 22 23 rings
6 8 9 12 13 14 15 rings

>  <PUBCHEM_HEAVY_ATOM_COUNT>  (1) 
24

>  <PUBCHEM_ATOM_DEF_STEREO_COUNT>  (1) 
0

>  <PUBCHEM_ATOM_UDEF_STEREO_COUNT>  (1) 
0

>  <PUBCHEM_BOND_DEF_STEREO_COUNT>  (1) 
0

>  <PUBCHEM_BOND_UDEF_STEREO_COUNT>  (1) 
0

>  <PUBCHEM_ISOTOPIC_ATOM_COUNT>  (1) 
0

>  <PUBCHEM_COMPONENT_COUNT>  (1) 
1

>  <PUBCHEM_CACTVS_TAUTO_COUNT>  (1) 
1

>  <PUBCHEM_CONFORMER_ID>  (1) 
00009B0B00000001

>  <PUBCHEM_MMFF94_ENERGY>  (1) 
74.0943

>  <PUBCHEM_FEATURE_SELFOVERLAP>  (1) 
30.547

>  <PUBCHEM_SHAPE_FINGERPRINT>  (1) 
10616163 171 18342178855956170667
11488393 25 17416144793262919710
11552529 35 18202000989065821273
12553582 1 18189076285699967293
12596599 1 17916323652933095899
12633257 1 17837777729057271059
13122387 1 17905892474746653727
13402501 40 18410011052430848147
13583140 156 17417799613406343553
14081887 123 18337387128363689800
14223421 5 18339923706031116716
14251757 17 17896577532879803229
14790565 3 18122069964297971132
14863182 85 18267877257333121238
15196674 1 18413108381055074499
15352361 1 18410855507889818819
15635459 17 18268716004358835134
16114785 44 14321558759082385329
17093844 170 18335136483980304472
17357779 13 18335409167285716885
1813 80 17603596213891942797
19141452 34 18339085878661901161
19591789 44 18341896286295620838
20600515 1 17240768431718208743
20775438 99 17761166040020662887
21197605 99 17909270522180639331
21285901 2 18260257535022296029
21673915 165 18341894108140579432
22113638 7 17979069715044675831
221490 88 18269276764422267438
22393880 68 18341337695296441006
23559900 14 18341607096872539840
2871803 45 18409446968637546738
350125 39 18411980282963889144
35225 105 15338536298544143133
46194498 28 17677885932898845325
463206 1 17982449597094321807
474229 33 18340766039824060472
5309563 4 18268712899725448579
6433294 58 18121778326890080618
6442390 28 18271523204243270384
9709674 26 18269277867748652179

>  <PUBCHEM_SHAPE_MULTIPOLES>  (1) 
475.17
9.34
4.33
1.18
3.47
0.97
-0.3
3.21
0.85
0.65
-1.07
0.05
-0.27
0.85

>  <PUBCHEM_SHAPE_SELFOVERLAP>  (1) 
1005.668

>  <PUBCHEM_SHAPE_VOLUME>  (1) 
270.3

>  <PUBCHEM_COORDINATE_TYPE>  (1) 
2
5
10

$$$$
