39700
     RDKit          3D

 28 30  0  0  0  0  0  0  0  0999 V2000
    3.0265   -1.1512    2.1060 Cl  0  0  0  0  0  0  0  0  0  0  0  0
    1.4672   -0.9713   -3.1230 Cl  0  0  0  0  0  0  0  0  0  0  0  0
    1.6832    2.1495   -3.0665 Cl  0  0  0  0  0  0  0  0  0  0  0  0
    3.2370    1.9695    2.1374 Cl  0  0  0  0  0  0  0  0  0  0  0  0
    2.5667    3.6215   -0.4423 Cl  0  0  0  0  0  0  0  0  0  0  0  0
    2.1331   -2.7082   -0.5309 S   0  0  0  0  0  0  0  0  0  0  0  0
   -1.2038    0.9679    0.6703 O   0  0  0  0  0  0  0  0  0  0  0  0
   -0.5448   -1.5558   -0.5094 O   0  0  0  0  0  0  0  0  0  0  0  0
   -1.2219   -2.6147    1.4344 O   0  0  0  0  0  0  0  0  0  0  0  0
    0.9563   -2.9396    0.6952 N   0  0  0  0  0  0  0  0  0  0  0  0
   -2.0018    2.0448    1.2413 C   0  0  0  0  0  0  0  0  0  0  0  0
   -3.3684    2.0894    0.5181 C   0  0  0  0  0  0  0  0  0  0  0  0
   -3.3510    0.7679   -0.1486 C   0  0  0  0  0  0  0  0  0  0  0  0
   -2.0910    0.2042   -0.0410 C   0  0  0  0  0  0  0  0  0  0  0  0
   -2.1649    1.7590    2.7396 C   0  0  0  0  0  0  0  0  0  0  0  0
   -1.2277    3.3486    1.0412 C   0  0  0  0  0  0  0  0  0  0  0  0
   -4.3589    0.1245   -0.8439 C   0  0  0  0  0  0  0  0  0  0  0  0
   -1.7836   -1.0136   -0.6169 C   0  0  0  0  0  0  0  0  0  0  0  0
   -4.0740   -1.1126   -1.4274 C   0  0  0  0  0  0  0  0  0  0  0  0
   -2.7934   -1.6779   -1.3151 C   0  0  0  0  0  0  0  0  0  0  0  0
   -0.3316   -2.3959    0.6129 C   0  0  0  0  0  0  0  0  0  0  0  0
    2.2563   -0.9244   -0.5067 C   0  0  0  0  0  0  0  0  0  0  0  0
    1.3346   -3.8234    1.7887 C   0  0  0  0  0  0  0  0  0  0  0  0
    2.6517   -0.2457    0.6600 C   0  0  0  0  0  0  0  0  0  0  0  0
    1.9585   -0.1658   -1.6531 C   0  0  0  0  0  0  0  0  0  0  0  0
    2.0530    1.2258   -1.6332 C   0  0  0  0  0  0  0  0  0  0  0  0
    2.7461    1.1458    0.6797 C   0  0  0  0  0  0  0  0  0  0  0  0
    2.4467    1.8816   -0.4670 C   0  0  0  0  0  0  0  0  0  0  0  0
  1 24  1  0
  2 25  1  0
  3 26  1  0
  4 27  1  0
  5 28  1  0
  6 10  1  0
  6 22  1  0
  7 11  1  0
  7 14  1  0
  8 18  1  0
  8 21  1  0
  9 21  2  0
 10 21  1  0
 10 23  1  0
 11 12  1  0
 11 15  1  0
 11 16  1  0
 12 13  1  0
 13 14  2  0
 13 17  1  0
 14 18  1  0
 17 19  2  0
 18 20  2  0
 19 20  1  0
 22 24  2  0
 22 25  1  0
 24 27  1  0
 25 26  2  0
 26 28  1  0
 27 28  2  0
M  END
>  <PUBCHEM_COMPOUND_CID>  (1) 
39700

>  <PUBCHEM_CONFORMER_RMSD>  (1) 
0.8

>  <PUBCHEM_CONFORMER_DIVERSEORDER>  (1) 
1
20
137
265
246
230
58
17
266
271
153
151
211
287
51
245
98
173
224
199
77
238
140
130
223
69
196
310
235
213
61
148
225
289
83
281
175
122
48
37
267
249
85
70
283
16
278
201
317
231
315
79
195
216
300
32
134
188
251
150
165
84
240
314
64
59
86
263
123
156
276
296
40
162
22
14
219
18
297
241
74
210
158
237
228
60
242
55
184
255
82
2
80
73
56
54
25
103
11
76
178
170
309
257
269
149
28
113
273
119
307
274
131
177
72
207
183
258
41
81
91
116
127
168
191
311
303
117
30
291
53
288
155
181
39
275
293
264
152
182
171
52
45
282
190
42
299
97
176
200
254
136
111
316
294
95
185
304
106
147
47
92
295
157
35
142
159
172
107
125
312
12
306
10
68
205
209
49
114
102
75
21
15
120
26
29
169
262
218
187
250
252
90
194
38
154
24
236
189
212
232
272
46
186
34
220
161
13
27
217
99
290
285
233
139
124
138
270
302
65
135
239
193
146
198
280
247
292
43
88
305
277
89
129
215
206
180
226
126
36
160
121
50
192
78
268
243
284
197
179
66
133
118
104
108
101
261
5
227
9
57
229
163
259
67
141
167
87
279
93
4
204
174
214
143
166
44
132
313
221
208
244
253
234
96
8
109
308
110
145
23
260
298
33
6
94
7
63
164
31
203
100
105
3
301
202
248
71
19
256
128
286
115
144
62
222
112

>  <PUBCHEM_MMFF94_PARTIAL_CHARGES>  (1) 
29
1 -0.18
10 -0.37
11 0.28
12 0.14
13 -0.14
14 0.08
17 -0.15
18 0.08
19 -0.15
2 -0.18
20 -0.15
21 0.78
22 0.1
23 0.3
24 0.18
25 0.18
26 0.18
27 0.18
28 0.18
3 -0.18
37 0.15
38 0.15
39 0.15
4 -0.18
5 -0.18
6 -0.09
7 -0.36
8 -0.23
9 -0.57

>  <PUBCHEM_EFFECTIVE_ROTOR_COUNT>  (1) 
5.6

>  <PUBCHEM_PHARMACOPHORE_FEATURES>  (1) 
6
1 7 acceptor
1 9 acceptor
3 11 15 16 hydrophobe
5 7 11 12 13 14 rings
6 13 14 17 18 19 20 rings
6 22 24 25 26 27 28 rings

>  <PUBCHEM_HEAVY_ATOM_COUNT>  (1) 
28

>  <PUBCHEM_ATOM_DEF_STEREO_COUNT>  (1) 
0

>  <PUBCHEM_ATOM_UDEF_STEREO_COUNT>  (1) 
0

>  <PUBCHEM_BOND_DEF_STEREO_COUNT>  (1) 
0

>  <PUBCHEM_BOND_UDEF_STEREO_COUNT>  (1) 
0

>  <PUBCHEM_ISOTOPIC_ATOM_COUNT>  (1) 
0

>  <PUBCHEM_COMPONENT_COUNT>  (1) 
1

>  <PUBCHEM_CACTVS_TAUTO_COUNT>  (1) 
1

>  <PUBCHEM_CONFORMER_ID>  (1) 
00009B1400000001

>  <PUBCHEM_MMFF94_ENERGY>  (1) 
92.3743

>  <PUBCHEM_FEATURE_SELFOVERLAP>  (1) 
30.546

>  <PUBCHEM_SHAPE_FINGERPRINT>  (1) 
10165383 225 16959072401451427343
10675989 125 18339633530042482477
10708813 3 18194951964042746986
11007060 377 15870843121051940372
11370993 70 18044356447569229053
11578080 2 17902203655963572988
11640471 11 18042968868358832756
12107698 1 18060134345191819846
12156800 1 14882391925107831905
12788726 201 18058177296389381761
128993 33 17913243968023790280
13224815 77 18411428331936045823
13583140 156 17972055660379003489
14713325 29 17182836367142558340
14787075 74 18121774204381067575
14790565 3 17845377644731178065
14955137 171 17408834036900914955
17492 54 17126456726062854253
17980427 23 18271224085235037176
18981168 100 18117305676823275954
20715895 44 18194380227214674357
20905425 154 17988630887734116777
22149856 69 18336838593513173299
22749437 52 18335135423118133503
23419403 2 16395693544243398091
23557571 272 17632571648013236719
23558518 356 18272381862162498929
23559900 14 17489311815496049493
238 59 18340221733658948307
3493558 16 18201137920020391554
35225 105 17027440172105783690
474 4 18260543429061398543
513532 50 15111397743074629553
5283178 26 12036819419579882729
539174 4 18192427463881053487
5895379 119 17344630322954850050
70251023 43 17845394235198156999
9981440 41 18196365051454460578

>  <PUBCHEM_SHAPE_MULTIPOLES>  (1) 
566.84
6.48
4.42
2.76
4.71
0.34
-0.84
-1.67
-0.14
-1.72
1.62
-1.51
-0.4
-1.77

>  <PUBCHEM_SHAPE_SELFOVERLAP>  (1) 
1163.449

>  <PUBCHEM_SHAPE_VOLUME>  (1) 
334.3

>  <PUBCHEM_COORDINATE_TYPE>  (1) 
2
5
10

$$$$
