39702
     RDKit          3D

 27 30  0  0  0  0  0  0  0  0999 V2000
    1.0944    3.1724    0.8771 S   0  0  0  0  0  0  0  0  0  0  0  0
   -1.3298   -1.1496   -0.3613 O   0  0  0  0  0  0  0  0  0  0  0  0
   -1.3004    1.5236    0.6622 O   0  0  0  0  0  0  0  0  0  0  0  0
   -1.9162    2.3055   -1.4277 O   0  0  0  0  0  0  0  0  0  0  0  0
    0.0559    3.0928   -0.4854 N   0  0  0  0  0  0  0  0  0  0  0  0
   -1.8381   -2.3949   -0.9215 C   0  0  0  0  0  0  0  0  0  0  0  0
   -3.2514   -2.6576   -0.3509 C   0  0  0  0  0  0  0  0  0  0  0  0
   -3.5615   -1.3183    0.1977 C   0  0  0  0  0  0  0  0  0  0  0  0
   -2.4243   -0.5289    0.1806 C   0  0  0  0  0  0  0  0  0  0  0  0
   -1.8647   -2.2418   -2.4477 C   0  0  0  0  0  0  0  0  0  0  0  0
   -0.8668   -3.5084   -0.5268 C   0  0  0  0  0  0  0  0  0  0  0  0
   -4.7493   -0.8396    0.7209 C   0  0  0  0  0  0  0  0  0  0  0  0
   -2.4210    0.7595    0.6798 C   0  0  0  0  0  0  0  0  0  0  0  0
   -4.7725    0.4638    1.2236 C   0  0  0  0  0  0  0  0  0  0  0  0
   -3.6148    1.2584    1.2038 C   0  0  0  0  0  0  0  0  0  0  0  0
   -1.1093    2.3161   -0.4981 C   0  0  0  0  0  0  0  0  0  0  0  0
    2.7601   -0.5387    0.6653 C   0  0  0  0  0  0  0  0  0  0  0  0
    3.9339   -0.3035   -0.0896 C   0  0  0  0  0  0  0  0  0  0  0  0
    2.1999    1.8183    0.5010 C   0  0  0  0  0  0  0  0  0  0  0  0
    1.9017    0.5351    0.9525 C   0  0  0  0  0  0  0  0  0  0  0  0
    4.2146    0.9984   -0.5352 C   0  0  0  0  0  0  0  0  0  0  0  0
    3.3506    2.0536   -0.2405 C   0  0  0  0  0  0  0  0  0  0  0  0
    2.4793   -1.8408    1.1105 C   0  0  0  0  0  0  0  0  0  0  0  0
    4.7922   -1.3772   -0.3770 C   0  0  0  0  0  0  0  0  0  0  0  0
    0.3963    3.9620   -1.6028 C   0  0  0  0  0  0  0  0  0  0  0  0
    3.3435   -2.8957    0.8159 C   0  0  0  0  0  0  0  0  0  0  0  0
    4.4978   -2.6643    0.0736 C   0  0  0  0  0  0  0  0  0  0  0  0
  1  5  1  0
  1 19  1  0
  2  6  1  0
  2  9  1  0
  3 13  1  0
  3 16  1  0
  4 16  2  0
  5 16  1  0
  5 25  1  0
  6  7  1  0
  6 10  1  0
  6 11  1  0
  7  8  1  0
  8  9  2  0
  8 12  1  0
  9 13  1  0
 12 14  2  0
 13 15  2  0
 14 15  1  0
 17 18  1  0
 17 20  2  0
 17 23  1  0
 18 21  2  0
 18 24  1  0
 19 20  1  0
 19 22  2  0
 21 22  1  0
 23 26  2  0
 24 27  2  0
 26 27  1  0
M  END
>  <PUBCHEM_COMPOUND_CID>  (1) 
39702

>  <PUBCHEM_CONFORMER_RMSD>  (1) 
1

>  <PUBCHEM_CONFORMER_DIVERSEORDER>  (1) 
1
165
72
323
13
316
209
30
81
182
149
231
292
104
2
290
163
11
225
133
142
78
320
239
64
295
41
108
136
16
152
284
80
153
14
285
172
60
102
82
126
218
169
44
296
161
314
294
197
248
128
70
75
76
110
276
194
228
304
327
90
91
7
94
221
157
306
277
21
211
184
216
279
175
115
36
305
167
181
25
28
162
54
188
251
150
43
302
185
177
77
190
271
322
83
107
326
168
26
155
117
240
145
173
68
272
164
255
324
204
207
199
42
223
109
203
187
141
69
266
170
273
309
236
12
186
269
146
99
257
263
220
191
113
147
208
250
112
123
143
288
215
56
129
120
178
307
62
192
242
121
291
321
258
246
301
274
180
318
319
9
238
124
310
103
229
65
232
22
39
89
174
49
130
253
40
32
85
224
226
105
249
33
5
303
46
52
160
140
84
50
311
95
217
127
135
10
219
134
144
283
286
212
268
138
313
281
61
98
48
6
205
114
66
260
23
315
166
297
289
31
244
235
47
92
195
200
158
18
67
300
213
38
230
233
79
19
137
243
93
317
132
193
116
156
201
86
245
189
210
176
278
222
265
247
96
267
57
287
15
17
159
308
234
118
270
53
198
73
151
87
183
259
74
237
325
264
148
3
29
122
125
262
252
298
202
196
58
179
111
119
35
37
63
131
241
24
227
256
4
275
299
106
312
261
214
254
55
154
45
8
34
101
88
280
20
282
97
27
206
171
59
293
71
100
51
139

>  <PUBCHEM_MMFF94_PARTIAL_CHARGES>  (1) 
33
1 -0.09
12 -0.15
13 0.08
14 -0.15
15 -0.15
16 0.78
19 0.1
2 -0.36
20 -0.15
21 -0.15
22 -0.15
23 -0.15
24 -0.15
25 0.3
26 -0.15
27 -0.15
3 -0.23
36 0.15
37 0.15
38 0.15
39 0.15
4 -0.57
40 0.15
41 0.15
42 0.15
43 0.15
47 0.15
48 0.15
5 -0.37
6 0.28
7 0.14
8 -0.14
9 0.08

>  <PUBCHEM_EFFECTIVE_ROTOR_COUNT>  (1) 
5.6

>  <PUBCHEM_PHARMACOPHORE_FEATURES>  (1) 
7
1 2 acceptor
1 4 acceptor
3 6 10 11 hydrophobe
5 2 6 7 8 9 rings
6 17 18 19 20 21 22 rings
6 17 18 23 24 26 27 rings
6 8 9 12 13 14 15 rings

>  <PUBCHEM_HEAVY_ATOM_COUNT>  (1) 
27

>  <PUBCHEM_ATOM_DEF_STEREO_COUNT>  (1) 
0

>  <PUBCHEM_ATOM_UDEF_STEREO_COUNT>  (1) 
0

>  <PUBCHEM_BOND_DEF_STEREO_COUNT>  (1) 
0

>  <PUBCHEM_BOND_UDEF_STEREO_COUNT>  (1) 
0

>  <PUBCHEM_ISOTOPIC_ATOM_COUNT>  (1) 
0

>  <PUBCHEM_COMPONENT_COUNT>  (1) 
1

>  <PUBCHEM_CACTVS_TAUTO_COUNT>  (1) 
1

>  <PUBCHEM_CONFORMER_ID>  (1) 
00009B1600000001

>  <PUBCHEM_MMFF94_ENERGY>  (1) 
86.192

>  <PUBCHEM_FEATURE_SELFOVERLAP>  (1) 
35.649

>  <PUBCHEM_SHAPE_FINGERPRINT>  (1) 
10369192 42 16984595520367030120
11014199 57 18124029289517816290
11513181 2 17702108169257842630
11756154 67 18411144618886540719
12422481 6 18266757787773237897
12553582 1 18336535110131572218
12633257 1 18202289065148490987
13122387 1 17907858405805587334
14117953 113 18125723379374623637
14251751 93 18118683219175351226
14251757 5 18267038180360596190
14279260 333 17681554724155733538
15403338 16 18042402426892938059
15537594 2 18338251434913472288
16110190 28 18343021077926899514
17818456 19 18130519621157788921
1813 80 17894632590577380589
19319366 153 18113344107002418986
20291156 8 18410573989683925416
20775438 99 17547796058710977991
20775530 9 18409162191142182714
3737641 26 18408329895199999968
4409770 3 17903347118160188484
44880168 125 17488462971335175390
463206 1 18337115673946315186
5283178 26 18059289842735900824
6287921 2 17978229692424094400
7097593 13 18268992149344318005

>  <PUBCHEM_SHAPE_MULTIPOLES>  (1) 
536.91
9.42
4.89
1.41
1.11
1.11
-0.57
-4.48
1.94
1.3
-1.5
-0.75
0.07
-1.34

>  <PUBCHEM_SHAPE_SELFOVERLAP>  (1) 
1164.151

>  <PUBCHEM_SHAPE_VOLUME>  (1) 
297.6

>  <PUBCHEM_COORDINATE_TYPE>  (1) 
2
5
10

$$$$
