39703
     RDKit          3D

 26 29  0  0  0  0  0  0  0  0999 V2000
    3.0783    3.4296   -0.0650 S   0  0  0  0  0  0  0  0  0  0  0  0
    4.3122    0.9435   -1.2866 S   0  0  0  0  0  0  0  0  0  0  0  0
   -1.5635   -1.0750   -0.2411 O   0  0  0  0  0  0  0  0  0  0  0  0
   -1.4486    1.7154   -0.8695 O   0  0  0  0  0  0  0  0  0  0  0  0
   -1.0779    2.1724    1.3791 O   0  0  0  0  0  0  0  0  0  0  0  0
    0.4441    2.8532   -0.2346 N   0  0  0  0  0  0  0  0  0  0  0  0
    2.7558    0.9075    0.7698 N   0  0  0  0  0  0  0  0  0  0  0  0
   -2.1046   -2.4156   -0.0584 C   0  0  0  0  0  0  0  0  0  0  0  0
   -3.5632   -2.2999    0.4431 C   0  0  0  0  0  0  0  0  0  0  0  0
   -3.8316   -0.8780    0.1310 C   0  0  0  0  0  0  0  0  0  0  0  0
   -2.6531   -0.2450   -0.2259 C   0  0  0  0  0  0  0  0  0  0  0  0
   -2.0275   -3.1366   -1.4100 C   0  0  0  0  0  0  0  0  0  0  0  0
   -1.2233   -3.1330    0.9654 C   0  0  0  0  0  0  0  0  0  0  0  0
   -5.0210   -0.1753    0.2015 C   0  0  0  0  0  0  0  0  0  0  0  0
   -2.6092    1.1033   -0.5249 C   0  0  0  0  0  0  0  0  0  0  0  0
   -5.0027    1.1877   -0.1050 C   0  0  0  0  0  0  0  0  0  0  0  0
   -3.8035    1.8234   -0.4653 C   0  0  0  0  0  0  0  0  0  0  0  0
   -0.7166    2.2524    0.2086 C   0  0  0  0  0  0  0  0  0  0  0  0
    1.4027    3.4943    0.6427 C   0  0  0  0  0  0  0  0  0  0  0  0
    3.9654   -0.5906   -0.5799 C   0  0  0  0  0  0  0  0  0  0  0  0
    3.1130   -0.4082    0.5133 C   0  0  0  0  0  0  0  0  0  0  0  0
    3.3313    1.6610   -0.1107 C   0  0  0  0  0  0  0  0  0  0  0  0
    4.4153   -1.8637   -0.9651 C   0  0  0  0  0  0  0  0  0  0  0  0
    2.6976   -1.5418    1.2449 C   0  0  0  0  0  0  0  0  0  0  0  0
    3.9892   -2.9688   -0.2241 C   0  0  0  0  0  0  0  0  0  0  0  0
    3.1415   -2.8122    0.8670 C   0  0  0  0  0  0  0  0  0  0  0  0
  1 19  1  0
  1 22  1  0
  2 20  1  0
  2 22  1  0
  3  8  1  0
  3 11  1  0
  4 15  1  0
  4 18  1  0
  5 18  2  0
  6 18  1  0
  6 19  1  0
  7 21  1  0
  7 22  2  0
  8  9  1  0
  8 12  1  0
  8 13  1  0
  9 10  1  0
 10 11  2  0
 10 14  1  0
 11 15  1  0
 14 16  2  0
 15 17  2  0
 16 17  1  0
 20 21  2  0
 20 23  1  0
 21 24  1  0
 23 25  2  0
 24 26  2  0
 25 26  1  0
M  END
>  <PUBCHEM_COMPOUND_CID>  (1) 
39703

>  <PUBCHEM_CONFORMER_RMSD>  (1) 
1

>  <PUBCHEM_CONFORMER_DIVERSEORDER>  (1) 
1
121
130
118
81
92
379
186
383
228
217
135
22
35
107
313
296
221
229
242
123
71
348
51
9
209
409
29
306
84
376
133
158
34
117
281
393
76
231
74
177
225
283
85
336
280
55
124
131
3
88
238
282
285
96
166
156
325
404
111
254
334
240
165
201
380
212
128
18
43
147
275
353
387
109
7
213
260
185
190
93
169
134
20
137
319
104
178
116
323
264
293
159
95
210
179
378
172
364
65
342
33
200
57
368
339
211
89
256
17
398
253
381
337
23
328
262
340
226
176
251
204
154
72
108
303
196
103
346
401
127
141
100
174
305
59
235
112
197
389
148
372
54
215
400
300
12
222
139
13
115
167
183
396
27
259
399
341
149
28
39
374
286
276
122
269
86
102
288
80
69
386
98
327
245
40
160
363
266
113
326
249
292
279
377
114
187
248
205
365
168
94
324
247
79
302
136
333
384
257
4
270
354
31
290
338
62
15
321
370
138
402
332
273
284
241
56
26
289
8
143
297
207
87
366
294
271
45
250
75
268
263
309
220
120
16
308
352
83
194
193
191
349
145
195
218
330
151
214
367
32
331
206
203
44
189
175
10
37
385
369
345
198
261
192
408
155
19
21
63
255
391
315
119
318
110
47
199
317
58
358
407
46
350
239
314
232
5
397
6
173
298
152
267
394
361
48
322
126
304
170
237
202
90
181
125
208
61
291
144
392
390
395
82
230
278
312
234
258
25
373
382
359
68
49
163
157
64
129
335
162
355
97
216
171
105
252
301
265
310
66
244
164
227
360
272
311
14
236
320
50
299
307
329
36
41
295
357
161
91
246
140
388
233
188
146
343
403
73
24
347
287
277
67
77
356
11
70
106
406
371
243
2
150
224
99
142
52
344
184
351
405
219
132
362
60
274
53
375
223
180
30
42
78
38
182
316
101
153

>  <PUBCHEM_MMFF94_PARTIAL_CHARGES>  (1) 
32
1 -0.29
10 -0.14
11 0.08
14 -0.15
15 0.08
16 -0.15
17 -0.15
18 0.78
19 0.53
2 -0.08
20 0.04
21 0.23
22 0.43
23 -0.15
24 -0.15
25 -0.15
26 -0.15
3 -0.36
35 0.15
36 0.15
37 0.15
38 0.37
4 -0.23
41 0.15
42 0.15
43 0.15
44 0.15
5 -0.57
6 -0.73
7 -0.57
8 0.28
9 0.14

>  <PUBCHEM_EFFECTIVE_ROTOR_COUNT>  (1) 
6.6

>  <PUBCHEM_PHARMACOPHORE_FEATURES>  (1) 
9
1 3 acceptor
1 5 acceptor
1 6 donor
1 7 acceptor
3 8 12 13 hydrophobe
5 2 7 20 21 22 rings
5 3 8 9 10 11 rings
6 10 11 14 15 16 17 rings
6 20 21 23 24 25 26 rings

>  <PUBCHEM_HEAVY_ATOM_COUNT>  (1) 
26

>  <PUBCHEM_ATOM_DEF_STEREO_COUNT>  (1) 
0

>  <PUBCHEM_ATOM_UDEF_STEREO_COUNT>  (1) 
0

>  <PUBCHEM_BOND_DEF_STEREO_COUNT>  (1) 
0

>  <PUBCHEM_BOND_UDEF_STEREO_COUNT>  (1) 
0

>  <PUBCHEM_ISOTOPIC_ATOM_COUNT>  (1) 
0

>  <PUBCHEM_COMPONENT_COUNT>  (1) 
1

>  <PUBCHEM_CACTVS_TAUTO_COUNT>  (1) 
2

>  <PUBCHEM_CONFORMER_ID>  (1) 
00009B1700000001

>  <PUBCHEM_MMFF94_ENERGY>  (1) 
65.2557

>  <PUBCHEM_FEATURE_SELFOVERLAP>  (1) 
45.845

>  <PUBCHEM_SHAPE_FINGERPRINT>  (1) 
10074138 170 14437234340483066187
10616163 171 18194119844030354974
11513181 2 18128822017711272502
12553582 1 18410845560497699844
12633257 1 18269843007977151863
12788726 201 17845947237954657529
13122387 1 17618221707058408830
13402501 40 18341614754962479494
13533116 47 18271522121901163589
14117953 113 17762049943926396549
14617045 38 18335711592944182885
14790565 3 18338238138170023329
14866123 147 17838340679301576785
14931854 50 18335144146481743734
17909252 39 18200888266930967590
17921350 177 18130514114861899430
19319366 153 17895199840209939842
19591789 44 18336823100832263617
19930381 70 18193835946987891251
21857420 4 16046963880661159055
23559900 14 18412822478214929804
3004659 81 18188209797770404876
314173 41 18410576180270564836
3298306 158 18047174277424161461
354706 132 17313111877531557294
3680242 22 18266466395231425393
4403749 210 17620167155609167408
463206 1 18335706065616587744
474144 1 17389091253320410178
5265222 85 17688319297135074124
5309563 4 17111289070653796243
6433294 58 18337670918475316536
6823239 73 18342178899328161560
9709674 26 18265614458065921283

>  <PUBCHEM_SHAPE_MULTIPOLES>  (1) 
515.2
10.62
4.95
1.1
1.8
0.21
0.03
-1.71
1.47
-2.25
-0.4
-0.49
-0.31
-0.05

>  <PUBCHEM_SHAPE_SELFOVERLAP>  (1) 
1099.64

>  <PUBCHEM_SHAPE_VOLUME>  (1) 
290.6

>  <PUBCHEM_COORDINATE_TYPE>  (1) 
2
5
10

$$$$
