39706
     RDKit          3D

 22 23  0  0  0  0  0  0  0  0999 V2000
    2.0464   -2.2350   -0.7135 S   0  0  0  0  0  0  0  0  0  0  0  0
   -1.2011    1.5014   -0.0396 O   0  0  0  0  0  0  0  0  0  0  0  0
   -0.6591   -1.1752   -0.5594 O   0  0  0  0  0  0  0  0  0  0  0  0
   -0.9573   -1.6486    1.6869 O   0  0  0  0  0  0  0  0  0  0  0  0
    1.0943   -2.1302    0.7092 N   0  0  0  0  0  0  0  0  0  0  0  0
   -1.2640    2.1535    1.2273 C   0  0  0  0  0  0  0  0  0  0  0  0
   -2.2094    0.6366   -0.3414 C   0  0  0  0  0  0  0  0  0  0  0  0
   -0.0434    1.7689    2.0494 C   0  0  0  0  0  0  0  0  0  0  0  0
   -1.3524    3.6569    1.0130 C   0  0  0  0  0  0  0  0  0  0  0  0
   -1.9374   -0.7065   -0.6018 C   0  0  0  0  0  0  0  0  0  0  0  0
   -3.5226    1.1042   -0.3890 C   0  0  0  0  0  0  0  0  0  0  0  0
   -2.9788   -1.5820   -0.9099 C   0  0  0  0  0  0  0  0  0  0  0  0
   -4.5641    0.2287   -0.6969 C   0  0  0  0  0  0  0  0  0  0  0  0
   -4.2921   -1.1143   -0.9574 C   0  0  0  0  0  0  0  0  0  0  0  0
   -0.2233   -1.6558    0.6987 C   0  0  0  0  0  0  0  0  0  0  0  0
    2.8049   -0.6158   -0.6962 C   0  0  0  0  0  0  0  0  0  0  0  0
    1.6965   -2.6602    1.9244 C   0  0  0  0  0  0  0  0  0  0  0  0
    4.0187   -0.4272   -0.0414 C   0  0  0  0  0  0  0  0  0  0  0  0
    2.1779    0.4482   -1.3382 C   0  0  0  0  0  0  0  0  0  0  0  0
    4.6105    0.8359   -0.0284 C   0  0  0  0  0  0  0  0  0  0  0  0
    2.7697    1.7114   -1.3253 C   0  0  0  0  0  0  0  0  0  0  0  0
    3.9859    1.9051   -0.6704 C   0  0  0  0  0  0  0  0  0  0  0  0
  1  5  1  0
  1 16  1  0
  2  6  1  0
  2  7  1  0
  3 10  1  0
  3 15  1  0
  4 15  2  0
  5 15  1  0
  5 17  1  0
  6  8  1  0
  6  9  1  0
  7 10  2  0
  7 11  1  0
 10 12  1  0
 11 13  2  0
 12 14  2  0
 13 14  1  0
 16 18  2  0
 16 19  1  0
 18 20  1  0
 19 21  2  0
 20 22  2  0
 21 22  1  0
M  END
>  <PUBCHEM_COMPOUND_CID>  (1) 
39706

>  <PUBCHEM_CONFORMER_RMSD>  (1) 
0.8

>  <PUBCHEM_CONFORMER_DIVERSEORDER>  (1) 
1
54
199
241
215
193
163
185
35
131
204
197
220
164
44
11
244
191
238
189
209
59
183
186
214
127
154
45
95
263
217
222
274
176
252
245
229
162
181
160
272
17
48
106
270
213
144
104
82
157
58
237
129
133
103
250
113
37
15
42
202
253
269
259
201
228
182
212
149
90
96
52
140
262
146
174
87
256
130
53
268
271
231
207
248
216
173
211
75
68
275
2
230
210
121
72
232
247
126
264
30
9
125
109
117
137
78
39
116
98
29
159
165
57
76
124
147
254
224
208
196
142
187
132
233
226
225
119
112
206
184
22
265
255
200
77
56
70
177
51
223
73
261
91
38
257
155
24
143
16
74
151
66
240
46
64
205
153
194
71
60
84
97
175
23
36
172
246
10
86
69
235
115
198
266
141
166
234
47
107
152
55
99
178
236
192
138
158
83
50
65
180
27
110
8
94
167
34
135
13
251
81
239
31
100
33
170
111
243
41
88
102
21
188
120
32
267
61
4
258
6
123
218
276
93
105
18
242
28
19
128
122
136
190
25
118
79
49
260
101
7
67
12
161
92
80
85
249
169
20
221
219
108
89
156
168
26
203
195
227
145
62
43
63
134
139
171
14
114
3
40
150
5
273
148
179

>  <PUBCHEM_MMFF94_PARTIAL_CHARGES>  (1) 
29
1 -0.09
10 0.08
11 -0.15
12 -0.15
13 -0.15
14 -0.15
15 0.78
16 0.1
17 0.3
18 -0.15
19 -0.15
2 -0.36
20 -0.15
21 -0.15
22 -0.15
3 -0.23
30 0.15
31 0.15
32 0.15
33 0.15
34 0.15
35 0.15
39 0.15
4 -0.57
40 0.15
41 0.15
5 -0.37
6 0.28
7 0.08

>  <PUBCHEM_EFFECTIVE_ROTOR_COUNT>  (1) 
7

>  <PUBCHEM_PHARMACOPHORE_FEATURES>  (1) 
5
1 2 acceptor
1 4 acceptor
3 6 8 9 hydrophobe
6 16 18 19 20 21 22 rings
6 7 10 11 12 13 14 rings

>  <PUBCHEM_HEAVY_ATOM_COUNT>  (1) 
22

>  <PUBCHEM_ATOM_DEF_STEREO_COUNT>  (1) 
0

>  <PUBCHEM_ATOM_UDEF_STEREO_COUNT>  (1) 
0

>  <PUBCHEM_BOND_DEF_STEREO_COUNT>  (1) 
0

>  <PUBCHEM_BOND_UDEF_STEREO_COUNT>  (1) 
0

>  <PUBCHEM_ISOTOPIC_ATOM_COUNT>  (1) 
0

>  <PUBCHEM_COMPONENT_COUNT>  (1) 
1

>  <PUBCHEM_CACTVS_TAUTO_COUNT>  (1) 
1

>  <PUBCHEM_CONFORMER_ID>  (1) 
00009B1A00000001

>  <PUBCHEM_MMFF94_ENERGY>  (1) 
67.1673

>  <PUBCHEM_FEATURE_SELFOVERLAP>  (1) 
25.372

>  <PUBCHEM_SHAPE_FINGERPRINT>  (1) 
10498660 4 18272652346122479972
10708813 3 18191871119756528540
11370993 70 18114177596565279580
12035759 4 18339359669503970561
12403259 327 13190350070908548854
12592029 89 17531241751334304344
12788726 201 18058729096549342545
13009979 54 17980750550549103154
13965767 371 16250525874188746731
14123250 116 18269850726144477672
14787075 74 18263368147758861243
14790565 3 17770229258766876169
14931854 50 18411702122937157668
15420108 30 17402611849365600296
15848702 105 18410291449592332906
17349148 13 18334856113116150294
17492 89 18270121201699946223
18981168 100 17972632972344333898
192875 21 18408885157367689852
19765921 60 18260827124451824523
20715895 44 17832975054242376093
2132832 1 18048575063226625554
22749437 52 18260838111252273108
23419403 2 17762074528588243955
23557571 272 17417244321568981818
23558518 356 18267601116764093620
23559900 14 17986386694276286870
3323516 105 18200305662463141177
4340502 62 17676497125195900315
474 4 18113054952133046502
526903 126 18410862078825999160
5895379 119 17912642402499257058
6328613 192 17896326977826661916
6992083 37 17257647820663922011
7832392 63 17836655123696435846
9981440 41 18335982077521693730

>  <PUBCHEM_SHAPE_MULTIPOLES>  (1) 
434.01
8.05
3.39
1.62
0.35
1.25
0.75
0.92
-3.39
0.16
1.47
0.26
-0.09
-1.5

>  <PUBCHEM_SHAPE_SELFOVERLAP>  (1) 
892.985

>  <PUBCHEM_SHAPE_VOLUME>  (1) 
250.8

>  <PUBCHEM_COORDINATE_TYPE>  (1) 
2
5
10

$$$$
