39708
     RDKit          3D

 23 24  0  0  0  0  0  0  0  0999 V2000
   -1.7877   -2.3923    0.8680 S   0  0  0  0  0  0  0  0  0  0  0  0
    1.1767    1.4440   -0.1848 O   0  0  0  0  0  0  0  0  0  0  0  0
    0.8092   -1.1829    0.6475 O   0  0  0  0  0  0  0  0  0  0  0  0
    1.2450   -1.8874   -1.5152 O   0  0  0  0  0  0  0  0  0  0  0  0
   -0.7980   -2.3970   -0.5339 N   0  0  0  0  0  0  0  0  0  0  0  0
    1.2338    1.9409   -1.5204 C   0  0  0  0  0  0  0  0  0  0  0  0
    2.2335    0.6991    0.2444 C   0  0  0  0  0  0  0  0  0  0  0  0
    0.0704    1.3703   -2.3170 C   0  0  0  0  0  0  0  0  0  0  0  0
    1.2085    3.4615   -1.4906 C   0  0  0  0  0  0  0  0  0  0  0  0
    2.0817   -0.6042    0.6619 C   0  0  0  0  0  0  0  0  0  0  0  0
    3.5082    1.2652    0.2644 C   0  0  0  0  0  0  0  0  0  0  0  0
    3.1395   -1.3711    1.0989 C   0  0  0  0  0  0  0  0  0  0  0  0
   -2.8159    1.5330    0.9634 C   0  0  0  0  0  0  0  0  0  0  0  0
   -2.6576   -0.8547    0.6314 C   0  0  0  0  0  0  0  0  0  0  0  0
    4.5986    0.5131    0.7017 C   0  0  0  0  0  0  0  0  0  0  0  0
   -2.1340    0.3303    1.1481 C   0  0  0  0  0  0  0  0  0  0  0  0
    4.4142   -0.8050    1.1188 C   0  0  0  0  0  0  0  0  0  0  0  0
   -4.0214    1.5507    0.2619 C   0  0  0  0  0  0  0  0  0  0  0  0
   -3.8632   -0.8370   -0.0700 C   0  0  0  0  0  0  0  0  0  0  0  0
   -4.5450    0.3657   -0.2548 C   0  0  0  0  0  0  0  0  0  0  0  0
    0.4815   -1.8284   -0.5514 C   0  0  0  0  0  0  0  0  0  0  0  0
   -2.2566    2.8007    1.5155 C   0  0  0  0  0  0  0  0  0  0  0  0
   -1.3214   -3.1146   -1.6878 C   0  0  0  0  0  0  0  0  0  0  0  0
  1  5  1  0
  1 14  1  0
  2  6  1  0
  2  7  1  0
  3 10  1  0
  3 21  1  0
  4 21  2  0
  5 21  1  0
  5 23  1  0
  6  8  1  0
  6  9  1  0
  7 10  2  0
  7 11  1  0
 10 12  1  0
 11 15  2  0
 12 17  2  0
 13 16  2  0
 13 18  1  0
 13 22  1  0
 14 16  1  0
 14 19  2  0
 15 17  1  0
 18 20  2  0
 19 20  1  0
M  END
>  <PUBCHEM_COMPOUND_CID>  (1) 
39708

>  <PUBCHEM_CONFORMER_RMSD>  (1) 
1

>  <PUBCHEM_CONFORMER_DIVERSEORDER>  (1) 
1
97
26
113
161
110
103
185
165
49
144
62
118
107
67
39
192
72
51
94
163
78
189
120
182
105
116
63
186
130
138
89
169
21
121
159
71
74
131
32
183
41
136
4
124
135
19
179
93
20
166
122
76
24
119
193
88
52
180
28
154
148
65
59
176
129
25
100
12
155
106
140
156
104
184
34
142
147
173
181
137
139
37
46
168
127
18
96
114
132
40
36
160
191
117
92
43
47
85
115
66
56
13
16
86
109
102
64
157
45
152
80
60
61
162
87
8
82
79
158
83
38
133
29
145
172
128
44
77
23
178
84
171
10
33
151
125
27
57
69
108
58
149
54
17
2
50
75
150
68
35
174
73
95
175
53
123
111
99
98
190
7
101
188
146
187
9
30
42
153
91
14
55
90
11
70
126
48
22
143
81
167
177
170
31
134
112
164
141
5
15
3
6

>  <PUBCHEM_MMFF94_PARTIAL_CHARGES>  (1) 
29
1 -0.09
10 0.08
11 -0.15
12 -0.15
13 -0.14
14 0.1
15 -0.15
16 -0.15
17 -0.15
18 -0.15
19 -0.15
2 -0.36
20 -0.15
21 0.78
22 0.14
23 0.3
3 -0.23
31 0.15
32 0.15
33 0.15
34 0.15
35 0.15
36 0.15
37 0.15
38 0.15
4 -0.57
5 -0.37
6 0.28
7 0.08

>  <PUBCHEM_EFFECTIVE_ROTOR_COUNT>  (1) 
7

>  <PUBCHEM_PHARMACOPHORE_FEATURES>  (1) 
5
1 2 acceptor
1 4 acceptor
3 6 8 9 hydrophobe
6 13 14 16 18 19 20 rings
6 7 10 11 12 15 17 rings

>  <PUBCHEM_HEAVY_ATOM_COUNT>  (1) 
23

>  <PUBCHEM_ATOM_DEF_STEREO_COUNT>  (1) 
0

>  <PUBCHEM_ATOM_UDEF_STEREO_COUNT>  (1) 
0

>  <PUBCHEM_BOND_DEF_STEREO_COUNT>  (1) 
0

>  <PUBCHEM_BOND_UDEF_STEREO_COUNT>  (1) 
0

>  <PUBCHEM_ISOTOPIC_ATOM_COUNT>  (1) 
0

>  <PUBCHEM_COMPONENT_COUNT>  (1) 
1

>  <PUBCHEM_CACTVS_TAUTO_COUNT>  (1) 
1

>  <PUBCHEM_CONFORMER_ID>  (1) 
00009B1C00000001

>  <PUBCHEM_MMFF94_ENERGY>  (1) 
68.8663

>  <PUBCHEM_FEATURE_SELFOVERLAP>  (1) 
25.371

>  <PUBCHEM_SHAPE_FINGERPRINT>  (1) 
10708813 3 18262803002713388804
10759866 29 17899427659564896397
11244481 83 13191189114292040908
11370993 70 18271802359378543785
11513181 2 17845653625363231006
12011746 2 18335417933086958614
12077114 3 18343020016532355442
12166972 35 18262507208742422711
12633257 1 17967819331833632513
13009979 54 18123185968520529126
13583140 156 17530682122092483003
13965767 371 17904209122196499009
14178342 30 18196947573674479081
14251757 17 17480074921374455820
14790565 3 17535760916704735308
15238133 3 17530970133281229351
1601671 61 18335707156786070844
17349148 13 18411417323887464859
17492 89 18043817695562469242
17859628 37 18336265656631335566
17980427 23 18411981356099129565
192875 21 18409444808675366957
20600515 1 17169005377852729237
20691752 17 17972896760287062483
20715895 44 18263638477712313205
20739085 24 17968090963241055932
21330990 113 18194410991848695742
22113638 7 18339920510839608341
22749437 52 18341620299923241201
23184049 59 18335416855208422650
23419403 2 16323641718167031761
23557571 272 17489033763887932639
23598288 3 18052546757177709639
474 4 18338520721131660955
513202 73 17243851256697105066
6287921 2 18057058912621981247
6992083 37 18408598188811224926
7064713 232 18270396088085593736
7471813 234 17552336083914163934
9981440 41 18341328903741525611

>  <PUBCHEM_SHAPE_MULTIPOLES>  (1) 
454.59
7.86
3.61
1.72
0.84
0.45
-0.77
1.09
3.07
-0.89
-1.28
0.1
0.36
-1.52

>  <PUBCHEM_SHAPE_SELFOVERLAP>  (1) 
936.466

>  <PUBCHEM_SHAPE_VOLUME>  (1) 
263.7

>  <PUBCHEM_COORDINATE_TYPE>  (1) 
2
5
10

$$$$
