39705
     RDKit          3D

 19 20  0  0  0  0  0  0  0  0999 V2000
    3.7898    0.2029    0.7415 S   0  0  0  0  0  0  0  0  0  0  0  0
   -1.0166   -1.2061   -0.0109 O   0  0  0  0  0  0  0  0  0  0  0  0
    0.9559    0.7960    0.5331 O   0  0  0  0  0  0  0  0  0  0  0  0
    1.0023    1.3230   -1.7212 O   0  0  0  0  0  0  0  0  0  0  0  0
    2.9774    0.6628   -0.6946 N   0  0  0  0  0  0  0  0  0  0  0  0
   -2.2833   -1.8071   -0.4073 C   0  0  0  0  0  0  0  0  0  0  0  0
   -3.4355   -0.8678    0.0199 C   0  0  0  0  0  0  0  0  0  0  0  0
   -2.6724    0.3721    0.2870 C   0  0  0  0  0  0  0  0  0  0  0  0
   -1.3150    0.0997    0.2758 C   0  0  0  0  0  0  0  0  0  0  0  0
   -2.2493   -2.0036   -1.9282 C   0  0  0  0  0  0  0  0  0  0  0  0
   -2.3884   -3.1639    0.2908 C   0  0  0  0  0  0  0  0  0  0  0  0
   -3.1384    1.6438    0.5684 C   0  0  0  0  0  0  0  0  0  0  0  0
   -0.3719    1.0737    0.5424 C   0  0  0  0  0  0  0  0  0  0  0  0
   -2.2028    2.6473    0.8324 C   0  0  0  0  0  0  0  0  0  0  0  0
   -0.8275    2.3635    0.8203 C   0  0  0  0  0  0  0  0  0  0  0  0
    1.6098    0.9560   -0.7155 C   0  0  0  0  0  0  0  0  0  0  0  0
    3.7994    0.7736   -1.8908 C   0  0  0  0  0  0  0  0  0  0  0  0
    3.5615   -1.5875    0.6348 C   0  0  0  0  0  0  0  0  0  0  0  0
    4.2047   -2.2783    1.8221 C   0  0  0  0  0  0  0  0  0  0  0  0
  1  5  1  0
  1 18  1  0
  2  6  1  0
  2  9  1  0
  3 13  1  0
  3 16  1  0
  4 16  2  0
  5 16  1  0
  5 17  1  0
  6  7  1  0
  6 10  1  0
  6 11  1  0
  7  8  1  0
  8  9  2  0
  8 12  1  0
  9 13  1  0
 12 14  2  0
 13 15  2  0
 14 15  1  0
 18 19  1  0
M  END
>  <PUBCHEM_COMPOUND_CID>  (1) 
39705

>  <PUBCHEM_CONFORMER_RMSD>  (1) 
0.8

>  <PUBCHEM_CONFORMER_DIVERSEORDER>  (1) 
1
79
11
69
14
77
50
44
87
58
84
94
54
83
91
53
93
99
60
23
101
34
64
95
100
73
49
57
102
85
31
47
42
90
39
35
52
12
29
65
89
13
38
18
30
103
92
32
67
75
5
96
98
24
56
68
59
74
63
20
76
61
9
48
40
71
33
25
72
8
41
43
51
81
45
36
46
62
70
4
22
88
10
66
19
97
6
55
21
28
82
80
15
78
2
26
16
3
37
86
17
7
27

>  <PUBCHEM_MMFF94_PARTIAL_CHARGES>  (1) 
19
1 -0.22
12 -0.15
13 0.08
14 -0.15
15 -0.15
16 0.78
17 0.3
18 0.23
2 -0.36
28 0.15
29 0.15
3 -0.23
30 0.15
4 -0.57
5 -0.37
6 0.28
7 0.14
8 -0.14
9 0.08

>  <PUBCHEM_EFFECTIVE_ROTOR_COUNT>  (1) 
5.6

>  <PUBCHEM_PHARMACOPHORE_FEATURES>  (1) 
6
1 19 hydrophobe
1 2 acceptor
1 4 acceptor
3 6 10 11 hydrophobe
5 2 6 7 8 9 rings
6 8 9 12 13 14 15 rings

>  <PUBCHEM_HEAVY_ATOM_COUNT>  (1) 
19

>  <PUBCHEM_ATOM_DEF_STEREO_COUNT>  (1) 
0

>  <PUBCHEM_ATOM_UDEF_STEREO_COUNT>  (1) 
0

>  <PUBCHEM_BOND_DEF_STEREO_COUNT>  (1) 
0

>  <PUBCHEM_BOND_UDEF_STEREO_COUNT>  (1) 
0

>  <PUBCHEM_ISOTOPIC_ATOM_COUNT>  (1) 
0

>  <PUBCHEM_COMPONENT_COUNT>  (1) 
1

>  <PUBCHEM_CACTVS_TAUTO_COUNT>  (1) 
1

>  <PUBCHEM_CONFORMER_ID>  (1) 
00009B1900000001

>  <PUBCHEM_MMFF94_ENERGY>  (1) 
54.5149

>  <PUBCHEM_FEATURE_SELFOVERLAP>  (1) 
30.546

>  <PUBCHEM_SHAPE_FINGERPRINT>  (1) 
10062212 137 18409724041294209387
10616163 171 18413112770807335734
114674 6 16750715265810947027
11578080 2 18044063904694840740
11582403 64 16479900630247314008
11725454 13 16340013128762243832
12553582 1 18127134297253242311
12633257 1 17846494794939747976
12788726 201 18340781411073974611
12824470 246 18189049952965331750
13083527 12 16769263868215031989
13140716 1 18128541659610252361
13583140 156 17201894017561338402
13931106 250 17631715149929886839
15099037 8 18335136505623913538
15669948 3 18342185470148044116
16752209 62 18343305851137702525
16945 1 18270411580665450825
1813 80 17388266633038152650
20600515 1 17916579826558432712
20645476 183 18187945983620327925
20645477 70 16660645168055328856
21452121 199 17768804608980746317
23184049 29 18200029693276002873
232386 152 18341890805426740770
23557571 272 17989210373554584832
23559900 14 17988373572523706156
23598288 3 18335999600782156123
23598291 2 18114471054543021764
23728640 28 18341889637211909131
2748010 2 17840300357330777497
463206 1 17905035207675032938
58807428 26 17981898436498548361
603831 33 18337399347962222572
6992083 37 18189058598824266700
7064713 232 18125427615099943234
7097593 13 18336263436544479248
7615 1 18260269663825323220
77492 1 18186810175023681248
81228 2 18129680680594860705
9709674 26 18130797737058279614
9862522 239 17757264886360194733

>  <PUBCHEM_SHAPE_MULTIPOLES>  (1) 
372.27
7.54
3.2
1.55
7.28
1.14
0.64
2.63
-1.02
-2.13
-0.63
1.38
0.24
-2.5

>  <PUBCHEM_SHAPE_SELFOVERLAP>  (1) 
762.656

>  <PUBCHEM_SHAPE_VOLUME>  (1) 
220.1

>  <PUBCHEM_COORDINATE_TYPE>  (1) 
2
5
10

$$$$
