39716
     RDKit          3D

 21 22  0  0  0  0  0  0  0  0999 V2000
    2.6110    1.6139   -1.0431 S   0  0  0  0  0  0  0  0  0  0  0  0
   -0.2453    1.2096   -0.6543 O   0  0  0  0  0  0  0  0  0  0  0  0
   -0.2822    1.9712    1.5315 O   0  0  0  0  0  0  0  0  0  0  0  0
    1.7257    2.0324    0.3648 N   0  0  0  0  0  0  0  0  0  0  0  0
   -3.8047   -1.9426    0.4749 C   0  0  0  0  0  0  0  0  0  0  0  0
   -3.3556   -0.6028   -0.0013 C   0  0  0  0  0  0  0  0  0  0  0  0
   -3.3464   -2.2398    1.9153 C   0  0  0  0  0  0  0  0  0  0  0  0
   -3.3566   -3.0813   -0.4610 C   0  0  0  0  0  0  0  0  0  0  0  0
   -1.9938   -0.3200   -0.1067 C   0  0  0  0  0  0  0  0  0  0  0  0
   -4.2978    0.3681   -0.3412 C   0  0  0  0  0  0  0  0  0  0  0  0
   -1.5741    0.9334   -0.5519 C   0  0  0  0  0  0  0  0  0  0  0  0
   -3.8781    1.6216   -0.7864 C   0  0  0  0  0  0  0  0  0  0  0  0
   -2.5162    1.9041   -0.8919 C   0  0  0  0  0  0  0  0  0  0  0  0
    0.3592    1.7596    0.5022 C   0  0  0  0  0  0  0  0  0  0  0  0
    3.1539   -0.0282   -0.5886 C   0  0  0  0  0  0  0  0  0  0  0  0
    2.4967    2.5999    1.4621 C   0  0  0  0  0  0  0  0  0  0  0  0
    2.3635   -1.1301   -0.9031 C   0  0  0  0  0  0  0  0  0  0  0  0
    4.3646   -0.1966    0.0773 C   0  0  0  0  0  0  0  0  0  0  0  0
    2.7874   -2.4109   -0.5487 C   0  0  0  0  0  0  0  0  0  0  0  0
    4.7886   -1.4773    0.4315 C   0  0  0  0  0  0  0  0  0  0  0  0
    3.9999   -2.5845    0.1186 C   0  0  0  0  0  0  0  0  0  0  0  0
  1  4  1  0
  1 15  1  0
  2 11  1  0
  2 14  1  0
  3 14  2  0
  4 14  1  0
  4 16  1  0
  5  6  1  0
  5  7  1  0
  5  8  1  0
  6  9  2  0
  6 10  1  0
  9 11  1  0
 10 12  2  0
 11 13  2  0
 12 13  1  0
 15 17  2  0
 15 18  1  0
 17 19  1  0
 18 20  2  0
 19 21  2  0
 20 21  1  0
M  END
>  <PUBCHEM_COMPOUND_CID>  (1) 
39716

>  <PUBCHEM_CONFORMER_RMSD>  (1) 
1

>  <PUBCHEM_CONFORMER_DIVERSEORDER>  (1) 
1
39
57
104
81
27
74
107
26
54
23
35
11
80
103
24
116
111
84
106
108
133
6
29
10
87
138
41
121
72
136
50
44
30
17
38
40
110
18
137
34
31
96
62
99
15
22
42
58
94
19
114
125
59
52
70
46
21
130
47
93
123
82
92
32
20
135
105
69
88
28
56
126
109
134
68
90
139
115
101
95
66
77
78
120
3
12
2
100
16
83
13
112
117
36
64
37
45
75
129
97
8
76
127
61
85
33
5
55
132
71
124
14
89
51
53
43
102
49
4
118
73
65
79
91
67
86
25
122
98
63
60
48
7
131
9
119
113
128

>  <PUBCHEM_MMFF94_PARTIAL_CHARGES>  (1) 
28
1 -0.09
10 -0.15
11 0.08
12 -0.15
13 -0.15
14 0.78
15 0.1
16 0.3
17 -0.15
18 -0.15
19 -0.15
2 -0.23
20 -0.15
21 -0.15
29 0.15
3 -0.57
30 0.15
31 0.15
32 0.15
36 0.15
37 0.15
38 0.15
39 0.15
4 -0.37
40 0.15
5 0.14
6 -0.14
9 -0.15

>  <PUBCHEM_EFFECTIVE_ROTOR_COUNT>  (1) 
6

>  <PUBCHEM_PHARMACOPHORE_FEATURES>  (1) 
4
1 3 acceptor
3 5 7 8 hydrophobe
6 15 17 18 19 20 21 rings
6 6 9 10 11 12 13 rings

>  <PUBCHEM_HEAVY_ATOM_COUNT>  (1) 
21

>  <PUBCHEM_ATOM_DEF_STEREO_COUNT>  (1) 
0

>  <PUBCHEM_ATOM_UDEF_STEREO_COUNT>  (1) 
0

>  <PUBCHEM_BOND_DEF_STEREO_COUNT>  (1) 
0

>  <PUBCHEM_BOND_UDEF_STEREO_COUNT>  (1) 
0

>  <PUBCHEM_ISOTOPIC_ATOM_COUNT>  (1) 
0

>  <PUBCHEM_COMPONENT_COUNT>  (1) 
1

>  <PUBCHEM_CACTVS_TAUTO_COUNT>  (1) 
1

>  <PUBCHEM_CONFORMER_ID>  (1) 
00009B2400000001

>  <PUBCHEM_MMFF94_ENERGY>  (1) 
59.0915

>  <PUBCHEM_FEATURE_SELFOVERLAP>  (1) 
20.297

>  <PUBCHEM_SHAPE_FINGERPRINT>  (1) 
10670039 82 11023529351109305938
11405975 8 18412265047315979337
117890 22 18411422855584003983
11796584 16 18114738231605239674
12506688 2 18413110541634588316
12549972 3 18200861942433118641
12553582 1 18058466330223150668
12596599 1 17916886697428655519
12596602 18 15769477807523635447
12633257 1 17988379151464651291
13402501 40 18409449159245434655
13533116 47 18272087232228117245
13583140 156 18129654330759743493
14251751 18 18333447647152771882
14251757 17 18408319977803886075
14866123 147 17621602713729720537
15352361 1 18410572843001698726
20626108 58 18040425586827269864
20645477 70 17846213388419263349
20681651 13 17559394863050092363
20775530 9 18335426780788679582
21065198 57 18410852174731985765
21250096 35 18271238305845269996
221490 88 18335426793889333124
23559900 14 18335978739910351652
2637199 183 9367045797557434492
26918003 58 18339355250219720438
4015057 19 18271225171930640389
44062 13 18261112933061086407
445580 102 18341901796158893790
463206 1 17459750311680860850
4921388 177 16878237419358759947
5104073 3 18411420622000635032
5309563 4 17686634841036669483
633830 44 15647062559516902421
6433294 58 18338800125449331638
7399639 24 17979065308382337049
9709674 26 18260831544004541231

>  <PUBCHEM_SHAPE_MULTIPOLES>  (1) 
419.3
10.06
3.65
1.26
1.17
1.11
-0.47
5.43
0.02
-0.02
-0.59
-0.23
-0.22
1.49

>  <PUBCHEM_SHAPE_SELFOVERLAP>  (1) 
863.596

>  <PUBCHEM_SHAPE_VOLUME>  (1) 
242.1

>  <PUBCHEM_COORDINATE_TYPE>  (1) 
2
5
10

$$$$
