39710
     RDKit          3D

 24 25  0  0  0  0  0  0  0  0999 V2000
    3.2626    2.4753   -0.5664 S   0  0  0  0  0  0  0  0  0  0  0  0
   -1.3014   -1.2305   -0.2572 O   0  0  0  0  0  0  0  0  0  0  0  0
   -1.3885    1.4733   -0.8978 O   0  0  0  0  0  0  0  0  0  0  0  0
   -0.5688    1.9469    1.2262 O   0  0  0  0  0  0  0  0  0  0  0  0
    0.5663    2.5933   -0.6916 N   0  0  0  0  0  0  0  0  0  0  0  0
   -1.4757   -2.3447   -1.1303 C   0  0  0  0  0  0  0  0  0  0  0  0
    3.0331   -0.2953   -0.7572 C   0  0  0  0  0  0  0  0  0  0  0  0
    3.0259    0.8232    0.0760 C   0  0  0  0  0  0  0  0  0  0  0  0
    2.6495   -1.7219    1.1546 C   0  0  0  0  0  0  0  0  0  0  0  0
    2.8447   -1.5679   -0.2180 C   0  0  0  0  0  0  0  0  0  0  0  0
   -2.4071   -0.4869    0.0260 C   0  0  0  0  0  0  0  0  0  0  0  0
    2.8305    0.6692    1.4485 C   0  0  0  0  0  0  0  0  0  0  0  0
   -0.6230   -2.1445   -2.3739 C   0  0  0  0  0  0  0  0  0  0  0  0
   -1.1089   -3.6225   -0.3911 C   0  0  0  0  0  0  0  0  0  0  0  0
    2.6424   -0.6034    1.9879 C   0  0  0  0  0  0  0  0  0  0  0  0
   -2.4790    0.8537   -0.2800 C   0  0  0  0  0  0  0  0  0  0  0  0
    3.2378   -0.1819   -2.2343 C   0  0  0  0  0  0  0  0  0  0  0  0
    2.4494   -3.0823    1.7317 C   0  0  0  0  0  0  0  0  0  0  0  0
   -3.5014   -1.0930    0.6432 C   0  0  0  0  0  0  0  0  0  0  0  0
    1.6941    3.2434   -0.0550 C   0  0  0  0  0  0  0  0  0  0  0  0
   -3.5890    1.6200   -0.0004 C   0  0  0  0  0  0  0  0  0  0  0  0
   -4.6396   -0.3426    0.9386 C   0  0  0  0  0  0  0  0  0  0  0  0
   -4.6833    1.0139    0.6168 C   0  0  0  0  0  0  0  0  0  0  0  0
   -0.4705    2.0050    0.0040 C   0  0  0  0  0  0  0  0  0  0  0  0
  1  8  1  0
  1 20  1  0
  2  6  1  0
  2 11  1  0
  3 16  1  0
  3 24  1  0
  4 24  2  0
  5 20  1  0
  5 24  1  0
  6 13  1  0
  6 14  1  0
  7  8  2  0
  7 10  1  0
  7 17  1  0
  8 12  1  0
  9 10  2  0
  9 15  1  0
  9 18  1  0
 11 16  2  0
 11 19  1  0
 12 15  2  0
 16 21  1  0
 19 22  2  0
 21 23  2  0
 22 23  1  0
M  END
>  <PUBCHEM_COMPOUND_CID>  (1) 
39710

>  <PUBCHEM_CONFORMER_RMSD>  (1) 
0.8

>  <PUBCHEM_CONFORMER_DIVERSEORDER>  (1) 
1
118
87
247
359
260
311
423
307
150
89
38
186
264
146
349
426
265
182
192
135
405
414
77
346
363
281
172
267
370
202
271
153
442
448
70
214
206
57
390
302
407
305
27
246
445
159
387
238
408
74
59
324
226
241
229
94
100
133
330
107
354
336
400
291
167
290
132
343
381
225
44
144
35
242
119
191
205
227
341
394
50
121
129
274
139
152
385
58
114
434
289
215
131
372
69
171
156
183
415
22
106
425
424
32
411
78
278
348
198
12
350
217
211
105
47
356
388
147
240
392
71
342
233
235
218
203
187
401
296
123
397
440
14
275
295
280
120
103
73
161
42
371
109
196
158
249
83
17
318
263
194
104
272
351
11
409
138
396
403
134
239
404
443
126
149
364
39
436
148
84
393
245
193
270
452
208
255
110
223
166
261
360
268
28
224
141
54
297
303
51
190
33
136
361
234
15
102
294
399
140
378
420
97
319
124
117
282
13
125
428
128
406
46
418
433
168
334
347
262
88
173
335
379
369
450
154
325
36
101
204
60
309
40
314
339
52
79
145
228
62
382
9
298
86
143
197
327
368
162
288
429
383
438
178
375
195
2
19
332
243
251
430
410
185
68
81
66
216
10
304
333
244
93
317
284
64
8
115
447
80
362
220
116
384
345
257
174
320
18
98
432
269
127
210
422
236
45
419
322
6
170
453
55
176
163
355
310
164
188
338
366
130
219
90
96
276
142
201
316
248
367
180
92
113
254
67
398
313
293
329
435
213
353
266
207
189
108
292
299
373
312
49
380
416
427
337
237
285
179
82
431
256
321
308
451
169
200
315
449
421
331
56
111
91
402
391
286
273
344
212
4
252
441
287
328
95
301
389
357
23
222
444
258
454
65
137
75
300
326
386
259
352
365
34
232
177
48
53
76
377
340
413
122
417
446
85
175
165
31
63
231
277
395
157
72
279
221
3
323
37
250
230
209
181
25
412
29
199
306
112
437
7
151
5
61
184
160
20
99
358
376
41
26
283
253
24
21
30
439
155
43
16
374

>  <PUBCHEM_MMFF94_PARTIAL_CHARGES>  (1) 
30
1 -0.33
10 -0.15
11 0.08
12 -0.15
15 -0.15
16 0.08
17 0.14
18 0.14
19 -0.15
2 -0.36
20 0.53
21 -0.15
22 -0.15
23 -0.15
24 0.78
26 0.15
27 0.15
3 -0.23
34 0.15
4 -0.57
41 0.15
44 0.15
45 0.15
46 0.15
47 0.37
5 -0.73
6 0.28
7 -0.14
8 0.1
9 -0.14

>  <PUBCHEM_EFFECTIVE_ROTOR_COUNT>  (1) 
8

>  <PUBCHEM_PHARMACOPHORE_FEATURES>  (1) 
6
1 2 acceptor
1 4 acceptor
1 5 donor
3 6 13 14 hydrophobe
6 11 16 19 21 22 23 rings
6 7 8 9 10 12 15 rings

>  <PUBCHEM_HEAVY_ATOM_COUNT>  (1) 
24

>  <PUBCHEM_ATOM_DEF_STEREO_COUNT>  (1) 
0

>  <PUBCHEM_ATOM_UDEF_STEREO_COUNT>  (1) 
0

>  <PUBCHEM_BOND_DEF_STEREO_COUNT>  (1) 
0

>  <PUBCHEM_BOND_UDEF_STEREO_COUNT>  (1) 
0

>  <PUBCHEM_ISOTOPIC_ATOM_COUNT>  (1) 
0

>  <PUBCHEM_COMPONENT_COUNT>  (1) 
1

>  <PUBCHEM_CACTVS_TAUTO_COUNT>  (1) 
2

>  <PUBCHEM_CONFORMER_ID>  (1) 
00009B1E00000001

>  <PUBCHEM_MMFF94_ENERGY>  (1) 
67.8033

>  <PUBCHEM_FEATURE_SELFOVERLAP>  (1) 
30.446

>  <PUBCHEM_SHAPE_FINGERPRINT>  (1) 
10616163 171 17981330310803696845
10759866 29 18114474357415116094
12156800 1 16170684124684827210
12553582 1 18336817654492063372
12788726 201 17917441873396540665
13140716 1 18122898991411228752
13583140 156 18040988545138647223
14178342 30 17981873456605231856
15403338 16 17461712901466422827
16110190 28 18339069403145930186
19026451 147 16833439158078640798
19319366 153 18041573502625994334
20442098 301 18270114746310800164
20905425 154 17765999784735160254
23558518 356 17544760491553450012
23559900 14 18059306365501670709
35225 105 13193700063779655150
57091435 65 18334573512868739642
6823239 73 18272386286163222356
7097593 13 18334564737844638298

>  <PUBCHEM_SHAPE_MULTIPOLES>  (1) 
475.17
7.88
3.98
1.79
5.38
0.78
-0.32
-1.15
1.65
-1.23
-0.25
-1.33
1.08
-1.29

>  <PUBCHEM_SHAPE_SELFOVERLAP>  (1) 
977.466

>  <PUBCHEM_SHAPE_VOLUME>  (1) 
275.8

>  <PUBCHEM_COORDINATE_TYPE>  (1) 
2
5
10

$$$$
