39726
     RDKit          3D

 16 18  0  0  0  0  0  0  0  0999 V2000
   -4.1424    1.3661   -0.0001 F   0  0  0  0  0  0  0  0  0  0  0  0
   -4.1424   -1.3661    0.0001 F   0  0  0  0  0  0  0  0  0  0  0  0
    0.5917    1.4269   -0.0001 O   0  0  0  0  0  0  0  0  0  0  0  0
    0.5917   -1.4269   -0.0002 O   0  0  0  0  0  0  0  0  0  0  0  0
   -0.5699    0.6970   -0.0001 C   0  0  0  0  0  0  0  0  0  0  0  0
   -0.5699   -0.6970   -0.0001 C   0  0  0  0  0  0  0  0  0  0  0  0
    1.7534    0.6971   -0.0001 C   0  0  0  0  0  0  0  0  0  0  0  0
    1.7534   -0.6971    0.0000 C   0  0  0  0  0  0  0  0  0  0  0  0
   -1.7750    1.3984    0.0002 C   0  0  0  0  0  0  0  0  0  0  0  0
   -1.7751   -1.3985   -0.0001 C   0  0  0  0  0  0  0  0  0  0  0  0
    2.9586    1.3984   -0.0001 C   0  0  0  0  0  0  0  0  0  0  0  0
    2.9586   -1.3984    0.0001 C   0  0  0  0  0  0  0  0  0  0  0  0
   -2.9816    0.6980    0.0002 C   0  0  0  0  0  0  0  0  0  0  0  0
   -2.9816   -0.6980    0.0000 C   0  0  0  0  0  0  0  0  0  0  0  0
    4.1652    0.6980    0.0001 C   0  0  0  0  0  0  0  0  0  0  0  0
    4.1652   -0.6980    0.0002 C   0  0  0  0  0  0  0  0  0  0  0  0
  1 13  1  0
  2 14  1  0
  3  5  1  0
  3  7  1  0
  4  6  1  0
  4  8  1  0
  5  6  2  0
  5  9  1  0
  6 10  1  0
  7  8  2  0
  7 11  1  0
  8 12  1  0
  9 13  2  0
 10 14  2  0
 11 15  2  0
 12 16  2  0
 13 14  1  0
 15 16  1  0
M  END
>  <PUBCHEM_COMPOUND_CID>  (1) 
39726

>  <PUBCHEM_CONFORMER_RMSD>  (1) 
0.4

>  <PUBCHEM_CONFORMER_DIVERSEORDER>  (1) 
1

>  <PUBCHEM_MMFF94_PARTIAL_CHARGES>  (1) 
22
1 -0.19
10 -0.15
11 -0.15
12 -0.15
13 0.19
14 0.19
15 -0.15
16 -0.15
17 0.15
18 0.15
19 0.15
2 -0.19
20 0.15
21 0.15
22 0.15
3 -0.17
4 -0.17
5 0.08
6 0.08
7 0.08
8 0.08
9 -0.15

>  <PUBCHEM_EFFECTIVE_ROTOR_COUNT>  (1) 
0.4

>  <PUBCHEM_PHARMACOPHORE_FEATURES>  (1) 
5
1 3 acceptor
1 4 acceptor
6 3 4 5 6 7 8 rings
6 5 6 9 10 13 14 rings
6 7 8 11 12 15 16 rings

>  <PUBCHEM_HEAVY_ATOM_COUNT>  (1) 
16

>  <PUBCHEM_ATOM_DEF_STEREO_COUNT>  (1) 
0

>  <PUBCHEM_ATOM_UDEF_STEREO_COUNT>  (1) 
0

>  <PUBCHEM_BOND_DEF_STEREO_COUNT>  (1) 
0

>  <PUBCHEM_BOND_UDEF_STEREO_COUNT>  (1) 
0

>  <PUBCHEM_ISOTOPIC_ATOM_COUNT>  (1) 
0

>  <PUBCHEM_COMPONENT_COUNT>  (1) 
1

>  <PUBCHEM_CACTVS_TAUTO_COUNT>  (1) 
1

>  <PUBCHEM_CONFORMER_ID>  (1) 
00009B2E00000001

>  <PUBCHEM_MMFF94_ENERGY>  (1) 
42.8035

>  <PUBCHEM_FEATURE_SELFOVERLAP>  (1) 
25.449

>  <PUBCHEM_SHAPE_FINGERPRINT>  (1) 
10062212 137 18411972551168213915
10411042 1 15672386903240130468
10608611 8 18410852170336577136
10967382 1 18410856590052863174
11132069 177 18411414003635165032
11471102 20 18411415090467573780
11806522 49 18337388365456643831
12032990 46 18411705382885568462
13221675 6 18410572877234648022
13296908 3 18410575084742336622
13380535 76 18411419488145086006
14144814 61 18410855456054786186
14325111 11 18410856568277359328
15196674 1 18410856564156296462
15219456 202 18412263934539193126
15442244 35 18194965136997665426
15536298 74 18342458145126817408
15775835 57 18409452466190495160
16945 1 18268148648048296088
17802600 8 18410568509268719248
17804303 29 18412830183212250516
18186145 218 17968092001953222174
18522853 276 18413388752109041497
19422 9 18410015437645048756
200 152 18060411430986045981
20510252 161 18272373065958544705
20645477 70 18341892944136240958
21267235 1 18410583902289395126
21501502 16 18410575088979151716
221490 88 18336554905804787466
23402539 116 18343293764915095980
23402655 69 18413669093372810556
23463225 33 18408885127091629804
23559900 14 18341891849631496250
2748010 2 18410856564203775878
2871803 45 18334006216165853999
3312278 4 18412827979899270097
335352 9 18266458698365200926
4214541 1 18410573968061454113
474 4 17096938073532133236
4990 188 18131081419943456164
5104073 3 18410573980914513592
53812653 166 18342452656085033208
57096353 35 18338517550839115734
69090 78 18342171159285235407
7364860 26 18343021078169524838
77779 3 18410857659188340618
8809292 202 18188495781946331619
9709674 26 18411143545281704294

>  <PUBCHEM_SHAPE_MULTIPOLES>  (1) 
302.99
7.74
1.75
0.59
0.16
0
0
0
0
0.24
0
-0.05
0
0

>  <PUBCHEM_SHAPE_SELFOVERLAP>  (1) 
685.873

>  <PUBCHEM_SHAPE_VOLUME>  (1) 
158.1

>  <PUBCHEM_COORDINATE_TYPE>  (1) 
2
5
10

$$$$
