39725
     RDKit          3D

 16 18  0  0  0  0  0  0  0  0999 V2000
   -4.5239    1.7306   -0.0005 Br  0  0  0  0  0  0  0  0  0  0  0  0
   -4.5237   -1.7307   -0.0009 Br  0  0  0  0  0  0  0  0  0  0  0  0
    0.6462    1.4269   -0.0001 O   0  0  0  0  0  0  0  0  0  0  0  0
    0.6462   -1.4269    0.0000 O   0  0  0  0  0  0  0  0  0  0  0  0
   -0.5154    0.6970    0.0001 C   0  0  0  0  0  0  0  0  0  0  0  0
   -0.5154   -0.6970    0.0001 C   0  0  0  0  0  0  0  0  0  0  0  0
    1.8079    0.6971   -0.0002 C   0  0  0  0  0  0  0  0  0  0  0  0
    1.8079   -0.6971    0.0000 C   0  0  0  0  0  0  0  0  0  0  0  0
   -1.7205    1.3984    0.0004 C   0  0  0  0  0  0  0  0  0  0  0  0
   -1.7206   -1.3985    0.0003 C   0  0  0  0  0  0  0  0  0  0  0  0
    3.0131    1.3984   -0.0003 C   0  0  0  0  0  0  0  0  0  0  0  0
    3.0131   -1.3984    0.0001 C   0  0  0  0  0  0  0  0  0  0  0  0
   -2.9271    0.6980    0.0006 C   0  0  0  0  0  0  0  0  0  0  0  0
   -2.9271   -0.6980    0.0005 C   0  0  0  0  0  0  0  0  0  0  0  0
    4.2197    0.6980   -0.0002 C   0  0  0  0  0  0  0  0  0  0  0  0
    4.2197   -0.6980    0.0000 C   0  0  0  0  0  0  0  0  0  0  0  0
  1 13  1  0
  2 14  1  0
  3  5  1  0
  3  7  1  0
  4  6  1  0
  4  8  1  0
  5  6  2  0
  5  9  1  0
  6 10  1  0
  7  8  2  0
  7 11  1  0
  8 12  1  0
  9 13  2  0
 10 14  2  0
 11 15  2  0
 12 16  2  0
 13 14  1  0
 15 16  1  0
M  END
>  <PUBCHEM_COMPOUND_CID>  (1) 
39725

>  <PUBCHEM_CONFORMER_RMSD>  (1) 
0.4

>  <PUBCHEM_CONFORMER_DIVERSEORDER>  (1) 
1

>  <PUBCHEM_MMFF94_PARTIAL_CHARGES>  (1) 
22
1 -0.11
10 -0.15
11 -0.15
12 -0.15
13 0.11
14 0.11
15 -0.15
16 -0.15
17 0.15
18 0.15
19 0.15
2 -0.11
20 0.15
21 0.15
22 0.15
3 -0.17
4 -0.17
5 0.08
6 0.08
7 0.08
8 0.08
9 -0.15

>  <PUBCHEM_EFFECTIVE_ROTOR_COUNT>  (1) 
0.4

>  <PUBCHEM_PHARMACOPHORE_FEATURES>  (1) 
7
1 1 hydrophobe
1 2 hydrophobe
1 3 acceptor
1 4 acceptor
6 3 4 5 6 7 8 rings
6 5 6 9 10 13 14 rings
6 7 8 11 12 15 16 rings

>  <PUBCHEM_HEAVY_ATOM_COUNT>  (1) 
16

>  <PUBCHEM_ATOM_DEF_STEREO_COUNT>  (1) 
0

>  <PUBCHEM_ATOM_UDEF_STEREO_COUNT>  (1) 
0

>  <PUBCHEM_BOND_DEF_STEREO_COUNT>  (1) 
0

>  <PUBCHEM_BOND_UDEF_STEREO_COUNT>  (1) 
0

>  <PUBCHEM_ISOTOPIC_ATOM_COUNT>  (1) 
0

>  <PUBCHEM_COMPONENT_COUNT>  (1) 
1

>  <PUBCHEM_CACTVS_TAUTO_COUNT>  (1) 
1

>  <PUBCHEM_CONFORMER_ID>  (1) 
00009B2D00000001

>  <PUBCHEM_MMFF94_ENERGY>  (1) 
46.9314

>  <PUBCHEM_FEATURE_SELFOVERLAP>  (1) 
35.598

>  <PUBCHEM_SHAPE_FINGERPRINT>  (1) 
10014705 185 18260264123417718749
10062212 137 18411691076265349795
10608611 8 18411133649555501088
10616163 171 18412546530687575647
10967382 1 18338516318352364710
11132069 177 18411133619458847744
11471102 20 18339640049321893436
11806522 49 18336826506430157943
12032990 46 18411141341831151350
13140716 1 18338792325619352176
13214271 11 18413668007078218711
13675066 3 18272930539728222129
14144814 61 18410855456070616938
14325111 11 18410856568272097568
15196674 1 18410575089037167494
15219456 202 18412545405210367479
15442244 35 18194682566799019530
15536298 74 18342176665781292928
16945 1 18194683665994006112
17492 89 18411418384397214743
17804303 29 18412830187354262988
18186145 218 17967810526892082998
18522853 276 18412826914763133403
19422 9 18409451396685499255
200 152 18059849584928909983
20510252 161 18343867723165200105
20645477 70 18271242716370787270
21267235 1 18410864286333882598
21501502 16 18410012139009899653
221490 88 18336834198463195691
23402539 116 18412819179321272661
23402655 69 18341611499282102604
23463225 33 18408886226624376068
23557571 272 18272942638725071583
23559900 14 18341891827966911574
2748010 2 18410856564203775886
2871803 45 18261668255263392175
3312278 4 18413390921436823625
335352 9 18266459806414028758
3545911 37 18411702054328222485
4214541 1 18410856551461474021
474 4 17096656598492106060
4990 188 18130796641852071196
5104073 3 18410854360621822720
633830 44 17240489091166164088
69090 78 18341045242367172719
7364860 26 18196653995411401806
77779 3 18410857663478033167
8809292 202 18188494695456827235
9709674 26 18410580590880347846

>  <PUBCHEM_SHAPE_MULTIPOLES>  (1) 
329.42
9.16
2.02
0.62
0.61
0
0
0
0
1.42
0
0.09
0
0

>  <PUBCHEM_SHAPE_SELFOVERLAP>  (1) 
706.837

>  <PUBCHEM_SHAPE_VOLUME>  (1) 
189.3

>  <PUBCHEM_COORDINATE_TYPE>  (1) 
2
5
10

$$$$
