39730
     RDKit          3D

 18 20  0  0  0  0  0  0  0  0999 V2000
   -5.0042    1.6173    0.0016 Cl  0  0  0  0  0  0  0  0  0  0  0  0
   -5.0038   -1.6180    0.0009 Cl  0  0  0  0  0  0  0  0  0  0  0  0
    4.7683    1.3660   -0.0005 F   0  0  0  0  0  0  0  0  0  0  0  0
    4.7680   -1.3664   -0.0001 F   0  0  0  0  0  0  0  0  0  0  0  0
    0.0337    1.4270   -0.0003 O   0  0  0  0  0  0  0  0  0  0  0  0
    0.0336   -1.4268   -0.0003 O   0  0  0  0  0  0  0  0  0  0  0  0
   -1.1280    0.6971   -0.0005 C   0  0  0  0  0  0  0  0  0  0  0  0
   -1.1280   -0.6969   -0.0004 C   0  0  0  0  0  0  0  0  0  0  0  0
    1.1953    0.6971   -0.0001 C   0  0  0  0  0  0  0  0  0  0  0  0
    1.1953   -0.6970    0.0001 C   0  0  0  0  0  0  0  0  0  0  0  0
   -2.3330    1.3986   -0.0005 C   0  0  0  0  0  0  0  0  0  0  0  0
   -2.3332   -1.3983   -0.0006 C   0  0  0  0  0  0  0  0  0  0  0  0
    2.4006    1.3985    0.0002 C   0  0  0  0  0  0  0  0  0  0  0  0
    2.4005   -1.3984    0.0005 C   0  0  0  0  0  0  0  0  0  0  0  0
   -3.5397    0.6982   -0.0006 C   0  0  0  0  0  0  0  0  0  0  0  0
   -3.5397   -0.6979   -0.0007 C   0  0  0  0  0  0  0  0  0  0  0  0
    3.6071    0.6980    0.0006 C   0  0  0  0  0  0  0  0  0  0  0  0
    3.6071   -0.6980    0.0008 C   0  0  0  0  0  0  0  0  0  0  0  0
  1 15  1  0
  2 16  1  0
  3 17  1  0
  4 18  1  0
  5  7  1  0
  5  9  1  0
  6  8  1  0
  6 10  1  0
  7  8  2  0
  7 11  1  0
  8 12  1  0
  9 10  2  0
  9 13  1  0
 10 14  1  0
 11 15  2  0
 12 16  2  0
 13 17  2  0
 14 18  2  0
 15 16  1  0
 17 18  1  0
M  END
>  <PUBCHEM_COMPOUND_CID>  (1) 
39730

>  <PUBCHEM_CONFORMER_RMSD>  (1) 
0.6

>  <PUBCHEM_CONFORMER_DIVERSEORDER>  (1) 
1

>  <PUBCHEM_MMFF94_PARTIAL_CHARGES>  (1) 
22
1 -0.18
10 0.08
11 -0.15
12 -0.15
13 -0.15
14 -0.15
15 0.18
16 0.18
17 0.19
18 0.19
19 0.15
2 -0.18
20 0.15
21 0.15
22 0.15
3 -0.19
4 -0.19
5 -0.17
6 -0.17
7 0.08
8 0.08
9 0.08

>  <PUBCHEM_EFFECTIVE_ROTOR_COUNT>  (1) 
0.4

>  <PUBCHEM_PHARMACOPHORE_FEATURES>  (1) 
5
1 5 acceptor
1 6 acceptor
6 5 6 7 8 9 10 rings
6 7 8 11 12 15 16 rings
6 9 10 13 14 17 18 rings

>  <PUBCHEM_HEAVY_ATOM_COUNT>  (1) 
18

>  <PUBCHEM_ATOM_DEF_STEREO_COUNT>  (1) 
0

>  <PUBCHEM_ATOM_UDEF_STEREO_COUNT>  (1) 
0

>  <PUBCHEM_BOND_DEF_STEREO_COUNT>  (1) 
0

>  <PUBCHEM_BOND_UDEF_STEREO_COUNT>  (1) 
0

>  <PUBCHEM_ISOTOPIC_ATOM_COUNT>  (1) 
0

>  <PUBCHEM_COMPONENT_COUNT>  (1) 
1

>  <PUBCHEM_CACTVS_TAUTO_COUNT>  (1) 
1

>  <PUBCHEM_CONFORMER_ID>  (1) 
00009B3200000001

>  <PUBCHEM_MMFF94_ENERGY>  (1) 
45.9669

>  <PUBCHEM_FEATURE_SELFOVERLAP>  (1) 
25.449

>  <PUBCHEM_SHAPE_FINGERPRINT>  (1) 
10014705 185 18261108552732462781
10062212 137 18412818084516347943
10608611 8 18410853265410780329
10967382 1 18338797818998704326
11132069 177 18411132532779348369
11471102 20 18411416207132683948
11806522 49 18336827593088415407
12032990 46 18410858762979176391
12107183 9 17762055441389349859
12236239 1 18113899364552530216
12403259 226 18410285913110885212
13167823 11 18411134744856525111
13675066 3 18343579663697578323
15196674 1 18410855460217832583
15442244 35 18194965141123860154
15536298 74 18413670214643864324
16945 1 18194118512653783685
17804303 29 18412547604423644005
18186145 218 17894624846708705950
200 152 18131347527453321775
20510252 161 18344149185272904577
20645477 70 18341896273168489894
21267235 1 18410864269127646135
221490 88 18336552715081283706
23402539 116 18342168956256981141
23402655 69 18342454837485249413
23463225 33 18408886235003346588
23557571 272 18201446908219541351
23559900 14 18341610378733468570
2871803 45 18260822722300211155
3004659 81 18334297535766587942
335352 9 18338516318104367359
34934 24 18410849958285611633
3545911 37 18410857629614329381
4214541 1 18410855447718143493
474 4 17314235642992641100
4990 188 18130795537950504582
5104073 3 18410855460175648505
633830 44 17603588534110167376
69090 78 18413385423820668911
77779 3 18410857659188340613
9709674 26 18410863169637253831
9981440 41 17180813376858372264

>  <PUBCHEM_SHAPE_MULTIPOLES>  (1) 
347.88
10.17
1.94
0.6
0.34
0
0
0
0
0.72
0
0.09
0
0

>  <PUBCHEM_SHAPE_SELFOVERLAP>  (1) 
764.156

>  <PUBCHEM_SHAPE_VOLUME>  (1) 
190.6

>  <PUBCHEM_COORDINATE_TYPE>  (1) 
2
5
10

$$$$
