39731
     RDKit          3D

 18 20  0  0  0  0  0  0  0  0999 V2000
   -5.1213    1.7307    0.0000 Br  0  0  0  0  0  0  0  0  0  0  0  0
   -5.1213   -1.7306   -0.0011 Br  0  0  0  0  0  0  0  0  0  0  0  0
    4.7828    1.3663   -0.0004 F   0  0  0  0  0  0  0  0  0  0  0  0
    4.7828   -1.3663    0.0003 F   0  0  0  0  0  0  0  0  0  0  0  0
    0.0483    1.4269   -0.0001 O   0  0  0  0  0  0  0  0  0  0  0  0
    0.0483   -1.4269    0.0000 O   0  0  0  0  0  0  0  0  0  0  0  0
   -1.1133    0.6970    0.0001 C   0  0  0  0  0  0  0  0  0  0  0  0
   -1.1133   -0.6970    0.0001 C   0  0  0  0  0  0  0  0  0  0  0  0
    1.2100    0.6971   -0.0002 C   0  0  0  0  0  0  0  0  0  0  0  0
    1.2100   -0.6971    0.0000 C   0  0  0  0  0  0  0  0  0  0  0  0
   -2.3184    1.3984    0.0004 C   0  0  0  0  0  0  0  0  0  0  0  0
   -2.3185   -1.3985    0.0002 C   0  0  0  0  0  0  0  0  0  0  0  0
    2.4152    1.3984   -0.0003 C   0  0  0  0  0  0  0  0  0  0  0  0
    2.4152   -1.3985    0.0002 C   0  0  0  0  0  0  0  0  0  0  0  0
   -3.5250    0.6980    0.0005 C   0  0  0  0  0  0  0  0  0  0  0  0
   -3.5250   -0.6980    0.0004 C   0  0  0  0  0  0  0  0  0  0  0  0
    3.6218    0.6980   -0.0001 C   0  0  0  0  0  0  0  0  0  0  0  0
    3.6218   -0.6980    0.0001 C   0  0  0  0  0  0  0  0  0  0  0  0
  1 15  1  0
  2 16  1  0
  3 17  1  0
  4 18  1  0
  5  7  1  0
  5  9  1  0
  6  8  1  0
  6 10  1  0
  7  8  2  0
  7 11  1  0
  8 12  1  0
  9 10  2  0
  9 13  1  0
 10 14  1  0
 11 15  2  0
 12 16  2  0
 13 17  2  0
 14 18  2  0
 15 16  1  0
 17 18  1  0
M  END
>  <PUBCHEM_COMPOUND_CID>  (1) 
39731

>  <PUBCHEM_CONFORMER_RMSD>  (1) 
0.6

>  <PUBCHEM_CONFORMER_DIVERSEORDER>  (1) 
1

>  <PUBCHEM_MMFF94_PARTIAL_CHARGES>  (1) 
22
1 -0.11
10 0.08
11 -0.15
12 -0.15
13 -0.15
14 -0.15
15 0.11
16 0.11
17 0.19
18 0.19
19 0.15
2 -0.11
20 0.15
21 0.15
22 0.15
3 -0.19
4 -0.19
5 -0.17
6 -0.17
7 0.08
8 0.08
9 0.08

>  <PUBCHEM_EFFECTIVE_ROTOR_COUNT>  (1) 
0.4

>  <PUBCHEM_PHARMACOPHORE_FEATURES>  (1) 
7
1 1 hydrophobe
1 2 hydrophobe
1 5 acceptor
1 6 acceptor
6 5 6 7 8 9 10 rings
6 7 8 11 12 15 16 rings
6 9 10 13 14 17 18 rings

>  <PUBCHEM_HEAVY_ATOM_COUNT>  (1) 
18

>  <PUBCHEM_ATOM_DEF_STEREO_COUNT>  (1) 
0

>  <PUBCHEM_ATOM_UDEF_STEREO_COUNT>  (1) 
0

>  <PUBCHEM_BOND_DEF_STEREO_COUNT>  (1) 
0

>  <PUBCHEM_BOND_UDEF_STEREO_COUNT>  (1) 
0

>  <PUBCHEM_ISOTOPIC_ATOM_COUNT>  (1) 
0

>  <PUBCHEM_COMPONENT_COUNT>  (1) 
1

>  <PUBCHEM_CACTVS_TAUTO_COUNT>  (1) 
1

>  <PUBCHEM_CONFORMER_ID>  (1) 
00009B3300000001

>  <PUBCHEM_MMFF94_ENERGY>  (1) 
47.0214

>  <PUBCHEM_FEATURE_SELFOVERLAP>  (1) 
35.598

>  <PUBCHEM_SHAPE_FINGERPRINT>  (1) 
10014705 185 18333447621752376101
10062212 137 18412818080226655391
10608611 8 18410853265405512072
10967382 1 18338798905604305222
11132069 177 18411132532774080113
11471102 20 18411416202811349388
11806522 49 18336827588814547119
12032990 46 18410858762984470627
12107183 9 17761773966407364459
12403259 226 18410287012622512996
12403259 415 18130503136413897881
12507560 40 18341330071560471113
13167823 11 18410853274232765055
13675066 3 18272647965303174211
15196674 1 18410855460260030597
15442244 35 18194965141155495666
15536298 74 18413670210369996034
17492 89 18411700950416937911
17804303 29 18412547608729160809
17834072 33 18341893017377167783
18186145 218 17894625941920078670
200 152 18131066056787428655
20510252 161 18343867710322541697
20645477 70 18413389826278575294
21236236 1 18412825790336250551
21267235 1 18410864269127659135
221490 88 18336271244262344842
23402539 116 18341888580860483021
23402655 69 18342173362519081773
23463225 33 18408886235029720356
23557571 272 18201165429042802423
23559900 14 18341891845072830314
2871803 45 18260822726621578219
3004659 81 18334297535724357438
335352 9 18338516318099092607
34934 24 18410849958290892881
350125 39 18411984702432385257
3545911 37 18411139100327734237
4214541 1 18410855447786728261
474 4 17314235642987353356
4990 188 18202570557341890478
5104073 3 18410854360669295473
633830 44 17675927603114269456
69090 78 18413385423857566183
77779 3 18410857663625726209
9709674 26 18410581694681655175
9981440 41 17180813376763439688

>  <PUBCHEM_SHAPE_MULTIPOLES>  (1) 
356.03
10.65
2.04
0.61
0.47
0
0
0
0
1.19
0
0.14
0
0

>  <PUBCHEM_SHAPE_SELFOVERLAP>  (1) 
769.257

>  <PUBCHEM_SHAPE_VOLUME>  (1) 
201.3

>  <PUBCHEM_COORDINATE_TYPE>  (1) 
2
5
10

$$$$
