39734
     RDKit          3D

 37 40  0  0  1  0  0  0  0  0999 V2000
   -7.3356   -2.1040    0.0925 O   0  0  0  0  0  0  0  0  0  0  0  0
    7.7263   -1.1489    0.8175 O   0  0  0  0  0  0  0  0  0  0  0  0
   -8.9166   -2.1296   -1.5917 O   0  0  0  0  0  0  0  0  0  0  0  0
    7.3228   -3.4233    0.8504 O   0  0  0  0  0  0  0  0  0  0  0  0
   -5.2191    0.9869    0.0455 N   0  0  0  0  0  0  0  0  0  0  0  0
    5.5744    0.6686   -1.6441 N   0  0  0  0  0  0  0  0  0  0  0  0
   -2.8728    0.5744    0.8826 C   0  0  0  0  0  0  0  0  0  0  0  0
   -1.8206    1.5490    1.4641 C   0  0  0  0  0  0  0  0  0  0  0  0
   -0.3580    1.0703    1.3184 C   0  0  0  0  0  0  0  0  0  0  0  0
   -0.0107    0.6152   -0.1231 C   0  0  0  0  0  0  0  0  0  0  0  0
    1.4876    0.1435   -0.2706 C   0  0  0  0  0  0  0  0  0  0  0  0
   -4.1206    1.4823    0.8978 C   0  0  0  0  0  0  0  0  0  0  0  0
    2.4183    1.2665    0.2786 C   0  0  0  0  0  0  0  0  0  0  0  0
   -2.4681    0.1097   -0.5369 C   0  0  0  0  0  0  0  0  0  0  0  0
   -1.0381   -0.4268   -0.6087 C   0  0  0  0  0  0  0  0  0  0  0  0
   -2.1510    2.9000    0.7966 C   0  0  0  0  0  0  0  0  0  0  0  0
    0.6265    2.1337    1.8272 C   0  0  0  0  0  0  0  0  0  0  0  0
   -3.6367    2.8486    0.4259 C   0  0  0  0  0  0  0  0  0  0  0  0
    2.0768    1.6785    1.7157 C   0  0  0  0  0  0  0  0  0  0  0  0
    1.8191   -0.0862   -1.7820 C   0  0  0  0  0  0  0  0  0  0  0  0
    3.9179    0.9305    0.1541 C   0  0  0  0  0  0  0  0  0  0  0  0
   -3.0851   -0.6436    1.7975 C   0  0  0  0  0  0  0  0  0  0  0  0
    4.2591    0.1868   -1.1403 C   0  0  0  0  0  0  0  0  0  0  0  0
    3.2118    0.3822   -2.2249 C   0  0  0  0  0  0  0  0  0  0  0  0
    1.7172   -1.1898    0.4906 C   0  0  0  0  0  0  0  0  0  0  0  0
   -5.7088   -0.3915    0.5196 C   0  0  0  0  0  0  0  0  0  0  0  0
   -6.4190    1.9484    0.0753 C   0  0  0  0  0  0  0  0  0  0  0  0
   -4.7646    0.8470   -1.4170 C   0  0  0  0  0  0  0  0  0  0  0  0
    6.6567    0.4872   -0.5756 C   0  0  0  0  0  0  0  0  0  0  0  0
    5.9896   -0.1155   -2.8927 C   0  0  0  0  0  0  0  0  0  0  0  0
    5.4973    2.1543   -2.0083 C   0  0  0  0  0  0  0  0  0  0  0  0
   -6.8545   -0.8464   -0.3629 C   0  0  0  0  0  0  0  0  0  0  0  0
    6.7485   -0.9786   -0.2001 C   0  0  0  0  0  0  0  0  0  0  0  0
   -8.3765   -2.6359   -0.6176 C   0  0  0  0  0  0  0  0  0  0  0  0
    7.9141   -2.4311    1.2543 C   0  0  0  0  0  0  0  0  0  0  0  0
   -8.7755   -3.9545   -0.0274 C   0  0  0  0  0  0  0  0  0  0  0  0
    8.9678   -2.4579    2.3198 C   0  0  0  0  0  0  0  0  0  0  0  0
  1 32  1  0
  1 34  1  0
  2 33  1  0
  2 35  1  0
  3 34  2  0
  4 35  2  0
  5 12  1  0
  5 26  1  0
  5 27  1  0
  5 28  1  0
  6 23  1  0
  6 29  1  0
  6 30  1  0
  6 31  1  0
  7  8  1  0
  7 12  1  0
  7 14  1  0
  7 22  1  0
  8  9  1  0
  8 16  1  0
  9 10  1  0
  9 17  1  0
 10 11  1  0
 10 15  1  0
 11 13  1  0
 11 20  1  0
 11 25  1  0
 12 18  1  0
 13 19  1  0
 13 21  1  0
 14 15  1  0
 16 18  1  0
 17 19  1  0
 20 24  1  0
 21 23  1  0
 23 24  1  0
 26 32  1  0
 29 33  1  0
 34 36  1  0
 35 37  1  0
M  CHG  2   5   1   6   1
M  END
>  <PUBCHEM_COMPOUND_CID>  (1) 
39734

>  <PUBCHEM_CONFORMER_RMSD>  (1) 
1.2

>  <PUBCHEM_CONFORMER_DIVERSEORDER>  (1) 
7
40
39
6
48
13
10
41
12
47
28
5
23
8
25
4
49
38
2
50
27
46
11
22
24
9
26
3
35
32
1
18
36
31
42
21
43
37
20
30
45
17
15
44
14
16
34
19
33
29

>  <PUBCHEM_MMFF94_PARTIAL_CHARGES>  (1) 
20
1 -0.43
12 0.5
2 -0.43
23 0.5
26 0.5
27 0.5
28 0.5
29 0.5
3 -0.57
30 0.5
31 0.5
32 0.28
33 0.28
34 0.66
35 0.66
36 0.06
37 0.06
4 -0.57
5 -1.01
6 -1.01

>  <PUBCHEM_EFFECTIVE_ROTOR_COUNT>  (1) 
12.2

>  <PUBCHEM_PHARMACOPHORE_FEATURES>  (1) 
8
1 3 acceptor
1 4 acceptor
1 5 cation
1 6 cation
5 7 8 12 16 18 rings
6 11 13 20 21 23 24 rings
6 7 8 9 10 14 15 rings
6 9 10 11 13 17 19 rings

>  <PUBCHEM_HEAVY_ATOM_COUNT>  (1) 
37

>  <PUBCHEM_ATOM_DEF_STEREO_COUNT>  (1) 
6

>  <PUBCHEM_ATOM_UDEF_STEREO_COUNT>  (1) 
2

>  <PUBCHEM_BOND_DEF_STEREO_COUNT>  (1) 
0

>  <PUBCHEM_BOND_UDEF_STEREO_COUNT>  (1) 
0

>  <PUBCHEM_ISOTOPIC_ATOM_COUNT>  (1) 
0

>  <PUBCHEM_COMPONENT_COUNT>  (1) 
1

>  <PUBCHEM_CACTVS_TAUTO_COUNT>  (1) 
1

>  <PUBCHEM_CONFORMER_ID>  (1) 
00009B3600000007

>  <PUBCHEM_MMFF94_ENERGY>  (1) 
187.4485

>  <PUBCHEM_FEATURE_SELFOVERLAP>  (1) 
40.791

>  <PUBCHEM_SHAPE_FINGERPRINT>  (1) 
10 15 16916774160247436986
10076449 9 17774453792603401645
10554248 39 17313116245877015126
11386260 185 16298390192948738662
11409948 41 17385995144994533506
11828532 37 18131064940417880682
12013929 112 12035727562422884794
12035758 1 16630520726855050728
12120059 9 17774433876665789087
12539765 74 9943811101481234676
13150687 139 16008465443593209867
13560911 43 17989207061976589776
13673619 4 17703515484623620257
13782708 43 18272942608586616109
13811026 1 17775566451300065961
13914758 101 17750239119160294436
14040221 8 11458690674779873338
14117953 113 13406791146929593511
14359421 15 18334851775938855323
14849402 71 12751221615555658370
15183329 4 18261971660875944476
15475509 8 14562824214251341596
1577012 14 18262253122904709468
16990366 60 18272649077731450251
18393751 57 16056298559404849546
18608769 82 18060424659675481935
20156587 128 17967524654971486343
2026 5 18261671467920652866
20737093 207 18115010940791921418
21057603 130 18188204301162319522
21130935 74 16988014782069206206
21267235 1 17489317416470987085
21315759 40 18259990357685550524
21521721 280 13542457649529926828
21792965 78 18113901546602555315
21987483 16 18272645797088508418
22149856 69 16414935079270299984
23559900 14 16917061161929867889
23569917 315 18340493279363348254
24771750 20 17629768030881405072
249057 25 18261969444604650444
2747138 104 16558757793174685944
3178227 256 16773805822084946359
3383291 50 17632860845415447295
3633792 109 17240479200389146971
4339292 15 18131060564025664407
504579 68 16950561121238921339
5109719 28 15410884168558856642
6204607 403 11671482548727864042
9962374 69 17059764646385453789
999808 66 17560529486567971375

>  <PUBCHEM_SHAPE_MULTIPOLES>  (1) 
728
27.07
3.36
2.12
3.22
2.2
-0.55
29.41
-1.51
3.63
1.13
-3.91
-0.05
-4.79

>  <PUBCHEM_SHAPE_SELFOVERLAP>  (1) 
1498.401

>  <PUBCHEM_SHAPE_VOLUME>  (1) 
417.3

>  <PUBCHEM_COORDINATE_TYPE>  (1) 
2
5
10

$$$$
