39732
     RDKit          3D

 18 20  0  0  0  0  0  0  0  0999 V2000
    2.5482   -3.0395   -0.0015 Cl  0  0  0  0  0  0  0  0  0  0  0  0
   -4.8944   -1.5254    0.0004 Cl  0  0  0  0  0  0  0  0  0  0  0  0
   -4.8917    1.7096    0.0001 Cl  0  0  0  0  0  0  0  0  0  0  0  0
    5.2113    1.6383   -0.0006 Cl  0  0  0  0  0  0  0  0  0  0  0  0
    0.1431   -1.3399    0.0002 O   0  0  0  0  0  0  0  0  0  0  0  0
    0.1463    1.5138   -0.0003 O   0  0  0  0  0  0  0  0  0  0  0  0
   -1.0177   -0.6087    0.0000 C   0  0  0  0  0  0  0  0  0  0  0  0
   -1.0161    0.7853   -0.0002 C   0  0  0  0  0  0  0  0  0  0  0  0
    1.3056   -0.6115    0.0004 C   0  0  0  0  0  0  0  0  0  0  0  0
    1.3072    0.7827    0.0000 C   0  0  0  0  0  0  0  0  0  0  0  0
   -2.2237   -1.3088    0.0000 C   0  0  0  0  0  0  0  0  0  0  0  0
   -2.2204    1.4881   -0.0003 C   0  0  0  0  0  0  0  0  0  0  0  0
    2.5100   -1.3142    0.0008 C   0  0  0  0  0  0  0  0  0  0  0  0
    2.5132    1.4826    0.0000 C   0  0  0  0  0  0  0  0  0  0  0  0
   -3.4294   -0.6070   -0.0001 C   0  0  0  0  0  0  0  0  0  0  0  0
   -3.4278    0.7890   -0.0003 C   0  0  0  0  0  0  0  0  0  0  0  0
    3.7174   -0.6152    0.0009 C   0  0  0  0  0  0  0  0  0  0  0  0
    3.7190    0.7808    0.0005 C   0  0  0  0  0  0  0  0  0  0  0  0
  1 13  1  0
  2 15  1  0
  3 16  1  0
  4 18  1  0
  5  7  1  0
  5  9  1  0
  6  8  1  0
  6 10  1  0
  7  8  2  0
  7 11  1  0
  8 12  1  0
  9 10  2  0
  9 13  1  0
 10 14  1  0
 11 15  2  0
 12 16  2  0
 13 17  2  0
 14 18  2  0
 15 16  1  0
 17 18  1  0
M  END
>  <PUBCHEM_COMPOUND_CID>  (1) 
39732

>  <PUBCHEM_CONFORMER_RMSD>  (1) 
0.6

>  <PUBCHEM_CONFORMER_DIVERSEORDER>  (1) 
1

>  <PUBCHEM_MMFF94_PARTIAL_CHARGES>  (1) 
22
1 -0.18
10 0.08
11 -0.15
12 -0.15
13 0.18
14 -0.15
15 0.18
16 0.18
17 -0.15
18 0.18
19 0.15
2 -0.18
20 0.15
21 0.15
22 0.15
3 -0.18
4 -0.18
5 -0.17
6 -0.17
7 0.08
8 0.08
9 0.08

>  <PUBCHEM_EFFECTIVE_ROTOR_COUNT>  (1) 
0.4

>  <PUBCHEM_PHARMACOPHORE_FEATURES>  (1) 
5
1 5 acceptor
1 6 acceptor
6 5 6 7 8 9 10 rings
6 7 8 11 12 15 16 rings
6 9 10 13 14 17 18 rings

>  <PUBCHEM_HEAVY_ATOM_COUNT>  (1) 
18

>  <PUBCHEM_ATOM_DEF_STEREO_COUNT>  (1) 
0

>  <PUBCHEM_ATOM_UDEF_STEREO_COUNT>  (1) 
0

>  <PUBCHEM_BOND_DEF_STEREO_COUNT>  (1) 
0

>  <PUBCHEM_BOND_UDEF_STEREO_COUNT>  (1) 
0

>  <PUBCHEM_ISOTOPIC_ATOM_COUNT>  (1) 
0

>  <PUBCHEM_COMPONENT_COUNT>  (1) 
1

>  <PUBCHEM_CACTVS_TAUTO_COUNT>  (1) 
1

>  <PUBCHEM_CONFORMER_ID>  (1) 
00009B3400000001

>  <PUBCHEM_MMFF94_ENERGY>  (1) 
48.2004

>  <PUBCHEM_FEATURE_SELFOVERLAP>  (1) 
25.449

>  <PUBCHEM_SHAPE_FINGERPRINT>  (1) 
10014705 185 18261107448894290645
10411042 1 17545883724475914890
10608611 8 18409727335454945469
10616163 171 18339644546021218815
10967382 1 18410855468945131586
11471102 20 18411416198563848372
11578080 2 17097196239546976150
11806522 49 18336826489313468855
12107183 9 17764875688946768825
13140716 1 18266743476150857963
13380535 76 18334858359357899850
13675066 3 17968669224436330993
14790565 3 18265622172360889868
15196674 1 18410575076089001063
15375358 24 18333732437696503026
15442244 35 18123753054273911266
15536298 74 18341895164945218198
16945 1 18338517563676537766
17492 89 18411699846794939655
1813 80 17022910029738766581
18186145 218 17821727187370023215
200 152 18130784586063539253
20510252 161 18343867705980179585
20645477 70 18270962345190154646
21267235 1 18410864282007182350
21421861 104 17896591787554609178
21501502 16 18411700941646726379
21618674 54 18410291402321234431
221490 88 18337398144991974082
23366157 5 18041564629350226130
23402539 116 18412820308961273861
23402655 69 18342736312483124037
23463225 33 18410292475820276902
23557571 272 18201446916572008157
23559900 14 18268987583973820242
2748010 2 18409729521608876686
2871803 45 18408038532818242311
296302 2 18334013895350945449
335352 9 18122624951059460543
33824 294 18409448102926059978
34934 24 18412258432691342244
350125 39 18409729522495080300
3545911 37 18410294692308563045
4214541 1 18410855447739333445
474 4 17749956677784027524
474229 33 18337109098282903922
4990 188 18060431213747992316
5104073 3 18409729538846742907
69090 78 18412821357328595013
7364860 26 18341050705961569294
77779 3 18410857642282791019
9709674 26 18408891732488178115

>  <PUBCHEM_SHAPE_MULTIPOLES>  (1) 
366.17
10.06
2.5
0.62
2.34
1.11
0
-2.25
0
-0.87
0
0.01
0
0

>  <PUBCHEM_SHAPE_SELFOVERLAP>  (1) 
780.37

>  <PUBCHEM_SHAPE_VOLUME>  (1) 
207.2

>  <PUBCHEM_COORDINATE_TYPE>  (1) 
2
5
10

$$$$
