39748
     RDKit          3D

 22 24  0  0  1  0  0  0  0  0999 V2000
   -2.2967    0.0165    0.1434 O   0  0  0  0  0  0  0  0  0  0  0  0
   -3.7820    2.4693    0.0780 O   0  0  0  0  0  0  0  0  0  0  0  0
    0.3834   -1.0004    0.1532 N   0  0  0  0  0  0  0  0  0  0  0  0
   -2.0258   -1.3776    0.4460 C   0  0  0  0  0  0  0  0  0  0  0  0
   -3.2448   -2.2190    0.0366 C   0  0  0  0  0  0  0  0  0  0  0  0
   -0.7566   -1.8010   -0.2750 C   0  0  0  0  0  0  0  0  0  0  0  0
   -4.2781   -1.1597    0.0538 C   0  0  0  0  0  0  0  0  0  0  0  0
   -3.6654    0.0836    0.0896 C   0  0  0  0  0  0  0  0  0  0  0  0
    1.5985   -1.4168   -0.5332 C   0  0  0  0  0  0  0  0  0  0  0  0
    2.7905   -0.5928   -0.0491 C   0  0  0  0  0  0  0  0  0  0  0  0
   -5.6544   -1.2706   -0.0190 C   0  0  0  0  0  0  0  0  0  0  0  0
   -4.3912    1.2581    0.0507 C   0  0  0  0  0  0  0  0  0  0  0  0
    4.0820   -1.0309   -0.7443 C   0  0  0  0  0  0  0  0  0  0  0  0
   -6.4103   -0.0956   -0.0460 C   0  0  0  0  0  0  0  0  0  0  0  0
   -5.7824    1.1607   -0.0129 C   0  0  0  0  0  0  0  0  0  0  0  0
    5.2612   -0.2015   -0.3042 C   0  0  0  0  0  0  0  0  0  0  0  0
    5.5786    0.9556   -1.0000 C   0  0  0  0  0  0  0  0  0  0  0  0
    6.0108   -0.6088    0.7896 C   0  0  0  0  0  0  0  0  0  0  0  0
   -4.6214    3.6251    0.0336 C   0  0  0  0  0  0  0  0  0  0  0  0
    6.6702    1.7228   -0.5930 C   0  0  0  0  0  0  0  0  0  0  0  0
    7.1022    0.1585    1.1967 C   0  0  0  0  0  0  0  0  0  0  0  0
    7.4319    1.3243    0.5054 C   0  0  0  0  0  0  0  0  0  0  0  0
  1  4  1  0
  1  8  1  0
  2 12  1  0
  2 19  1  0
  3  6  1  0
  3  9  1  0
  4  5  1  0
  4  6  1  0
  5  7  1  0
  7  8  2  0
  7 11  1  0
  8 12  1  0
  9 10  1  0
 10 13  1  0
 11 14  2  0
 12 15  2  0
 13 16  1  0
 14 15  1  0
 16 17  2  0
 16 18  1  0
 17 20  1  0
 18 21  2  0
 20 22  2  0
 21 22  1  0
M  END
>  <PUBCHEM_COMPOUND_CID>  (1) 
39748

>  <PUBCHEM_CONFORMER_RMSD>  (1) 
0.8

>  <PUBCHEM_CONFORMER_DIVERSEORDER>  (1) 
1
85
48
132
26
33
137
99
76
112
46
142
106
50
55
15
114
39
96
120
94
14
25
77
4
49
2
107
84
74
140
109
10
47
134
36
63
43
141
12
72
95
86
69
30
89
136
119
133
70
44
105
24
13
9
117
103
45
11
113
135
38
28
138
91
20
97
127
60
131
130
104
92
82
90
3
73
58
102
8
80
115
34
64
139
53
122
75
100
6
111
116
17
61
123
108
78
81
65
68
29
35
79
57
124
52
22
59
19
18
129
41
83
40
27
143
51
144
101
42
37
88
62
71
66
32
31
121
128
87
54
110
21
23
125
93
5
16
98
126
7
118
67
56

>  <PUBCHEM_MMFF94_PARTIAL_CHARGES>  (1) 
30
1 -0.36
11 -0.15
12 0.08
13 0.14
14 -0.15
15 -0.15
16 -0.14
17 -0.15
18 -0.15
19 0.28
2 -0.36
20 -0.15
21 -0.15
22 -0.15
28 0.36
3 -0.9
33 0.15
36 0.15
37 0.15
38 0.15
39 0.15
4 0.28
43 0.15
44 0.15
45 0.15
5 0.14
6 0.27
7 -0.14
8 0.08
9 0.27

>  <PUBCHEM_EFFECTIVE_ROTOR_COUNT>  (1) 
7.6

>  <PUBCHEM_PHARMACOPHORE_FEATURES>  (1) 
7
1 1 acceptor
1 2 acceptor
1 3 cation
1 3 donor
5 1 4 5 7 8 rings
6 16 17 18 20 21 22 rings
6 7 8 11 12 14 15 rings

>  <PUBCHEM_HEAVY_ATOM_COUNT>  (1) 
22

>  <PUBCHEM_ATOM_DEF_STEREO_COUNT>  (1) 
0

>  <PUBCHEM_ATOM_UDEF_STEREO_COUNT>  (1) 
1

>  <PUBCHEM_BOND_DEF_STEREO_COUNT>  (1) 
0

>  <PUBCHEM_BOND_UDEF_STEREO_COUNT>  (1) 
0

>  <PUBCHEM_ISOTOPIC_ATOM_COUNT>  (1) 
0

>  <PUBCHEM_COMPONENT_COUNT>  (1) 
1

>  <PUBCHEM_CACTVS_TAUTO_COUNT>  (1) 
1

>  <PUBCHEM_CONFORMER_ID>  (1) 
00009B4400000001

>  <PUBCHEM_MMFF94_ENERGY>  (1) 
58.4188

>  <PUBCHEM_FEATURE_SELFOVERLAP>  (1) 
35.625

>  <PUBCHEM_SHAPE_FINGERPRINT>  (1) 
10 15 18260554441230886474
10076449 9 17489304231523028511
10087517 78 18407758131905141757
10411042 1 17978511168351526963
10595046 47 18409165498130467723
10816530 145 17458063798488046599
10883706 163 18187645777933336477
11315181 36 17968096456266987091
11578080 2 13613144088106683001
11761917 142 18269549443106386432
11991303 11 16917064512104300806
125118 31 18407479955690089612
12596602 18 17385726932301130970
12616971 3 14418138460823834618
13073987 5 18334296431190340427
13167372 99 18335420162950354048
13288520 33 9511461122169432251
13403585 85 18411419514299686887
13911987 19 16845292726749674951
14251764 18 18113336444621844606
14598715 104 18059841892790553344
14933364 13 18412266142738088662
15183329 4 18410860975388818752
15348495 7 14924235979381357924
15419008 145 18187915146383338576
155225 5 18268431230911421809
16079462 125 17774996899929169962
16126227 98 18127981811193645705
16989713 51 17344622875645837079
20058555 10 18411419522916709796
20281389 69 18408604751716269650
21150785 3 12175621802774406306
21315763 28 18409448090114952546
220451 1 11167949060613263582
22122407 14 18115319993848129472
23035841 295 9439409025077505790
23559900 14 18271238421857184897
2748736 6 18411131399266964196
2838139 119 18271798038894527916
34797466 226 17775015617343586764
3663271 9 17894628193216405682
4073 2 18040722515170938010
44249763 50 17560223839035614790
465052 167 11386361544366868122
5104073 3 18041283149387634339
59682541 35 18262248793914811531
6327066 14 18191581944531483133
636775 72 18413106191012754456
9981440 41 18260839167994193595

>  <PUBCHEM_SHAPE_MULTIPOLES>  (1) 
436.03
23.27
2.67
0.84
26.02
2.18
0.03
9.95
2.04
-4.01
-0.09
1.25
0.01
-0.21

>  <PUBCHEM_SHAPE_SELFOVERLAP>  (1) 
925.006

>  <PUBCHEM_SHAPE_VOLUME>  (1) 
244.8

>  <PUBCHEM_COORDINATE_TYPE>  (1) 
2
5
10

$$$$
