39744
     RDKit          3D

 14 13  0  0  0  0  0  0  0  0999 V2000
    7.1049    0.6650   -0.2618 Cl  0  0  0  0  0  0  0  0  0  0  0  0
   -4.3074   -0.4341   -0.0353 O   0  0  0  0  0  0  0  0  0  0  0  0
    3.1080   -1.5542    0.0914 O   0  0  0  0  0  0  0  0  0  0  0  0
   -3.2921    1.6353    0.0479 O   0  0  0  0  0  0  0  0  0  0  0  0
    0.5736   -0.3940    0.1728 C   0  0  0  0  0  0  0  0  0  0  0  0
   -0.7033    0.4515    0.1590 C   0  0  0  0  0  0  0  0  0  0  0  0
    1.8206    0.4860    0.1108 C   0  0  0  0  0  0  0  0  0  0  0  0
   -1.9698   -0.4043    0.1426 C   0  0  0  0  0  0  0  0  0  0  0  0
    3.1070   -0.3244    0.0732 C   0  0  0  0  0  0  0  0  0  0  0  0
    4.3905    0.4893   -0.0213 C   0  0  0  0  0  0  0  0  0  0  0  0
   -3.2399    0.4132    0.0579 C   0  0  0  0  0  0  0  0  0  0  0  0
    5.6505   -0.3560   -0.1369 C   0  0  0  0  0  0  0  0  0  0  0  0
   -5.5864    0.1970   -0.1541 C   0  0  0  0  0  0  0  0  0  0  0  0
   -6.6562   -0.8702   -0.2465 C   0  0  0  0  0  0  0  0  0  0  0  0
  1 12  1  0
  2 11  1  0
  2 13  1  0
  3  9  2  0
  4 11  2  0
  5  6  1  0
  5  7  1  0
  6  8  1  0
  7  9  1  0
  8 11  1  0
  9 10  1  0
 10 12  1  0
 13 14  1  0
M  END
>  <PUBCHEM_COMPOUND_CID>  (1) 
39744

>  <PUBCHEM_CONFORMER_RMSD>  (1) 
1

>  <PUBCHEM_CONFORMER_DIVERSEORDER>  (1) 
1
86
91
159
205
56
22
184
10
50
345
83
274
49
423
13
42
178
453
479
24
391
243
43
404
192
485
38
487
12
334
185
96
55
194
119
81
76
376
285
475
111
271
240
2
107
412
219
298
7
236
276
72
46
282
78
458
164
437
349
481
67
433
524
493
64
66
100
53
29
14
319
308
181
33
429
71
121
313
62
272
534
122
6
466
25
277
478
32
163
323
170
17
216
162
35
16
77
257
40
45
11
21
8
229
4

>  <PUBCHEM_MMFF94_PARTIAL_CHARGES>  (1) 
11
1 -0.29
10 0.06
11 0.66
12 0.29
13 0.28
2 -0.43
3 -0.57
4 -0.57
7 0.06
8 0.06
9 0.45

>  <PUBCHEM_EFFECTIVE_ROTOR_COUNT>  (1) 
9

>  <PUBCHEM_PHARMACOPHORE_FEATURES>  (1) 
3
1 3 acceptor
1 4 acceptor
4 5 6 7 8 hydrophobe

>  <PUBCHEM_HEAVY_ATOM_COUNT>  (1) 
14

>  <PUBCHEM_ATOM_DEF_STEREO_COUNT>  (1) 
0

>  <PUBCHEM_ATOM_UDEF_STEREO_COUNT>  (1) 
0

>  <PUBCHEM_BOND_DEF_STEREO_COUNT>  (1) 
0

>  <PUBCHEM_BOND_UDEF_STEREO_COUNT>  (1) 
0

>  <PUBCHEM_ISOTOPIC_ATOM_COUNT>  (1) 
0

>  <PUBCHEM_COMPONENT_COUNT>  (1) 
1

>  <PUBCHEM_CACTVS_TAUTO_COUNT>  (1) 
3

>  <PUBCHEM_CONFORMER_ID>  (1) 
00009B4000000001

>  <PUBCHEM_MMFF94_ENERGY>  (1) 
7.0776

>  <PUBCHEM_FEATURE_SELFOVERLAP>  (1) 
15.223

>  <PUBCHEM_SHAPE_FINGERPRINT>  (1) 
10968037 39 18408885148798574871
11089746 13 13406795549296977455
12091667 2 18186802479037982993
12714333 28 17167861967485150028
13288520 33 18273494594416581813
13533116 47 16153694398430518856
14123238 8 18408040701786957937
14123256 10 18408886247708841958
1420 363 16200434675827749294
14251718 22 18410855455833194497
14251732 16 18410855490214044936
14251764 18 18408885131270539712
14251764 46 18410855468728658886
14729087 3 12901536954032193039
17834072 33 18411417332097597932
17834076 25 18335421270698521012
20281389 69 17530679914489822588
20645477 70 18339643318056301926
20767249 213 18040718082399918060
22224240 67 17967529104214511874
22896161 15 18411699915165373311
23035841 295 14333408947787808116
23402539 116 18411414012826376077
23521765 1 18341895198946169454
23559900 14 18337667637072959905
28498 318 8718559311262522352
300161 21 15791729719814979456
33684 2 18333730221303409067
3545911 37 18412262848160445538
42788 4 18411418410340117441
57583515 80 12901545745650594101
7062679 117 18411699915709010623
8209 1 18410573993746666996

>  <PUBCHEM_SHAPE_MULTIPOLES>  (1) 
272.38
18.55
1.08
0.62
1.39
0.02
-0.01
-0.31
-2.35
-0.15
0.01
0.05
0
-0.19

>  <PUBCHEM_SHAPE_SELFOVERLAP>  (1) 
497.422

>  <PUBCHEM_SHAPE_VOLUME>  (1) 
172.9

>  <PUBCHEM_COORDINATE_TYPE>  (1) 
2
5
10

$$$$
