39740
     RDKit          3D

 15 17  0  0  0  0  0  0  0  0999 V2000
    2.7109    2.6270   -0.0005 Cl  0  0  0  0  0  0  0  0  0  0  0  0
    1.1034    0.3756    0.0001 C   0  0  0  0  0  0  0  0  0  0  0  0
    0.9438   -1.0276   -0.0001 C   0  0  0  0  0  0  0  0  0  0  0  0
   -1.3312    0.6523    0.0001 C   0  0  0  0  0  0  0  0  0  0  0  0
   -1.4907   -0.7508    0.0000 C   0  0  0  0  0  0  0  0  0  0  0  0
   -0.0363    1.1972    0.0001 C   0  0  0  0  0  0  0  0  0  0  0  0
   -0.3510   -1.5724   -0.0002 C   0  0  0  0  0  0  0  0  0  0  0  0
    2.3985    0.9197    0.0002 C   0  0  0  0  0  0  0  0  0  0  0  0
    2.0839   -1.8484   -0.0001 C   0  0  0  0  0  0  0  0  0  0  0  0
   -2.4711    1.4731    0.0001 C   0  0  0  0  0  0  0  0  0  0  0  0
   -2.7857   -1.2949    0.0000 C   0  0  0  0  0  0  0  0  0  0  0  0
    3.5202    0.0902    0.0002 C   0  0  0  0  0  0  0  0  0  0  0  0
    3.3631   -1.2920    0.0000 C   0  0  0  0  0  0  0  0  0  0  0  0
   -3.7503    0.9167    0.0000 C   0  0  0  0  0  0  0  0  0  0  0  0
   -3.9075   -0.4656   -0.0001 C   0  0  0  0  0  0  0  0  0  0  0  0
  1  8  1  0
  2  3  1  0
  2  6  2  0
  2  8  1  0
  3  7  2  0
  3  9  1  0
  4  5  2  0
  4  6  1  0
  4 10  1  0
  5  7  1  0
  5 11  1  0
  8 12  2  0
  9 13  2  0
 10 14  2  0
 11 15  2  0
 12 13  1  0
 14 15  1  0
M  END
>  <PUBCHEM_COMPOUND_CID>  (1) 
39740

>  <PUBCHEM_CONFORMER_RMSD>  (1) 
0.4

>  <PUBCHEM_CONFORMER_DIVERSEORDER>  (1) 
1

>  <PUBCHEM_MMFF94_PARTIAL_CHARGES>  (1) 
20
1 -0.18
10 -0.15
11 -0.15
12 -0.15
13 -0.15
14 -0.15
15 -0.15
16 0.15
17 0.15
18 0.15
19 0.15
20 0.15
21 0.15
22 0.15
23 0.15
24 0.15
6 -0.15
7 -0.15
8 0.18
9 -0.15

>  <PUBCHEM_EFFECTIVE_ROTOR_COUNT>  (1) 
0

>  <PUBCHEM_PHARMACOPHORE_FEATURES>  (1) 
3
6 2 3 4 5 6 7 rings
6 2 3 8 9 12 13 rings
6 4 5 10 11 14 15 rings

>  <PUBCHEM_HEAVY_ATOM_COUNT>  (1) 
15

>  <PUBCHEM_ATOM_DEF_STEREO_COUNT>  (1) 
0

>  <PUBCHEM_ATOM_UDEF_STEREO_COUNT>  (1) 
0

>  <PUBCHEM_BOND_DEF_STEREO_COUNT>  (1) 
0

>  <PUBCHEM_BOND_UDEF_STEREO_COUNT>  (1) 
0

>  <PUBCHEM_ISOTOPIC_ATOM_COUNT>  (1) 
0

>  <PUBCHEM_COMPONENT_COUNT>  (1) 
1

>  <PUBCHEM_CACTVS_TAUTO_COUNT>  (1) 
1

>  <PUBCHEM_CONFORMER_ID>  (1) 
00009B3C00000001

>  <PUBCHEM_MMFF94_ENERGY>  (1) 
47.67

>  <PUBCHEM_FEATURE_SELFOVERLAP>  (1) 
15.274

>  <PUBCHEM_SHAPE_FINGERPRINT>  (1) 
10411042 1 15528552404119791553
10608611 8 18409164411392666717
10967382 1 18338797930546437284
10980938 120 18412263964820222570
11132069 177 18411693275135299883
11471102 20 18410570665231486742
12032990 46 18410862027217839247
12251169 10 18410854334867868290
13140716 1 18410294704939984913
13221675 6 18410292488715962127
13380535 76 18410011052494313906
13897977 150 18410290337005905677
14144814 61 18410856529617268635
14325111 11 18410573993862873921
14790565 3 15245407268946136318
15196674 1 18410575071799321511
15219456 202 18410292527423227001
15442244 35 18267585702168315602
15536298 74 18342457049715030084
16945 1 18338797784533418950
17802600 8 18408598145576572509
17804303 29 18337959991059172438
18186145 218 18342179933850744989
193761 8 15528271722662413474
19591789 44 15884074750842178347
200 152 18059563686183324821
20559304 39 18410575076579618008
20645477 70 18413105052661317455
21267235 1 18410865351543787759
21501502 16 18411699915154719863
221490 88 18336836367685736058
2255824 54 18187086157053471530
22854114 111 18410012156374554072
2334 1 18410575131913006913
23366157 5 18040997367217627304
23402539 116 18272077271434138566
23402655 69 18341045225219160109
23463225 33 18409729538751757470
23559900 14 18341889663250335186
2748010 2 18409730676923378775
335352 9 18122343484508991757
474 4 17677336159435979076
5104073 3 18410576184311864219
53812653 166 18343578568628773480
57096353 35 18340204218998405135
69090 78 18342451530829988311
7364860 26 18341613741666513504
7832392 63 18196091045098901120
8809292 202 18261117374062642867
9709674 26 18411423920567465087
9981440 41 17831856129404373528

>  <PUBCHEM_SHAPE_MULTIPOLES>  (1) 
310.56
6.67
2.24
0.62
2.01
0.6
0
0.51
0
-1.3
0
-0.01
0.01
0

>  <PUBCHEM_SHAPE_SELFOVERLAP>  (1) 
692.844

>  <PUBCHEM_SHAPE_VOLUME>  (1) 
158.4

>  <PUBCHEM_COORDINATE_TYPE>  (1) 
2
5
10

$$$$
