39749
     RDKit          3D

  9  8  0  0  0  0  0  0  0  0999 V2000
    3.2119   -0.9221    0.3163 O   0  0  0  0  0  0  0  0  0  0  0  0
   -1.5231   -0.4413    0.5598 C   0  0  0  0  0  0  0  0  0  0  0  0
    0.9581   -0.1829   -0.0144 C   0  0  0  0  0  0  0  0  0  0  0  0
   -2.6377   -0.3718   -0.4868 C   0  0  0  0  0  0  0  0  0  0  0  0
   -0.2030   -0.8675   -0.0204 C   0  0  0  0  0  0  0  0  0  0  0  0
    1.1315    1.1865    0.6040 C   0  0  0  0  0  0  0  0  0  0  0  0
    2.1862   -0.7788   -0.6575 C   0  0  0  0  0  0  0  0  0  0  0  0
   -3.9748    0.0735    0.0886 C   0  0  0  0  0  0  0  0  0  0  0  0
    0.8508    2.3045   -0.3896 C   0  0  0  0  0  0  0  0  0  0  0  0
  1  7  1  0
  2  4  1  0
  2  5  1  0
  3  5  2  0
  3  6  1  0
  3  7  1  0
  4  8  1  0
  6  9  1  0
M  END
>  <PUBCHEM_COMPOUND_CID>  (1) 
39749

>  <PUBCHEM_CONFORMER_RMSD>  (1) 
0.6

>  <PUBCHEM_CONFORMER_DIVERSEORDER>  (1) 
3
27
35
23
19
33
32
34
12
25
5
29
36
11
17
6
24
26
8
37
22
28
31
1
9
7
30
20
4
10
14
2
21
16
15
13
18

>  <PUBCHEM_MMFF94_PARTIAL_CHARGES>  (1) 
8
1 -0.68
14 0.15
2 0.14
25 0.4
3 -0.28
5 -0.29
6 0.14
7 0.42

>  <PUBCHEM_EFFECTIVE_ROTOR_COUNT>  (1) 
4

>  <PUBCHEM_PHARMACOPHORE_FEATURES>  (1) 
4
1 1 acceptor
1 1 donor
1 8 hydrophobe
1 9 hydrophobe

>  <PUBCHEM_HEAVY_ATOM_COUNT>  (1) 
9

>  <PUBCHEM_ATOM_DEF_STEREO_COUNT>  (1) 
0

>  <PUBCHEM_ATOM_UDEF_STEREO_COUNT>  (1) 
0

>  <PUBCHEM_BOND_DEF_STEREO_COUNT>  (1) 
0

>  <PUBCHEM_BOND_UDEF_STEREO_COUNT>  (1) 
1

>  <PUBCHEM_ISOTOPIC_ATOM_COUNT>  (1) 
0

>  <PUBCHEM_COMPONENT_COUNT>  (1) 
1

>  <PUBCHEM_CACTVS_TAUTO_COUNT>  (1) 
1

>  <PUBCHEM_CONFORMER_ID>  (1) 
00009B4500000003

>  <PUBCHEM_MMFF94_ENERGY>  (1) 
1.0692

>  <PUBCHEM_FEATURE_SELFOVERLAP>  (1) 
20.297

>  <PUBCHEM_SHAPE_FINGERPRINT>  (1) 
10130415 120 18187645773727136498
10219947 1 18202565064184479966
11062470 55 14692567706745992587
12932741 1 17895478149742453291
12932764 1 17458330975476703299
14648413 74 18117564139412544633
19973954 147 18264491852868597009
20711985 344 17907601137343418486
21130352 189 18407755945539882565
23552423 10 18267581497453731791
9939556 21 18201434835256499847

>  <PUBCHEM_SHAPE_MULTIPOLES>  (1) 
179.35
5.21
1.64
0.79
4.21
1.22
0.01
-1.08
0.1
-1.16
0.16
-0.05
0.02
0.02

>  <PUBCHEM_SHAPE_SELFOVERLAP>  (1) 
321.838

>  <PUBCHEM_SHAPE_VOLUME>  (1) 
116.6

>  <PUBCHEM_COORDINATE_TYPE>  (1) 
2
5
10

$$$$
