39758
     RDKit          3D

 28 29  0  0  0  0  0  0  0  0999 V2000
   -6.9878    1.4501    0.1874 O   0  0  0  0  0  0  0  0  0  0  0  0
   -0.1797   -3.4740    0.9073 O   0  0  0  0  0  0  0  0  0  0  0  0
   -6.0392    0.5336   -1.7042 O   0  0  0  0  0  0  0  0  0  0  0  0
    3.7655    2.8353    0.8222 O   0  0  0  0  0  0  0  0  0  0  0  0
    6.4526   -0.7026   -0.9664 O   0  0  0  0  0  0  0  0  0  0  0  0
    6.2149    1.9112   -0.0819 O   0  0  0  0  0  0  0  0  0  0  0  0
   -4.4212   -0.9872   -0.0141 N   0  0  0  0  0  0  0  0  0  0  0  0
   -1.6928   -1.8661    0.1737 N   0  0  0  0  0  0  0  0  0  0  0  0
   -3.3455   -0.0156    0.2226 C   0  0  0  0  0  0  0  0  0  0  0  0
   -4.0950   -2.2693    0.6244 C   0  0  0  0  0  0  0  0  0  0  0  0
   -2.0084   -0.5216   -0.3253 C   0  0  0  0  0  0  0  0  0  0  0  0
   -2.7896   -2.8288    0.0638 C   0  0  0  0  0  0  0  0  0  0  0  0
   -5.6962   -0.4741    0.4856 C   0  0  0  0  0  0  0  0  0  0  0  0
   -0.4442   -2.3093    0.6040 C   0  0  0  0  0  0  0  0  0  0  0  0
   -6.2379    0.5340   -0.4969 C   0  0  0  0  0  0  0  0  0  0  0  0
    0.6435   -1.3148    0.6963 C   0  0  0  0  0  0  0  0  0  0  0  0
    1.7432   -1.5043   -0.0438 C   0  0  0  0  0  0  0  0  0  0  0  0
    2.9143   -0.6099   -0.0535 C   0  0  0  0  0  0  0  0  0  0  0  0
   -7.5762    2.4839   -0.6087 C   0  0  0  0  0  0  0  0  0  0  0  0
    4.1465   -1.0789   -0.5093 C   0  0  0  0  0  0  0  0  0  0  0  0
    2.7910    0.7057    0.3931 C   0  0  0  0  0  0  0  0  0  0  0  0
    3.8996    1.5523    0.3840 C   0  0  0  0  0  0  0  0  0  0  0  0
    5.2551   -0.2322   -0.5186 C   0  0  0  0  0  0  0  0  0  0  0  0
    5.1315    1.0833   -0.0720 C   0  0  0  0  0  0  0  0  0  0  0  0
   -8.3676    3.4089    0.2911 C   0  0  0  0  0  0  0  0  0  0  0  0
    3.4071    3.8174   -0.1478 C   0  0  0  0  0  0  0  0  0  0  0  0
    6.4931   -2.0590   -1.4052 C   0  0  0  0  0  0  0  0  0  0  0  0
    7.0236    1.9322    1.0921 C   0  0  0  0  0  0  0  0  0  0  0  0
  1 15  1  0
  1 19  1  0
  2 14  2  0
  3 15  2  0
  4 22  1  0
  4 26  1  0
  5 23  1  0
  5 27  1  0
  6 24  1  0
  6 28  1  0
  7  9  1  0
  7 10  1  0
  7 13  1  0
  8 11  1  0
  8 12  1  0
  8 14  1  0
  9 11  1  0
 10 12  1  0
 13 15  1  0
 14 16  1  0
 16 17  2  0
 17 18  1  0
 18 20  2  0
 18 21  1  0
 19 25  1  0
 20 23  1  0
 21 22  2  0
 22 24  1  0
 23 24  2  0
M  END
>  <PUBCHEM_COMPOUND_CID>  (1) 
39758

>  <PUBCHEM_CONFORMER_RMSD>  (1) 
1

>  <PUBCHEM_CONFORMER_DIVERSEORDER>  (1) 
3
14
26
10
23
12
25
27
5
22
20
17
16
18
15
24
8
9
19
13
21
2
4
1
11
6
7

>  <PUBCHEM_MMFF94_PARTIAL_CHARGES>  (1) 
31
1 -0.43
10 0.27
11 0.3
12 0.3
13 0.33
14 0.62
15 0.66
16 -0.14
17 -0.18
18 0.03
19 0.28
2 -0.57
20 -0.15
21 -0.15
22 0.08
23 0.08
24 0.08
26 0.28
27 0.28
28 0.28
3 -0.57
39 0.15
4 -0.36
40 0.15
43 0.15
44 0.15
5 -0.36
6 -0.36
7 -0.81
8 -0.66
9 0.27

>  <PUBCHEM_EFFECTIVE_ROTOR_COUNT>  (1) 
11.2

>  <PUBCHEM_PHARMACOPHORE_FEATURES>  (1) 
8
1 2 acceptor
1 3 acceptor
1 4 acceptor
1 5 acceptor
1 6 acceptor
1 7 cation
6 18 20 21 22 23 24 rings
6 7 8 9 10 11 12 rings

>  <PUBCHEM_HEAVY_ATOM_COUNT>  (1) 
28

>  <PUBCHEM_ATOM_DEF_STEREO_COUNT>  (1) 
0

>  <PUBCHEM_ATOM_UDEF_STEREO_COUNT>  (1) 
0

>  <PUBCHEM_BOND_DEF_STEREO_COUNT>  (1) 
0

>  <PUBCHEM_BOND_UDEF_STEREO_COUNT>  (1) 
1

>  <PUBCHEM_ISOTOPIC_ATOM_COUNT>  (1) 
0

>  <PUBCHEM_COMPONENT_COUNT>  (1) 
1

>  <PUBCHEM_CACTVS_TAUTO_COUNT>  (1) 
1

>  <PUBCHEM_CONFORMER_ID>  (1) 
00009B4E00000003

>  <PUBCHEM_MMFF94_ENERGY>  (1) 
96.1817

>  <PUBCHEM_FEATURE_SELFOVERLAP>  (1) 
40.608

>  <PUBCHEM_SHAPE_FINGERPRINT>  (1) 
10763959 59 18408044030687435852
10835480 77 18272651298746474264
13944108 23 18125157131171584377
14556957 393 16845302622570428145
14931854 50 18060144231974744920
15183329 4 18343309145699865666
18335252 114 18342171129188686133
19053607 189 18052530260514794464
190975 80 8718536212284904207
19438510 23 18113337484367836843
20691028 202 18408884032376512485
20715895 44 18411134775253385056
21033648 29 18113336435847449366
21279426 13 18412550924639397466
21298829 104 18409729552207040701
21585482 111 18045783391363948669
221357 26 18341897368564089044
23559900 14 18271526494019739162
25222932 49 9799695891424010600
2747138 104 17752498809151033515
2748736 6 18336817654935142505
2838139 119 18413105074468482711
4073 2 18116437132111547842
4144715 1 18117006687080942754
5718773 13 9727340334899769201
58902169 19 17846208943385990591
59682541 52 17131832032099769630
636775 72 18337668745148499137

>  <PUBCHEM_SHAPE_MULTIPOLES>  (1) 
531.05
23.59
4.14
0.99
22.39
1.86
0.16
19.47
3.82
1.46
-0.63
-0.35
-0.1
2.42

>  <PUBCHEM_SHAPE_SELFOVERLAP>  (1) 
1089.385

>  <PUBCHEM_SHAPE_VOLUME>  (1) 
307.1

>  <PUBCHEM_COORDINATE_TYPE>  (1) 
2
5
10

$$$$
