39750
     RDKit          3D

 13 12  0  0  0  0  0  0  0  0999 V2000
    0.7393    1.5211    0.3037 O   0  0  0  0  0  0  0  0  0  0  0  0
    3.3020    0.4899   -0.0791 C   0  0  0  0  0  0  0  0  0  0  0  0
    4.6359   -0.2452   -0.3030 C   0  0  0  0  0  0  0  0  0  0  0  0
   -1.7840    0.2885    0.0495 C   0  0  0  0  0  0  0  0  0  0  0  0
   -3.0355   -0.5787   -0.1270 C   0  0  0  0  0  0  0  0  0  0  0  0
    2.0747   -0.3905   -0.3176 C   0  0  0  0  0  0  0  0  0  0  0  0
   -0.4942   -0.4944   -0.1913 C   0  0  0  0  0  0  0  0  0  0  0  0
   -4.3101    0.2413    0.0879 C   0  0  0  0  0  0  0  0  0  0  0  0
    0.7707    0.3344   -0.0180 C   0  0  0  0  0  0  0  0  0  0  0  0
   -5.5929   -0.5668   -0.1193 C   0  0  0  0  0  0  0  0  0  0  0  0
    4.7084   -1.4769    0.6027 C   0  0  0  0  0  0  0  0  0  0  0  0
    5.8471    0.6535   -0.0502 C   0  0  0  0  0  0  0  0  0  0  0  0
   -6.8613    0.2239    0.1618 C   0  0  0  0  0  0  0  0  0  0  0  0
  1  9  2  0
  2  3  1  0
  2  6  1  0
  3 11  1  0
  3 12  1  0
  4  5  1  0
  4  7  1  0
  5  8  1  0
  6  9  1  0
  7  9  1  0
  8 10  1  0
 10 13  1  0
M  END
>  <PUBCHEM_COMPOUND_CID>  (1) 
39750

>  <PUBCHEM_CONFORMER_RMSD>  (1) 
0.8

>  <PUBCHEM_CONFORMER_DIVERSEORDER>  (1) 
1
75
171
20
232
37
136
215
226
115
178
103
210
257
57
223
137
73
242
189
8
96
17
66
246
12
194
10
146
5
87
183
179
254
13
80
221
152
228
53
128
27
224
7
186
236
181
217
258
38
55
202
4
151
31
190
191
208
24
206
35
168
2
60
45
43
250
140
101
6
145
251
167
68
175
93
209
18
76
176
235
105
117
118
164
211
153
212
89
50
84
170
188
82
255
36
3
106
256
46
124
248
116
22
249
71
135
172
207
30
155
144
29
26
237
32
150
239
25
229
48
59
196
34
182
125
214
69
92
107
77
253
259
184
147
104
177
240
233
143
15
16
40
28
121
49
42
163
227
193
159
200
243
111
47
247
52
94
132
133
119
252
14
244
70
127
138
58
74
126
129
238
33
62
97
185
158
162
11
139
173
213
204
130
88
67
86
100
44
54
120
41
199
113
21
23
154
241
19
108
234
51
98
85
65
166
161
9
230
245
180
99
72
195
220
95
169
110
174
192
156
79
83
61
64
187
63
198
216
39
231
56
222
134
109
123
149
218
141
205
131
112
142
157
225
90
219
81
203
91
78
122
160
165
114
148
201
102
197

>  <PUBCHEM_MMFF94_PARTIAL_CHARGES>  (1) 
4
1 -0.57
6 0.06
7 0.06
9 0.45

>  <PUBCHEM_EFFECTIVE_ROTOR_COUNT>  (1) 
8

>  <PUBCHEM_PHARMACOPHORE_FEATURES>  (1) 
4
1 1 acceptor
1 13 hydrophobe
3 3 11 12 hydrophobe
5 4 5 7 8 10 hydrophobe

>  <PUBCHEM_HEAVY_ATOM_COUNT>  (1) 
13

>  <PUBCHEM_ATOM_DEF_STEREO_COUNT>  (1) 
0

>  <PUBCHEM_ATOM_UDEF_STEREO_COUNT>  (1) 
0

>  <PUBCHEM_BOND_DEF_STEREO_COUNT>  (1) 
0

>  <PUBCHEM_BOND_UDEF_STEREO_COUNT>  (1) 
0

>  <PUBCHEM_ISOTOPIC_ATOM_COUNT>  (1) 
0

>  <PUBCHEM_COMPONENT_COUNT>  (1) 
1

>  <PUBCHEM_CACTVS_TAUTO_COUNT>  (1) 
3

>  <PUBCHEM_CONFORMER_ID>  (1) 
00009B4600000001

>  <PUBCHEM_MMFF94_ENERGY>  (1) 
4.665

>  <PUBCHEM_FEATURE_SELFOVERLAP>  (1) 
20.297

>  <PUBCHEM_SHAPE_FINGERPRINT>  (1) 
11287383 113 16443353104141410052
12091667 2 18334858325562319447
12815109 37 18343302573898307535
12916748 109 15791728590175289942
13533116 47 18411134698002450786
14123238 8 18060138738700549239
1420 363 15864074265139721427
14251718 22 17749107803109215803
14251764 18 18341894103766458257
14251764 46 16845575314206804446
17834072 33 18341893012865890111
17834076 25 18410856568229730678
20281389 69 18408604738979528545
20645477 70 18188206503779012842
20767249 13 18131633378643075855
20767249 213 10952046758470441819
220451 1 18342458153326836367
22485316 2 18408602578468241994
23218964 4 18408884027833164135
23402539 116 17704067404984688613
23521765 1 18341895198935613469
23536379 177 18113617867905888793
42788 4 18410575084742252269
4463277 17 18411982464110949661
5374978 207 18342450435992902312
57483677 66 18260827111630304171
8209 1 18342176674292138845

>  <PUBCHEM_SHAPE_MULTIPOLES>  (1) 
261.66
16.62
1.07
0.67
11.97
0.05
0
0.96
0.67
-0.94
0.13
-0.14
0.04
-0.35

>  <PUBCHEM_SHAPE_SELFOVERLAP>  (1) 
473.685

>  <PUBCHEM_SHAPE_VOLUME>  (1) 
168.5

>  <PUBCHEM_COORDINATE_TYPE>  (1) 
2
5
10

$$$$
