39761
     RDKit          3D

 22 24  0  0  1  0  0  0  0  0999 V2000
    2.9424    3.5487    1.6310 Cl  0  0  0  0  0  0  0  0  0  0  0  0
   -4.5286   -0.8193    0.7237 O   0  0  0  0  0  0  0  0  0  0  0  0
   -3.4268   -0.0982   -1.7455 O   0  0  0  0  0  0  0  0  0  0  0  0
   -0.9472   -1.1792    0.1125 N   0  0  0  0  0  0  0  0  0  0  0  0
   -1.7412    1.3702   -1.2868 N   0  0  0  0  0  0  0  0  0  0  0  0
   -2.1928   -0.4572    0.2965 C   0  0  0  0  0  0  0  0  0  0  0  0
   -3.2695   -1.4781    0.6506 C   0  0  0  0  0  0  0  0  0  0  0  0
    0.1616   -0.5251    0.0495 C   0  0  0  0  0  0  0  0  0  0  0  0
    0.2774    0.9621    0.1111 C   0  0  0  0  0  0  0  0  0  0  0  0
   -2.5029    0.2530   -1.0098 C   0  0  0  0  0  0  0  0  0  0  0  0
   -0.5858    1.8054   -0.6060 C   0  0  0  0  0  0  0  0  0  0  0  0
    1.4018   -1.3333   -0.1320 C   0  0  0  0  0  0  0  0  0  0  0  0
   -2.9820   -2.1622    1.9765 C   0  0  0  0  0  0  0  0  0  0  0  0
    1.3571    1.5144    0.8196 C   0  0  0  0  0  0  0  0  0  0  0  0
   -0.2900    3.1743   -0.6884 C   0  0  0  0  0  0  0  0  0  0  0  0
    1.6096    2.8847    0.7686 C   0  0  0  0  0  0  0  0  0  0  0  0
    0.7970    3.7117    0.0008 C   0  0  0  0  0  0  0  0  0  0  0  0
    2.4732   -0.7974   -0.8353 C   0  0  0  0  0  0  0  0  0  0  0  0
    1.4711   -2.6128    0.4043 C   0  0  0  0  0  0  0  0  0  0  0  0
    3.6330   -1.5534   -1.0051 C   0  0  0  0  0  0  0  0  0  0  0  0
    2.6308   -3.3690    0.2344 C   0  0  0  0  0  0  0  0  0  0  0  0
    3.7118   -2.8392   -0.4703 C   0  0  0  0  0  0  0  0  0  0  0  0
  1 16  1  0
  2  7  1  0
  3 10  2  0
  4  6  1  0
  4  8  2  0
  5 10  1  0
  5 11  1  0
  6  7  1  0
  6 10  1  0
  7 13  1  0
  8  9  1  0
  8 12  1  0
  9 11  2  0
  9 14  1  0
 11 15  1  0
 12 18  2  0
 12 19  1  0
 14 16  2  0
 15 17  2  0
 16 17  1  0
 18 20  1  0
 19 21  2  0
 20 22  2  0
 21 22  1  0
M  END
>  <PUBCHEM_COMPOUND_CID>  (1) 
39761

>  <PUBCHEM_CONFORMER_RMSD>  (1) 
0.6

>  <PUBCHEM_CONFORMER_DIVERSEORDER>  (1) 
2
4
1
7
3
5
6

>  <PUBCHEM_MMFF94_PARTIAL_CHARGES>  (1) 
31
1 -0.18
10 0.57
11 0.12
12 0.09
14 -0.15
15 -0.15
16 0.18
17 -0.15
18 -0.15
19 -0.15
2 -0.68
20 -0.15
21 -0.15
22 -0.15
25 0.37
29 0.15
3 -0.57
30 0.15
31 0.15
32 0.15
33 0.15
34 0.4
35 0.15
36 0.15
37 0.15
4 -0.7
5 -0.55
6 0.31
7 0.28
8 0.28
9 0.09

>  <PUBCHEM_EFFECTIVE_ROTOR_COUNT>  (1) 
2.4

>  <PUBCHEM_PHARMACOPHORE_FEATURES>  (1) 
8
1 2 acceptor
1 2 donor
1 3 acceptor
1 4 acceptor
1 5 donor
6 12 18 19 20 21 22 rings
6 9 11 14 15 16 17 rings
7 4 5 6 8 9 10 11 rings

>  <PUBCHEM_HEAVY_ATOM_COUNT>  (1) 
22

>  <PUBCHEM_ATOM_DEF_STEREO_COUNT>  (1) 
1

>  <PUBCHEM_ATOM_UDEF_STEREO_COUNT>  (1) 
1

>  <PUBCHEM_BOND_DEF_STEREO_COUNT>  (1) 
0

>  <PUBCHEM_BOND_UDEF_STEREO_COUNT>  (1) 
0

>  <PUBCHEM_ISOTOPIC_ATOM_COUNT>  (1) 
0

>  <PUBCHEM_COMPONENT_COUNT>  (1) 
1

>  <PUBCHEM_CACTVS_TAUTO_COUNT>  (1) 
3

>  <PUBCHEM_CONFORMER_ID>  (1) 
00009B5100000002

>  <PUBCHEM_MMFF94_ENERGY>  (1) 
81.2944

>  <PUBCHEM_FEATURE_SELFOVERLAP>  (1) 
40.611

>  <PUBCHEM_SHAPE_FINGERPRINT>  (1) 
1100329 8 17980483364897158273
11036077 51 17040917564706302098
11680986 33 18410005546678673237
12035758 1 18050575333282392016
12293681 160 17402026917337307516
12553582 1 18339642218117315263
12788726 201 17690276015119138890
12839892 36 17546163468638353899
13027679 85 18337399218838922909
13140716 1 18052815033930260250
133893 2 18130494344684011869
13533116 47 18268160906528940299
14790565 3 18049177844950051076
15309172 13 17834104626034740609
16945 1 18341889752964645909
17974551 9 17831629436682334745
17980427 23 17558288544104874937
1813 80 17916322570537839310
18915476 22 18267857453555326399
19591789 44 17832156291509001222
1979834 28 16962984705059271963
20028762 73 17118609610376105975
20510252 161 17617942430809210408
20775438 99 17905848756665419663
20832881 197 18121205499292425245
21731228 192 17692245657040560856
22182313 1 18187634856357990173
23419403 2 18335409175569696533
23557571 272 17838898132039393230
23558518 356 16755782287837569406
23559900 14 18113617889074926430
2748010 2 18262227945204507373
3091708 16 8708511960621687490
3421961 26 18337683004729740955
352729 6 17400926297428211630
458136 41 17906190781504739353
532947 4 18270107045961874612
58807428 26 17909265028948350016
59554788 248 17612862008668883333
6438718 38 17556014684758745517
7364860 26 18268719474776637491
81228 2 17766843827402711688
84936 31 17987525977174083855

>  <PUBCHEM_SHAPE_MULTIPOLES>  (1) 
432.92
6.09
5.06
1.38
3.04
2.94
-0.19
-4.69
-0.3
-5.08
-1.28
0.63
0.2
2.47

>  <PUBCHEM_SHAPE_SELFOVERLAP>  (1) 
936.237

>  <PUBCHEM_SHAPE_VOLUME>  (1) 
236.6

>  <PUBCHEM_COORDINATE_TYPE>  (1) 
2
5
10

$$$$
