3976
     RDKit          3D

 19 21  0  0  0  0  0  0  0  0999 V2000
    0.7689    2.4999   -0.0992 O   0  0  0  0  0  0  0  0  0  0  0  0
    1.4608   -2.7591    0.5182 O   0  0  0  0  0  0  0  0  0  0  0  0
   -1.4541    0.9885    0.4273 N   0  0  0  0  0  0  0  0  0  0  0  0
    3.6477   -1.2916    0.0032 N   0  0  0  0  0  0  0  0  0  0  0  0
   -0.2318    0.3875    0.3320 C   0  0  0  0  0  0  0  0  0  0  0  0
    2.2614    0.6898   -0.0668 C   0  0  0  0  0  0  0  0  0  0  0  0
    2.4480   -0.6730    0.0915 C   0  0  0  0  0  0  0  0  0  0  0  0
    0.9211    1.2916    0.0435 C   0  0  0  0  0  0  0  0  0  0  0  0
   -0.0250   -0.9279    0.4816 C   0  0  0  0  0  0  0  0  0  0  0  0
    1.3095   -1.5526    0.3747 C   0  0  0  0  0  0  0  0  0  0  0  0
   -2.7109    0.4530    0.1241 C   0  0  0  0  0  0  0  0  0  0  0  0
    3.3821    1.4748   -0.3339 C   0  0  0  0  0  0  0  0  0  0  0  0
    4.6328    0.8724   -0.4316 C   0  0  0  0  0  0  0  0  0  0  0  0
   -3.8506    0.8876    0.8120 C   0  0  0  0  0  0  0  0  0  0  0  0
   -2.8440   -0.5229   -0.8713 C   0  0  0  0  0  0  0  0  0  0  0  0
    4.7116   -0.5001   -0.2569 C   0  0  0  0  0  0  0  0  0  0  0  0
   -5.1037    0.3547    0.5094 C   0  0  0  0  0  0  0  0  0  0  0  0
   -4.0969   -1.0557   -1.1742 C   0  0  0  0  0  0  0  0  0  0  0  0
   -5.2268   -0.6170   -0.4837 C   0  0  0  0  0  0  0  0  0  0  0  0
  1  8  2  0
  2 10  2  0
  3  5  1  0
  3 11  1  0
  4  7  2  0
  4 16  1  0
  5  8  1  0
  5  9  2  0
  6  7  1  0
  6  8  1  0
  6 12  2  0
  7 10  1  0
  9 10  1  0
 11 14  2  0
 11 15  1  0
 12 13  1  0
 13 16  2  0
 14 17  1  0
 15 18  2  0
 17 19  2  0
 18 19  1  0
M  END
>  <PUBCHEM_COMPOUND_CID>  (1) 
3976

>  <PUBCHEM_CONFORMER_RMSD>  (1) 
0.6

>  <PUBCHEM_CONFORMER_DIVERSEORDER>  (1) 
1
5
8
7
6
2
3
4

>  <PUBCHEM_MMFF94_PARTIAL_CHARGES>  (1) 
29
1 -0.57
10 0.47
11 0.1
12 -0.15
13 -0.15
14 -0.15
15 -0.15
16 0.16
17 -0.15
18 -0.15
19 -0.15
2 -0.57
20 0.15
21 0.4
22 0.15
23 0.15
24 0.15
25 0.15
26 0.15
27 0.15
28 0.15
29 0.15
3 -0.6
4 -0.62
5 0.11
6 0.09
7 0.4
8 0.47
9 -0.14

>  <PUBCHEM_EFFECTIVE_ROTOR_COUNT>  (1) 
2

>  <PUBCHEM_PHARMACOPHORE_FEATURES>  (1) 
8
1 1 acceptor
1 2 acceptor
1 3 cation
1 3 donor
1 4 acceptor
6 11 14 15 17 18 19 rings
6 4 6 7 12 13 16 rings
6 5 6 7 8 9 10 rings

>  <PUBCHEM_HEAVY_ATOM_COUNT>  (1) 
19

>  <PUBCHEM_ATOM_DEF_STEREO_COUNT>  (1) 
0

>  <PUBCHEM_ATOM_UDEF_STEREO_COUNT>  (1) 
0

>  <PUBCHEM_BOND_DEF_STEREO_COUNT>  (1) 
0

>  <PUBCHEM_BOND_UDEF_STEREO_COUNT>  (1) 
0

>  <PUBCHEM_ISOTOPIC_ATOM_COUNT>  (1) 
0

>  <PUBCHEM_COMPONENT_COUNT>  (1) 
1

>  <PUBCHEM_CACTVS_TAUTO_COUNT>  (1) 
3

>  <PUBCHEM_CONFORMER_ID>  (1) 
00000F8800000001

>  <PUBCHEM_MMFF94_ENERGY>  (1) 
65.4647

>  <PUBCHEM_FEATURE_SELFOVERLAP>  (1) 
40.63

>  <PUBCHEM_SHAPE_FINGERPRINT>  (1) 
10090160 65 18114183029693744498
10616163 171 18201718500830536167
11471102 20 18334858324644545056
11796584 16 15698010612680340524
11806522 49 18413388747824734008
12107183 9 17621889682285672601
12236239 1 18202848751248527217
12507557 5 9655571912092827343
12553582 1 18339912758433766273
13167823 11 18272933825673589669
13583140 156 16081368600237038056
13760787 19 18273214188554444439
13836976 161 18260552250992569118
13862211 1 18335980875104949754
14251717 144 18408602569624937446
14576447 43 18341606044705389095
15196674 1 18411700980306622245
15375462 189 18342455915922798515
17349148 13 18259983756167822904
17357779 13 17604136086975475237
17834072 33 18272369793367395181
18186145 218 18260543441708624654
200 152 18343302574246506289
20028762 73 18270957952066988318
20612939 158 18335140924823858605
20645477 70 18334858285984818034
21054139 6 18339916125314177815
21267235 1 18341059548666105615
21634736 98 17984128529326018815
21641784 216 17750532710160789428
21709351 56 18334856082603318092
221490 88 18192716863241503355
2255824 54 18338516451433339725
23402539 116 18343581828514277676
23402655 69 18410854322431580165
23557571 272 15195021409141121697
23559900 14 17703783768906471584
2748010 2 18191604123515239370
2871803 45 18335135371409707908
29717793 49 17989204824488266141
3060560 45 18335417993538397054
335352 9 18335988649459700124
34797466 226 16343426206086177456
4072396 5 18114449107560638186
4214541 1 18272653420376286009
474 4 18261114122603347637
4990 188 17917720093056273252
5104073 3 18341895203584061539
602551 16 15984809484864453943
7495541 125 16371021744519520009
9981440 41 17118870185983951881

>  <PUBCHEM_SHAPE_MULTIPOLES>  (1) 
369.31
10.79
1.93
0.85
5.64
0.29
-0.08
0.28
-1.58
-1.27
0.15
0.59
0.1
-1

>  <PUBCHEM_SHAPE_SELFOVERLAP>  (1) 
821.184

>  <PUBCHEM_SHAPE_VOLUME>  (1) 
193.8

>  <PUBCHEM_COORDINATE_TYPE>  (1) 
2
5
10

$$$$
