39762
     RDKit          3D

 22 24  0  0  1  0  0  0  0  0999 V2000
   -2.9450    3.5475    1.6346 Cl  0  0  0  0  0  0  0  0  0  0  0  0
    3.4241   -0.0943   -1.7482 O   0  0  0  0  0  0  0  0  0  0  0  0
    0.9460   -1.1780    0.1104 N   0  0  0  0  0  0  0  0  0  0  0  0
    1.7384    1.3731   -1.2869 N   0  0  0  0  0  0  0  0  0  0  0  0
    2.1916   -0.4557    0.2942 C   0  0  0  0  0  0  0  0  0  0  0  0
    3.2688   -1.4768    0.6465 C   0  0  0  0  0  0  0  0  0  0  0  0
    2.5006    0.2558   -1.0115 C   0  0  0  0  0  0  0  0  0  0  0  0
    4.6337   -0.8009    0.7628 C   0  0  0  0  0  0  0  0  0  0  0  0
    2.9185   -2.2033    1.9439 C   0  0  0  0  0  0  0  0  0  0  0  0
   -0.1631   -0.5242    0.0489 C   0  0  0  0  0  0  0  0  0  0  0  0
   -0.2794    0.9631    0.1117 C   0  0  0  0  0  0  0  0  0  0  0  0
    0.5830    1.8071   -0.6053 C   0  0  0  0  0  0  0  0  0  0  0  0
   -1.4032   -1.3327   -0.1323 C   0  0  0  0  0  0  0  0  0  0  0  0
   -1.3593    1.5145    0.8208 C   0  0  0  0  0  0  0  0  0  0  0  0
    0.2860    3.1760   -0.6876 C   0  0  0  0  0  0  0  0  0  0  0  0
   -1.6127    2.8846    0.7702 C   0  0  0  0  0  0  0  0  0  0  0  0
   -0.8014    3.7124    0.0019 C   0  0  0  0  0  0  0  0  0  0  0  0
   -2.4750   -0.7961   -0.8345 C   0  0  0  0  0  0  0  0  0  0  0  0
   -1.4718   -2.6127    0.4027 C   0  0  0  0  0  0  0  0  0  0  0  0
   -3.6349   -1.5522   -1.0043 C   0  0  0  0  0  0  0  0  0  0  0  0
   -2.6317   -3.3688    0.2328 C   0  0  0  0  0  0  0  0  0  0  0  0
   -3.7132   -2.8384   -0.4707 C   0  0  0  0  0  0  0  0  0  0  0  0
  1 16  1  0
  2  7  2  0
  3  5  1  0
  3 10  2  0
  4  7  1  0
  4 12  1  0
  5  6  1  0
  5  7  1  0
  6  8  1  0
  6  9  1  0
 10 11  1  0
 10 13  1  0
 11 12  2  0
 11 14  1  0
 12 15  1  0
 13 18  2  0
 13 19  1  0
 14 16  2  0
 15 17  2  0
 16 17  1  0
 18 20  1  0
 19 21  2  0
 20 22  2  0
 21 22  1  0
M  END
>  <PUBCHEM_COMPOUND_CID>  (1) 
39762

>  <PUBCHEM_CONFORMER_RMSD>  (1) 
0.6

>  <PUBCHEM_CONFORMER_DIVERSEORDER>  (1) 
1
2
3

>  <PUBCHEM_MMFF94_PARTIAL_CHARGES>  (1) 
28
1 -0.18
10 0.28
11 0.09
12 0.12
13 0.09
14 -0.15
15 -0.15
16 0.18
17 -0.15
18 -0.15
19 -0.15
2 -0.57
20 -0.15
21 -0.15
22 -0.15
3 -0.7
31 0.37
32 0.15
33 0.15
34 0.15
35 0.15
36 0.15
37 0.15
38 0.15
39 0.15
4 -0.55
5 0.31
7 0.57

>  <PUBCHEM_EFFECTIVE_ROTOR_COUNT>  (1) 
2.4

>  <PUBCHEM_PHARMACOPHORE_FEATURES>  (1) 
7
1 2 acceptor
1 3 acceptor
1 4 donor
3 6 8 9 hydrophobe
6 11 12 14 15 16 17 rings
6 13 18 19 20 21 22 rings
7 3 4 5 7 10 11 12 rings

>  <PUBCHEM_HEAVY_ATOM_COUNT>  (1) 
22

>  <PUBCHEM_ATOM_DEF_STEREO_COUNT>  (1) 
1

>  <PUBCHEM_ATOM_UDEF_STEREO_COUNT>  (1) 
0

>  <PUBCHEM_BOND_DEF_STEREO_COUNT>  (1) 
0

>  <PUBCHEM_BOND_UDEF_STEREO_COUNT>  (1) 
0

>  <PUBCHEM_ISOTOPIC_ATOM_COUNT>  (1) 
0

>  <PUBCHEM_COMPONENT_COUNT>  (1) 
1

>  <PUBCHEM_CACTVS_TAUTO_COUNT>  (1) 
3

>  <PUBCHEM_CONFORMER_ID>  (1) 
00009B5200000001

>  <PUBCHEM_MMFF94_ENERGY>  (1) 
83.0317

>  <PUBCHEM_FEATURE_SELFOVERLAP>  (1) 
35.531

>  <PUBCHEM_SHAPE_FINGERPRINT>  (1) 
104564 63 18342185452989105063
1100329 8 18411416203180952353
11265709 11 18410007784050458506
11578080 2 17824514513934846156
11582403 64 15582003107781419205
121448 382 17765683872774441445
12293681 160 17545063931140852508
12403259 327 14116146588163569399
12553582 1 18338529632582625515
12633257 1 17908683065723108554
12730499 353 17255684621752899067
12788726 201 18341343244441406785
12839892 36 17905615406596325873
13004483 165 18265871658146561698
13134695 92 17983840453279810903
13140716 1 18341332300991343899
13681431 1 17982733266271150477
14178342 30 18264474097701155818
14866123 147 17761481504873642682
15842332 3 18114472154429299854
16945 1 18341619161429736580
19591789 44 17330559739505147367
20369508 70 18049430736992909247
20600515 1 18058165201217994746
20645477 70 17766000884648338535
20775438 99 16900404862751087527
21041028 32 18340207509223084035
21452121 199 18125711529201066633
21731228 192 17764300652717888928
22112679 90 18335990778813958144
22620623 9 17769977590435107228
23419403 2 17766513093362219716
23557571 272 18271801307417524014
23558518 356 18120119379109414732
23559900 14 17974269226040800727
25 1 17044588301682218301
25147074 1 18187938248705845036
266924 78 16517406320473965374
427121 178 17412466831761224617
5845 1 12794573653540748853
58807428 26 17763462816288746617
59554788 248 17538856775616410357
6438718 38 18060137583602390301
6992083 37 17753883918554163202
7164475 11 18410854326499902158
7364860 26 17833261296162805607
7471813 234 18197485427669493551
81228 2 18342177734975046163
84936 182 17545884188579263387

>  <PUBCHEM_SHAPE_MULTIPOLES>  (1) 
438.79
6.34
5.02
1.38
4.13
2.36
0.15
-4.26
0.62
-5.67
1.09
0.58
0.27
-2.47

>  <PUBCHEM_SHAPE_SELFOVERLAP>  (1) 
945.68

>  <PUBCHEM_SHAPE_VOLUME>  (1) 
241.7

>  <PUBCHEM_COORDINATE_TYPE>  (1) 
2
5
10

$$$$
