39772
     RDKit          3D

 24 27  0  0  1  0  0  0  0  0999 V2000
    1.8607   -2.8036    1.8174 Br  0  0  0  0  0  0  0  0  0  0  0  0
   -0.4916    2.7265   -0.3768 O   0  0  0  0  0  0  0  0  0  0  0  0
   -3.9856   -2.5417   -1.1811 O   0  0  0  0  0  0  0  0  0  0  0  0
   -1.7575   -2.1903   -0.9005 O   0  0  0  0  0  0  0  0  0  0  0  0
   -1.2915    0.5490   -0.7458 N   0  0  0  0  0  0  0  0  0  0  0  0
    1.9323    0.5828   -0.7816 C   0  0  0  0  0  0  0  0  0  0  0  0
    2.5345   -1.2392    0.8616 C   0  0  0  0  0  0  0  0  0  0  0  0
    4.2584   -0.4283   -0.7754 C   0  0  0  0  0  0  0  0  0  0  0  0
    3.5293    1.0512    1.1322 C   0  0  0  0  0  0  0  0  0  0  0  0
    1.4135   -0.6594   -0.0167 C   0  0  0  0  0  0  0  0  0  0  0  0
    3.1386    0.1584   -1.6532 C   0  0  0  0  0  0  0  0  0  0  0  0
    2.4119    1.6333    0.2485 C   0  0  0  0  0  0  0  0  0  0  0  0
    3.7203   -1.6575   -0.0220 C   0  0  0  0  0  0  0  0  0  0  0  0
    2.9937   -0.1830    1.8790 C   0  0  0  0  0  0  0  0  0  0  0  0
    4.7119    0.6321    0.2424 C   0  0  0  0  0  0  0  0  0  0  0  0
    0.8228    1.1678   -1.6594 C   0  0  0  0  0  0  0  0  0  0  0  0
   -0.3844    1.5997   -0.8493 C   0  0  0  0  0  0  0  0  0  0  0  0
   -2.5371    0.5477   -0.0741 C   0  0  0  0  0  0  0  0  0  0  0  0
   -3.3286   -0.5902   -0.0666 C   0  0  0  0  0  0  0  0  0  0  0  0
   -2.9400    1.7081    0.5692 C   0  0  0  0  0  0  0  0  0  0  0  0
   -4.5532   -0.5677    0.6008 C   0  0  0  0  0  0  0  0  0  0  0  0
   -4.1646    1.7304    1.2367 C   0  0  0  0  0  0  0  0  0  0  0  0
   -2.9224   -1.8188   -0.7377 C   0  0  0  0  0  0  0  0  0  0  0  0
   -4.9712    0.5927    1.2525 C   0  0  0  0  0  0  0  0  0  0  0  0
  1  7  1  0
  2 17  2  0
  3 23  1  0
  4 23  2  0
  5 17  1  0
  5 18  1  0
  6 10  1  0
  6 11  1  0
  6 12  1  0
  6 16  1  0
  7 10  1  0
  7 13  1  0
  7 14  1  0
  8 11  1  0
  8 13  1  0
  8 15  1  0
  9 12  1  0
  9 14  1  0
  9 15  1  0
 16 17  1  0
 18 19  2  0
 18 20  1  0
 19 21  1  0
 19 23  1  0
 20 22  2  0
 21 24  2  0
 22 24  1  0
M  END
>  <PUBCHEM_COMPOUND_CID>  (1) 
39772

>  <PUBCHEM_CONFORMER_RMSD>  (1) 
0.8

>  <PUBCHEM_CONFORMER_DIVERSEORDER>  (1) 
1
27
15
20
22
2
16
11
9
23
21
26
18
28
6
3
24
12
25
17
10
4
5
7
19
14
8
13

>  <PUBCHEM_MMFF94_PARTIAL_CHARGES>  (1) 
21
1 -0.23
16 0.06
17 0.57
18 0.12
19 0.09
2 -0.57
20 -0.15
21 -0.15
22 -0.15
23 0.63
24 -0.15
3 -0.65
4 -0.57
41 0.37
42 0.15
43 0.15
44 0.15
45 0.15
46 0.5
5 -0.55
7 0.23

>  <PUBCHEM_EFFECTIVE_ROTOR_COUNT>  (1) 
6.2

>  <PUBCHEM_PHARMACOPHORE_FEATURES>  (1) 
11
1 1 hydrophobe
1 2 acceptor
1 3 acceptor
1 4 acceptor
1 5 donor
3 3 4 23 anion
6 18 19 20 21 22 24 rings
6 6 7 8 10 11 13 rings
6 6 7 9 10 12 14 rings
6 6 8 9 11 12 15 rings
6 7 8 9 13 14 15 rings

>  <PUBCHEM_HEAVY_ATOM_COUNT>  (1) 
24

>  <PUBCHEM_ATOM_DEF_STEREO_COUNT>  (1) 
0

>  <PUBCHEM_ATOM_UDEF_STEREO_COUNT>  (1) 
2

>  <PUBCHEM_BOND_DEF_STEREO_COUNT>  (1) 
0

>  <PUBCHEM_BOND_UDEF_STEREO_COUNT>  (1) 
0

>  <PUBCHEM_ISOTOPIC_ATOM_COUNT>  (1) 
0

>  <PUBCHEM_COMPONENT_COUNT>  (1) 
1

>  <PUBCHEM_CACTVS_TAUTO_COUNT>  (1) 
3

>  <PUBCHEM_CONFORMER_ID>  (1) 
00009B5C00000001

>  <PUBCHEM_MMFF94_ENERGY>  (1) 
81.2795

>  <PUBCHEM_FEATURE_SELFOVERLAP>  (1) 
68.394

>  <PUBCHEM_SHAPE_FINGERPRINT>  (1) 
11370993 144 17561090163471057141
11370993 70 17632583729613861271
11552529 35 17774713264204120847
11578080 2 18042945714233208973
12236239 1 18334020492816247077
12553582 1 17967814950629257237
12596599 1 17988374705809282442
12596602 18 18273221897809985257
12633257 1 18059570231022595338
12714826 92 17676481731516465525
13224815 77 18040431079415188656
13464513 79 17749398053026034464
13583140 156 18270381837405444621
14081887 123 18272359884635419353
14341114 176 18060709381093729504
14341114 328 18341893034678830664
14787075 74 18265050413534701676
14848160 33 16515398556148595352
14863182 85 17821737109198183674
15375462 189 18187368722440231005
15537594 2 18261120655369982563
17349148 13 17385721392099332496
1813 80 17603873294689770541
19026451 147 16834289084682673991
20261772 1 18409736140338083011
20442098 301 18335696101065555628
20511986 3 18340189874134781117
20645477 70 16877950467945481228
20691752 17 18040991877869588904
20775530 9 17535454938517373954
21033648 29 15985100782536748323
21421861 104 18116151074050622514
21673915 165 18410289246194936810
2255824 54 17750809915686617740
235170 7 14201401573030066843
23559900 14 17632028471815030764
339767 52 18333723641777469443
3737641 26 18116718404908121906
392239 28 18265032765614277328
5104073 3 18201716262804038722
57724786 102 15410899586488928280
5924683 9 17775280616942034959
602551 16 18273216417241739558
7064713 232 18272367529967187571
7097593 13 18411136939716656229
9862522 239 18263926532520964229

>  <PUBCHEM_SHAPE_MULTIPOLES>  (1) 
477.26
10.14
2.67
1.62
5.69
1.11
0.13
0.82
2.13
0.53
0.16
-0.29
0.29
-1.74

>  <PUBCHEM_SHAPE_SELFOVERLAP>  (1) 
1031.852

>  <PUBCHEM_SHAPE_VOLUME>  (1) 
267.1

>  <PUBCHEM_COORDINATE_TYPE>  (1) 
2
5
10

$$$$
