39773
     RDKit          3D

 13 14  0  0  1  0  0  0  0  0999 V2000
   -1.5802   -0.8470    0.0249 C   0  0  0  0  0  0  0  0  0  0  0  0
   -1.8683    0.6445   -0.3126 C   0  0  0  0  0  0  0  0  0  0  0  0
   -1.0304    0.9529    0.9585 C   0  0  0  0  0  0  0  0  0  0  0  0
   -1.6211   -0.3793    1.5145 C   0  0  0  0  0  0  0  0  0  0  0  0
   -0.1923   -1.2814   -0.4853 C   0  0  0  0  0  0  0  0  0  0  0  0
    0.4712    0.9191    0.6579 C   0  0  0  0  0  0  0  0  0  0  0  0
    0.9161   -0.5102    0.2811 C   0  0  0  0  0  0  0  0  0  0  0  0
   -1.2176    1.1189   -1.6059 C   0  0  0  0  0  0  0  0  0  0  0  0
   -3.3125    1.1003   -0.3347 C   0  0  0  0  0  0  0  0  0  0  0  0
   -0.0425   -2.7940   -0.3157 C   0  0  0  0  0  0  0  0  0  0  0  0
    2.2319   -0.4742   -0.4962 C   0  0  0  0  0  0  0  0  0  0  0  0
    3.2977    0.2344    0.2788 C   0  0  0  0  0  0  0  0  0  0  0  0
    3.9479    1.3158   -0.1651 C   0  0  0  0  0  0  0  0  0  0  0  0
  1  2  1  0
  1  4  1  0
  1  5  1  0
  2  3  1  0
  2  8  1  0
  2  9  1  0
  3  4  1  0
  3  6  1  0
  5  7  1  0
  5 10  1  0
  6  7  1  0
  7 11  1  0
 11 12  1  0
 12 13  2  0
M  END
>  <PUBCHEM_COMPOUND_CID>  (1) 
39773

>  <PUBCHEM_CONFORMER_RMSD>  (1) 
0.6

>  <PUBCHEM_CONFORMER_DIVERSEORDER>  (1) 
2
6
3
15
11
10
16
12
1
5
13
18
4
8
9
14
7
17

>  <PUBCHEM_MMFF94_PARTIAL_CHARGES>  (1) 
6
11 0.14
12 -0.29
13 -0.3
33 0.15
34 0.15
35 0.15

>  <PUBCHEM_EFFECTIVE_ROTOR_COUNT>  (1) 
3

>  <PUBCHEM_PHARMACOPHORE_FEATURES>  (1) 
3
1 13 hydrophobe
3 2 8 9 hydrophobe
7 1 2 3 4 5 6 7 rings

>  <PUBCHEM_HEAVY_ATOM_COUNT>  (1) 
13

>  <PUBCHEM_ATOM_DEF_STEREO_COUNT>  (1) 
0

>  <PUBCHEM_ATOM_UDEF_STEREO_COUNT>  (1) 
4

>  <PUBCHEM_BOND_DEF_STEREO_COUNT>  (1) 
0

>  <PUBCHEM_BOND_UDEF_STEREO_COUNT>  (1) 
0

>  <PUBCHEM_ISOTOPIC_ATOM_COUNT>  (1) 
0

>  <PUBCHEM_COMPONENT_COUNT>  (1) 
1

>  <PUBCHEM_CACTVS_TAUTO_COUNT>  (1) 
1

>  <PUBCHEM_CONFORMER_ID>  (1) 
00009B5D00000002

>  <PUBCHEM_MMFF94_ENERGY>  (1) 
46.4063

>  <PUBCHEM_FEATURE_SELFOVERLAP>  (1) 
15.223

>  <PUBCHEM_SHAPE_FINGERPRINT>  (1) 
12119455 92 18187916249144883068
12138202 97 18271805769761996270
12423570 1 12129618149777958211
12932764 1 18261394494517086384
13024252 1 15430310369129243515
13214271 11 17531532100098667644
13571099 52 17895755071890182901
15309172 13 18341060661236552906
15775835 57 18333448746727638020
16945 1 18270951337689751305
18186145 218 18272378525151959044
20344682 1 18259701194806946917
20645476 183 18335700572327133238
20820808 20 18269829814106669993
21296965 12 18114455678312052598
228727 97 17274819104249910705
23211744 41 17678451966037358791
23235685 24 18271519823349699457
23236772 104 17203332173979415329
23402539 116 18131057230577030916
23552423 10 17840589193317021975
241688 4 16466422687505905107
25 1 18269270171215061849
2748010 2 18340503187335123118
369184 2 17095522902749745600
4175511 318 18261109694898247532
528886 8 18271515421187549721
81228 2 18051139386684075522

>  <PUBCHEM_SHAPE_MULTIPOLES>  (1) 
267.53
4.82
1.94
1.17
4.26
1.38
-0.02
-2.64
0.29
-0.09
0.34
-0.56
-0.21
0.28

>  <PUBCHEM_SHAPE_SELFOVERLAP>  (1) 
547.837

>  <PUBCHEM_SHAPE_VOLUME>  (1) 
158

>  <PUBCHEM_COORDINATE_TYPE>  (1) 
2
5
10

$$$$
