39770
     RDKit          3D

 24 26  0  0  0  0  0  0  0  0999 V2000
   -3.1627    1.5005    0.5196 S   0  0  0  0  0  0  0  0  0  0  0  0
    1.0865   -0.8961   -0.5396 O   0  0  0  0  0  0  0  0  0  0  0  0
   -0.2488    1.4269    0.4681 O   0  0  0  0  0  0  0  0  0  0  0  0
   -0.0426    2.4227   -1.6115 O   0  0  0  0  0  0  0  0  0  0  0  0
   -2.1691    2.1563   -0.7148 N   0  0  0  0  0  0  0  0  0  0  0  0
    2.1149   -1.9118   -0.7229 C   0  0  0  0  0  0  0  0  0  0  0  0
    3.5035   -1.2473   -0.5733 C   0  0  0  0  0  0  0  0  0  0  0  0
    3.1114    0.0304    0.0630 C   0  0  0  0  0  0  0  0  0  0  0  0
    1.7345    0.1703    0.0257 C   0  0  0  0  0  0  0  0  0  0  0  0
    1.8910   -2.9972    0.3377 C   0  0  0  0  0  0  0  0  0  0  0  0
    1.9335   -2.5047   -2.1211 C   0  0  0  0  0  0  0  0  0  0  0  0
    3.9112    1.0251    0.5960 C   0  0  0  0  0  0  0  0  0  0  0  0
    1.1008    1.2973    0.5130 C   0  0  0  0  0  0  0  0  0  0  0  0
    3.2921    2.1706    1.1029 C   0  0  0  0  0  0  0  0  0  0  0  0
    1.8951    2.3062    1.0608 C   0  0  0  0  0  0  0  0  0  0  0  0
   -0.7739    2.0373   -0.6992 C   0  0  0  0  0  0  0  0  0  0  0  0
   -2.7287   -0.2284    0.3785 C   0  0  0  0  0  0  0  0  0  0  0  0
   -2.1671   -0.9326    1.4435 C   0  0  0  0  0  0  0  0  0  0  0  0
   -2.8630    2.7606   -1.8433 C   0  0  0  0  0  0  0  0  0  0  0  0
   -2.9649   -0.8726   -0.8360 C   0  0  0  0  0  0  0  0  0  0  0  0
   -1.8416   -2.2808    1.2942 C   0  0  0  0  0  0  0  0  0  0  0  0
   -1.8946   -0.2872    2.7646 C   0  0  0  0  0  0  0  0  0  0  0  0
   -2.6396   -2.2207   -0.9855 C   0  0  0  0  0  0  0  0  0  0  0  0
   -2.0780   -2.9247    0.0796 C   0  0  0  0  0  0  0  0  0  0  0  0
  1  5  1  0
  1 17  1  0
  2  6  1  0
  2  9  1  0
  3 13  1  0
  3 16  1  0
  4 16  2  0
  5 16  1  0
  5 19  1  0
  6  7  1  0
  6 10  1  0
  6 11  1  0
  7  8  1  0
  8  9  2  0
  8 12  1  0
  9 13  1  0
 12 14  2  0
 13 15  2  0
 14 15  1  0
 17 18  2  0
 17 20  1  0
 18 21  1  0
 18 22  1  0
 20 23  2  0
 21 24  2  0
 23 24  1  0
M  END
>  <PUBCHEM_COMPOUND_CID>  (1) 
39770

>  <PUBCHEM_CONFORMER_RMSD>  (1) 
1

>  <PUBCHEM_CONFORMER_DIVERSEORDER>  (1) 
1
236
129
60
55
148
88
124
187
146
182
206
116
17
186
85
174
229
163
122
82
14
185
233
18
209
75
133
25
73
147
114
120
90
235
154
45
69
158
169
81
190
178
166
79
113
78
107
68
54
170
193
123
24
143
92
118
74
145
104
83
67
71
16
35
162
46
51
112
115
222
181
223
119
6
11
15
149
39
28
214
108
230
164
207
80
26
94
188
157
126
64
37
203
101
217
5
150
155
199
128
63
52
59
138
117
87
121
103
191
161
84
173
212
197
201
100
21
58
48
95
97
216
151
219
183
204
50
93
210
208
44
189
2
23
56
98
221
232
194
184
125
192
110
96
160
171
165
20
27
111
66
29
134
30
153
9
179
140
136
156
227
31
142
91
135
7
196
200
49
40
175
211
76
234
231
109
8
62
47
141
3
132
172
4
225
237
177
22
43
139
226
167
13
86
53
127
144
105
152
70
202
38
72
195
130
168
180
215
99
32
106
89
228
176
137
41
159
34
57
61
205
220
42
218
224
10
102
77
19
213
198
131
12
33
36
65

>  <PUBCHEM_MMFF94_PARTIAL_CHARGES>  (1) 
29
1 -0.09
12 -0.15
13 0.08
14 -0.15
15 -0.15
16 0.78
17 0.1
18 -0.14
19 0.3
2 -0.36
20 -0.15
21 -0.15
22 0.14
23 -0.15
24 -0.15
3 -0.23
33 0.15
34 0.15
35 0.15
39 0.15
4 -0.57
40 0.15
44 0.15
45 0.15
5 -0.37
6 0.28
7 0.14
8 -0.14
9 0.08

>  <PUBCHEM_EFFECTIVE_ROTOR_COUNT>  (1) 
5.6

>  <PUBCHEM_PHARMACOPHORE_FEATURES>  (1) 
6
1 2 acceptor
1 4 acceptor
3 6 10 11 hydrophobe
5 2 6 7 8 9 rings
6 17 18 20 21 23 24 rings
6 8 9 12 13 14 15 rings

>  <PUBCHEM_HEAVY_ATOM_COUNT>  (1) 
24

>  <PUBCHEM_ATOM_DEF_STEREO_COUNT>  (1) 
0

>  <PUBCHEM_ATOM_UDEF_STEREO_COUNT>  (1) 
0

>  <PUBCHEM_BOND_DEF_STEREO_COUNT>  (1) 
0

>  <PUBCHEM_BOND_UDEF_STEREO_COUNT>  (1) 
0

>  <PUBCHEM_ISOTOPIC_ATOM_COUNT>  (1) 
0

>  <PUBCHEM_COMPONENT_COUNT>  (1) 
1

>  <PUBCHEM_CACTVS_TAUTO_COUNT>  (1) 
1

>  <PUBCHEM_CONFORMER_ID>  (1) 
00009B5A00000001

>  <PUBCHEM_MMFF94_ENERGY>  (1) 
76.4078

>  <PUBCHEM_FEATURE_SELFOVERLAP>  (1) 
30.546

>  <PUBCHEM_SHAPE_FINGERPRINT>  (1) 
10616163 171 18269272524666878644
10675989 125 17111561191524156052
107951 10 17025734546398569593
10906281 52 18115871970022985733
1100329 8 15383312406268229625
11370993 70 17986666167702804802
12363563 72 17606117539908825883
12422481 6 18121251782218580329
12553582 1 18045516449817043101
12596599 1 17560539359880483790
12633257 1 18341894026641819578
13140716 1 18195531612676040922
13224815 77 18267873959046144560
13383661 66 16986020490913956734
14178342 30 18196385929206109923
14223421 5 18342176699898529190
14251745 187 18339070596608495282
14251757 17 18196639714813551781
15635459 17 18270968938117720238
17357779 13 18266446788457825343
17980427 23 17677327350685285308
19930381 70 17696477282681112375
20600515 1 16879331510490012005
21285901 2 18335129930371875093
23419403 2 16172050478636566633
23559900 14 18193831545173634834
238 59 18126540363347329597
2748010 2 18263653870120370685
463206 1 17407949351164037687
5283178 26 17624454941460540687
57527452 28 17198538526805644071
6287921 2 17698473200880271534
81228 2 18113900463927488669
9709674 26 18412260644594224919

>  <PUBCHEM_SHAPE_MULTIPOLES>  (1) 
475.17
6.32
3.98
1.84
1.95
0.61
-0.24
-0.38
-0.18
-0.38
1.1
-0.97
-0.07
2.04

>  <PUBCHEM_SHAPE_SELFOVERLAP>  (1) 
1008.14

>  <PUBCHEM_SHAPE_VOLUME>  (1) 
269.7

>  <PUBCHEM_COORDINATE_TYPE>  (1) 
2
5
10

$$$$
