39781
     RDKit          3D

 27 28  0  0  1  0  0  0  0  0999 V2000
   -2.0874   -0.0637   -0.3507 N   0  0  0  0  0  0  0  0  0  0  0  0
    2.1973   -3.9808    0.5014 N   0  0  0  0  0  0  0  0  0  0  0  0
    1.1296   -1.6300    1.1672 C   0  0  0  0  0  0  0  0  0  0  0  0
   -0.1798   -1.4623    0.3016 C   0  0  0  0  0  0  0  0  0  0  0  0
   -0.9014   -0.1230    0.4994 C   0  0  0  0  0  0  0  0  0  0  0  0
    2.1257   -0.5392    0.9205 C   0  0  0  0  0  0  0  0  0  0  0  0
    0.6527   -1.7937    2.6489 C   0  0  0  0  0  0  0  0  0  0  0  0
    2.6569   -0.2906   -0.3556 C   0  0  0  0  0  0  0  0  0  0  0  0
   -3.0048   -1.1571   -0.0289 C   0  0  0  0  0  0  0  0  0  0  0  0
   -2.7610    1.2267   -0.2023 C   0  0  0  0  0  0  0  0  0  0  0  0
    2.5139    0.2327    2.0161 C   0  0  0  0  0  0  0  0  0  0  0  0
    3.5950    0.7558   -0.5228 C   0  0  0  0  0  0  0  0  0  0  0  0
    1.7196   -2.9646    0.7957 C   0  0  0  0  0  0  0  0  0  0  0  0
    2.2777   -1.0575   -1.4694 C   0  0  0  0  0  0  0  0  0  0  0  0
    3.4361    1.2619    1.8515 C   0  0  0  0  0  0  0  0  0  0  0  0
    3.9740    1.5229    0.5909 C   0  0  0  0  0  0  0  0  0  0  0  0
   -4.2018   -1.1515   -0.9337 C   0  0  0  0  0  0  0  0  0  0  0  0
   -1.8397    2.3657   -0.5272 C   0  0  0  0  0  0  0  0  0  0  0  0
    4.1261    1.0045   -1.7988 C   0  0  0  0  0  0  0  0  0  0  0  0
    2.8159   -0.7965   -2.7299 C   0  0  0  0  0  0  0  0  0  0  0  0
    3.7384    0.2326   -2.8943 C   0  0  0  0  0  0  0  0  0  0  0  0
   -5.5008   -1.0276   -0.5997 C   0  0  0  0  0  0  0  0  0  0  0  0
   -1.4504    3.3789    0.2705 C   0  0  0  0  0  0  0  0  0  0  0  0
   -5.9018   -0.8716    0.8440 C   0  0  0  0  0  0  0  0  0  0  0  0
   -6.6553   -1.0301   -1.5613 C   0  0  0  0  0  0  0  0  0  0  0  0
   -0.5206    4.4924   -0.1206 C   0  0  0  0  0  0  0  0  0  0  0  0
   -1.9542    3.4659    1.6876 C   0  0  0  0  0  0  0  0  0  0  0  0
  1  5  1  0
  1  9  1  0
  1 10  1  0
  2 13  3  0
  3  4  1  0
  3  6  1  0
  3  7  1  0
  3 13  1  0
  4  5  1  0
  6  8  2  0
  6 11  1  0
  8 12  1  0
  8 14  1  0
  9 17  1  0
 10 18  1  0
 11 15  2  0
 12 16  2  0
 12 19  1  0
 14 20  2  0
 15 16  1  0
 17 22  2  3
 18 23  2  3
 19 21  2  0
 20 21  1  0
 22 24  1  0
 22 25  1  0
 23 26  1  0
 23 27  1  0
M  END
>  <PUBCHEM_COMPOUND_CID>  (1) 
39781

>  <PUBCHEM_CONFORMER_RMSD>  (1) 
0.8

>  <PUBCHEM_CONFORMER_DIVERSEORDER>  (1) 
201
106
316
62
247
154
275
146
377
93
245
8
319
180
13
273
197
55
98
368
301
171
279
308
294
90
91
266
7
339
21
125
230
360
268
240
343
152
38
322
119
81
19
317
30
366
124
24
161
327
212
330
183
328
244
369
305
159
323
94
131
254
261
214
117
371
344
359
318
12
373
349
187
182
174
225
292
215
148
151
10
136
356
26
191
138
53
178
347
321
219
364
287
129
372
73
147
109
283
207
228
222
177
23
210
320
181
251
312
168
115
196
231
333
259
264
246
139
167
34
363
277
86
48
69
1
249
164
137
16
40
179
295
28
158
337
36
341
83
375
250
351
262
235
300
258
302
68
218
176
88
133
297
15
270
238
213
5
145
331
306
206
37
175
340
271
127
239
188
352
315
257
49
282
130
116
120
97
59
50
311
285
256
346
274
22
165
47
160
78
100
242
27
35
338
123
310
342
43
99
194
304
150
289
355
67
252
77
370
18
103
45
309
198
248
132
82
223
278
221
192
334
217
195
70
143
153
121
84
58
169
290
291
265
227
325
60
374
353
66
14
350
326
110
200
299
101
128
272
236
296
112
286
361
253
166
186
149
216
367
284
220
71
185
79
255
234
314
276
237
229
96
118
92
345
42
376
75
111
80
269
104
11
260
303
74
202
126
243
52
122
199
204
61
280
335
348
329
163
29
134
172
3
65
105
89
20
211
267
336
263
298
17
173
205
87
114
141
95
85
241
39
354
332
184
155
140
232
108
54
358
25
281
293
307
226
2
46
365
113
208
57
209
33
357
193
72
170
56
313
4
288
156
144
102
203
64
6
157
233
32
9
44
162
41
63
76
190
189
31
324
107
51
224
362
142
135

>  <PUBCHEM_MMFF94_PARTIAL_CHARGES>  (1) 
32
1 -0.81
10 0.41
11 -0.15
13 0.36
14 -0.15
15 -0.15
16 -0.15
17 -0.29
18 -0.29
19 -0.15
2 -0.56
20 -0.15
21 -0.15
22 -0.28
23 -0.28
24 0.14
25 0.14
26 0.14
27 0.14
3 0.34
39 0.15
40 0.15
41 0.15
42 0.15
43 0.15
44 0.15
45 0.15
46 0.15
47 0.15
5 0.27
6 -0.14
9 0.41

>  <PUBCHEM_EFFECTIVE_ROTOR_COUNT>  (1) 
8

>  <PUBCHEM_PHARMACOPHORE_FEATURES>  (1) 
7
1 1 cation
1 2 acceptor
1 7 hydrophobe
3 22 24 25 hydrophobe
3 23 26 27 hydrophobe
6 6 8 11 12 15 16 rings
6 8 12 14 19 20 21 rings

>  <PUBCHEM_HEAVY_ATOM_COUNT>  (1) 
27

>  <PUBCHEM_ATOM_DEF_STEREO_COUNT>  (1) 
0

>  <PUBCHEM_ATOM_UDEF_STEREO_COUNT>  (1) 
1

>  <PUBCHEM_BOND_DEF_STEREO_COUNT>  (1) 
0

>  <PUBCHEM_BOND_UDEF_STEREO_COUNT>  (1) 
0

>  <PUBCHEM_ISOTOPIC_ATOM_COUNT>  (1) 
0

>  <PUBCHEM_COMPONENT_COUNT>  (1) 
1

>  <PUBCHEM_CACTVS_TAUTO_COUNT>  (1) 
1

>  <PUBCHEM_CONFORMER_ID>  (1) 
00009B65000000C9

>  <PUBCHEM_MMFF94_ENERGY>  (1) 
85.9879

>  <PUBCHEM_FEATURE_SELFOVERLAP>  (1) 
35.548

>  <PUBCHEM_SHAPE_FINGERPRINT>  (1) 
10498660 4 18410855430306529653
10940486 97 17616530662085098623
11135609 127 16515949472331933711
11582403 64 17272254060367343458
11640471 11 16951135104973791276
12147406 95 18128803179915782967
12166972 35 17385990767942218892
12788726 201 18410013209126766833
128993 33 17901967248242391560
13009979 54 17970895683694998586
133893 2 17386853798813271154
13899415 154 18337397144970891305
14713325 29 17102334399428859526
15324884 4 17482006918461440786
15664445 248 18341611572375992537
1813 80 18201433714654943085
19319366 153 17821996641140052515
20715895 44 16589684822213399255
2132832 1 17679558091930796659
22149856 69 18187092750429970203
23557571 272 18272368680828732973
23558518 356 17973722476788033179
23559900 14 18120920721222366319
2818148 4 18124046636700256009
312423 11 18263085409892993227
394071 54 18129379470581061169
46194498 28 17632865247878062836
469060 322 18334586737010280225
57527295 17 18054537737066130294
7164475 11 18265326210268780147
7399639 24 17703780449165822104

>  <PUBCHEM_SHAPE_MULTIPOLES>  (1) 
545.69
10.73
4.11
2.4
16.95
3.42
0.6
-2.91
4.79
0.64
-1.45
-2.71
-0.46
-0.88

>  <PUBCHEM_SHAPE_SELFOVERLAP>  (1) 
1131.124

>  <PUBCHEM_SHAPE_VOLUME>  (1) 
310.7

>  <PUBCHEM_COORDINATE_TYPE>  (1) 
2
5
10

$$$$
