39783
     RDKit          3D

 28 29  0  0  1  0  0  0  0  0999 V2000
    2.1041    0.0716   -0.6976 N   0  0  0  0  0  0  0  0  0  0  0  0
   -2.0016    3.5943    1.5341 N   0  0  0  0  0  0  0  0  0  0  0  0
   -1.3128    1.8871   -0.3731 C   0  0  0  0  0  0  0  0  0  0  0  0
    0.1490    1.4136   -0.0614 C   0  0  0  0  0  0  0  0  0  0  0  0
   -1.2682    2.6902   -1.7162 C   0  0  0  0  0  0  0  0  0  0  0  0
    0.7501    0.4475   -1.0943 C   0  0  0  0  0  0  0  0  0  0  0  0
   -2.2533    0.6756   -0.5060 C   0  0  0  0  0  0  0  0  0  0  0  0
   -2.4384   -0.1902    0.5561 C   0  0  0  0  0  0  0  0  0  0  0  0
   -0.3069    3.8787   -1.7316 C   0  0  0  0  0  0  0  0  0  0  0  0
   -2.8727    0.5304   -1.7268 C   0  0  0  0  0  0  0  0  0  0  0  0
   -1.7076    2.8413    0.7008 C   0  0  0  0  0  0  0  0  0  0  0  0
    2.6517   -0.9237   -1.6199 C   0  0  0  0  0  0  0  0  0  0  0  0
    2.9701    1.2500   -0.6471 C   0  0  0  0  0  0  0  0  0  0  0  0
   -3.3161   -1.2848    0.3701 C   0  0  0  0  0  0  0  0  0  0  0  0
   -1.7978   -0.0265    1.7950 C   0  0  0  0  0  0  0  0  0  0  0  0
   -3.7359   -0.5458   -1.9094 C   0  0  0  0  0  0  0  0  0  0  0  0
   -3.9572   -1.4484   -0.8687 C   0  0  0  0  0  0  0  0  0  0  0  0
   -3.5272   -2.1834    1.4284 C   0  0  0  0  0  0  0  0  0  0  0  0
    1.7804   -2.1434   -1.6893 C   0  0  0  0  0  0  0  0  0  0  0  0
    4.3512    0.8948   -0.1806 C   0  0  0  0  0  0  0  0  0  0  0  0
   -2.0189   -0.9293    2.8356 C   0  0  0  0  0  0  0  0  0  0  0  0
   -2.8819   -2.0058    2.6526 C   0  0  0  0  0  0  0  0  0  0  0  0
    1.8400   -3.2567   -0.9336 C   0  0  0  0  0  0  0  0  0  0  0  0
    4.8262    0.8681    1.0796 C   0  0  0  0  0  0  0  0  0  0  0  0
    0.9318   -4.4472   -1.0566 C   0  0  0  0  0  0  0  0  0  0  0  0
    2.8838   -3.3870    0.1450 C   0  0  0  0  0  0  0  0  0  0  0  0
    6.2275    0.5013    1.4787 C   0  0  0  0  0  0  0  0  0  0  0  0
    3.9304    1.2278    2.2362 C   0  0  0  0  0  0  0  0  0  0  0  0
  1  6  1  0
  1 12  1  0
  1 13  1  0
  2 11  3  0
  3  4  1  0
  3  5  1  0
  3  7  1  0
  3 11  1  0
  4  6  1  0
  5  9  1  0
  7  8  2  0
  7 10  1  0
  8 14  1  0
  8 15  1  0
 10 16  2  0
 12 19  1  0
 13 20  1  0
 14 17  2  0
 14 18  1  0
 15 21  2  0
 16 17  1  0
 18 22  2  0
 19 23  2  3
 20 24  2  3
 21 22  1  0
 23 25  1  0
 23 26  1  0
 24 27  1  0
 24 28  1  0
M  END
>  <PUBCHEM_COMPOUND_CID>  (1) 
39783

>  <PUBCHEM_CONFORMER_RMSD>  (1) 
1

>  <PUBCHEM_CONFORMER_DIVERSEORDER>  (1) 
2
52
193
80
5
110
118
15
54
207
216
133
11
138
108
208
20
27
143
140
13
219
132
24
188
18
58
17
59
99
114
177
86
209
23
33
205
197
167
203
173
105
95
204
134
127
154
213
149
180
62
128
39
168
201
174
51
16
183
14
146
113
191
147
76
65
214
72
172
124
46
57
155
28
69
42
215
19
178
145
4
187
73
90
126
189
61
60
194
10
92
8
32
221
175
151
164
190
192
195
141
136
3
106
35
185
79
36
206
45
176
181
186
56
83
137
161
84
123
101
109
179
160
169
70
210
218
170
22
44
87
1
211
171
112
34
88
67
41
100
50
102
117
63
200
144
156
220
53
98
217
148
152
48
38
6
103
55
96
81
68
94
130
104
66
165
163
121
199
119
115
89
153
29
97
159
26
77
198
82
107
150
166
47
75
139
122
91
85
158
49
9
40
31
142
93
74
43
212
196
111
120
202
182
12
157
25
125
184
71
30
162
129
116
7
64
21
78
37
131
135

>  <PUBCHEM_MMFF94_PARTIAL_CHARGES>  (1) 
32
1 -0.81
10 -0.15
11 0.36
12 0.41
13 0.41
15 -0.15
16 -0.15
17 -0.15
18 -0.15
19 -0.29
2 -0.56
20 -0.29
21 -0.15
22 -0.15
23 -0.28
24 -0.28
25 0.14
26 0.14
27 0.14
28 0.14
3 0.34
38 0.15
43 0.15
44 0.15
45 0.15
46 0.15
47 0.15
48 0.15
49 0.15
50 0.15
6 0.27
7 -0.14

>  <PUBCHEM_EFFECTIVE_ROTOR_COUNT>  (1) 
9

>  <PUBCHEM_PHARMACOPHORE_FEATURES>  (1) 
7
1 1 cation
1 2 acceptor
1 9 hydrophobe
3 23 25 26 hydrophobe
3 24 27 28 hydrophobe
6 7 8 10 14 16 17 rings
6 8 14 15 18 21 22 rings

>  <PUBCHEM_HEAVY_ATOM_COUNT>  (1) 
28

>  <PUBCHEM_ATOM_DEF_STEREO_COUNT>  (1) 
0

>  <PUBCHEM_ATOM_UDEF_STEREO_COUNT>  (1) 
1

>  <PUBCHEM_BOND_DEF_STEREO_COUNT>  (1) 
0

>  <PUBCHEM_BOND_UDEF_STEREO_COUNT>  (1) 
0

>  <PUBCHEM_ISOTOPIC_ATOM_COUNT>  (1) 
0

>  <PUBCHEM_COMPONENT_COUNT>  (1) 
1

>  <PUBCHEM_CACTVS_TAUTO_COUNT>  (1) 
1

>  <PUBCHEM_CONFORMER_ID>  (1) 
00009B6700000002

>  <PUBCHEM_MMFF94_ENERGY>  (1) 
93.4343

>  <PUBCHEM_FEATURE_SELFOVERLAP>  (1) 
35.548

>  <PUBCHEM_SHAPE_FINGERPRINT>  (1) 
10906281 52 18260270745930521301
11578080 2 17845375461843066233
13911987 19 18193564586469194444
13965767 371 16913175458062147761
14114207 22 15577205032385277466
14178342 30 18339089189828400700
14787075 74 16485274274030860328
17349148 13 17821444656031662100
17974551 9 17766021409869557080
20600515 1 17458062681258778421
21304303 282 17461690962457139373
21756936 100 13902191504308306568
21987440 362 14785686282515161062
23559900 14 18263643970547775596
25265897 201 17403987367975708899
392239 28 17632013182016124618
469060 322 18195512912394215790
57527452 28 17773300430564977407
57527585 103 17532111478286185507
6004065 56 18198620141635347199
81228 2 18262247603539340277
9981440 41 18268975540779514168

>  <PUBCHEM_SHAPE_MULTIPOLES>  (1) 
566.26
8.95
4.7
2.6
10.54
1.19
-1.24
0.95
-3.51
-0.01
1.4
-0.99
0.31
2.16

>  <PUBCHEM_SHAPE_SELFOVERLAP>  (1) 
1172.012

>  <PUBCHEM_SHAPE_VOLUME>  (1) 
322.6

>  <PUBCHEM_COORDINATE_TYPE>  (1) 
2
5
10

$$$$
