39788
     RDKit          3D

 30 31  0  0  1  0  0  0  0  0999 V2000
   -2.5810   -0.5209    0.0417 N   0  0  0  0  0  0  0  0  0  0  0  0
    1.4466    1.3133    2.3799 N   0  0  0  0  0  0  0  0  0  0  0  0
    0.6461    1.6576   -0.1253 C   0  0  0  0  0  0  0  0  0  0  0  0
    0.0218    3.1063   -0.2429 C   0  0  0  0  0  0  0  0  0  0  0  0
   -0.4076    0.5430   -0.4408 C   0  0  0  0  0  0  0  0  0  0  0  0
    1.8808    1.5129   -1.0821 C   0  0  0  0  0  0  0  0  0  0  0  0
   -1.6715    0.5537    0.4340 C   0  0  0  0  0  0  0  0  0  0  0  0
   -0.5233    3.4405   -1.6402 C   0  0  0  0  0  0  0  0  0  0  0  0
    0.9832    4.2346    0.1750 C   0  0  0  0  0  0  0  0  0  0  0  0
    2.5885    0.1728   -1.1020 C   0  0  0  0  0  0  0  0  0  0  0  0
    1.0999    1.4641    1.2825 C   0  0  0  0  0  0  0  0  0  0  0  0
    3.6567   -0.1180   -0.2380 C   0  0  0  0  0  0  0  0  0  0  0  0
   -2.1371   -1.7975    0.6012 C   0  0  0  0  0  0  0  0  0  0  0  0
   -3.9455   -0.2208    0.4751 C   0  0  0  0  0  0  0  0  0  0  0  0
    2.1372   -0.7755   -2.0206 C   0  0  0  0  0  0  0  0  0  0  0  0
    4.2756   -1.3889   -0.3062 C   0  0  0  0  0  0  0  0  0  0  0  0
    2.7456   -2.0254   -2.0875 C   0  0  0  0  0  0  0  0  0  0  0  0
    4.1242    0.8243    0.6926 C   0  0  0  0  0  0  0  0  0  0  0  0
    3.8081   -2.3315   -1.2366 C   0  0  0  0  0  0  0  0  0  0  0  0
   -2.6799   -2.9567   -0.1819 C   0  0  0  0  0  0  0  0  0  0  0  0
   -4.5972    0.7861   -0.4266 C   0  0  0  0  0  0  0  0  0  0  0  0
    5.3437   -1.6800    0.5579 C   0  0  0  0  0  0  0  0  0  0  0  0
    5.1867    0.5181    1.5432 C   0  0  0  0  0  0  0  0  0  0  0  0
    5.7954   -0.7317    1.4760 C   0  0  0  0  0  0  0  0  0  0  0  0
   -3.4744   -3.9561    0.2474 C   0  0  0  0  0  0  0  0  0  0  0  0
   -5.0813    2.0023   -0.1090 C   0  0  0  0  0  0  0  0  0  0  0  0
   -3.9271   -4.0023    1.6836 C   0  0  0  0  0  0  0  0  0  0  0  0
   -3.9840   -5.0915   -0.5943 C   0  0  0  0  0  0  0  0  0  0  0  0
   -5.7249    2.9649   -1.0663 C   0  0  0  0  0  0  0  0  0  0  0  0
   -5.0054    2.5025    1.3101 C   0  0  0  0  0  0  0  0  0  0  0  0
  1  7  1  0
  1 13  1  0
  1 14  1  0
  2 11  3  0
  3  4  1  0
  3  5  1  0
  3  6  1  0
  3 11  1  0
  4  8  1  0
  4  9  1  0
  5  7  1  0
  6 10  1  0
 10 12  2  0
 10 15  1  0
 12 16  1  0
 12 18  1  0
 13 20  1  0
 14 21  1  0
 15 17  2  0
 16 19  2  0
 16 22  1  0
 17 19  1  0
 18 23  2  0
 20 25  2  3
 21 26  2  3
 22 24  2  0
 23 24  1  0
 25 27  1  0
 25 28  1  0
 26 29  1  0
 26 30  1  0
M  END
>  <PUBCHEM_COMPOUND_CID>  (1) 
39788

>  <PUBCHEM_CONFORMER_RMSD>  (1) 
1.2

>  <PUBCHEM_CONFORMER_DIVERSEORDER>  (1) 
1
87
69
50
263
227
270
209
239
260
298
166
198
73
248
369
80
21
207
256
300
88
302
214
72
360
310
314
339
272
307
232
74
238
231
288
206
161
124
254
201
138
131
276
81
356
111
86
241
295
309
271
188
142
42
61
327
163
318
82
192
237
290
204
244
145
168
89
121
297
292
165
252
304
164
245
334
287
353
120
100
136
191
255
217
143
355
126
35
181
274
27
75
149
362
285
51
315
277
180
221
25
291
182
337
208
68
273
363
96
46
130
294
235
370
5
229
205
135
123
103
308
132
45
250
151
197
349
262
286
55
99
230
171
48
79
281
313
328
154
350
94
140
153
109
147
258
114
57
218
106
213
283
210
358
117
97
266
23
284
225
47
322
347
211
33
56
190
115
184
4
317
368
333
196
173
321
220
316
236
28
352
185
108
172
344
53
155
243
215
234
11
299
44
330
169
125
26
179
90
303
31
341
246
59
267
323
13
148
133
336
296
19
351
107
305
144
112
329
22
128
91
354
43
119
335
280
200
332
343
367
216
78
268
167
219
348
371
18
251
189
311
162
102
157
85
203
249
259
212
366
116
187
223
134
113
199
301
320
193
312
146
240
32
195
289
340
156
129
63
118
76
265
269
110
364
338
62
58
105
2
342
325
224
257
60
66
176
186
365
226
275
178
71
137
29
10
361
175
17
24
16
38
222
159
150
36
127
306
357
174
194
15
83
279
122
247
52
183
282
92
319
177
233
264
65
331
202
95
278
104
228
345
170
346
326
6
359
84
160
67
293
64
77
139
8
98
37
158
141
93
152
324
253
12
242
70
34
14
3
41
20
39
54
30
40
9
261
49
101
7

>  <PUBCHEM_MMFF94_PARTIAL_CHARGES>  (1) 
33
1 -0.81
10 -0.14
11 0.36
13 0.41
14 0.41
15 -0.15
17 -0.15
18 -0.15
19 -0.15
2 -0.56
20 -0.29
21 -0.29
22 -0.15
23 -0.15
24 -0.15
25 -0.28
26 -0.28
27 0.14
28 0.14
29 0.14
3 0.2
30 0.14
48 0.15
49 0.15
50 0.15
51 0.15
52 0.15
53 0.15
54 0.15
55 0.15
56 0.15
6 0.14
7 0.27

>  <PUBCHEM_EFFECTIVE_ROTOR_COUNT>  (1) 
10

>  <PUBCHEM_PHARMACOPHORE_FEATURES>  (1) 
8
1 1 cation
1 2 acceptor
3 25 27 28 hydrophobe
3 26 29 30 hydrophobe
3 4 8 9 hydrophobe
4 3 4 5 6 hydrophobe
6 10 12 15 16 17 19 rings
6 12 16 18 22 23 24 rings

>  <PUBCHEM_HEAVY_ATOM_COUNT>  (1) 
30

>  <PUBCHEM_ATOM_DEF_STEREO_COUNT>  (1) 
0

>  <PUBCHEM_ATOM_UDEF_STEREO_COUNT>  (1) 
1

>  <PUBCHEM_BOND_DEF_STEREO_COUNT>  (1) 
0

>  <PUBCHEM_BOND_UDEF_STEREO_COUNT>  (1) 
0

>  <PUBCHEM_ISOTOPIC_ATOM_COUNT>  (1) 
0

>  <PUBCHEM_COMPONENT_COUNT>  (1) 
1

>  <PUBCHEM_CACTVS_TAUTO_COUNT>  (1) 
1

>  <PUBCHEM_CONFORMER_ID>  (1) 
00009B6C00000001

>  <PUBCHEM_MMFF94_ENERGY>  (1) 
82.1585

>  <PUBCHEM_FEATURE_SELFOVERLAP>  (1) 
40.869

>  <PUBCHEM_SHAPE_FINGERPRINT>  (1) 
10940486 97 18334299803024348893
11796584 16 18409727340256328282
11828532 37 18114185272415739869
12596602 18 14404885973768877356
12788726 201 18116167592680010876
13583140 156 17560234868142131985
140371 6 18271816687326788968
14347332 77 18192712465564575619
14725015 67 17764314937785046519
15484559 13 13996138987058663870
17492 89 18048031063154165435
17809404 112 18201729439621660774
19319366 153 17386849413662348563
20600515 1 18342750588981010460
20626108 58 18264767834518930122
21703447 108 17908422807494722161
21859007 373 17970337118867120805
22122407 14 16200146595170382400
23559900 14 18270698475822032030
23572383 38 18273496753989196647
3027735 51 17692265036291397759
3383291 50 18410578358430777539
340366 18 18260561008737185165
45266715 3 18197196085072001287
463206 1 18260266317755948490
508706 21 18410015451068573391
6004065 56 18130773565230686333

>  <PUBCHEM_SHAPE_MULTIPOLES>  (1) 
607.42
12.89
5.84
1.76
0.89
3.67
0.03
3.41
2.79
9.27
-0.46
-1.28
0.08
1.69

>  <PUBCHEM_SHAPE_SELFOVERLAP>  (1) 
1243.784

>  <PUBCHEM_SHAPE_VOLUME>  (1) 
350.4

>  <PUBCHEM_COORDINATE_TYPE>  (1) 
2
5
10

$$$$
