39795
     RDKit          3D

 17 19  0  0  1  0  0  0  0  0999 V2000
   -2.2845    0.1249    0.8911 O   0  0  0  0  0  0  0  0  0  0  0  0
    1.7886   -2.5382   -0.8062 O   0  0  0  0  0  0  0  0  0  0  0  0
    3.2542   -1.6000    0.6764 O   0  0  0  0  0  0  0  0  0  0  0  0
   -2.6579   -2.0213    0.4900 O   0  0  0  0  0  0  0  0  0  0  0  0
   -3.5966   -0.5097   -0.8537 O   0  0  0  0  0  0  0  0  0  0  0  0
   -2.9064   -0.8802    0.0986 N   0  0  0  0  0  0  0  0  0  0  0  0
    1.3469   -0.3387   -0.0279 C   0  0  0  0  0  0  0  0  0  0  0  0
   -0.9899    0.4891    0.4341 C   0  0  0  0  0  0  0  0  0  0  0  0
    0.9849    1.9882    0.8860 C   0  0  0  0  0  0  0  0  0  0  0  0
    0.3245    1.4492   -1.4898 C   0  0  0  0  0  0  0  0  0  0  0  0
   -0.0609   -0.7379    0.4531 C   0  0  0  0  0  0  0  0  0  0  0  0
    1.9066    0.7553    0.9034 C   0  0  0  0  0  0  0  0  0  0  0  0
    1.2503    0.2201   -1.4619 C   0  0  0  0  0  0  0  0  0  0  0  0
   -0.4179    1.5763    1.3614 C   0  0  0  0  0  0  0  0  0  0  0  0
   -1.0735    1.0387   -1.0000 C   0  0  0  0  0  0  0  0  0  0  0  0
    0.8916    2.5295   -0.5517 C   0  0  0  0  0  0  0  0  0  0  0  0
    2.2402   -1.5453   -0.0029 C   0  0  0  0  0  0  0  0  0  0  0  0
  1  6  1  0
  1  8  1  0
  2 17  1  0
  3 17  2  0
  4  6  1  0
  5  6  2  0
  7 11  1  0
  7 12  1  0
  7 13  1  0
  7 17  1  0
  8 11  1  0
  8 14  1  0
  8 15  1  0
  9 12  1  0
  9 14  1  0
  9 16  1  0
 10 13  1  0
 10 15  1  0
 10 16  1  0
M  CHG  2   4  -1   6   1
M  END
>  <PUBCHEM_COMPOUND_CID>  (1) 
39795

>  <PUBCHEM_CONFORMER_RMSD>  (1) 
0.6

>  <PUBCHEM_CONFORMER_DIVERSEORDER>  (1) 
1
3
5
6
2
4

>  <PUBCHEM_MMFF94_PARTIAL_CHARGES>  (1) 
10
1 -0.27
17 0.66
2 -0.65
3 -0.57
32 0.5
4 -0.52
5 -0.52
6 1.03
7 0.06
8 0.28

>  <PUBCHEM_EFFECTIVE_ROTOR_COUNT>  (1) 
4.2

>  <PUBCHEM_PHARMACOPHORE_FEATURES>  (1) 
9
1 2 acceptor
1 3 acceptor
1 4 acceptor
1 5 acceptor
3 2 3 17 anion
6 7 8 10 11 13 15 rings
6 7 8 9 11 12 14 rings
6 7 9 10 12 13 16 rings
6 8 9 10 14 15 16 rings

>  <PUBCHEM_HEAVY_ATOM_COUNT>  (1) 
17

>  <PUBCHEM_ATOM_DEF_STEREO_COUNT>  (1) 
0

>  <PUBCHEM_ATOM_UDEF_STEREO_COUNT>  (1) 
2

>  <PUBCHEM_BOND_DEF_STEREO_COUNT>  (1) 
0

>  <PUBCHEM_BOND_UDEF_STEREO_COUNT>  (1) 
0

>  <PUBCHEM_ISOTOPIC_ATOM_COUNT>  (1) 
0

>  <PUBCHEM_COMPONENT_COUNT>  (1) 
1

>  <PUBCHEM_CACTVS_TAUTO_COUNT>  (1) 
1

>  <PUBCHEM_CONFORMER_ID>  (1) 
00009B7300000001

>  <PUBCHEM_MMFF94_ENERGY>  (1) 
63.5488

>  <PUBCHEM_FEATURE_SELFOVERLAP>  (1) 
58.341

>  <PUBCHEM_SHAPE_FINGERPRINT>  (1) 
10863032 1 18410569548682817188
10948715 1 17466788607384849732
11067466 332 17761510474659473979
12138202 78 18261383490083250629
12326174 3 17773608297693636997
12423570 1 16414908630957006776
12725867 57 18334852839897708596
12808571 1 9151164329420283624
13024252 1 13194049803314460756
14181834 199 18188493595955190246
14817 1 13995416608056507316
15001771 113 18338813229341239073
16945 1 18263935486636037712
20645477 70 18264200495446932063
20653085 51 10882271724622689986
21524375 3 16379746588424616613
22112679 90 18052853301841239764
23419403 2 18121463982802914784
23559900 14 17975961082847488770
2748010 2 18337942398994479636
369184 2 17265801833650359616
598444 67 16473767463986927310
7364860 26 18339366395211486441
81228 2 17977674112550176640

>  <PUBCHEM_SHAPE_MULTIPOLES>  (1) 
315.52
3.86
2.52
1.34
2.47
0.16
-0.21
2.84
0.17
-1.02
-0.07
-0.1
-0.49
0.11

>  <PUBCHEM_SHAPE_SELFOVERLAP>  (1) 
689.694

>  <PUBCHEM_SHAPE_VOLUME>  (1) 
164.8

>  <PUBCHEM_COORDINATE_TYPE>  (1) 
2
5
10

$$$$
