398
     RDKit          3D

  6  5  0  0  0  0  0  0  0  0999 V2000
    1.6465   -0.0346   -0.8336 O   0  0  0  0  0  0  0  0  0  0  0  0
    0.9088    0.0504    1.2409 O   0  0  0  0  0  0  0  0  0  0  0  0
    0.7396   -0.0052    0.0128 N   0  0  0  0  0  0  0  0  0  0  0  0
   -0.6545   -0.0156   -0.4794 C   0  0  0  0  0  0  0  0  0  0  0  0
   -1.3158    1.2668   -0.0095 C   0  0  0  0  0  0  0  0  0  0  0  0
   -1.3246   -1.2619    0.0687 C   0  0  0  0  0  0  0  0  0  0  0  0
  1  3  1  0
  2  3  2  0
  3  4  1  0
  4  5  1  0
  4  6  1  0
M  CHG  2   1  -1   3   1
M  END
>  <PUBCHEM_COMPOUND_CID>  (1) 
398

>  <PUBCHEM_CONFORMER_RMSD>  (1) 
0.4

>  <PUBCHEM_CONFORMER_DIVERSEORDER>  (1) 
1
2
3

>  <PUBCHEM_MMFF94_PARTIAL_CHARGES>  (1) 
4
1 -0.52
2 -0.52
3 0.8
4 0.24

>  <PUBCHEM_EFFECTIVE_ROTOR_COUNT>  (1) 
1

>  <PUBCHEM_PHARMACOPHORE_FEATURES>  (1) 
4
1 1 acceptor
1 1 anion
1 2 acceptor
3 4 5 6 hydrophobe

>  <PUBCHEM_HEAVY_ATOM_COUNT>  (1) 
6

>  <PUBCHEM_ATOM_DEF_STEREO_COUNT>  (1) 
0

>  <PUBCHEM_ATOM_UDEF_STEREO_COUNT>  (1) 
0

>  <PUBCHEM_BOND_DEF_STEREO_COUNT>  (1) 
0

>  <PUBCHEM_BOND_UDEF_STEREO_COUNT>  (1) 
0

>  <PUBCHEM_ISOTOPIC_ATOM_COUNT>  (1) 
0

>  <PUBCHEM_COMPONENT_COUNT>  (1) 
1

>  <PUBCHEM_CACTVS_TAUTO_COUNT>  (1) 
2

>  <PUBCHEM_CONFORMER_ID>  (1) 
0000018E00000001

>  <PUBCHEM_MMFF94_ENERGY>  (1) 
5.4986

>  <PUBCHEM_FEATURE_SELFOVERLAP>  (1) 
20.376

>  <PUBCHEM_SHAPE_FINGERPRINT>  (1) 
137420 1 11009159111732153287
139733 1 9654763775019775303
16714656 1 18337972133132067861
20096714 4 17823146639511650532
21015797 1 12319468709137176967
21040471 1 18194675969560499693
24536 1 18340192055450672836
29004967 10 17979651343636761515
5943 1 15248995704761610129

>  <PUBCHEM_SHAPE_MULTIPOLES>  (1) 
106.76
1.86
1.18
0.92
0.32
0.01
0.15
-0.01
-0.16
-0.77
0.03
0.32
0
0.02

>  <PUBCHEM_SHAPE_SELFOVERLAP>  (1) 
190.932

>  <PUBCHEM_SHAPE_VOLUME>  (1) 
70.2

>  <PUBCHEM_COORDINATE_TYPE>  (1) 
2
5
10

$$$$
