39807
     RDKit          3D

 22 23  0  0  1  0  0  0  0  0999 V2000
   -0.3250   -1.5881    1.5101 O   0  0  0  0  0  0  0  0  0  0  0  0
   -2.7199   -1.8607    0.2417 O   0  0  0  0  0  0  0  0  0  0  0  0
   -3.8504    0.2922   -1.0750 O   0  0  0  0  0  0  0  0  0  0  0  0
    3.0273   -1.5341   -1.6189 O   0  0  0  0  0  0  0  0  0  0  0  0
    3.6521   -1.4071    0.5875 O   0  0  0  0  0  0  0  0  0  0  0  0
    2.4530    0.2906   -0.4434 N   0  0  0  0  0  0  0  0  0  0  0  0
    2.3444    1.1855    0.6861 C   0  0  0  0  0  0  0  0  0  0  0  0
    2.4090    2.6556    0.2563 C   0  0  0  0  0  0  0  0  0  0  0  0
    1.1428    0.8457    1.5795 C   0  0  0  0  0  0  0  0  0  0  0  0
    1.2411    3.1599   -0.5918 C   0  0  0  0  0  0  0  0  0  0  0  0
   -0.0950    3.1750    0.1482 C   0  0  0  0  0  0  0  0  0  0  0  0
   -0.1804    0.7312    0.8595 C   0  0  0  0  0  0  0  0  0  0  0  0
   -0.7605    1.8229    0.1889 C   0  0  0  0  0  0  0  0  0  0  0  0
   -0.8555   -0.5024    0.8706 C   0  0  0  0  0  0  0  0  0  0  0  0
   -1.9985    1.6532   -0.4554 C   0  0  0  0  0  0  0  0  0  0  0  0
   -2.0814   -0.6560    0.2247 C   0  0  0  0  0  0  0  0  0  0  0  0
   -2.6531    0.4224   -0.4391 C   0  0  0  0  0  0  0  0  0  0  0  0
    3.0972   -0.9283   -0.3961 C   0  0  0  0  0  0  0  0  0  0  0  0
   -0.0604   -2.7382    0.7132 C   0  0  0  0  0  0  0  0  0  0  0  0
   -3.6275   -2.0968    1.3154 C   0  0  0  0  0  0  0  0  0  0  0  0
   -3.8175   -0.1066   -2.4442 C   0  0  0  0  0  0  0  0  0  0  0  0
    3.6582   -2.8160   -1.7177 C   0  0  0  0  0  0  0  0  0  0  0  0
  1 14  1  0
  1 19  1  0
  2 16  1  0
  2 20  1  0
  3 17  1  0
  3 21  1  0
  4 18  1  0
  4 22  1  0
  5 18  2  0
  6  7  1  0
  6 18  1  0
  7  8  1  0
  7  9  1  0
  8 10  1  0
  9 12  1  0
 10 11  1  0
 11 13  1  0
 12 13  2  0
 12 14  1  0
 13 15  1  0
 14 16  2  0
 15 17  2  0
 16 17  1  0
M  END
>  <PUBCHEM_COMPOUND_CID>  (1) 
39807

>  <PUBCHEM_CONFORMER_RMSD>  (1) 
0.8

>  <PUBCHEM_CONFORMER_DIVERSEORDER>  (1) 
1
71
62
30
49
18
23
40
53
42
75
22
67
9
25
51
76
2
16
73
72
32
11
52
10
50
77
34
39
20
65
38
56
4
46
74
15
70
57
63
29
68
27
19
5
7
58
3
55
24
33
64
48
37
12
61
17
26
36
8
31
35
21
66
13
44
41
14
45
28
69
6
54
59
60
47
43

>  <PUBCHEM_MMFF94_PARTIAL_CHARGES>  (1) 
22
1 -0.36
11 0.14
12 -0.14
13 -0.14
14 0.08
15 -0.15
16 0.08
17 0.08
18 0.78
19 0.28
2 -0.36
20 0.28
21 0.28
22 0.28
3 -0.36
32 0.37
33 0.15
4 -0.43
5 -0.57
6 -0.73
7 0.3
9 0.14

>  <PUBCHEM_EFFECTIVE_ROTOR_COUNT>  (1) 
7

>  <PUBCHEM_PHARMACOPHORE_FEATURES>  (1) 
7
1 1 acceptor
1 2 acceptor
1 3 acceptor
1 5 acceptor
1 6 donor
6 12 13 14 15 16 17 rings
7 7 8 9 10 11 12 13 rings

>  <PUBCHEM_HEAVY_ATOM_COUNT>  (1) 
22

>  <PUBCHEM_ATOM_DEF_STEREO_COUNT>  (1) 
0

>  <PUBCHEM_ATOM_UDEF_STEREO_COUNT>  (1) 
1

>  <PUBCHEM_BOND_DEF_STEREO_COUNT>  (1) 
0

>  <PUBCHEM_BOND_UDEF_STEREO_COUNT>  (1) 
0

>  <PUBCHEM_ISOTOPIC_ATOM_COUNT>  (1) 
0

>  <PUBCHEM_COMPONENT_COUNT>  (1) 
1

>  <PUBCHEM_CACTVS_TAUTO_COUNT>  (1) 
2

>  <PUBCHEM_CONFORMER_ID>  (1) 
00009B7F00000001

>  <PUBCHEM_MMFF94_ENERGY>  (1) 
83.5291

>  <PUBCHEM_FEATURE_SELFOVERLAP>  (1) 
35.54

>  <PUBCHEM_SHAPE_FINGERPRINT>  (1) 
10906281 52 18408886278312489008
116883 192 18341608162098229948
12553582 1 18265337196568237754
12623949 98 17832171659113977051
12824470 246 16342846798150114799
13140716 1 18409166593162265665
13383661 66 16334431329282676414
14251745 187 18268987601205988848
14251757 17 18334006220571259767
14790565 3 17259061788185585800
15415430 2 18265620879168830664
15475509 8 17984426231253896901
16945 1 18115570587856903873
17357779 13 18271810077688008134
18186145 218 18114453535413807721
19591789 44 17402334772071715553
20600515 1 17973126674192454232
20645477 70 18270391806161084607
21285901 2 17610335314164276999
22182313 1 17970338424910828017
22802520 49 18411982468157880464
23114952 82 18191603044935077132
2334 1 18263358243142193017
23526113 38 18339062891722450697
23559900 14 18336536227192880200
23566358 2 18189051069894127549
238 59 18123727997418850047
2748010 2 17898835006234775849
3060560 45 17971160764844960477
5262128 65 18412266138031736212
81228 2 18196940963682738104
9709674 26 18342455890211029788

>  <PUBCHEM_SHAPE_MULTIPOLES>  (1) 
418.42
6.4
3.77
1.65
0.9
0.61
0.65
-3.75
2.81
-2.33
0.26
0.62
-0.8
1.93

>  <PUBCHEM_SHAPE_SELFOVERLAP>  (1) 
867.503

>  <PUBCHEM_SHAPE_VOLUME>  (1) 
238.8

>  <PUBCHEM_COORDINATE_TYPE>  (1) 
2
5
10

$$$$
