39806
     RDKit          3D

 19 20  0  0  1  0  0  0  0  0999 V2000
   -1.6381    0.9759   -1.5809 O   0  0  0  0  0  0  0  0  0  0  0  0
   -0.2699    2.1336    0.4331 O   0  0  0  0  0  0  0  0  0  0  0  0
   -2.8932   -1.2192    1.0685 O   0  0  0  0  0  0  0  0  0  0  0  0
    3.4563    1.3008    0.2652 N   0  0  0  0  0  0  0  0  0  0  0  0
   -2.0040    0.6071   -0.2505 C   0  0  0  0  0  0  0  0  0  0  0  0
   -0.8152    0.8406    0.6949 C   0  0  0  0  0  0  0  0  0  0  0  0
   -2.4378   -0.8551   -0.2320 C   0  0  0  0  0  0  0  0  0  0  0  0
    0.2695   -0.2165    0.5960 C   0  0  0  0  0  0  0  0  0  0  0  0
   -1.2813   -1.7794   -0.6332 C   0  0  0  0  0  0  0  0  0  0  0  0
    0.0611   -1.3944   -0.0395 C   0  0  0  0  0  0  0  0  0  0  0  0
    1.5814    0.1004    1.2938 C   0  0  0  0  0  0  0  0  0  0  0  0
    1.0831   -2.4289   -0.1733 C   0  0  0  0  0  0  0  0  0  0  0  0
    2.7606    0.1243    0.3419 C   0  0  0  0  0  0  0  0  0  0  0  0
    2.4042   -2.2398   -0.3234 C   0  0  0  0  0  0  0  0  0  0  0  0
    3.0900   -0.9671   -0.3770 C   0  0  0  0  0  0  0  0  0  0  0  0
   -2.7125    0.7740   -2.4850 C   0  0  0  0  0  0  0  0  0  0  0  0
   -1.2663    3.1400    0.5198 C   0  0  0  0  0  0  0  0  0  0  0  0
   -3.9675   -0.3926    1.4914 C   0  0  0  0  0  0  0  0  0  0  0  0
    4.5797    1.4961   -0.6099 C   0  0  0  0  0  0  0  0  0  0  0  0
  1  5  1  0
  1 16  1  0
  2  6  1  0
  2 17  1  0
  3  7  1  0
  3 18  1  0
  4 13  1  0
  4 19  1  0
  5  6  1  0
  5  7  1  0
  6  8  1  0
  7  9  1  0
  8 10  2  0
  8 11  1  0
  9 10  1  0
 10 12  1  0
 11 13  1  0
 12 14  2  0
 13 15  2  0
 14 15  1  0
M  END
>  <PUBCHEM_COMPOUND_CID>  (1) 
39806

>  <PUBCHEM_CONFORMER_RMSD>  (1) 
0.6

>  <PUBCHEM_CONFORMER_DIVERSEORDER>  (1) 
3
33
23
5
30
36
17
32
37
15
28
35
18
7
22
40
11
4
24
16
41
29
9
1
27
38
19
31
8
13
20
12
26
39
6
25
14
2
10
21
34

>  <PUBCHEM_MMFF94_PARTIAL_CHARGES>  (1) 
23
1 -0.56
10 -0.14
11 0.28
12 -0.15
13 -0.04
14 -0.15
15 -0.15
16 0.28
17 0.28
18 0.28
19 0.37
2 -0.56
27 0.15
28 0.15
29 0.15
3 -0.56
39 0.4
4 -0.87
5 0.28
6 0.42
7 0.28
8 -0.28
9 0.14

>  <PUBCHEM_EFFECTIVE_ROTOR_COUNT>  (1) 
5

>  <PUBCHEM_PHARMACOPHORE_FEATURES>  (1) 
7
1 1 acceptor
1 2 acceptor
1 3 acceptor
1 4 cation
1 4 donor
6 5 6 7 8 9 10 rings
7 8 10 11 12 13 14 15 rings

>  <PUBCHEM_HEAVY_ATOM_COUNT>  (1) 
19

>  <PUBCHEM_ATOM_DEF_STEREO_COUNT>  (1) 
0

>  <PUBCHEM_ATOM_UDEF_STEREO_COUNT>  (1) 
3

>  <PUBCHEM_BOND_DEF_STEREO_COUNT>  (1) 
0

>  <PUBCHEM_BOND_UDEF_STEREO_COUNT>  (1) 
0

>  <PUBCHEM_ISOTOPIC_ATOM_COUNT>  (1) 
0

>  <PUBCHEM_COMPONENT_COUNT>  (1) 
1

>  <PUBCHEM_CACTVS_TAUTO_COUNT>  (1) 
1

>  <PUBCHEM_CONFORMER_ID>  (1) 
00009B7E00000003

>  <PUBCHEM_MMFF94_ENERGY>  (1) 
67.4657

>  <PUBCHEM_FEATURE_SELFOVERLAP>  (1) 
35.534

>  <PUBCHEM_SHAPE_FINGERPRINT>  (1) 
10498660 4 18340196496752786108
10967382 1 18341613780041586074
11961588 58 17315322986914355189
12173636 292 18341335487409054709
12403814 3 18041277780894401799
12553582 1 18272365408148004248
13027679 85 18269555112436050153
13140716 1 18053940929521108376
13583140 156 17531512210089308922
14787075 74 17897736597759415555
14790565 3 18196671789113126705
15219456 202 18336548231061690531
16945 1 18201142308959573946
17492 54 17611181950622213132
17844478 74 18336273357608008491
17980427 23 17767371636514069906
18186145 218 18343303686854227398
18981168 100 18189619336916685324
192875 21 17906143197641253158
21501502 16 18198905807840437626
22802520 49 18197498424409160578
2334 1 17693924598643121616
23402539 116 18129942394701153924
23493267 7 17896025581641300795
23557571 272 17530967964370139605
23558518 356 17978500936947247433
23559900 14 18117830006679049018
238 59 18054754438996978036
25610 137 18410864256226471993
2748010 2 17838875372506174536
350125 39 18268443351672056154
353137 74 18413105052713720496
633830 44 17632017571662650600

>  <PUBCHEM_SHAPE_MULTIPOLES>  (1) 
368.42
6.28
2.71
1.45
3.19
0.74
-0.67
1.06
-0.23
0.5
0
-1.53
0.3
0.4

>  <PUBCHEM_SHAPE_SELFOVERLAP>  (1) 
760.367

>  <PUBCHEM_SHAPE_VOLUME>  (1) 
208.6

>  <PUBCHEM_COORDINATE_TYPE>  (1) 
2
5
10

$$$$
