39802
     RDKit          3D

 21 22  0  0  1  0  0  0  0  0999 V2000
   -0.8701   -1.5619   -1.9012 O   0  0  0  0  0  0  0  0  0  0  0  0
   -3.1310   -1.8347   -0.4077 O   0  0  0  0  0  0  0  0  0  0  0  0
   -3.8740    0.1507    1.3684 O   0  0  0  0  0  0  0  0  0  0  0  0
    3.3596   -1.8739    1.1669 O   0  0  0  0  0  0  0  0  0  0  0  0
    4.6211   -0.5616   -0.2336 O   0  0  0  0  0  0  0  0  0  0  0  0
    2.3237   -0.2962   -0.0485 N   0  0  0  0  0  0  0  0  0  0  0  0
    2.1629    0.7903   -0.9868 C   0  0  0  0  0  0  0  0  0  0  0  0
    2.4286    2.1479   -0.3286 C   0  0  0  0  0  0  0  0  0  0  0  0
    0.8378    0.7059   -1.7581 C   0  0  0  0  0  0  0  0  0  0  0  0
    1.4189    2.5922    0.7299 C   0  0  0  0  0  0  0  0  0  0  0  0
    0.0207    2.8541    0.1737 C   0  0  0  0  0  0  0  0  0  0  0  0
   -0.4049    0.5877   -0.9074 C   0  0  0  0  0  0  0  0  0  0  0  0
   -0.7879    1.5941   -0.0029 C   0  0  0  0  0  0  0  0  0  0  0  0
   -1.2076   -0.5600   -1.0344 C   0  0  0  0  0  0  0  0  0  0  0  0
   -1.9614    1.4267    0.7531 C   0  0  0  0  0  0  0  0  0  0  0  0
   -2.3671   -0.7131   -0.2754 C   0  0  0  0  0  0  0  0  0  0  0  0
   -2.7441    0.2810    0.6191 C   0  0  0  0  0  0  0  0  0  0  0  0
    3.5383   -0.8788    0.2476 C   0  0  0  0  0  0  0  0  0  0  0  0
   -4.1681   -1.7994   -1.3855 C   0  0  0  0  0  0  0  0  0  0  0  0
   -3.7392   -0.4800    2.6406 C   0  0  0  0  0  0  0  0  0  0  0  0
    4.5437   -2.5709    1.5706 C   0  0  0  0  0  0  0  0  0  0  0  0
  1 14  1  0
  2 16  1  0
  2 19  1  0
  3 17  1  0
  3 20  1  0
  4 18  1  0
  4 21  1  0
  5 18  2  0
  6  7  1  0
  6 18  1  0
  7  8  1  0
  7  9  1  0
  8 10  1  0
  9 12  1  0
 10 11  1  0
 11 13  1  0
 12 13  2  0
 12 14  1  0
 13 15  1  0
 14 16  2  0
 15 17  2  0
 16 17  1  0
M  END
>  <PUBCHEM_COMPOUND_CID>  (1) 
39802

>  <PUBCHEM_CONFORMER_RMSD>  (1) 
0.8

>  <PUBCHEM_CONFORMER_DIVERSEORDER>  (1) 
1
40
10
16
25
35
6
21
13
27
36
38
50
2
51
28
52
22
47
11
48
15
26
43
32
12
7
44
23
19
14
20
42
30
39
4
37
18
3
33
53
45
5
41
8
9
46
49
34
29
17
24
31

>  <PUBCHEM_MMFF94_PARTIAL_CHARGES>  (1) 
22
1 -0.53
11 0.14
12 -0.14
13 -0.14
14 0.08
15 -0.15
16 0.08
17 0.08
18 0.78
19 0.28
2 -0.36
20 0.28
21 0.28
3 -0.36
31 0.37
32 0.15
33 0.45
4 -0.43
5 -0.57
6 -0.73
7 0.3
9 0.14

>  <PUBCHEM_EFFECTIVE_ROTOR_COUNT>  (1) 
6

>  <PUBCHEM_PHARMACOPHORE_FEATURES>  (1) 
7
1 1 donor
1 2 acceptor
1 3 acceptor
1 5 acceptor
1 6 donor
6 12 13 14 15 16 17 rings
7 7 8 9 10 11 12 13 rings

>  <PUBCHEM_HEAVY_ATOM_COUNT>  (1) 
21

>  <PUBCHEM_ATOM_DEF_STEREO_COUNT>  (1) 
0

>  <PUBCHEM_ATOM_UDEF_STEREO_COUNT>  (1) 
1

>  <PUBCHEM_BOND_DEF_STEREO_COUNT>  (1) 
0

>  <PUBCHEM_BOND_UDEF_STEREO_COUNT>  (1) 
0

>  <PUBCHEM_ISOTOPIC_ATOM_COUNT>  (1) 
0

>  <PUBCHEM_COMPONENT_COUNT>  (1) 
1

>  <PUBCHEM_CACTVS_TAUTO_COUNT>  (1) 
18

>  <PUBCHEM_CONFORMER_ID>  (1) 
00009B7A00000001

>  <PUBCHEM_MMFF94_ENERGY>  (1) 
70.216

>  <PUBCHEM_FEATURE_SELFOVERLAP>  (1) 
35.534

>  <PUBCHEM_SHAPE_FINGERPRINT>  (1) 
10382601 240 18199198471471445536
11086676 242 18270976694897527224
11132069 177 17846230920855125157
11221954 11 13182198222854510931
11578080 2 18188751921259597580
11725454 13 14260797105479478073
12202030 40 17168429371277582945
12251169 10 18130518460899297149
12553582 1 18410577258370464798
12633257 1 17775013370632800289
13140716 1 17988096594266841577
13533116 47 18264766735176412603
13544653 18 18187361000537308682
13583140 156 18191041182146679609
14178342 30 17489325074387087671
14251764 38 12390969868656132130
14787075 74 18337957896007039124
15163728 17 9942950256953693824
15342168 16 10015589458003771567
15375462 189 18408611357412998060
15475509 35 17825133607890281939
15537594 2 18337403685852798010
16945 1 17844554165834049165
17349148 13 17704071833038052509
17780758 139 17760344627895061474
1813 80 17969520233551367374
20291156 8 18335700490885979674
21033648 29 15410897344774780186
212916 134 17059793108885648603
21475661 188 15123235351520086043
21501502 16 17773330130348250333
22112679 90 18202285839649241941
22620623 9 14923944583215063275
2334 1 17485668240600135909
23419403 2 15835861921799875965
23557571 272 16128666283634510135
23598288 3 17973445399873611940
25147074 1 17916035744670174309
2748010 2 17480620090653998037
2838139 119 13397790402957347179
4072396 5 18199480891720243209
5262128 65 15140973854452647454
56633871 153 18127975209042810607
59444896 2 11795749176651803981
7097593 13 18342175596144694596
90316 7 18272369737258903465

>  <PUBCHEM_SHAPE_MULTIPOLES>  (1) 
397.84
7.97
2.87
1.84
2.57
0.56
0.47
-6.53
3.04
2.02
0.59
-1.39
-0.76
-1.96

>  <PUBCHEM_SHAPE_SELFOVERLAP>  (1) 
827.774

>  <PUBCHEM_SHAPE_VOLUME>  (1) 
226

>  <PUBCHEM_COORDINATE_TYPE>  (1) 
2
5
10

$$$$
