39801
     RDKit          3D

 14 13  0  0  0  0  0  0  0  0999 V2000
   -4.5333   -0.4818   -0.0183 O   0  0  0  0  0  0  0  0  0  0  0  0
   -5.9197    1.3643    0.0643 O   0  0  0  0  0  0  0  0  0  0  0  0
    1.7046    0.3171   -0.0357 C   0  0  0  0  0  0  0  0  0  0  0  0
    0.4378   -0.5405   -0.0839 C   0  0  0  0  0  0  0  0  0  0  0  0
    2.9625   -0.5517    0.0298 C   0  0  0  0  0  0  0  0  0  0  0  0
   -0.8200    0.3305   -0.1116 C   0  0  0  0  0  0  0  0  0  0  0  0
    4.2270    0.3090    0.1113 C   0  0  0  0  0  0  0  0  0  0  0  0
   -2.1207   -0.4802   -0.0783 C   0  0  0  0  0  0  0  0  0  0  0  0
    5.5120   -0.5196    0.2070 C   0  0  0  0  0  0  0  0  0  0  0  0
   -3.3907    0.3612   -0.0248 C   0  0  0  0  0  0  0  0  0  0  0  0
    6.7443    0.3235    0.3562 C   0  0  0  0  0  0  0  0  0  0  0  0
    7.7924    0.2696   -0.4732 C   0  0  0  0  0  0  0  0  0  0  0  0
   -5.7441    0.1540    0.0283 C   0  0  0  0  0  0  0  0  0  0  0  0
   -6.8520   -0.8552    0.0290 C   0  0  0  0  0  0  0  0  0  0  0  0
  1 10  1  0
  1 13  1  0
  2 13  2  0
  3  4  1  0
  3  5  1  0
  4  6  1  0
  5  7  1  0
  6  8  1  0
  7  9  1  0
  8 10  1  0
  9 11  1  0
 11 12  2  0
 13 14  1  0
M  END
>  <PUBCHEM_COMPOUND_CID>  (1) 
39801

>  <PUBCHEM_CONFORMER_RMSD>  (1) 
1

>  <PUBCHEM_CONFORMER_DIVERSEORDER>  (1) 
1
155
94
40
26
44
54
79
151
144
2
117
130
64
63
18
61
105
99
8
72
32
102
118
21
35
67
127
147
16
53
13
51
37
84
116
59
87
136
89
75
95
15
38
66
4
71
25
96
39
142
43
77
19
112
149
81
6
34
110
30
85
126
10
113
159
90
20
74
148
120
73
42
23
14
100
121
12
17
119
7
150
156
104
28
101
131
27
29
58
48
128
5
135
106
141
55
108
78
22
82
143
45
76
129
52
31
154
68
3
33
56
62
88
146
140
93
134
46
139
98
47
49
103
60
50
92
137
86
125
115
124
138
36
123
69
109
57
152
11
145
111
107
70
65
91
83
97
9
157
153
24
114
133
80
41
132
158
122

>  <PUBCHEM_MMFF94_PARTIAL_CHARGES>  (1) 
11
1 -0.43
10 0.28
11 -0.29
12 -0.3
13 0.66
14 0.06
2 -0.57
31 0.15
32 0.15
33 0.15
9 0.14

>  <PUBCHEM_EFFECTIVE_ROTOR_COUNT>  (1) 
10

>  <PUBCHEM_PHARMACOPHORE_FEATURES>  (1) 
2
1 12 hydrophobe
1 2 acceptor

>  <PUBCHEM_HEAVY_ATOM_COUNT>  (1) 
14

>  <PUBCHEM_ATOM_DEF_STEREO_COUNT>  (1) 
0

>  <PUBCHEM_ATOM_UDEF_STEREO_COUNT>  (1) 
0

>  <PUBCHEM_BOND_DEF_STEREO_COUNT>  (1) 
0

>  <PUBCHEM_BOND_UDEF_STEREO_COUNT>  (1) 
0

>  <PUBCHEM_ISOTOPIC_ATOM_COUNT>  (1) 
0

>  <PUBCHEM_COMPONENT_COUNT>  (1) 
1

>  <PUBCHEM_CACTVS_TAUTO_COUNT>  (1) 
1

>  <PUBCHEM_CONFORMER_ID>  (1) 
00009B7900000001

>  <PUBCHEM_MMFF94_ENERGY>  (1) 
4.385

>  <PUBCHEM_FEATURE_SELFOVERLAP>  (1) 
10.148

>  <PUBCHEM_SHAPE_FINGERPRINT>  (1) 
10968037 39 18334294271206236575
11315181 36 18113339722135461545
12091667 2 18272369780967770423
13533116 47 17531236220181279818
14123256 10 16415481549703270682
14251764 18 18187081758722052442
14251764 46 18186519908707533195
14729087 3 18412822460987984169
17834076 25 18410573989451706178
18006028 8 14490470893633505214
20281389 69 18335698334981591856
20767249 213 17917711314048090018
21130983 4 18040719173643501172
22224240 67 16660361502603099530
23035841 295 10735876170858209972
23402539 116 18272364283214368565
23521765 1 18341894095134312614
28498 318 11023837162957031944
33684 2 18409165510824965315
3545911 37 17917992780556341310
42788 4 18411699885475012185
4463277 17 18411980260898182888
59567204 34 17917152689845148817
8209 1 18410855464428410350

>  <PUBCHEM_SHAPE_MULTIPOLES>  (1) 
276.37
23.09
0.9
0.64
6.01
0.07
-0.01
1.14
-0.06
-0.78
0.01
0.27
0
-0.08

>  <PUBCHEM_SHAPE_SELFOVERLAP>  (1) 
503.763

>  <PUBCHEM_SHAPE_VOLUME>  (1) 
175.8

>  <PUBCHEM_COORDINATE_TYPE>  (1) 
2
5
10

$$$$
