39814
     RDKit          3D

 24 25  0  0  1  0  0  0  0  0999 V2000
    2.0477    0.4458    1.3721 O   0  0  0  0  0  0  0  0  0  0  0  0
    3.1399    0.3994   -0.7764 O   0  0  0  0  0  0  0  0  0  0  0  0
    1.0687    2.5923   -1.6731 O   0  0  0  0  0  0  0  0  0  0  0  0
   -0.8417   -4.4162   -0.5003 O   0  0  0  0  0  0  0  0  0  0  0  0
   -1.1401   -3.4927    1.4688 O   0  0  0  0  0  0  0  0  0  0  0  0
   -3.2148    1.3312   -0.4151 N   0  0  0  0  0  0  0  0  0  0  0  0
    0.1751    2.5931    0.4723 N   0  0  0  0  0  0  0  0  0  0  0  0
   -0.5797   -3.5287    0.3469 N   0  0  0  0  0  0  0  0  0  0  0  0
    3.0128    1.0798    0.4967 C   0  0  0  0  0  0  0  0  0  0  0  0
    2.5560    2.5141    0.2332 C   0  0  0  0  0  0  0  0  0  0  0  0
   -1.8023    1.2528   -0.0657 C   0  0  0  0  0  0  0  0  0  0  0  0
    4.3749    1.0650    1.1894 C   0  0  0  0  0  0  0  0  0  0  0  0
   -1.2195    2.6488    0.0978 C   0  0  0  0  0  0  0  0  0  0  0  0
    1.6258   -0.5936    0.5996 C   0  0  0  0  0  0  0  0  0  0  0  0
    2.2493   -0.6200   -0.6268 C   0  0  0  0  0  0  0  0  0  0  0  0
    1.2081    2.5695   -0.4532 C   0  0  0  0  0  0  0  0  0  0  0  0
   -3.6607    0.0875   -1.0462 C   0  0  0  0  0  0  0  0  0  0  0  0
   -4.0249    1.6166    0.7708 C   0  0  0  0  0  0  0  0  0  0  0  0
    0.6858   -1.5378    0.9569 C   0  0  0  0  0  0  0  0  0  0  0  0
    1.9673   -1.5922   -1.5640 C   0  0  0  0  0  0  0  0  0  0  0  0
    0.3817   -2.5337    0.0259 C   0  0  0  0  0  0  0  0  0  0  0  0
   -3.5353   -1.0880   -0.0918 C   0  0  0  0  0  0  0  0  0  0  0  0
   -5.4928    1.7675    0.4096 C   0  0  0  0  0  0  0  0  0  0  0  0
    1.0187   -2.5607   -1.2274 C   0  0  0  0  0  0  0  0  0  0  0  0
  1  9  1  0
  1 14  1  0
  2  9  1  0
  2 15  1  0
  3 16  2  0
  4  8  1  0
  5  8  2  0
  6 11  1  0
  6 17  1  0
  6 18  1  0
  7 13  1  0
  7 16  1  0
  8 21  1  0
  9 10  1  0
  9 12  1  0
 10 16  1  0
 11 13  1  0
 14 15  2  0
 14 19  1  0
 15 20  1  0
 17 22  1  0
 18 23  1  0
 19 21  2  0
 20 24  2  0
 21 24  1  0
M  CHG  2   4  -1   8   1
M  END
>  <PUBCHEM_COMPOUND_CID>  (1) 
39814

>  <PUBCHEM_CONFORMER_RMSD>  (1) 
1

>  <PUBCHEM_CONFORMER_DIVERSEORDER>  (1) 
1
37
77
19
76
8
5
97
117
7
16
98
80
143
75
54
24
41
82
128
2
84
58
96
49
3
10
11
102
6
95
70
127
40
79
106
32
136
78
87
101
113
23
108
47
110
53
83
22
86
88
125
138
61
122
17
115
45
89
31
149
68
55
104
120
112
105
94
137
73
64
35
111
42
99
148
60
103
72
119
29
12
25
146
33
52
124
20
67
14
85
27
13
133
140
100
132
43
74
118
142
28
59
34
135
81
4
123
91
65
145
114
66
50
129
56
69
39
9
71
44
48
93
36
62
46
38
121
107
63
141
21
116
109
18
30
26
134
92
57
131
139
15
90
144
130
147
51
126

>  <PUBCHEM_MMFF94_PARTIAL_CHARGES>  (1) 
25
1 -0.36
10 0.06
11 0.27
13 0.3
14 0.08
15 0.08
16 0.57
17 0.27
18 0.27
19 -0.15
2 -0.36
20 -0.15
21 0.13
24 -0.15
3 -0.57
34 0.37
39 0.15
4 -0.52
40 0.15
47 0.15
5 -0.52
6 -0.81
7 -0.73
8 0.91
9 0.56

>  <PUBCHEM_EFFECTIVE_ROTOR_COUNT>  (1) 
9.6

>  <PUBCHEM_PHARMACOPHORE_FEATURES>  (1) 
10
1 1 acceptor
1 2 acceptor
1 3 acceptor
1 4 acceptor
1 4 anion
1 5 acceptor
1 6 cation
1 7 donor
5 1 2 9 14 15 rings
6 14 15 19 20 21 24 rings

>  <PUBCHEM_HEAVY_ATOM_COUNT>  (1) 
24

>  <PUBCHEM_ATOM_DEF_STEREO_COUNT>  (1) 
0

>  <PUBCHEM_ATOM_UDEF_STEREO_COUNT>  (1) 
1

>  <PUBCHEM_BOND_DEF_STEREO_COUNT>  (1) 
0

>  <PUBCHEM_BOND_UDEF_STEREO_COUNT>  (1) 
0

>  <PUBCHEM_ISOTOPIC_ATOM_COUNT>  (1) 
0

>  <PUBCHEM_COMPONENT_COUNT>  (1) 
1

>  <PUBCHEM_CACTVS_TAUTO_COUNT>  (1) 
2

>  <PUBCHEM_CONFORMER_ID>  (1) 
00009B8600000001

>  <PUBCHEM_MMFF94_ENERGY>  (1) 
48.9646

>  <PUBCHEM_FEATURE_SELFOVERLAP>  (1) 
50.982

>  <PUBCHEM_SHAPE_FINGERPRINT>  (1) 
10064457 181 18339080509462222441
104564 63 17543636786670073900
108634 29 18266741461916905494
114674 6 18266183816353199945
11578080 2 17414417701182527416
12553582 1 17835236749480752199
12596599 1 17846230912275629503
12788726 201 16316695166997092036
13122387 1 18410009918991972559
13140716 1 18337950065616981627
14178342 30 18341040818667357289
14863182 85 18337682909955799148
15635459 17 18264493888683361729
16728300 4 17172897580706926698
17093844 170 18340207397274398560
17138139 8 17554569115189855429
21197605 99 18196377142236213659
22182313 1 17985566669714168078
23419403 2 16984947273756207620
238 59 18193572077097815131
3060560 45 18337674105087660652
463206 1 17838880883719706367
6438718 38 17843681320540551166
6443956 14 18267027163178839245

>  <PUBCHEM_SHAPE_MULTIPOLES>  (1) 
449.62
7.31
4.83
1.28
8.58
4.11
-0.13
-4.8
0.99
-0.08
0.03
-0.56
0.25
0.4

>  <PUBCHEM_SHAPE_SELFOVERLAP>  (1) 
935.955

>  <PUBCHEM_SHAPE_VOLUME>  (1) 
257.9

>  <PUBCHEM_COORDINATE_TYPE>  (1) 
2
5
10

$$$$
