39816
     RDKit          3D

 21 22  0  0  0  0  0  0  0  0999 V2000
   -2.7282    0.2462    1.0374 O   0  0  0  0  0  0  0  0  0  0  0  0
   -2.0843    0.1224   -1.2822 O   0  0  0  0  0  0  0  0  0  0  0  0
    0.1248    2.0070   -0.8631 O   0  0  0  0  0  0  0  0  0  0  0  0
   -0.2206    2.1106    1.4158 O   0  0  0  0  0  0  0  0  0  0  0  0
    3.2979    0.2069   -0.3223 N   0  0  0  0  0  0  0  0  0  0  0  0
   -2.7661    0.8903   -0.2600 C   0  0  0  0  0  0  0  0  0  0  0  0
   -2.0816    2.2516   -0.1426 C   0  0  0  0  0  0  0  0  0  0  0  0
   -4.2278    1.0542   -0.6744 C   0  0  0  0  0  0  0  0  0  0  0  0
    1.8694    0.3939   -0.5278 C   0  0  0  0  0  0  0  0  0  0  0  0
   -2.0254   -0.8859    0.7554 C   0  0  0  0  0  0  0  0  0  0  0  0
   -1.6579   -0.9566   -0.5688 C   0  0  0  0  0  0  0  0  0  0  0  0
    1.5329    1.8718   -0.6454 C   0  0  0  0  0  0  0  0  0  0  0  0
    3.6290   -1.2184   -0.2507 C   0  0  0  0  0  0  0  0  0  0  0  0
    3.7403    0.8901    0.8958 C   0  0  0  0  0  0  0  0  0  0  0  0
   -0.6369    2.1178    0.2655 C   0  0  0  0  0  0  0  0  0  0  0  0
   -1.6940   -1.8778    1.6550 C   0  0  0  0  0  0  0  0  0  0  0  0
   -0.9386   -2.0233   -1.0669 C   0  0  0  0  0  0  0  0  0  0  0  0
    3.1799   -1.9499   -1.5043 C   0  0  0  0  0  0  0  0  0  0  0  0
    5.2421    0.7597    1.0838 C   0  0  0  0  0  0  0  0  0  0  0  0
   -0.9652   -2.9692    1.1765 C   0  0  0  0  0  0  0  0  0  0  0  0
   -0.5897   -3.0414   -0.1767 C   0  0  0  0  0  0  0  0  0  0  0  0
  1  6  1  0
  1 10  1  0
  2  6  1  0
  2 11  1  0
  3 12  1  0
  3 15  1  0
  4 15  2  0
  5  9  1  0
  5 13  1  0
  5 14  1  0
  6  7  1  0
  6  8  1  0
  7 15  1  0
  9 12  1  0
 10 11  2  0
 10 16  1  0
 11 17  1  0
 13 18  1  0
 14 19  1  0
 16 20  2  0
 17 21  2  0
 20 21  1  0
M  END
>  <PUBCHEM_COMPOUND_CID>  (1) 
39816

>  <PUBCHEM_CONFORMER_RMSD>  (1) 
0.8

>  <PUBCHEM_CONFORMER_DIVERSEORDER>  (1) 
1
52
186
4
340
308
349
199
246
153
238
335
158
203
375
255
68
152
318
226
122
113
213
98
150
67
247
21
352
50
248
341
254
241
314
7
133
117
77
5
242
202
298
137
187
354
356
154
336
128
244
16
198
280
9
111
74
144
292
149
367
159
287
360
192
51
368
132
14
138
64
274
32
146
93
345
72
18
214
257
108
13
151
285
189
49
83
194
283
201
224
155
65
212
322
129
346
36
31
217
348
85
76
75
92
266
240
317
231
350
103
89
291
204
127
23
41
268
8
11
276
170
163
228
171
12
104
116
251
176
57
300
206
243
95
10
277
2
245
177
225
105
239
365
66
185
157
58
59
191
337
196
145
333
329
147
82
120
321
293
311
35
263
44
330
39
15
233
232
197
288
296
71
259
86
84
234
180
211
312
62
210
188
115
34
358
135
250
25
184
183
29
142
48
47
126
45
17
107
223
209
252
310
258
55
70
162
362
306
271
190
294
372
78
46
193
249
20
355
295
30
136
90
24
114
139
230
130
195
109
3
207
87
236
56
342
325
331
118
168
370
304
124
264
125
131
6
220
99
205
179
373
357
302
19
88
42
26
81
351
319
320
316
119
43
281
222
140
299
361
97
334
73
262
167
284
267
27
269
323
278
324
112
40
215
315
164
208
343
307
169
165
305
303
156
60
100
344
37
143
181
286
279
200
256
33
110
289
94
182
265
175
61
221
313
28
53
121
22
261
237
227
282
309
301
166
79
339
216
173
328
260
38
174
218
69
54
148
63
178
326
371
102
353
161
332
229
235
338
253
123
270
101
347
80
91
359
134
366
172
141
275
369
160
106
290
327
363
374
272
364
219
273
96
297

>  <PUBCHEM_MMFF94_PARTIAL_CHARGES>  (1) 
22
1 -0.36
10 0.08
11 0.08
12 0.28
13 0.27
14 0.27
15 0.66
16 -0.15
17 -0.15
2 -0.36
20 -0.15
21 -0.15
3 -0.43
35 0.15
36 0.15
4 -0.57
43 0.15
44 0.15
5 -0.81
6 0.56
7 0.06
9 0.27

>  <PUBCHEM_EFFECTIVE_ROTOR_COUNT>  (1) 
8.6

>  <PUBCHEM_PHARMACOPHORE_FEATURES>  (1) 
6
1 1 acceptor
1 2 acceptor
1 4 acceptor
1 5 cation
5 1 2 6 10 11 rings
6 10 11 16 17 20 21 rings

>  <PUBCHEM_HEAVY_ATOM_COUNT>  (1) 
21

>  <PUBCHEM_ATOM_DEF_STEREO_COUNT>  (1) 
0

>  <PUBCHEM_ATOM_UDEF_STEREO_COUNT>  (1) 
0

>  <PUBCHEM_BOND_DEF_STEREO_COUNT>  (1) 
0

>  <PUBCHEM_BOND_UDEF_STEREO_COUNT>  (1) 
0

>  <PUBCHEM_ISOTOPIC_ATOM_COUNT>  (1) 
0

>  <PUBCHEM_COMPONENT_COUNT>  (1) 
1

>  <PUBCHEM_CACTVS_TAUTO_COUNT>  (1) 
1

>  <PUBCHEM_CONFORMER_ID>  (1) 
00009B8800000001

>  <PUBCHEM_MMFF94_ENERGY>  (1) 
38.5095

>  <PUBCHEM_FEATURE_SELFOVERLAP>  (1) 
30.6

>  <PUBCHEM_SHAPE_FINGERPRINT>  (1) 
10366900 7 17846492656405132976
10616163 171 18120381110083996676
11370993 70 18339071593304924552
12035758 1 18336277833480701283
12422481 6 18049196455734026275
12553582 1 17977681027595508406
12592029 89 17968660389688856721
12670545 47 17917422185819914616
13140716 1 18194965377394729120
14081887 123 18272079535567803328
15163728 17 16373251352722491069
15375358 24 18341608226875686604
19930381 70 17916301636941085071
20645476 183 17603855711473241289
20905425 154 17546448873298773487
23419403 2 14258504868643886783
23558518 356 17984714319995186960
23559900 14 18343860009842032864
23728640 28 18336820982912188123
35225 105 16953418708614641938
59755656 215 18188485749947324133
598444 67 18262252087532215131
6138700 20 18192148205065516631
9709674 26 18413671318498042862

>  <PUBCHEM_SHAPE_MULTIPOLES>  (1) 
403.71
7.19
3.41
1.4
7.95
1.38
-0.18
-1.72
-0.57
-1.05
-0.23
0.12
0.45
1.26

>  <PUBCHEM_SHAPE_SELFOVERLAP>  (1) 
836.555

>  <PUBCHEM_SHAPE_VOLUME>  (1) 
232.4

>  <PUBCHEM_COORDINATE_TYPE>  (1) 
2
5
10

$$$$
