39827
     RDKit          3D

 22 23  0  0  1  0  0  0  0  0999 V2000
    2.0872    0.2945    1.3027 O   0  0  0  0  0  0  0  0  0  0  0  0
    2.8498    0.5414   -0.9707 O   0  0  0  0  0  0  0  0  0  0  0  0
    0.3378    2.3812   -1.4224 O   0  0  0  0  0  0  0  0  0  0  0  0
   -3.4516    0.3372    0.3047 N   0  0  0  0  0  0  0  0  0  0  0  0
   -0.2247    2.1246    0.8179 N   0  0  0  0  0  0  0  0  0  0  0  0
    2.7975    1.1276    0.3534 C   0  0  0  0  0  0  0  0  0  0  0  0
    2.0769    2.4717    0.2568 C   0  0  0  0  0  0  0  0  0  0  0  0
   -2.0102    0.4885    0.4552 C   0  0  0  0  0  0  0  0  0  0  0  0
    4.2289    1.3163    0.8545 C   0  0  0  0  0  0  0  0  0  0  0  0
    1.7355   -0.7641    0.5212 C   0  0  0  0  0  0  0  0  0  0  0  0
   -1.6487    1.9551    0.6386 C   0  0  0  0  0  0  0  0  0  0  0  0
    2.1709   -0.6231   -0.7766 C   0  0  0  0  0  0  0  0  0  0  0  0
    0.6536    2.3248   -0.2370 C   0  0  0  0  0  0  0  0  0  0  0  0
   -3.8107   -1.0756    0.1657 C   0  0  0  0  0  0  0  0  0  0  0  0
   -3.9332    1.0984   -0.8496 C   0  0  0  0  0  0  0  0  0  0  0  0
    1.0260   -1.8732    0.9326 C   0  0  0  0  0  0  0  0  0  0  0  0
    1.9208   -1.5833   -1.7349 C   0  0  0  0  0  0  0  0  0  0  0  0
    0.7592   -2.8609   -0.0184 C   0  0  0  0  0  0  0  0  0  0  0  0
    1.2039   -2.7168   -1.3445 C   0  0  0  0  0  0  0  0  0  0  0  0
   -3.3206   -1.8860    1.3537 C   0  0  0  0  0  0  0  0  0  0  0  0
   -5.4441    1.0033   -0.9785 C   0  0  0  0  0  0  0  0  0  0  0  0
   -0.0041   -4.0815    0.3758 C   0  0  0  0  0  0  0  0  0  0  0  0
  1  6  1  0
  1 10  1  0
  2  6  1  0
  2 12  1  0
  3 13  2  0
  4  8  1  0
  4 14  1  0
  4 15  1  0
  5 11  1  0
  5 13  1  0
  6  7  1  0
  6  9  1  0
  7 13  1  0
  8 11  1  0
 10 12  2  0
 10 16  1  0
 12 17  1  0
 14 20  1  0
 15 21  1  0
 16 18  2  0
 17 19  2  0
 18 19  1  0
 18 22  1  0
M  END
>  <PUBCHEM_COMPOUND_CID>  (1) 
39827

>  <PUBCHEM_CONFORMER_RMSD>  (1) 
0.8

>  <PUBCHEM_CONFORMER_DIVERSEORDER>  (1) 
1
39
165
23
200
43
216
127
244
30
196
123
16
253
255
215
46
87
214
45
139
218
118
130
36
174
52
7
147
8
180
80
105
159
122
119
70
234
151
220
183
44
152
177
138
25
13
132
228
137
76
166
12
190
235
51
223
169
116
29
107
42
2
72
124
243
128
67
101
5
33
92
81
142
95
79
4
168
232
65
173
172
83
106
192
161
246
126
153
202
156
162
97
205
26
231
164
212
3
208
140
241
186
150
167
250
48
121
149
82
17
184
9
102
181
41
179
251
148
10
201
222
55
155
249
213
62
49
24
50
37
136
31
239
219
120
237
60
75
68
145
211
109
84
63
35
14
93
11
238
191
170
38
134
73
206
236
209
40
20
94
90
99
182
248
54
171
32
143
58
233
66
64
198
22
115
69
53
221
157
18
158
207
86
117
203
125
188
189
21
113
242
61
194
98
163
175
154
217
15
34
56
195
91
193
19
114
89
199
197
225
6
47
71
85
112
187
247
254
108
204
74
240
146
59
57
185
131
129
229
176
210
103
227
88
135
27
96
77
28
178
111
133
230
226
252
141
104
100
110
160
224
144
78
245

>  <PUBCHEM_MMFF94_PARTIAL_CHARGES>  (1) 
23
1 -0.36
10 0.08
11 0.3
12 0.08
13 0.57
14 0.27
15 0.27
16 -0.15
17 -0.15
18 -0.14
19 -0.15
2 -0.36
22 0.14
3 -0.57
32 0.37
37 0.15
38 0.15
39 0.15
4 -0.81
5 -0.73
6 0.56
7 0.06
8 0.27

>  <PUBCHEM_EFFECTIVE_ROTOR_COUNT>  (1) 
8.6

>  <PUBCHEM_PHARMACOPHORE_FEATURES>  (1) 
7
1 1 acceptor
1 2 acceptor
1 3 acceptor
1 4 cation
1 5 donor
5 1 2 6 10 12 rings
6 10 12 16 17 18 19 rings

>  <PUBCHEM_HEAVY_ATOM_COUNT>  (1) 
22

>  <PUBCHEM_ATOM_DEF_STEREO_COUNT>  (1) 
0

>  <PUBCHEM_ATOM_UDEF_STEREO_COUNT>  (1) 
1

>  <PUBCHEM_BOND_DEF_STEREO_COUNT>  (1) 
0

>  <PUBCHEM_BOND_UDEF_STEREO_COUNT>  (1) 
0

>  <PUBCHEM_ISOTOPIC_ATOM_COUNT>  (1) 
0

>  <PUBCHEM_COMPONENT_COUNT>  (1) 
1

>  <PUBCHEM_CACTVS_TAUTO_COUNT>  (1) 
2

>  <PUBCHEM_CONFORMER_ID>  (1) 
00009B9300000001

>  <PUBCHEM_MMFF94_ENERGY>  (1) 
39.2498

>  <PUBCHEM_FEATURE_SELFOVERLAP>  (1) 
35.674

>  <PUBCHEM_SHAPE_FINGERPRINT>  (1) 
10498660 4 18411984659108321727
10675989 125 18047738309773229029
10759866 29 17823986838716098528
10871710 139 16246328630305263693
11370993 70 18337945800824966325
12553582 1 17834971775610332163
12596599 1 17703802439456374311
12788726 201 15956965774510552988
13083527 12 18047169874845143778
14178342 30 18341618057745156408
14251757 17 17972299730470079549
15338160 23 16904081672304708880
15375358 24 18408598158957509017
15635459 17 18411142424632349923
17093844 170 18336260137614307613
17138139 8 17269721953443893063
17492 54 18116739411751208332
20645477 70 18341889693389264693
21197605 99 17693104367713089739
21285901 2 17823125732302178037
21315764 371 16844423081823945087
23419403 2 16480835524684580348
23559900 14 18338229354597353907
238 59 18343586222334614003
2871803 45 18342740671864522852
3060560 45 18411415111752473684
463206 1 17911509111407658295
6438718 38 17269201952678368310
6443956 14 18411421678868895173
70251023 43 17771349678041845135
9709674 26 18340769248038107797

>  <PUBCHEM_SHAPE_MULTIPOLES>  (1) 
425.18
7.39
4.1
1.36
9.28
2.78
-0.28
-2.83
-0.54
-1.16
0.03
-0.16
0.3
1.38

>  <PUBCHEM_SHAPE_SELFOVERLAP>  (1) 
877.75

>  <PUBCHEM_SHAPE_VOLUME>  (1) 
246.5

>  <PUBCHEM_COORDINATE_TYPE>  (1) 
2
5
10

$$$$
