39828
     RDKit          3D

 26 28  0  0  0  0  0  0  0  0999 V2000
    7.8689    2.0480   -0.6627 Cl  0  0  0  0  0  0  0  0  0  0  0  0
   -0.1411   -1.6565   -0.4680 O   0  0  0  0  0  0  0  0  0  0  0  0
   -1.6547    0.3794   -1.8765 O   0  0  0  0  0  0  0  0  0  0  0  0
    3.0464   -0.8885    0.9484 O   0  0  0  0  0  0  0  0  0  0  0  0
    1.3164   -2.9353    0.7844 O   0  0  0  0  0  0  0  0  0  0  0  0
   -2.9383   -1.1833   -0.6965 N   0  0  0  0  0  0  0  0  0  0  0  0
   -4.5825   -0.4341    0.8493 N   0  0  0  0  0  0  0  0  0  0  0  0
   -2.2698   -2.3145   -1.3379 C   0  0  0  0  0  0  0  0  0  0  0  0
   -3.9475   -1.3877    0.2423 C   0  0  0  0  0  0  0  0  0  0  0  0
   -3.2433    1.2101   -0.3762 C   0  0  0  0  0  0  0  0  0  0  0  0
   -2.5303    0.1096   -1.0593 C   0  0  0  0  0  0  0  0  0  0  0  0
   -4.2400    0.8907    0.5493 C   0  0  0  0  0  0  0  0  0  0  0  0
   -1.0531   -2.7450   -0.5343 C   0  0  0  0  0  0  0  0  0  0  0  0
   -2.9244    2.5443   -0.6534 C   0  0  0  0  0  0  0  0  0  0  0  0
   -4.3294   -2.8097    0.5787 C   0  0  0  0  0  0  0  0  0  0  0  0
   -4.9180    1.9292    1.1976 C   0  0  0  0  0  0  0  0  0  0  0  0
   -3.6082    3.5682    0.0004 C   0  0  0  0  0  0  0  0  0  0  0  0
   -4.6043    3.2617    0.9249 C   0  0  0  0  0  0  0  0  0  0  0  0
    1.0155   -1.8879    0.2283 C   0  0  0  0  0  0  0  0  0  0  0  0
    1.8679   -0.6466    0.2060 C   0  0  0  0  0  0  0  0  0  0  0  0
    4.1749   -0.2005    0.5727 C   0  0  0  0  0  0  0  0  0  0  0  0
    4.0505    1.0584    0.0008 C   0  0  0  0  0  0  0  0  0  0  0  0
    5.4235   -0.7753    0.7686 C   0  0  0  0  0  0  0  0  0  0  0  0
    5.1962    1.7557   -0.3824 C   0  0  0  0  0  0  0  0  0  0  0  0
    6.5691   -0.0779    0.3855 C   0  0  0  0  0  0  0  0  0  0  0  0
    6.4556    1.1875   -0.1901 C   0  0  0  0  0  0  0  0  0  0  0  0
  1 26  1  0
  2 13  1  0
  2 19  1  0
  3 11  2  0
  4 20  1  0
  4 21  1  0
  5 19  2  0
  6  8  1  0
  6  9  1  0
  6 11  1  0
  7  9  2  0
  7 12  1  0
  8 13  1  0
  9 15  1  0
 10 11  1  0
 10 12  2  0
 10 14  1  0
 12 16  1  0
 14 17  2  0
 16 18  2  0
 17 18  1  0
 19 20  1  0
 21 22  2  0
 21 23  1  0
 22 24  1  0
 23 25  2  0
 24 26  2  0
 25 26  1  0
M  END
>  <PUBCHEM_COMPOUND_CID>  (1) 
39828

>  <PUBCHEM_CONFORMER_RMSD>  (1) 
1

>  <PUBCHEM_CONFORMER_DIVERSEORDER>  (1) 
1
315
137
90
521
40
10
176
288
21
267
303
27
403
285
166
45
654
152
38
36
65
470
231
31
254
216
53
32
177
50
80
390
360
61
351
230
2
26
68
14
548
182
142
41
455
183
147
587
42
3
85
644
35
232
99
247
384
638
97
394
72
227
136
5
635
179
8
479
75
93
583
519
221
344
252
191
69
54
491
527
536
648
119
52
196
582
18
157
478
434
172
633
67
460
399
453
83
253
15
340
600
371
488
4
459
338
47
20
396
149
275
71
186
496
652
11
581
258
632
480
168
156
155
251
444
557
356
326
143
213
426
62
483
187
122
382
37
621
551
245
469
100
452
178
24
645
104
153
257
76
13
87
63
358
74
112
456
94
101
296
129
60
115
169
513

>  <PUBCHEM_MMFF94_PARTIAL_CHARGES>  (1) 
34
1 -0.18
10 0.09
11 0.54
12 0.18
13 0.28
14 -0.15
15 0.06
16 -0.15
17 -0.15
18 -0.15
19 0.66
2 -0.43
20 0.34
21 0.08
22 -0.15
23 -0.15
24 -0.15
25 -0.15
26 0.18
3 -0.57
31 0.15
35 0.15
36 0.15
37 0.15
4 -0.36
40 0.15
41 0.15
42 0.15
43 0.15
5 -0.57
6 -0.42
7 -0.63
8 0.3
9 0.45

>  <PUBCHEM_EFFECTIVE_ROTOR_COUNT>  (1) 
7

>  <PUBCHEM_PHARMACOPHORE_FEATURES>  (1) 
6
1 3 acceptor
1 4 acceptor
1 5 acceptor
6 10 12 14 16 17 18 rings
6 21 22 23 24 25 26 rings
6 6 7 9 10 11 12 rings

>  <PUBCHEM_HEAVY_ATOM_COUNT>  (1) 
26

>  <PUBCHEM_ATOM_DEF_STEREO_COUNT>  (1) 
0

>  <PUBCHEM_ATOM_UDEF_STEREO_COUNT>  (1) 
0

>  <PUBCHEM_BOND_DEF_STEREO_COUNT>  (1) 
0

>  <PUBCHEM_BOND_UDEF_STEREO_COUNT>  (1) 
0

>  <PUBCHEM_ISOTOPIC_ATOM_COUNT>  (1) 
0

>  <PUBCHEM_COMPONENT_COUNT>  (1) 
1

>  <PUBCHEM_CACTVS_TAUTO_COUNT>  (1) 
1

>  <PUBCHEM_CONFORMER_ID>  (1) 
00009B9400000001

>  <PUBCHEM_MMFF94_ENERGY>  (1) 
70.008

>  <PUBCHEM_FEATURE_SELFOVERLAP>  (1) 
30.484

>  <PUBCHEM_SHAPE_FINGERPRINT>  (1) 
10165383 225 17703518761541521747
10369192 42 17775012322534127406
105312 117 16773792597653821438
10670039 82 18340763831989194108
11101153 10 18265613375871592117
12107183 9 18120643640160905802
12390115 104 18341900675034948046
12596602 18 17458336476986918554
13167372 99 18409446991035445450
13785724 45 17832699072972371026
13828863 39 18337111176735929845
13994607 96 17774999038949405897
14251764 75 18126855889199841969
14347329 18 18342168956299192650
14790565 3 18409449193979186704
14950920 106 17241321352780563136
15183329 4 14764351522615165556
15338160 23 18409735071202417321
15484559 13 13746614787717106994
15604295 49 18055914540911099240
16110190 28 18335706013803232292
16991971 28 17770483546780101255
1768 23 17896055346598631948
21120745 212 18198052789219492335
21302155 148 18410579444129192141
21756936 100 18272643554567063654
22956985 138 16816597956188822731
24771293 8 18201450160638464835
3610482 184 18410580625930631276
4098825 35 18341338842844052070
4197921 191 18260264192194990282
50677037 204 18118396474627820204
5104073 3 18187923933126797354
57724786 102 18053380998692461683
636775 72 18196368350802545696
6700243 42 17408843202625175158
7288768 16 18113622253052018627
7808743 9 18341890766740458155

>  <PUBCHEM_SHAPE_MULTIPOLES>  (1) 
503.5
17.84
4
1.14
32.68
0.78
-0.2
11.43
2
-5.43
0.15
-0.68
-0.03
-1.78

>  <PUBCHEM_SHAPE_SELFOVERLAP>  (1) 
1073.582

>  <PUBCHEM_SHAPE_VOLUME>  (1) 
278.8

>  <PUBCHEM_COORDINATE_TYPE>  (1) 
2
5
10

$$$$
