39824
     RDKit          3D

 21 22  0  0  0  0  0  0  0  0999 V2000
    1.9625   -0.4552    1.3650 O   0  0  0  0  0  0  0  0  0  0  0  0
    2.9493   -0.2204   -0.8218 O   0  0  0  0  0  0  0  0  0  0  0  0
    0.4636   -1.7667   -1.9094 O   0  0  0  0  0  0  0  0  0  0  0  0
   -3.4518   -0.0752   -0.1593 N   0  0  0  0  0  0  0  0  0  0  0  0
   -0.3314   -2.0659    0.2540 N   0  0  0  0  0  0  0  0  0  0  0  0
    2.7490   -1.0851    0.3236 C   0  0  0  0  0  0  0  0  0  0  0  0
    2.0136   -2.3410   -0.1430 C   0  0  0  0  0  0  0  0  0  0  0  0
   -2.0489   -0.3239    0.1464 C   0  0  0  0  0  0  0  0  0  0  0  0
   -1.7260   -1.8018   -0.0174 C   0  0  0  0  0  0  0  0  0  0  0  0
    4.1169   -1.4434    0.9026 C   0  0  0  0  0  0  0  0  0  0  0  0
    0.6520   -2.0253   -0.7237 C   0  0  0  0  0  0  0  0  0  0  0  0
    1.7144    0.7653    0.8138 C   0  0  0  0  0  0  0  0  0  0  0  0
    2.2778    0.8993   -0.4344 C   0  0  0  0  0  0  0  0  0  0  0  0
   -3.7610    1.3512   -0.0407 C   0  0  0  0  0  0  0  0  0  0  0  0
   -4.3193   -0.8569    0.7241 C   0  0  0  0  0  0  0  0  0  0  0  0
    0.9892    1.7839    1.3964 C   0  0  0  0  0  0  0  0  0  0  0  0
    2.1474    2.0596   -1.1694 C   0  0  0  0  0  0  0  0  0  0  0  0
   -2.8721    2.1830   -0.9495 C   0  0  0  0  0  0  0  0  0  0  0  0
   -5.7837   -0.6579    0.3721 C   0  0  0  0  0  0  0  0  0  0  0  0
    0.8414    2.9698    0.6731 C   0  0  0  0  0  0  0  0  0  0  0  0
    1.4172    3.1068   -0.6024 C   0  0  0  0  0  0  0  0  0  0  0  0
  1  6  1  0
  1 12  1  0
  2  6  1  0
  2 13  1  0
  3 11  2  0
  4  8  1  0
  4 14  1  0
  4 15  1  0
  5  9  1  0
  5 11  1  0
  6  7  1  0
  6 10  1  0
  7 11  1  0
  8  9  1  0
 12 13  2  0
 12 16  1  0
 13 17  1  0
 14 18  1  0
 15 19  1  0
 16 20  2  0
 17 21  2  0
 20 21  1  0
M  END
>  <PUBCHEM_COMPOUND_CID>  (1) 
39824

>  <PUBCHEM_CONFORMER_RMSD>  (1) 
0.8

>  <PUBCHEM_CONFORMER_DIVERSEORDER>  (1) 
2
41
19
135
92
103
40
28
21
137
85
68
72
91
133
38
96
59
71
109
102
131
83
97
31
123
30
36
39
75
26
122
106
70
58
25
1
95
62
7
53
81
89
32
99
126
43
118
35
60
27
48
56
73
80
10
63
120
104
130
134
101
33
116
98
23
9
4
125
93
6
5
124
50
107
87
16
44
61
79
18
78
47
128
14
24
117
77
51
88
86
11
121
34
12
136
22
65
76
69
66
90
3
57
94
105
8
20
64
52
17
42
110
119
112
100
49
46
84
114
15
29
13
115
74
132
82
108
111
54
45
129
55
127
67
37
113

>  <PUBCHEM_MMFF94_PARTIAL_CHARGES>  (1) 
23
1 -0.36
11 0.57
12 0.08
13 0.08
14 0.27
15 0.27
16 -0.15
17 -0.15
2 -0.36
20 -0.15
21 -0.15
3 -0.57
31 0.37
36 0.15
37 0.15
4 -0.81
44 0.15
45 0.15
5 -0.73
6 0.56
7 0.06
8 0.27
9 0.3

>  <PUBCHEM_EFFECTIVE_ROTOR_COUNT>  (1) 
8.6

>  <PUBCHEM_PHARMACOPHORE_FEATURES>  (1) 
7
1 1 acceptor
1 2 acceptor
1 3 acceptor
1 4 cation
1 5 donor
5 1 2 6 12 13 rings
6 12 13 16 17 20 21 rings

>  <PUBCHEM_HEAVY_ATOM_COUNT>  (1) 
21

>  <PUBCHEM_ATOM_DEF_STEREO_COUNT>  (1) 
0

>  <PUBCHEM_ATOM_UDEF_STEREO_COUNT>  (1) 
0

>  <PUBCHEM_BOND_DEF_STEREO_COUNT>  (1) 
0

>  <PUBCHEM_BOND_UDEF_STEREO_COUNT>  (1) 
0

>  <PUBCHEM_ISOTOPIC_ATOM_COUNT>  (1) 
0

>  <PUBCHEM_COMPONENT_COUNT>  (1) 
1

>  <PUBCHEM_CACTVS_TAUTO_COUNT>  (1) 
2

>  <PUBCHEM_CONFORMER_ID>  (1) 
00009B9000000002

>  <PUBCHEM_MMFF94_ENERGY>  (1) 
36.8864

>  <PUBCHEM_FEATURE_SELFOVERLAP>  (1) 
35.674

>  <PUBCHEM_SHAPE_FINGERPRINT>  (1) 
10366900 7 18040445386458154331
104564 63 17984142552599857716
12035759 4 18191894257251351900
12403259 226 18335136467164542495
12403260 363 18410004447346250583
12633257 1 18410299103545840595
128993 33 18125725844417027333
13132413 78 18197205057332775544
13140716 1 18268706302233584995
13583140 156 17895180083671594527
14251745 187 17909534074157895512
15338160 23 11032625704916103854
1601671 61 18341614785353992530
17093844 170 17617087015074131452
17357779 13 17769653101234365054
20233049 118 18410290285756201648
20465049 17 18124056746926475420
20905425 154 17910108010600613262
23419403 2 16693541224345179610
238 59 18195500723777936445
2637199 183 18195826264617813757
3060560 45 17489312983452990271
350125 39 18409451392923483297
3524813 1 18408040693656011437
44154327 71 18191311674696627413
484985 159 15657148109317501458
5939293 188 18341614853714773136
8509985 295 18188763951309317083

>  <PUBCHEM_SHAPE_MULTIPOLES>  (1) 
404.6
7.99
3.49
1.23
11.67
1.65
0.11
-1.79
-1.24
-1.63
0.48
-0.56
0.12
0.15

>  <PUBCHEM_SHAPE_SELFOVERLAP>  (1) 
835.704

>  <PUBCHEM_SHAPE_VOLUME>  (1) 
233.7

>  <PUBCHEM_COORDINATE_TYPE>  (1) 
2
5
10

$$$$
