39830
     RDKit          3D

 23 25  0  0  0  0  0  0  0  0999 V2000
    1.3922   -1.4013   -0.3528 O   0  0  0  0  0  0  0  0  0  0  0  0
   -0.4713    0.2135   -1.8824 O   0  0  0  0  0  0  0  0  0  0  0  0
    3.0579   -2.2830    0.9689 O   0  0  0  0  0  0  0  0  0  0  0  0
   -1.4419   -1.4876   -0.5993 N   0  0  0  0  0  0  0  0  0  0  0  0
   -3.2115   -0.9700    0.9024 N   0  0  0  0  0  0  0  0  0  0  0  0
    5.1585    1.3237    0.2524 N   0  0  0  0  0  0  0  0  0  0  0  0
   -0.5643   -2.5086   -1.1697 C   0  0  0  0  0  0  0  0  0  0  0  0
   -2.4010   -1.8211    0.3550 C   0  0  0  0  0  0  0  0  0  0  0  0
   -2.2015    0.8186   -0.4316 C   0  0  0  0  0  0  0  0  0  0  0  0
   -1.2858   -0.1663   -1.0458 C   0  0  0  0  0  0  0  0  0  0  0  0
   -3.1262    0.3740    0.5167 C   0  0  0  0  0  0  0  0  0  0  0  0
    0.7057   -2.6461   -0.3454 C   0  0  0  0  0  0  0  0  0  0  0  0
   -2.1414    2.1688   -0.7950 C   0  0  0  0  0  0  0  0  0  0  0  0
   -2.5067   -3.2656    0.7835 C   0  0  0  0  0  0  0  0  0  0  0  0
   -3.9955    1.3028    1.1001 C   0  0  0  0  0  0  0  0  0  0  0  0
   -3.0136    3.0825   -0.2052 C   0  0  0  0  0  0  0  0  0  0  0  0
   -3.9402    2.6506    0.7413 C   0  0  0  0  0  0  0  0  0  0  0  0
    2.5598   -1.3579    0.3466 C   0  0  0  0  0  0  0  0  0  0  0  0
    3.1746   -0.0091    0.2613 C   0  0  0  0  0  0  0  0  0  0  0  0
    2.3753    1.0996    0.1195 C   0  0  0  0  0  0  0  0  0  0  0  0
    4.5357    0.1260    0.3241 C   0  0  0  0  0  0  0  0  0  0  0  0
    2.9794    2.3496    0.0423 C   0  0  0  0  0  0  0  0  0  0  0  0
    4.3620    2.4071    0.1131 C   0  0  0  0  0  0  0  0  0  0  0  0
  1 12  1  0
  1 18  1  0
  2 10  2  0
  3 18  2  0
  4  7  1  0
  4  8  1  0
  4 10  1  0
  5  8  2  0
  5 11  1  0
  6 21  2  0
  6 23  1  0
  7 12  1  0
  8 14  1  0
  9 10  1  0
  9 11  2  0
  9 13  1  0
 11 15  1  0
 13 16  2  0
 15 17  2  0
 16 17  1  0
 18 19  1  0
 19 20  2  0
 19 21  1  0
 20 22  1  0
 22 23  2  0
M  END
>  <PUBCHEM_COMPOUND_CID>  (1) 
39830

>  <PUBCHEM_CONFORMER_RMSD>  (1) 
0.8

>  <PUBCHEM_CONFORMER_DIVERSEORDER>  (1) 
1
84
90
68
65
82
4
107
16
91
32
35
24
110
97
51
96
14
74
89
8
6
22
49
15
28
41
55
104
79
33
83
3
42
20
13
40
18
31
67
59
75
95
43
17
60
86
101
19
30
56
103
102
88
38
62
78
5
76
66
48
71
57
52
64
2
12
36
73
54
92
87
105
111
63
99
7
27
109
53
85
25
112
34
37
94
44
50
10
72
9
46
100
45
106
23
80
47
77
108
11
39
58
70
26
81
98
21
93
69
29
61

>  <PUBCHEM_MMFF94_PARTIAL_CHARGES>  (1) 
31
1 -0.43
10 0.54
11 0.18
12 0.28
13 -0.15
14 0.06
15 -0.15
16 -0.15
17 -0.15
18 0.63
19 0.09
2 -0.57
20 -0.15
21 0.16
22 -0.15
23 0.16
28 0.15
3 -0.57
32 0.15
33 0.15
34 0.15
35 0.15
36 0.15
37 0.15
38 0.15
4 -0.42
5 -0.63
6 -0.62
7 0.3
8 0.45
9 0.09

>  <PUBCHEM_EFFECTIVE_ROTOR_COUNT>  (1) 
5

>  <PUBCHEM_PHARMACOPHORE_FEATURES>  (1) 
6
1 2 acceptor
1 3 acceptor
1 6 acceptor
6 4 5 8 9 10 11 rings
6 6 19 20 21 22 23 rings
6 9 11 13 15 16 17 rings

>  <PUBCHEM_HEAVY_ATOM_COUNT>  (1) 
23

>  <PUBCHEM_ATOM_DEF_STEREO_COUNT>  (1) 
0

>  <PUBCHEM_ATOM_UDEF_STEREO_COUNT>  (1) 
0

>  <PUBCHEM_BOND_DEF_STEREO_COUNT>  (1) 
0

>  <PUBCHEM_BOND_UDEF_STEREO_COUNT>  (1) 
0

>  <PUBCHEM_ISOTOPIC_ATOM_COUNT>  (1) 
0

>  <PUBCHEM_COMPONENT_COUNT>  (1) 
1

>  <PUBCHEM_CACTVS_TAUTO_COUNT>  (1) 
1

>  <PUBCHEM_CONFORMER_ID>  (1) 
00009B9600000001

>  <PUBCHEM_MMFF94_ENERGY>  (1) 
65.1144

>  <PUBCHEM_FEATURE_SELFOVERLAP>  (1) 
30.477

>  <PUBCHEM_SHAPE_FINGERPRINT>  (1) 
10616163 171 18410013277324166640
10670039 82 18191879022971250228
10871710 139 18197777919527384279
1100329 8 14733099682385162389
11370993 70 18338796711002793073
12173636 292 18270394009479281542
12390115 104 18341062907884529548
12422481 6 18120909782457011856
12633257 1 18118114784247902274
12788726 201 17844503678287926023
12892183 10 18187093831928012251
12978246 48 18339358570071815120
13004483 165 18267573784162531659
13140716 1 18337110055691430182
13583140 156 17386834015956333882
14178342 30 18187939407782811231
14251751 93 18410006680512850016
14787075 74 18272365331497722425
151778 21 18340207380136805424
16110190 28 18263071129622502522
20621476 13 17617369589504434717
21475661 188 17834109741472769365
21756936 100 18200589324011040732
21864079 5 18342171150906212934
22182937 141 18412827992583737857
23227448 37 18411700980512415585
23559900 14 17982175513402828463
27216 239 18410011056920987707
392239 28 17898299547802897907
474 4 17983853381194785361
5048184 11 18413105065509451656
5081480 168 17199987416937662036
5104073 3 18336816585720291256
6287921 2 18115317798945651444
7097593 13 18260831501007805004
7808743 9 18341612672224983680

>  <PUBCHEM_SHAPE_MULTIPOLES>  (1) 
440.78
9.13
4.06
1.09
7.38
0.58
0.23
-6.11
-2.84
-1.82
-0.22
-0.6
0.18
-0.04

>  <PUBCHEM_SHAPE_SELFOVERLAP>  (1) 
959.132

>  <PUBCHEM_SHAPE_VOLUME>  (1) 
238.1

>  <PUBCHEM_COORDINATE_TYPE>  (1) 
2
5
10

$$$$
