39838
     RDKit          3D

 19 20  0  0  1  0  0  0  0  0999 V2000
   -2.7724   -2.7143   -0.1688 O   0  0  0  0  0  0  0  0  0  0  0  0
   -4.1341    1.3473   -0.2627 N   0  0  0  0  0  0  0  0  0  0  0  0
   -3.4970   -0.6891    0.9311 C   0  0  0  0  0  0  0  0  0  0  0  0
   -2.6670   -1.2894   -0.2171 C   0  0  0  0  0  0  0  0  0  0  0  0
   -3.5477    0.8374    0.9530 C   0  0  0  0  0  0  0  0  0  0  0  0
   -1.2009   -0.9280   -0.1645 C   0  0  0  0  0  0  0  0  0  0  0  0
   -0.7484    0.1736   -0.8718 C   0  0  0  0  0  0  0  0  0  0  0  0
   -0.3378   -1.7056    0.5900 C   0  0  0  0  0  0  0  0  0  0  0  0
    1.4872   -0.2657   -0.0681 C   0  0  0  0  0  0  0  0  0  0  0  0
    0.6050    0.5071   -0.8233 C   0  0  0  0  0  0  0  0  0  0  0  0
    1.0157   -1.3721    0.6385 C   0  0  0  0  0  0  0  0  0  0  0  0
   -4.1876    2.8157   -0.2508 C   0  0  0  0  0  0  0  0  0  0  0  0
   -5.4839    0.8045   -0.4692 C   0  0  0  0  0  0  0  0  0  0  0  0
    2.8910    0.0802   -0.0177 C   0  0  0  0  0  0  0  0  0  0  0  0
    3.7750   -0.4559   -0.9542 C   0  0  0  0  0  0  0  0  0  0  0  0
    3.3610    0.9492    0.9671 C   0  0  0  0  0  0  0  0  0  0  0  0
    5.1287   -0.1230   -0.9058 C   0  0  0  0  0  0  0  0  0  0  0  0
    4.7147    1.2820    1.0154 C   0  0  0  0  0  0  0  0  0  0  0  0
    5.5985    0.7460    0.0789 C   0  0  0  0  0  0  0  0  0  0  0  0
  1  4  1  0
  2  5  1  0
  2 12  1  0
  2 13  1  0
  3  4  1  0
  3  5  1  0
  4  6  1  0
  6  7  2  0
  6  8  1  0
  7 10  1  0
  8 11  2  0
  9 10  2  0
  9 11  1  0
  9 14  1  0
 14 15  2  0
 14 16  1  0
 15 17  1  0
 16 18  2  0
 17 19  2  0
 18 19  1  0
M  END
>  <PUBCHEM_COMPOUND_CID>  (1) 
39838

>  <PUBCHEM_CONFORMER_RMSD>  (1) 
0.6

>  <PUBCHEM_CONFORMER_DIVERSEORDER>  (1) 
3
23
18
2
20
22
24
5
9
6
16
25
10
15
17
13
14
11
26
4
19
12
21
7
8
1

>  <PUBCHEM_MMFF94_PARTIAL_CHARGES>  (1) 
26
1 -0.68
10 -0.15
11 -0.15
12 0.27
13 0.27
15 -0.15
16 -0.15
17 -0.15
18 -0.15
19 -0.15
2 -0.81
25 0.15
26 0.15
27 0.15
28 0.15
35 0.4
36 0.15
37 0.15
38 0.15
39 0.15
4 0.42
40 0.15
5 0.27
6 -0.14
7 -0.15
8 -0.15

>  <PUBCHEM_EFFECTIVE_ROTOR_COUNT>  (1) 
5

>  <PUBCHEM_PHARMACOPHORE_FEATURES>  (1) 
5
1 1 acceptor
1 1 donor
1 2 cation
6 14 15 16 17 18 19 rings
6 6 7 8 9 10 11 rings

>  <PUBCHEM_HEAVY_ATOM_COUNT>  (1) 
19

>  <PUBCHEM_ATOM_DEF_STEREO_COUNT>  (1) 
0

>  <PUBCHEM_ATOM_UDEF_STEREO_COUNT>  (1) 
1

>  <PUBCHEM_BOND_DEF_STEREO_COUNT>  (1) 
0

>  <PUBCHEM_BOND_UDEF_STEREO_COUNT>  (1) 
0

>  <PUBCHEM_ISOTOPIC_ATOM_COUNT>  (1) 
0

>  <PUBCHEM_COMPONENT_COUNT>  (1) 
1

>  <PUBCHEM_CACTVS_TAUTO_COUNT>  (1) 
1

>  <PUBCHEM_CONFORMER_ID>  (1) 
00009B9E00000003

>  <PUBCHEM_MMFF94_ENERGY>  (1) 
57.1769

>  <PUBCHEM_FEATURE_SELFOVERLAP>  (1) 
25.371

>  <PUBCHEM_SHAPE_FINGERPRINT>  (1) 
10014705 185 18342175591696610097
10646746 165 18342178873220500824
11089746 13 18271517628848153992
11132069 177 18334859428329762508
12236239 1 17022624200018541246
12596602 18 16732990859197920776
12633257 1 15574723499218532313
12670546 177 12607400018200149632
12916748 109 18409735092281874787
12969540 114 17917418809474310573
13544592 145 18270695198941852694
13583140 156 17704071845268891574
13675066 3 18337964462151912410
13760787 5 16443341014025009622
14123255 352 18411981364340748728
14251752 14 18336272254439418094
14251764 75 17265828226463116073
14341114 328 16370447747931254152
14350574 20 12319447810237745301
14573314 32 18272375265155626564
14739800 52 18269534114245976040
14790565 3 17968108542088960276
15209294 21 18334010588241815505
15239154 128 18411141337662778192
1601671 61 18040158392279390428
16079462 125 17846489362259922216
17834072 8 17988648484557987356
17844677 252 18339087106853320320
18186145 218 18130794477188794178
19026448 4 17917436470670033758
19784866 170 17821732693438663591
200 152 14764632997117161210
20645477 56 18343308071862881731
20645477 70 16845582980771044118
20739085 24 17386570133324117986
21033648 29 18271799116784133441
21150785 3 14261344787087938216
21279426 13 18269277859380309388
21503847 285 18259988201812817556
22289505 5 17989208144930794632
23379529 103 10014708732089714437
23402539 116 18410852192180386686
23557571 272 18271813470300767255
23559900 14 18131357397573283854
2838139 119 17561363963331063720
2916195 48 18341608274236475592
293599 30 18409169883117425525
3545911 37 18343306967713252299
4028521 119 18273496749704486449
495365 180 17703500035341426218
5104073 3 18187645769300508970
59682541 35 18263943068704496529
59755656 215 18339366250016412374
59755656 520 18334851710289830111
633830 44 18410005581206892142
90127 26 18336835285543602440
9862522 239 17749658589857920709

>  <PUBCHEM_SHAPE_MULTIPOLES>  (1) 
380.16
12.37
2.09
1.05
3.08
0.07
0.06
6.23
-0.22
-2.8
0.11
0.41
0.08
0.8

>  <PUBCHEM_SHAPE_SELFOVERLAP>  (1) 
799.604

>  <PUBCHEM_SHAPE_VOLUME>  (1) 
216.5

>  <PUBCHEM_COORDINATE_TYPE>  (1) 
2
5
10

$$$$
