39833
     RDKit          3D

 23 24  0  0  1  0  0  0  0  0999 V2000
    2.8897   -0.2516    0.1560 O   0  0  0  0  0  0  0  0  0  0  0  0
    0.2942   -0.0320   -1.8245 O   0  0  0  0  0  0  0  0  0  0  0  0
   -2.2347    2.6197    1.0019 O   0  0  0  0  0  0  0  0  0  0  0  0
    0.9239   -0.1544    2.7801 O   0  0  0  0  0  0  0  0  0  0  0  0
    0.5732   -0.2431    0.4746 N   0  0  0  0  0  0  0  0  0  0  0  0
   -0.7247    1.1407    1.8779 N   0  0  0  0  0  0  0  0  0  0  0  0
   -1.5035    0.7817   -0.4190 C   0  0  0  0  0  0  0  0  0  0  0  0
   -1.8058    1.7144   -1.6183 C   0  0  0  0  0  0  0  0  0  0  0  0
   -0.1234    0.1549   -0.6789 C   0  0  0  0  0  0  0  0  0  0  0  0
   -2.6160   -0.2888   -0.3377 C   0  0  0  0  0  0  0  0  0  0  0  0
   -1.5259    1.6236    0.8588 C   0  0  0  0  0  0  0  0  0  0  0  0
   -0.7312    2.7688   -1.7724 C   0  0  0  0  0  0  0  0  0  0  0  0
    0.2947    0.2001    1.7798 C   0  0  0  0  0  0  0  0  0  0  0  0
    1.7497   -1.0863    0.2945 C   0  0  0  0  0  0  0  0  0  0  0  0
   -2.2780   -1.6347   -0.3964 C   0  0  0  0  0  0  0  0  0  0  0  0
   -3.9408    0.1077   -0.2065 C   0  0  0  0  0  0  0  0  0  0  0  0
   -3.2816   -2.6005   -0.3227 C   0  0  0  0  0  0  0  0  0  0  0  0
   -4.9445   -0.8582   -0.1326 C   0  0  0  0  0  0  0  0  0  0  0  0
    4.0705   -1.0132   -0.0570 C   0  0  0  0  0  0  0  0  0  0  0  0
    5.2507   -0.0621   -0.1966 C   0  0  0  0  0  0  0  0  0  0  0  0
   -4.6149   -2.2122   -0.1908 C   0  0  0  0  0  0  0  0  0  0  0  0
    6.5548   -0.8149   -0.4443 C   0  0  0  0  0  0  0  0  0  0  0  0
    7.7236    0.1403   -0.6261 C   0  0  0  0  0  0  0  0  0  0  0  0
  1 14  1  0
  1 19  1  0
  2  9  2  0
  3 11  2  0
  4 13  2  0
  5  9  1  0
  5 13  1  0
  5 14  1  0
  6 11  1  0
  6 13  1  0
  7  8  1  0
  7  9  1  0
  7 10  1  0
  7 11  1  0
  8 12  1  0
 10 15  2  0
 10 16  1  0
 15 17  1  0
 16 18  2  0
 17 21  2  0
 18 21  1  0
 19 20  1  0
 20 22  1  0
 22 23  1  0
M  END
>  <PUBCHEM_COMPOUND_CID>  (1) 
39833

>  <PUBCHEM_CONFORMER_RMSD>  (1) 
0.8

>  <PUBCHEM_CONFORMER_DIVERSEORDER>  (1) 
1
23
86
115
52
149
14
88
49
111
36
146
42
51
31
110
151
37
22
144
46
78
35
16
95
127
96
81
93
107
94
39
156
25
29
121
123
125
15
76
142
152
41
145
130
64
97
136
32
7
120
133
40
24
139
141
61
143
57
80
3
129
155
89
154
132
71
82
124
92
27
103
69
54
8
117
68
108
150
112
38
56
102
21
87
74
50
73
119
113
104
99
131
148
4
91
138
44
90
153
77
135
118
72
126
48
47
137
116
101
45
105
75
62
98
63
83
66
128
18
33
34
147
134
58
106
59
67
2
114
9
140
55
60
53
65
109
85
12
11
84
26
43
122
17
19
30
79
13
100
70
28
5
6
20
10

>  <PUBCHEM_MMFF94_PARTIAL_CHARGES>  (1) 
24
1 -0.56
10 -0.14
11 0.57
13 0.69
14 0.58
15 -0.15
16 -0.15
17 -0.15
18 -0.15
19 0.28
2 -0.57
21 -0.15
29 0.37
3 -0.57
32 0.15
33 0.15
34 0.15
35 0.15
4 -0.57
40 0.15
5 -0.42
6 -0.49
7 0.27
9 0.57

>  <PUBCHEM_EFFECTIVE_ROTOR_COUNT>  (1) 
7.6

>  <PUBCHEM_PHARMACOPHORE_FEATURES>  (1) 
9
1 1 acceptor
1 12 hydrophobe
1 2 acceptor
1 23 hydrophobe
1 3 acceptor
1 4 acceptor
1 6 donor
6 10 15 16 17 18 21 rings
6 5 6 7 9 11 13 rings

>  <PUBCHEM_HEAVY_ATOM_COUNT>  (1) 
23

>  <PUBCHEM_ATOM_DEF_STEREO_COUNT>  (1) 
0

>  <PUBCHEM_ATOM_UDEF_STEREO_COUNT>  (1) 
1

>  <PUBCHEM_BOND_DEF_STEREO_COUNT>  (1) 
0

>  <PUBCHEM_BOND_UDEF_STEREO_COUNT>  (1) 
0

>  <PUBCHEM_ISOTOPIC_ATOM_COUNT>  (1) 
0

>  <PUBCHEM_COMPONENT_COUNT>  (1) 
1

>  <PUBCHEM_CACTVS_TAUTO_COUNT>  (1) 
3

>  <PUBCHEM_CONFORMER_ID>  (1) 
00009B9900000001

>  <PUBCHEM_MMFF94_ENERGY>  (1) 
57.4867

>  <PUBCHEM_FEATURE_SELFOVERLAP>  (1) 
45.672

>  <PUBCHEM_SHAPE_FINGERPRINT>  (1) 
11315181 36 18409733963253796716
12011746 2 17846207852823109695
12082328 90 17846225415598439676
12553582 1 17968639615132590347
12633257 1 16414923066701051079
12788726 201 17749938961186356077
13288520 33 18342459261481055215
13631057 29 18411697716533092526
13941219 33 12967138190348758740
14251764 30 17917427687235430686
16945 1 16842160132328049565
17349148 13 16732702749071217766
17492 54 15864618570519331035
1813 80 18042951233534273425
200 152 17312820472321159750
20600515 1 18341907311408027029
21267235 1 18335705000723589799
21344244 246 17534913192447636668
21452121 71 18188214315807046637
22907989 373 17972010592954617029
2297311 6 18201723963685583758
23352939 185 18410015472100200380
23402539 116 17240483598245793046
23557571 272 18413109433575237292
23559900 14 18342729745483253816
34934 24 17024017160839239037
497634 4 18341618083968140356
531348 171 17970907757397082982

>  <PUBCHEM_SHAPE_MULTIPOLES>  (1) 
439.89
12.44
2.37
1.66
29.21
0.81
0.89
-5.85
-3.52
-3.13
-0.63
-0.1
0.73
-0.4

>  <PUBCHEM_SHAPE_SELFOVERLAP>  (1) 
916.979

>  <PUBCHEM_SHAPE_VOLUME>  (1) 
247.1

>  <PUBCHEM_COORDINATE_TYPE>  (1) 
2
5
10

$$$$
