39832
     RDKit          3D

 22 25  0  0  1  0  0  0  0  0999 V2000
   -5.1900   -0.9833   -0.3987 O   0  0  0  0  0  0  0  0  0  0  0  0
    5.4840    0.3027   -0.8712 O   0  0  0  0  0  0  0  0  0  0  0  0
   -1.9628    0.7044   -0.2064 C   0  0  0  0  0  0  0  0  0  0  0  0
   -0.5576    0.6037    0.4030 C   0  0  0  0  0  0  0  0  0  0  0  0
   -2.7757   -0.5976   -0.0809 C   0  0  0  0  0  0  0  0  0  0  0  0
    0.2319   -0.5898   -0.2376 C   0  0  0  0  0  0  0  0  0  0  0  0
    1.6183   -0.8032    0.4941 C   0  0  0  0  0  0  0  0  0  0  0  0
   -2.0433   -1.6776   -0.8822 C   0  0  0  0  0  0  0  0  0  0  0  0
   -0.6184   -1.8905   -0.3500 C   0  0  0  0  0  0  0  0  0  0  0  0
   -4.1046   -0.1292   -0.7048 C   0  0  0  0  0  0  0  0  0  0  0  0
   -2.9223    1.7637    0.3358 C   0  0  0  0  0  0  0  0  0  0  0  0
    0.2526    1.9252    0.3084 C   0  0  0  0  0  0  0  0  0  0  0  0
   -4.3099    1.2843   -0.1278 C   0  0  0  0  0  0  0  0  0  0  0  0
    2.3293    0.5384    0.7086 C   0  0  0  0  0  0  0  0  0  0  0  0
   -3.0067   -1.0834    1.3727 C   0  0  0  0  0  0  0  0  0  0  0  0
    2.5570   -1.7333   -0.3418 C   0  0  0  0  0  0  0  0  0  0  0  0
    1.7054    1.7269    0.6487 C   0  0  0  0  0  0  0  0  0  0  0  0
    1.4267   -1.4582    1.8857 C   0  0  0  0  0  0  0  0  0  0  0  0
    0.2025    2.6128   -1.0646 C   0  0  0  0  0  0  0  0  0  0  0  0
    3.8272    0.4768    0.8548 C   0  0  0  0  0  0  0  0  0  0  0  0
    3.4874   -0.9633   -1.2775 C   0  0  0  0  0  0  0  0  0  0  0  0
    4.3691   -0.0296   -0.4686 C   0  0  0  0  0  0  0  0  0  0  0  0
  1 10  1  0
  2 22  2  0
  3  4  1  0
  3  5  1  0
  3 11  1  0
  4  6  1  0
  4 12  1  0
  5  8  1  0
  5 10  1  0
  5 15  1  0
  6  7  1  0
  6  9  1  0
  7 14  1  0
  7 16  1  0
  7 18  1  0
  8  9  1  0
 10 13  1  0
 11 13  1  0
 12 17  1  0
 12 19  1  0
 14 17  2  0
 14 20  1  0
 16 21  1  0
 20 22  1  0
 21 22  1  0
M  END
>  <PUBCHEM_COMPOUND_CID>  (1) 
39832

>  <PUBCHEM_CONFORMER_RMSD>  (1) 
0.6

>  <PUBCHEM_CONFORMER_DIVERSEORDER>  (1) 
2
1

>  <PUBCHEM_MMFF94_PARTIAL_CHARGES>  (1) 
12
1 -0.68
10 0.28
12 0.14
14 -0.28
17 -0.29
2 -0.57
20 0.2
21 0.06
22 0.45
41 0.15
52 0.4
7 0.14

>  <PUBCHEM_EFFECTIVE_ROTOR_COUNT>  (1) 
1.8

>  <PUBCHEM_PHARMACOPHORE_FEATURES>  (1) 
7
1 1 acceptor
1 1 donor
1 2 acceptor
5 3 5 10 11 13 rings
6 3 4 5 6 8 9 rings
6 4 6 7 12 14 17 rings
6 7 14 16 20 21 22 rings

>  <PUBCHEM_HEAVY_ATOM_COUNT>  (1) 
22

>  <PUBCHEM_ATOM_DEF_STEREO_COUNT>  (1) 
7

>  <PUBCHEM_ATOM_UDEF_STEREO_COUNT>  (1) 
0

>  <PUBCHEM_BOND_DEF_STEREO_COUNT>  (1) 
0

>  <PUBCHEM_BOND_UDEF_STEREO_COUNT>  (1) 
0

>  <PUBCHEM_ISOTOPIC_ATOM_COUNT>  (1) 
0

>  <PUBCHEM_COMPONENT_COUNT>  (1) 
1

>  <PUBCHEM_CACTVS_TAUTO_COUNT>  (1) 
5

>  <PUBCHEM_CONFORMER_ID>  (1) 
00009B9800000002

>  <PUBCHEM_MMFF94_ENERGY>  (1) 
76.0173

>  <PUBCHEM_FEATURE_SELFOVERLAP>  (1) 
35.635

>  <PUBCHEM_SHAPE_FINGERPRINT>  (1) 
10366900 7 17967529103829422571
10498660 4 18335697187549999853
10759866 29 17823975637151188200
10863032 1 18272088240822764890
10967382 1 18413383237466011355
11132069 177 18343292695827013280
12011746 2 18410852153404342325
12236239 1 17967531264245516414
12403814 3 17240480273830433949
12553582 1 18338784680551256109
12788726 201 18127127476950879769
13134695 92 14764341674028459018
13140716 1 17978499055466462561
13221675 6 18410853269721344658
13224815 77 18187082832300346098
13464513 79 18411697720568882404
14790565 3 17620483402414187729
14955137 171 18196679378604577681
15196674 1 18342174423381161551
15238133 3 17895462640225287248
15536298 74 18202277030634361880
15635459 17 18343301453054456582
15788980 27 14851604375543311866
15848702 151 17418101983382455614
1601671 61 18410575050388080916
16752209 62 18342449310173582249
16945 1 18271523207889378400
17357779 13 18340474617233698109
17492 54 17969239974251153876
17804303 29 18343863333587596217
1813 80 18040434390956813300
19591789 44 18269836406718257382
19862831 5 18411700971685026144
200 152 17275102829662903155
20645477 70 18341042029626445549
20691752 17 18041282071318888689
20871999 31 18411141324603660174
21033648 29 17989196049869944289
21267235 1 18341618148234329047
21285901 2 18270401577148399540
21421861 104 17606671423223208938
221357 26 18130785651083670277
23402539 116 18259705601812566582
23419403 2 16592001673248639712
23493267 7 18260270728523428379
23557571 272 18272940405758646702
23559900 14 17845925325189489472
2748010 2 18411972546883620725
2871803 45 18408885105695927604
296302 2 16081088173116075410
3004659 81 18338521833834580934
3286 77 15841260485047373451
34934 24 18334292028790306928
350125 39 18413393116687714953
4340502 62 16660653916455266401
474 4 17749115538577548308
4990 188 18131634461164693206
5104073 3 18342455898395049683
59755656 215 18340763759433679925
59755656 520 17240488018237094026
633830 44 18187925122963950452
7364860 26 18128250284359754528
7832392 63 18271237308996047894
9709674 26 18270113647115520983

>  <PUBCHEM_SHAPE_MULTIPOLES>  (1) 
441.01
8.81
2.26
1.21
0.18
0.65
0.25
-0.45
-1.71
-0.44
-0.17
0.48
-0.28
0.09

>  <PUBCHEM_SHAPE_SELFOVERLAP>  (1) 
943.304

>  <PUBCHEM_SHAPE_VOLUME>  (1) 
243.7

>  <PUBCHEM_COORDINATE_TYPE>  (1) 
2
5
10

$$$$
