39845
     RDKit          3D

 20 21  0  0  0  0  0  0  0  0999 V2000
    1.9113    0.0428   -2.2373 O   0  0  0  0  0  0  0  0  0  0  0  0
   -2.4332   -2.4016   -0.0623 O   0  0  0  0  0  0  0  0  0  0  0  0
   -2.4738    2.3868    0.0379 O   0  0  0  0  0  0  0  0  0  0  0  0
   -3.8036   -0.0256    0.3259 O   0  0  0  0  0  0  0  0  0  0  0  0
    2.5686    0.0360    0.0163 N   0  0  0  0  0  0  0  0  0  0  0  0
    4.6007   -0.0632    1.0665 N   0  0  0  0  0  0  0  0  0  0  0  0
    2.2362    0.0717    1.4198 C   0  0  0  0  0  0  0  0  0  0  0  0
    3.5625   -0.1757    2.1113 C   0  0  0  0  0  0  0  0  0  0  0  0
    3.9528    0.0142   -0.0554 C   0  0  0  0  0  0  0  0  0  0  0  0
    1.6451    0.0489   -1.0380 C   0  0  0  0  0  0  0  0  0  0  0  0
    0.2184    0.0296   -0.6794 C   0  0  0  0  0  0  0  0  0  0  0  0
    4.6566    0.0811   -1.3732 C   0  0  0  0  0  0  0  0  0  0  0  0
   -0.4618    1.2279   -0.4873 C   0  0  0  0  0  0  0  0  0  0  0  0
   -0.4408   -1.1875   -0.5370 C   0  0  0  0  0  0  0  0  0  0  0  0
   -1.7940   -1.2062   -0.1989 C   0  0  0  0  0  0  0  0  0  0  0  0
   -1.8150    1.2091   -0.1491 C   0  0  0  0  0  0  0  0  0  0  0  0
   -2.4811   -0.0080   -0.0050 C   0  0  0  0  0  0  0  0  0  0  0  0
   -2.4300   -2.9935    1.2352 C   0  0  0  0  0  0  0  0  0  0  0  0
   -2.4787    2.9240    1.3590 C   0  0  0  0  0  0  0  0  0  0  0  0
   -4.7398   -0.0111   -0.7492 C   0  0  0  0  0  0  0  0  0  0  0  0
  1 10  2  0
  2 15  1  0
  2 18  1  0
  3 16  1  0
  3 19  1  0
  4 17  1  0
  4 20  1  0
  5  7  1  0
  5  9  1  0
  5 10  1  0
  6  8  1  0
  6  9  2  0
  7  8  1  0
  9 12  1  0
 10 11  1  0
 11 13  2  0
 11 14  1  0
 13 16  1  0
 14 15  2  0
 15 17  1  0
 16 17  2  0
M  END
>  <PUBCHEM_COMPOUND_CID>  (1) 
39845

>  <PUBCHEM_CONFORMER_RMSD>  (1) 
0.8

>  <PUBCHEM_CONFORMER_DIVERSEORDER>  (1) 
1
4
3
6
2
5

>  <PUBCHEM_MMFF94_PARTIAL_CHARGES>  (1) 
22
1 -0.57
10 0.54
11 0.09
12 0.06
13 -0.15
14 -0.15
15 0.08
16 0.08
17 0.08
18 0.28
19 0.28
2 -0.36
20 0.28
28 0.15
29 0.15
3 -0.36
4 -0.36
5 -0.42
6 -0.7
7 0.3
8 0.25
9 0.45

>  <PUBCHEM_EFFECTIVE_ROTOR_COUNT>  (1) 
5.6

>  <PUBCHEM_PHARMACOPHORE_FEATURES>  (1) 
6
1 1 acceptor
1 2 acceptor
1 3 acceptor
1 4 acceptor
5 5 6 7 8 9 rings
6 11 13 14 15 16 17 rings

>  <PUBCHEM_HEAVY_ATOM_COUNT>  (1) 
20

>  <PUBCHEM_ATOM_DEF_STEREO_COUNT>  (1) 
0

>  <PUBCHEM_ATOM_UDEF_STEREO_COUNT>  (1) 
0

>  <PUBCHEM_BOND_DEF_STEREO_COUNT>  (1) 
0

>  <PUBCHEM_BOND_UDEF_STEREO_COUNT>  (1) 
0

>  <PUBCHEM_ISOTOPIC_ATOM_COUNT>  (1) 
0

>  <PUBCHEM_COMPONENT_COUNT>  (1) 
1

>  <PUBCHEM_CACTVS_TAUTO_COUNT>  (1) 
1

>  <PUBCHEM_CONFORMER_ID>  (1) 
00009BA500000001

>  <PUBCHEM_MMFF94_ENERGY>  (1) 
94.1637

>  <PUBCHEM_FEATURE_SELFOVERLAP>  (1) 
30.457

>  <PUBCHEM_SHAPE_FINGERPRINT>  (1) 
10366900 7 18130786771795834382
11646440 116 18273220820495665833
12236239 1 17748545944230423222
12403259 415 17274819130183627864
12596599 1 17676488333055337506
12633257 1 18272650164284368857
12670545 47 17775002444246405318
12788726 201 18189065329359669499
12824470 246 17387407059136122659
13083527 12 17121396846893645167
13140716 1 18267313221306745027
13533116 47 18270112409970254735
13538477 17 18113902701183125622
13760787 19 17531248400149640670
13878862 14 16609143708214461745
14115302 16 18040997379722766847
15375462 189 17385999602853353738
15653759 3 18131348622569820498
16752209 62 18335132064786121317
16945 1 18339094739089105893
17349148 13 18409160026452350767
1813 80 16878785964472353222
18219364 16 16558741339175878968
19049666 15 17774169972257724534
200 152 16443061698957802445
20510252 161 18272652294957620161
20600515 1 18411138065119679997
20645477 70 15357689774088838954
21033648 29 17203316793997129000
21618674 53 17896058610414781212
21639500 275 15123497117366452704
22112679 90 17968107421012493804
22854114 59 17060051570995122068
23402539 116 18342446046335950325
23419403 2 17331069239001578949
23493267 7 18272094838330413992
23557571 272 18131080302846257860
23559900 14 18412552028630174198
2838139 119 15194740991374849019
58807428 26 18119250550100519929
59554788 281 18261116219148898115
6049 1 17704076226588999640
633830 44 13973697173700261228
7097593 13 18042954390440776802
77492 1 17748829618235664204
81228 2 18342471317839292373
90316 7 18041273258299711836

>  <PUBCHEM_SHAPE_MULTIPOLES>  (1) 
378.15
8.64
2.31
1.62
4.72
0.1
-0.22
0.02
-0.55
-3.79
-1.11
1.63
-0.03
-0.2

>  <PUBCHEM_SHAPE_SELFOVERLAP>  (1) 
795.407

>  <PUBCHEM_SHAPE_VOLUME>  (1) 
216.7

>  <PUBCHEM_COORDINATE_TYPE>  (1) 
2
5
10

$$$$
