39847
     RDKit          3D

 22 23  0  0  0  0  0  0  0  0999 V2000
   -5.1650   -0.0965   -1.3038 O   0  0  0  0  0  0  0  0  0  0  0  0
    1.6818    2.3923    0.6209 O   0  0  0  0  0  0  0  0  0  0  0  0
    1.7822   -2.3953    0.5281 O   0  0  0  0  0  0  0  0  0  0  0  0
    3.1121    0.0312    0.3964 O   0  0  0  0  0  0  0  0  0  0  0  0
   -2.8805   -0.1227    2.2694 O   0  0  0  0  0  0  0  0  0  0  0  0
   -3.2533   -0.0933   -0.0193 N   0  0  0  0  0  0  0  0  0  0  0  0
   -2.8387   -0.0671   -1.4047 C   0  0  0  0  0  0  0  0  0  0  0  0
   -4.6948   -0.0772    0.0492 C   0  0  0  0  0  0  0  0  0  0  0  0
   -4.0874    0.4142   -2.1050 C   0  0  0  0  0  0  0  0  0  0  0  0
   -2.4598   -0.0999    1.1143 C   0  0  0  0  0  0  0  0  0  0  0  0
   -1.0002   -0.0653    0.9249 C   0  0  0  0  0  0  0  0  0  0  0  0
   -0.2893   -1.2569    0.8130 C   0  0  0  0  0  0  0  0  0  0  0  0
   -0.3397    1.1581    0.8607 C   0  0  0  0  0  0  0  0  0  0  0  0
    1.0435    1.1904    0.6831 C   0  0  0  0  0  0  0  0  0  0  0  0
    1.0938   -1.2246    0.6355 C   0  0  0  0  0  0  0  0  0  0  0  0
    1.7602   -0.0010    0.5705 C   0  0  0  0  0  0  0  0  0  0  0  0
    1.2896    3.2812   -0.4232 C   0  0  0  0  0  0  0  0  0  0  0  0
    1.4272   -3.2593   -0.5496 C   0  0  0  0  0  0  0  0  0  0  0  0
    3.5909    0.0677   -0.9460 C   0  0  0  0  0  0  0  0  0  0  0  0
    5.1039    0.1146   -0.9287 C   0  0  0  0  0  0  0  0  0  0  0  0
    2.4717    4.1467   -0.8041 C   0  0  0  0  0  0  0  0  0  0  0  0
    2.6518   -4.0373   -0.9818 C   0  0  0  0  0  0  0  0  0  0  0  0
  1  8  1  0
  1  9  1  0
  2 14  1  0
  2 17  1  0
  3 15  1  0
  3 18  1  0
  4 16  1  0
  4 19  1  0
  5 10  2  0
  6  7  1  0
  6  8  1  0
  6 10  1  0
  7  9  1  0
 10 11  1  0
 11 12  2  0
 11 13  1  0
 12 15  1  0
 13 14  2  0
 14 16  1  0
 15 16  2  0
 17 21  1  0
 18 22  1  0
 19 20  1  0
M  END
>  <PUBCHEM_COMPOUND_CID>  (1) 
39847

>  <PUBCHEM_CONFORMER_RMSD>  (1) 
0.8

>  <PUBCHEM_CONFORMER_DIVERSEORDER>  (1) 
1
2
10
11
3
12
4
7
21
15
13
16
17
9
19
18
6
5
14
20
8

>  <PUBCHEM_MMFF94_PARTIAL_CHARGES>  (1) 
21
1 -0.56
10 0.54
11 0.09
12 -0.15
13 -0.15
14 0.08
15 0.08
16 0.08
17 0.28
18 0.28
19 0.28
2 -0.36
29 0.15
3 -0.36
30 0.15
4 -0.36
5 -0.57
6 -0.66
7 0.3
8 0.58
9 0.28

>  <PUBCHEM_EFFECTIVE_ROTOR_COUNT>  (1) 
9

>  <PUBCHEM_PHARMACOPHORE_FEATURES>  (1) 
7
1 1 acceptor
1 2 acceptor
1 3 acceptor
1 4 acceptor
1 5 acceptor
5 1 6 7 8 9 rings
6 11 12 13 14 15 16 rings

>  <PUBCHEM_HEAVY_ATOM_COUNT>  (1) 
22

>  <PUBCHEM_ATOM_DEF_STEREO_COUNT>  (1) 
0

>  <PUBCHEM_ATOM_UDEF_STEREO_COUNT>  (1) 
0

>  <PUBCHEM_BOND_DEF_STEREO_COUNT>  (1) 
0

>  <PUBCHEM_BOND_UDEF_STEREO_COUNT>  (1) 
0

>  <PUBCHEM_ISOTOPIC_ATOM_COUNT>  (1) 
0

>  <PUBCHEM_COMPONENT_COUNT>  (1) 
1

>  <PUBCHEM_CACTVS_TAUTO_COUNT>  (1) 
1

>  <PUBCHEM_CONFORMER_ID>  (1) 
00009BA700000001

>  <PUBCHEM_MMFF94_ENERGY>  (1) 
79.2181

>  <PUBCHEM_FEATURE_SELFOVERLAP>  (1) 
35.533

>  <PUBCHEM_SHAPE_FINGERPRINT>  (1) 
116883 192 17834667197856544268
11796584 16 14692579805610739669
12553582 1 18340214007223708290
12730499 353 18187081784961354867
12969540 114 18337392746739828996
13134695 92 17898257598977999920
13140716 1 18195545902364531514
13257819 101 17458061582195751582
13583140 156 17531522208556890232
13911987 19 18264226832143797500
15163728 17 16516835592467010150
15209294 21 13406790047216855438
16945 1 18411143540891194314
17539 30 17474665049245737206
1813 80 17914345580186096599
18186145 218 18337102475380140529
20645477 70 18409448128458136345
2255824 54 18340763835883312864
23114952 82 18334009497710642445
23402539 116 18270974449146206340
23526113 38 18114180787763027419
23557571 272 16951139472992558699
23598291 2 17843973537547317819
238 59 18263062431764958839
266924 87 18192722142225574844
2748010 2 18049451631907895696
3060560 45 18411973693919359774
46194498 28 18262223491887787949
59554788 191 18266457801213343170
7808743 9 16081080464214398957
9862522 239 17466498323414552944

>  <PUBCHEM_SHAPE_MULTIPOLES>  (1) 
418.42
8.43
3.99
1.59
6.03
0.3
0.17
-0.1
4.21
-6.24
1.4
1.57
-0.02
0.3

>  <PUBCHEM_SHAPE_SELFOVERLAP>  (1) 
861.324

>  <PUBCHEM_SHAPE_VOLUME>  (1) 
242.7

>  <PUBCHEM_COORDINATE_TYPE>  (1) 
2
5
10

$$$$
