39851
     RDKit          3D

 13 14  0  0  0  0  0  0  0  0999 V2000
    0.6588    2.8947   -0.0004 Cl  0  0  0  0  0  0  0  0  0  0  0  0
    3.3502    1.1506    0.0004 Cl  0  0  0  0  0  0  0  0  0  0  0  0
    3.1089   -2.0344   -0.0002 Cl  0  0  0  0  0  0  0  0  0  0  0  0
   -1.9786   -1.3121   -0.0001 O   0  0  0  0  0  0  0  0  0  0  0  0
   -3.9307   -0.0716    0.0003 O   0  0  0  0  0  0  0  0  0  0  0  0
   -1.8525    0.9827    0.0001 N   0  0  0  0  0  0  0  0  0  0  0  0
   -0.5691    0.5045   -0.0001 C   0  0  0  0  0  0  0  0  0  0  0  0
   -0.6645   -0.8705   -0.0002 C   0  0  0  0  0  0  0  0  0  0  0  0
    0.6346    1.1718    0.0000 C   0  0  0  0  0  0  0  0  0  0  0  0
    0.4597   -1.6674   -0.0002 C   0  0  0  0  0  0  0  0  0  0  0  0
    1.7881    0.3839    0.0001 C   0  0  0  0  0  0  0  0  0  0  0  0
    1.7017   -1.0238    0.0002 C   0  0  0  0  0  0  0  0  0  0  0  0
   -2.7065   -0.1083    0.0000 C   0  0  0  0  0  0  0  0  0  0  0  0
  1  9  1  0
  2 11  1  0
  3 12  1  0
  4  8  1  0
  4 13  1  0
  5 13  2  0
  6  7  1  0
  6 13  1  0
  7  8  2  0
  7  9  1  0
  8 10  1  0
  9 11  2  0
 10 12  2  0
 11 12  1  0
M  END
>  <PUBCHEM_COMPOUND_CID>  (1) 
39851

>  <PUBCHEM_CONFORMER_RMSD>  (1) 
0.4

>  <PUBCHEM_CONFORMER_DIVERSEORDER>  (1) 
1

>  <PUBCHEM_MMFF94_PARTIAL_CHARGES>  (1) 
15
1 -0.18
10 -0.15
11 0.18
12 0.18
13 0.78
14 0.15
15 0.37
2 -0.18
3 -0.18
4 -0.23
5 -0.57
6 -0.55
7 0.12
8 0.08
9 0.18

>  <PUBCHEM_EFFECTIVE_ROTOR_COUNT>  (1) 
0

>  <PUBCHEM_PHARMACOPHORE_FEATURES>  (1) 
4
1 5 acceptor
1 6 donor
5 4 6 7 8 13 rings
6 7 8 9 10 11 12 rings

>  <PUBCHEM_HEAVY_ATOM_COUNT>  (1) 
13

>  <PUBCHEM_ATOM_DEF_STEREO_COUNT>  (1) 
0

>  <PUBCHEM_ATOM_UDEF_STEREO_COUNT>  (1) 
0

>  <PUBCHEM_BOND_DEF_STEREO_COUNT>  (1) 
0

>  <PUBCHEM_BOND_UDEF_STEREO_COUNT>  (1) 
0

>  <PUBCHEM_ISOTOPIC_ATOM_COUNT>  (1) 
0

>  <PUBCHEM_COMPONENT_COUNT>  (1) 
1

>  <PUBCHEM_CACTVS_TAUTO_COUNT>  (1) 
2

>  <PUBCHEM_CONFORMER_ID>  (1) 
00009BAB00000001

>  <PUBCHEM_MMFF94_ENERGY>  (1) 
35.605

>  <PUBCHEM_FEATURE_SELFOVERLAP>  (1) 
20.413

>  <PUBCHEM_SHAPE_FINGERPRINT>  (1) 
10219947 1 18411702084092111835
10967382 1 18410574015432506532
11471102 20 18410288108366031709
12032990 46 18338240357881917339
13140716 1 18194965140976271288
13380535 76 18337106894753775466
14325111 11 18410856555429250785
14576447 43 17985530394210007031
14648413 74 18191307280554790945
15536298 74 18343582928405661474
161256 15 18339079285744085676
16945 1 18266740362362670182
193761 8 17690279734713538054
20201158 50 18408885169666775899
20588541 1 18335140942177540948
20645476 183 17462861096658826940
20645477 70 18411413982477203655
20711985 365 18193555567159126372
20871998 184 17913199863273542582
20871998 22 18127134069873092286
21501502 16 18268154154244121704
21501925 9 18338223878435164250
2334 1 18410855443143568868
23402655 69 18341319038580739973
23463225 33 18409728431019551162
23552423 10 18194681694656810375
23559900 14 17980756044556137622
241688 4 18266460901820710176
2748010 2 18338511946028204260
528886 8 18339074994639201408
53812653 166 18270397316783642376
63268167 104 18411140246577470385
7364860 26 18342457049962982426
81228 2 17978239253074172824

>  <PUBCHEM_SHAPE_MULTIPOLES>  (1) 
256.42
4.93
2.49
0.61
1.73
1.04
0
-1.02
0
-1.59
0
-0.08
0.01
0

>  <PUBCHEM_SHAPE_SELFOVERLAP>  (1) 
536.926

>  <PUBCHEM_SHAPE_VOLUME>  (1) 
150

>  <PUBCHEM_COORDINATE_TYPE>  (1) 
2
5
10

$$$$
