39864
     RDKit          3D

  7  6  0  0  0  0  0  0  0  0999 V2000
   -2.2020    0.4252   -1.0893 Cl  0  0  0  0  0  0  0  0  0  0  0  0
   -0.6532    1.3475    1.1870 Cl  0  0  0  0  0  0  0  0  0  0  0  0
   -1.2325   -1.4941    0.8582 Cl  0  0  0  0  0  0  0  0  0  0  0  0
    0.4474   -0.1346   -0.8531 C   0  0  0  0  0  0  0  0  0  0  0  0
   -0.8275    0.0220   -0.0047 C   0  0  0  0  0  0  0  0  0  0  0  0
    1.6929   -0.4756   -0.0784 C   0  0  0  0  0  0  0  0  0  0  0  0
    2.7748    0.3094   -0.0198 C   0  0  0  0  0  0  0  0  0  0  0  0
  1  5  1  0
  2  5  1  0
  3  5  1  0
  4  5  1  0
  4  6  1  0
  6  7  2  0
M  END
>  <PUBCHEM_COMPOUND_CID>  (1) 
39864

>  <PUBCHEM_CONFORMER_RMSD>  (1) 
0.4

>  <PUBCHEM_CONFORMER_DIVERSEORDER>  (1) 
1
3
2

>  <PUBCHEM_MMFF94_PARTIAL_CHARGES>  (1) 
10
1 -0.29
10 0.15
11 0.15
12 0.15
2 -0.29
3 -0.29
4 0.14
5 0.87
6 -0.29
7 -0.3

>  <PUBCHEM_EFFECTIVE_ROTOR_COUNT>  (1) 
2

>  <PUBCHEM_PHARMACOPHORE_FEATURES>  (1) 
1
1 7 hydrophobe

>  <PUBCHEM_HEAVY_ATOM_COUNT>  (1) 
7

>  <PUBCHEM_ATOM_DEF_STEREO_COUNT>  (1) 
0

>  <PUBCHEM_ATOM_UDEF_STEREO_COUNT>  (1) 
0

>  <PUBCHEM_BOND_DEF_STEREO_COUNT>  (1) 
0

>  <PUBCHEM_BOND_UDEF_STEREO_COUNT>  (1) 
0

>  <PUBCHEM_ISOTOPIC_ATOM_COUNT>  (1) 
0

>  <PUBCHEM_COMPONENT_COUNT>  (1) 
1

>  <PUBCHEM_CACTVS_TAUTO_COUNT>  (1) 
1

>  <PUBCHEM_CONFORMER_ID>  (1) 
00009BB800000001

>  <PUBCHEM_MMFF94_ENERGY>  (1) 
6.0884

>  <PUBCHEM_FEATURE_SELFOVERLAP>  (1) 
5.074

>  <PUBCHEM_SHAPE_FINGERPRINT>  (1) 
12897270 3 17060046030397776124
12932741 1 18409455795175200238
20653085 51 17458629947575119781
21040471 1 17604145917738649903
23552449 1 17895477032676397116
24536 1 18269012937033399678
29004967 10 17775564268950154119
5943 1 8200104806367758563

>  <PUBCHEM_SHAPE_MULTIPOLES>  (1) 
149.67
3.22
1.31
1.23
1.94
0.17
-0.08
-0.2
0.63
-0.56
-0.56
-0.59
-0.2
0.25

>  <PUBCHEM_SHAPE_SELFOVERLAP>  (1) 
246.132

>  <PUBCHEM_SHAPE_VOLUME>  (1) 
101.4

>  <PUBCHEM_COORDINATE_TYPE>  (1) 
2
5
10

$$$$
