39869
     RDKit          3D

 16 17  0  0  0  0  0  0  0  0999 V2000
   -0.9139   -2.1897    1.2724 Cl  0  0  0  0  0  0  0  0  0  0  0  0
    0.9714   -1.6448   -1.1100 O   0  0  0  0  0  0  0  0  0  0  0  0
    0.4814    2.3146    1.2045 O   0  0  0  0  0  0  0  0  0  0  0  0
    2.3416    1.0906    0.5183 N   0  0  0  0  0  0  0  0  0  0  0  0
    0.3052    0.2946    0.0206 N   0  0  0  0  0  0  0  0  0  0  0  0
    2.6387   -0.1345   -0.1741 C   0  0  0  0  0  0  0  0  0  0  0  0
    1.2224   -0.6140   -0.4964 C   0  0  0  0  0  0  0  0  0  0  0  0
    3.4157    0.1300   -1.4573 C   0  0  0  0  0  0  0  0  0  0  0  0
    3.3453   -1.1290    0.7376 C   0  0  0  0  0  0  0  0  0  0  0  0
    0.9757    1.3430    0.6461 C   0  0  0  0  0  0  0  0  0  0  0  0
   -1.0766    0.1775   -0.0771 C   0  0  0  0  0  0  0  0  0  0  0  0
   -1.7537   -0.9182    0.4585 C   0  0  0  0  0  0  0  0  0  0  0  0
   -1.7868    1.1855   -0.7292 C   0  0  0  0  0  0  0  0  0  0  0  0
   -3.1410   -1.0057    0.3419 C   0  0  0  0  0  0  0  0  0  0  0  0
   -3.1742    1.0978   -0.8457 C   0  0  0  0  0  0  0  0  0  0  0  0
   -3.8512    0.0022   -0.3102 C   0  0  0  0  0  0  0  0  0  0  0  0
  1 12  1  0
  2  7  2  0
  3 10  2  0
  4  6  1  0
  4 10  1  0
  5  7  1  0
  5 10  1  0
  5 11  1  0
  6  7  1  0
  6  8  1  0
  6  9  1  0
 11 12  2  0
 11 13  1  0
 12 14  1  0
 13 15  2  0
 14 16  2  0
 15 16  1  0
M  END
>  <PUBCHEM_COMPOUND_CID>  (1) 
39869

>  <PUBCHEM_CONFORMER_RMSD>  (1) 
0.6

>  <PUBCHEM_CONFORMER_DIVERSEORDER>  (1) 
1
3
4
2

>  <PUBCHEM_MMFF94_PARTIAL_CHARGES>  (1) 
19
1 -0.18
10 0.69
11 0.12
12 0.18
13 -0.15
14 -0.15
15 -0.15
16 -0.15
17 0.37
2 -0.57
24 0.15
25 0.15
26 0.15
27 0.15
3 -0.57
4 -0.73
5 -0.24
6 0.36
7 0.57

>  <PUBCHEM_EFFECTIVE_ROTOR_COUNT>  (1) 
1.6

>  <PUBCHEM_PHARMACOPHORE_FEATURES>  (1) 
6
1 2 acceptor
1 3 acceptor
1 4 donor
3 6 8 9 hydrophobe
5 4 5 6 7 10 rings
6 11 12 13 14 15 16 rings

>  <PUBCHEM_HEAVY_ATOM_COUNT>  (1) 
16

>  <PUBCHEM_ATOM_DEF_STEREO_COUNT>  (1) 
0

>  <PUBCHEM_ATOM_UDEF_STEREO_COUNT>  (1) 
0

>  <PUBCHEM_BOND_DEF_STEREO_COUNT>  (1) 
0

>  <PUBCHEM_BOND_UDEF_STEREO_COUNT>  (1) 
0

>  <PUBCHEM_ISOTOPIC_ATOM_COUNT>  (1) 
0

>  <PUBCHEM_COMPONENT_COUNT>  (1) 
1

>  <PUBCHEM_CACTVS_TAUTO_COUNT>  (1) 
2

>  <PUBCHEM_CONFORMER_ID>  (1) 
00009BBD00000001

>  <PUBCHEM_MMFF94_ENERGY>  (1) 
57.9739

>  <PUBCHEM_FEATURE_SELFOVERLAP>  (1) 
30.446

>  <PUBCHEM_SHAPE_FINGERPRINT>  (1) 
10130415 120 18411413977875910936
10465860 250 18338221679485430592
10608611 8 18409722993475280205
12138202 97 18260269663498256175
124424 183 18336819818954971026
12932764 1 18410856607000701767
13581323 91 17894631474085908223
14115302 16 18114185207442584550
15207287 21 18412257329001311463
15219456 202 18339919419748908689
15279308 132 18260544519956614187
15775835 57 17968376758458929387
16945 1 18131069311945358181
18186145 218 18410013212915513853
18534176 82 18114758117050677471
19049666 15 18410006645947324929
19422 9 16660362584365106667
200 152 17560791139811681269
20201158 50 18342176644021840807
20511035 2 18195244653052440806
20645476 183 17604159197825274558
21501502 16 18267300013902611951
22721475 48 18410582790066542541
23402539 116 18188196637721623951
23526113 38 18411143493668016403
23559900 14 18336260159795818146
25 1 18339360756357244293
2748010 2 18125722541391757457
3286 77 18339910593648936455
474 4 15265909234861166218
53812653 166 18335134263756453987
69090 78 18343012329200148631
77492 1 15719386256980296277
81228 2 17914345575928150168
8809292 202 18408044026207923587
9981440 41 15725057718662062196

>  <PUBCHEM_SHAPE_MULTIPOLES>  (1) 
309.44
5.94
1.94
1.17
0.47
0.35
-0.04
0.09
-1.23
0.34
0.64
-0.58
-0.12
0.54

>  <PUBCHEM_SHAPE_SELFOVERLAP>  (1) 
657.685

>  <PUBCHEM_SHAPE_VOLUME>  (1) 
175.6

>  <PUBCHEM_COORDINATE_TYPE>  (1) 
2
5
10

$$$$
