39866
     RDKit          3D

 21 23  0  0  1  0  0  0  0  0999 V2000
    3.9619   -1.1054   -1.6638 F   0  0  0  0  0  0  0  0  0  0  0  0
    1.7959   -2.0058   -0.4223 O   0  0  0  0  0  0  0  0  0  0  0  0
   -4.2826    1.6179   -0.0084 N   0  0  0  0  0  0  0  0  0  0  0  0
    0.4530   -0.2439    0.2982 N   0  0  0  0  0  0  0  0  0  0  0  0
   -1.8380    1.4450   -0.1673 C   0  0  0  0  0  0  0  0  0  0  0  0
   -1.9662   -0.0396    0.0542 C   0  0  0  0  0  0  0  0  0  0  0  0
   -3.1052    2.0697   -0.7600 C   0  0  0  0  0  0  0  0  0  0  0  0
   -4.4788    0.1691   -0.1923 C   0  0  0  0  0  0  0  0  0  0  0  0
   -3.2350   -0.6433    0.0866 C   0  0  0  0  0  0  0  0  0  0  0  0
   -0.8233   -0.8151    0.2887 C   0  0  0  0  0  0  0  0  0  0  0  0
   -3.3378   -2.0220    0.3164 C   0  0  0  0  0  0  0  0  0  0  0  0
   -5.4774    2.3508   -0.4255 C   0  0  0  0  0  0  0  0  0  0  0  0
   -0.9378   -2.1842    0.5278 C   0  0  0  0  0  0  0  0  0  0  0  0
   -2.1935   -2.7874    0.5392 C   0  0  0  0  0  0  0  0  0  0  0  0
    1.6801   -0.8411   -0.0471 C   0  0  0  0  0  0  0  0  0  0  0  0
    2.8607    0.0253    0.1114 C   0  0  0  0  0  0  0  0  0  0  0  0
    3.9559   -0.1549   -0.7180 C   0  0  0  0  0  0  0  0  0  0  0  0
    2.8516    1.0067    1.0897 C   0  0  0  0  0  0  0  0  0  0  0  0
    5.0716    0.6681   -0.5652 C   0  0  0  0  0  0  0  0  0  0  0  0
    3.9675    1.8297    1.2426 C   0  0  0  0  0  0  0  0  0  0  0  0
    5.0775    1.6605    0.4152 C   0  0  0  0  0  0  0  0  0  0  0  0
  1 17  1  0
  2 15  2  0
  3  7  1  0
  3  8  1  0
  3 12  1  0
  4 10  1  0
  4 15  1  0
  5  6  1  0
  5  7  1  0
  6  9  2  0
  6 10  1  0
  8  9  1  0
  9 11  1  0
 10 13  2  0
 11 14  2  0
 13 14  1  0
 15 16  1  0
 16 17  2  0
 16 18  1  0
 17 19  1  0
 18 20  2  0
 19 21  2  0
 20 21  1  0
M  END
>  <PUBCHEM_COMPOUND_CID>  (1) 
39866

>  <PUBCHEM_CONFORMER_RMSD>  (1) 
0.6

>  <PUBCHEM_CONFORMER_DIVERSEORDER>  (1) 
3
26
30
9
17
18
14
19
10
27
23
4
6
28
13
21
24
12
31
20
2
11
15
29
5
25
1
22
8
16
7

>  <PUBCHEM_MMFF94_PARTIAL_CHARGES>  (1) 
29
1 -0.19
10 0.12
11 -0.15
12 0.27
13 -0.15
14 -0.15
15 0.54
16 0.09
17 0.19
18 -0.15
19 -0.15
2 -0.57
20 -0.15
21 -0.15
28 0.15
3 -0.81
32 0.15
33 0.15
34 0.37
35 0.15
36 0.15
37 0.15
38 0.15
4 -0.55
5 0.14
6 -0.14
7 0.27
8 0.41
9 -0.14

>  <PUBCHEM_EFFECTIVE_ROTOR_COUNT>  (1) 
3.8

>  <PUBCHEM_PHARMACOPHORE_FEATURES>  (1) 
6
1 2 acceptor
1 3 cation
1 4 donor
6 16 17 18 19 20 21 rings
6 3 5 6 7 8 9 rings
6 6 9 10 11 13 14 rings

>  <PUBCHEM_HEAVY_ATOM_COUNT>  (1) 
21

>  <PUBCHEM_ATOM_DEF_STEREO_COUNT>  (1) 
0

>  <PUBCHEM_ATOM_UDEF_STEREO_COUNT>  (1) 
0

>  <PUBCHEM_BOND_DEF_STEREO_COUNT>  (1) 
0

>  <PUBCHEM_BOND_UDEF_STEREO_COUNT>  (1) 
0

>  <PUBCHEM_ISOTOPIC_ATOM_COUNT>  (1) 
0

>  <PUBCHEM_COMPONENT_COUNT>  (1) 
1

>  <PUBCHEM_CACTVS_TAUTO_COUNT>  (1) 
2

>  <PUBCHEM_CONFORMER_ID>  (1) 
00009BBA00000003

>  <PUBCHEM_MMFF94_ENERGY>  (1) 
65.4017

>  <PUBCHEM_FEATURE_SELFOVERLAP>  (1) 
30.468

>  <PUBCHEM_SHAPE_FINGERPRINT>  (1) 
10319926 262 18337656612598533482
10411042 1 17758962910940879963
10493431 412 18336266752565550473
10498660 4 18410009927202410832
10608611 8 18412825810951367554
10646746 165 18409729590861070704
11405975 8 18409164385897215370
11595378 159 17167854240718087612
12107183 9 18044075879453221138
12173636 292 18335415747302305783
12236239 1 17022897990818886794
12390115 104 18340779148169840449
12403259 415 18271811280410687360
12596602 18 16153714257726435120
12730499 353 18341338799124089587
12788726 201 16591989613001747586
13402501 40 18341608239439276920
13544592 145 18341338794860686534
14251757 17 18272090504487035528
14251764 38 18190461764845936156
14790565 3 18051696547422651529
15196674 1 18410009931396709538
15961568 22 17900257804330786260
16988056 13 15592406596804750101
18186145 218 18272937098169812987
200 152 16415766322777229307
20645477 56 18408042896926702841
20645477 70 17346609564660818110
21033648 29 18130215077758666320
21065201 7 18335702784356701162
21859007 373 17026540483631111220
221357 26 17917429778931989368
22289505 5 18131633370602157192
22393880 68 18413393133482670414
23227448 37 18337670914169916949
23557571 272 18339367468958585170
23559900 14 18341333310514620366
341906 21 18187920720580397456
3545911 37 18410858758694823552
4028521 119 18413670209974506713
4214541 1 18409730681550733384
495365 180 17917416602130204050
5104073 3 18334012774348826787
5281201 14 18201167636872270356
56616090 163 18410858737188215240
633830 44 18198897003648104357
7064713 232 18187366510648449925
7808743 9 18261109699051056144
9709674 26 18341895233411649798
9981440 41 18260265269710173067

>  <PUBCHEM_SHAPE_MULTIPOLES>  (1) 
409.07
11.85
2.79
0.96
4.17
0.42
0.06
-7.2
1.11
-2.94
-0.16
0.98
-0.06
1.75

>  <PUBCHEM_SHAPE_SELFOVERLAP>  (1) 
888.528

>  <PUBCHEM_SHAPE_VOLUME>  (1) 
223.3

>  <PUBCHEM_COORDINATE_TYPE>  (1) 
2
5
10

$$$$
