39877
     RDKit          3D

 20 21  0  0  0  0  0  0  0  0999 V2000
   -2.1987   -3.2130    0.3720 O   0  0  0  0  0  0  0  0  0  0  0  0
    5.4875    0.8664    0.1862 O   0  0  0  0  0  0  0  0  0  0  0  0
   -4.5851    3.1182   -0.1356 O   0  0  0  0  0  0  0  0  0  0  0  0
   -3.4485    1.8350    1.3552 O   0  0  0  0  0  0  0  0  0  0  0  0
    0.0366   -0.3618   -0.1402 C   0  0  0  0  0  0  0  0  0  0  0  0
   -2.2374    0.3146   -0.5977 C   0  0  0  0  0  0  0  0  0  0  0  0
    1.4453   -0.0445   -0.0560 C   0  0  0  0  0  0  0  0  0  0  0  0
   -0.8788    0.6205   -0.5182 C   0  0  0  0  0  0  0  0  0  0  0  0
   -0.4072   -1.6503    0.1582 C   0  0  0  0  0  0  0  0  0  0  0  0
   -2.6811   -0.9737   -0.2993 C   0  0  0  0  0  0  0  0  0  0  0  0
   -1.7658   -1.9563    0.0788 C   0  0  0  0  0  0  0  0  0  0  0  0
   -3.2164    1.3644   -1.0027 C   0  0  0  0  0  0  0  0  0  0  0  0
    1.8501    1.2496    0.2711 C   0  0  0  0  0  0  0  0  0  0  0  0
    2.3988   -1.0325   -0.3017 C   0  0  0  0  0  0  0  0  0  0  0  0
    3.2085    1.5557    0.3524 C   0  0  0  0  0  0  0  0  0  0  0  0
    3.7573   -0.7265   -0.2204 C   0  0  0  0  0  0  0  0  0  0  0  0
    4.1622    0.5677    0.1067 C   0  0  0  0  0  0  0  0  0  0  0  0
   -3.7353    2.1147    0.1981 C   0  0  0  0  0  0  0  0  0  0  0  0
   -3.6007   -3.4571    0.2703 C   0  0  0  0  0  0  0  0  0  0  0  0
    6.4086   -0.1911   -0.0771 C   0  0  0  0  0  0  0  0  0  0  0  0
  1 11  1  0
  1 19  1  0
  2 17  1  0
  2 20  1  0
  3 18  1  0
  4 18  2  0
  5  7  1  0
  5  8  1  0
  5  9  2  0
  6  8  2  0
  6 10  1  0
  6 12  1  0
  7 13  2  0
  7 14  1  0
  9 11  1  0
 10 11  2  0
 12 18  1  0
 13 15  1  0
 14 16  2  0
 15 17  2  0
 16 17  1  0
M  END
>  <PUBCHEM_COMPOUND_CID>  (1) 
39877

>  <PUBCHEM_CONFORMER_RMSD>  (1) 
0.8

>  <PUBCHEM_CONFORMER_DIVERSEORDER>  (1) 
1
8
7
5
11
10
2
4
6
3
9

>  <PUBCHEM_MMFF94_PARTIAL_CHARGES>  (1) 
26
1 -0.36
10 -0.15
11 0.08
12 0.2
13 -0.15
14 -0.15
15 -0.15
16 -0.15
17 0.08
18 0.66
19 0.28
2 -0.36
20 0.28
21 0.15
22 0.15
23 0.15
26 0.15
27 0.15
28 0.15
29 0.15
3 -0.65
36 0.5
4 -0.57
6 -0.14
8 -0.15
9 -0.15

>  <PUBCHEM_EFFECTIVE_ROTOR_COUNT>  (1) 
5

>  <PUBCHEM_PHARMACOPHORE_FEATURES>  (1) 
7
1 1 acceptor
1 2 acceptor
1 3 acceptor
1 4 acceptor
3 3 4 18 anion
6 5 6 8 9 10 11 rings
6 7 13 14 15 16 17 rings

>  <PUBCHEM_HEAVY_ATOM_COUNT>  (1) 
20

>  <PUBCHEM_ATOM_DEF_STEREO_COUNT>  (1) 
0

>  <PUBCHEM_ATOM_UDEF_STEREO_COUNT>  (1) 
0

>  <PUBCHEM_BOND_DEF_STEREO_COUNT>  (1) 
0

>  <PUBCHEM_BOND_UDEF_STEREO_COUNT>  (1) 
0

>  <PUBCHEM_ISOTOPIC_ATOM_COUNT>  (1) 
0

>  <PUBCHEM_COMPONENT_COUNT>  (1) 
1

>  <PUBCHEM_CACTVS_TAUTO_COUNT>  (1) 
1

>  <PUBCHEM_CONFORMER_ID>  (1) 
00009BC500000001

>  <PUBCHEM_MMFF94_ENERGY>  (1) 
74.972

>  <PUBCHEM_FEATURE_SELFOVERLAP>  (1) 
35.581

>  <PUBCHEM_SHAPE_FINGERPRINT>  (1) 
10411042 1 17977103784418810879
10493431 412 18337112259484517237
10608611 8 18340481278859738564
10912923 1 17749382711655937448
1100329 8 18047465625924719098
11315181 36 18187359987209792036
11405975 8 18409726266672415450
12107183 9 18118391844568036098
12293681 160 17773870892437590729
12390115 104 18269850743756869753
12403259 226 18054222404144267274
12403259 415 18058728143404082960
12500047 106 18411133628106733100
12507560 40 18199181966249126304
12788726 201 18262787601335407059
13073987 5 18336540634118787584
13140716 1 18410567375624193706
13544592 145 18269284456603258566
14178342 30 18335127735242796250
14508225 48 18120923156653056983
14790565 3 18050571737851854964
15042514 8 18120375616795172187
15196674 1 18410572933744391180
15778101 99 18410578383836551676
17093844 174 18343015606481371408
1741750 31 18412260610408702787
17844677 252 18338241591307489180
18186145 218 18339638923866479716
200 152 17703505601223331686
204376 136 18265333915709270893
20510252 161 18266738163682592099
20645477 56 18335420136347386541
20645477 70 17060063593067585334
21033648 29 17631998845810715504
21065198 57 18411697725322714142
21202864 24 18339091449392226563
21236236 1 18412261757386627407
21267235 1 18263649631225513542
21279426 13 18270970042647079974
21421861 104 17679009419102847282
21426921 1 18337672017966020735
22182313 1 17988098750156055206
22182937 141 18413393133387224577
22224240 67 18339652131925026393
23402539 116 18272080579023511428
23402655 69 18201994400770495140
23557571 272 18342745147457432494
23558518 356 18115873081886453345
23559900 14 18193544782401216124
23845131 108 18191875514272703745
283562 15 18262794198405199379
293599 30 18337954472058222316
312423 11 17678468664996845404
335352 9 18267302037291248662
350125 39 18338521970292014424
3545911 37 18342176652643495300
4214541 1 18409728486864571636
474 4 18126000465037416201
5104073 3 18410847794466192032
56616090 46 18339364050512764596
59755656 520 18335134259561746095
633830 44 17984418534519346493
77188 2 17760932140644901271
81228 2 18042408104897296491
9709674 26 18342740715030584390

>  <PUBCHEM_SHAPE_MULTIPOLES>  (1) 
388.11
10.99
3.22
0.79
13.3
1.25
-0.03
-3.3
-0.41
-6.32
-0.52
-0.44
-0.2
0.39

>  <PUBCHEM_SHAPE_SELFOVERLAP>  (1) 
832.018

>  <PUBCHEM_SHAPE_VOLUME>  (1) 
216.5

>  <PUBCHEM_COORDINATE_TYPE>  (1) 
2
5
10

$$$$
