39873
     RDKit          3D

 16 16  0  0  0  0  0  0  0  0999 V2000
    2.0184    0.6580    0.3589 O   0  0  0  0  0  0  0  0  0  0  0  0
   -3.7103   -2.8942    0.1438 O   0  0  0  0  0  0  0  0  0  0  0  0
   -2.5072   -1.6625   -1.3382 O   0  0  0  0  0  0  0  0  0  0  0  0
    3.8721   -0.6803   -0.4289 C   0  0  0  0  0  0  0  0  0  0  0  0
    2.4640   -0.6789    0.1725 C   0  0  0  0  0  0  0  0  0  0  0  0
    4.8734    0.0164    0.4949 C   0  0  0  0  0  0  0  0  0  0  0  0
    4.3251   -2.1091   -0.7214 C   0  0  0  0  0  0  0  0  0  0  0  0
    0.6673    0.8752    0.2842 C   0  0  0  0  0  0  0  0  0  0  0  0
   -1.5886    0.0876    0.5818 C   0  0  0  0  0  0  0  0  0  0  0  0
   -0.2135   -0.1335    0.6578 C   0  0  0  0  0  0  0  0  0  0  0  0
   -1.1840    2.3230   -0.2406 C   0  0  0  0  0  0  0  0  0  0  0  0
    0.1912    2.1018   -0.1646 C   0  0  0  0  0  0  0  0  0  0  0  0
   -2.0738    1.3159    0.1325 C   0  0  0  0  0  0  0  0  0  0  0  0
   -2.5401   -0.9891    0.9814 C   0  0  0  0  0  0  0  0  0  0  0  0
   -1.7025    3.6362   -0.7208 C   0  0  0  0  0  0  0  0  0  0  0  0
   -2.8915   -1.8665   -0.1935 C   0  0  0  0  0  0  0  0  0  0  0  0
  1  5  1  0
  1  8  1  0
  2 16  1  0
  3 16  2  0
  4  5  1  0
  4  6  1  0
  4  7  1  0
  8 10  2  0
  8 12  1  0
  9 10  1  0
  9 13  2  0
  9 14  1  0
 11 12  2  0
 11 13  1  0
 11 15  1  0
 14 16  1  0
M  END
>  <PUBCHEM_COMPOUND_CID>  (1) 
39873

>  <PUBCHEM_CONFORMER_RMSD>  (1) 
0.6

>  <PUBCHEM_CONFORMER_DIVERSEORDER>  (1) 
1
63
53
11
46
54
25
58
55
64
12
61
52
30
28
62
29
7
47
44
69
22
17
34
65
8
9
37
26
60
3
27
45
56
35
2
31
51
18
15
36
39
59
19
33
23
24
67
50
48
10
32
21
38
6
14
66
40
68
42
5
20
16
49
57
13
4
41
43

>  <PUBCHEM_MMFF94_PARTIAL_CHARGES>  (1) 
17
1 -0.36
10 -0.15
11 -0.14
12 -0.15
13 -0.15
14 0.2
15 0.14
16 0.66
2 -0.65
26 0.15
27 0.15
28 0.15
3 -0.57
34 0.5
5 0.28
8 0.08
9 -0.14

>  <PUBCHEM_EFFECTIVE_ROTOR_COUNT>  (1) 
5

>  <PUBCHEM_PHARMACOPHORE_FEATURES>  (1) 
6
1 1 acceptor
1 2 acceptor
1 3 acceptor
3 2 3 16 anion
3 4 6 7 hydrophobe
6 8 9 10 11 12 13 rings

>  <PUBCHEM_HEAVY_ATOM_COUNT>  (1) 
16

>  <PUBCHEM_ATOM_DEF_STEREO_COUNT>  (1) 
0

>  <PUBCHEM_ATOM_UDEF_STEREO_COUNT>  (1) 
0

>  <PUBCHEM_BOND_DEF_STEREO_COUNT>  (1) 
0

>  <PUBCHEM_BOND_UDEF_STEREO_COUNT>  (1) 
0

>  <PUBCHEM_ISOTOPIC_ATOM_COUNT>  (1) 
0

>  <PUBCHEM_COMPONENT_COUNT>  (1) 
1

>  <PUBCHEM_CACTVS_TAUTO_COUNT>  (1) 
1

>  <PUBCHEM_CONFORMER_ID>  (1) 
00009BC100000001

>  <PUBCHEM_MMFF94_ENERGY>  (1) 
38.5857

>  <PUBCHEM_FEATURE_SELFOVERLAP>  (1) 
30.504

>  <PUBCHEM_SHAPE_FINGERPRINT>  (1) 
10616163 171 18339646616533091542
11578080 2 17917417778861950009
12138202 97 18120935001518887036
12173636 292 17830732058805705404
12403259 327 15625671646951352619
12500047 106 18048315544628932788
12553582 1 18264786504493969370
12555020 224 17762334717649026118
12841375 25 18337389469358099979
14508225 48 18335692875508641789
15042514 8 18337118873781470137
15669948 3 18189050889573962704
17539 30 18337660954320105629
1813 80 18268731552325154159
19141452 34 18272378563854287075
20281475 54 18342749511418498682
20524608 308 18193558869804445120
20645476 183 17826800226430121476
20645477 56 18191872219358080248
20645477 70 17686889928029524083
20671657 53 18265899253384823483
20693207 138 17915760703691630198
20871998 184 18339651027200370593
20871998 22 18267303321022252721
21339142 126 18336271154268446297
21426921 1 18336828602548278160
21728266 224 18115290212597380906
22943178 12 18200870665822250328
23114952 82 17463405371873081149
23402539 116 18187359935554178994
23557571 272 18341603785979917936
23559900 14 18124873457498366778
23598288 3 17970374549290372301
2748010 2 18264193880822646001
3084891 72 17547001932354390704
559249 180 17756144484596871762
58051976 100 18341900645360346398
58779409 54 18335126571322730085
633830 44 16662357013360457906
81228 2 18333723615966065665
9709674 26 18126566717825891678

>  <PUBCHEM_SHAPE_MULTIPOLES>  (1) 
311.66
7.7
3.45
0.92
10.77
0.95
-0.08
-5.04
-0.6
-4.29
-0.98
-0.17
-0.18
0.66

>  <PUBCHEM_SHAPE_SELFOVERLAP>  (1) 
632.866

>  <PUBCHEM_SHAPE_VOLUME>  (1) 
183.7

>  <PUBCHEM_COORDINATE_TYPE>  (1) 
2
5
10

$$$$
