39886
     RDKit          3D

 30 32  0  0  1  0  0  0  0  0999 V2000
   -2.3132    5.9658    0.5405 F   0  0  0  0  0  0  0  0  0  0  0  0
   -3.2362   -1.7824   -0.2233 O   0  0  0  0  0  0  0  0  0  0  0  0
   -3.5422    0.2689   -1.8595 O   0  0  0  0  0  0  0  0  0  0  0  0
   -3.8137   -2.4854    1.8732 O   0  0  0  0  0  0  0  0  0  0  0  0
    0.9457   -0.9296    0.0538 N   0  0  0  0  0  0  0  0  0  0  0  0
    3.7582   -0.4418   -0.0508 N   0  0  0  0  0  0  0  0  0  0  0  0
   -4.0575   -3.9261    0.0640 N   0  0  0  0  0  0  0  0  0  0  0  0
    1.4711    0.4301    0.2268 C   0  0  0  0  0  0  0  0  0  0  0  0
    1.7944   -1.6776   -0.8820 C   0  0  0  0  0  0  0  0  0  0  0  0
    2.8970    0.4025    0.7829 C   0  0  0  0  0  0  0  0  0  0  0  0
    3.2304   -1.7762   -0.3620 C   0  0  0  0  0  0  0  0  0  0  0  0
   -0.4350   -0.8888   -0.4265 C   0  0  0  0  0  0  0  0  0  0  0  0
   -1.3889   -0.5839    0.7339 C   0  0  0  0  0  0  0  0  0  0  0  0
    5.1472   -0.2793   -0.0011 C   0  0  0  0  0  0  0  0  0  0  0  0
   -2.8620   -0.5194    0.3149 C   0  0  0  0  0  0  0  0  0  0  0  0
   -3.1381    0.5560   -0.7337 C   0  0  0  0  0  0  0  0  0  0  0  0
    5.9226   -0.5551   -1.1273 C   0  0  0  0  0  0  0  0  0  0  0  0
    5.7564    0.1579    1.1751 C   0  0  0  0  0  0  0  0  0  0  0  0
   -2.9202    1.9905   -0.3961 C   0  0  0  0  0  0  0  0  0  0  0  0
    7.3071   -0.3939   -1.0773 C   0  0  0  0  0  0  0  0  0  0  0  0
    7.1411    0.3192    1.2251 C   0  0  0  0  0  0  0  0  0  0  0  0
    7.9164    0.0432    0.0990 C   0  0  0  0  0  0  0  0  0  0  0  0
   -3.7107   -2.7135    0.6691 C   0  0  0  0  0  0  0  0  0  0  0  0
   -3.0841    2.4305    0.9175 C   0  0  0  0  0  0  0  0  0  0  0  0
   -2.5513    2.8936   -1.3931 C   0  0  0  0  0  0  0  0  0  0  0  0
   -2.8791    3.7734    1.2339 C   0  0  0  0  0  0  0  0  0  0  0  0
   -2.3463    4.2365   -1.0767 C   0  0  0  0  0  0  0  0  0  0  0  0
   -2.5102    4.6764    0.2368 C   0  0  0  0  0  0  0  0  0  0  0  0
   -4.5841   -5.0503    0.8315 C   0  0  0  0  0  0  0  0  0  0  0  0
   -3.9147   -4.1415   -1.3688 C   0  0  0  0  0  0  0  0  0  0  0  0
  1 28  1  0
  2 15  1  0
  2 23  1  0
  3 16  2  0
  4 23  2  0
  5  8  1  0
  5  9  1  0
  5 12  1  0
  6 10  1  0
  6 11  1  0
  6 14  1  0
  7 23  1  0
  7 29  1  0
  7 30  1  0
  8 10  1  0
  9 11  1  0
 12 13  1  0
 13 15  1  0
 14 17  2  0
 14 18  1  0
 15 16  1  0
 16 19  1  0
 17 20  1  0
 18 21  2  0
 19 24  2  0
 19 25  1  0
 20 22  2  0
 21 22  1  0
 24 26  1  0
 25 27  2  0
 26 28  2  0
 27 28  1  0
M  END
>  <PUBCHEM_COMPOUND_CID>  (1) 
39886

>  <PUBCHEM_CONFORMER_RMSD>  (1) 
1.2

>  <PUBCHEM_CONFORMER_DIVERSEORDER>  (1) 
1
32
72
61
94
23
87
12
18
74
16
109
91
31
96
101
79
57
68
5
9
20
50
105
49
66
76
3
93
36
19
15
60
34
106
55
53
102
63
14
95
13
86
59
38
42
62
104
107
71
99
45
17
82
48
21
108
8
69
78
22
81
98
41
35
6
97
37
7
25
84
67
83
44
27
11
77
51
90
56
92
100
28
39
70
30
29
43
65
85
54
46
88
75
4
103
73
89
33
80
40
47
58
24
64
52
2
10
26

>  <PUBCHEM_MMFF94_PARTIAL_CHARGES>  (1) 
38
1 -0.19
10 0.37
11 0.37
12 0.27
14 0.1
15 0.34
16 0.42
17 -0.15
18 -0.15
19 0.09
2 -0.43
20 -0.15
21 -0.15
22 -0.15
23 0.78
24 -0.15
25 -0.15
26 -0.15
27 -0.15
28 0.19
29 0.3
3 -0.57
30 0.3
4 -0.57
44 0.15
45 0.15
46 0.15
47 0.15
48 0.15
49 0.15
5 -0.81
50 0.15
51 0.15
52 0.15
6 -0.84
7 -0.66
8 0.27
9 0.27

>  <PUBCHEM_EFFECTIVE_ROTOR_COUNT>  (1) 
10.2

>  <PUBCHEM_PHARMACOPHORE_FEATURES>  (1) 
7
1 3 acceptor
1 4 acceptor
1 5 cation
1 6 cation
6 14 17 18 20 21 22 rings
6 19 24 25 26 27 28 rings
6 5 6 8 9 10 11 rings

>  <PUBCHEM_HEAVY_ATOM_COUNT>  (1) 
30

>  <PUBCHEM_ATOM_DEF_STEREO_COUNT>  (1) 
0

>  <PUBCHEM_ATOM_UDEF_STEREO_COUNT>  (1) 
1

>  <PUBCHEM_BOND_DEF_STEREO_COUNT>  (1) 
0

>  <PUBCHEM_BOND_UDEF_STEREO_COUNT>  (1) 
0

>  <PUBCHEM_ISOTOPIC_ATOM_COUNT>  (1) 
0

>  <PUBCHEM_COMPONENT_COUNT>  (1) 
1

>  <PUBCHEM_CACTVS_TAUTO_COUNT>  (1) 
2

>  <PUBCHEM_CONFORMER_ID>  (1) 
00009BCE00000001

>  <PUBCHEM_MMFF94_ENERGY>  (1) 
82.4665

>  <PUBCHEM_FEATURE_SELFOVERLAP>  (1) 
35.524

>  <PUBCHEM_SHAPE_FINGERPRINT>  (1) 
10290309 65 18123195606221224883
10291535 26 18410852127608333433
10319688 45 18267583692113974511
10411042 1 18193839473430549267
10816530 145 18271537437374805569
10937287 8 17833828275165108021
11014199 57 18337394936567105420
11056379 131 18410298012213028246
11059845 2 17903607732966027186
11062273 23 18260841375875746195
11101153 10 18190185774864008308
11434127 23 18413100646051330478
11445158 3 16700895088538812408
12106331 60 18337103583693531010
12107183 9 17756414973094718970
12788726 201 18334844001598825091
13782708 43 18273216413759759614
14068700 675 18041560376810461543
14251764 75 17478895987091168057
14347329 18 18270390578423209824
14395042 24 18188508921316997985
14713325 29 18412547595833670571
15324884 4 17839993537641257745
15419008 47 18201718517682669522
15463212 79 18115868490930092915
15876981 60 18187369856338010740
16087824 20 18410572857020457981
16114785 44 18198913518135104049
17844677 252 18409169952596531512
18393751 57 17976267842112385825
20101258 96 18340205301572821267
20238998 120 18339360890044607779
20691028 202 18051419470228915568
20771845 65 17911524504697236027
21304303 172 18271250508601920507
21796203 349 17685530879880843179
22956985 138 17542786864482541623
23081809 10 17530965783603068706
23569914 152 16263212113351336452
249057 25 17749113314285408764
3418910 222 18191311683661861988
4073 2 18411421666532216634
4144715 1 18339367340885695390
508706 21 18342727490953075384
550186 72 18339361967437847038
6376802 90 18268435633605802126
6673363 416 18193290804850088268
9555976 147 18263348219384837394
9849439 229 17905045850608987677

>  <PUBCHEM_SHAPE_MULTIPOLES>  (1) 
577.56
16.79
6.77
1.38
42.05
3.7
-0.07
-5.78
0.69
-18.96
0.6
-0.45
-0.01
1.17

>  <PUBCHEM_SHAPE_SELFOVERLAP>  (1) 
1211.149

>  <PUBCHEM_SHAPE_VOLUME>  (1) 
326.3

>  <PUBCHEM_COORDINATE_TYPE>  (1) 
2
5
10

$$$$
