39881
     RDKit          3D

 25 27  0  0  1  0  0  0  0  0999 V2000
   -5.7951   -3.5485   -0.5347 F   0  0  0  0  0  0  0  0  0  0  0  0
   -2.4127    3.4796   -0.2403 O   0  0  0  0  0  0  0  0  0  0  0  0
   -3.9803    2.1297    1.4026 O   0  0  0  0  0  0  0  0  0  0  0  0
    0.6151    0.4916    0.2037 N   0  0  0  0  0  0  0  0  0  0  0  0
    3.4332    0.0316    0.1261 N   0  0  0  0  0  0  0  0  0  0  0  0
    1.4501    1.1672   -0.7972 C   0  0  0  0  0  0  0  0  0  0  0  0
    1.3734    0.3123    1.4477 C   0  0  0  0  0  0  0  0  0  0  0  0
    2.7046    0.3477   -1.1089 C   0  0  0  0  0  0  0  0  0  0  0  0
    2.6263   -0.5347    1.2113 C   0  0  0  0  0  0  0  0  0  0  0  0
   -0.6063    1.2563    0.4530 C   0  0  0  0  0  0  0  0  0  0  0  0
   -1.4292    1.3714   -0.8350 C   0  0  0  0  0  0  0  0  0  0  0  0
    4.7887   -0.3002    0.0232 C   0  0  0  0  0  0  0  0  0  0  0  0
   -2.7331    2.1583   -0.6604 C   0  0  0  0  0  0  0  0  0  0  0  0
    5.7185    0.6079   -0.5215 C   0  0  0  0  0  0  0  0  0  0  0  0
    5.2651   -1.5518    0.4618 C   0  0  0  0  0  0  0  0  0  0  0  0
   -3.6728    1.5360    0.3700 C   0  0  0  0  0  0  0  0  0  0  0  0
    7.0700    0.2778   -0.6235 C   0  0  0  0  0  0  0  0  0  0  0  0
    6.6165   -1.8818    0.3600 C   0  0  0  0  0  0  0  0  0  0  0  0
   -4.2400    0.1797    0.1288 C   0  0  0  0  0  0  0  0  0  0  0  0
    7.5189   -0.9670   -0.1826 C   0  0  0  0  0  0  0  0  0  0  0  0
   -4.4514   -0.2278   -1.1699 C   0  0  0  0  0  0  0  0  0  0  0  0
   -4.5313   -0.6187    1.2129 C   0  0  0  0  0  0  0  0  0  0  0  0
   -4.9812   -1.4982   -1.3960 C   0  0  0  0  0  0  0  0  0  0  0  0
   -5.0610   -1.8891    0.9866 C   0  0  0  0  0  0  0  0  0  0  0  0
   -5.2859   -2.3290   -0.3178 C   0  0  0  0  0  0  0  0  0  0  0  0
  1 25  1  0
  2 13  1  0
  3 16  2  0
  4  6  1  0
  4  7  1  0
  4 10  1  0
  5  8  1  0
  5  9  1  0
  5 12  1  0
  6  8  1  0
  7  9  1  0
 10 11  1  0
 11 13  1  0
 12 14  2  0
 12 15  1  0
 13 16  1  0
 14 17  1  0
 15 18  2  0
 16 19  1  0
 17 20  2  0
 18 20  1  0
 19 21  2  0
 19 22  1  0
 21 23  1  0
 22 24  2  0
 23 25  2  0
 24 25  1  0
M  END
>  <PUBCHEM_COMPOUND_CID>  (1) 
39881

>  <PUBCHEM_CONFORMER_RMSD>  (1) 
0.8

>  <PUBCHEM_CONFORMER_DIVERSEORDER>  (1) 
1
306
103
250
264
342
96
15
316
56
290
117
60
341
223
183
363
120
112
161
296
277
255
313
11
337
344
293
248
301
346
82
244
237
307
16
114
35
280
28
8
303
58
335
206
50
39
196
331
297
17
24
172
317
145
333
294
125
209
75
76
345
245
279
127
271
268
300
21
287
69
10
67
283
13
119
85
278
94
98
350
26
364
282
321
199
130
71
31
197
211
32
349
78
118
291
100
185
204
361
232
214
70
156
113
285
234
181
352
305
111
207
229
105
46
12
219
263
143
40
286
128
270
258
134
182
339
299
239
289
158
221
328
238
129
89
329
357
136
138
273
298
84
86
259
295
184
33
34
358
262
201
356
275
83
178
208
144
288
334
176
115
284
66
312
155
27
167
38
61
213
240
47
189
109
72
227
43
135
77
150
315
95
216
194
5
41
246
200
142
192
81
359
281
169
49
29
338
225
336
154
139
23
348
45
55
3
231
180
241
160
205
224
330
110
64
51
292
63
121
354
261
272
148
274
20
68
151
343
257
90
186
123
230
256
247
9
107
163
253
324
310
190
351
59
80
153
175
6
252
48
159
65
236
18
53
332
360
7
157
88
191
228
322
73
251
4
106
168
198
131
147
79
122
140
133
195
269
347
314
188
187
19
149
92
87
52
265
260
362
243
97
311
146
325
91
235
99
319
74
193
254
242
164
54
44
226
249
124
215
126
132
37
25
210
141
179
137
62
318
233
2
340
152
166
304
218
101
327
108
14
93
353
116
171
173
355
326
266
220
302
202
267
276
162
57
323
203
165
170
102
320
42
36
308
104
174
309
177
30
222
217
212
22

>  <PUBCHEM_MMFF94_PARTIAL_CHARGES>  (1) 
34
1 -0.19
10 0.27
12 0.1
13 0.34
14 -0.15
15 -0.15
16 0.42
17 -0.15
18 -0.15
19 0.09
2 -0.68
20 -0.15
21 -0.15
22 -0.15
23 -0.15
24 -0.15
25 0.19
3 -0.57
39 0.15
4 -0.81
40 0.15
41 0.4
42 0.15
43 0.15
44 0.15
45 0.15
46 0.15
47 0.15
48 0.15
5 -0.84
6 0.27
7 0.27
8 0.37
9 0.37

>  <PUBCHEM_EFFECTIVE_ROTOR_COUNT>  (1) 
7.2

>  <PUBCHEM_PHARMACOPHORE_FEATURES>  (1) 
8
1 2 acceptor
1 2 donor
1 3 acceptor
1 4 cation
1 5 cation
6 12 14 15 17 18 20 rings
6 19 21 22 23 24 25 rings
6 4 5 6 7 8 9 rings

>  <PUBCHEM_HEAVY_ATOM_COUNT>  (1) 
25

>  <PUBCHEM_ATOM_DEF_STEREO_COUNT>  (1) 
0

>  <PUBCHEM_ATOM_UDEF_STEREO_COUNT>  (1) 
1

>  <PUBCHEM_BOND_DEF_STEREO_COUNT>  (1) 
0

>  <PUBCHEM_BOND_UDEF_STEREO_COUNT>  (1) 
0

>  <PUBCHEM_ISOTOPIC_ATOM_COUNT>  (1) 
0

>  <PUBCHEM_COMPONENT_COUNT>  (1) 
1

>  <PUBCHEM_CACTVS_TAUTO_COUNT>  (1) 
4

>  <PUBCHEM_CONFORMER_ID>  (1) 
00009BC900000001

>  <PUBCHEM_MMFF94_ENERGY>  (1) 
71.0986

>  <PUBCHEM_FEATURE_SELFOVERLAP>  (1) 
40.608

>  <PUBCHEM_SHAPE_FINGERPRINT>  (1) 
10595046 47 18333733499186505644
11089746 13 9367339319690466022
11135609 201 8430055195723830015
11315181 36 18343863303828923121
11524674 6 16917064456264411711
11545043 162 17989480805748209024
12166972 35 18334020484696571100
12236239 1 18335141956375489292
12633257 1 15984261975893357263
12895837 130 10665222653749772451
1361 4 18411136914385274038
13631057 29 18411134745009246283
13673619 4 18060698424626661905
13690498 29 18186794795273068549
13782708 43 18342455916250144722
14211702 104 18342463595493811046
14251764 30 18342736351153530563
14461889 52 18337946888174100178
14856354 85 17988928842553511869
14931854 50 17676754466678184379
14950920 106 16486971864672142715
15183329 4 18040432188097623698
15250474 111 18043234765310209298
15352257 5 18131352990594317350
15716309 27 18412829070857866848
15876981 60 18334019354313272285
17093844 174 17346310458337078465
17780758 139 17989210335205548497
17844677 252 17846776304355863680
17913733 40 15410900643277814470
18927931 339 18411985745729389941
19958102 18 17313384513550222282
20281389 69 10303809886931870774
20567600 247 18408038499054681058
21054139 6 18113898256461881394
21236236 1 18409168792206340427
21623969 137 17275107206799282102
21756936 100 9439404636343700357
21781051 124 17489317369843688718
2303208 19 17847056671494145056
23081809 10 17822017459125428436
23402539 116 18040720233762250332
23424782 7 18342455989448951952
23522609 53 18121250686454260732
23559900 14 18334286613364690857
24771293 8 17821733845487672364
2838139 119 11674873420247255518
328310 18 12324239451947250615
3504750 166 17827344485534924032
397830 11 17988066886151895080
4015057 19 17531261594447936100
445580 167 17968385632452323980
484985 159 18412257338487739903
4938544 92 17346328046724028281
6431902 208 18261114079859708467
6673363 416 18340498837657586996
6691757 9 18059301964294569433
7226269 152 8718834188547195087
7495541 125 18131348618459930968
7970288 3 18266457792782099319
8863177 126 17988072408978995594
9996256 80 18408041793378583594
999808 66 17703792513755161822

>  <PUBCHEM_SHAPE_MULTIPOLES>  (1) 
485.51
20.01
2.79
1.25
21.73
0.23
-0.1
12.64
1.95
-5.24
0.2
-0.98
0.05
-1.31

>  <PUBCHEM_SHAPE_SELFOVERLAP>  (1) 
1028.324

>  <PUBCHEM_SHAPE_VOLUME>  (1) 
271.2

>  <PUBCHEM_COORDINATE_TYPE>  (1) 
2
5
10

$$$$
