39882
     RDKit          3D

 27 29  0  0  1  0  0  0  0  0999 V2000
    8.2264    2.3070    0.2727 Cl  0  0  0  0  0  0  0  0  0  0  0  0
   -5.6613    4.0623    0.0521 F   0  0  0  0  0  0  0  0  0  0  0  0
    3.4773   -2.1729   -0.4546 O   0  0  0  0  0  0  0  0  0  0  0  0
   -3.2879   -3.3440    0.7119 O   0  0  0  0  0  0  0  0  0  0  0  0
   -4.6929   -2.0236   -1.0940 O   0  0  0  0  0  0  0  0  0  0  0  0
    0.1117   -0.8967   -0.1523 N   0  0  0  0  0  0  0  0  0  0  0  0
    3.0814   -0.8247   -0.1615 C   0  0  0  0  0  0  0  0  0  0  0  0
    2.2132   -0.2804   -1.3193 C   0  0  0  0  0  0  0  0  0  0  0  0
    2.2253   -0.8536    1.1243 C   0  0  0  0  0  0  0  0  0  0  0  0
    0.8429   -0.9626   -1.4217 C   0  0  0  0  0  0  0  0  0  0  0  0
    0.8685   -1.5397    0.9273 C   0  0  0  0  0  0  0  0  0  0  0  0
   -1.2092   -1.5099   -0.2886 C   0  0  0  0  0  0  0  0  0  0  0  0
    4.3853   -0.0326   -0.0509 C   0  0  0  0  0  0  0  0  0  0  0  0
   -2.0094   -1.3330    1.0067 C   0  0  0  0  0  0  0  0  0  0  0  0
    4.7194    0.5939    1.1488 C   0  0  0  0  0  0  0  0  0  0  0  0
    5.2368    0.0625   -1.1506 C   0  0  0  0  0  0  0  0  0  0  0  0
   -3.4132   -1.9463    0.9478 C   0  0  0  0  0  0  0  0  0  0  0  0
    5.9078    1.3173    1.2489 C   0  0  0  0  0  0  0  0  0  0  0  0
    6.4253    0.7858   -1.0503 C   0  0  0  0  0  0  0  0  0  0  0  0
   -4.2821   -1.3443   -0.1542 C   0  0  0  0  0  0  0  0  0  0  0  0
    6.7607    1.4133    0.1494 C   0  0  0  0  0  0  0  0  0  0  0  0
   -4.6510    0.0981   -0.0992 C   0  0  0  0  0  0  0  0  0  0  0  0
   -4.7735    0.7034    1.1321 C   0  0  0  0  0  0  0  0  0  0  0  0
   -4.8550    0.7750   -1.2815 C   0  0  0  0  0  0  0  0  0  0  0  0
   -5.1176    2.0543    1.1837 C   0  0  0  0  0  0  0  0  0  0  0  0
   -5.1990    2.1258   -1.2298 C   0  0  0  0  0  0  0  0  0  0  0  0
   -5.3303    2.7654    0.0027 C   0  0  0  0  0  0  0  0  0  0  0  0
  1 21  1  0
  2 27  1  0
  3  7  1  0
  4 17  1  0
  5 20  2  0
  6 10  1  0
  6 11  1  0
  6 12  1  0
  7  8  1  0
  7  9  1  0
  7 13  1  0
  8 10  1  0
  9 11  1  0
 12 14  1  0
 13 15  2  0
 13 16  1  0
 14 17  1  0
 15 18  1  0
 16 19  2  0
 17 20  1  0
 18 21  2  0
 19 21  1  0
 20 22  1  0
 22 23  2  0
 22 24  1  0
 23 25  1  0
 24 26  2  0
 25 27  2  0
 26 27  1  0
M  END
>  <PUBCHEM_COMPOUND_CID>  (1) 
39882

>  <PUBCHEM_CONFORMER_RMSD>  (1) 
1

>  <PUBCHEM_CONFORMER_DIVERSEORDER>  (1) 
1
596
322
144
68
108
84
94
5
403
220
417
377
204
235
74
29
373
300
88
356
351
12
72
261
91
171
2
142
9
48
45
109
63
583
291
32
543
338
434
103
21
67
166
326
353
4
518
256
190
31
341
268
66
16
570
329
75
323
180
100
128
408
93
23
191
125
380
521
17
228
273
446
282
540
179
30
115
6
416
98
276
78
154
201
137
104
511
298
56
284
8
44
531
209
14
555
3
51
116
265
476
20
54
312
223
124
431
181
283
76
296
541
50
232
79
302
38
218
49
197
523
500
97
117
130
289
200
444
195
503
7
141
95
58
172
118
240
33
120
297
53
25
394
46
342
285
89
22
250
538
430
288
311
18
438
529
303
10
327

>  <PUBCHEM_MMFF94_PARTIAL_CHARGES>  (1) 
34
1 -0.18
10 0.27
11 0.27
12 0.27
13 -0.14
15 -0.15
16 -0.15
17 0.34
18 -0.15
19 -0.15
2 -0.19
20 0.42
21 0.18
22 0.09
23 -0.15
24 -0.15
25 -0.15
26 -0.15
27 0.19
3 -0.68
4 -0.68
40 0.4
42 0.15
43 0.15
44 0.15
45 0.15
46 0.4
47 0.15
48 0.15
49 0.15
5 -0.57
50 0.15
6 -0.81
7 0.42

>  <PUBCHEM_EFFECTIVE_ROTOR_COUNT>  (1) 
7.2

>  <PUBCHEM_PHARMACOPHORE_FEATURES>  (1) 
9
1 3 acceptor
1 3 donor
1 4 acceptor
1 4 donor
1 5 acceptor
1 6 cation
6 13 15 16 18 19 21 rings
6 22 23 24 25 26 27 rings
6 6 7 8 9 10 11 rings

>  <PUBCHEM_HEAVY_ATOM_COUNT>  (1) 
27

>  <PUBCHEM_ATOM_DEF_STEREO_COUNT>  (1) 
0

>  <PUBCHEM_ATOM_UDEF_STEREO_COUNT>  (1) 
1

>  <PUBCHEM_BOND_DEF_STEREO_COUNT>  (1) 
0

>  <PUBCHEM_BOND_UDEF_STEREO_COUNT>  (1) 
0

>  <PUBCHEM_ISOTOPIC_ATOM_COUNT>  (1) 
0

>  <PUBCHEM_COMPONENT_COUNT>  (1) 
1

>  <PUBCHEM_CACTVS_TAUTO_COUNT>  (1) 
4

>  <PUBCHEM_CONFORMER_ID>  (1) 
00009BCA00000001

>  <PUBCHEM_MMFF94_ENERGY>  (1) 
64.4656

>  <PUBCHEM_FEATURE_SELFOVERLAP>  (1) 
45.68

>  <PUBCHEM_SHAPE_FINGERPRINT>  (1) 
10087517 78 18334010609949066117
10291535 26 18341900692968944811
10554248 39 17275114890748644572
10763959 59 18130509721295075208
11135609 201 18338805495076135761
11315621 246 11095888155155264745
11393246 34 8358257038626169121
11477941 20 18129648833823636045
11991303 11 16486966358054188484
12422481 6 16660918881404039766
12664476 115 18202002178618496049
12857493 111 17840594700229772534
12895837 130 18272649031204695813
13073987 5 18260832592146035987
13690498 29 17202189914790770783
13782708 43 9079114449660532196
13911987 19 16989126456785699871
14118638 360 18334290985557073771
14251764 38 18339361976081068161
14251764 75 17909836432178768409
14347329 18 18131064896703160747
14395042 24 17822872969872326747
14466204 15 18113898277498627468
14598715 104 18201428229881953976
14950920 106 14707508983488941509
14951699 99 18334016081874505644
15021287 119 15574713629415374014
15513586 35 17025464302920191661
155225 5 18338517413564822305
16126227 98 18339929213118641977
16994733 274 18335416924688094408
17780758 139 12251898183956861703
17913733 40 15357693067796174489
18927931 339 11167944675826018567
20281389 69 18335422352508144323
20567600 247 10375879558787347276
20621476 21 8574715719279777368
20691028 202 18263930938883323949
21033648 29 18114472154318302937
21130935 74 18040711503090991194
21424621 283 18335421279367759162
21623969 137 13334733531627351272
21781055 127 17822298986259016132
22122407 14 17969795257645960992
23522609 53 17168726222917696092
23559900 14 18056197973095203371
23569914 152 17053316826278582254
23569914 2 17484757724397418744
2748736 6 18335977597417220248
2838139 119 18343016739952167848
328310 18 18060423495681257369
4144715 1 18262810682526247442
4169191 19 17677333956460583252
437795 83 17418100923037918992
44249763 50 17916851512934610904
445580 167 13110957669936932170
484985 159 9943804466289058009
5104073 3 17749107768438748610
5283173 99 18413389830356790571
636775 72 18337670931756507040
636775 8 10881664778164181352
6431902 208 9871745789202238665
7970288 3 10159394549852611797
8863177 126 8718819890806366068
999808 66 11025793202337290856

>  <PUBCHEM_SHAPE_MULTIPOLES>  (1) 
527.65
20.99
3.25
1.4
18.95
1.5
-0.09
17.81
0.16
-5.64
0.37
-0.05
0.02
0.87

>  <PUBCHEM_SHAPE_SELFOVERLAP>  (1) 
1114.406

>  <PUBCHEM_SHAPE_VOLUME>  (1) 
297.5

>  <PUBCHEM_COORDINATE_TYPE>  (1) 
2
5
10

$$$$
