39899
     RDKit          3D

  7  6  0  0  1  0  0  0  0  0999 V2000
    3.2393    0.5004   -0.0173 Br  0  0  0  0  0  0  0  0  0  0  0  0
   -0.8980   -0.5638    0.4183 C   0  0  0  0  0  0  0  0  0  0  0  0
    0.5667   -0.1698    0.7001 C   0  0  0  0  0  0  0  0  0  0  0  0
   -1.6584    0.4347   -0.4746 C   0  0  0  0  0  0  0  0  0  0  0  0
   -0.9920   -1.9704   -0.1822 C   0  0  0  0  0  0  0  0  0  0  0  0
    1.4495   -0.0776   -0.5358 C   0  0  0  0  0  0  0  0  0  0  0  0
   -1.7071    1.8465    0.0916 C   0  0  0  0  0  0  0  0  0  0  0  0
  1  6  1  0
  2  3  1  0
  2  4  1  0
  2  5  1  0
  3  6  1  0
  4  7  1  0
M  END
>  <PUBCHEM_COMPOUND_CID>  (1) 
39899

>  <PUBCHEM_CONFORMER_RMSD>  (1) 
0.4

>  <PUBCHEM_CONFORMER_DIVERSEORDER>  (1) 
3
17
24
10
19
21
7
22
8
14
25
18
15
16
12
4
20
9
11
1
23
13
2
6
5

>  <PUBCHEM_MMFF94_PARTIAL_CHARGES>  (1) 
2
1 -0.23
6 0.23

>  <PUBCHEM_EFFECTIVE_ROTOR_COUNT>  (1) 
3

>  <PUBCHEM_PHARMACOPHORE_FEATURES>  (1) 
3
1 1 hydrophobe
1 5 hydrophobe
1 7 hydrophobe

>  <PUBCHEM_HEAVY_ATOM_COUNT>  (1) 
7

>  <PUBCHEM_ATOM_DEF_STEREO_COUNT>  (1) 
0

>  <PUBCHEM_ATOM_UDEF_STEREO_COUNT>  (1) 
1

>  <PUBCHEM_BOND_DEF_STEREO_COUNT>  (1) 
0

>  <PUBCHEM_BOND_UDEF_STEREO_COUNT>  (1) 
0

>  <PUBCHEM_ISOTOPIC_ATOM_COUNT>  (1) 
0

>  <PUBCHEM_COMPONENT_COUNT>  (1) 
1

>  <PUBCHEM_CACTVS_TAUTO_COUNT>  (1) 
1

>  <PUBCHEM_CONFORMER_ID>  (1) 
00009BDB00000003

>  <PUBCHEM_MMFF94_ENERGY>  (1) 
4.0066

>  <PUBCHEM_FEATURE_SELFOVERLAP>  (1) 
15.223

>  <PUBCHEM_SHAPE_FINGERPRINT>  (1) 
12716758 59 18341612603399830050
12932741 1 17775007920799199564
12932764 1 18340778138767798362
14390081 3 18411979157133811848
16714656 1 18410577322578540411
19973954 147 18338518672248059764
20096714 4 18116996581038270881
20653085 51 18263660497423804424
21040471 1 18338793395050410323
23552449 1 18267584787350973852
29004967 10 16558203716628998602

>  <PUBCHEM_SHAPE_MULTIPOLES>  (1) 
150
3.83
1.75
0.8
3.98
0.09
-0.02
-1.2
0.27
-1.43
0.05
0.06
0.02
-0.01

>  <PUBCHEM_SHAPE_SELFOVERLAP>  (1) 
248.412

>  <PUBCHEM_SHAPE_VOLUME>  (1) 
104.2

>  <PUBCHEM_COORDINATE_TYPE>  (1) 
2
5
10

$$$$
