39891
     RDKit          3D

 12 13  0  0  0  0  0  0  0  0999 V2000
    1.9575    0.0000    0.0987 P   0  0  0  0  0  0  0  0  0  0  0  0
    1.3278   -1.2608   -0.7022 O   0  0  0  0  0  0  0  0  0  0  0  0
    1.3278    1.2609   -0.7022 O   0  0  0  0  0  0  0  0  0  0  0  0
    1.0913   -0.0001    1.4688 O   0  0  0  0  0  0  0  0  0  0  0  0
    3.4468   -0.0001    0.2609 O   0  0  0  0  0  0  0  0  0  0  0  0
   -0.7155    0.0001   -0.1926 C   0  0  0  0  0  0  0  0  0  0  0  0
   -2.2347    0.0000   -0.3582 C   0  0  0  0  0  0  0  0  0  0  0  0
   -0.0943   -1.2556   -0.8542 C   0  0  0  0  0  0  0  0  0  0  0  0
   -0.0943    1.2557   -0.8542 C   0  0  0  0  0  0  0  0  0  0  0  0
   -0.3298    0.0000    1.3079 C   0  0  0  0  0  0  0  0  0  0  0  0
   -2.8412   -1.2554    0.2636 C   0  0  0  0  0  0  0  0  0  0  0  0
   -2.8414    1.2553    0.2637 C   0  0  0  0  0  0  0  0  0  0  0  0
  1  2  1  0
  1  3  1  0
  1  4  1  0
  1  5  2  0
  2  8  1  0
  3  9  1  0
  4 10  1  0
  6  7  1  0
  6  8  1  0
  6  9  1  0
  6 10  1  0
  7 11  1  0
  7 12  1  0
M  END
>  <PUBCHEM_COMPOUND_CID>  (1) 
39891

>  <PUBCHEM_CONFORMER_RMSD>  (1) 
0.6

>  <PUBCHEM_CONFORMER_DIVERSEORDER>  (1) 
1

>  <PUBCHEM_MMFF94_PARTIAL_CHARGES>  (1) 
8
1 1.51
10 0.28
2 -0.55
3 -0.55
4 -0.55
5 -0.7
8 0.28
9 0.28

>  <PUBCHEM_EFFECTIVE_ROTOR_COUNT>  (1) 
2.2

>  <PUBCHEM_PHARMACOPHORE_FEATURES>  (1) 
3
1 5 acceptor
3 7 11 12 hydrophobe
8 1 2 3 4 6 8 9 10 rings

>  <PUBCHEM_HEAVY_ATOM_COUNT>  (1) 
12

>  <PUBCHEM_ATOM_DEF_STEREO_COUNT>  (1) 
0

>  <PUBCHEM_ATOM_UDEF_STEREO_COUNT>  (1) 
0

>  <PUBCHEM_BOND_DEF_STEREO_COUNT>  (1) 
0

>  <PUBCHEM_BOND_UDEF_STEREO_COUNT>  (1) 
0

>  <PUBCHEM_ISOTOPIC_ATOM_COUNT>  (1) 
0

>  <PUBCHEM_COMPONENT_COUNT>  (1) 
1

>  <PUBCHEM_CACTVS_TAUTO_COUNT>  (1) 
1

>  <PUBCHEM_CONFORMER_ID>  (1) 
00009BD300000001

>  <PUBCHEM_MMFF94_ENERGY>  (1) 
37.4877

>  <PUBCHEM_FEATURE_SELFOVERLAP>  (1) 
15.223

>  <PUBCHEM_SHAPE_FINGERPRINT>  (1) 
10219947 1 18410291410721148110
12423570 1 9190420493746038498
12491281 212 18337969908149539617
12932764 1 17203324529022024189
13024252 1 15864065455950807164
14993402 34 18408882975117842502
15775835 57 17346877836696823469
16945 1 18410580582305614005
20653091 64 17822578321007280093
21040471 1 18131347544206053095
23235685 24 18341887463826269877
23402539 116 18337942442566541253
2748010 2 18270691856950699375
29004967 10 18410297994858604959
369184 2 17530678801396648564
5084963 1 18343023328157446491
528886 8 18411416181136039901
68250623 7 17752779196730072022

>  <PUBCHEM_SHAPE_MULTIPOLES>  (1) 
227.33
4.03
1.37
1.12
0.08
0
0.26
0
0.44
-0.49
-0.31
0.16
0
0

>  <PUBCHEM_SHAPE_SELFOVERLAP>  (1) 
456.511

>  <PUBCHEM_SHAPE_VOLUME>  (1) 
137.1

>  <PUBCHEM_COORDINATE_TYPE>  (1) 
2
5
10

$$$$
