39892
     RDKit          3D

 15 15  0  0  0  0  0  0  0  0999 V2000
    0.8228   -0.0382    0.4750 N   0  0  0  0  0  0  0  0  0  0  0  0
    3.0940   -0.1117   -0.3293 N   0  0  0  0  0  0  0  0  0  0  0  0
   -1.1412    1.2235   -0.1723 C   0  0  0  0  0  0  0  0  0  0  0  0
   -1.2135   -1.1912   -0.1507 C   0  0  0  0  0  0  0  0  0  0  0  0
   -0.5156   -0.0018    0.0483 C   0  0  0  0  0  0  0  0  0  0  0  0
   -0.4141    2.5117    0.0365 C   0  0  0  0  0  0  0  0  0  0  0  0
   -0.5643   -2.5168    0.0804 C   0  0  0  0  0  0  0  0  0  0  0  0
   -2.4705    1.2596   -0.5937 C   0  0  0  0  0  0  0  0  0  0  0  0
   -2.5427   -1.1552   -0.5721 C   0  0  0  0  0  0  0  0  0  0  0  0
   -3.1712    0.0703   -0.7936 C   0  0  0  0  0  0  0  0  0  0  0  0
   -0.5587    3.0325    1.4631 C   0  0  0  0  0  0  0  0  0  0  0  0
   -0.7391   -3.0038    1.5155 C   0  0  0  0  0  0  0  0  0  0  0  0
    1.7176   -0.0723   -0.4623 C   0  0  0  0  0  0  0  0  0  0  0  0
    3.9610   -0.1446   -1.4986 C   0  0  0  0  0  0  0  0  0  0  0  0
    3.7355    0.1379    0.9538 C   0  0  0  0  0  0  0  0  0  0  0  0
  1  5  1  0
  1 13  2  0
  2 13  1  0
  2 14  1  0
  2 15  1  0
  3  5  2  0
  3  6  1  0
  3  8  1  0
  4  5  1  0
  4  7  1  0
  4  9  2  0
  6 11  1  0
  7 12  1  0
  8 10  2  0
  9 10  1  0
M  END
>  <PUBCHEM_COMPOUND_CID>  (1) 
39892

>  <PUBCHEM_CONFORMER_RMSD>  (1) 
0.6

>  <PUBCHEM_CONFORMER_DIVERSEORDER>  (1) 
1
5
9
8
2
7
3
6
4

>  <PUBCHEM_MMFF94_PARTIAL_CHARGES>  (1) 
17
1 -0.63
10 -0.15
13 0.44
14 0.37
15 0.37
2 -0.79
20 0.15
21 0.15
22 0.15
29 0.06
3 -0.14
4 -0.14
5 0.18
6 0.14
7 0.14
8 -0.15
9 -0.15

>  <PUBCHEM_EFFECTIVE_ROTOR_COUNT>  (1) 
4

>  <PUBCHEM_PHARMACOPHORE_FEATURES>  (1) 
4
1 11 hydrophobe
1 12 hydrophobe
3 1 2 13 cation
6 3 4 5 8 9 10 rings

>  <PUBCHEM_HEAVY_ATOM_COUNT>  (1) 
15

>  <PUBCHEM_ATOM_DEF_STEREO_COUNT>  (1) 
0

>  <PUBCHEM_ATOM_UDEF_STEREO_COUNT>  (1) 
0

>  <PUBCHEM_BOND_DEF_STEREO_COUNT>  (1) 
0

>  <PUBCHEM_BOND_UDEF_STEREO_COUNT>  (1) 
0

>  <PUBCHEM_ISOTOPIC_ATOM_COUNT>  (1) 
0

>  <PUBCHEM_COMPONENT_COUNT>  (1) 
1

>  <PUBCHEM_CACTVS_TAUTO_COUNT>  (1) 
1

>  <PUBCHEM_CONFORMER_ID>  (1) 
00009BD400000001

>  <PUBCHEM_MMFF94_ENERGY>  (1) 
35.1619

>  <PUBCHEM_FEATURE_SELFOVERLAP>  (1) 
20.297

>  <PUBCHEM_SHAPE_FINGERPRINT>  (1) 
108231 29 18340766039470528585
11680986 33 17760644068302927331
14614273 12 18044647603650476213
15490181 7 17692825791126517089
16945 1 18186799218377077159
193761 8 17761204819079839495
20510252 161 18413105039623363168
20600515 1 18264750199394087168
20645476 183 17821732744931194854
20871999 31 18337393841407902479
21029758 11 18200018664216705093
21524375 3 17693109469595634464
23402539 116 18269819987253139020
23557571 272 18341897454585059400
23558518 356 18123761850393462990
23559900 14 18342733001949263188
2748010 2 17614835649363126063
3250762 1 17761488493053418953
353137 74 18195242226644026765
43471831 8 18189609449992101859
568465 68 18117024189694581801
7364860 26 17696747040617806585
81228 2 18342749489711982472

>  <PUBCHEM_SHAPE_MULTIPOLES>  (1) 
298.73
5.24
3.14
1.26
5.96
0.09
0.22
-0.15
-1.94
-1.82
1.78
0.47
-0.04
0.2

>  <PUBCHEM_SHAPE_SELFOVERLAP>  (1) 
600.684

>  <PUBCHEM_SHAPE_VOLUME>  (1) 
176.7

>  <PUBCHEM_COORDINATE_TYPE>  (1) 
2
5
10

$$$$
