399
     RDKit          3D

 13 12  0  0  0  0  0  0  0  0999 V2000
   -0.5045    2.5477   -1.2445 O   0  0  0  0  0  0  0  0  0  0  0  0
   -0.5570    2.7565    1.0354 O   0  0  0  0  0  0  0  0  0  0  0  0
   -3.4724   -1.5704    0.5564 O   0  0  0  0  0  0  0  0  0  0  0  0
    3.9977   -0.0786    0.0971 O   0  0  0  0  0  0  0  0  0  0  0  0
   -1.6041   -2.2736   -0.5389 O   0  0  0  0  0  0  0  0  0  0  0  0
    2.7310   -1.9754    0.0533 O   0  0  0  0  0  0  0  0  0  0  0  0
   -0.7382    0.6088   -0.0064 C   0  0  0  0  0  0  0  0  0  0  0  0
    0.4504   -0.2336    0.0138 C   0  0  0  0  0  0  0  0  0  0  0  0
   -1.9706    0.0695   -0.0402 C   0  0  0  0  0  0  0  0  0  0  0  0
    1.7156    0.2102    0.0476 C   0  0  0  0  0  0  0  0  0  0  0  0
   -0.5957    2.0794    0.0213 C   0  0  0  0  0  0  0  0  0  0  0  0
   -2.2809   -1.3806   -0.0605 C   0  0  0  0  0  0  0  0  0  0  0  0
    2.8287   -0.7600    0.0657 C   0  0  0  0  0  0  0  0  0  0  0  0
  1 11  1  0
  2 11  2  0
  3 12  1  0
  4 13  1  0
  5 12  2  0
  6 13  2  0
  7  8  1  0
  7  9  2  0
  7 11  1  0
  8 10  2  0
  9 12  1  0
 10 13  1  0
M  END
>  <PUBCHEM_COMPOUND_CID>  (1) 
399

>  <PUBCHEM_CONFORMER_RMSD>  (1) 
0.6

>  <PUBCHEM_CONFORMER_DIVERSEORDER>  (1) 
1
8
12
11
9
10
3
4
5
2
6
7

>  <PUBCHEM_MMFF94_PARTIAL_CHARGES>  (1) 
19
1 -0.65
10 -0.14
11 0.71
12 0.71
13 0.71
14 0.15
15 0.15
16 0.15
17 0.5
18 0.5
19 0.5
2 -0.57
3 -0.65
4 -0.65
5 -0.57
6 -0.57
7 0.01
8 -0.15
9 -0.14

>  <PUBCHEM_EFFECTIVE_ROTOR_COUNT>  (1) 
4

>  <PUBCHEM_PHARMACOPHORE_FEATURES>  (1) 
9
1 1 acceptor
1 2 acceptor
1 3 acceptor
1 4 acceptor
1 5 acceptor
1 6 acceptor
3 1 2 11 anion
3 3 5 12 anion
3 4 6 13 anion

>  <PUBCHEM_HEAVY_ATOM_COUNT>  (1) 
13

>  <PUBCHEM_ATOM_DEF_STEREO_COUNT>  (1) 
0

>  <PUBCHEM_ATOM_UDEF_STEREO_COUNT>  (1) 
0

>  <PUBCHEM_BOND_DEF_STEREO_COUNT>  (1) 
0

>  <PUBCHEM_BOND_UDEF_STEREO_COUNT>  (1) 
2

>  <PUBCHEM_ISOTOPIC_ATOM_COUNT>  (1) 
0

>  <PUBCHEM_COMPONENT_COUNT>  (1) 
1

>  <PUBCHEM_CACTVS_TAUTO_COUNT>  (1) 
1

>  <PUBCHEM_CONFORMER_ID>  (1) 
0000018F00000001

>  <PUBCHEM_MMFF94_ENERGY>  (1) 
34.4675

>  <PUBCHEM_FEATURE_SELFOVERLAP>  (1) 
45.841

>  <PUBCHEM_SHAPE_FINGERPRINT>  (1) 
1 1 17401766818417759445
19021347 4 17619914958985610881
20645477 70 17614548668550169383
20711985 344 18263343829379542961
20711985 365 18337952285819180549
20871998 184 18272370832528058383
21296965 67 18336264625976223923
23500284 5 18408326553388409371
23557571 272 18341903982771527076
23598294 1 18339925896522505794
25610 137 18337675312416686420
2748010 2 18339065090507972245
7364860 26 17909267227997745169
81228 2 18336831883528648737

>  <PUBCHEM_SHAPE_MULTIPOLES>  (1) 
232.32
4.89
2.84
0.78
3.34
1.33
-0.05
-3.51
0.47
-1.38
-0.09
-0.19
0.36
0.04

>  <PUBCHEM_SHAPE_SELFOVERLAP>  (1) 
466.67

>  <PUBCHEM_SHAPE_VOLUME>  (1) 
135.2

>  <PUBCHEM_COORDINATE_TYPE>  (1) 
2
5
10

$$$$
