39913
     RDKit          3D

 11 10  0  0  0  0  0  0  0  0999 V2000
    3.0429   -0.1226    0.0040 O   0  0  0  0  0  0  0  0  0  0  0  0
    0.6845   -1.3934    0.0171 O   0  0  0  0  0  0  0  0  0  0  0  0
   -1.8961   -0.3263   -0.0412 C   0  0  0  0  0  0  0  0  0  0  0  0
   -3.2019    0.4691   -0.0156 C   0  0  0  0  0  0  0  0  0  0  0  0
   -0.6815    0.5983   -0.0089 C   0  0  0  0  0  0  0  0  0  0  0  0
   -4.4174   -0.4575   -0.0143 C   0  0  0  0  0  0  0  0  0  0  0  0
    0.6327   -0.1646    0.0053 C   0  0  0  0  0  0  0  0  0  0  0  0
   -5.7173    0.3289    0.0449 C   0  0  0  0  0  0  0  0  0  0  0  0
    1.8866    0.6877    0.0035 C   0  0  0  0  0  0  0  0  0  0  0  0
    4.2364    0.6552    0.0023 C   0  0  0  0  0  0  0  0  0  0  0  0
    5.4310   -0.2747    0.0029 C   0  0  0  0  0  0  0  0  0  0  0  0
  1  9  1  0
  1 10  1  0
  2  7  2  0
  3  4  1  0
  3  5  1  0
  4  6  1  0
  5  7  1  0
  6  8  1  0
  7  9  1  0
 10 11  1  0
M  END
>  <PUBCHEM_COMPOUND_CID>  (1) 
39913

>  <PUBCHEM_CONFORMER_RMSD>  (1) 
0.8

>  <PUBCHEM_CONFORMER_DIVERSEORDER>  (1) 
1
23
70
36
93
141
157
37
149
138
156
51
16
48
2
112
11
64
26
131
118
133
154
5
60
89
142
106
58
109
129
107
145
7
34
135
4
55
25
111
115
94
136
30
32
127
22
38
151
97
117
28
67
53
20
59
45
128
3
114
12
122
88
148
92
116
82
90
132
6
139
46
69
81
31
110
77
75
125
124
35
39
63
73
119
87
9
152
10
126
103
15
42
40
155
61
84
17
74
62
56
44
143
43
65
78
79
86
153
101
54
140
99
150
68
19
24
8
120
123
108
13
50
18
144
41
121
100
57
146
98
66
104
80
95
52
105
85
83
113
14
102
76
134
49
72
47
71
147
27
91
21
29
137
130
33
158
96

>  <PUBCHEM_MMFF94_PARTIAL_CHARGES>  (1) 
6
1 -0.56
10 0.28
2 -0.57
5 0.06
7 0.45
9 0.34

>  <PUBCHEM_EFFECTIVE_ROTOR_COUNT>  (1) 
7

>  <PUBCHEM_PHARMACOPHORE_FEATURES>  (1) 
4
1 1 acceptor
1 2 acceptor
1 8 hydrophobe
4 3 4 5 6 hydrophobe

>  <PUBCHEM_HEAVY_ATOM_COUNT>  (1) 
11

>  <PUBCHEM_ATOM_DEF_STEREO_COUNT>  (1) 
0

>  <PUBCHEM_ATOM_UDEF_STEREO_COUNT>  (1) 
0

>  <PUBCHEM_BOND_DEF_STEREO_COUNT>  (1) 
0

>  <PUBCHEM_BOND_UDEF_STEREO_COUNT>  (1) 
0

>  <PUBCHEM_ISOTOPIC_ATOM_COUNT>  (1) 
0

>  <PUBCHEM_COMPONENT_COUNT>  (1) 
1

>  <PUBCHEM_CACTVS_TAUTO_COUNT>  (1) 
3

>  <PUBCHEM_CONFORMER_ID>  (1) 
00009BE900000001

>  <PUBCHEM_MMFF94_ENERGY>  (1) 
2.9976

>  <PUBCHEM_FEATURE_SELFOVERLAP>  (1) 
20.305

>  <PUBCHEM_SHAPE_FINGERPRINT>  (1) 
11062470 55 16877942745894794153
11287383 113 15267054887016465274
11401426 45 18343300379238610501
114248 4 11743840265782462661
12815109 37 9583520914665684585
14123238 8 18411700993186314413
17834072 33 17274535529218970869
17834076 25 17022621974919578633
187816 3 17131836477538412562
20645477 70 18129666292586515502
20719005 15 18410292514490910725
23402539 116 17847055593241225421
23402655 69 18342734079769978165
23557571 272 17313100805052802645
366044 4 18411136952686038610
42788 4 18411136943995617317
8209 1 18411138039323008692

>  <PUBCHEM_SHAPE_MULTIPOLES>  (1) 
214.64
12.56
0.92
0.6
1.18
0.11
0
-0.54
0.11
-0.13
0
0.03
-0.01
-0.01

>  <PUBCHEM_SHAPE_SELFOVERLAP>  (1) 
386.432

>  <PUBCHEM_SHAPE_VOLUME>  (1) 
138.6

>  <PUBCHEM_COORDINATE_TYPE>  (1) 
2
5
10

$$$$
