39911
     RDKit          3D

 24 25  0  0  0  0  0  0  0  0999 V2000
    3.9749    0.3387   -0.4153 O   0  0  0  0  0  0  0  0  0  0  0  0
    1.7255    0.4204   -1.2779 O   0  0  0  0  0  0  0  0  0  0  0  0
   -1.5321   -1.3015    0.5370 O   0  0  0  0  0  0  0  0  0  0  0  0
    1.0674   -2.1657   -0.0586 O   0  0  0  0  0  0  0  0  0  0  0  0
    3.1082   -2.3334    1.0047 O   0  0  0  0  0  0  0  0  0  0  0  0
   -4.7540    0.2035   -0.4038 N   0  0  0  0  0  0  0  0  0  0  0  0
    3.0558   -0.1333   -1.4312 C   0  0  0  0  0  0  0  0  0  0  0  0
    2.9599   -1.6549   -1.3254 C   0  0  0  0  0  0  0  0  0  0  0  0
    3.5957    0.2804   -2.7996 C   0  0  0  0  0  0  0  0  0  0  0  0
    3.1699    1.1587    0.3159 C   0  0  0  0  0  0  0  0  0  0  0  0
    1.8860    1.2054   -0.1766 C   0  0  0  0  0  0  0  0  0  0  0  0
   -3.3310    0.1367   -0.1061 C   0  0  0  0  0  0  0  0  0  0  0  0
   -5.1355    1.5586   -0.8090 C   0  0  0  0  0  0  0  0  0  0  0  0
   -5.5463   -0.2197    0.7534 C   0  0  0  0  0  0  0  0  0  0  0  0
   -2.9277   -1.2796    0.2722 C   0  0  0  0  0  0  0  0  0  0  0  0
    2.4294   -2.0897    0.0166 C   0  0  0  0  0  0  0  0  0  0  0  0
    3.5477    1.8812    1.4287 C   0  0  0  0  0  0  0  0  0  0  0  0
    0.9083    1.9774    0.4162 C   0  0  0  0  0  0  0  0  0  0  0  0
   -1.0905   -2.6045    0.8981 C   0  0  0  0  0  0  0  0  0  0  0  0
    0.4055   -2.5696    1.1444 C   0  0  0  0  0  0  0  0  0  0  0  0
   -4.3269    2.0211   -2.0091 C   0  0  0  0  0  0  0  0  0  0  0  0
   -7.0311   -0.2200    0.4318 C   0  0  0  0  0  0  0  0  0  0  0  0
    2.5765    2.6709    2.0486 C   0  0  0  0  0  0  0  0  0  0  0  0
    1.2644    2.7187    1.5453 C   0  0  0  0  0  0  0  0  0  0  0  0
  1  7  1  0
  1 10  1  0
  2  7  1  0
  2 11  1  0
  3 15  1  0
  3 19  1  0
  4 16  1  0
  4 20  1  0
  5 16  2  0
  6 12  1  0
  6 13  1  0
  6 14  1  0
  7  8  1  0
  7  9  1  0
  8 16  1  0
 10 11  2  0
 10 17  1  0
 11 18  1  0
 12 15  1  0
 13 21  1  0
 14 22  1  0
 17 23  2  0
 18 24  2  0
 19 20  1  0
 23 24  1  0
M  END
>  <PUBCHEM_COMPOUND_CID>  (1) 
39911

>  <PUBCHEM_CONFORMER_RMSD>  (1) 
1.2

>  <PUBCHEM_CONFORMER_DIVERSEORDER>  (1) 
1
99
135
8
140
46
138
18
17
58
80
110
94
57
31
124
109
75
157
151
53
160
59
158
142
130
166
120
81
63
144
2
114
161
32
113
145
7
72
10
106
136
50
133
123
125
95
19
93
23
78
61
150
71
9
98
103
43
49
84
28
108
167
48
115
132
126
30
153
73
122
148
42
127
87
101
139
15
111
156
38
79
146
86
134
70
56
129
16
105
3
35
147
21
54
83
5
25
112
128
102
91
47
40
116
141
12
96
22
26
119
162
131
36
34
20
143
104
6
55
39
152
67
89
74
107
24
90
4
27
37
154
60
76
168
64
118
33
92
82
11
41
117
62
69
121
52
85
66
45
88
163
13
44
164
68
51
77
137
14
65
165
100
97
29
155
159
149

>  <PUBCHEM_MMFF94_PARTIAL_CHARGES>  (1) 
25
1 -0.36
10 0.08
11 0.08
12 0.27
13 0.27
14 0.27
15 0.28
16 0.66
17 -0.15
18 -0.15
19 0.28
2 -0.36
20 0.28
23 -0.15
24 -0.15
3 -0.56
38 0.15
39 0.15
4 -0.43
5 -0.57
50 0.15
51 0.15
6 -0.81
7 0.56
8 0.06

>  <PUBCHEM_EFFECTIVE_ROTOR_COUNT>  (1) 
11.6

>  <PUBCHEM_PHARMACOPHORE_FEATURES>  (1) 
7
1 1 acceptor
1 2 acceptor
1 3 acceptor
1 5 acceptor
1 6 cation
5 1 2 7 10 11 rings
6 10 11 17 18 23 24 rings

>  <PUBCHEM_HEAVY_ATOM_COUNT>  (1) 
24

>  <PUBCHEM_ATOM_DEF_STEREO_COUNT>  (1) 
0

>  <PUBCHEM_ATOM_UDEF_STEREO_COUNT>  (1) 
0

>  <PUBCHEM_BOND_DEF_STEREO_COUNT>  (1) 
0

>  <PUBCHEM_BOND_UDEF_STEREO_COUNT>  (1) 
0

>  <PUBCHEM_ISOTOPIC_ATOM_COUNT>  (1) 
0

>  <PUBCHEM_COMPONENT_COUNT>  (1) 
1

>  <PUBCHEM_CACTVS_TAUTO_COUNT>  (1) 
1

>  <PUBCHEM_CONFORMER_ID>  (1) 
00009BE700000001

>  <PUBCHEM_MMFF94_ENERGY>  (1) 
44.8213

>  <PUBCHEM_FEATURE_SELFOVERLAP>  (1) 
35.676

>  <PUBCHEM_SHAPE_FINGERPRINT>  (1) 
10764073 3 18193528187512455864
11595378 159 14924224868617390341
12769317 202 18189892024707254455
13402501 40 18410292540361136281
13617811 41 17894910763800128133
13726171 33 17388850713613778141
14251757 17 18342738524887179897
14347329 18 17968110745000455182
14931854 50 18339939120631916765
15210252 30 17968956286891733540
17093844 170 18408037429381100680
18608769 82 18190193462855461539
19752476 56 18060138764523107561
20645477 70 17775007920261480325
21033648 29 18260544520563411861
221357 26 18343028757333660381
23419403 2 17900225708303316190
495365 180 18130784594258049490
508706 21 18190180264352356563
513532 50 17846777421131373042
574716 61 17631719552667055765
7808743 9 17824276001204253990

>  <PUBCHEM_SHAPE_MULTIPOLES>  (1) 
459.58
12.16
3.38
1.96
24.6
0.33
-0.94
-2.9
-2.03
-2.2
1.66
-1.65
-0.82
2.6

>  <PUBCHEM_SHAPE_SELFOVERLAP>  (1) 
940.698

>  <PUBCHEM_SHAPE_VOLUME>  (1) 
267.7

>  <PUBCHEM_COORDINATE_TYPE>  (1) 
2
5
10

$$$$
