39926
     RDKit          3D

 18 19  0  0  1  0  0  0  0  0999 V2000
    1.3909    0.5988    1.8606 O   0  0  0  0  0  0  0  0  0  0  0  0
   -2.6095    0.3039    0.1720 N   0  0  0  0  0  0  0  0  0  0  0  0
   -3.4139   -0.9241    0.0245 C   0  0  0  0  0  0  0  0  0  0  0  0
   -4.8757   -0.6357    0.4168 C   0  0  0  0  0  0  0  0  0  0  0  0
   -3.1202    1.4331   -0.6134 C   0  0  0  0  0  0  0  0  0  0  0  0
   -5.4687    0.5365   -0.3593 C   0  0  0  0  0  0  0  0  0  0  0  0
   -4.5671    1.7591   -0.2430 C   0  0  0  0  0  0  0  0  0  0  0  0
   -1.1867    0.0914   -0.0781 C   0  0  0  0  0  0  0  0  0  0  0  0
   -3.3371   -1.5955   -1.3556 C   0  0  0  0  0  0  0  0  0  0  0  0
   -0.6703   -1.0766    0.7645 C   0  0  0  0  0  0  0  0  0  0  0  0
    0.8215   -1.3396    0.5403 C   0  0  0  0  0  0  0  0  0  0  0  0
    1.7100   -0.1787    0.9640 C   0  0  0  0  0  0  0  0  0  0  0  0
    3.0213    0.0041    0.2787 C   0  0  0  0  0  0  0  0  0  0  0  0
    3.6735   -1.1071   -0.2068 C   0  0  0  0  0  0  0  0  0  0  0  0
    3.5312    1.2773    0.1562 C   0  0  0  0  0  0  0  0  0  0  0  0
    4.9003   -0.9363   -0.8483 C   0  0  0  0  0  0  0  0  0  0  0  0
    4.7580    1.4480   -0.4854 C   0  0  0  0  0  0  0  0  0  0  0  0
    5.4425    0.3412   -0.9877 C   0  0  0  0  0  0  0  0  0  0  0  0
  1 12  2  0
  2  3  1  0
  2  5  1  0
  2  8  1  0
  3  4  1  0
  3  9  1  0
  4  6  1  0
  5  7  1  0
  6  7  1  0
  8 10  1  0
 10 11  1  0
 11 12  1  0
 12 13  1  0
 13 14  2  0
 13 15  1  0
 14 16  1  0
 15 17  2  0
 16 18  2  0
 17 18  1  0
M  END
>  <PUBCHEM_COMPOUND_CID>  (1) 
39926

>  <PUBCHEM_CONFORMER_RMSD>  (1) 
0.8

>  <PUBCHEM_CONFORMER_DIVERSEORDER>  (1) 
8
115
171
70
59
9
163
108
174
53
176
141
148
65
122
23
111
161
104
81
17
179
14
113
102
155
165
158
169
116
42
151
160
69
159
154
21
131
94
147
30
175
47
45
180
99
167
182
75
97
143
128
54
96
73
149
146
106
25
183
164
19
7
93
49
139
16
162
76
181
82
6
89
118
157
58
32
133
60
138
130
13
1
124
142
51
66
178
144
50
55
57
103
5
74
127
22
136
126
170
46
173
11
26
61
114
87
24
117
137
64
184
56
156
172
52
153
80
145
20
112
84
105
125
107
35
43
98
38
166
10
110
44
72
77
120
83
79
31
91
71
15
90
100
37
86
177
135
88
109
132
2
36
123
119
4
12
134
40
101
152
121
168
48
39
63
150
33
34
68
28
18
140
129
41
29
95
78
85
27
67
92
3
62

>  <PUBCHEM_MMFF94_PARTIAL_CHARGES>  (1) 
18
1 -0.57
11 0.06
12 0.42
13 0.09
14 -0.15
15 -0.15
16 -0.15
17 -0.15
18 -0.15
2 -0.81
3 0.27
37 0.15
38 0.15
39 0.15
40 0.15
41 0.15
5 0.27
8 0.27

>  <PUBCHEM_EFFECTIVE_ROTOR_COUNT>  (1) 
6.2

>  <PUBCHEM_PHARMACOPHORE_FEATURES>  (1) 
4
1 1 acceptor
1 2 cation
6 13 14 15 16 17 18 rings
6 2 3 4 5 6 7 rings

>  <PUBCHEM_HEAVY_ATOM_COUNT>  (1) 
18

>  <PUBCHEM_ATOM_DEF_STEREO_COUNT>  (1) 
0

>  <PUBCHEM_ATOM_UDEF_STEREO_COUNT>  (1) 
1

>  <PUBCHEM_BOND_DEF_STEREO_COUNT>  (1) 
0

>  <PUBCHEM_BOND_UDEF_STEREO_COUNT>  (1) 
0

>  <PUBCHEM_ISOTOPIC_ATOM_COUNT>  (1) 
0

>  <PUBCHEM_COMPONENT_COUNT>  (1) 
1

>  <PUBCHEM_CACTVS_TAUTO_COUNT>  (1) 
2

>  <PUBCHEM_CONFORMER_ID>  (1) 
00009BF600000008

>  <PUBCHEM_MMFF94_ENERGY>  (1) 
31.3395

>  <PUBCHEM_FEATURE_SELFOVERLAP>  (1) 
20.297

>  <PUBCHEM_SHAPE_FINGERPRINT>  (1) 
10498660 4 18113891628763094669
10670039 82 16515969156087702414
11128504 68 18334857246649990950
12390115 104 18340775819718041433
12596602 18 9223228533602680862
12670546 177 18272090517429809982
12730499 353 18261402139132079938
12892183 10 10881396543542540678
12916748 109 18186524319116603002
13631057 29 16009887198169650043
13897977 58 18259984869039079885
14251752 14 18343584006537476478
14366163 111 18333450945798360016
14528608 73 18261109681649192759
14848160 23 10303813163917915057
15183329 4 17917437496887304824
15188451 53 10591749962118214925
15885798 251 12247683764124258866
17834072 33 18411419522631126244
17834072 8 17203609285037406774
17844677 252 18410581690486602817
17857418 61 11095882653117749805
1813 80 14333131879542515024
18222031 100 13973970904803373800
193927 3 14548749438449269214
19489759 90 8070033259501792023
19784866 140 17489311853971283370
200 152 14908183044816986851
20325693 3 18059853974512152015
204376 136 14996285820502196153
20645477 70 18059585659326188702
20871999 31 18342452690149502311
21065199 12 10665218259596736702
21652331 79 18040150695529359677
221357 26 18343863307707159177
22289505 5 18411982447358445972
22646028 1 13830130593980327451
22854114 59 13984660347694285274
2297311 6 18343024398152896837
23253445 4 7853565795281373758
23402539 116 18408882940990180054
23402655 69 18413389821840689242
23559900 14 17131824413223263330
23590187 198 12103846756763857957
26918003 58 9007061248957487926
2838139 119 18188211035085613596
3004659 81 18272092652593370326
314173 85 14117804621802074858
32948 21 18131349687452775560
351380 3 14620799284202639180
42 15 10592044660871455371
474 4 17095249141592398772
4990 188 18342741801820508814
5281201 14 18411985754213972260
5374978 207 10881398738344766486
542803 24 17967813842670028503
543368 44 17968098667774237781
559249 180 12103853337033589581
59682541 52 17417800687501121085
59755656 520 17022623087284889226
633830 44 18260261945326038954
960060 61 17418378004230682996

>  <PUBCHEM_SHAPE_MULTIPOLES>  (1) 
359.58
13.79
1.67
1.12
0.53
0.22
0.11
2.9
-3.98
-0.55
-0.24
0.33
-0.14
0.02

>  <PUBCHEM_SHAPE_SELFOVERLAP>  (1) 
736.098

>  <PUBCHEM_SHAPE_VOLUME>  (1) 
207.4

>  <PUBCHEM_COORDINATE_TYPE>  (1) 
2
5
10

$$$$
