39930
     RDKit          3D

 25 28  0  0  0  0  0  0  0  0999 V2000
   -6.0032    0.0004   -0.3261 O   0  0  0  0  0  0  0  0  0  0  0  0
   -5.3966   -0.0024    1.8944 O   0  0  0  0  0  0  0  0  0  0  0  0
    0.2151    0.0005   -1.2574 N   0  0  0  0  0  0  0  0  0  0  0  0
    3.9332   -0.0006    0.6777 N   0  0  0  0  0  0  0  0  0  0  0  0
    1.4759    0.0000   -0.6011 C   0  0  0  0  0  0  0  0  0  0  0  0
    2.0906   -1.2149   -0.2813 C   0  0  0  0  0  0  0  0  0  0  0  0
    2.0911    1.2145   -0.2810 C   0  0  0  0  0  0  0  0  0  0  0  0
    3.3363   -1.1676    0.3671 C   0  0  0  0  0  0  0  0  0  0  0  0
    3.3368    1.1667    0.3673 C   0  0  0  0  0  0  0  0  0  0  0  0
    1.4953   -2.4500   -0.5913 C   0  0  0  0  0  0  0  0  0  0  0  0
    1.4963    2.4500   -0.5907 C   0  0  0  0  0  0  0  0  0  0  0  0
   -1.0997    0.0016   -0.7737 C   0  0  0  0  0  0  0  0  0  0  0  0
    3.9534   -2.3738    0.6882 C   0  0  0  0  0  0  0  0  0  0  0  0
    3.9544    2.3725    0.6887 C   0  0  0  0  0  0  0  0  0  0  0  0
    2.1330   -3.6416   -0.2595 C   0  0  0  0  0  0  0  0  0  0  0  0
    2.1344    3.6414   -0.2586 C   0  0  0  0  0  0  0  0  0  0  0  0
    3.3646   -3.6031    0.3815 C   0  0  0  0  0  0  0  0  0  0  0  0
    3.3660    3.6021    0.3825 C   0  0  0  0  0  0  0  0  0  0  0  0
   -1.3464    0.0014    0.6041 C   0  0  0  0  0  0  0  0  0  0  0  0
   -2.1800    0.0014   -1.6634 C   0  0  0  0  0  0  0  0  0  0  0  0
   -3.7269    0.0007    0.1924 C   0  0  0  0  0  0  0  0  0  0  0  0
   -2.6555    0.0009    1.0856 C   0  0  0  0  0  0  0  0  0  0  0  0
   -3.4892    0.0010   -1.1820 C   0  0  0  0  0  0  0  0  0  0  0  0
   -5.0920   -0.0010    0.6945 C   0  0  0  0  0  0  0  0  0  0  0  0
   -7.3868    0.0002    0.0420 C   0  0  0  0  0  0  0  0  0  0  0  0
  1 24  1  0
  1 25  1  0
  2 24  2  0
  3  5  1  0
  3 12  1  0
  4  8  2  0
  4  9  1  0
  5  6  2  0
  5  7  1  0
  6  8  1  0
  6 10  1  0
  7  9  2  0
  7 11  1  0
  8 13  1  0
  9 14  1  0
 10 15  2  0
 11 16  2  0
 12 19  2  0
 12 20  1  0
 13 17  2  0
 14 18  2  0
 15 17  1  0
 16 18  1  0
 19 22  1  0
 20 23  2  0
 21 22  2  0
 21 23  1  0
 21 24  1  0
M  END
>  <PUBCHEM_COMPOUND_CID>  (1) 
39930

>  <PUBCHEM_CONFORMER_RMSD>  (1) 
0.8

>  <PUBCHEM_CONFORMER_DIVERSEORDER>  (1) 
2
6
4
8
5
3
7
1

>  <PUBCHEM_MMFF94_PARTIAL_CHARGES>  (1) 
36
1 -0.43
10 -0.15
11 -0.15
12 0.1
13 -0.15
14 -0.15
15 -0.15
16 -0.15
17 -0.15
18 -0.15
19 -0.15
2 -0.57
20 -0.15
21 0.09
22 -0.15
23 -0.15
24 0.63
25 0.28
26 0.4
27 0.15
28 0.15
29 0.15
3 -0.6
30 0.15
31 0.15
32 0.15
33 0.15
34 0.15
35 0.15
36 0.15
37 0.15
38 0.15
4 -0.62
5 0.1
8 0.31
9 0.31

>  <PUBCHEM_EFFECTIVE_ROTOR_COUNT>  (1) 
4

>  <PUBCHEM_PHARMACOPHORE_FEATURES>  (1) 
8
1 2 acceptor
1 3 cation
1 3 donor
1 4 acceptor
6 12 19 20 21 22 23 rings
6 4 5 6 7 8 9 rings
6 6 8 10 13 15 17 rings
6 7 9 11 14 16 18 rings

>  <PUBCHEM_HEAVY_ATOM_COUNT>  (1) 
25

>  <PUBCHEM_ATOM_DEF_STEREO_COUNT>  (1) 
0

>  <PUBCHEM_ATOM_UDEF_STEREO_COUNT>  (1) 
0

>  <PUBCHEM_BOND_DEF_STEREO_COUNT>  (1) 
0

>  <PUBCHEM_BOND_UDEF_STEREO_COUNT>  (1) 
0

>  <PUBCHEM_ISOTOPIC_ATOM_COUNT>  (1) 
0

>  <PUBCHEM_COMPONENT_COUNT>  (1) 
1

>  <PUBCHEM_CACTVS_TAUTO_COUNT>  (1) 
3

>  <PUBCHEM_CONFORMER_ID>  (1) 
00009BFA00000002

>  <PUBCHEM_MMFF94_ENERGY>  (1) 
103.7455

>  <PUBCHEM_FEATURE_SELFOVERLAP>  (1) 
40.658

>  <PUBCHEM_SHAPE_FINGERPRINT>  (1) 
10165383 225 18261680384810309884
10411042 1 18122905322726045518
1100329 8 18268140028645051530
114674 6 18113618949985051018
11582403 64 15946746604488057884
11640471 11 17846500391171545988
12107183 9 17981896242113333385
12236239 1 17704069620375468973
12553582 1 18268421340123433078
12633257 1 18114731737609342386
12730499 353 18335993063625653507
12788726 201 17182771079170741130
13140716 1 18266454498441033962
13533116 47 18408326566811160315
13583140 156 18336257943228521607
13785724 45 17912092642174559423
13911852 28 18048595923909630091
13955234 65 18410292523160038498
14790565 3 18410014373475283220
14955137 171 18411424977952307294
15142526 21 17912357937824862768
15475509 35 16806147888154944730
15475509 84 18057886840224715768
15842332 3 17845637257458734471
16992787 43 18412272731861239518
17138139 8 17051578914743658774
17844677 252 18339928117569372945
1813 80 17985557654399005198
19377110 9 17917158294829554419
1979834 28 18187929537927177989
20157964 124 18411699911624812525
20505436 4 17916868065902302004
20511986 3 17631718474403813621
20715895 44 17627521428421026401
20739085 24 18200036123322112414
21049683 271 18261401010103794262
21065201 7 16515679997087308015
21197605 99 18119534481799530803
21344244 78 18130494237178019697
21421861 104 18200884984557666416
21859007 373 17459453491344936901
2255824 54 18413670227666052966
23559900 14 18408325497105886427
23845131 108 18193272129371870690
244849 19 17823678820772745823
25147074 1 17845639456861856607
31174 14 18335700507744290478
3178227 256 18335136514799618504
3421961 26 18336827498546380850
38570 142 18128553741411739452
4340502 62 18338521940955367067
474 4 18341894151064073464
5104073 3 18338813260334386667
5309563 4 18049721815189751151
57527573 199 17128713989697842160
633830 44 18058453277907456364
6443956 14 18264205807962157614
8272917 22 18412826906083619076
86090 222 17459210507512296603
8988823 20 18410011022877753919
9841814 1 18339372855027241030

>  <PUBCHEM_SHAPE_MULTIPOLES>  (1) 
492.79
12.3
4
1.18
26.58
0
-0.02
0
3.52
-8.97
0.14
1.01
0
0

>  <PUBCHEM_SHAPE_SELFOVERLAP>  (1) 
1105.168

>  <PUBCHEM_SHAPE_VOLUME>  (1) 
260.3

>  <PUBCHEM_COORDINATE_TYPE>  (1) 
2
5
10

$$$$
