39933
     RDKit          3D

  9  8  0  0  1  0  0  0  0  0999 V2000
   -1.9816    2.1510    0.2195 S   0  0  0  0  0  0  0  0  0  0  0  0
   -1.7138   -1.4378    1.0599 O   0  0  0  0  0  0  0  0  0  0  0  0
   -1.4301   -1.2213   -1.1803 O   0  0  0  0  0  0  0  0  0  0  0  0
    3.2484   -0.2650    0.1705 O   0  0  0  0  0  0  0  0  0  0  0  0
    1.2174   -0.3632   -0.2209 N   0  0  0  0  0  0  0  0  0  0  0  0
    2.2225    0.4132    0.0549 N   0  0  0  0  0  0  0  0  0  0  0  0
   -0.0637    0.1362    0.2823 C   0  0  0  0  0  0  0  0  0  0  0  0
   -0.3807    1.4935   -0.3483 C   0  0  0  0  0  0  0  0  0  0  0  0
   -1.1183   -0.9066   -0.0377 C   0  0  0  0  0  0  0  0  0  0  0  0
  1  8  1  0
  2  9  1  0
  3  9  2  0
  4  6  2  0
  5  6  1  0
  5  7  1  0
  7  8  1  0
  7  9  1  0
M  END
>  <PUBCHEM_COMPOUND_CID>  (1) 
39933

>  <PUBCHEM_CONFORMER_RMSD>  (1) 
0.6

>  <PUBCHEM_CONFORMER_DIVERSEORDER>  (1) 
1
34
37
21
38
16
15
30
28
13
10
26
19
18
17
2
25
23
11
39
7
35
8
24
4
32
36
14
31
6
9
33
20
22
29
5
3
27
12

>  <PUBCHEM_MMFF94_PARTIAL_CHARGES>  (1) 
12
1 -0.41
13 0.36
14 0.18
15 0.5
2 -0.65
3 -0.57
4 -0.16
5 -0.45
6 -0.01
7 0.33
8 0.23
9 0.66

>  <PUBCHEM_EFFECTIVE_ROTOR_COUNT>  (1) 
4

>  <PUBCHEM_PHARMACOPHORE_FEATURES>  (1) 
4
1 2 acceptor
1 3 acceptor
1 5 donor
3 2 3 9 anion

>  <PUBCHEM_HEAVY_ATOM_COUNT>  (1) 
9

>  <PUBCHEM_ATOM_DEF_STEREO_COUNT>  (1) 
0

>  <PUBCHEM_ATOM_UDEF_STEREO_COUNT>  (1) 
1

>  <PUBCHEM_BOND_DEF_STEREO_COUNT>  (1) 
0

>  <PUBCHEM_BOND_UDEF_STEREO_COUNT>  (1) 
0

>  <PUBCHEM_ISOTOPIC_ATOM_COUNT>  (1) 
0

>  <PUBCHEM_COMPONENT_COUNT>  (1) 
1

>  <PUBCHEM_CACTVS_TAUTO_COUNT>  (1) 
2

>  <PUBCHEM_CONFORMER_ID>  (1) 
00009BFD00000001

>  <PUBCHEM_MMFF94_ENERGY>  (1) 
12.3626

>  <PUBCHEM_FEATURE_SELFOVERLAP>  (1) 
20.356

>  <PUBCHEM_SHAPE_FINGERPRINT>  (1) 
12932764 1 18060421339612832178
21040471 1 18193563259266263900
23552449 1 18342171172328678568
29004967 10 18118968232999086562
68250623 7 18052531076473333167

>  <PUBCHEM_SHAPE_MULTIPOLES>  (1) 
161.5
3.39
1.97
0.84
3.14
0.09
-0.04
1.06
0.35
-1.74
0.04
-0.34
-0.3
0

>  <PUBCHEM_SHAPE_SELFOVERLAP>  (1) 
294.79

>  <PUBCHEM_SHAPE_VOLUME>  (1) 
104.3

>  <PUBCHEM_COORDINATE_TYPE>  (1) 
2
5
10

$$$$
