39946
     RDKit          3D

 21 23  0  0  1  0  0  0  0  0999 V2000
   -7.4430    0.6232    0.1078 Br  0  0  0  0  0  0  0  0  0  0  0  0
   -0.9183   -1.3363    0.1861 O   0  0  0  0  0  0  0  0  0  0  0  0
    6.2754    1.2181    0.5070 O   0  0  0  0  0  0  0  0  0  0  0  0
    4.2428    1.3906    1.4943 O   0  0  0  0  0  0  0  0  0  0  0  0
   -0.4315    0.8158   -0.3320 N   0  0  0  0  0  0  0  0  0  0  0  0
    4.4971   -0.1472   -0.3863 C   0  0  0  0  0  0  0  0  0  0  0  0
    3.0590   -0.5154   -0.2221 C   0  0  0  0  0  0  0  0  0  0  0  0
    0.7330    0.0936   -0.2318 C   0  0  0  0  0  0  0  0  0  0  0  0
    2.0745    0.4689   -0.3921 C   0  0  0  0  0  0  0  0  0  0  0  0
    0.4390   -1.2243    0.0856 C   0  0  0  0  0  0  0  0  0  0  0  0
    2.7186   -1.8354    0.0983 C   0  0  0  0  0  0  0  0  0  0  0  0
    1.3852   -2.2263    0.2618 C   0  0  0  0  0  0  0  0  0  0  0  0
    4.8508    0.3715   -1.7940 C   0  0  0  0  0  0  0  0  0  0  0  0
   -1.3637   -0.0758   -0.0766 C   0  0  0  0  0  0  0  0  0  0  0  0
   -2.7904    0.0884   -0.0332 C   0  0  0  0  0  0  0  0  0  0  0  0
    4.9629    0.8902    0.6401 C   0  0  0  0  0  0  0  0  0  0  0  0
   -3.6148   -1.0010    0.2624 C   0  0  0  0  0  0  0  0  0  0  0  0
   -3.3625    1.3382   -0.2864 C   0  0  0  0  0  0  0  0  0  0  0  0
   -5.0000   -0.8419    0.3043 C   0  0  0  0  0  0  0  0  0  0  0  0
   -4.7477    1.4975   -0.2443 C   0  0  0  0  0  0  0  0  0  0  0  0
   -5.5664    0.4074    0.0510 C   0  0  0  0  0  0  0  0  0  0  0  0
  1 21  1  0
  2 10  1  0
  2 14  1  0
  3 16  1  0
  4 16  2  0
  5  8  1  0
  5 14  2  0
  6  7  1  0
  6 13  1  0
  6 16  1  0
  7  9  2  0
  7 11  1  0
  8  9  1  0
  8 10  2  0
 10 12  1  0
 11 12  2  0
 14 15  1  0
 15 17  2  0
 15 18  1  0
 17 19  1  0
 18 20  2  0
 19 21  2  0
 20 21  1  0
M  END
>  <PUBCHEM_COMPOUND_CID>  (1) 
39946

>  <PUBCHEM_CONFORMER_RMSD>  (1) 
0.6

>  <PUBCHEM_CONFORMER_DIVERSEORDER>  (1) 
1
2
4
3

>  <PUBCHEM_MMFF94_PARTIAL_CHARGES>  (1) 
28
1 -0.11
10 0.14
11 -0.15
12 -0.15
14 0.43
15 0.05
16 0.66
17 -0.15
18 -0.15
19 -0.15
2 -0.28
20 -0.15
21 0.11
23 0.15
24 0.15
25 0.15
29 0.15
3 -0.65
30 0.15
31 0.15
32 0.15
33 0.5
4 -0.57
5 -0.57
6 0.2
7 -0.14
8 0.23
9 -0.15

>  <PUBCHEM_EFFECTIVE_ROTOR_COUNT>  (1) 
3

>  <PUBCHEM_PHARMACOPHORE_FEATURES>  (1) 
8
1 1 hydrophobe
1 13 hydrophobe
1 3 acceptor
1 4 acceptor
3 3 4 16 anion
5 2 5 8 10 14 rings
6 15 17 18 19 20 21 rings
6 7 8 9 10 11 12 rings

>  <PUBCHEM_HEAVY_ATOM_COUNT>  (1) 
21

>  <PUBCHEM_ATOM_DEF_STEREO_COUNT>  (1) 
0

>  <PUBCHEM_ATOM_UDEF_STEREO_COUNT>  (1) 
1

>  <PUBCHEM_BOND_DEF_STEREO_COUNT>  (1) 
0

>  <PUBCHEM_BOND_UDEF_STEREO_COUNT>  (1) 
0

>  <PUBCHEM_ISOTOPIC_ATOM_COUNT>  (1) 
0

>  <PUBCHEM_COMPONENT_COUNT>  (1) 
1

>  <PUBCHEM_CACTVS_TAUTO_COUNT>  (1) 
1

>  <PUBCHEM_CONFORMER_ID>  (1) 
00009C0A00000001

>  <PUBCHEM_MMFF94_ENERGY>  (1) 
45.0606

>  <PUBCHEM_FEATURE_SELFOVERLAP>  (1) 
40.772

>  <PUBCHEM_SHAPE_FINGERPRINT>  (1) 
10 15 18113056060076463624
10366900 7 14117799111580761999
10670039 82 18188788145403661972
11128504 68 16056878043885244792
11595378 159 17313933139328664553
12107183 9 17471290657003150385
12236239 1 17917711280157895559
12516196 113 18342175566570683313
12730499 353 18272658939266934038
12916748 109 18202004308827419672
13073987 5 18262520282791787081
13533116 47 18339361847068467219
13955234 65 18270679753997148826
14461889 52 18113625603427235523
14528608 73 18343300366227225215
15048467 5 18343582941037258521
15183329 4 11023830565533623101
15196674 1 18335140839240939063
15788980 27 12324243875441668899
16079462 125 18261381227268423525
17844677 252 17560529416830752897
200 152 18271805697322285515
20281389 69 18334294232641545953
20397935 70 14201393859537764016
20645477 70 18268432334617413471
21033648 29 18200864192905804104
21130935 74 18337957792954399763
21150785 3 14979951497372123785
21267235 1 18264214616676902623
21452121 103 18409724028921003938
22079108 93 18412821408409383543
221357 26 17275107215088711752
22224240 67 18260824929638887083
23035841 295 10231757790779142413
23402539 116 16515400781432291063
23559900 14 18410575076073150850
2916195 48 18271238417445984544
29717793 49 16415485921594986212
300161 21 18335698326312302103
335352 9 18408889517107791686
34797466 226 17489591164342563957
34934 24 18412258445613648111
3545911 37 18408606942181148231
4072396 5 18040427794176780874
4073 2 18040723588200397675
4325135 7 18113623378222407423
4340502 62 16370727023678961922
5104073 3 18261676948493101195
542803 24 17530687614854143487
5486654 2 18408328795519398375
59682541 35 18261395602407769681
59682541 52 17059792052672198020
67856867 119 18042409191487313909

>  <PUBCHEM_SHAPE_MULTIPOLES>  (1) 
415.52
16.3
1.69
0.92
10.65
0.54
-0.09
-6.38
0.84
-0.61
0.2
-1.29
-0.26
0.63

>  <PUBCHEM_SHAPE_SELFOVERLAP>  (1) 
902.18

>  <PUBCHEM_SHAPE_VOLUME>  (1) 
232.8

>  <PUBCHEM_COORDINATE_TYPE>  (1) 
2
5
10

$$$$
