39944
     RDKit          3D

 23 25  0  0  1  0  0  0  0  0999 V2000
   -0.2313   -1.4130    0.1397 O   0  0  0  0  0  0  0  0  0  0  0  0
    6.8922    1.3181    0.5554 O   0  0  0  0  0  0  0  0  0  0  0  0
    4.8528    1.4113    1.5393 O   0  0  0  0  0  0  0  0  0  0  0  0
   -7.1038   -0.6400    0.3140 O   0  0  0  0  0  0  0  0  0  0  0  0
    0.2007    0.7641   -0.3191 N   0  0  0  0  0  0  0  0  0  0  0  0
    5.1529   -0.0687   -0.3806 C   0  0  0  0  0  0  0  0  0  0  0  0
    3.7244   -0.4783   -0.2317 C   0  0  0  0  0  0  0  0  0  0  0  0
    1.3834    0.0700   -0.2338 C   0  0  0  0  0  0  0  0  0  0  0  0
    2.7151    0.4842   -0.3790 C   0  0  0  0  0  0  0  0  0  0  0  0
    1.1228   -1.2631    0.0473 C   0  0  0  0  0  0  0  0  0  0  0  0
    3.4175   -1.8148    0.0523 C   0  0  0  0  0  0  0  0  0  0  0  0
    2.0944   -2.2445    0.2003 C   0  0  0  0  0  0  0  0  0  0  0  0
   -0.7087   -0.1579   -0.0910 C   0  0  0  0  0  0  0  0  0  0  0  0
    5.4972    0.4965   -1.7727 C   0  0  0  0  0  0  0  0  0  0  0  0
   -2.1393   -0.0321   -0.0486 C   0  0  0  0  0  0  0  0  0  0  0  0
    5.5884    0.9528    0.6748 C   0  0  0  0  0  0  0  0  0  0  0  0
   -2.9361   -1.1497    0.2148 C   0  0  0  0  0  0  0  0  0  0  0  0
   -2.7425    1.2092   -0.2694 C   0  0  0  0  0  0  0  0  0  0  0  0
   -4.9227    0.2139    0.0363 C   0  0  0  0  0  0  0  0  0  0  0  0
   -4.3249   -1.0271    0.2571 C   0  0  0  0  0  0  0  0  0  0  0  0
   -4.1314    1.3321   -0.2270 C   0  0  0  0  0  0  0  0  0  0  0  0
   -6.3705    0.3417    0.0811 C   0  0  0  0  0  0  0  0  0  0  0  0
   -7.0306    1.6951   -0.1594 C   0  0  0  0  0  0  0  0  0  0  0  0
  1 10  1  0
  1 13  1  0
  2 16  1  0
  3 16  2  0
  4 22  2  0
  5  8  1  0
  5 13  2  0
  6  7  1  0
  6 14  1  0
  6 16  1  0
  7  9  2  0
  7 11  1  0
  8  9  1  0
  8 10  2  0
 10 12  1  0
 11 12  2  0
 13 15  1  0
 15 17  2  0
 15 18  1  0
 17 20  1  0
 18 21  2  0
 19 20  2  0
 19 21  1  0
 19 22  1  0
 22 23  1  0
M  END
>  <PUBCHEM_COMPOUND_CID>  (1) 
39944

>  <PUBCHEM_CONFORMER_RMSD>  (1) 
0.6

>  <PUBCHEM_CONFORMER_DIVERSEORDER>  (1) 
1
10
13
11
9
3
5
8
6
4
12
2
7

>  <PUBCHEM_MMFF94_PARTIAL_CHARGES>  (1) 
30
1 -0.28
10 0.14
11 -0.15
12 -0.15
13 0.43
15 0.05
16 0.66
17 -0.15
18 -0.15
19 0.09
2 -0.65
20 -0.15
21 -0.15
22 0.42
23 0.06
25 0.15
26 0.15
27 0.15
3 -0.57
31 0.15
32 0.15
33 0.15
34 0.15
35 0.5
4 -0.57
5 -0.57
6 0.2
7 -0.14
8 0.23
9 -0.15

>  <PUBCHEM_EFFECTIVE_ROTOR_COUNT>  (1) 
4

>  <PUBCHEM_PHARMACOPHORE_FEATURES>  (1) 
8
1 14 hydrophobe
1 2 acceptor
1 3 acceptor
1 4 acceptor
3 2 3 16 anion
5 1 5 8 10 13 rings
6 15 17 18 19 20 21 rings
6 7 8 9 10 11 12 rings

>  <PUBCHEM_HEAVY_ATOM_COUNT>  (1) 
23

>  <PUBCHEM_ATOM_DEF_STEREO_COUNT>  (1) 
0

>  <PUBCHEM_ATOM_UDEF_STEREO_COUNT>  (1) 
1

>  <PUBCHEM_BOND_DEF_STEREO_COUNT>  (1) 
0

>  <PUBCHEM_BOND_UDEF_STEREO_COUNT>  (1) 
0

>  <PUBCHEM_ISOTOPIC_ATOM_COUNT>  (1) 
0

>  <PUBCHEM_COMPONENT_COUNT>  (1) 
1

>  <PUBCHEM_CACTVS_TAUTO_COUNT>  (1) 
2

>  <PUBCHEM_CONFORMER_ID>  (1) 
00009C0800000001

>  <PUBCHEM_MMFF94_ENERGY>  (1) 
54.0871

>  <PUBCHEM_FEATURE_SELFOVERLAP>  (1) 
40.774

>  <PUBCHEM_SHAPE_FINGERPRINT>  (1) 
10 15 18186518838997101600
10366900 7 14333410043099901367
10411042 1 17762055437786641070
10638233 991 15841550799187826561
10835480 77 18336539422753978413
10906281 52 17895211994565843303
10968037 39 18408606959756701847
11181472 205 16557639513162292929
11315181 36 17988925575185504649
11719270 70 18260264131591214338
12107183 9 17472418751532805747
12236239 1 18202563952178171527
12516196 113 18342458140774178657
12616971 3 15864357977499527031
12730499 353 18272656736091097022
13073987 5 18335422310207213865
13533116 47 18339643326123899762
14251732 16 18412262844234808427
14251764 18 17676207995822531597
14461889 52 18187088377187970219
14528608 73 18272088301242574366
15048467 5 18413670209958630441
15196674 1 18263363603709582567
15788980 27 12396300369772855210
200 152 18343582915821329571
20281389 69 18333730191333849861
20397935 70 14129053691317407256
21033648 29 18128805512631494920
21130935 74 18336266748091586467
21150785 3 16486969613845216853
21267235 1 18336836277370259399
21792934 111 18263913358969732265
220451 1 15051731972062702247
22079108 93 18412258454440569790
221357 26 17203331100644189152
22224240 67 18259981604352323114
23035841 295 10735878365850255437
23198884 109 16845579703826956635
23559900 14 18411695526273500857
24771293 8 18267857462515305796
29717793 49 16343710911009799716
300161 21 18410571777976325327
3004659 81 18188776028926496034
34797466 226 17417816153530537124
34934 24 18411976966310373591
350125 39 18335141981887070733
3545911 37 18409450275767671823
4072396 5 18040710373229131410
4073 2 17967541193709284595
4325135 7 18186806871987823422
4340502 62 16370444449544083826
4463277 17 18412263917944886389
5104073 3 18262520273637350739
542803 24 16630526219933515155
5486654 2 18408610274759505758
5758199 1 18410579478984374195
59682541 35 18261674882112879560
59682541 52 17060073536412929556
59755656 215 18410294704913578270
67856867 119 18115030830542310357

>  <PUBCHEM_SHAPE_MULTIPOLES>  (1) 
444.87
18.48
1.75
0.89
9.74
0.43
-0.07
-7.38
0.94
-0.41
0.18
-1.42
-0.27
0.72

>  <PUBCHEM_SHAPE_SELFOVERLAP>  (1) 
979.404

>  <PUBCHEM_SHAPE_VOLUME>  (1) 
241.7

>  <PUBCHEM_COORDINATE_TYPE>  (1) 
2
5
10

$$$$
