39949
     RDKit          3D

 19 21  0  0  1  0  0  0  0  0999 V2000
   -0.6090    0.6835    0.1424 O   0  0  0  0  0  0  0  0  0  0  0  0
    4.6535    0.5799   -2.0125 O   0  0  0  0  0  0  0  0  0  0  0  0
   -0.9422   -1.5512   -0.0364 N   0  0  0  0  0  0  0  0  0  0  0  0
    4.3331    0.3773    0.3781 C   0  0  0  0  0  0  0  0  0  0  0  0
    2.9556   -0.1898    0.2646 C   0  0  0  0  0  0  0  0  0  0  0  0
    1.8584    0.6783    0.2700 C   0  0  0  0  0  0  0  0  0  0  0  0
    4.6959    1.3154   -0.7946 C   0  0  0  0  0  0  0  0  0  0  0  0
    0.6124    0.0730    0.1615 C   0  0  0  0  0  0  0  0  0  0  0  0
    4.5455    1.1140    1.7149 C   0  0  0  0  0  0  0  0  0  0  0  0
    2.7901   -1.5761    0.1561 C   0  0  0  0  0  0  0  0  0  0  0  0
    0.4045   -1.2941    0.0522 C   0  0  0  0  0  0  0  0  0  0  0  0
    1.5151   -2.1502    0.0483 C   0  0  0  0  0  0  0  0  0  0  0  0
   -1.4835   -0.3543    0.0217 C   0  0  0  0  0  0  0  0  0  0  0  0
   -2.8705    0.0189   -0.0206 C   0  0  0  0  0  0  0  0  0  0  0  0
   -3.2393    1.3648    0.0601 C   0  0  0  0  0  0  0  0  0  0  0  0
   -3.8591   -0.9616   -0.1418 C   0  0  0  0  0  0  0  0  0  0  0  0
   -4.5858    1.7268    0.0199 C   0  0  0  0  0  0  0  0  0  0  0  0
   -5.2056   -0.5994   -0.1823 C   0  0  0  0  0  0  0  0  0  0  0  0
   -5.5690    0.7448   -0.1015 C   0  0  0  0  0  0  0  0  0  0  0  0
  1  8  1  0
  1 13  1  0
  2  7  1  0
  3 11  1  0
  3 13  2  0
  4  5  1  0
  4  7  1  0
  4  9  1  0
  5  6  1  0
  5 10  2  0
  6  8  2  0
  8 11  1  0
 10 12  1  0
 11 12  2  0
 13 14  1  0
 14 15  2  0
 14 16  1  0
 15 17  1  0
 16 18  2  0
 17 19  2  0
 18 19  1  0
M  END
>  <PUBCHEM_COMPOUND_CID>  (1) 
39949

>  <PUBCHEM_CONFORMER_RMSD>  (1) 
0.6

>  <PUBCHEM_CONFORMER_DIVERSEORDER>  (1) 
1
6
4
5
7
3
8
2

>  <PUBCHEM_MMFF94_PARTIAL_CHARGES>  (1) 
27
1 -0.28
10 -0.15
11 0.23
12 -0.15
13 0.43
14 0.05
15 -0.15
16 -0.15
17 -0.15
18 -0.15
19 -0.15
2 -0.68
21 0.15
27 0.15
28 0.15
29 0.4
3 -0.57
30 0.15
31 0.15
32 0.15
33 0.15
34 0.15
4 0.14
5 -0.14
6 -0.15
7 0.28
8 0.14

>  <PUBCHEM_EFFECTIVE_ROTOR_COUNT>  (1) 
3

>  <PUBCHEM_PHARMACOPHORE_FEATURES>  (1) 
6
1 2 acceptor
1 2 donor
1 9 hydrophobe
5 1 3 8 11 13 rings
6 14 15 16 17 18 19 rings
6 5 6 8 10 11 12 rings

>  <PUBCHEM_HEAVY_ATOM_COUNT>  (1) 
19

>  <PUBCHEM_ATOM_DEF_STEREO_COUNT>  (1) 
0

>  <PUBCHEM_ATOM_UDEF_STEREO_COUNT>  (1) 
1

>  <PUBCHEM_BOND_DEF_STEREO_COUNT>  (1) 
0

>  <PUBCHEM_BOND_UDEF_STEREO_COUNT>  (1) 
0

>  <PUBCHEM_ISOTOPIC_ATOM_COUNT>  (1) 
0

>  <PUBCHEM_COMPONENT_COUNT>  (1) 
1

>  <PUBCHEM_CACTVS_TAUTO_COUNT>  (1) 
1

>  <PUBCHEM_CONFORMER_ID>  (1) 
00009C0D00000001

>  <PUBCHEM_MMFF94_ENERGY>  (1) 
42.4125

>  <PUBCHEM_FEATURE_SELFOVERLAP>  (1) 
30.564

>  <PUBCHEM_SHAPE_FINGERPRINT>  (1) 
10378564 45 17845943914092393372
10498660 4 18342739589580308544
10670039 82 18335433322514566940
10912923 1 17458060490761984713
11128504 68 15482666909462521032
11543360 7 15554157168717720992
11796584 16 13614526259441849724
12107183 9 17618220603346370257
12236239 1 17821726152113846472
12390115 104 18058744498655623809
12596602 18 16298389076057294041
12670543 26 18272381845388461070
12670546 56 15574984057530411948
12730499 353 18202008736997035838
12916748 109 18202284714404707577
14528608 73 18412825802171464029
15196674 1 18411697647823593699
15375358 24 18114184129184338507
15536298 74 18342455898389774003
15788980 27 13262396661477595531
15961568 22 17821736030797656340
1601671 61 18334577945143282788
17834072 33 18272929419047836367
17844677 252 17275391996984440401
18222031 100 8358263665681195650
19784866 140 16773806869724773786
200 152 18060131038668186835
20645477 70 18200876158342253694
21267235 1 18340773637062330059
21452121 103 18342446016213384354
23402539 116 18341321267267807151
23402655 69 18272366447751401887
23559900 14 17983852285683323435
245318 6 17026018507977632148
2916195 48 17987785432112262440
300161 21 18411127018695350977
3004659 81 18337674114453464510
3060560 45 17275386504295898550
3071541 37 18409169879281803302
3472631 163 18190190168868747108
34797466 226 17132113584649538001
350125 39 18337388215633701498
3545911 37 18412544297588840097
4214541 1 18339921520436127449
4340502 62 16877662353139203027
465052 167 9511457853213952024
474 4 17894636971475196684
495365 180 17346590898970319658
4990 188 17775573035268399838
5104073 3 18338515236347817123
542803 24 17967814950935160157
633830 44 18187363182069906899
77779 3 18340204094813787003
8863177 126 11599135800042070469
960060 61 13254795763459581280
9709674 26 18411704262305890191

>  <PUBCHEM_SHAPE_MULTIPOLES>  (1) 
374.29
12.46
1.79
0.98
4.99
0.41
-0.16
-5.05
-0.92
-0.13
0.05
-1.7
-0.33
-0.11

>  <PUBCHEM_SHAPE_SELFOVERLAP>  (1) 
822.4

>  <PUBCHEM_SHAPE_VOLUME>  (1) 
204.3

>  <PUBCHEM_COORDINATE_TYPE>  (1) 
2
5
10

$$$$
