39953
     RDKit          3D

 22 24  0  0  1  0  0  0  0  0999 V2000
   -5.2926   -2.7072    0.3260 Cl  0  0  0  0  0  0  0  0  0  0  0  0
   -7.0604   -0.0497   -0.2080 Cl  0  0  0  0  0  0  0  0  0  0  0  0
   -0.6063    1.5139   -0.1223 O   0  0  0  0  0  0  0  0  0  0  0  0
    6.4577   -1.3642   -0.5624 O   0  0  0  0  0  0  0  0  0  0  0  0
    4.4278   -1.3751   -1.5700 O   0  0  0  0  0  0  0  0  0  0  0  0
   -0.2289   -0.6876    0.2624 N   0  0  0  0  0  0  0  0  0  0  0  0
    4.7399    0.0280    0.4048 C   0  0  0  0  0  0  0  0  0  0  0  0
    3.3228    0.4756    0.2560 C   0  0  0  0  0  0  0  0  0  0  0  0
    0.9701   -0.0184    0.2143 C   0  0  0  0  0  0  0  0  0  0  0  0
    2.2904   -0.4681    0.3583 C   0  0  0  0  0  0  0  0  0  0  0  0
    0.7430    1.3296   -0.0214 C   0  0  0  0  0  0  0  0  0  0  0  0
    3.0495    1.8281    0.0171 C   0  0  0  0  0  0  0  0  0  0  0  0
    1.7382    2.2932   -0.1290 C   0  0  0  0  0  0  0  0  0  0  0  0
    5.0558   -0.5942    1.7792 C   0  0  0  0  0  0  0  0  0  0  0  0
   -1.1146    0.2627    0.0582 C   0  0  0  0  0  0  0  0  0  0  0  0
   -2.5471    0.1715   -0.0034 C   0  0  0  0  0  0  0  0  0  0  0  0
    5.1639   -0.9649   -0.6820 C   0  0  0  0  0  0  0  0  0  0  0  0
   -3.1815   -1.0621    0.1674 C   0  0  0  0  0  0  0  0  0  0  0  0
   -3.3149    1.3164   -0.2349 C   0  0  0  0  0  0  0  0  0  0  0  0
   -4.5724   -1.1504    0.1078 C   0  0  0  0  0  0  0  0  0  0  0  0
   -4.7058    1.2281   -0.2948 C   0  0  0  0  0  0  0  0  0  0  0  0
   -5.3346   -0.0052   -0.1234 C   0  0  0  0  0  0  0  0  0  0  0  0
  1 20  1  0
  2 22  1  0
  3 11  1  0
  3 15  1  0
  4 17  1  0
  5 17  2  0
  6  9  1  0
  6 15  2  0
  7  8  1  0
  7 14  1  0
  7 17  1  0
  8 10  2  0
  8 12  1  0
  9 10  1  0
  9 11  2  0
 11 13  1  0
 12 13  2  0
 15 16  1  0
 16 18  2  0
 16 19  1  0
 18 20  1  0
 19 21  2  0
 20 22  2  0
 21 22  1  0
M  END
>  <PUBCHEM_COMPOUND_CID>  (1) 
39953

>  <PUBCHEM_CONFORMER_RMSD>  (1) 
0.6

>  <PUBCHEM_CONFORMER_DIVERSEORDER>  (1) 
3
12
11
2
4
7
8
10
1
9
5
6

>  <PUBCHEM_MMFF94_PARTIAL_CHARGES>  (1) 
28
1 -0.18
10 -0.15
11 0.14
12 -0.15
13 -0.15
15 0.43
16 0.05
17 0.66
18 -0.15
19 -0.15
2 -0.18
20 0.18
21 -0.15
22 0.18
24 0.15
25 0.15
26 0.15
3 -0.28
30 0.15
31 0.15
32 0.15
33 0.5
4 -0.65
5 -0.57
6 -0.57
7 0.2
8 -0.14
9 0.23

>  <PUBCHEM_EFFECTIVE_ROTOR_COUNT>  (1) 
3

>  <PUBCHEM_PHARMACOPHORE_FEATURES>  (1) 
7
1 14 hydrophobe
1 4 acceptor
1 5 acceptor
3 4 5 17 anion
5 3 6 9 11 15 rings
6 16 18 19 20 21 22 rings
6 8 9 10 11 12 13 rings

>  <PUBCHEM_HEAVY_ATOM_COUNT>  (1) 
22

>  <PUBCHEM_ATOM_DEF_STEREO_COUNT>  (1) 
0

>  <PUBCHEM_ATOM_UDEF_STEREO_COUNT>  (1) 
1

>  <PUBCHEM_BOND_DEF_STEREO_COUNT>  (1) 
0

>  <PUBCHEM_BOND_UDEF_STEREO_COUNT>  (1) 
0

>  <PUBCHEM_ISOTOPIC_ATOM_COUNT>  (1) 
0

>  <PUBCHEM_COMPONENT_COUNT>  (1) 
1

>  <PUBCHEM_CACTVS_TAUTO_COUNT>  (1) 
1

>  <PUBCHEM_CONFORMER_ID>  (1) 
00009C1100000003

>  <PUBCHEM_MMFF94_ENERGY>  (1) 
47.2896

>  <PUBCHEM_FEATURE_SELFOVERLAP>  (1) 
35.698

>  <PUBCHEM_SHAPE_FINGERPRINT>  (1) 
10366900 7 16950562190242985017
11315181 36 18342178877752988137
11524674 6 17489868250485554759
11796584 16 18410008849260493827
12107183 9 17758668958909322001
12166972 35 18187085078901207629
12236239 1 17918274264344623601
12516196 113 18131627876616136992
12596602 18 15338828794064446079
13167823 11 18337387244628194715
13288520 33 18409731755498259669
13533116 47 16415482619361384158
13675066 3 18060131055162507184
13685833 64 18342741805914970582
13862211 1 18334288751972937858
14341114 176 18336550503611138449
15183329 4 18260546706131735035
15196674 1 18335982081784817105
15788980 27 17846777420867505461
17492 89 18193559102186509135
17844677 252 18410299111745690025
17857418 61 18186793690870387395
1813 80 17967816041952033404
18222031 100 18409450272021441264
18927931 339 18260269668573886579
19141452 34 17917424350056001614
19377110 9 13398634943978293415
19784866 240 18271815609210220320
200 152 18202562886815363601
20028762 73 18271523203484596335
20645477 70 18410012169607667588
21033648 29 17202463551019175145
21033650 10 17316500409285901100
21130935 74 18060701714862156907
21150785 3 17167869681346751174
21267235 1 18335425677614593617
21623969 137 17418097607011572590
21682296 61 17916877815314838750
21709351 56 18333724737147143765
220451 1 17821728312667129947
22393880 68 18260540130726617771
23035841 295 18335420158381223243
23402539 116 18336256934190826847
23522609 53 17896909601817861021
23559900 14 18337667628883997233
239999 70 18413671314567137130
29717793 49 18342457053983857821
3004659 81 18260268547233838652
335352 9 18408039611793738405
338550 245 18342176729921583662
3411729 13 18264762350410806544
3545911 37 18335136488892450001
4073 2 17896040008468103305
4214541 1 18408319995653797545
4340502 62 14764346037704831412
465052 167 18343869926715635438
5104073 3 18338797931132247505
59755656 215 18334573517211348527
59755656 520 16588020226365797667
8863177 126 17823713047298991107
960060 61 17240768376300105102
9709674 26 18190746529898886291

>  <PUBCHEM_SHAPE_MULTIPOLES>  (1) 
433.9
16.43
2.05
0.91
4.55
0.1
0.05
7.09
-0.91
0.68
-0.1
-1.34
0.3
0.79

>  <PUBCHEM_SHAPE_SELFOVERLAP>  (1) 
938.966

>  <PUBCHEM_SHAPE_VOLUME>  (1) 
241.2

>  <PUBCHEM_COORDINATE_TYPE>  (1) 
2
5
10

$$$$
