39951
     RDKit          3D

 21 23  0  0  1  0  0  0  0  0999 V2000
   -7.1126    1.1674   -0.0062 Cl  0  0  0  0  0  0  0  0  0  0  0  0
   -0.5054    0.4766   -0.2415 O   0  0  0  0  0  0  0  0  0  0  0  0
    6.0783    1.5541    0.4693 O   0  0  0  0  0  0  0  0  0  0  0  0
    4.0615    1.4949    1.5012 O   0  0  0  0  0  0  0  0  0  0  0  0
   -0.8866   -1.7064    0.2341 N   0  0  0  0  0  0  0  0  0  0  0  0
    4.4287    0.0356   -0.4230 C   0  0  0  0  0  0  0  0  0  0  0  0
    3.0393   -0.4818   -0.2390 C   0  0  0  0  0  0  0  0  0  0  0  0
    0.7025   -0.1573   -0.1770 C   0  0  0  0  0  0  0  0  0  0  0  0
    1.9611    0.4011   -0.3632 C   0  0  0  0  0  0  0  0  0  0  0  0
    0.4653   -1.4925    0.1145 C   0  0  0  0  0  0  0  0  0  0  0  0
    2.8441   -1.8371    0.0543 C   0  0  0  0  0  0  0  0  0  0  0  0
    1.5571   -2.3640    0.2354 C   0  0  0  0  0  0  0  0  0  0  0  0
    4.6949    0.6205   -1.8239 C   0  0  0  0  0  0  0  0  0  0  0  0
   -1.4021   -0.5167    0.0149 C   0  0  0  0  0  0  0  0  0  0  0  0
   -2.7803   -0.1102    0.0097 C   0  0  0  0  0  0  0  0  0  0  0  0
    4.8093    1.0908    0.6201 C   0  0  0  0  0  0  0  0  0  0  0  0
   -3.1195    1.2213   -0.2459 C   0  0  0  0  0  0  0  0  0  0  0  0
   -3.7895   -1.0439    0.2605 C   0  0  0  0  0  0  0  0  0  0  0  0
   -4.4575    1.6161   -0.2504 C   0  0  0  0  0  0  0  0  0  0  0  0
   -5.1274   -0.6493    0.2557 C   0  0  0  0  0  0  0  0  0  0  0  0
   -5.4614    0.6808    0.0004 C   0  0  0  0  0  0  0  0  0  0  0  0
  1 21  1  0
  2  8  1  0
  2 14  1  0
  3 16  1  0
  4 16  2  0
  5 10  1  0
  5 14  2  0
  6  7  1  0
  6 13  1  0
  6 16  1  0
  7  9  1  0
  7 11  2  0
  8  9  2  0
  8 10  1  0
 10 12  2  0
 11 12  1  0
 14 15  1  0
 15 17  2  0
 15 18  1  0
 17 19  1  0
 18 20  2  0
 19 21  2  0
 20 21  1  0
M  END
>  <PUBCHEM_COMPOUND_CID>  (1) 
39951

>  <PUBCHEM_CONFORMER_RMSD>  (1) 
0.6

>  <PUBCHEM_CONFORMER_DIVERSEORDER>  (1) 
1
2
4
3

>  <PUBCHEM_MMFF94_PARTIAL_CHARGES>  (1) 
28
1 -0.18
10 0.23
11 -0.15
12 -0.15
14 0.43
15 0.05
16 0.66
17 -0.15
18 -0.15
19 -0.15
2 -0.28
20 -0.15
21 0.18
23 0.15
24 0.15
25 0.15
29 0.15
3 -0.65
30 0.15
31 0.15
32 0.15
33 0.5
4 -0.57
5 -0.57
6 0.2
7 -0.14
8 0.14
9 -0.15

>  <PUBCHEM_EFFECTIVE_ROTOR_COUNT>  (1) 
3

>  <PUBCHEM_PHARMACOPHORE_FEATURES>  (1) 
7
1 13 hydrophobe
1 3 acceptor
1 4 acceptor
3 3 4 16 anion
5 2 5 8 10 14 rings
6 15 17 18 19 20 21 rings
6 7 8 9 10 11 12 rings

>  <PUBCHEM_HEAVY_ATOM_COUNT>  (1) 
21

>  <PUBCHEM_ATOM_DEF_STEREO_COUNT>  (1) 
0

>  <PUBCHEM_ATOM_UDEF_STEREO_COUNT>  (1) 
1

>  <PUBCHEM_BOND_DEF_STEREO_COUNT>  (1) 
0

>  <PUBCHEM_BOND_UDEF_STEREO_COUNT>  (1) 
0

>  <PUBCHEM_ISOTOPIC_ATOM_COUNT>  (1) 
0

>  <PUBCHEM_COMPONENT_COUNT>  (1) 
1

>  <PUBCHEM_CACTVS_TAUTO_COUNT>  (1) 
1

>  <PUBCHEM_CONFORMER_ID>  (1) 
00009C0F00000001

>  <PUBCHEM_MMFF94_ENERGY>  (1) 
44.8624

>  <PUBCHEM_FEATURE_SELFOVERLAP>  (1) 
35.698

>  <PUBCHEM_SHAPE_FINGERPRINT>  (1) 
10 15 17894915143738400153
10366900 7 14045742621317728695
10411042 1 17690279305460726758
10670039 82 18189069624606807100
11089746 13 18131344211617249908
11128504 68 15913325810015586016
11595378 159 17241313694870029037
12107183 9 17471290652692300361
12236239 1 18131349683738018007
12403259 415 18188486869983715789
12633257 1 16588025740238466260
12730499 353 18343591732730311974
12969540 114 17917422137968210159
13533116 47 18338234843402450339
13955234 65 18266458711435654666
14461889 52 18040724684060441731
14528608 73 18344144795605305279
15196674 1 18335703802121473263
15788980 27 12324241680750368875
1601671 61 18259706705234364892
16079462 125 18187635874381563205
17980427 23 17676773192054762687
18222031 100 9511464424793184486
20281389 69 18334576802987943377
20397935 70 13623529030759160872
20645477 70 18269839709437656791
21033648 29 18271516615478758256
21150785 3 15339112468264651241
21267235 1 18264215707598647743
21452121 103 18409442558239273570
221357 26 17346601854857229944
23016692 55 9223235186865672792
23402539 116 18335417993723110887
23402655 69 18341331119886153223
23559900 14 18051970325316755723
2916195 48 18342734160862777336
29717793 49 17489310724358006815
300161 21 18335416851351370239
335352 9 18410295783905639302
34797466 226 17489873743284086293
34934 24 18413102874817563943
350125 39 18262518075220924790
3545911 37 18408326558083932767
4072396 5 18187075153273341386
4073 2 18040443208419254979
4340502 62 16515406257019760675
465052 167 8430312459115109816
474 4 17967822647242254622
495365 180 17846211168749157378
5104073 3 18261396585955241675
542803 24 17603308158914071007
59682541 52 17131567067831874684
960060 61 13614522974155377288

>  <PUBCHEM_SHAPE_MULTIPOLES>  (1) 
411.45
15.24
1.93
0.91
9.51
0.58
-0.11
-8.44
0.36
-0.8
0.25
-1.29
-0.31
0.61

>  <PUBCHEM_SHAPE_SELFOVERLAP>  (1) 
899.65

>  <PUBCHEM_SHAPE_VOLUME>  (1) 
225.6

>  <PUBCHEM_COORDINATE_TYPE>  (1) 
2
5
10

$$$$
