39959
     RDKit          3D

 21 23  0  0  1  0  0  0  0  0999 V2000
   -5.9640   -1.4493    0.4326 F   0  0  0  0  0  0  0  0  0  0  0  0
   -1.0675   -1.1637    0.0914 O   0  0  0  0  0  0  0  0  0  0  0  0
    6.2589    0.9456    0.5937 O   0  0  0  0  0  0  0  0  0  0  0  0
    4.2305    1.1837    1.5762 O   0  0  0  0  0  0  0  0  0  0  0  0
   -0.4519    0.9808   -0.3075 N   0  0  0  0  0  0  0  0  0  0  0  0
    4.4128   -0.2641   -0.3826 C   0  0  0  0  0  0  0  0  0  0  0  0
    2.9543   -0.5559   -0.2474 C   0  0  0  0  0  0  0  0  0  0  0  0
    0.6678    0.1875   -0.2389 C   0  0  0  0  0  0  0  0  0  0  0  0
    2.0302    0.4919   -0.3705 C   0  0  0  0  0  0  0  0  0  0  0  0
    0.2948   -1.1259    0.0055 C   0  0  0  0  0  0  0  0  0  0  0  0
    2.5349   -1.8689   -0.0004 C   0  0  0  0  0  0  0  0  0  0  0  0
    1.1797   -2.1895    0.1336 C   0  0  0  0  0  0  0  0  0  0  0  0
    4.8091    0.3072   -1.7582 C   0  0  0  0  0  0  0  0  0  0  0  0
   -1.4366    0.1329   -0.1061 C   0  0  0  0  0  0  0  0  0  0  0  0
   -2.8518    0.3776   -0.0629 C   0  0  0  0  0  0  0  0  0  0  0  0
    4.9284    0.6883    0.7009 C   0  0  0  0  0  0  0  0  0  0  0  0
   -3.7413   -0.6754    0.1691 C   0  0  0  0  0  0  0  0  0  0  0  0
   -3.3473    1.6707   -0.2522 C   0  0  0  0  0  0  0  0  0  0  0  0
   -5.1151   -0.4372    0.2116 C   0  0  0  0  0  0  0  0  0  0  0  0
   -4.7211    1.9089   -0.2100 C   0  0  0  0  0  0  0  0  0  0  0  0
   -5.6050    0.8550    0.0220 C   0  0  0  0  0  0  0  0  0  0  0  0
  1 19  1  0
  2 10  1  0
  2 14  1  0
  3 16  1  0
  4 16  2  0
  5  8  1  0
  5 14  2  0
  6  7  1  0
  6 13  1  0
  6 16  1  0
  7  9  2  0
  7 11  1  0
  8  9  1  0
  8 10  2  0
 10 12  1  0
 11 12  2  0
 14 15  1  0
 15 17  2  0
 15 18  1  0
 17 19  1  0
 18 20  2  0
 19 21  2  0
 20 21  1  0
M  END
>  <PUBCHEM_COMPOUND_CID>  (1) 
39959

>  <PUBCHEM_CONFORMER_RMSD>  (1) 
0.6

>  <PUBCHEM_CONFORMER_DIVERSEORDER>  (1) 
2
12
14
4
10
8
1
13
7
11
9
6
3
5

>  <PUBCHEM_MMFF94_PARTIAL_CHARGES>  (1) 
28
1 -0.19
10 0.14
11 -0.15
12 -0.15
14 0.43
15 0.05
16 0.66
17 -0.15
18 -0.15
19 0.19
2 -0.28
20 -0.15
21 -0.15
23 0.15
24 0.15
25 0.15
29 0.15
3 -0.65
30 0.15
31 0.15
32 0.15
33 0.5
4 -0.57
5 -0.57
6 0.2
7 -0.14
8 0.23
9 -0.15

>  <PUBCHEM_EFFECTIVE_ROTOR_COUNT>  (1) 
3

>  <PUBCHEM_PHARMACOPHORE_FEATURES>  (1) 
7
1 13 hydrophobe
1 3 acceptor
1 4 acceptor
3 3 4 16 anion
5 2 5 8 10 14 rings
6 15 17 18 19 20 21 rings
6 7 8 9 10 11 12 rings

>  <PUBCHEM_HEAVY_ATOM_COUNT>  (1) 
21

>  <PUBCHEM_ATOM_DEF_STEREO_COUNT>  (1) 
0

>  <PUBCHEM_ATOM_UDEF_STEREO_COUNT>  (1) 
1

>  <PUBCHEM_BOND_DEF_STEREO_COUNT>  (1) 
0

>  <PUBCHEM_BOND_UDEF_STEREO_COUNT>  (1) 
0

>  <PUBCHEM_ISOTOPIC_ATOM_COUNT>  (1) 
0

>  <PUBCHEM_COMPONENT_COUNT>  (1) 
1

>  <PUBCHEM_CACTVS_TAUTO_COUNT>  (1) 
1

>  <PUBCHEM_CONFORMER_ID>  (1) 
00009C1700000002

>  <PUBCHEM_MMFF94_ENERGY>  (1) 
44.1388

>  <PUBCHEM_FEATURE_SELFOVERLAP>  (1) 
35.698

>  <PUBCHEM_SHAPE_FINGERPRINT>  (1) 
10 15 18335698390578653872
10670039 82 18262534589344110252
10912923 1 17167584890407471837
11128504 68 15697995245287354800
11287383 113 17418093238865886030
11595378 159 17458896033710830553
12107183 9 17470445132492870793
12236239 1 17530683217002934444
12403259 118 17822007592652133213
12403259 415 18344145895001063833
12730499 353 18131638885208329190
12916748 109 18131637776826815032
12969540 114 17917981767906753884
13073987 5 18335421223480469163
13533116 47 15140673662388508984
13631057 29 18338797927138291115
13955234 65 17418093175075022686
14528608 73 18342738507195373710
15183329 4 10735882755275079271
15196674 1 18336266739153043463
15788980 27 12396303664255273427
1601671 61 18261114054290157036
17349148 13 17676212372499759845
17844677 252 17489596623214439585
19489759 90 17967812747822750281
200 152 18343021073848118819
20645477 70 18269839700947923022
21033648 29 18131337618436750088
21267235 1 18336558178896940527
21452121 103 18338792321862812186
22079108 93 18343014527806373734
23402539 116 16805319990280111493
23559900 14 17980193085348130483
2916195 48 18271800250597184568
300161 21 18334571301150323797
34797466 226 17418096533058511221
34934 24 18413101749504392991
3545911 37 18410295779082767685
4072396 5 18040709256294924394
4073 2 18113909247030146955
4214541 1 18335704889122537741
4340502 62 18409729556274894874
5104073 3 18263647273314368459
542803 24 17603590724633191757
59682541 35 18337393863320550115
6913067 236 17240194435256744639
77779 3 18336549301009538239
9709674 26 18262529108918464467

>  <PUBCHEM_SHAPE_MULTIPOLES>  (1) 
402.31
14.32
1.79
0.92
3
0.42
-0.07
-3.94
1.14
0.6
0.13
-1.37
-0.24
0.75

>  <PUBCHEM_SHAPE_SELFOVERLAP>  (1) 
891.569

>  <PUBCHEM_SHAPE_VOLUME>  (1) 
217.4

>  <PUBCHEM_COORDINATE_TYPE>  (1) 
2
5
10

$$$$
