39960
     RDKit          3D

 22 24  0  0  1  0  0  0  0  0999 V2000
    5.2507    3.0943    0.2267 Cl  0  0  0  0  0  0  0  0  0  0  0  0
    5.8381   -2.2307   -0.4263 Cl  0  0  0  0  0  0  0  0  0  0  0  0
    0.7417   -1.3558   -0.0390 O   0  0  0  0  0  0  0  0  0  0  0  0
   -6.4628    1.1174   -0.6354 O   0  0  0  0  0  0  0  0  0  0  0  0
   -4.4303    1.1909   -1.6353 O   0  0  0  0  0  0  0  0  0  0  0  0
    0.2453    0.8376    0.2432 N   0  0  0  0  0  0  0  0  0  0  0  0
   -4.6792   -0.1355    0.4006 C   0  0  0  0  0  0  0  0  0  0  0  0
   -3.2394   -0.5129    0.2774 C   0  0  0  0  0  0  0  0  0  0  0  0
   -0.9160    0.1037    0.2215 C   0  0  0  0  0  0  0  0  0  0  0  0
   -2.2593    0.4883    0.3401 C   0  0  0  0  0  0  0  0  0  0  0  0
   -0.6161   -1.2395    0.0486 C   0  0  0  0  0  0  0  0  0  0  0  0
   -2.8930   -1.8583    0.1017 C   0  0  0  0  0  0  0  0  0  0  0  0
   -1.5578   -2.2588   -0.0184 C   0  0  0  0  0  0  0  0  0  0  0  0
   -5.0359    0.5308    1.7439 C   0  0  0  0  0  0  0  0  0  0  0  0
    1.1815   -0.0723    0.0858 C   0  0  0  0  0  0  0  0  0  0  0  0
    2.6075    0.0925    0.0252 C   0  0  0  0  0  0  0  0  0  0  0  0
   -5.1488    0.7828   -0.7321 C   0  0  0  0  0  0  0  0  0  0  0  0
    3.4372   -1.0188   -0.1508 C   0  0  0  0  0  0  0  0  0  0  0  0
    3.1741    1.3651    0.1417 C   0  0  0  0  0  0  0  0  0  0  0  0
    4.5586    1.5250    0.0830 C   0  0  0  0  0  0  0  0  0  0  0  0
    4.8216   -0.8588   -0.2094 C   0  0  0  0  0  0  0  0  0  0  0  0
    5.3823    0.4130   -0.0925 C   0  0  0  0  0  0  0  0  0  0  0  0
  1 20  1  0
  2 21  1  0
  3 11  1  0
  3 15  1  0
  4 17  1  0
  5 17  2  0
  6  9  1  0
  6 15  2  0
  7  8  1  0
  7 14  1  0
  7 17  1  0
  8 10  2  0
  8 12  1  0
  9 10  1  0
  9 11  2  0
 11 13  1  0
 12 13  2  0
 15 16  1  0
 16 18  2  0
 16 19  1  0
 18 21  1  0
 19 20  2  0
 20 22  1  0
 21 22  2  0
M  END
>  <PUBCHEM_COMPOUND_CID>  (1) 
39960

>  <PUBCHEM_CONFORMER_RMSD>  (1) 
0.6

>  <PUBCHEM_CONFORMER_DIVERSEORDER>  (1) 
2
7
8
5
3
6
9
1
4

>  <PUBCHEM_MMFF94_PARTIAL_CHARGES>  (1) 
28
1 -0.18
10 -0.15
11 0.14
12 -0.15
13 -0.15
15 0.43
16 0.05
17 0.66
18 -0.15
19 -0.15
2 -0.18
20 0.18
21 0.18
22 -0.15
24 0.15
25 0.15
26 0.15
3 -0.28
30 0.15
31 0.15
32 0.15
33 0.5
4 -0.65
5 -0.57
6 -0.57
7 0.2
8 -0.14
9 0.23

>  <PUBCHEM_EFFECTIVE_ROTOR_COUNT>  (1) 
3

>  <PUBCHEM_PHARMACOPHORE_FEATURES>  (1) 
7
1 14 hydrophobe
1 4 acceptor
1 5 acceptor
3 4 5 17 anion
5 3 6 9 11 15 rings
6 16 18 19 20 21 22 rings
6 8 9 10 11 12 13 rings

>  <PUBCHEM_HEAVY_ATOM_COUNT>  (1) 
22

>  <PUBCHEM_ATOM_DEF_STEREO_COUNT>  (1) 
0

>  <PUBCHEM_ATOM_UDEF_STEREO_COUNT>  (1) 
1

>  <PUBCHEM_BOND_DEF_STEREO_COUNT>  (1) 
0

>  <PUBCHEM_BOND_UDEF_STEREO_COUNT>  (1) 
0

>  <PUBCHEM_ISOTOPIC_ATOM_COUNT>  (1) 
0

>  <PUBCHEM_COMPONENT_COUNT>  (1) 
1

>  <PUBCHEM_CACTVS_TAUTO_COUNT>  (1) 
1

>  <PUBCHEM_CONFORMER_ID>  (1) 
00009C1800000002

>  <PUBCHEM_MMFF94_ENERGY>  (1) 
45.6767

>  <PUBCHEM_FEATURE_SELFOVERLAP>  (1) 
35.698

>  <PUBCHEM_SHAPE_FINGERPRINT>  (1) 
10 15 17967815002179726217
10014705 185 18337107964184548027
10763959 59 18187647981435740180
10835480 77 18340200890504823456
10906281 52 17702966793433899649
11089746 13 17203606004167618160
11405975 8 18412829105465811298
12107183 9 17982462499133251618
12236239 1 17775283846556825009
12403259 415 18259985963596474452
12788726 201 17131570361549480056
13073987 5 18270123533787520731
13167372 99 18130233652980635520
13533116 47 17703510996266803186
13675066 3 18040722492898898931
14790565 3 18270127807670519921
15081414 286 18336272327059009148
15183329 4 18343305838305671462
15196674 1 18340488962493077034
15788980 27 18040156227341364875
17844677 252 18186526505070691116
18222031 100 14333414471347820472
19377110 9 12468636136363663046
19489759 90 15051735266054970875
200 152 16989126452527707667
20281389 69 18333731329721651497
20645477 56 18260264170176776501
20645477 70 18201726145856258302
21033648 144 18342451599222664388
21033648 29 18187354441959243581
21150785 3 17274817008443319053
21236236 1 18341049722604261447
21267235 1 18339935826998901978
21279426 13 18410294696487602854
21859007 373 17897144872084507756
2215653 11 18272656714658341974
23081809 10 17346601867514868977
23402539 116 17489307456241107873
23559900 14 18343302583216385426
2838139 119 18338513041677647845
29717793 49 17775289335546141644
300161 21 18340483460866486456
3004659 81 18408042888827677426
3014965 18 18335137532211313482
335352 9 18411983534011617334
34934 24 18336259128154289058
3545911 37 18410578418069500992
4073 2 18042410291294249906
4214541 1 18411420652118068578
5104073 3 18337956791688631642
542803 24 17704358766158469497
59755656 215 18188492359216203062
633830 44 17530963639681119578
77779 3 18340491166117118618
90127 26 18040156231530902352
9709674 26 18337678641338659482

>  <PUBCHEM_SHAPE_MULTIPOLES>  (1) 
433.9
15.56
2.37
0.91
1.4
0.22
-0.01
4.66
1.27
-3.33
0.09
1.38
0.25
0.91

>  <PUBCHEM_SHAPE_SELFOVERLAP>  (1) 
938.59

>  <PUBCHEM_SHAPE_VOLUME>  (1) 
241.2

>  <PUBCHEM_COORDINATE_TYPE>  (1) 
2
5
10

$$$$
