39975
     RDKit          3D

 22 23  0  0  0  0  0  0  0  0999 V2000
    3.1603    0.8138   -2.6519 Cl  0  0  0  0  0  0  0  0  0  0  0  0
    5.1955   -1.8017    1.1715 F   0  0  0  0  0  0  0  0  0  0  0  0
    1.3994    1.8274   -0.4359 O   0  0  0  0  0  0  0  0  0  0  0  0
   -2.0118   -2.3093    0.3882 O   0  0  0  0  0  0  0  0  0  0  0  0
   -2.6071   -1.7657   -1.7679 O   0  0  0  0  0  0  0  0  0  0  0  0
   -4.6899    1.4057    0.9587 O   0  0  0  0  0  0  0  0  0  0  0  0
   -4.3616   -0.6200    0.1790 O   0  0  0  0  0  0  0  0  0  0  0  0
   -3.9442    0.5260    0.4678 N   0  0  0  0  0  0  0  0  0  0  0  0
   -1.7056   -0.1042   -0.3148 C   0  0  0  0  0  0  0  0  0  0  0  0
    0.0956    1.5030   -0.2179 C   0  0  0  0  0  0  0  0  0  0  0  0
   -2.5768    0.8393    0.2298 C   0  0  0  0  0  0  0  0  0  0  0  0
   -0.3694    0.2276   -0.5386 C   0  0  0  0  0  0  0  0  0  0  0  0
   -0.7758    2.4465    0.3267 C   0  0  0  0  0  0  0  0  0  0  0  0
   -2.1119    2.1146    0.5506 C   0  0  0  0  0  0  0  0  0  0  0  0
    2.3637    0.9105   -0.0521 C   0  0  0  0  0  0  0  0  0  0  0  0
   -2.1550   -1.4471   -0.6626 C   0  0  0  0  0  0  0  0  0  0  0  0
    3.2328    0.3736   -0.9857 C   0  0  0  0  0  0  0  0  0  0  0  0
    2.4264    0.5551    1.2846 C   0  0  0  0  0  0  0  0  0  0  0  0
    4.1946   -0.5476   -0.5704 C   0  0  0  0  0  0  0  0  0  0  0  0
    3.3879   -0.3659    1.6998 C   0  0  0  0  0  0  0  0  0  0  0  0
    4.2721   -0.9173    0.7723 C   0  0  0  0  0  0  0  0  0  0  0  0
   -2.4192   -3.6643    0.1692 C   0  0  0  0  0  0  0  0  0  0  0  0
  1 17  1  0
  2 21  1  0
  3 10  1  0
  3 15  1  0
  4 16  1  0
  4 22  1  0
  5 16  2  0
  6  8  1  0
  7  8  2  0
  8 11  1  0
  9 11  2  0
  9 12  1  0
  9 16  1  0
 10 12  2  0
 10 13  1  0
 11 14  1  0
 13 14  2  0
 15 17  2  0
 15 18  1  0
 17 19  1  0
 18 20  2  0
 19 21  2  0
 20 21  1  0
M  CHG  2   6  -1   8   1
M  END
>  <PUBCHEM_COMPOUND_CID>  (1) 
39975

>  <PUBCHEM_CONFORMER_RMSD>  (1) 
0.8

>  <PUBCHEM_CONFORMER_DIVERSEORDER>  (1) 
1
15
22
26
9
16
3
11
23
10
8
12
14
25
5
13
2
24
6
4
20
7
17
18
19
21

>  <PUBCHEM_MMFF94_PARTIAL_CHARGES>  (1) 
28
1 -0.18
10 0.08
11 0.13
12 -0.15
13 -0.15
14 -0.15
15 0.08
16 0.63
17 0.18
18 -0.15
19 -0.15
2 -0.19
20 -0.15
21 0.19
22 0.28
23 0.15
24 0.15
25 0.15
26 0.15
27 0.15
28 0.15
3 -0.17
4 -0.43
5 -0.57
6 -0.52
7 -0.52
8 0.91
9 0.09

>  <PUBCHEM_EFFECTIVE_ROTOR_COUNT>  (1) 
5

>  <PUBCHEM_PHARMACOPHORE_FEATURES>  (1) 
7
1 3 acceptor
1 5 acceptor
1 6 acceptor
1 6 anion
1 7 acceptor
6 15 17 18 19 20 21 rings
6 9 10 11 12 13 14 rings

>  <PUBCHEM_HEAVY_ATOM_COUNT>  (1) 
22

>  <PUBCHEM_ATOM_DEF_STEREO_COUNT>  (1) 
0

>  <PUBCHEM_ATOM_UDEF_STEREO_COUNT>  (1) 
0

>  <PUBCHEM_BOND_DEF_STEREO_COUNT>  (1) 
0

>  <PUBCHEM_BOND_UDEF_STEREO_COUNT>  (1) 
0

>  <PUBCHEM_ISOTOPIC_ATOM_COUNT>  (1) 
0

>  <PUBCHEM_COMPONENT_COUNT>  (1) 
1

>  <PUBCHEM_CACTVS_TAUTO_COUNT>  (1) 
1

>  <PUBCHEM_CONFORMER_ID>  (1) 
00009C2700000001

>  <PUBCHEM_MMFF94_ENERGY>  (1) 
80.7105

>  <PUBCHEM_FEATURE_SELFOVERLAP>  (1) 
35.607

>  <PUBCHEM_SHAPE_FINGERPRINT>  (1) 
10366900 7 17346593071738611016
10616163 171 18411705417388102086
12236239 1 18113907031106453820
12346177 29 18201425991707704493
12363563 72 18199177580438846326
12403259 327 17845924148594718906
12553582 1 18334569140433620640
12633257 1 17846771893408126208
12670545 47 16988850492220543828
12788726 201 18341909462717884200
13140716 1 18342737472177112945
13726171 33 17910711887493239596
13911987 19 14997720619875852238
14022347 108 18199489730008856700
16752209 62 18336816490682747549
17349148 13 18272089431093143669
17804303 29 18272653441307784129
17977361 122 18409441475474868179
1813 80 17532377457432354942
18186145 218 11819812103966806468
19049666 15 16843896239655650580
20281475 54 18261108638024919918
20291156 8 18335419127103678034
20600515 1 18273496766805779992
20645477 70 16515410659915217300
23184049 29 18196084662729838052
232386 152 18411133641297798020
23366157 5 18120654901027370997
23559900 14 17917443020616752716
23728640 28 18341892991776500475
238 59 15358240676458736434
2838139 119 13756414829798656947
338550 245 18190747435926105902
4340502 62 14548737313936253077
465052 167 18041859362790590849
5104073 3 18271812362610662225
5385378 56 17909275685495876265
58807428 26 18054802689023870265
602551 16 18271806792111691328

>  <PUBCHEM_SHAPE_MULTIPOLES>  (1) 
413.02
9.19
2.81
1.57
2.48
1.87
0.71
2.79
-1.59
-2.69
-0.27
1.81
0.01
-1.69

>  <PUBCHEM_SHAPE_SELFOVERLAP>  (1) 
887.877

>  <PUBCHEM_SHAPE_VOLUME>  (1) 
229.6

>  <PUBCHEM_COORDINATE_TYPE>  (1) 
2
5
10

$$$$
