39980
     RDKit          3D

 11 10  0  0  0  0  0  0  0  0999 V2000
   -3.1402    0.7826   -0.0221 O   0  0  0  0  0  0  0  0  0  0  0  0
   -2.3529   -1.3879   -0.1083 O   0  0  0  0  0  0  0  0  0  0  0  0
    2.5536    0.0611   -0.0978 N   0  0  0  0  0  0  0  0  0  0  0  0
    1.5206    0.3033    0.9426 C   0  0  0  0  0  0  0  0  0  0  0  0
    2.1337    0.6839   -1.4355 C   0  0  0  0  0  0  0  0  0  0  0  0
    3.8962    0.6771    0.3166 C   0  0  0  0  0  0  0  0  0  0  0  0
    2.7636   -1.4430   -0.3151 C   0  0  0  0  0  0  0  0  0  0  0  0
    0.1903   -0.2786    0.5856 C   0  0  0  0  0  0  0  0  0  0  0  0
   -0.9159    0.4602    0.4295 C   0  0  0  0  0  0  0  0  0  0  0  0
   -2.1941   -0.1906    0.0698 C   0  0  0  0  0  0  0  0  0  0  0  0
   -4.4548    0.3319   -0.3654 C   0  0  0  0  0  0  0  0  0  0  0  0
  1 10  1  0
  1 11  1  0
  2 10  2  0
  3  4  1  0
  3  5  1  0
  3  6  1  0
  3  7  1  0
  4  8  1  0
  8  9  2  0
  9 10  1  0
M  CHG  1   3   1
M  END
>  <PUBCHEM_COMPOUND_CID>  (1) 
39980

>  <PUBCHEM_CONFORMER_RMSD>  (1) 
0.6

>  <PUBCHEM_CONFORMER_DIVERSEORDER>  (1) 
2
4
1
3
5

>  <PUBCHEM_MMFF94_PARTIAL_CHARGES>  (1) 
13
1 -0.43
10 0.71
11 0.28
2 -0.57
23 0.15
24 0.15
3 -1.01
4 0.64
5 0.5
6 0.5
7 0.5
8 -0.29
9 -0.14

>  <PUBCHEM_EFFECTIVE_ROTOR_COUNT>  (1) 
4

>  <PUBCHEM_PHARMACOPHORE_FEATURES>  (1) 
2
1 2 acceptor
1 3 cation

>  <PUBCHEM_HEAVY_ATOM_COUNT>  (1) 
11

>  <PUBCHEM_ATOM_DEF_STEREO_COUNT>  (1) 
0

>  <PUBCHEM_ATOM_UDEF_STEREO_COUNT>  (1) 
0

>  <PUBCHEM_BOND_DEF_STEREO_COUNT>  (1) 
0

>  <PUBCHEM_BOND_UDEF_STEREO_COUNT>  (1) 
1

>  <PUBCHEM_ISOTOPIC_ATOM_COUNT>  (1) 
0

>  <PUBCHEM_COMPONENT_COUNT>  (1) 
1

>  <PUBCHEM_CACTVS_TAUTO_COUNT>  (1) 
1

>  <PUBCHEM_CONFORMER_ID>  (1) 
00009C2C00000002

>  <PUBCHEM_MMFF94_ENERGY>  (1) 
29.1373

>  <PUBCHEM_FEATURE_SELFOVERLAP>  (1) 
10.148

>  <PUBCHEM_SHAPE_FINGERPRINT>  (1) 
10857977 72 10953742213958765003
11062470 55 18060699493957447800
12251169 10 8430312416244414992
12932764 1 18060422451439727667
14251717 144 15051735274375867453
14325111 11 18412544314288797866
15775835 57 18273213110043146486
18186145 218 17022902358726728163
18342897 14 15719391737585523428
190213 19 18113339704375350105
20201158 50 16917072161155983254
20279233 1 17917713521445197194
20281407 28 14764629702908828841
20523700 14 18272089417622899991
20645477 56 18407758149169380729
20645477 70 18060139791057649686
20711985 344 16914566275562100600
21119208 17 18259987054465225142
21293036 1 17917990585754128569
22485316 2 17918269861617958383
23402539 116 18114172069163850436
3248919 1 17967536808584091490
581208 293 14836403623031297156
93112 12 18411702097066684541

>  <PUBCHEM_SHAPE_MULTIPOLES>  (1) 
209.66
7.57
1.12
0.97
4.33
0.37
-0.17
-0.83
-0.96
-0.31
-0.13
-0.56
-0.16
0.05

>  <PUBCHEM_SHAPE_SELFOVERLAP>  (1) 
388.804

>  <PUBCHEM_SHAPE_VOLUME>  (1) 
134.9

>  <PUBCHEM_COORDINATE_TYPE>  (1) 
2
5
10

$$$$
