39987
     RDKit          3D

 24 26  0  0  1  0  0  0  0  0999 V2000
   -0.6146   -0.2316   -0.5606 O   0  0  0  0  0  0  0  0  0  0  0  0
   -2.4806   -1.5970   -0.5069 O   0  0  0  0  0  0  0  0  0  0  0  0
    2.3401   -1.4257   -2.1059 O   0  0  0  0  0  0  0  0  0  0  0  0
    1.6074    0.0388    2.2056 O   0  0  0  0  0  0  0  0  0  0  0  0
    1.5637   -0.8395    0.0292 N   0  0  0  0  0  0  0  0  0  0  0  0
   -2.6579    1.9406   -0.5165 C   0  0  0  0  0  0  0  0  0  0  0  0
   -3.8977    1.0955   -0.5017 C   0  0  0  0  0  0  0  0  0  0  0  0
   -2.6878    0.6399   -1.2531 C   0  0  0  0  0  0  0  0  0  0  0  0
   -2.7102    3.2193   -1.2833 C   0  0  0  0  0  0  0  0  0  0  0  0
   -1.7962    2.0111    0.7001 C   0  0  0  0  0  0  0  0  0  0  0  0
   -4.2784    0.3673    0.6994 C   0  0  0  0  0  0  0  0  0  0  0  0
   -1.9319   -0.5280   -0.7331 C   0  0  0  0  0  0  0  0  0  0  0  0
   -5.0087   -0.7613    0.7819 C   0  0  0  0  0  0  0  0  0  0  0  0
    0.1924   -1.3003   -0.0607 C   0  0  0  0  0  0  0  0  0  0  0  0
   -5.3164   -1.3934    2.1109 C   0  0  0  0  0  0  0  0  0  0  0  0
   -5.5724   -1.4809   -0.4106 C   0  0  0  0  0  0  0  0  0  0  0  0
    3.7197   -0.3609   -0.4803 C   0  0  0  0  0  0  0  0  0  0  0  0
    3.5079    0.0581    0.7699 C   0  0  0  0  0  0  0  0  0  0  0  0
    5.0124   -0.2557   -1.2017 C   0  0  0  0  0  0  0  0  0  0  0  0
    4.5228    0.7259    1.6226 C   0  0  0  0  0  0  0  0  0  0  0  0
    6.1559    0.0987   -0.2361 C   0  0  0  0  0  0  0  0  0  0  0  0
    5.7413    1.1621    0.7917 C   0  0  0  0  0  0  0  0  0  0  0  0
    2.4756   -0.9510   -0.9913 C   0  0  0  0  0  0  0  0  0  0  0  0
    2.1135   -0.2322    1.1304 C   0  0  0  0  0  0  0  0  0  0  0  0
  1 12  1  0
  1 14  1  0
  2 12  2  0
  3 23  2  0
  4 24  2  0
  5 14  1  0
  5 23  1  0
  5 24  1  0
  6  7  1  0
  6  8  1  0
  6  9  1  0
  6 10  1  0
  7  8  1  0
  7 11  1  0
  8 12  1  0
 11 13  2  3
 13 15  1  0
 13 16  1  0
 17 18  2  0
 17 19  1  0
 17 23  1  0
 18 20  1  0
 18 24  1  0
 19 21  1  0
 20 22  1  0
 21 22  1  0
M  END
>  <PUBCHEM_COMPOUND_CID>  (1) 
39987

>  <PUBCHEM_CONFORMER_RMSD>  (1) 
0.8

>  <PUBCHEM_CONFORMER_DIVERSEORDER>  (1) 
1
8
44
48
41
12
42
24
26
45
53
57
37
21
16
52
13
46
14
36
20
38
49
19
60
47
10
56
18
34
63
61
29
5
65
7
40
54
39
31
43
30
15
28
67
25
11
35
51
3
50
58
66
32
17
64
55
33
62
2
22
59
9
23
6
4
27

>  <PUBCHEM_MMFF94_PARTIAL_CHARGES>  (1) 
25
1 -0.43
10 0.09
11 -0.19
12 0.72
13 -0.28
14 0.58
15 0.14
16 0.14
17 -0.12
18 -0.12
19 0.14
2 -0.57
20 0.14
23 0.62
24 0.62
25 0.1
26 0.1
3 -0.57
33 0.15
4 -0.57
5 -0.42
6 -0.19
7 -0.06
8 -0.1
9 0.09

>  <PUBCHEM_EFFECTIVE_ROTOR_COUNT>  (1) 
6.6

>  <PUBCHEM_PHARMACOPHORE_FEATURES>  (1) 
7
1 2 acceptor
1 3 acceptor
1 4 acceptor
3 13 15 16 hydrophobe
3 6 9 10 hydrophobe
5 5 17 18 23 24 rings
6 17 18 19 20 21 22 rings

>  <PUBCHEM_HEAVY_ATOM_COUNT>  (1) 
24

>  <PUBCHEM_ATOM_DEF_STEREO_COUNT>  (1) 
2

>  <PUBCHEM_ATOM_UDEF_STEREO_COUNT>  (1) 
0

>  <PUBCHEM_BOND_DEF_STEREO_COUNT>  (1) 
0

>  <PUBCHEM_BOND_UDEF_STEREO_COUNT>  (1) 
0

>  <PUBCHEM_ISOTOPIC_ATOM_COUNT>  (1) 
0

>  <PUBCHEM_COMPONENT_COUNT>  (1) 
1

>  <PUBCHEM_CACTVS_TAUTO_COUNT>  (1) 
1

>  <PUBCHEM_CONFORMER_ID>  (1) 
00009C3300000001

>  <PUBCHEM_MMFF94_ENERGY>  (1) 
33.2916

>  <PUBCHEM_FEATURE_SELFOVERLAP>  (1) 
35.596

>  <PUBCHEM_SHAPE_FINGERPRINT>  (1) 
10366900 7 18260263066792265875
10498660 4 18267857281593851420
10670039 82 18187931630166783492
11370993 144 17559974142717197019
11595378 159 18113889442750828120
12166972 35 18113623387356057052
12236239 1 17167861959143284846
12403259 415 18131064935827507008
12596602 18 17312819386037500648
12730499 353 17989492922405085694
12788726 201 17822008705813021241
12916748 109 18407477765272280954
13402501 40 18131349730233558955
13631057 29 17168148992050530075
13782708 43 18342183215496546582
14251752 14 12823025200668391050
14341114 328 17240486857857185605
15081414 286 17489304209536489608
15183329 4 14189578528796885520
15537594 2 15339119022210554764
15880784 105 15430032158296055416
17349148 13 15357700777209618512
17857418 61 14851602197857833690
19377110 9 17168152204353842137
200 152 15068622699600581727
20028762 73 15864064391062929530
20511986 3 15719662256111088243
20645477 56 18273492368690119022
20645477 70 16917072140367105342
21033648 29 18058997415556013329
21065198 48 17386278801238876352
21792961 116 18131362886858058166
221357 26 16988553581147312688
23402539 116 12107781921954760047
23557571 272 18411989056806374798
23559900 14 17908131084378240855
351380 180 12829207780083815480
44062 13 10879696702951104893
469060 322 18115041744238734897
497634 4 16558739153243507373
5104073 3 18264770965133286538
542803 24 15051734191869924655
633830 44 15769483326972959048
6442390 28 18413953888270050926
9849439 229 17539960685744917669

>  <PUBCHEM_SHAPE_MULTIPOLES>  (1) 
465.45
14.39
2.08
1.71
5.82
1.67
0.32
-1.46
2.52
-3.33
-0.3
0.61
-0.34
1.6

>  <PUBCHEM_SHAPE_SELFOVERLAP>  (1) 
986.433

>  <PUBCHEM_SHAPE_VOLUME>  (1) 
263.3

>  <PUBCHEM_COORDINATE_TYPE>  (1) 
2
5
10

$$$$
