39984
     RDKit          3D

 20 21  0  0  0  0  0  0  0  0999 V2000
   -3.6849    1.8437    1.8113 Cl  0  0  0  0  0  0  0  0  0  0  0  0
   -5.3723   -2.8997   -0.1047 Cl  0  0  0  0  0  0  0  0  0  0  0  0
   -1.6588    1.6418   -0.3992 O   0  0  0  0  0  0  0  0  0  0  0  0
    3.7161    0.5477    0.1432 O   0  0  0  0  0  0  0  0  0  0  0  0
    5.7570   -2.3561    0.6650 O   0  0  0  0  0  0  0  0  0  0  0  0
    6.0772   -0.5403   -0.6721 O   0  0  0  0  0  0  0  0  0  0  0  0
   -0.3317    1.3705   -0.2658 C   0  0  0  0  0  0  0  0  0  0  0  0
    2.3890    0.8179    0.0089 C   0  0  0  0  0  0  0  0  0  0  0  0
   -2.5446    0.5810   -0.3114 C   0  0  0  0  0  0  0  0  0  0  0  0
    0.1086    0.5234    0.7510 C   0  0  0  0  0  0  0  0  0  0  0  0
    0.5883    1.9415   -1.1454 C   0  0  0  0  0  0  0  0  0  0  0  0
    1.4689    0.2471    0.8884 C   0  0  0  0  0  0  0  0  0  0  0  0
    1.9486    1.6652   -1.0080 C   0  0  0  0  0  0  0  0  0  0  0  0
   -3.5227    0.5627    0.6674 C   0  0  0  0  0  0  0  0  0  0  0  0
   -2.4181   -0.4486   -1.2285 C   0  0  0  0  0  0  0  0  0  0  0  0
   -4.4019   -0.5185    0.7318 C   0  0  0  0  0  0  0  0  0  0  0  0
   -3.2973   -1.5295   -1.1641 C   0  0  0  0  0  0  0  0  0  0  0  0
   -4.2891   -1.5645   -0.1839 C   0  0  0  0  0  0  0  0  0  0  0  0
    4.0684   -0.7256    0.6822 C   0  0  0  0  0  0  0  0  0  0  0  0
    5.3994   -1.1598    0.1340 C   0  0  0  0  0  0  0  0  0  0  0  0
  1 14  1  0
  2 18  1  0
  3  7  1  0
  3  9  1  0
  4  8  1  0
  4 19  1  0
  5 20  1  0
  6 20  2  0
  7 10  2  0
  7 11  1  0
  8 12  2  0
  8 13  1  0
  9 14  2  0
  9 15  1  0
 10 12  1  0
 11 13  2  0
 14 16  1  0
 15 17  2  0
 16 18  2  0
 17 18  1  0
 19 20  1  0
M  END
>  <PUBCHEM_COMPOUND_CID>  (1) 
39984

>  <PUBCHEM_CONFORMER_RMSD>  (1) 
0.8

>  <PUBCHEM_CONFORMER_DIVERSEORDER>  (1) 
1
30
22
26
11
32
5
18
24
33
35
10
23
21
19
27
29
12
7
14
8
37
25
17
36
2
34
4
13
9
15
6
16
31
28
3
20

>  <PUBCHEM_MMFF94_PARTIAL_CHARGES>  (1) 
28
1 -0.18
10 -0.15
11 -0.15
12 -0.15
13 -0.15
14 0.18
15 -0.15
16 -0.15
17 -0.15
18 0.18
19 0.34
2 -0.18
20 0.66
21 0.15
22 0.15
23 0.15
24 0.15
25 0.15
26 0.15
27 0.15
3 -0.17
30 0.5
4 -0.36
5 -0.65
6 -0.57
7 0.08
8 0.08
9 0.08

>  <PUBCHEM_EFFECTIVE_ROTOR_COUNT>  (1) 
5

>  <PUBCHEM_PHARMACOPHORE_FEATURES>  (1) 
7
1 3 acceptor
1 4 acceptor
1 5 acceptor
1 6 acceptor
3 5 6 20 anion
6 7 8 10 11 12 13 rings
6 9 14 15 16 17 18 rings

>  <PUBCHEM_HEAVY_ATOM_COUNT>  (1) 
20

>  <PUBCHEM_ATOM_DEF_STEREO_COUNT>  (1) 
0

>  <PUBCHEM_ATOM_UDEF_STEREO_COUNT>  (1) 
0

>  <PUBCHEM_BOND_DEF_STEREO_COUNT>  (1) 
0

>  <PUBCHEM_BOND_UDEF_STEREO_COUNT>  (1) 
0

>  <PUBCHEM_ISOTOPIC_ATOM_COUNT>  (1) 
0

>  <PUBCHEM_COMPONENT_COUNT>  (1) 
1

>  <PUBCHEM_CACTVS_TAUTO_COUNT>  (1) 
1

>  <PUBCHEM_CONFORMER_ID>  (1) 
00009C3000000001

>  <PUBCHEM_MMFF94_ENERGY>  (1) 
61.7641

>  <PUBCHEM_FEATURE_SELFOVERLAP>  (1) 
35.585

>  <PUBCHEM_SHAPE_FINGERPRINT>  (1) 
10498660 4 12035719929574636383
11036077 4 18201442428937774075
11046707 91 18411412903949548277
11543360 7 12829495835277854672
12236239 1 18410579517597193473
12596602 18 18060701697792486578
12633257 1 16056317361896270583
12895836 83 11242238672383652759
12916754 54 18335137639606380669
13009979 54 18341339976061342241
13103583 49 18201446834999603072
13167823 11 18342737429554208136
13288520 33 18409729551663176117
13533116 47 18195526111276537169
13583140 156 16558742378209883056
13675066 3 16200433555047364092
14178000 29 18259983777954045076
14178342 30 18059306383066524997
1420 369 18409725196671904414
14420673 8 17986402091924018446
14576447 43 18040990752809840098
14767858 380 17749683952188189366
15188451 53 17775278413623902927
15537594 2 18188493467359710330
15880784 105 18342459261570583576
17780758 139 18131066000399083176
1813 80 18261684696561608884
18222031 100 18186512224641892632
193927 3 18333733541365993338
19422 9 18337960094571235397
19784866 240 18334293210507674191
200 152 17968934322897985681
20281475 54 18410856589794666764
20621476 21 18129954377729040862
20645477 70 17604703507625704757
20871999 31 12757154610474470233
21033648 29 15195022534928799153
21065198 48 18270967946038641273
22950370 63 18408887313398820988
23379529 103 18042692895188359627
23402539 116 17968376749969325368
23503958 8 18272088318533070683
235170 7 14996282466555185506
23522609 53 18120969190213554196
23559900 14 18339629127094004905
270888 7 9511195048697648679
2838139 119 8430308031352181822
312423 11 18337961193766475525
312425 54 18272929389093829354
314194 84 18113907044070113304
34797466 226 13912617043207944346
351380 3 18335136484175768978
441001 317 8430311342217689364
5104073 3 18059852870357501896
559249 180 18410853240442394663
5924683 9 16128078049218907535
76465 3 18408882962064219796
7808743 9 8214153940840988391
7970288 3 18335416910875049995

>  <PUBCHEM_SHAPE_MULTIPOLES>  (1) 
391.85
13.12
2.51
1.26
12.49
0.93
-0.07
11.14
-1.88
-1.5
-0.02
-0.61
-0.41
-1.82

>  <PUBCHEM_SHAPE_SELFOVERLAP>  (1) 
821.527

>  <PUBCHEM_SHAPE_VOLUME>  (1) 
222.4

>  <PUBCHEM_COORDINATE_TYPE>  (1) 
2
5
10

$$$$
