39989
     RDKit          3D

 21 22  0  0  1  0  0  0  0  0999 V2000
    2.8666   -2.2052    0.5287 O   0  0  0  0  0  0  0  0  0  0  0  0
    5.0132   -1.4337    0.2193 O   0  0  0  0  0  0  0  0  0  0  0  0
   -2.4429    1.8684    0.7072 N   0  0  0  0  0  0  0  0  0  0  0  0
   -1.1752    1.4926    0.0822 C   0  0  0  0  0  0  0  0  0  0  0  0
    0.0354    1.9436    0.8958 C   0  0  0  0  0  0  0  0  0  0  0  0
   -3.5688    1.3498   -0.0687 C   0  0  0  0  0  0  0  0  0  0  0  0
    1.3487    1.5844    0.2452 C   0  0  0  0  0  0  0  0  0  0  0  0
   -3.5027   -0.1466   -0.2218 C   0  0  0  0  0  0  0  0  0  0  0  0
   -2.5378    3.3220    0.8367 C   0  0  0  0  0  0  0  0  0  0  0  0
    1.9416    0.3657    0.5367 C   0  0  0  0  0  0  0  0  0  0  0  0
    1.9400    2.4799   -0.6324 C   0  0  0  0  0  0  0  0  0  0  0  0
    3.1559    0.0344   -0.0642 C   0  0  0  0  0  0  0  0  0  0  0  0
   -2.8337   -0.6935   -1.3078 C   0  0  0  0  0  0  0  0  0  0  0  0
   -4.1121   -0.9580    0.7250 C   0  0  0  0  0  0  0  0  0  0  0  0
    3.1544    2.1486   -1.2334 C   0  0  0  0  0  0  0  0  0  0  0  0
    3.7623    0.9258   -0.9494 C   0  0  0  0  0  0  0  0  0  0  0  0
   -2.7727   -2.0798   -1.4499 C   0  0  0  0  0  0  0  0  0  0  0  0
   -4.0511   -2.3443    0.5831 C   0  0  0  0  0  0  0  0  0  0  0  0
   -3.3814   -2.9051   -0.5045 C   0  0  0  0  0  0  0  0  0  0  0  0
    3.7903   -1.2404    0.2318 C   0  0  0  0  0  0  0  0  0  0  0  0
    3.3699   -3.5088    0.8403 C   0  0  0  0  0  0  0  0  0  0  0  0
  1 20  1  0
  1 21  1  0
  2 20  2  0
  3  4  1  0
  3  6  1  0
  3  9  1  0
  4  5  1  0
  5  7  1  0
  6  8  1  0
  7 10  2  0
  7 11  1  0
  8 13  2  0
  8 14  1  0
 10 12  1  0
 11 15  2  0
 12 16  2  0
 12 20  1  0
 13 17  1  0
 14 18  2  0
 15 16  1  0
 17 19  2  0
 18 19  1  0
M  END
>  <PUBCHEM_COMPOUND_CID>  (1) 
39989

>  <PUBCHEM_CONFORMER_RMSD>  (1) 
0.8

>  <PUBCHEM_CONFORMER_DIVERSEORDER>  (1) 
1
32
119
47
139
43
59
63
153
88
37
82
61
54
16
101
34
113
52
46
95
145
132
90
55
2
156
51
18
28
58
8
4
27
73
116
130
114
110
11
122
141
60
42
127
133
24
45
65
62
20
112
3
120
31
71
147
135
86
12
100
26
44
142
138
5
23
155
10
97
83
143
56
57
9
140
17
39
33
92
35
98
74
80
117
49
69
93
53
152
134
115
131
136
70
79
50
22
77
78
123
111
85
137
96
25
40
105
148
64
89
102
125
104
7
121
109
36
66
106
107
126
91
154
84
15
13
81
144
76
128
118
67
103
99
124
6
146
30
41
75
94
150
38
129
68
19
108
48
151
14
149
87
21
29
72

>  <PUBCHEM_MMFF94_PARTIAL_CHARGES>  (1) 
30
1 -0.43
10 -0.15
11 -0.15
12 0.09
13 -0.15
14 -0.15
15 -0.15
16 -0.15
17 -0.15
18 -0.15
19 -0.15
2 -0.57
20 0.63
21 0.28
3 -0.81
31 0.15
32 0.15
33 0.15
34 0.15
35 0.15
36 0.15
37 0.15
38 0.15
39 0.15
4 0.27
5 0.14
6 0.41
7 -0.14
8 -0.14
9 0.27

>  <PUBCHEM_EFFECTIVE_ROTOR_COUNT>  (1) 
7

>  <PUBCHEM_PHARMACOPHORE_FEATURES>  (1) 
4
1 2 acceptor
1 3 cation
6 7 10 11 12 15 16 rings
6 8 13 14 17 18 19 rings

>  <PUBCHEM_HEAVY_ATOM_COUNT>  (1) 
21

>  <PUBCHEM_ATOM_DEF_STEREO_COUNT>  (1) 
0

>  <PUBCHEM_ATOM_UDEF_STEREO_COUNT>  (1) 
0

>  <PUBCHEM_BOND_DEF_STEREO_COUNT>  (1) 
0

>  <PUBCHEM_BOND_UDEF_STEREO_COUNT>  (1) 
0

>  <PUBCHEM_ISOTOPIC_ATOM_COUNT>  (1) 
0

>  <PUBCHEM_COMPONENT_COUNT>  (1) 
1

>  <PUBCHEM_CACTVS_TAUTO_COUNT>  (1) 
1

>  <PUBCHEM_CONFORMER_ID>  (1) 
00009C3500000001

>  <PUBCHEM_MMFF94_ENERGY>  (1) 
63.2274

>  <PUBCHEM_FEATURE_SELFOVERLAP>  (1) 
20.297

>  <PUBCHEM_SHAPE_FINGERPRINT>  (1) 
10616163 171 18413675703285190071
10759866 29 18336835276716421060
10928967 22 18127699437772003023
11315621 136 18335149700148906606
114674 6 17261863868246821379
12174731 88 17540520332762909026
12553582 1 18127409171202335373
12633257 1 17274274953800964385
12788726 201 18130521781183447385
13257819 101 14636018827961413670
13726171 33 17701007514910848040
13899415 180 17458615688959203148
14117953 113 17329425047820952830
14576447 43 18336834198991093228
15099037 8 18410012121841086833
15250474 111 18410575080368131118
15537594 2 18197793291199473183
17349148 13 18042395988705182976
17492 89 18409169908850949211
19141452 34 18121782720968789192
20281475 54 18411983597998224649
20291156 8 18269557320128387677
21054139 6 18264495147446409444
21315759 227 18114456855102138394
21634736 98 18408324388951446448
221490 88 18335143124094774040
235170 7 17168975850036809671
23559900 14 18340476833363398448
23598288 3 18202001032073360917
23728640 28 18201155439233695513
312425 83 17530951493302695309
339767 52 18337938001032501178
340366 18 18045227046189000701
341906 21 11098129024087582924
3737641 26 18193290795373708971
4283 87 18335134259277318786
463206 1 18050850210683271163
5309563 4 17979921841205142871
53777708 50 18410023138559165280
633830 44 16732991894353824908
88748 71 18335423452088642723

>  <PUBCHEM_SHAPE_MULTIPOLES>  (1) 
415.45
10.06
4.27
1.15
1.34
1.14
0.25
5.76
0.34
0.03
-0.77
-0.22
0.05
-2.21

>  <PUBCHEM_SHAPE_SELFOVERLAP>  (1) 
871.072

>  <PUBCHEM_SHAPE_VOLUME>  (1) 
235.7

>  <PUBCHEM_COORDINATE_TYPE>  (1) 
2
5
10

$$$$
