39998
     RDKit          3D

 14 15  0  0  1  0  0  0  0  0999 V2000
    3.1436    0.6658    0.4867 O   0  0  0  0  0  0  0  0  0  0  0  0
    2.5276   -1.9913   -0.0351 O   0  0  0  0  0  0  0  0  0  0  0  0
   -3.1618    0.2157   -0.7074 N   0  0  0  0  0  0  0  0  0  0  0  0
   -2.2466   -0.9042   -0.4169 C   0  0  0  0  0  0  0  0  0  0  0  0
   -0.8096   -0.4755   -0.1832 C   0  0  0  0  0  0  0  0  0  0  0  0
   -0.4942    0.8681    0.0898 C   0  0  0  0  0  0  0  0  0  0  0  0
   -1.5697    1.9228    0.0827 C   0  0  0  0  0  0  0  0  0  0  0  0
   -2.9708    1.3303    0.2222 C   0  0  0  0  0  0  0  0  0  0  0  0
   -2.7829   -1.7385    0.7525 C   0  0  0  0  0  0  0  0  0  0  0  0
    0.2219   -1.4266   -0.2206 C   0  0  0  0  0  0  0  0  0  0  0  0
    0.8402    1.2391    0.3067 C   0  0  0  0  0  0  0  0  0  0  0  0
    1.8540    0.2828    0.2702 C   0  0  0  0  0  0  0  0  0  0  0  0
    1.5453   -1.0489    0.0066 C   0  0  0  0  0  0  0  0  0  0  0  0
    3.9031    1.0604   -0.6544 C   0  0  0  0  0  0  0  0  0  0  0  0
  1 12  1  0
  1 14  1  0
  2 13  1  0
  3  4  1  0
  3  8  1  0
  4  5  1  0
  4  9  1  0
  5  6  2  0
  5 10  1  0
  6  7  1  0
  6 11  1  0
  7  8  1  0
 10 13  2  0
 11 12  2  0
 12 13  1  0
M  END
>  <PUBCHEM_COMPOUND_CID>  (1) 
39998

>  <PUBCHEM_CONFORMER_RMSD>  (1) 
0.6

>  <PUBCHEM_CONFORMER_DIVERSEORDER>  (1) 
2
1

>  <PUBCHEM_MMFF94_PARTIAL_CHARGES>  (1) 
17
1 -0.36
10 -0.15
11 -0.15
12 0.08
13 0.08
14 0.28
2 -0.53
20 0.36
24 0.15
25 0.15
26 0.45
3 -0.9
4 0.41
5 -0.14
6 -0.14
7 0.14
8 0.27

>  <PUBCHEM_EFFECTIVE_ROTOR_COUNT>  (1) 
1.8

>  <PUBCHEM_PHARMACOPHORE_FEATURES>  (1) 
6
1 1 acceptor
1 2 donor
1 3 cation
1 3 donor
6 3 4 5 6 7 8 rings
6 5 6 10 11 12 13 rings

>  <PUBCHEM_HEAVY_ATOM_COUNT>  (1) 
14

>  <PUBCHEM_ATOM_DEF_STEREO_COUNT>  (1) 
1

>  <PUBCHEM_ATOM_UDEF_STEREO_COUNT>  (1) 
0

>  <PUBCHEM_BOND_DEF_STEREO_COUNT>  (1) 
0

>  <PUBCHEM_BOND_UDEF_STEREO_COUNT>  (1) 
0

>  <PUBCHEM_ISOTOPIC_ATOM_COUNT>  (1) 
0

>  <PUBCHEM_COMPONENT_COUNT>  (1) 
1

>  <PUBCHEM_CACTVS_TAUTO_COUNT>  (1) 
3

>  <PUBCHEM_CONFORMER_ID>  (1) 
00009C3E00000002

>  <PUBCHEM_MMFF94_ENERGY>  (1) 
39.8982

>  <PUBCHEM_FEATURE_SELFOVERLAP>  (1) 
30.467

>  <PUBCHEM_SHAPE_FINGERPRINT>  (1) 
10608611 8 18411413977723170200
10967382 1 18411979139610810897
11132069 177 18410285926248702496
11206711 2 18341325677703679397
12138202 97 18114730595279981447
12491281 212 18201726098247367873
12932764 1 17632570582560530330
13140716 1 18268429036166413074
13380535 21 18340215102287342056
13380535 76 18411412886764371859
14144814 61 18412822477850978585
14325111 11 18412542080969211248
15219456 202 18410859845353340947
15442244 35 18124031226505180306
15536298 74 18272367525999261182
15775835 57 18342742888125598265
16945 1 18270392922699522610
17844478 74 18337399347687889899
18186145 218 18041560239307950886
19591789 44 16317260315967454125
19973954 147 18411418380059036051
20201158 50 18409722993522447611
20871998 184 18272654579938036023
21501502 16 18341047411072501467
22802520 49 18128835056999510094
2334 1 18412824668405644666
23402539 116 18270674385556411132
23402655 69 18271229535944311549
23463225 33 18337947883868079322
23493267 7 18114457941749287722
23552423 10 18335699378030760818
23559900 14 18197213647294228414
25610 137 18336834198478967819
2748010 2 18341331106615986510
3248919 1 18334846212725961578
3312278 4 18410293644246599289
528886 8 18411972572663883241
53812653 166 18201430398360169296
57096353 35 18341606048857743637
63268167 104 18342738485810260025
7364860 26 18199746947569273206
8030462 33 18343575244176341213
8809292 202 18336268925154377123

>  <PUBCHEM_SHAPE_MULTIPOLES>  (1) 
271.39
5.6
2.06
0.75
2.21
0.24
0.01
-0.66
0.37
-0.41
-0.14
-0.09
0.02
0.07

>  <PUBCHEM_SHAPE_SELFOVERLAP>  (1) 
571.861

>  <PUBCHEM_SHAPE_VOLUME>  (1) 
153.3

>  <PUBCHEM_COORDINATE_TYPE>  (1) 
2
5
10

$$$$
