3999
     RDKit          3D

 25 28  0  0  1  0  0  0  0  0999 V2000
   -1.2827   -2.4793   -0.6528 O   0  0  0  0  0  0  0  0  0  0  0  0
    0.8408   -4.0754   -0.4886 O   0  0  0  0  0  0  0  0  0  0  0  0
   -2.7609   -1.2370    0.7436 O   0  0  0  0  0  0  0  0  0  0  0  0
   -4.7796    0.4914    0.5474 O   0  0  0  0  0  0  0  0  0  0  0  0
    2.9663    2.0435    0.0711 N   0  0  0  0  0  0  0  0  0  0  0  0
    1.5201    1.5098    0.3088 C   0  0  0  0  0  0  0  0  0  0  0  0
    3.9403    1.0874    0.7798 C   0  0  0  0  0  0  0  0  0  0  0  0
    1.3424    0.0134    0.0838 C   0  0  0  0  0  0  0  0  0  0  0  0
    0.4823    2.3038   -0.5086 C   0  0  0  0  0  0  0  0  0  0  0  0
    3.8595   -0.3184    0.2006 C   0  0  0  0  0  0  0  0  0  0  0  0
    2.4567   -0.8460    0.0771 C   0  0  0  0  0  0  0  0  0  0  0  0
    3.1396    3.4227    0.7230 C   0  0  0  0  0  0  0  0  0  0  0  0
    3.3262    2.1747   -1.4099 C   0  0  0  0  0  0  0  0  0  0  0  0
    0.0272   -0.5043   -0.0491 C   0  0  0  0  0  0  0  0  0  0  0  0
   -0.9163    1.8032   -0.2219 C   0  0  0  0  0  0  0  0  0  0  0  0
   -1.1304    0.4226   -0.0088 C   0  0  0  0  0  0  0  0  0  0  0  0
    2.2669   -2.2196   -0.1104 C   0  0  0  0  0  0  0  0  0  0  0  0
   -0.1202   -1.8901   -0.2347 C   0  0  0  0  0  0  0  0  0  0  0  0
    0.9868   -2.7379   -0.2654 C   0  0  0  0  0  0  0  0  0  0  0  0
   -1.9911    2.7053   -0.2207 C   0  0  0  0  0  0  0  0  0  0  0  0
   -2.4471   -0.0010    0.2460 C   0  0  0  0  0  0  0  0  0  0  0  0
   -3.5115    0.9052    0.2621 C   0  0  0  0  0  0  0  0  0  0  0  0
   -3.2848    2.2559    0.0239 C   0  0  0  0  0  0  0  0  0  0  0  0
    0.6560   -4.9055    0.6555 C   0  0  0  0  0  0  0  0  0  0  0  0
   -5.5864    0.0754   -0.5517 C   0  0  0  0  0  0  0  0  0  0  0  0
  1 18  1  0
  2 19  1  0
  2 24  1  0
  3 21  1  0
  4 22  1  0
  4 25  1  0
  5  6  1  0
  5  7  1  0
  5 12  1  0
  5 13  1  0
  6  8  1  0
  6  9  1  0
  7 10  1  0
  8 11  2  0
  8 14  1  0
  9 15  1  0
 10 11  1  0
 11 17  1  0
 14 16  1  0
 14 18  2  0
 15 16  2  0
 15 20  1  0
 16 21  1  0
 17 19  2  0
 18 19  1  0
 20 23  2  0
 21 22  2  0
 22 23  1  0
M  CHG  1   5   1
M  END
>  <PUBCHEM_COMPOUND_CID>  (1) 
3999

>  <PUBCHEM_CONFORMER_RMSD>  (1) 
0.6

>  <PUBCHEM_CONFORMER_DIVERSEORDER>  (1) 
3
5
7
1
4
6
2
8

>  <PUBCHEM_MMFF94_PARTIAL_CHARGES>  (1) 
28
1 -0.53
10 0.14
11 -0.14
12 0.5
13 0.5
15 -0.14
17 -0.15
18 0.08
19 0.08
2 -0.36
20 -0.15
21 0.08
22 0.08
23 -0.15
24 0.28
25 0.28
3 -0.53
39 0.15
4 -0.36
40 0.15
41 0.15
42 0.45
43 0.45
5 -1.01
6 0.65
7 0.5
8 -0.14
9 0.14

>  <PUBCHEM_EFFECTIVE_ROTOR_COUNT>  (1) 
2.8

>  <PUBCHEM_PHARMACOPHORE_FEATURES>  (1) 
9
1 1 donor
1 2 acceptor
1 3 donor
1 4 acceptor
1 5 cation
6 15 16 20 21 22 23 rings
6 5 6 7 8 10 11 rings
6 6 8 9 14 15 16 rings
6 8 11 14 17 18 19 rings

>  <PUBCHEM_HEAVY_ATOM_COUNT>  (1) 
25

>  <PUBCHEM_ATOM_DEF_STEREO_COUNT>  (1) 
0

>  <PUBCHEM_ATOM_UDEF_STEREO_COUNT>  (1) 
1

>  <PUBCHEM_BOND_DEF_STEREO_COUNT>  (1) 
0

>  <PUBCHEM_BOND_UDEF_STEREO_COUNT>  (1) 
0

>  <PUBCHEM_ISOTOPIC_ATOM_COUNT>  (1) 
0

>  <PUBCHEM_COMPONENT_COUNT>  (1) 
1

>  <PUBCHEM_CACTVS_TAUTO_COUNT>  (1) 
43

>  <PUBCHEM_CONFORMER_ID>  (1) 
00000F9F00000003

>  <PUBCHEM_MMFF94_ENERGY>  (1) 
117.8271

>  <PUBCHEM_FEATURE_SELFOVERLAP>  (1) 
45.789

>  <PUBCHEM_SHAPE_FINGERPRINT>  (1) 
10074138 170 17763149807946933978
10090160 65 18409721872667839311
10411042 1 17618504281663213999
10616163 171 18408608079909787721
10906281 52 18261692423587809249
10967382 1 18411137991751366228
1100329 8 18411978087876839834
11370993 70 18412538842553483216
12107183 9 17406843882738161361
12173636 292 18267862959445249124
12403259 226 17830735357355607237
12553582 1 17044302965134211007
12592029 89 18411984632895042913
12788726 201 16893991505683050868
12839892 36 18338219514421032355
13140716 1 18410570725340111858
13583140 156 16951382421606442568
138480 1 17979073778120621962
14178342 30 18124306104512728280
14223421 5 18264770943822077205
14787075 74 17988354979336046385
14790565 3 18194129727093871437
14863182 85 18262533575357008693
15042514 8 17905326587193363978
16728300 4 17390759221571985562
16945 1 18338797797428805444
17138139 8 17485337270436176719
17492 89 18195244413289159211
19591789 44 18411422829856125372
19930381 70 18266456503879596409
20028762 73 18272923951317572967
20739085 24 18262539029707485705
20905425 154 17907300949004288790
21197605 99 18267030642782772795
21267235 1 18410019805637455241
21285901 2 17821720612339667669
21524375 3 18273214213696591774
221490 88 18049729520624142219
22149856 69 18337973255147174457
2334 1 18266458896086735430
23366157 5 18044102254414712335
23558518 356 18119256052065045289
23559900 14 18266452097190552641
2748010 2 18337118954821255204
3091708 16 9189875960755060618
335352 9 18411981390949303252
350125 39 18410012156691286052
5104073 3 18266180526751448657
58807428 26 18339907282403393794
59755656 215 18337391530995214797
6438718 38 17629205097822061814
7364860 26 18267868289599720964
7808743 9 17906172103199118336
81228 2 17621864814061193746
9709674 26 18264776450376365163

>  <PUBCHEM_SHAPE_MULTIPOLES>  (1) 
486.03
7.57
4.98
0.84
7.27
5.04
-0.08
-3.97
0.37
-3.18
0.1
-0.29
-0.17
0.06

>  <PUBCHEM_SHAPE_SELFOVERLAP>  (1) 
1066.946

>  <PUBCHEM_SHAPE_VOLUME>  (1) 
263.9

>  <PUBCHEM_COORDINATE_TYPE>  (1) 
2
5
10

$$$$
