40
     RDKit          3D

 11 11  0  0  1  0  0  0  0  0999 V2000
    0.7374    1.0507   -0.2079 O   0  0  0  0  0  0  0  0  0  0  0  0
   -0.0913   -2.4948    0.3200 O   0  0  0  0  0  0  0  0  0  0  0  0
   -2.6436   -1.3048   -0.3320 O   0  0  0  0  0  0  0  0  0  0  0  0
   -0.5599    2.9955   -0.0738 O   0  0  0  0  0  0  0  0  0  0  0  0
    3.2884    0.0743    0.0739 O   0  0  0  0  0  0  0  0  0  0  0  0
   -0.2442   -1.1776   -0.2024 C   0  0  0  0  0  0  0  0  0  0  0  0
   -1.5725   -0.5903    0.2785 C   0  0  0  0  0  0  0  0  0  0  0  0
    0.9338   -0.2962    0.2327 C   0  0  0  0  0  0  0  0  0  0  0  0
   -1.6703    0.8853   -0.0913 C   0  0  0  0  0  0  0  0  0  0  0  0
   -0.4291    1.6457    0.3603 C   0  0  0  0  0  0  0  0  0  0  0  0
    2.2514   -0.7876   -0.3581 C   0  0  0  0  0  0  0  0  0  0  0  0
  1  8  1  0
  1 10  1  0
  2  6  1  0
  3  7  1  0
  4 10  1  0
  5 11  1  0
  6  7  1  0
  6  8  1  0
  7  9  1  0
  8 11  1  0
  9 10  1  0
M  END
>  <PUBCHEM_COMPOUND_CID>  (1) 
40

>  <PUBCHEM_CONFORMER_RMSD>  (1) 
0.6

>  <PUBCHEM_CONFORMER_DIVERSEORDER>  (1) 
2
43
44
8
32
35
21
46
22
16
36
48
14
1
49
5
10
39
9
11
7
13
30
20
18
34
25
38
23
41
3
29
47
33
26
17
28
40
37
45
12
27
31
15
6
4
19
24
42

>  <PUBCHEM_MMFF94_PARTIAL_CHARGES>  (1) 
14
1 -0.56
10 0.56
11 0.28
2 -0.68
20 0.4
21 0.4
22 0.4
23 0.4
3 -0.68
4 -0.68
5 -0.68
6 0.28
7 0.28
8 0.28

>  <PUBCHEM_EFFECTIVE_ROTOR_COUNT>  (1) 
2.2

>  <PUBCHEM_PHARMACOPHORE_FEATURES>  (1) 
10
1 1 acceptor
1 2 acceptor
1 2 donor
1 3 acceptor
1 3 donor
1 4 acceptor
1 4 donor
1 5 acceptor
1 5 donor
6 1 6 7 8 9 10 rings

>  <PUBCHEM_HEAVY_ATOM_COUNT>  (1) 
11

>  <PUBCHEM_ATOM_DEF_STEREO_COUNT>  (1) 
0

>  <PUBCHEM_ATOM_UDEF_STEREO_COUNT>  (1) 
4

>  <PUBCHEM_BOND_DEF_STEREO_COUNT>  (1) 
0

>  <PUBCHEM_BOND_UDEF_STEREO_COUNT>  (1) 
0

>  <PUBCHEM_ISOTOPIC_ATOM_COUNT>  (1) 
0

>  <PUBCHEM_COMPONENT_COUNT>  (1) 
1

>  <PUBCHEM_CACTVS_TAUTO_COUNT>  (1) 
1

>  <PUBCHEM_CONFORMER_ID>  (1) 
0000002800000002

>  <PUBCHEM_MMFF94_ENERGY>  (1) 
21.889

>  <PUBCHEM_FEATURE_SELFOVERLAP>  (1) 
50.8

>  <PUBCHEM_SHAPE_FINGERPRINT>  (1) 
12423570 1 17693350640693704467
16945 1 18122905330603109050
18185500 45 18410856529860011027
193761 8 17906171746199107875
20871998 184 18202004308774503503
21040471 1 17762338015819730280
23402539 116 18271231807317418118
23552423 10 18190187780307721606
241688 4 18412544323063303513
2748010 2 18411132580213983541
5084963 1 18202284718604807195
66348 1 17761779459533346341

>  <PUBCHEM_SHAPE_MULTIPOLES>  (1) 
197.03
3.17
2.52
0.64
2.05
0.68
0.01
-0.25
-0.22
-1.13
0.05
-0.01
-0.03
-0.05

>  <PUBCHEM_SHAPE_SELFOVERLAP>  (1) 
388.699

>  <PUBCHEM_SHAPE_VOLUME>  (1) 
116

>  <PUBCHEM_COORDINATE_TYPE>  (1) 
2
5
10

$$$$
