40000
     RDKit          3D

 31 35  0  0  1  0  0  0  0  0999 V2000
   -2.7758   -0.7611    0.5225 O   0  0  0  0  0  0  0  0  0  0  0  0
   -3.3869   -1.3092   -1.6739 O   0  0  0  0  0  0  0  0  0  0  0  0
    1.0721    2.7607    1.0005 O   0  0  0  0  0  0  0  0  0  0  0  0
   -4.7125    1.6282   -0.5339 O   0  0  0  0  0  0  0  0  0  0  0  0
   -5.0198    1.9759    2.1837 O   0  0  0  0  0  0  0  0  0  0  0  0
    6.3149   -1.8855    1.0581 O   0  0  0  0  0  0  0  0  0  0  0  0
   -1.2595    1.0727   -0.1468 C   0  0  0  0  0  0  0  0  0  0  0  0
   -0.4684    0.0786   -1.0271 C   0  0  0  0  0  0  0  0  0  0  0  0
    1.0045    0.4677   -1.2126 C   0  0  0  0  0  0  0  0  0  0  0  0
   -2.6687    0.4362   -0.2420 C   0  0  0  0  0  0  0  0  0  0  0  0
    1.6978    0.5056    0.1958 C   0  0  0  0  0  0  0  0  0  0  0  0
   -1.3554   -0.0913   -2.2626 C   0  0  0  0  0  0  0  0  0  0  0  0
   -2.7913   -0.0149   -1.7015 C   0  0  0  0  0  0  0  0  0  0  0  0
   -0.6125    1.0625    1.2509 C   0  0  0  0  0  0  0  0  0  0  0  0
    0.9011    1.3687    1.2261 C   0  0  0  0  0  0  0  0  0  0  0  0
    3.2467    0.7980    0.0856 C   0  0  0  0  0  0  0  0  0  0  0  0
    1.7086   -0.5294   -2.1512 C   0  0  0  0  0  0  0  0  0  0  0  0
   -1.3023    2.5119   -0.7285 C   0  0  0  0  0  0  0  0  0  0  0  0
    3.2049   -0.2653   -2.2624 C   0  0  0  0  0  0  0  0  0  0  0  0
    3.8323   -0.2274   -0.8924 C   0  0  0  0  0  0  0  0  0  0  0  0
   -3.7922    1.3170    0.2207 C   0  0  0  0  0  0  0  0  0  0  0  0
   -3.4735   -1.6915   -0.3032 C   0  0  0  0  0  0  0  0  0  0  0  0
    3.5897    2.2090   -0.4443 C   0  0  0  0  0  0  0  0  0  0  0  0
    3.8971    0.6844    1.4562 C   0  0  0  0  0  0  0  0  0  0  0  0
   -2.8852   -3.0760   -0.1187 C   0  0  0  0  0  0  0  0  0  0  0  0
   -3.7230    1.7933    1.6560 C   0  0  0  0  0  0  0  0  0  0  0  0
    4.8135   -1.0863   -0.5741 C   0  0  0  0  0  0  0  0  0  0  0  0
    4.8732   -0.1691    1.7800 C   0  0  0  0  0  0  0  0  0  0  0  0
    5.4089   -1.1082    0.7776 C   0  0  0  0  0  0  0  0  0  0  0  0
   -2.9776   -3.5393    1.3356 C   0  0  0  0  0  0  0  0  0  0  0  0
   -2.3610   -4.9159    1.5259 C   0  0  0  0  0  0  0  0  0  0  0  0
  1 10  1  0
  1 22  1  0
  2 13  1  0
  2 22  1  0
  3 15  1  0
  4 21  2  0
  5 26  1  0
  6 29  2  0
  7  8  1  0
  7 10  1  0
  7 14  1  0
  7 18  1  0
  8  9  1  0
  8 12  1  0
  9 11  1  0
  9 17  1  0
 10 13  1  0
 10 21  1  0
 11 15  1  0
 11 16  1  0
 12 13  1  0
 14 15  1  0
 16 20  1  0
 16 23  1  0
 16 24  1  0
 17 19  1  0
 19 20  1  0
 20 27  2  0
 21 26  1  0
 22 25  1  0
 24 28  2  0
 25 30  1  0
 27 29  1  0
 28 29  1  0
 30 31  1  0
M  END
>  <PUBCHEM_COMPOUND_CID>  (1) 
40000

>  <PUBCHEM_CONFORMER_RMSD>  (1) 
0.8

>  <PUBCHEM_CONFORMER_DIVERSEORDER>  (1) 
1
5
2
4
3

>  <PUBCHEM_MMFF94_PARTIAL_CHARGES>  (1) 
24
1 -0.56
10 0.34
13 0.28
15 0.28
16 0.28
19 0.14
2 -0.56
20 -0.28
21 0.45
22 0.56
24 -0.29
26 0.34
27 -0.14
28 -0.14
29 0.54
3 -0.68
4 -0.57
5 -0.68
52 0.15
53 0.4
58 0.15
59 0.15
6 -0.57
62 0.4

>  <PUBCHEM_EFFECTIVE_ROTOR_COUNT>  (1) 
5.6

>  <PUBCHEM_PHARMACOPHORE_FEATURES>  (1) 
14
1 1 acceptor
1 2 acceptor
1 3 acceptor
1 3 donor
1 31 hydrophobe
1 4 acceptor
1 5 acceptor
1 5 donor
1 6 acceptor
5 1 2 10 13 22 rings
5 7 8 10 12 13 rings
6 16 20 24 27 28 29 rings
6 7 8 9 11 14 15 rings
6 9 11 16 17 19 20 rings

>  <PUBCHEM_HEAVY_ATOM_COUNT>  (1) 
31

>  <PUBCHEM_ATOM_DEF_STEREO_COUNT>  (1) 
9

>  <PUBCHEM_ATOM_UDEF_STEREO_COUNT>  (1) 
0

>  <PUBCHEM_BOND_DEF_STEREO_COUNT>  (1) 
0

>  <PUBCHEM_BOND_UDEF_STEREO_COUNT>  (1) 
0

>  <PUBCHEM_ISOTOPIC_ATOM_COUNT>  (1) 
0

>  <PUBCHEM_COMPONENT_COUNT>  (1) 
1

>  <PUBCHEM_CACTVS_TAUTO_COUNT>  (1) 
9

>  <PUBCHEM_CONFORMER_ID>  (1) 
00009C4000000001

>  <PUBCHEM_MMFF94_ENERGY>  (1) 
96.7032

>  <PUBCHEM_FEATURE_SELFOVERLAP>  (1) 
71.811

>  <PUBCHEM_SHAPE_FINGERPRINT>  (1) 
10498660 4 10953451921514676134
10928967 22 17530960289643870802
11405975 8 18343304760205739208
11552529 35 18194404613252782547
11578080 2 17388285539331709152
11796584 16 18261106353672387750
12035758 1 17988657250823855945
12422481 6 17131826526753179134
12633257 1 18410856534086530000
131258 38 16384560255074549787
13140716 1 17417532406589882820
13224815 77 17489870470592840412
13383661 66 10761087036202388819
13726171 33 18053978248482042924
14020679 6 18200887196824377539
14739800 52 11887671754680126822
15131766 46 17679885952703030669
15163728 17 10231219033991598303
15361156 5 18131636669063006068
15439362 3 16603491131619981100
15788980 27 18187081728641703972
15799311 1 18260279542255450066
17349148 13 17240483576923813800
18603816 31 17968374538351754674
20775530 9 17540829720631835923
21033648 29 16917356913129456501
23559900 14 18059028189618720532
3383291 50 17917709102657599383
3633792 109 18192414304802976605
392239 28 15841256134947031954
4015057 19 17345733257893510017
4073 2 18413385454413032562
460360 51 17561089141358797576
463206 1 18187923941985705330
484985 159 18333731342997437587
4921388 177 18335142024620147343
5104073 3 18272930548735096488
563151 248 18260844691485270723
9981440 41 17346599630348747231

>  <PUBCHEM_SHAPE_MULTIPOLES>  (1) 
602.75
11.11
3.61
2.15
8.8
4.56
0.37
3
-3.56
-4.63
-2.12
-0.06
0
-0.3

>  <PUBCHEM_SHAPE_SELFOVERLAP>  (1) 
1304.917

>  <PUBCHEM_SHAPE_VOLUME>  (1) 
325.8

>  <PUBCHEM_COORDINATE_TYPE>  (1) 
2
5
10

$$$$
