40007
     RDKit          3D

 10  9  0  0  0  0  0  0  0  0999 V2000
   -1.1497    0.6850    0.0109 O   0  0  0  0  0  0  0  0  0  0  0  0
    2.3628   -0.2343    0.0068 O   0  0  0  0  0  0  0  0  0  0  0  0
   -2.3765   -0.0461    0.0000 C   0  0  0  0  0  0  0  0  0  0  0  0
   -2.4205   -0.9403    1.2383 C   0  0  0  0  0  0  0  0  0  0  0  0
   -3.5172    0.9687    0.0293 C   0  0  0  0  0  0  0  0  0  0  0  0
   -2.4334   -0.8819   -1.2778 C   0  0  0  0  0  0  0  0  0  0  0  0
   -0.0306   -0.1867   -0.0076 C   0  0  0  0  0  0  0  0  0  0  0  0
    1.2407    0.6399    0.0049 C   0  0  0  0  0  0  0  0  0  0  0  0
    3.5859    0.4885   -0.0037 C   0  0  0  0  0  0  0  0  0  0  0  0
    4.7386   -0.4927   -0.0011 C   0  0  0  0  0  0  0  0  0  0  0  0
  1  3  1  0
  1  7  1  0
  2  8  1  0
  2  9  1  0
  3  4  1  0
  3  5  1  0
  3  6  1  0
  7  8  1  0
  9 10  1  0
M  END
>  <PUBCHEM_COMPOUND_CID>  (1) 
40007

>  <PUBCHEM_CONFORMER_RMSD>  (1) 
0.6

>  <PUBCHEM_CONFORMER_DIVERSEORDER>  (1) 
2
5
15
9
14
12
7
10
6
8
13
1
11
3
4

>  <PUBCHEM_MMFF94_PARTIAL_CHARGES>  (1) 
6
1 -0.56
2 -0.56
3 0.28
7 0.28
8 0.28
9 0.28

>  <PUBCHEM_EFFECTIVE_ROTOR_COUNT>  (1) 
5

>  <PUBCHEM_PHARMACOPHORE_FEATURES>  (1) 
3
1 1 acceptor
1 2 acceptor
4 3 4 5 6 hydrophobe

>  <PUBCHEM_HEAVY_ATOM_COUNT>  (1) 
10

>  <PUBCHEM_ATOM_DEF_STEREO_COUNT>  (1) 
0

>  <PUBCHEM_ATOM_UDEF_STEREO_COUNT>  (1) 
0

>  <PUBCHEM_BOND_DEF_STEREO_COUNT>  (1) 
0

>  <PUBCHEM_BOND_UDEF_STEREO_COUNT>  (1) 
0

>  <PUBCHEM_ISOTOPIC_ATOM_COUNT>  (1) 
0

>  <PUBCHEM_COMPONENT_COUNT>  (1) 
1

>  <PUBCHEM_CACTVS_TAUTO_COUNT>  (1) 
1

>  <PUBCHEM_CONFORMER_ID>  (1) 
00009C4700000002

>  <PUBCHEM_MMFF94_ENERGY>  (1) 
25.3278

>  <PUBCHEM_FEATURE_SELFOVERLAP>  (1) 
15.223

>  <PUBCHEM_SHAPE_FINGERPRINT>  (1) 
11062470 55 18341894082455281964
124424 183 18342455928401784649
12932764 1 18131631205384349416
13024252 1 11386363751663274001
14325111 11 18410293631493579080
14577589 140 18413671313955162183
18186145 218 17167860889791451532
190213 19 18040715883482151028
1986462 14 17240485822854287986
20279233 1 17489311871230124476
20645464 45 18186809062848424819
20645477 70 18058449811926968174
22485316 2 18060133233101108454
3248919 1 18113614616409897852

>  <PUBCHEM_SHAPE_MULTIPOLES>  (1) 
194.06
8.19
1.01
0.93
8.99
0
0.02
0.28
-0.01
-0.54
-0.02
-0.82
0.3
0

>  <PUBCHEM_SHAPE_SELFOVERLAP>  (1) 
351.236

>  <PUBCHEM_SHAPE_VOLUME>  (1) 
126.7

>  <PUBCHEM_COORDINATE_TYPE>  (1) 
2
5
10

$$$$
