40003
     RDKit          3D

 12 12  0  0  1  0  0  0  0  0999 V2000
   -2.4782   -1.5861    0.8112 O   0  0  0  0  0  0  0  0  0  0  0  0
    3.3894    0.4826   -0.0821 O   0  0  0  0  0  0  0  0  0  0  0  0
   -0.7096   -0.0388    0.3137 C   0  0  0  0  0  0  0  0  0  0  0  0
   -2.1820   -0.2266    0.4560 C   0  0  0  0  0  0  0  0  0  0  0  0
   -0.1212    1.1713    0.6820 C   0  0  0  0  0  0  0  0  0  0  0  0
    0.0799   -1.0740   -0.1873 C   0  0  0  0  0  0  0  0  0  0  0  0
    2.0455    0.3110    0.0481 C   0  0  0  0  0  0  0  0  0  0  0  0
    1.2562    1.3462    0.5491 C   0  0  0  0  0  0  0  0  0  0  0  0
    1.4573   -0.8990   -0.3200 C   0  0  0  0  0  0  0  0  0  0  0  0
   -2.9448    0.1129   -0.8044 C   0  0  0  0  0  0  0  0  0  0  0  0
   -3.9296    1.0167   -0.8652 C   0  0  0  0  0  0  0  0  0  0  0  0
    4.1371   -0.6163   -0.6010 C   0  0  0  0  0  0  0  0  0  0  0  0
  1  4  1  0
  2  7  1  0
  2 12  1  0
  3  4  1  0
  3  5  2  0
  3  6  1  0
  4 10  1  0
  5  8  1  0
  6  9  2  0
  7  8  2  0
  7  9  1  0
 10 11  2  0
M  END
>  <PUBCHEM_COMPOUND_CID>  (1) 
40003

>  <PUBCHEM_CONFORMER_RMSD>  (1) 
0.6

>  <PUBCHEM_CONFORMER_DIVERSEORDER>  (1) 
1
6
4
5
3
2

>  <PUBCHEM_MMFF94_PARTIAL_CHARGES>  (1) 
20
1 -0.68
10 -0.29
11 -0.3
12 0.28
14 0.15
15 0.15
16 0.15
17 0.15
18 0.15
19 0.4
2 -0.36
20 0.15
21 0.15
3 -0.14
4 0.56
5 -0.15
6 -0.15
7 0.08
8 -0.15
9 -0.15

>  <PUBCHEM_EFFECTIVE_ROTOR_COUNT>  (1) 
3

>  <PUBCHEM_PHARMACOPHORE_FEATURES>  (1) 
5
1 1 acceptor
1 1 donor
1 11 hydrophobe
1 2 acceptor
6 3 5 6 7 8 9 rings

>  <PUBCHEM_HEAVY_ATOM_COUNT>  (1) 
12

>  <PUBCHEM_ATOM_DEF_STEREO_COUNT>  (1) 
0

>  <PUBCHEM_ATOM_UDEF_STEREO_COUNT>  (1) 
1

>  <PUBCHEM_BOND_DEF_STEREO_COUNT>  (1) 
0

>  <PUBCHEM_BOND_UDEF_STEREO_COUNT>  (1) 
0

>  <PUBCHEM_ISOTOPIC_ATOM_COUNT>  (1) 
0

>  <PUBCHEM_COMPONENT_COUNT>  (1) 
1

>  <PUBCHEM_CACTVS_TAUTO_COUNT>  (1) 
1

>  <PUBCHEM_CONFORMER_ID>  (1) 
00009C4300000001

>  <PUBCHEM_MMFF94_ENERGY>  (1) 
35.1286

>  <PUBCHEM_FEATURE_SELFOVERLAP>  (1) 
25.371

>  <PUBCHEM_SHAPE_FINGERPRINT>  (1) 
10219947 1 17704075101133410278
11062470 55 17821447945670532156
11206711 2 18270970041945706548
11401426 45 18131340904387001900
11543360 7 17169004424791839678
11769659 78 14548747161847642396
12032990 46 18271818933873681446
12138202 97 18186512211894218623
124424 183 18409163303312034474
12500047 106 17967809453171552907
12932764 1 17603862334091142081
13571099 22 18201718457458226540
13760787 19 17603866697973301522
14325111 11 18410857706617649224
14911166 2 18342174453535649012
14943859 89 17022621957571053749
14993402 34 17418089923140603684
15219456 202 18337952414805589961
15775835 57 15502370106603947613
16945 1 17918000498480560522
18186145 218 18335710450646256584
18534176 82 18186239550163817707
19026448 4 17822016440690450680
19026448 5 16588021342408233090
200 152 17275099501042221252
20201158 50 18341894069459564879
20645477 70 18060138717579381510
20715346 28 18268424818360770297
21119208 17 17561074796420996157
22926399 65 18041273275505590885
23402539 116 18041549287631658013
23402655 69 18198892640141056501
23559900 14 18411138035634579450
25 1 18337665296705874597
2748010 2 18055634172890205536
3071541 158 18336266846458946516
528886 8 18341607114183582505

>  <PUBCHEM_SHAPE_MULTIPOLES>  (1) 
235.22
6.47
1.36
0.9
0.69
0.01
-0.03
0.04
-2.15
-0.12
0.21
-0.46
0
0.7

>  <PUBCHEM_SHAPE_SELFOVERLAP>  (1) 
480.783

>  <PUBCHEM_SHAPE_VOLUME>  (1) 
136.8

>  <PUBCHEM_COORDINATE_TYPE>  (1) 
2
5
10

$$$$
