40019
     RDKit          3D

 23 25  0  0  0  0  0  0  0  0999 V2000
    1.1587   -2.3531    0.0001 O   0  0  0  0  0  0  0  0  0  0  0  0
   -1.5898    2.2289   -0.0003 O   0  0  0  0  0  0  0  0  0  0  0  0
    3.7962   -1.5940    1.0971 O   0  0  0  0  0  0  0  0  0  0  0  0
    3.7965   -1.5929   -1.0982 O   0  0  0  0  0  0  0  0  0  0  0  0
   -4.2513    1.4531    1.0965 O   0  0  0  0  0  0  0  0  0  0  0  0
   -4.2522    1.4502   -1.0987 O   0  0  0  0  0  0  0  0  0  0  0  0
    3.4525   -1.1008   -0.0003 N   0  0  0  0  0  0  0  0  0  0  0  0
   -3.8980    0.9626   -0.0007 N   0  0  0  0  0  0  0  0  0  0  0  0
    1.2358    0.0197    0.0002 C   0  0  0  0  0  0  0  0  0  0  0  0
    0.4971    1.2048    0.0005 C   0  0  0  0  0  0  0  0  0  0  0  0
   -1.6637   -0.1420    0.0003 C   0  0  0  0  0  0  0  0  0  0  0  0
   -0.9249   -1.3272    0.0001 C   0  0  0  0  0  0  0  0  0  0  0  0
    0.5518   -1.2896    0.0000 C   0  0  0  0  0  0  0  0  0  0  0  0
   -0.9795    1.1673    0.0004 C   0  0  0  0  0  0  0  0  0  0  0  0
    2.6350    0.0692    0.0002 C   0  0  0  0  0  0  0  0  0  0  0  0
    3.2891    1.3014    0.0003 C   0  0  0  0  0  0  0  0  0  0  0  0
    1.1576    2.4393    0.0008 C   0  0  0  0  0  0  0  0  0  0  0  0
   -3.0628   -0.1914    0.0006 C   0  0  0  0  0  0  0  0  0  0  0  0
    2.5520    2.4840    0.0006 C   0  0  0  0  0  0  0  0  0  0  0  0
   -1.5853   -2.5616    0.0002 C   0  0  0  0  0  0  0  0  0  0  0  0
   -3.7170   -1.4237    0.0008 C   0  0  0  0  0  0  0  0  0  0  0  0
   -2.9798   -2.6061    0.0004 C   0  0  0  0  0  0  0  0  0  0  0  0
    4.7820    1.4018   -0.0010 C   0  0  0  0  0  0  0  0  0  0  0  0
  1 13  2  0
  2 14  2  0
  3  7  1  0
  4  7  2  0
  5  8  1  0
  6  8  2  0
  7 15  1  0
  8 18  1  0
  9 10  2  0
  9 13  1  0
  9 15  1  0
 10 14  1  0
 10 17  1  0
 11 12  2  0
 11 14  1  0
 11 18  1  0
 12 13  1  0
 12 20  1  0
 15 16  2  0
 16 19  1  0
 16 23  1  0
 17 19  2  0
 18 21  2  0
 20 22  2  0
 21 22  1  0
M  CHG  4   3  -1   5  -1   7   1   8   1
M  END
>  <PUBCHEM_COMPOUND_CID>  (1) 
40019

>  <PUBCHEM_CONFORMER_RMSD>  (1) 
0.6

>  <PUBCHEM_CONFORMER_DIVERSEORDER>  (1) 
1

>  <PUBCHEM_MMFF94_PARTIAL_CHARGES>  (1) 
28
1 -0.57
10 0.09
11 0.09
12 0.09
13 0.4
14 0.4
15 0.13
16 -0.14
17 -0.15
18 0.13
19 -0.15
2 -0.57
20 -0.15
21 -0.15
22 -0.15
23 0.14
24 0.15
25 0.15
26 0.15
27 0.15
28 0.15
3 -0.52
4 -0.52
5 -0.52
6 -0.52
7 0.91
8 0.91
9 0.09

>  <PUBCHEM_EFFECTIVE_ROTOR_COUNT>  (1) 
2

>  <PUBCHEM_PHARMACOPHORE_FEATURES>  (1) 
11
1 1 acceptor
1 2 acceptor
1 3 acceptor
1 3 anion
1 4 acceptor
1 5 acceptor
1 5 anion
1 6 acceptor
6 11 12 18 20 21 22 rings
6 9 10 11 12 13 14 rings
6 9 10 15 16 17 19 rings

>  <PUBCHEM_HEAVY_ATOM_COUNT>  (1) 
23

>  <PUBCHEM_ATOM_DEF_STEREO_COUNT>  (1) 
0

>  <PUBCHEM_ATOM_UDEF_STEREO_COUNT>  (1) 
0

>  <PUBCHEM_BOND_DEF_STEREO_COUNT>  (1) 
0

>  <PUBCHEM_BOND_UDEF_STEREO_COUNT>  (1) 
0

>  <PUBCHEM_ISOTOPIC_ATOM_COUNT>  (1) 
0

>  <PUBCHEM_COMPONENT_COUNT>  (1) 
1

>  <PUBCHEM_CACTVS_TAUTO_COUNT>  (1) 
1

>  <PUBCHEM_CONFORMER_ID>  (1) 
00009C5300000001

>  <PUBCHEM_MMFF94_ENERGY>  (1) 
87.7943

>  <PUBCHEM_FEATURE_SELFOVERLAP>  (1) 
56.034

>  <PUBCHEM_SHAPE_FINGERPRINT>  (1) 
10062212 137 18412255155890154467
10411042 1 16969704387847601111
10608611 8 18338515356211034229
10616163 171 18267869560767700350
10863032 1 18340485663699419025
10967382 1 18266459815035728355
1100329 8 17041480514485169169
11132069 177 18409725157911606368
116883 192 18199193897446553260
12553582 1 18265896865272315082
12633257 1 18338516326741923843
12788726 201 17416982655018877665
13140716 1 18410855477345026091
14178342 30 17978495753032439152
14223421 5 18267022936761350894
14790565 3 18124044429288201281
14866123 147 17407692709582015938
15196674 1 18410575101848268326
15442244 35 18410572898667273594
15475509 8 17411931403794517317
15536298 74 18342177790925619918
16945 1 18338797814619289027
17492 89 18339643450783887974
17804303 29 18410860940517059094
1813 80 17240482545720453548
18186145 218 18410013221405078853
19591789 44 16900478039759407128
20510252 161 18054512679820353393
20691752 17 17603862329764558546
20905425 154 18197222657301620198
21267235 1 18265904737794511250
21421861 104 17896025586595625528
21501502 16 18338234971976675155
221490 88 18337398239649721834
23227448 37 18411133654129855215
2334 1 18194401314844071011
23366157 5 18041558169492468716
23463225 33 18337390551420696726
23558518 356 17900261106531966664
23559900 14 18343304752132496494
238 59 17612830904858559477
2748010 2 18266741461853264031
335352 9 18338798905525132407
34934 24 18410849997478608328
350125 39 18338802320741537707
4214541 1 18410574032565045857
5104073 3 18410292527370532314
7364860 26 18270402836122377684
7832392 63 18411136948121825082
9709674 26 18338803436890053430

>  <PUBCHEM_SHAPE_MULTIPOLES>  (1) 
428.15
8.3
3.09
0.75
0.7
0.3
0
-0.88
0
-0.36
0
-0.03
0.01
0

>  <PUBCHEM_SHAPE_SELFOVERLAP>  (1) 
965.901

>  <PUBCHEM_SHAPE_VOLUME>  (1) 
223.7

>  <PUBCHEM_COORDINATE_TYPE>  (1) 
2
5
10

$$$$
