40014
     RDKit          3D

 30 31  0  0  0  0  0  0  0  0999 V2000
    3.8293    1.0165   -0.3038 O   0  0  0  0  0  0  0  0  0  0  0  0
    3.6019    0.4161    1.9069 O   0  0  0  0  0  0  0  0  0  0  0  0
   -5.2524   -1.3762   -0.6295 O   0  0  0  0  0  0  0  0  0  0  0  0
   -3.3841   -0.3106    1.4071 O   0  0  0  0  0  0  0  0  0  0  0  0
    7.1946   -0.5936   -0.3940 N   0  0  0  0  0  0  0  0  0  0  0  0
   -2.4459    1.2457   -0.0847 N   0  0  0  0  0  0  0  0  0  0  0  0
    5.6837   -0.4884   -0.5440 C   0  0  0  0  0  0  0  0  0  0  0  0
    7.8688    0.3720   -1.3578 C   0  0  0  0  0  0  0  0  0  0  0  0
    7.6374   -2.0155   -0.7076 C   0  0  0  0  0  0  0  0  0  0  0  0
    7.5883   -0.2429    1.0337 C   0  0  0  0  0  0  0  0  0  0  0  0
    5.2437    0.9210   -0.2006 C   0  0  0  0  0  0  0  0  0  0  0  0
    9.3700    0.2627   -1.2040 C   0  0  0  0  0  0  0  0  0  0  0  0
    6.9642   -2.9706    0.2535 C   0  0  0  0  0  0  0  0  0  0  0  0
    3.1265    0.7367    0.8285 C   0  0  0  0  0  0  0  0  0  0  0  0
    1.6673    0.8704    0.5893 C   0  0  0  0  0  0  0  0  0  0  0  0
    1.1957    1.7808   -0.3565 C   0  0  0  0  0  0  0  0  0  0  0  0
    0.7678    0.0848    1.3100 C   0  0  0  0  0  0  0  0  0  0  0  0
   -1.0746    1.1201    0.1394 C   0  0  0  0  0  0  0  0  0  0  0  0
   -0.1751    1.9057   -0.5814 C   0  0  0  0  0  0  0  0  0  0  0  0
   -0.6030    0.2096    1.0852 C   0  0  0  0  0  0  0  0  0  0  0  0
   -4.8559    0.8868    0.0613 C   0  0  0  0  0  0  0  0  0  0  0  0
   -3.4893    0.5487    0.5387 C   0  0  0  0  0  0  0  0  0  0  0  0
   -5.6793   -0.0883   -0.5018 C   0  0  0  0  0  0  0  0  0  0  0  0
   -6.2467   -2.3967   -0.5717 C   0  0  0  0  0  0  0  0  0  0  0  0
   -5.6286   -3.6522    0.0242 C   0  0  0  0  0  0  0  0  0  0  0  0
   -5.3116    2.1995    0.1823 C   0  0  0  0  0  0  0  0  0  0  0  0
   -6.9584    0.2496   -0.9437 C   0  0  0  0  0  0  0  0  0  0  0  0
   -6.5908    2.5372   -0.2598 C   0  0  0  0  0  0  0  0  0  0  0  0
   -7.4142    1.5624   -0.8227 C   0  0  0  0  0  0  0  0  0  0  0  0
   -6.6291   -4.7913    0.1035 C   0  0  0  0  0  0  0  0  0  0  0  0
  1 11  1  0
  1 14  1  0
  2 14  2  0
  3 23  1  0
  3 24  1  0
  4 22  2  0
  5  7  1  0
  5  8  1  0
  5  9  1  0
  5 10  1  0
  6 18  1  0
  6 22  1  0
  7 11  1  0
  8 12  1  0
  9 13  1  0
 14 15  1  0
 15 16  2  0
 15 17  1  0
 16 19  1  0
 17 20  2  0
 18 19  2  0
 18 20  1  0
 21 22  1  0
 21 23  2  0
 21 26  1  0
 23 27  1  0
 24 25  1  0
 25 30  1  0
 26 28  2  0
 27 29  2  0
 28 29  1  0
M  CHG  1   5   1
M  END
>  <PUBCHEM_COMPOUND_CID>  (1) 
40014

>  <PUBCHEM_CONFORMER_RMSD>  (1) 
1.2

>  <PUBCHEM_CONFORMER_DIVERSEORDER>  (1) 
17
21
14
2
20
27
29
26
13
37
11
1
34
24
30
18
7
23
31
28
35
19
36
12
22
15
25
8
4
16
10
32
6
38
33
9
3
5

>  <PUBCHEM_MMFF94_PARTIAL_CHARGES>  (1) 
35
1 -0.43
10 0.5
11 0.28
14 0.63
15 0.09
16 -0.15
17 -0.15
18 0.12
19 -0.15
2 -0.57
20 -0.15
21 0.09
22 0.54
23 0.08
24 0.28
26 -0.15
27 -0.15
28 -0.15
29 -0.15
3 -0.36
4 -0.57
48 0.15
49 0.15
5 -1.01
50 0.15
51 0.15
52 0.37
57 0.15
58 0.15
59 0.15
6 -0.55
60 0.15
7 0.5
8 0.5
9 0.5

>  <PUBCHEM_EFFECTIVE_ROTOR_COUNT>  (1) 
13

>  <PUBCHEM_PHARMACOPHORE_FEATURES>  (1) 
8
1 2 acceptor
1 3 acceptor
1 30 hydrophobe
1 4 acceptor
1 5 cation
1 6 donor
6 15 16 17 18 19 20 rings
6 21 23 26 27 28 29 rings

>  <PUBCHEM_HEAVY_ATOM_COUNT>  (1) 
30

>  <PUBCHEM_ATOM_DEF_STEREO_COUNT>  (1) 
0

>  <PUBCHEM_ATOM_UDEF_STEREO_COUNT>  (1) 
0

>  <PUBCHEM_BOND_DEF_STEREO_COUNT>  (1) 
0

>  <PUBCHEM_BOND_UDEF_STEREO_COUNT>  (1) 
0

>  <PUBCHEM_ISOTOPIC_ATOM_COUNT>  (1) 
0

>  <PUBCHEM_COMPONENT_COUNT>  (1) 
1

>  <PUBCHEM_CACTVS_TAUTO_COUNT>  (1) 
3

>  <PUBCHEM_CONFORMER_ID>  (1) 
00009C4E00000011

>  <PUBCHEM_MMFF94_ENERGY>  (1) 
106.6121

>  <PUBCHEM_FEATURE_SELFOVERLAP>  (1) 
40.597

>  <PUBCHEM_SHAPE_FINGERPRINT>  (1) 
10 15 11671770573291478692
10369192 42 11386369236041547905
11103572 155 18338514145031075798
11315181 36 18272374161513256953
11315621 246 18334570257573569501
11456790 92 9223231811564983366
11578821 258 12035450536220507198
11719270 70 17774720871039653750
12082328 90 18412260662291156621
125118 31 8934999274812787642
12539765 74 11386370301483789112
12645989 146 18409166636687354069
13782708 43 18060136569816099866
13885169 127 18272087145648991049
14178184 131 17845651585491616575
14849402 71 9366762105660797870
14856354 85 18341892987898362229
15064981 113 18126264373946267477
15152005 1 17766557237986609479
15183329 4 18334294232240593672
15352257 5 18343019973957033934
15419008 91 18058427890324764416
15439362 3 18125441900788773749
1577012 14 17458338637091717913
16994733 274 9727639397155894382
18603816 31 17489007324401263525
2026 5 18131912672172942823
20982279 24 16701484302887156198
21360442 43 18408042940415095603
21424621 283 9727639414161631356
22224240 67 11455882555830686428
23559900 14 18271514412630507873
23569943 247 18265614274042464930
23576562 1 18115028635640091869
3383291 50 15410891860016959628
3711267 37 14490481841752790526
44802255 64 17749376029182736743
49967989 163 17822858713900841499
5104073 3 14332546995159359912
54039377 194 18261398905860326451
57527293 21 17129019680126824109
5758199 1 10879988069031847996
58083652 198 15410606021648914403
59682541 35 11959718387338633341
636775 72 8646773287696003839
6441014 3 17834956748253973675
9831232 110 18341894087430750838
9953998 17 10231751198278916013

>  <PUBCHEM_SHAPE_MULTIPOLES>  (1) 
583.95
30.17
3.57
1.19
33.38
5.66
-0.22
12.56
9.9
-8.95
0.24
1.17
-0.1
0.16

>  <PUBCHEM_SHAPE_SELFOVERLAP>  (1) 
1204.324

>  <PUBCHEM_SHAPE_VOLUME>  (1) 
336.1

>  <PUBCHEM_COORDINATE_TYPE>  (1) 
2
5
10

$$$$
