40020
     RDKit          3D

 20 20  0  0  0  0  0  0  0  0999 V2000
   -2.6198    1.1226   -0.5015 S   0  0  0  0  0  0  0  0  0  0  0  0
    5.6854   -0.1721   -0.0238 O   0  0  0  0  0  0  0  0  0  0  0  0
    3.6033   -1.0260   -0.7703 O   0  0  0  0  0  0  0  0  0  0  0  0
    1.3133   -0.6829    1.0509 O   0  0  0  0  0  0  0  0  0  0  0  0
    2.2710    1.2605    0.1865 N   0  0  0  0  0  0  0  0  0  0  0  0
   -2.9053   -1.1391    0.6682 N   0  0  0  0  0  0  0  0  0  0  0  0
   -0.0481    0.8933    0.0050 N   0  0  0  0  0  0  0  0  0  0  0  0
   -1.5509   -0.8595    0.7213 N   0  0  0  0  0  0  0  0  0  0  0  0
   -5.0367   -0.1799   -0.1631 C   0  0  0  0  0  0  0  0  0  0  0  0
   -3.5768   -0.1866    0.0571 C   0  0  0  0  0  0  0  0  0  0  0  0
   -5.8190    1.0233    0.4834 C   0  0  0  0  0  0  0  0  0  0  0  0
   -5.4089   -0.1166   -1.6869 C   0  0  0  0  0  0  0  0  0  0  0  0
   -5.7329   -1.4601    0.4207 C   0  0  0  0  0  0  0  0  0  0  0  0
    3.6138    0.9383    0.5953 C   0  0  0  0  0  0  0  0  0  0  0  0
    4.3682    0.1520   -0.4781 C   0  0  0  0  0  0  0  0  0  0  0  0
   -1.2950    0.2766    0.1505 C   0  0  0  0  0  0  0  0  0  0  0  0
    1.1736    0.3880    0.4565 C   0  0  0  0  0  0  0  0  0  0  0  0
    2.0901    2.5321   -0.5219 C   0  0  0  0  0  0  0  0  0  0  0  0
    5.6897   -0.9604    1.1584 C   0  0  0  0  0  0  0  0  0  0  0  0
    4.1849   -1.8037   -1.8082 C   0  0  0  0  0  0  0  0  0  0  0  0
  1 10  1  0
  1 16  1  0
  2 15  1  0
  2 19  1  0
  3 15  1  0
  3 20  1  0
  4 17  2  0
  5 14  1  0
  5 17  1  0
  5 18  1  0
  6  8  1  0
  6 10  2  0
  7 16  1  0
  7 17  1  0
  8 16  2  0
  9 10  1  0
  9 11  1  0
  9 12  1  0
  9 13  1  0
 14 15  1  0
M  END
>  <PUBCHEM_COMPOUND_CID>  (1) 
40020

>  <PUBCHEM_CONFORMER_RMSD>  (1) 
0.8

>  <PUBCHEM_CONFORMER_DIVERSEORDER>  (1) 
1
23
47
8
43
37
9
32
4
22
24
27
49
41
7
35
19
26
10
31
51
40
14
57
58
18
21
13
5
45
44
52
15
39
36
53
55
46
38
17
20
2
29
16
33
34
30
28
48
56
3
42
54
50
12
6
11
25

>  <PUBCHEM_MMFF94_PARTIAL_CHARGES>  (1) 
18
1 -0.08
10 0.2
14 0.3
15 0.56
16 0.44
17 0.69
18 0.3
19 0.28
2 -0.56
20 0.28
3 -0.56
33 0.37
4 -0.57
5 -0.66
6 -0.34
7 -0.49
8 -0.34
9 0.18

>  <PUBCHEM_EFFECTIVE_ROTOR_COUNT>  (1) 
8

>  <PUBCHEM_PHARMACOPHORE_FEATURES>  (1) 
7
1 2 acceptor
1 3 acceptor
1 4 acceptor
1 6 acceptor
1 7 donor
4 9 11 12 13 hydrophobe
5 1 6 8 10 16 rings

>  <PUBCHEM_HEAVY_ATOM_COUNT>  (1) 
20

>  <PUBCHEM_ATOM_DEF_STEREO_COUNT>  (1) 
0

>  <PUBCHEM_ATOM_UDEF_STEREO_COUNT>  (1) 
0

>  <PUBCHEM_BOND_DEF_STEREO_COUNT>  (1) 
0

>  <PUBCHEM_BOND_UDEF_STEREO_COUNT>  (1) 
0

>  <PUBCHEM_ISOTOPIC_ATOM_COUNT>  (1) 
0

>  <PUBCHEM_COMPONENT_COUNT>  (1) 
1

>  <PUBCHEM_CACTVS_TAUTO_COUNT>  (1) 
3

>  <PUBCHEM_CONFORMER_ID>  (1) 
00009C5400000001

>  <PUBCHEM_MMFF94_ENERGY>  (1) 
51.7094

>  <PUBCHEM_FEATURE_SELFOVERLAP>  (1) 
35.56

>  <PUBCHEM_SHAPE_FINGERPRINT>  (1) 
11128504 68 15791737424770088990
12236239 1 15697999639075730686
12596602 18 15123504826474488230
12616971 3 17703512203046968893
13533116 47 16271933671067944854
14123238 8 10447930572544675505
14251752 14 16950833722264500895
14528608 73 11530485548992386425
14573314 32 18409168788175117405
15183329 4 18260546701757587945
15788980 27 17775004600610242181
17834072 33 17846778533242857985
17834072 8 18186795886136576805
17844677 252 18187651323205048189
17857418 61 17346875646121259903
200 152 17988925582952460945
20369508 70 18260260863605957008
20374829 77 18334574650697228971
20645477 70 18412549837901479662
21267235 1 18114467846703468923
21285901 2 18338522932987058164
21315763 178 16988841670373373399
220451 1 16988850509595221599
2215653 11 18412545396873686351
22224240 67 17561071528678890498
23402539 116 18130784564747270093
23536379 177 17632297861175497057
23559900 14 18335415832785147593
239999 70 18336546105548536880
29717793 49 18342454855129459301
300161 21 15626216910091584316
3004659 81 17531245025006862274
3545911 37 17749105604439349395
4214541 1 18408603669601009817
4340502 62 16630517441542751006
465052 167 18409167723234373594
4990 188 18408606963170746411
5104073 3 18336267954681647089
59755656 215 18260545589429909295
90127 26 17240482554869894573
9971528 1 18412823616307994984

>  <PUBCHEM_SHAPE_MULTIPOLES>  (1) 
377.91
15.68
1.73
1.2
3.06
0.42
0.4
-4.32
0.73
-0.96
0.32
-0.39
-0.43
0.65

>  <PUBCHEM_SHAPE_SELFOVERLAP>  (1) 
736.572

>  <PUBCHEM_SHAPE_VOLUME>  (1) 
233

>  <PUBCHEM_COORDINATE_TYPE>  (1) 
2
5
10

$$$$
