4003
     RDKit          3D

 32 33  0  0  1  0  0  0  0  0999 V2000
   -5.5137    1.2494   -0.4238 O   0  0  0  0  0  0  0  0  0  0  0  0
   -1.0718    1.3838   -1.2253 O   0  0  0  0  0  0  0  0  0  0  0  0
   -4.7832    0.5354    1.6333 O   0  0  0  0  0  0  0  0  0  0  0  0
    4.9029    0.1427    1.4141 O   0  0  0  0  0  0  0  0  0  0  0  0
    1.1274   -2.9634    1.1298 O   0  0  0  0  0  0  0  0  0  0  0  0
    7.1342    0.0536    1.9066 O   0  0  0  0  0  0  0  0  0  0  0  0
   -3.3921    0.5314   -0.2241 N   0  0  0  0  0  0  0  0  0  0  0  0
    0.1900    0.2917    0.4242 N   0  0  0  0  0  0  0  0  0  0  0  0
    0.2778   -3.9226   -0.8151 N   0  0  0  0  0  0  0  0  0  0  0  0
   -2.1693   -1.5252    0.3710 C   0  0  0  0  0  0  0  0  0  0  0  0
   -2.2053    0.0088    0.4026 C   0  0  0  0  0  0  0  0  0  0  0  0
   -2.1521   -2.1186   -1.0443 C   0  0  0  0  0  0  0  0  0  0  0  0
   -2.1590   -3.6526   -1.0592 C   0  0  0  0  0  0  0  0  0  0  0  0
   -0.9757    0.6431   -0.2508 C   0  0  0  0  0  0  0  0  0  0  0  0
   -1.0076   -4.3101   -0.3042 C   0  0  0  0  0  0  0  0  0  0  0  0
   -6.8024    1.5257    0.1364 C   0  0  0  0  0  0  0  0  0  0  0  0
   -4.5818    0.7512    0.4427 C   0  0  0  0  0  0  0  0  0  0  0  0
    1.5155    0.6815    0.1192 C   0  0  0  0  0  0  0  0  0  0  0  0
   -6.6376    2.5609    1.2481 C   0  0  0  0  0  0  0  0  0  0  0  0
   -7.6828    2.0756   -0.9838 C   0  0  0  0  0  0  0  0  0  0  0  0
   -7.3832    0.2236    0.6860 C   0  0  0  0  0  0  0  0  0  0  0  0
    2.5734    0.2332    0.9031 C   0  0  0  0  0  0  0  0  0  0  0  0
    4.1537    1.4634   -0.4996 C   0  0  0  0  0  0  0  0  0  0  0  0
    3.8735    0.6293    0.5837 C   0  0  0  0  0  0  0  0  0  0  0  0
    1.7655    1.5154   -0.9693 C   0  0  0  0  0  0  0  0  0  0  0  0
    3.0744    1.9039   -1.2771 C   0  0  0  0  0  0  0  0  0  0  0  0
    5.5521    1.8295   -0.7624 C   0  0  0  0  0  0  0  0  0  0  0  0
    1.2430   -3.2784   -0.0517 C   0  0  0  0  0  0  0  0  0  0  0  0
    6.5106    1.3521    0.0440 C   0  0  0  0  0  0  0  0  0  0  0  0
    5.8864    2.7249   -1.9196 C   0  0  0  0  0  0  0  0  0  0  0  0
    2.5062   -3.0102   -0.8251 C   0  0  0  0  0  0  0  0  0  0  0  0
    6.2309    0.4711    1.1904 C   0  0  0  0  0  0  0  0  0  0  0  0
  1 16  1  0
  1 17  1  0
  2 14  2  0
  3 17  2  0
  4 24  1  0
  4 32  1  0
  5 28  2  0
  6 32  2  0
  7 11  1  0
  7 17  1  0
  8 14  1  0
  8 18  1  0
  9 15  1  0
  9 28  1  0
 10 11  1  0
 10 12  1  0
 11 14  1  0
 12 13  1  0
 13 15  1  0
 16 19  1  0
 16 20  1  0
 16 21  1  0
 18 22  1  0
 18 25  2  0
 22 24  2  0
 23 24  1  0
 23 26  2  0
 23 27  1  0
 25 26  1  0
 27 29  2  0
 27 30  1  0
 28 31  1  0
 29 32  1  0
M  END
>  <PUBCHEM_COMPOUND_CID>  (1) 
4003

>  <PUBCHEM_CONFORMER_RMSD>  (1) 
1.4

>  <PUBCHEM_CONFORMER_DIVERSEORDER>  (1) 
2
15
63
31
32
54
69
106
57
44
109
16
34
77
98
84
37
53
10
21
40
67
100
42
101
9
39
76
65
94
86
7
61
33
50
45
30
60
55
74
59
80
99
62
48
85
90
20
11
81
29
35
71
51
79
12
28
46
70
96
108
78
89
8
93
83
19
26
1
73
23
87
14
66
17
41
56
92
5
43
103
38
27
82
72
58
22
107
97
49
52
91
3
75
13
47
95
88
102
68
25
4
18
64
6
24
36
104
105
110

>  <PUBCHEM_MMFF94_PARTIAL_CHARGES>  (1) 
33
1 -0.43
11 0.36
14 0.57
15 0.3
16 0.28
17 0.78
18 0.12
2 -0.57
22 -0.15
23 0.03
24 0.08
25 -0.15
26 -0.15
27 -0.17
28 0.57
29 -0.14
3 -0.57
30 0.14
31 0.06
32 0.71
4 -0.23
40 0.37
43 0.37
5 -0.57
53 0.37
54 0.15
55 0.15
56 0.15
57 0.15
6 -0.57
7 -0.73
8 -0.55
9 -0.73

>  <PUBCHEM_EFFECTIVE_ROTOR_COUNT>  (1) 
13

>  <PUBCHEM_PHARMACOPHORE_FEATURES>  (1) 
10
1 2 acceptor
1 3 acceptor
1 5 acceptor
1 6 acceptor
1 7 donor
1 8 donor
1 9 donor
4 16 19 20 21 hydrophobe
6 18 22 23 24 25 26 rings
6 4 23 24 27 29 32 rings

>  <PUBCHEM_HEAVY_ATOM_COUNT>  (1) 
32

>  <PUBCHEM_ATOM_DEF_STEREO_COUNT>  (1) 
0

>  <PUBCHEM_ATOM_UDEF_STEREO_COUNT>  (1) 
1

>  <PUBCHEM_BOND_DEF_STEREO_COUNT>  (1) 
0

>  <PUBCHEM_BOND_UDEF_STEREO_COUNT>  (1) 
0

>  <PUBCHEM_ISOTOPIC_ATOM_COUNT>  (1) 
0

>  <PUBCHEM_COMPONENT_COUNT>  (1) 
1

>  <PUBCHEM_CACTVS_TAUTO_COUNT>  (1) 
8

>  <PUBCHEM_CONFORMER_ID>  (1) 
00000FA300000002

>  <PUBCHEM_MMFF94_ENERGY>  (1) 
82.6345

>  <PUBCHEM_FEATURE_SELFOVERLAP>  (1) 
50.774

>  <PUBCHEM_SHAPE_FINGERPRINT>  (1) 
11719270 70 18409730642753654880
12422481 6 18260552238171347434
12616971 3 17967807293478093184
12788726 201 17763193835214079718
14117953 113 18410293575991444116
14294032 229 18198633313999818491
15927050 60 18343303678212247279
19309040 13 16518245329709183764
20554085 129 17917421017066272026
21781055 127 18200043854748717576
27425 322 17822297932979178810
3411729 13 18335985264345138099
3633792 109 18200314295537492209
38695281 34 18410577275249705547
4073 2 16226339221207763416
4093350 32 17346320345589190406
4340502 62 18343866602078515327
504843 32 18334857251805340243
5219985 9 8790882982951019945
5265222 85 18195537118924574700
5385378 56 18340487759728011635
59755656 520 18342451565226461885
6058803 2 17900258916815960268
6669772 16 18273220768228753431

>  <PUBCHEM_SHAPE_MULTIPOLES>  (1) 
608.39
19.41
4.5
1.43
13.08
6.73
0.08
-20.15
3.65
1.15
-1.66
-1.25
-0.39
-1.94

>  <PUBCHEM_SHAPE_SELFOVERLAP>  (1) 
1257.009

>  <PUBCHEM_SHAPE_VOLUME>  (1) 
347.8

>  <PUBCHEM_COORDINATE_TYPE>  (1) 
2
5
10

$$$$
