40042
     RDKit          3D

 25 27  0  0  1  0  0  0  0  0999 V2000
   -1.5117   -1.4747    0.1437 O   0  0  0  0  0  0  0  0  0  0  0  0
    0.4972   -4.5399   -0.0215 N   0  0  0  0  0  0  0  0  0  0  0  0
    1.6440    1.3897    0.3842 C   0  0  0  0  0  0  0  0  0  0  0  0
   -1.6028   -0.2763   -0.6723 C   0  0  0  0  0  0  0  0  0  0  0  0
    2.2821    1.8454    1.6733 C   0  0  0  0  0  0  0  0  0  0  0  0
    2.2830    1.5568   -0.8584 C   0  0  0  0  0  0  0  0  0  0  0  0
    3.5755    1.0994    1.9991 C   0  0  0  0  0  0  0  0  0  0  0  0
    3.6425    2.2012   -0.9724 C   0  0  0  0  0  0  0  0  0  0  0  0
    4.7956    1.6149    1.2381 C   0  0  0  0  0  0  0  0  0  0  0  0
    4.7445    1.4052   -0.2741 C   0  0  0  0  0  0  0  0  0  0  0  0
   -0.2557    0.3601   -0.7410 C   0  0  0  0  0  0  0  0  0  0  0  0
    0.3732    0.7906    0.4265 C   0  0  0  0  0  0  0  0  0  0  0  0
    1.6348    1.1204   -2.0269 C   0  0  0  0  0  0  0  0  0  0  0  0
    0.3754    0.5250   -1.9681 C   0  0  0  0  0  0  0  0  0  0  0  0
   -2.6742    0.6592   -0.0584 C   0  0  0  0  0  0  0  0  0  0  0  0
   -2.1781   -0.8216   -2.0152 C   0  0  0  0  0  0  0  0  0  0  0  0
   -0.5443   -2.3545   -0.3835 C   0  0  0  0  0  0  0  0  0  0  0  0
   -2.9231    1.8468   -0.6879 C   0  0  0  0  0  0  0  0  0  0  0  0
   -3.3107    0.2441    1.0780 C   0  0  0  0  0  0  0  0  0  0  0  0
   -0.4792   -3.5929    0.4960 C   0  0  0  0  0  0  0  0  0  0  0  0
   -3.8879    2.6891   -0.1354 C   0  0  0  0  0  0  0  0  0  0  0  0
   -4.2756    1.0864    1.6305 C   0  0  0  0  0  0  0  0  0  0  0  0
   -4.5641    2.3089    1.0237 C   0  0  0  0  0  0  0  0  0  0  0  0
    0.5306   -5.7514    0.8015 C   0  0  0  0  0  0  0  0  0  0  0  0
    1.8287   -3.9318   -0.0797 C   0  0  0  0  0  0  0  0  0  0  0  0
  1  4  1  0
  1 17  1  0
  2 20  1  0
  2 24  1  0
  2 25  1  0
  3  5  1  0
  3  6  2  0
  3 12  1  0
  4 11  1  0
  4 15  1  0
  4 16  1  0
  5  7  1  0
  6  8  1  0
  6 13  1  0
  7  9  1  0
  8 10  1  0
  9 10  1  0
 11 12  2  0
 11 14  1  0
 13 14  2  0
 15 18  2  0
 15 19  1  0
 17 20  1  0
 18 21  1  0
 19 22  2  0
 21 23  2  0
 22 23  1  0
M  END
>  <PUBCHEM_COMPOUND_CID>  (1) 
40042

>  <PUBCHEM_CONFORMER_RMSD>  (1) 
0.8

>  <PUBCHEM_CONFORMER_DIVERSEORDER>  (1) 
1
100
82
101
96
23
40
116
115
47
91
25
121
29
118
125
71
77
21
55
78
123
7
72
62
120
89
14
122
60
108
75
43
93
57
119
114
38
50
16
37
64
127
98
110
99
28
63
6
59
112
20
31
128
26
105
46
83
111
9
10
117
68
33
102
84
49
81
124
88
48
19
58
3
53
52
34
80
66
97
36
15
106
109
5
8
79
42
45
94
69
17
61
92
51
11
73
41
86
104
85
54
4
74
65
24
22
2
95
87
32
113
30
12
35
13
56
44
70
39
67
103
126
90
27
76
107
18

>  <PUBCHEM_MMFF94_PARTIAL_CHARGES>  (1) 
29
1 -0.56
11 -0.14
12 -0.15
13 -0.15
14 -0.15
15 -0.14
17 0.28
18 -0.15
19 -0.15
2 -0.81
20 0.27
21 -0.15
22 -0.15
23 -0.15
24 0.27
25 0.27
3 -0.14
36 0.15
37 0.15
38 0.15
4 0.57
44 0.15
45 0.15
48 0.15
49 0.15
5 0.14
50 0.15
6 -0.14
8 0.14

>  <PUBCHEM_EFFECTIVE_ROTOR_COUNT>  (1) 
7

>  <PUBCHEM_PHARMACOPHORE_FEATURES>  (1) 
5
1 1 acceptor
1 2 cation
6 15 18 19 21 22 23 rings
6 3 6 11 12 13 14 rings
7 3 5 6 7 8 9 10 rings

>  <PUBCHEM_HEAVY_ATOM_COUNT>  (1) 
25

>  <PUBCHEM_ATOM_DEF_STEREO_COUNT>  (1) 
0

>  <PUBCHEM_ATOM_UDEF_STEREO_COUNT>  (1) 
1

>  <PUBCHEM_BOND_DEF_STEREO_COUNT>  (1) 
0

>  <PUBCHEM_BOND_UDEF_STEREO_COUNT>  (1) 
0

>  <PUBCHEM_ISOTOPIC_ATOM_COUNT>  (1) 
0

>  <PUBCHEM_COMPONENT_COUNT>  (1) 
1

>  <PUBCHEM_CACTVS_TAUTO_COUNT>  (1) 
1

>  <PUBCHEM_CONFORMER_ID>  (1) 
00009C6A00000001

>  <PUBCHEM_MMFF94_ENERGY>  (1) 
85.5141

>  <PUBCHEM_FEATURE_SELFOVERLAP>  (1) 
25.38

>  <PUBCHEM_SHAPE_FINGERPRINT>  (1) 
10064457 181 18338517555682630882
10305334 12 16624276608747673882
107951 10 18271534181683807070
1100329 8 16752694859192250313
11070050 100 18055102954397761115
11552529 35 17832415772179741464
11582403 64 17846773009820087196
12156800 1 14494470956149333314
12160290 23 17982446298057778967
12422481 6 17970047973452495320
12788726 201 17612606921839422274
12839892 36 18261689167902047659
13004483 165 17618225452022055691
13134695 92 17692246340504642333
13140716 1 18411982425213631451
13294875 104 18200599068653362933
133893 2 18048849958661592127
14178342 30 18338801246340460822
14955137 171 17697611987281727727
15064986 96 18117265961292079313
15131766 46 15974339746103926730
15230672 131 18335432262311564622
15842332 3 17607532633096952292
15927050 60 18341058453539759391
17357779 13 12396575277840074529
17980427 23 16978705024054548041
17980427 26 18198612246736319637
18785283 64 18190468164151482795
20602899 9 17901911404845118055
21033648 29 18341895199010473832
21120745 212 17328042360309527973
212916 134 18341891904764808528
21304253 13 17329994595128983585
22956985 138 18116725019200365267
23419403 2 17541645124403840197
23559900 14 17681286460518542545
283562 15 18198327654267518207
3380486 77 17973709574837950199
469060 322 11820114611498989624
5171179 24 17542766626369855109
5265222 85 18264512696761558284
5385378 56 18268437828307677745
58807428 26 18411139129833167205
7226269 152 17989489611080532048
79837 15 18337954618139955482
81228 2 17839751696591014943
9925002 15 11119120818570192228
9981440 41 18409172099937963177

>  <PUBCHEM_SHAPE_MULTIPOLES>  (1) 
503.64
8.04
5.64
1.83
0.52
13.57
0.19
-9.54
-3.2
1.4
-1.4
0.43
-0.79
-0.42

>  <PUBCHEM_SHAPE_SELFOVERLAP>  (1) 
1063.581

>  <PUBCHEM_SHAPE_VOLUME>  (1) 
282.4

>  <PUBCHEM_COORDINATE_TYPE>  (1) 
2
5
10

$$$$
