40053
     RDKit          3D

 19 19  0  0  0  0  0  0  0  0999 V2000
    0.3790   -0.3918   -0.6179 O   0  0  0  0  0  0  0  0  0  0  0  0
    0.5788    1.8995   -0.5187 O   0  0  0  0  0  0  0  0  0  0  0  0
    4.6852   -2.2452    0.2240 O   0  0  0  0  0  0  0  0  0  0  0  0
   -3.2806   -0.1805    0.0810 N   0  0  0  0  0  0  0  0  0  0  0  0
    4.2624   -1.0452    0.1678 N   0  0  0  0  0  0  0  0  0  0  0  0
   -1.7939   -0.2676    0.3944 C   0  0  0  0  0  0  0  0  0  0  0  0
   -3.5671    1.1148   -0.6648 C   0  0  0  0  0  0  0  0  0  0  0  0
   -4.0747   -0.2048    1.3791 C   0  0  0  0  0  0  0  0  0  0  0  0
   -3.6869   -1.3647   -0.7845 C   0  0  0  0  0  0  0  0  0  0  0  0
   -1.0087   -0.2742   -0.9023 C   0  0  0  0  0  0  0  0  0  0  0  0
   -5.0462    1.1955   -0.9733 C   0  0  0  0  0  0  0  0  0  0  0  0
   -3.6667    0.9743    2.2350 C   0  0  0  0  0  0  0  0  0  0  0  0
   -3.3999   -2.6491   -0.0381 C   0  0  0  0  0  0  0  0  0  0  0  0
    1.0560    0.7775   -0.4482 C   0  0  0  0  0  0  0  0  0  0  0  0
    2.4892    0.5189   -0.1592 C   0  0  0  0  0  0  0  0  0  0  0  0
    2.9328   -0.7817   -0.0998 C   0  0  0  0  0  0  0  0  0  0  0  0
    3.3373    1.5823    0.0418 C   0  0  0  0  0  0  0  0  0  0  0  0
    4.6776    1.3285    0.3117 C   0  0  0  0  0  0  0  0  0  0  0  0
    5.1265    0.0134    0.3719 C   0  0  0  0  0  0  0  0  0  0  0  0
  1 10  1  0
  1 14  1  0
  2 14  2  0
  3  5  1  0
  4  6  1  0
  4  7  1  0
  4  8  1  0
  4  9  1  0
  5 16  2  0
  5 19  1  0
  6 10  1  0
  7 11  1  0
  8 12  1  0
  9 13  1  0
 14 15  1  0
 15 16  1  0
 15 17  2  0
 17 18  1  0
 18 19  2  0
M  CHG  3   3  -1   4   1   5   1
M  END
>  <PUBCHEM_COMPOUND_CID>  (1) 
40053

>  <PUBCHEM_CONFORMER_RMSD>  (1) 
0.8

>  <PUBCHEM_CONFORMER_DIVERSEORDER>  (1) 
6
107
62
53
9
108
96
25
42
117
75
36
63
5
72
91
17
54
110
12
55
24
109
116
2
61
60
70
86
78
88
112
3
93
29
33
16
94
67
100
82
31
102
73
4
123
11
118
19
47
32
84
21
113
37
106
64
83
57
90
59
8
45
7
65
120
89
41
111
34
44
51
92
68
97
127
1
121
128
10
71
38
66
77
98
46
85
35
79
129
50
69
39
122
13
48
103
74
80
40
28
114
49
26
105
101
15
95
18
87
27
119
115
104
20
43
99
14
76
22
81
124
126
52
58
23
30
56
125

>  <PUBCHEM_MMFF94_PARTIAL_CHARGES>  (1) 
20
1 -0.43
10 0.28
14 0.63
15 0.09
16 -0.06
17 -0.15
18 -0.15
19 -0.06
2 -0.57
3 -0.75
39 0.15
4 -1.01
40 0.15
41 0.15
42 0.15
5 0.57
6 0.5
7 0.5
8 0.5
9 0.5

>  <PUBCHEM_EFFECTIVE_ROTOR_COUNT>  (1) 
8

>  <PUBCHEM_PHARMACOPHORE_FEATURES>  (1) 
4
1 2 acceptor
1 3 anion
1 4 cation
6 5 15 16 17 18 19 rings

>  <PUBCHEM_HEAVY_ATOM_COUNT>  (1) 
19

>  <PUBCHEM_ATOM_DEF_STEREO_COUNT>  (1) 
0

>  <PUBCHEM_ATOM_UDEF_STEREO_COUNT>  (1) 
0

>  <PUBCHEM_BOND_DEF_STEREO_COUNT>  (1) 
0

>  <PUBCHEM_BOND_UDEF_STEREO_COUNT>  (1) 
0

>  <PUBCHEM_ISOTOPIC_ATOM_COUNT>  (1) 
0

>  <PUBCHEM_COMPONENT_COUNT>  (1) 
1

>  <PUBCHEM_CACTVS_TAUTO_COUNT>  (1) 
1

>  <PUBCHEM_CONFORMER_ID>  (1) 
00009C7500000006

>  <PUBCHEM_MMFF94_ENERGY>  (1) 
68.2554

>  <PUBCHEM_FEATURE_SELFOVERLAP>  (1) 
20.297

>  <PUBCHEM_SHAPE_FINGERPRINT>  (1) 
10680689 15 18040998453432870709
10912923 1 17988925591204720394
11089746 13 17203603809661161672
11315181 36 17775281689971650017
11370993 144 18335986363545425349
11405975 8 18411136930867966577
11552529 35 17986387999941154247
12107183 9 17911810071964942018
12507557 5 18201155546307528873
12596602 18 17774724268158116810
12670546 56 17918269840290984088
12892183 10 18059573650148807272
13167823 11 18341610460016321294
13583140 156 18129653226862983837
13675066 3 18040438797455777172
14251757 5 11892207316689321168
14251764 38 15410890756067953122
14252887 29 18186239541816586816
14790565 3 17830459741195492876
15196674 1 18409163329176900830
15788980 27 18187082862285963396
17834072 33 18339358673213664284
17844677 252 18260270754493964988
1813 80 16877944936312233188
19141452 34 18334573542748758135
19489759 90 16271923792368493161
200 152 18059848506939591727
20281475 54 18260831548299417998
20432913 95 18260267468854065106
20645477 70 18337664235696251278
21065198 48 18201722877000692650
21065198 57 18408881854020790180
22485316 2 18335416876709632982
2306618 200 18341896303655078529
23402539 116 18334005116427223700
23557571 272 14117809032918182001
23559900 14 18411412908761454264
26918003 58 18412537709029938672
2838139 119 18266166242070634189
300161 21 18341043086235639204
341906 21 15913331256250408474
4214541 1 18409444808369191205
5104073 3 18342455967309692058
573450 72 17918275350559899419
5924683 9 18340485690081626799
602551 16 15791739641247715544
633830 44 16950282926973646661
77779 3 18409164441567915398
90127 26 17821730532964975996
9709674 26 18187649162477685346

>  <PUBCHEM_SHAPE_MULTIPOLES>  (1) 
363.44
12.52
2.04
1.21
5.56
0.93
-0.59
0.49
-1.58
-0.17
0.07
-1.87
-0.36
-0.27

>  <PUBCHEM_SHAPE_SELFOVERLAP>  (1) 
729.436

>  <PUBCHEM_SHAPE_VOLUME>  (1) 
215.8

>  <PUBCHEM_COORDINATE_TYPE>  (1) 
2
5
10

$$$$
