40058
     RDKit          3D

 12 11  0  0  1  0  0  0  0  0999 V2000
    3.5833   -2.4601   -0.4330 N   0  0  0  0  0  0  0  0  0  0  0  0
    1.1835    1.7834    0.4340 C   0  0  0  0  0  0  0  0  0  0  0  0
   -0.2854    1.3662    0.6589 C   0  0  0  0  0  0  0  0  0  0  0  0
    2.0855    0.6732   -0.1421 C   0  0  0  0  0  0  0  0  0  0  0  0
   -1.0526    0.9758   -0.6082 C   0  0  0  0  0  0  0  0  0  0  0  0
    1.2777    3.0343   -0.4461 C   0  0  0  0  0  0  0  0  0  0  0  0
    2.0400   -0.6308    0.6575 C   0  0  0  0  0  0  0  0  0  0  0  0
   -2.4530    0.5396   -0.2757 C   0  0  0  0  0  0  0  0  0  0  0  0
   -2.8954   -0.7135   -0.0591 C   0  0  0  0  0  0  0  0  0  0  0  0
    2.9033   -1.6521    0.0477 C   0  0  0  0  0  0  0  0  0  0  0  0
   -4.3500   -0.9694    0.2320 C   0  0  0  0  0  0  0  0  0  0  0  0
   -2.0368   -1.9466   -0.0659 C   0  0  0  0  0  0  0  0  0  0  0  0
  1 10  3  0
  2  3  1  0
  2  4  1  0
  2  6  1  0
  3  5  1  0
  4  7  1  0
  5  8  1  0
  7 10  1  0
  8  9  2  3
  9 11  1  0
  9 12  1  0
M  END
>  <PUBCHEM_COMPOUND_CID>  (1) 
40058

>  <PUBCHEM_CONFORMER_RMSD>  (1) 
0.6

>  <PUBCHEM_CONFORMER_DIVERSEORDER>  (1) 
1
74
140
94
28
12
180
141
136
124
167
101
65
156
128
108
10
110
37
100
85
160
144
155
174
122
162
58
80
95
55
99
27
154
163
87
82
137
92
36
88
86
77
120
46
97
84
157
63
151
41
91
172
149
176
175
79
153
68
164
152
54
145
96
51
111
83
150
81
93
131
39
56
48
106
133
119
159
142
89
62
116
103
109
60
158
171
40
57
177
121
70
19
21
147
15
126
165
45
104
178
173
44
64
118
30
130
179
78
29
67
8
16
107
169
112
148
115
73
69
139
66
125
18
61
143
161
102
7
23
168
31
17
123
20
146
134
138
35
117
166
24
38
32
135
129
22
49
53
2
98
127
3
90
25
33
50
114
113
5
59
170
9
132
105
71
26
47
14
52
76
72
11
13
6
75
43
42
4
34

>  <PUBCHEM_MMFF94_PARTIAL_CHARGES>  (1) 
9
1 -0.56
10 0.36
11 0.14
12 0.14
25 0.15
5 0.14
7 0.2
8 -0.29
9 -0.28

>  <PUBCHEM_EFFECTIVE_ROTOR_COUNT>  (1) 
5

>  <PUBCHEM_PHARMACOPHORE_FEATURES>  (1) 
5
1 1 acceptor
1 6 hydrophobe
3 2 4 7 hydrophobe
3 3 5 8 hydrophobe
3 9 11 12 hydrophobe

>  <PUBCHEM_HEAVY_ATOM_COUNT>  (1) 
12

>  <PUBCHEM_ATOM_DEF_STEREO_COUNT>  (1) 
0

>  <PUBCHEM_ATOM_UDEF_STEREO_COUNT>  (1) 
1

>  <PUBCHEM_BOND_DEF_STEREO_COUNT>  (1) 
0

>  <PUBCHEM_BOND_UDEF_STEREO_COUNT>  (1) 
0

>  <PUBCHEM_ISOTOPIC_ATOM_COUNT>  (1) 
0

>  <PUBCHEM_COMPONENT_COUNT>  (1) 
1

>  <PUBCHEM_CACTVS_TAUTO_COUNT>  (1) 
1

>  <PUBCHEM_CONFORMER_ID>  (1) 
00009C7A00000001

>  <PUBCHEM_MMFF94_ENERGY>  (1) 
9.8468

>  <PUBCHEM_FEATURE_SELFOVERLAP>  (1) 
25.389

>  <PUBCHEM_SHAPE_FINGERPRINT>  (1) 
12841375 25 18409730629942527972
13533116 47 18198907092890617203
14251705 54 18411700976101838990
14251710 61 18411140195027696395
15279307 12 17911240838479400653
17990270 104 18409723001874849568
19766037 51 18335154075992652102
20201158 50 18336541732728471675
20291156 8 18339080384944808338
20645477 70 18263633125818805727
20671657 53 18410295778655408750
20871998 22 18411415090351678624
20871999 31 18189055296020361436
21665056 4 16897929363364026446
23530152 11 17617098448519510556
23552423 10 18264768946788956581
4416823 128 18410575058909333286
7364860 26 18339641269108624584

>  <PUBCHEM_SHAPE_MULTIPOLES>  (1) 
241.97
6.43
3.06
0.77
3.89
0.35
-0.03
-4.7
0.09
-2.93
0.38
-0.08
0.1
0.22

>  <PUBCHEM_SHAPE_SELFOVERLAP>  (1) 
445.165

>  <PUBCHEM_SHAPE_VOLUME>  (1) 
152

>  <PUBCHEM_COORDINATE_TYPE>  (1) 
2
5
10

$$$$
