40065
     RDKit          3D

 26 29  0  0  0  0  0  0  0  0999 V2000
    1.7536    2.7174   -1.7420 Cl  0  0  0  0  0  0  0  0  0  0  0  0
    1.7719    2.7209    1.7449 Cl  0  0  0  0  0  0  0  0  0  0  0  0
    1.7695   -2.7217   -1.7452 Cl  0  0  0  0  0  0  0  0  0  0  0  0
    1.7524   -2.7184    1.7418 Cl  0  0  0  0  0  0  0  0  0  0  0  0
    2.6070   -0.0146   -2.9152 O   0  0  0  0  0  0  0  0  0  0  0  0
    2.6079    0.0131    2.9145 O   0  0  0  0  0  0  0  0  0  0  0  0
    1.4542    1.1172   -1.2135 N   0  0  0  0  0  0  0  0  0  0  0  0
    1.4560    1.1288    1.2018 N   0  0  0  0  0  0  0  0  0  0  0  0
    1.4551   -1.1295   -1.2019 N   0  0  0  0  0  0  0  0  0  0  0  0
    1.4537   -1.1180    1.2135 N   0  0  0  0  0  0  0  0  0  0  0  0
    0.6779    0.8079   -0.0038 C   0  0  0  0  0  0  0  0  0  0  0  0
    0.6775   -0.8081    0.0039 C   0  0  0  0  0  0  0  0  0  0  0  0
   -0.6751    1.4358   -0.0058 C   0  0  0  0  0  0  0  0  0  0  0  0
   -0.6757   -1.4354    0.0060 C   0  0  0  0  0  0  0  0  0  0  0  0
    1.9270   -0.0095   -1.8958 C   0  0  0  0  0  0  0  0  0  0  0  0
    1.9274    0.0085    1.8955 C   0  0  0  0  0  0  0  0  0  0  0  0
   -1.3068    1.7352    1.2011 C   0  0  0  0  0  0  0  0  0  0  0  0
   -1.3078   -1.7344   -1.2010 C   0  0  0  0  0  0  0  0  0  0  0  0
   -1.3086    1.7232   -1.2148 C   0  0  0  0  0  0  0  0  0  0  0  0
   -1.3095   -1.7226    1.2149 C   0  0  0  0  0  0  0  0  0  0  0  0
   -2.5722    2.3220    1.1993 C   0  0  0  0  0  0  0  0  0  0  0  0
   -2.5735   -2.3207   -1.1990 C   0  0  0  0  0  0  0  0  0  0  0  0
   -2.5740    2.3102   -1.2166 C   0  0  0  0  0  0  0  0  0  0  0  0
   -2.5751   -2.3089    1.2170 C   0  0  0  0  0  0  0  0  0  0  0  0
   -3.2058    2.6095   -0.0096 C   0  0  0  0  0  0  0  0  0  0  0  0
   -3.2071   -2.6079    0.0099 C   0  0  0  0  0  0  0  0  0  0  0  0
  1  7  1  0
  2  8  1  0
  3  9  1  0
  4 10  1  0
  5 15  2  0
  6 16  2  0
  7 11  1  0
  7 15  1  0
  8 11  1  0
  8 16  1  0
  9 12  1  0
  9 15  1  0
 10 12  1  0
 10 16  1  0
 11 12  1  0
 11 13  1  0
 12 14  1  0
 13 17  2  0
 13 19  1  0
 14 18  2  0
 14 20  1  0
 17 21  1  0
 18 22  1  0
 19 23  2  0
 20 24  2  0
 21 25  2  0
 22 26  2  0
 23 25  1  0
 24 26  1  0
M  END
>  <PUBCHEM_COMPOUND_CID>  (1) 
40065

>  <PUBCHEM_CONFORMER_RMSD>  (1) 
0.6

>  <PUBCHEM_CONFORMER_DIVERSEORDER>  (1) 
1

>  <PUBCHEM_MMFF94_PARTIAL_CHARGES>  (1) 
36
1 -0.06
10 -0.3
11 0.74
12 0.74
13 -0.14
14 -0.14
15 0.69
16 0.69
17 -0.15
18 -0.15
19 -0.15
2 -0.06
20 -0.15
21 -0.15
22 -0.15
23 -0.15
24 -0.15
25 -0.15
26 -0.15
27 0.15
28 0.15
29 0.15
3 -0.06
30 0.15
31 0.15
32 0.15
33 0.15
34 0.15
35 0.15
36 0.15
4 -0.06
5 -0.57
6 -0.57
7 -0.3
8 -0.3
9 -0.3

>  <PUBCHEM_EFFECTIVE_ROTOR_COUNT>  (1) 
2.8

>  <PUBCHEM_PHARMACOPHORE_FEATURES>  (1) 
6
1 5 acceptor
1 6 acceptor
5 7 9 11 12 15 rings
5 8 10 11 12 16 rings
6 13 17 19 21 23 25 rings
6 14 18 20 22 24 26 rings

>  <PUBCHEM_HEAVY_ATOM_COUNT>  (1) 
26

>  <PUBCHEM_ATOM_DEF_STEREO_COUNT>  (1) 
0

>  <PUBCHEM_ATOM_UDEF_STEREO_COUNT>  (1) 
0

>  <PUBCHEM_BOND_DEF_STEREO_COUNT>  (1) 
0

>  <PUBCHEM_BOND_UDEF_STEREO_COUNT>  (1) 
0

>  <PUBCHEM_ISOTOPIC_ATOM_COUNT>  (1) 
0

>  <PUBCHEM_COMPONENT_COUNT>  (1) 
1

>  <PUBCHEM_CACTVS_TAUTO_COUNT>  (1) 
1

>  <PUBCHEM_CONFORMER_ID>  (1) 
00009C8100000001

>  <PUBCHEM_MMFF94_ENERGY>  (1) 
90.1767

>  <PUBCHEM_FEATURE_SELFOVERLAP>  (1) 
30.967

>  <PUBCHEM_SHAPE_FINGERPRINT>  (1) 
104564 63 18194118740730415425
10863032 1 17626059188796246499
11578080 2 17702965693753460464
12035759 4 17968381272211289741
12716301 132 18343299258273355858
12788726 201 17685784918574973876
13134695 92 17473219608309587391
13149001 5 18057894553869310660
133893 2 16370720457164303222
13965767 371 17916300731035619955
14142880 1 17614226331074789344
14787075 74 17267777677436342518
15209289 33 17266096493844612975
15210252 30 17826524546145002605
15238133 3 17969774375599058495
16945 1 16338590382037458096
17492 54 17324969908246461959
17980427 26 14691455138338256120
18981168 100 17775290477669975105
20600515 1 17462524516682431762
20691752 17 17699013103944087590
20905425 154 18123449838330932233
21330990 113 17197437915513544256
229495 10 17547631101880882098
23419403 2 17131563798923612932
23558518 356 17754491102096471084
238 59 18045787780524612781
3060560 45 17755600256136641277
394222 165 16083050951790515028
4340502 62 17982701153561054901
5845 1 16538130039961511448
68419 9 18040156222962014524
70251023 43 18341342179290466063
7226269 152 17108187335409162884
81228 2 18409732889469781179
9981440 41 17056069113972286554

>  <PUBCHEM_SHAPE_MULTIPOLES>  (1) 
510.88
4.33
4.17
2.56
1.89
0
0
0
0
1.88
0
-2.27
0
0.03

>  <PUBCHEM_SHAPE_SELFOVERLAP>  (1) 
1091.605

>  <PUBCHEM_SHAPE_VOLUME>  (1) 
287

>  <PUBCHEM_COORDINATE_TYPE>  (1) 
2
5
10

$$$$
