40079
     RDKit          3D

 19 20  0  0  0  0  0  0  0  0999 V2000
   -3.1097   -2.2408   -0.2918 O   0  0  0  0  0  0  0  0  0  0  0  0
    1.3130    2.3507   -0.1978 O   0  0  0  0  0  0  0  0  0  0  0  0
   -1.0925   -2.0187    0.7946 O   0  0  0  0  0  0  0  0  0  0  0  0
    0.0727    0.3664    0.0239 N   0  0  0  0  0  0  0  0  0  0  0  0
    4.8701   -1.0741   -0.0207 N   0  0  0  0  0  0  0  0  0  0  0  0
   -1.2519    0.8126    0.0091 C   0  0  0  0  0  0  0  0  0  0  0  0
   -2.3137   -0.0850    0.1205 C   0  0  0  0  0  0  0  0  0  0  0  0
   -1.5039    2.1784   -0.1193 C   0  0  0  0  0  0  0  0  0  0  0  0
   -3.6276    0.3831    0.1033 C   0  0  0  0  0  0  0  0  0  0  0  0
    1.2395    1.1326   -0.0767 C   0  0  0  0  0  0  0  0  0  0  0  0
    2.5098    0.3610   -0.0581 C   0  0  0  0  0  0  0  0  0  0  0  0
   -2.8178    2.6467   -0.1363 C   0  0  0  0  0  0  0  0  0  0  0  0
   -3.8795    1.7491   -0.0251 C   0  0  0  0  0  0  0  0  0  0  0  0
   -2.0857   -1.5185    0.2545 C   0  0  0  0  0  0  0  0  0  0  0  0
    3.6518    0.9705    0.4038 C   0  0  0  0  0  0  0  0  0  0  0  0
    2.5048   -0.9397   -0.5021 C   0  0  0  0  0  0  0  0  0  0  0  0
    4.8090    0.2085    0.4023 C   0  0  0  0  0  0  0  0  0  0  0  0
    3.7133   -1.6162   -0.4631 C   0  0  0  0  0  0  0  0  0  0  0  0
   -3.0017   -3.6666   -0.2210 C   0  0  0  0  0  0  0  0  0  0  0  0
  1 14  1  0
  1 19  1  0
  2 10  2  0
  3 14  2  0
  4  6  1  0
  4 10  1  0
  5 17  2  0
  5 18  1  0
  6  7  2  0
  6  8  1  0
  7  9  1  0
  7 14  1  0
  8 12  2  0
  9 13  2  0
 10 11  1  0
 11 15  2  0
 11 16  1  0
 12 13  1  0
 15 17  1  0
 16 18  2  0
M  END
>  <PUBCHEM_COMPOUND_CID>  (1) 
40079

>  <PUBCHEM_CONFORMER_RMSD>  (1) 
0.6

>  <PUBCHEM_CONFORMER_DIVERSEORDER>  (1) 
1
21
12
9
8
19
18
17
22
7
11
2
13
10
20
16
4
15
5
14
6
3

>  <PUBCHEM_MMFF94_PARTIAL_CHARGES>  (1) 
28
1 -0.43
10 0.54
11 0.09
12 -0.15
13 -0.15
14 0.63
15 -0.15
16 -0.15
17 0.16
18 0.16
19 0.28
2 -0.57
20 0.37
21 0.15
22 0.15
23 0.15
24 0.15
25 0.15
26 0.15
27 0.15
28 0.15
3 -0.57
4 -0.55
5 -0.62
6 0.12
7 0.09
8 -0.15
9 -0.15

>  <PUBCHEM_EFFECTIVE_ROTOR_COUNT>  (1) 
5

>  <PUBCHEM_PHARMACOPHORE_FEATURES>  (1) 
6
1 2 acceptor
1 3 acceptor
1 4 donor
1 5 acceptor
6 5 11 15 16 17 18 rings
6 6 7 8 9 12 13 rings

>  <PUBCHEM_HEAVY_ATOM_COUNT>  (1) 
19

>  <PUBCHEM_ATOM_DEF_STEREO_COUNT>  (1) 
0

>  <PUBCHEM_ATOM_UDEF_STEREO_COUNT>  (1) 
0

>  <PUBCHEM_BOND_DEF_STEREO_COUNT>  (1) 
0

>  <PUBCHEM_BOND_UDEF_STEREO_COUNT>  (1) 
0

>  <PUBCHEM_ISOTOPIC_ATOM_COUNT>  (1) 
0

>  <PUBCHEM_COMPONENT_COUNT>  (1) 
1

>  <PUBCHEM_CACTVS_TAUTO_COUNT>  (1) 
3

>  <PUBCHEM_CONFORMER_ID>  (1) 
00009C8F00000001

>  <PUBCHEM_MMFF94_ENERGY>  (1) 
66.3039

>  <PUBCHEM_FEATURE_SELFOVERLAP>  (1) 
30.446

>  <PUBCHEM_SHAPE_FINGERPRINT>  (1) 
10366900 7 17632570522774094288
10616163 171 18411984680382685342
11578080 2 17345178094667641929
12346177 29 18410285913263249095
12500047 106 18338793416657388332
12553582 1 17832720332305397003
12555020 224 18337944589654537463
13140716 1 18338806735667341777
13544592 145 18126292943545986886
13583140 156 17703216425496762408
138480 1 16825589186221958279
14178342 30 18337095835428974050
14790565 3 18123477072698405769
14965852 173 18410856585457338973
15042514 8 18336552702876792427
15196674 1 18410856577342080074
15352361 1 18267302217084171999
15375358 24 18271524196006078540
17492 89 18338236084769486818
17804303 29 18411142415494165940
19141452 34 18411140221018799373
19591789 44 18048880697752851307
19930381 70 17474672750217460343
200 152 17561073683718699501
20510252 161 18198905820868453065
20645477 56 18408886200570261857
20645477 70 17345754071615522420
21065198 57 18412262805485215632
21267235 1 18337400361067933096
21478907 32 18266740380239365295
21501502 16 18263933300545286844
221490 88 18339084903624696824
23184049 29 18338240478209190261
23402539 116 18342167848498777973
23557571 272 18272938244904871294
23558518 356 18188493613124847561
23559900 14 18342454799621769456
23622692 118 18268706289079482374
26918003 58 18201996587077445920
3421961 26 17619069873190119811
4214541 1 18411138004826334600
5104073 3 18341891913823729104
5309563 4 17832714847485058379
532947 4 17836931096888950063
54173680 148 18410576227572831013
559249 180 18043807581251473202
5924683 9 18342450482462458983
69090 78 18339641144464733249
81228 2 18189333649015076129
8809292 202 18409732850393212264
9709674 26 18343304738736119214

>  <PUBCHEM_SHAPE_MULTIPOLES>  (1) 
363.44
9.09
3.35
0.68
7.9
2.05
-0.01
1.2
-0.15
-4.07
0.23
0.09
0.07
0.32

>  <PUBCHEM_SHAPE_SELFOVERLAP>  (1) 
783.4

>  <PUBCHEM_SHAPE_VOLUME>  (1) 
198

>  <PUBCHEM_COORDINATE_TYPE>  (1) 
2
5
10

$$$$
