40071
     RDKit          3D

 12 11  0  0  1  0  0  0  0  0999 V2000
    0.4793    2.8592    0.8083 Br  0  0  0  0  0  0  0  0  0  0  0  0
   -1.3409    1.2973   -1.8232 Br  0  0  0  0  0  0  0  0  0  0  0  0
    3.2336   -0.5362   -0.9660 O   0  0  0  0  0  0  0  0  0  0  0  0
   -3.5963   -0.1752    0.6374 O   0  0  0  0  0  0  0  0  0  0  0  0
    2.2263   -1.9770    0.4706 O   0  0  0  0  0  0  0  0  0  0  0  0
   -2.4058   -1.7667   -0.4609 O   0  0  0  0  0  0  0  0  0  0  0  0
    0.9551    1.1724   -0.0908 C   0  0  0  0  0  0  0  0  0  0  0  0
   -0.2921    0.3493   -0.4473 C   0  0  0  0  0  0  0  0  0  0  0  0
    1.9234    0.3974    0.8062 C   0  0  0  0  0  0  0  0  0  0  0  0
   -1.2081   -0.0290    0.7174 C   0  0  0  0  0  0  0  0  0  0  0  0
    2.4666   -0.8309    0.1120 C   0  0  0  0  0  0  0  0  0  0  0  0
   -2.4411   -0.7605    0.2364 C   0  0  0  0  0  0  0  0  0  0  0  0
  1  7  1  0
  2  8  1  0
  3 11  1  0
  4 12  1  0
  5 11  2  0
  6 12  2  0
  7  8  1  0
  7  9  1  0
  8 10  1  0
  9 11  1  0
 10 12  1  0
M  END
>  <PUBCHEM_COMPOUND_CID>  (1) 
40071

>  <PUBCHEM_CONFORMER_RMSD>  (1) 
0.6

>  <PUBCHEM_CONFORMER_DIVERSEORDER>  (1) 
1
52
65
57
70
48
41
46
22
91
96
31
10
82
87
32
20
101
34
16
26
99
30
14
76
15
37
80
18
66
56
27
47
35
90
73
38
7
55
75
89
6
53
78
67
2
43
3
84
4
40
98
68
61
12
74
81
94
100
83
62
33
36
97
71
5
58
49
50
102
54
51
39
92
45
19
93
72
64
29
60
85
79
86
44
59
28
77
88
95
11
13
63
103
42
8
69
17
23
24
9
21
25

>  <PUBCHEM_MMFF94_PARTIAL_CHARGES>  (1) 
14
1 -0.23
10 0.06
11 0.66
12 0.66
19 0.5
2 -0.23
20 0.5
3 -0.65
4 -0.65
5 -0.57
6 -0.57
7 0.23
8 0.23
9 0.06

>  <PUBCHEM_EFFECTIVE_ROTOR_COUNT>  (1) 
5

>  <PUBCHEM_PHARMACOPHORE_FEATURES>  (1) 
8
1 1 hydrophobe
1 2 hydrophobe
1 3 acceptor
1 4 acceptor
1 5 acceptor
1 6 acceptor
3 3 5 11 anion
3 4 6 12 anion

>  <PUBCHEM_HEAVY_ATOM_COUNT>  (1) 
12

>  <PUBCHEM_ATOM_DEF_STEREO_COUNT>  (1) 
0

>  <PUBCHEM_ATOM_UDEF_STEREO_COUNT>  (1) 
2

>  <PUBCHEM_BOND_DEF_STEREO_COUNT>  (1) 
0

>  <PUBCHEM_BOND_UDEF_STEREO_COUNT>  (1) 
0

>  <PUBCHEM_ISOTOPIC_ATOM_COUNT>  (1) 
0

>  <PUBCHEM_COMPONENT_COUNT>  (1) 
1

>  <PUBCHEM_CACTVS_TAUTO_COUNT>  (1) 
1

>  <PUBCHEM_CONFORMER_ID>  (1) 
00009C8700000001

>  <PUBCHEM_MMFF94_ENERGY>  (1) 
19.1092

>  <PUBCHEM_FEATURE_SELFOVERLAP>  (1) 
40.714

>  <PUBCHEM_SHAPE_FINGERPRINT>  (1) 
12524768 44 17897718997289176929
12932764 1 18334570261224938571
15501101 241 18262519328750027405
15906896 17 17553761755316388008
161256 15 18187639258151186453
16945 1 18337385045430930809
18511873 20 18272095985139332321
20201158 50 18261108586559405794
20379382 53 18196085762352755349
20645477 70 18055066821007282383
20711978 78 18197484328163367621
20711985 344 17241307110980336421
20711985 365 18192994807506923424
21061003 4 18270103708561347768
22802520 49 17895741920605604629
23526113 38 18049123775453228732
23552423 10 18197497548394048859
59915604 170 15647634361656117180
7364860 26 18056764457779595200
81228 2 17840855283942853576

>  <PUBCHEM_SHAPE_MULTIPOLES>  (1) 
235.36
4.57
2.39
1.29
0.65
1.18
0.53
-2.73
-0.09
-0.56
-0.41
0.35
0.54
0.56

>  <PUBCHEM_SHAPE_SELFOVERLAP>  (1) 
424.337

>  <PUBCHEM_SHAPE_VOLUME>  (1) 
154.1

>  <PUBCHEM_COORDINATE_TYPE>  (1) 
2
5
10

$$$$
