40086
     RDKit          3D

 22 26  0  0  1  0  0  0  0  0999 V2000
    1.1383   -2.6073    1.4139 O   0  0  0  0  0  0  0  0  0  0  0  0
    3.2894   -2.7014   -0.2435 O   0  0  0  0  0  0  0  0  0  0  0  0
    0.1092    0.0876   -0.0480 C   0  0  0  0  0  0  0  0  0  0  0  0
    0.9218   -2.3095    0.0307 C   0  0  0  0  0  0  0  0  0  0  0  0
   -0.1881   -1.2886   -0.0822 C   0  0  0  0  0  0  0  0  0  0  0  0
    2.2287   -1.8219   -0.6051 C   0  0  0  0  0  0  0  0  0  0  0  0
    1.4652    0.5226   -0.0564 C   0  0  0  0  0  0  0  0  0  0  0  0
    2.5417   -0.3817   -0.2468 C   0  0  0  0  0  0  0  0  0  0  0  0
   -0.9600    1.0225    0.0226 C   0  0  0  0  0  0  0  0  0  0  0  0
    1.7623    1.8950    0.0999 C   0  0  0  0  0  0  0  0  0  0  0  0
   -2.3235    0.5598   -0.0216 C   0  0  0  0  0  0  0  0  0  0  0  0
   -1.5135   -1.7327   -0.1073 C   0  0  0  0  0  0  0  0  0  0  0  0
   -2.5787   -0.8315   -0.0934 C   0  0  0  0  0  0  0  0  0  0  0  0
   -0.6096    2.3841    0.1503 C   0  0  0  0  0  0  0  0  0  0  0  0
    3.8667    0.0810   -0.2388 C   0  0  0  0  0  0  0  0  0  0  0  0
    0.7177    2.8101    0.2083 C   0  0  0  0  0  0  0  0  0  0  0  0
    3.0956    2.3315    0.1262 C   0  0  0  0  0  0  0  0  0  0  0  0
    4.1412    1.4283   -0.0345 C   0  0  0  0  0  0  0  0  0  0  0  0
   -3.4591    1.4101    0.0052 C   0  0  0  0  0  0  0  0  0  0  0  0
   -3.8966   -1.3194   -0.1338 C   0  0  0  0  0  0  0  0  0  0  0  0
   -4.7651    0.9140   -0.0380 C   0  0  0  0  0  0  0  0  0  0  0  0
   -4.9839   -0.4524   -0.1077 C   0  0  0  0  0  0  0  0  0  0  0  0
  1  4  1  0
  2  6  1  0
  3  5  2  0
  3  7  1  0
  3  9  1  0
  4  5  1  0
  4  6  1  0
  5 12  1  0
  6  8  1  0
  7  8  2  0
  7 10  1  0
  8 15  1  0
  9 11  2  0
  9 14  1  0
 10 16  1  0
 10 17  2  0
 11 13  1  0
 11 19  1  0
 12 13  2  0
 13 20  1  0
 14 16  2  0
 15 18  2  0
 17 18  1  0
 19 21  2  0
 20 22  2  0
 21 22  1  0
M  END
>  <PUBCHEM_COMPOUND_CID>  (1) 
40086

>  <PUBCHEM_CONFORMER_RMSD>  (1) 
0.6

>  <PUBCHEM_CONFORMER_DIVERSEORDER>  (1) 
2
1

>  <PUBCHEM_MMFF94_PARTIAL_CHARGES>  (1) 
28
1 -0.68
12 -0.15
14 -0.15
15 -0.15
16 -0.15
17 -0.15
18 -0.15
19 -0.15
2 -0.68
20 -0.15
21 -0.15
22 -0.15
25 0.15
26 0.15
27 0.15
28 0.15
29 0.15
30 0.15
31 0.4
32 0.15
33 0.4
34 0.15
35 0.15
36 0.15
4 0.42
5 -0.14
6 0.42
8 -0.14

>  <PUBCHEM_EFFECTIVE_ROTOR_COUNT>  (1) 
0.4

>  <PUBCHEM_PHARMACOPHORE_FEATURES>  (1) 
9
1 1 acceptor
1 1 donor
1 2 acceptor
1 2 donor
6 11 13 19 20 21 22 rings
6 3 4 5 6 7 8 rings
6 3 5 9 11 12 13 rings
6 3 7 9 10 14 16 rings
6 7 8 10 15 17 18 rings

>  <PUBCHEM_HEAVY_ATOM_COUNT>  (1) 
22

>  <PUBCHEM_ATOM_DEF_STEREO_COUNT>  (1) 
2

>  <PUBCHEM_ATOM_UDEF_STEREO_COUNT>  (1) 
0

>  <PUBCHEM_BOND_DEF_STEREO_COUNT>  (1) 
0

>  <PUBCHEM_BOND_UDEF_STEREO_COUNT>  (1) 
0

>  <PUBCHEM_ISOTOPIC_ATOM_COUNT>  (1) 
0

>  <PUBCHEM_COMPONENT_COUNT>  (1) 
1

>  <PUBCHEM_CACTVS_TAUTO_COUNT>  (1) 
1

>  <PUBCHEM_CONFORMER_ID>  (1) 
00009C9600000002

>  <PUBCHEM_MMFF94_ENERGY>  (1) 
80.562

>  <PUBCHEM_FEATURE_SELFOVERLAP>  (1) 
45.826

>  <PUBCHEM_SHAPE_FINGERPRINT>  (1) 
10411042 1 18051413968101236526
10616163 171 18268712886455366407
10863032 1 18413672417640398829
10906281 52 18265350554433901968
10967382 1 18411701006192574556
1100329 8 18338794632507341888
11471102 20 18411979178355297949
11578080 2 17242156955863492077
12011746 2 18411989091583026436
12236239 1 17704076205351546313
12553582 1 18122059793667149411
12592029 89 18408322219771351355
12644460 14 18334579001688997947
12838862 33 18268410469002121736
13140716 1 18267014140974621880
138480 1 18339643317844649222
14223421 5 18337669702767534772
14787075 74 18338797935036583477
14790565 3 18194127545224221828
15196674 1 18411700972070089629
15442244 35 18269276768326812137
15536298 74 18343021077478499919
1601671 61 18411701001818680812
16945 1 18269275844824285078
17492 89 18413107286213785439
19591789 44 18410855473028894479
200 152 17917429869484504941
20645477 70 18413387618670328679
20691752 17 17895198762003673881
20739085 24 18122089544963800201
20905425 154 18269839726986238828
21197605 99 17906462378563799147
21267235 1 18340496615881971607
21421861 104 18042963173063276480
221490 88 18409456894571114563
2334 1 18194965364420078276
23366157 5 18186240610846783422
23402539 116 18271237330871986668
23559900 14 18341891827692449142
23566358 2 18339641118626423204
238 59 17903311010306756949
25 1 18337388352560978142
2748010 2 16682601624529233444
2871803 45 18410573980914733700
335352 9 18267305335145526573
33824 294 18410574006800516896
34934 24 18342734134955615599
350125 39 18410012092477513436
3680242 22 18335417920207351402
474 4 18187086208123541869
5104073 3 18410295787804604363
543358 83 18340772529181937017
59755656 215 18411985741687766766
6138700 20 18410858746659156878
6443956 14 18410014316664320692
7364860 26 18413388726370951110
7832392 63 18270959149734408295
9709674 26 18410579517423250039
9981440 41 17834950150465821608

>  <PUBCHEM_SHAPE_MULTIPOLES>  (1) 
441.01
8.02
3.18
0.71
5.42
0.32
0.08
-0.83
-0.57
-2.05
0.32
-0.11
0.2
0.05

>  <PUBCHEM_SHAPE_SELFOVERLAP>  (1) 
1025.9

>  <PUBCHEM_SHAPE_VOLUME>  (1) 
224.3

>  <PUBCHEM_COORDINATE_TYPE>  (1) 
2
5
10

$$$$
