40087
     RDKit          3D

 15 16  0  0  0  0  0  0  0  0999 V2000
    4.0249    1.4212    0.0008 S   0  0  0  0  0  0  0  0  0  0  0  0
    0.2743   -1.3051    0.0010 O   0  0  0  0  0  0  0  0  0  0  0  0
   -0.8519    0.7471    0.0002 N   0  0  0  0  0  0  0  0  0  0  0  0
    1.4553    0.7192   -0.0003 N   0  0  0  0  0  0  0  0  0  0  0  0
    4.7115   -0.9886   -0.0007 N   0  0  0  0  0  0  0  0  0  0  0  0
    5.2102    0.2375    0.0001 N   0  0  0  0  0  0  0  0  0  0  0  0
   -2.1951    0.3697    0.0006 C   0  0  0  0  0  0  0  0  0  0  0  0
   -3.1934    1.3438   -0.0001 C   0  0  0  0  0  0  0  0  0  0  0  0
   -2.5395   -0.9819    0.0006 C   0  0  0  0  0  0  0  0  0  0  0  0
    0.3003   -0.0789    0.0002 C   0  0  0  0  0  0  0  0  0  0  0  0
   -4.5363    0.9663   -0.0006 C   0  0  0  0  0  0  0  0  0  0  0  0
   -3.8823   -1.3595    0.0000 C   0  0  0  0  0  0  0  0  0  0  0  0
   -4.8807   -0.3853   -0.0006 C   0  0  0  0  0  0  0  0  0  0  0  0
    2.7772    0.2677   -0.0005 C   0  0  0  0  0  0  0  0  0  0  0  0
    3.3256   -0.9734   -0.0006 C   0  0  0  0  0  0  0  0  0  0  0  0
  1  6  1  0
  1 14  1  0
  2 10  2  0
  3  7  1  0
  3 10  1  0
  4 10  1  0
  4 14  1  0
  5  6  2  0
  5 15  1  0
  7  8  2  0
  7  9  1  0
  8 11  1  0
  9 12  2  0
 11 13  2  0
 12 13  1  0
 14 15  2  0
M  END
>  <PUBCHEM_COMPOUND_CID>  (1) 
40087

>  <PUBCHEM_CONFORMER_RMSD>  (1) 
0.6

>  <PUBCHEM_CONFORMER_DIVERSEORDER>  (1) 
1
4
3
5
7
2
6

>  <PUBCHEM_MMFF94_PARTIAL_CHARGES>  (1) 
23
1 0.18
10 0.69
11 -0.15
12 -0.15
13 -0.15
14 0.1
15 0.08
16 0.37
17 0.15
18 0.15
19 0.37
2 -0.57
20 0.15
21 0.15
22 0.15
23 0.15
3 -0.55
4 -0.49
5 -0.23
6 -0.22
7 0.12
8 -0.15
9 -0.15

>  <PUBCHEM_EFFECTIVE_ROTOR_COUNT>  (1) 
4

>  <PUBCHEM_PHARMACOPHORE_FEATURES>  (1) 
5
1 2 acceptor
1 3 donor
1 4 donor
5 1 5 6 14 15 rings
6 7 8 9 11 12 13 rings

>  <PUBCHEM_HEAVY_ATOM_COUNT>  (1) 
15

>  <PUBCHEM_ATOM_DEF_STEREO_COUNT>  (1) 
0

>  <PUBCHEM_ATOM_UDEF_STEREO_COUNT>  (1) 
0

>  <PUBCHEM_BOND_DEF_STEREO_COUNT>  (1) 
0

>  <PUBCHEM_BOND_UDEF_STEREO_COUNT>  (1) 
0

>  <PUBCHEM_ISOTOPIC_ATOM_COUNT>  (1) 
0

>  <PUBCHEM_COMPONENT_COUNT>  (1) 
1

>  <PUBCHEM_CACTVS_TAUTO_COUNT>  (1) 
5

>  <PUBCHEM_CONFORMER_ID>  (1) 
00009C9700000001

>  <PUBCHEM_MMFF94_ENERGY>  (1) 
34.9679

>  <PUBCHEM_FEATURE_SELFOVERLAP>  (1) 
25.421

>  <PUBCHEM_SHAPE_FINGERPRINT>  (1) 
10014705 185 18259981561814295221
10680689 15 17603304843341931557
11287383 113 18410575115060282952
11401426 45 18408039615376503357
12107183 9 17689152310019576496
13167823 11 18409727361303903010
13675066 3 18202559588158907442
14123238 8 18060137647826322380
15196674 1 18410573998036359526
17834072 33 18410575119339458444
17834076 25 14562528475118599797
17844677 252 18412552010933924488
18186145 218 17894342289563727996
1986462 14 18408886226576929413
200 152 18131912663281398171
20279233 1 17846787303576652263
20300324 65 18343300388387681835
20645477 56 18261392179630434477
20645477 70 18343022147395219038
21267235 1 18410301310647405371
22485316 2 18410854364916795554
23402539 116 18342170068743292061
23402655 69 18413671318482211972
23559900 14 18413102887881775104
300161 21 18335130994859223080
351380 180 18410854373633454176
3545911 37 18410576179906210629
42 15 18409167705706104502
4214541 1 18410573963840456769
42788 4 18410573989446444420
4990 188 18272094876985119734
5104073 3 18410575093263583456
542803 24 17385446522555476108
573450 72 18335412444266421515
633830 44 17749389282191035218
77779 3 18410856568314224136
9709674 26 18411144636103248646
9971528 1 17821447971910068636

>  <PUBCHEM_SHAPE_MULTIPOLES>  (1) 
286.75
11.96
1.46
0.59
4.21
0.01
0
0.17
0
-0.18
0
-0.04
0.01
0

>  <PUBCHEM_SHAPE_SELFOVERLAP>  (1) 
594.9

>  <PUBCHEM_SHAPE_VOLUME>  (1) 
163.3

>  <PUBCHEM_COORDINATE_TYPE>  (1) 
2
5
10

$$$$
