40084
     RDKit          3D

 26 29  0  0  0  0  0  0  0  0999 V2000
    4.4661   -0.2504    0.0003 O   0  0  0  0  0  0  0  0  0  0  0  0
    4.3821   -2.5260   -0.1355 O   0  0  0  0  0  0  0  0  0  0  0  0
    0.3713   -2.5187   -0.1377 O   0  0  0  0  0  0  0  0  0  0  0  0
    2.2766   -3.6221   -0.1935 O   0  0  0  0  0  0  0  0  0  0  0  0
    0.2359   -0.1331   -0.0078 N   0  0  0  0  0  0  0  0  0  0  0  0
   -2.6416    0.0567    0.0009 N   0  0  0  0  0  0  0  0  0  0  0  0
    1.6055   -2.5857   -0.1393 N   0  0  0  0  0  0  0  0  0  0  0  0
   -0.5256   -0.1512    1.2411 C   0  0  0  0  0  0  0  0  0  0  0  0
   -0.5242   -0.0150   -1.2519 C   0  0  0  0  0  0  0  0  0  0  0  0
   -1.9319   -0.7119    1.0258 C   0  0  0  0  0  0  0  0  0  0  0  0
   -1.8433    0.7256   -1.0284 C   0  0  0  0  0  0  0  0  0  0  0  0
    1.5989   -0.2208   -0.0117 C   0  0  0  0  0  0  0  0  0  0  0  0
   -4.0306    0.1482    0.0049 C   0  0  0  0  0  0  0  0  0  0  0  0
    2.3813    1.0406    0.0567 C   0  0  0  0  0  0  0  0  0  0  0  0
    2.3219   -1.3519   -0.0715 C   0  0  0  0  0  0  0  0  0  0  0  0
    3.7796    0.9790    0.0618 C   0  0  0  0  0  0  0  0  0  0  0  0
   -4.8353   -0.8964    0.5169 C   0  0  0  0  0  0  0  0  0  0  0  0
   -4.6945    1.2897   -0.5017 C   0  0  0  0  0  0  0  0  0  0  0  0
    1.8069    2.3218    0.1163 C   0  0  0  0  0  0  0  0  0  0  0  0
    3.7886   -1.4557   -0.0741 C   0  0  0  0  0  0  0  0  0  0  0  0
    4.5861    2.1195    0.1250 C   0  0  0  0  0  0  0  0  0  0  0  0
   -6.2272   -0.8047    0.5218 C   0  0  0  0  0  0  0  0  0  0  0  0
   -6.0864    1.3817   -0.4968 C   0  0  0  0  0  0  0  0  0  0  0  0
    2.6023    3.4738    0.1793 C   0  0  0  0  0  0  0  0  0  0  0  0
    3.9902    3.3728    0.1840 C   0  0  0  0  0  0  0  0  0  0  0  0
   -6.8527    0.3344    0.0151 C   0  0  0  0  0  0  0  0  0  0  0  0
  1 16  1  0
  1 20  1  0
  2 20  2  0
  3  7  1  0
  4  7  2  0
  5  8  1  0
  5  9  1  0
  5 12  1  0
  6 10  1  0
  6 11  1  0
  6 13  1  0
  7 15  1  0
  8 10  1  0
  9 11  1  0
 12 14  1  0
 12 15  2  0
 13 17  2  0
 13 18  1  0
 14 16  2  0
 14 19  1  0
 15 20  1  0
 16 21  1  0
 17 22  1  0
 18 23  2  0
 19 24  2  0
 21 25  2  0
 22 26  2  0
 23 26  1  0
 24 25  1  0
M  CHG  2   3  -1   7   1
M  END
>  <PUBCHEM_COMPOUND_CID>  (1) 
40084

>  <PUBCHEM_CONFORMER_RMSD>  (1) 
0.8

>  <PUBCHEM_CONFORMER_DIVERSEORDER>  (1) 
1
2
3

>  <PUBCHEM_MMFF94_PARTIAL_CHARGES>  (1) 
35
1 -0.23
10 0.37
11 0.37
12 0.07
13 0.1
14 0.03
15 0.22
16 0.08
17 -0.15
18 -0.15
19 -0.15
2 -0.57
20 0.71
21 -0.15
22 -0.15
23 -0.15
24 -0.15
25 -0.15
26 -0.15
3 -0.52
35 0.15
36 0.15
37 0.15
38 0.15
39 0.15
4 -0.52
40 0.15
41 0.15
42 0.15
43 0.15
5 -0.84
6 -0.84
7 0.84
8 0.37
9 0.37

>  <PUBCHEM_EFFECTIVE_ROTOR_COUNT>  (1) 
4.2

>  <PUBCHEM_PHARMACOPHORE_FEATURES>  (1) 
10
1 2 acceptor
1 3 acceptor
1 3 anion
1 4 acceptor
1 5 cation
1 6 cation
6 1 12 14 15 16 20 rings
6 13 17 18 22 23 26 rings
6 14 16 19 21 24 25 rings
6 5 6 8 9 10 11 rings

>  <PUBCHEM_HEAVY_ATOM_COUNT>  (1) 
26

>  <PUBCHEM_ATOM_DEF_STEREO_COUNT>  (1) 
0

>  <PUBCHEM_ATOM_UDEF_STEREO_COUNT>  (1) 
0

>  <PUBCHEM_BOND_DEF_STEREO_COUNT>  (1) 
0

>  <PUBCHEM_BOND_UDEF_STEREO_COUNT>  (1) 
0

>  <PUBCHEM_ISOTOPIC_ATOM_COUNT>  (1) 
0

>  <PUBCHEM_COMPONENT_COUNT>  (1) 
1

>  <PUBCHEM_CACTVS_TAUTO_COUNT>  (1) 
1

>  <PUBCHEM_CONFORMER_ID>  (1) 
00009C9400000001

>  <PUBCHEM_MMFF94_ENERGY>  (1) 
121.6909

>  <PUBCHEM_FEATURE_SELFOVERLAP>  (1) 
50.89

>  <PUBCHEM_SHAPE_FINGERPRINT>  (1) 
10165383 225 18261961864050462756
10411042 1 18051412869190969390
10595046 47 18343018917906469981
10693767 8 17988089890018422894
10835480 77 18408598146589799269
11045977 3 18260271845520912555
12035758 1 18264747966569814552
12107183 9 17766286367003135529
12236239 1 17561083605140262185
12403259 415 17967807233158738437
12616971 3 17988917873554639325
12730499 353 18337397131289534369
12769317 202 18341606057627526193
13140716 1 18194955482528473144
13402501 40 18259703402103950509
13533116 47 18413110558724890721
13583140 156 18341898549790845635
13785724 45 17768540395182673943
13955234 65 18410855447317464218
14341114 176 18409453583473069645
14790565 3 17905329881080326396
15475509 35 16661188275291511672
15927050 60 18196653115254329806
15961568 22 17531250603347051829
16120349 18 18411980253110056061
16728300 4 17389631152949043698
16992752 21 17689157808417738394
17844677 252 18340493270825277329
18785283 64 18335135419065934636
19427546 62 18337391668238878722
20157964 124 18411981373505631157
20645477 70 18409166597520263130
21033648 29 17458335326431802349
21049683 271 18261683580318192950
21197605 99 18265621077102037907
21279426 13 18262795164767449389
21315763 129 18336825299691969329
21344244 78 18129929088523180688
21452121 103 18335416893657705425
21859007 373 17386832934500483837
22122407 14 18131364003302038529
221357 26 18336546019042893325
22149856 69 18190482579200886923
23557571 272 17313103012940175925
23558518 356 17828198032633071474
23559900 14 18410290289966922547
23845131 108 18263922314151046458
239999 70 18272375239270363046
255183 451 17842566149642128870
3178227 256 18409166602390314946
335352 9 18411703223313681876
3411729 13 18261389001122429400
34797466 226 18202572787131537093
350125 39 18408322185744370292
4073 2 18041565840362088667
4144715 1 18335148575046829577
4340502 62 18340488958008069243
44555599 121 18129668492163957921
474 4 18341332279226564840
495365 180 18341325686578366256
5104073 3 18260270733620151817
59755656 215 18409172125364979108
621550 34 18260259750666069629
6443956 14 18337957775277962926
8272917 22 18341896294326386436
9777508 108 17979069710781539066
9995097 60 18407760348345415705
9999458 23 18410012139426910846

>  <PUBCHEM_SHAPE_MULTIPOLES>  (1) 
496.65
13.86
3.43
0.86
21.29
0.21
0
-3.91
0.36
-6.11
-0.06
0.44
-0.02
1.05

>  <PUBCHEM_SHAPE_SELFOVERLAP>  (1) 
1094.925

>  <PUBCHEM_SHAPE_VOLUME>  (1) 
262.9

>  <PUBCHEM_COORDINATE_TYPE>  (1) 
2
5
10

$$$$
