40094
     RDKit          3D

 23 25  0  0  0  0  0  0  0  0999 V2000
    3.3260   -3.8875    0.4597 Cl  0  0  0  0  0  0  0  0  0  0  0  0
   -0.6206    2.2536    1.1830 O   0  0  0  0  0  0  0  0  0  0  0  0
   -4.9442    1.9853   -0.0903 O   0  0  0  0  0  0  0  0  0  0  0  0
   -0.5579    0.9936    0.9753 N   0  0  0  0  0  0  0  0  0  0  0  0
   -1.8202   -1.1436   -0.6806 N   0  0  0  0  0  0  0  0  0  0  0  0
   -3.6081    0.2836   -0.1940 N   0  0  0  0  0  0  0  0  0  0  0  0
   -3.8268    1.5541    0.2155 N   0  0  0  0  0  0  0  0  0  0  0  0
    0.4993    0.4444    0.3972 C   0  0  0  0  0  0  0  0  0  0  0  0
    0.5413   -1.0183    0.1269 C   0  0  0  0  0  0  0  0  0  0  0  0
   -1.7349    0.1988    1.3838 C   0  0  0  0  0  0  0  0  0  0  0  0
   -0.5785   -1.7224   -0.3564 C   0  0  0  0  0  0  0  0  0  0  0  0
    1.6514    1.2898    0.0059 C   0  0  0  0  0  0  0  0  0  0  0  0
   -2.3893   -0.2737    0.1052 C   0  0  0  0  0  0  0  0  0  0  0  0
    1.7451   -1.6963    0.3808 C   0  0  0  0  0  0  0  0  0  0  0  0
   -0.4469   -3.0999   -0.5950 C   0  0  0  0  0  0  0  0  0  0  0  0
    1.6831    1.8679   -1.2580 C   0  0  0  0  0  0  0  0  0  0  0  0
    2.6901    1.4965    0.9064 C   0  0  0  0  0  0  0  0  0  0  0  0
    1.8466   -3.0662    0.1461 C   0  0  0  0  0  0  0  0  0  0  0  0
    0.7516   -3.7681   -0.3437 C   0  0  0  0  0  0  0  0  0  0  0  0
    2.7680    2.6636   -1.6264 C   0  0  0  0  0  0  0  0  0  0  0  0
    3.7749    2.2922    0.5382 C   0  0  0  0  0  0  0  0  0  0  0  0
   -4.5638   -0.5231   -0.9514 C   0  0  0  0  0  0  0  0  0  0  0  0
    3.8139    2.8757   -0.7282 C   0  0  0  0  0  0  0  0  0  0  0  0
  1 18  1  0
  2  4  1  0
  3  7  2  0
  4  8  2  0
  4 10  1  0
  5 11  1  0
  5 13  2  0
  6  7  1  0
  6 13  1  0
  6 22  1  0
  8  9  1  0
  8 12  1  0
  9 11  2  0
  9 14  1  0
 10 13  1  0
 11 15  1  0
 12 16  2  0
 12 17  1  0
 14 18  2  0
 15 19  2  0
 16 20  1  0
 17 21  2  0
 18 19  1  0
 20 23  2  0
 21 23  1  0
M  CHG  2   2  -1   4   1
M  END
>  <PUBCHEM_COMPOUND_CID>  (1) 
40094

>  <PUBCHEM_CONFORMER_RMSD>  (1) 
0.6

>  <PUBCHEM_CONFORMER_DIVERSEORDER>  (1) 
1
2
17
13
8
7
15
9
16
5
10
12
14
11
6
3
4

>  <PUBCHEM_MMFF94_PARTIAL_CHARGES>  (1) 
30
1 -0.18
10 0.16
11 0.18
12 0.09
13 0.44
14 -0.15
15 -0.15
16 -0.15
17 -0.15
18 0.18
19 -0.15
2 -0.63
20 -0.15
21 -0.15
22 0.37
23 -0.15
26 0.15
27 0.15
28 0.15
29 0.15
3 -0.16
30 0.15
31 0.15
32 0.15
36 0.15
4 0.53
5 -0.63
6 -0.25
8 -0.17
9 0.09

>  <PUBCHEM_EFFECTIVE_ROTOR_COUNT>  (1) 
3.2

>  <PUBCHEM_PHARMACOPHORE_FEATURES>  (1) 
5
1 2 anion
3 5 6 13 cation
6 12 16 17 20 21 23 rings
6 9 11 14 15 18 19 rings
7 4 5 8 9 10 11 13 rings

>  <PUBCHEM_HEAVY_ATOM_COUNT>  (1) 
23

>  <PUBCHEM_ATOM_DEF_STEREO_COUNT>  (1) 
0

>  <PUBCHEM_ATOM_UDEF_STEREO_COUNT>  (1) 
0

>  <PUBCHEM_BOND_DEF_STEREO_COUNT>  (1) 
0

>  <PUBCHEM_BOND_UDEF_STEREO_COUNT>  (1) 
0

>  <PUBCHEM_ISOTOPIC_ATOM_COUNT>  (1) 
0

>  <PUBCHEM_COMPONENT_COUNT>  (1) 
1

>  <PUBCHEM_CACTVS_TAUTO_COUNT>  (1) 
1

>  <PUBCHEM_CONFORMER_ID>  (1) 
00009C9E00000001

>  <PUBCHEM_MMFF94_ENERGY>  (1) 
92.6531

>  <PUBCHEM_FEATURE_SELFOVERLAP>  (1) 
25.387

>  <PUBCHEM_SHAPE_FINGERPRINT>  (1) 
107951 10 18122925371458875510
1100329 8 18412258441867482506
11045515 52 17758959225114517734
11578080 2 16374714922446148925
11640471 11 17752769301384352908
12035759 4 18200327510587171268
12173636 292 17977663439540823308
12293681 160 17917158293848769328
12422481 6 17972568071146453840
12592029 89 18336552723655322779
12788726 201 17326053352807823158
13004483 165 17256520825761971467
13140716 1 18341337695539209867
133893 2 18265635211453423458
13540713 5 18201997695458543891
138480 1 18123186810038564138
14022347 108 16824450701929199946
14181834 199 18339925909217600815
14790565 3 17834410286467875089
14955137 171 17407723577496291194
15163728 17 17969526941800089133
15439362 3 18335700507602073460
15463212 79 17975127965927832848
16752209 62 17763174040126446042
167882 2 18408604738615122390
16945 1 18127139567299349459
17980427 23 17556011386229351393
1813 80 17981332187699526782
18785283 64 18335147436310478363
19591789 44 17619346954236048867
200 152 13326038627924321676
20642791 105 17905030809680392306
20642791 178 18339925913533725603
20645476 183 18046346611081650772
21524375 3 18115580603372257417
22907989 373 17471858481285542942
23366157 5 18260828159412426851
23419403 2 17336422430003785738
23557571 272 17263858365445061640
23559900 14 18269545044826954491
25147074 1 18059573547628702827
298252 57 18191865832335009953
3091708 16 9188468581518634754
3380486 145 17401779518598955352
394222 165 18187919612178051538
46194498 28 18116976812021291613
59755656 520 17913521139522183760
6443956 14 18123750855361451480
7364860 26 18340485552109338794
81228 2 17189554485893139178
84936 182 18272649043403691609
9981440 41 18337387274365853931

>  <PUBCHEM_SHAPE_MULTIPOLES>  (1) 
443.54
7.09
4.99
1.15
5.65
4.99
-0.07
-6.04
-1.08
-4.56
-0.49
-0.29
-0.58
-1.25

>  <PUBCHEM_SHAPE_SELFOVERLAP>  (1) 
958.117

>  <PUBCHEM_SHAPE_VOLUME>  (1) 
243.8

>  <PUBCHEM_COORDINATE_TYPE>  (1) 
2
5
10

$$$$
