40091
     RDKit          3D

 15 16  0  0  1  0  0  0  0  0999 V2000
    3.4650   -0.7420    0.2284 O   0  0  0  0  0  0  0  0  0  0  0  0
    2.7899    1.9365    0.5198 O   0  0  0  0  0  0  0  0  0  0  0  0
   -2.9752   -0.2149   -0.2020 N   0  0  0  0  0  0  0  0  0  0  0  0
   -2.0036    0.8847    0.0443 C   0  0  0  0  0  0  0  0  0  0  0  0
   -0.5392    0.4411    0.0955 C   0  0  0  0  0  0  0  0  0  0  0  0
   -2.5740   -1.4695    0.4455 C   0  0  0  0  0  0  0  0  0  0  0  0
   -1.2581   -1.9583   -0.1511 C   0  0  0  0  0  0  0  0  0  0  0  0
   -0.1880   -0.9166    0.0001 C   0  0  0  0  0  0  0  0  0  0  0  0
   -2.1850    1.9405   -1.0634 C   0  0  0  0  0  0  0  0  0  0  0  0
    0.4842    1.3845    0.2936 C   0  0  0  0  0  0  0  0  0  0  0  0
   -4.3269    0.1450    0.2439 C   0  0  0  0  0  0  0  0  0  0  0  0
    1.1605   -1.3008    0.0278 C   0  0  0  0  0  0  0  0  0  0  0  0
    2.1622   -0.3476    0.1947 C   0  0  0  0  0  0  0  0  0  0  0  0
    1.8235    0.9937    0.3371 C   0  0  0  0  0  0  0  0  0  0  0  0
    4.1647   -0.7764   -1.0143 C   0  0  0  0  0  0  0  0  0  0  0  0
  1 13  1  0
  1 15  1  0
  2 14  1  0
  3  4  1  0
  3  6  1  0
  3 11  1  0
  4  5  1  0
  4  9  1  0
  5  8  2  0
  5 10  1  0
  6  7  1  0
  7  8  1  0
  8 12  1  0
 10 14  2  0
 12 13  2  0
 13 14  1  0
M  END
>  <PUBCHEM_COMPOUND_CID>  (1) 
40091

>  <PUBCHEM_CONFORMER_RMSD>  (1) 
0.6

>  <PUBCHEM_CONFORMER_DIVERSEORDER>  (1) 
1
4
2
3

>  <PUBCHEM_MMFF94_PARTIAL_CHARGES>  (1) 
17
1 -0.36
10 -0.15
11 0.27
12 -0.15
13 0.08
14 0.08
15 0.28
2 -0.53
24 0.15
28 0.15
29 0.45
3 -0.81
4 0.41
5 -0.14
6 0.27
7 0.14
8 -0.14

>  <PUBCHEM_EFFECTIVE_ROTOR_COUNT>  (1) 
1.8

>  <PUBCHEM_PHARMACOPHORE_FEATURES>  (1) 
5
1 1 acceptor
1 2 donor
1 3 cation
6 3 4 5 6 7 8 rings
6 5 8 10 12 13 14 rings

>  <PUBCHEM_HEAVY_ATOM_COUNT>  (1) 
15

>  <PUBCHEM_ATOM_DEF_STEREO_COUNT>  (1) 
1

>  <PUBCHEM_ATOM_UDEF_STEREO_COUNT>  (1) 
0

>  <PUBCHEM_BOND_DEF_STEREO_COUNT>  (1) 
0

>  <PUBCHEM_BOND_UDEF_STEREO_COUNT>  (1) 
0

>  <PUBCHEM_ISOTOPIC_ATOM_COUNT>  (1) 
0

>  <PUBCHEM_COMPONENT_COUNT>  (1) 
1

>  <PUBCHEM_CACTVS_TAUTO_COUNT>  (1) 
3

>  <PUBCHEM_CONFORMER_ID>  (1) 
00009C9B00000001

>  <PUBCHEM_MMFF94_ENERGY>  (1) 
48.6894

>  <PUBCHEM_FEATURE_SELFOVERLAP>  (1) 
25.393

>  <PUBCHEM_SHAPE_FINGERPRINT>  (1) 
10608611 8 18410567409572722056
10922523 26 18413106190748224070
10967382 1 18411134744692676579
11132069 177 18340761636997090547
11206711 2 18408318865349223439
11471102 20 18342172280329695801
12032990 46 18341337738114180090
12186901 62 17967533424397678381
12932764 1 18040989635585424210
13140716 1 18339075003239952138
13221675 6 18409448076660286579
13380535 21 18268152143961952936
14115302 16 18261688020750166678
14325111 11 18340203089385225465
14911166 2 18340772554925334702
15196674 1 18339923817985180955
15219456 202 18341895250654608170
15279308 100 18335975368466220404
15536298 74 18272088344197424600
15775835 57 18341051929547005937
16945 1 18336816524720336275
17802600 8 18409442574812130253
17804303 29 18410862061498280975
17844478 74 18259707809030202289
18175812 5 18410857689506449327
18186145 218 18342452617018870697
200 152 17632289077977919655
20201158 50 18342458114624599239
20645477 70 18201718470121686583
20871999 31 18337969900102560558
21267235 1 18411992359525812547
21501502 16 18269268135189333054
2334 1 18194960974842039650
23402539 116 18201430351305147157
23463225 33 18408601478534400282
23559900 14 18270399379206779278
25 1 17977091371709663421
2748010 2 18340198691460014032
3286 77 17274531131262065619
474 4 15937837292033413500
5104073 3 18340205292735195155
69090 78 18343293790980571471
7364860 26 18201157775643475288
8809292 202 18334580161103762475

>  <PUBCHEM_SHAPE_MULTIPOLES>  (1) 
291.97
6.5
2.01
0.81
1.06
0.23
-0.13
-0.4
-0.64
-0.26
-0.09
0.14
0.13
0.75

>  <PUBCHEM_SHAPE_SELFOVERLAP>  (1) 
612.191

>  <PUBCHEM_SHAPE_VOLUME>  (1) 
167.1

>  <PUBCHEM_COORDINATE_TYPE>  (1) 
2
5
10

$$$$
