40101
     RDKit          3D

 28 31  0  0  0  0  0  0  0  0999 V2000
   -2.8909    2.4132   -0.0109 S   0  0  0  0  0  0  0  0  0  0  0  0
    2.5824    0.0918    2.1744 S   0  0  0  0  0  0  0  0  0  0  0  0
   -3.7233    1.3131   -0.4859 O   0  0  0  0  0  0  0  0  0  0  0  0
   -3.4339    3.3049    1.0085 O   0  0  0  0  0  0  0  0  0  0  0  0
   -0.3017   -2.3414    0.0669 N   0  0  0  0  0  0  0  0  0  0  0  0
   -2.7662   -3.7668   -0.0653 N   0  0  0  0  0  0  0  0  0  0  0  0
   -2.3913    3.3600   -1.3702 N   0  0  0  0  0  0  0  0  0  0  0  0
   -0.9596   -2.7757    1.2986 C   0  0  0  0  0  0  0  0  0  0  0  0
   -0.6203   -3.1380   -1.1174 C   0  0  0  0  0  0  0  0  0  0  0  0
   -2.4691   -2.8901    1.0766 C   0  0  0  0  0  0  0  0  0  0  0  0
   -2.1370   -3.2450   -1.2872 C   0  0  0  0  0  0  0  0  0  0  0  0
    0.6711   -1.3846    0.0600 C   0  0  0  0  0  0  0  0  0  0  0  0
    0.2658   -0.0494    0.5804 C   0  0  0  0  0  0  0  0  0  0  0  0
   -4.2107   -3.9007   -0.2484 C   0  0  0  0  0  0  0  0  0  0  0  0
    1.9100   -1.6431   -0.4089 C   0  0  0  0  0  0  0  0  0  0  0  0
    1.0100    0.6693    1.5389 C   0  0  0  0  0  0  0  0  0  0  0  0
   -0.9370    0.5159    0.1125 C   0  0  0  0  0  0  0  0  0  0  0  0
    3.0738   -0.7410   -0.4597 C   0  0  0  0  0  0  0  0  0  0  0  0
   -1.3943    1.7452    0.5900 C   0  0  0  0  0  0  0  0  0  0  0  0
    3.4880    0.0481    0.6296 C   0  0  0  0  0  0  0  0  0  0  0  0
    0.5373    1.9018    2.0188 C   0  0  0  0  0  0  0  0  0  0  0  0
   -0.6596    2.4353    1.5461 C   0  0  0  0  0  0  0  0  0  0  0  0
    3.8461   -0.7401   -1.6324 C   0  0  0  0  0  0  0  0  0  0  0  0
    4.6475    0.8300    0.5238 C   0  0  0  0  0  0  0  0  0  0  0  0
    4.9940    0.0468   -1.7309 C   0  0  0  0  0  0  0  0  0  0  0  0
    5.3939    0.8312   -0.6538 C   0  0  0  0  0  0  0  0  0  0  0  0
   -1.4356    4.4689   -1.1206 C   0  0  0  0  0  0  0  0  0  0  0  0
   -2.0894    2.6403   -2.6336 C   0  0  0  0  0  0  0  0  0  0  0  0
  1  3  2  0
  1  4  2  0
  1  7  1  0
  1 19  1  0
  2 16  1  0
  2 20  1  0
  5  8  1  0
  5  9  1  0
  5 12  1  0
  6 10  1  0
  6 11  1  0
  6 14  1  0
  7 27  1  0
  7 28  1  0
  8 10  1  0
  9 11  1  0
 12 13  1  0
 12 15  2  0
 13 16  2  0
 13 17  1  0
 15 18  1  0
 16 21  1  0
 17 19  2  0
 18 20  2  0
 18 23  1  0
 19 22  1  0
 20 24  1  0
 21 22  2  0
 23 25  2  0
 24 26  2  0
 25 26  1  0
M  END
>  <PUBCHEM_COMPOUND_CID>  (1) 
40101

>  <PUBCHEM_CONFORMER_RMSD>  (1) 
0.8

>  <PUBCHEM_CONFORMER_DIVERSEORDER>  (1) 
1
11
6
2
7
3
9
10
4
5
8

>  <PUBCHEM_MMFF94_PARTIAL_CHARGES>  (1) 
36
1 1.45
10 0.27
11 0.27
12 0.07
13 0.03
14 0.27
15 -0.18
16 0.1
17 -0.15
18 0.03
19 -0.01
2 -0.2
20 0.1
21 -0.15
22 -0.15
23 -0.15
24 -0.15
25 -0.15
26 -0.15
27 0.36
28 0.36
3 -0.65
4 -0.65
40 0.15
41 0.15
42 0.15
43 0.15
44 0.15
45 0.15
46 0.15
47 0.15
5 -0.84
6 -0.81
7 -0.85
8 0.37
9 0.37

>  <PUBCHEM_EFFECTIVE_ROTOR_COUNT>  (1) 
4.4

>  <PUBCHEM_PHARMACOPHORE_FEATURES>  (1) 
8
1 3 acceptor
1 4 acceptor
1 5 cation
1 6 cation
6 13 16 17 19 21 22 rings
6 18 20 23 24 25 26 rings
6 5 6 8 9 10 11 rings
7 2 12 13 15 16 18 20 rings

>  <PUBCHEM_HEAVY_ATOM_COUNT>  (1) 
28

>  <PUBCHEM_ATOM_DEF_STEREO_COUNT>  (1) 
0

>  <PUBCHEM_ATOM_UDEF_STEREO_COUNT>  (1) 
0

>  <PUBCHEM_BOND_DEF_STEREO_COUNT>  (1) 
0

>  <PUBCHEM_BOND_UDEF_STEREO_COUNT>  (1) 
0

>  <PUBCHEM_ISOTOPIC_ATOM_COUNT>  (1) 
0

>  <PUBCHEM_COMPONENT_COUNT>  (1) 
1

>  <PUBCHEM_CACTVS_TAUTO_COUNT>  (1) 
1

>  <PUBCHEM_CONFORMER_ID>  (1) 
00009CA500000001

>  <PUBCHEM_MMFF94_ENERGY>  (1) 
83.3247

>  <PUBCHEM_FEATURE_SELFOVERLAP>  (1) 
40.634

>  <PUBCHEM_SHAPE_FINGERPRINT>  (1) 
10688039 33 18194684989029049866
10764073 3 15045608739967784402
10940486 97 17194891489702236766
11421498 54 17968652847462931026
11582403 64 17533227370866441856
12160290 23 18340186553782189675
12788726 201 18263076772687627962
13149001 5 18201988937509038088
13681431 1 17616816973252532682
14022347 108 17974837677546557586
14363568 33 17256816014579281707
15163728 17 17755035102907597700
15463212 79 18114461180455387152
15775530 1 17772165738933835288
17357779 13 18057317494990831630
1813 80 18053390086943779194
19319366 153 17767681664301781177
20600515 1 17684914088079709682
20739085 24 17477757348294383826
21285901 2 18058463169322900278
21304303 282 18042940160897633142
21452121 99 18340754950049567570
21641784 216 18119266183866049140
22182313 1 17774711087114306642
22907989 373 18340502130920621204
23419403 2 17203043118533367442
23559900 14 17403176392547030419
238 59 17764035666094429258
26353 1 17978229683844728862
266924 78 17331702153503182129
352729 6 18057045709829755386
394222 165 17827358774015626475
4409770 3 18342744013465344486
469060 322 18043555964644935051
5081480 168 17904752633502465599
633830 44 17773306834171655328
7237137 82 18269008629692982772
7399639 24 17827091606124013313
9925002 15 18116731770640586525

>  <PUBCHEM_SHAPE_MULTIPOLES>  (1) 
557.24
8.1
5.72
2.03
8.41
0.61
-0.17
-1.18
-2.74
-9.97
-1.55
0.52
1.04
1

>  <PUBCHEM_SHAPE_SELFOVERLAP>  (1) 
1167.774

>  <PUBCHEM_SHAPE_VOLUME>  (1) 
316.4

>  <PUBCHEM_COORDINATE_TYPE>  (1) 
2
5
10

$$$$
