40119
     RDKit          3D

 22 25  0  0  0  0  0  0  0  0999 V2000
   -1.1135   -1.4887    0.0018 S   0  0  0  0  0  0  0  0  0  0  0  0
   -0.9793   -2.1771   -1.2671 O   0  0  0  0  0  0  0  0  0  0  0  0
   -0.9812   -2.1750    1.2720 O   0  0  0  0  0  0  0  0  0  0  0  0
   -1.9428    2.7785   -0.0003 O   0  0  0  0  0  0  0  0  0  0  0  0
    4.8053    0.8815   -0.0008 N   0  0  0  0  0  0  0  0  0  0  0  0
    4.1997   -1.3004   -0.0006 N   0  0  0  0  0  0  0  0  0  0  0  0
    5.8389    0.0277   -0.0032 N   0  0  0  0  0  0  0  0  0  0  0  0
    5.5268   -1.2757   -0.0030 N   0  0  0  0  0  0  0  0  0  0  0  0
    0.0807   -0.2147    0.0014 C   0  0  0  0  0  0  0  0  0  0  0  0
   -2.6980   -0.7547   -0.0003 C   0  0  0  0  0  0  0  0  0  0  0  0
   -0.2965    1.1232    0.0009 C   0  0  0  0  0  0  0  0  0  0  0  0
   -2.8496    0.6269   -0.0006 C   0  0  0  0  0  0  0  0  0  0  0  0
   -1.7085    1.5723    0.0007 C   0  0  0  0  0  0  0  0  0  0  0  0
    1.4258   -0.5956    0.0016 C   0  0  0  0  0  0  0  0  0  0  0  0
    0.7142    2.0971    0.0011 C   0  0  0  0  0  0  0  0  0  0  0  0
    2.4174    0.3809    0.0018 C   0  0  0  0  0  0  0  0  0  0  0  0
   -3.8025   -1.6119   -0.0011 C   0  0  0  0  0  0  0  0  0  0  0  0
   -4.1513    1.1513   -0.0017 C   0  0  0  0  0  0  0  0  0  0  0  0
    2.0620    1.7269    0.0015 C   0  0  0  0  0  0  0  0  0  0  0  0
   -5.0877   -1.0778   -0.0022 C   0  0  0  0  0  0  0  0  0  0  0  0
   -5.2624    0.3033   -0.0025 C   0  0  0  0  0  0  0  0  0  0  0  0
    3.8024    0.0021    0.0006 C   0  0  0  0  0  0  0  0  0  0  0  0
  1  2  2  0
  1  3  2  0
  1  9  1  0
  1 10  1  0
  4 13  2  0
  5  7  1  0
  5 22  2  0
  6  8  2  0
  6 22  1  0
  7  8  1  0
  9 11  2  0
  9 14  1  0
 10 12  2  0
 10 17  1  0
 11 13  1  0
 11 15  1  0
 12 13  1  0
 12 18  1  0
 14 16  2  0
 15 19  2  0
 16 19  1  0
 16 22  1  0
 17 20  2  0
 18 21  2  0
 20 21  1  0
M  END
>  <PUBCHEM_COMPOUND_CID>  (1) 
40119

>  <PUBCHEM_CONFORMER_RMSD>  (1) 
0.6

>  <PUBCHEM_CONFORMER_DIVERSEORDER>  (1) 
1

>  <PUBCHEM_MMFF94_PARTIAL_CHARGES>  (1) 
30
1 1.32
10 -0.01
11 0.09
12 0.09
13 0.4
14 -0.15
15 -0.15
16 0.05
17 -0.15
18 -0.15
19 -0.15
2 -0.65
20 -0.15
21 -0.15
22 0.46
23 0.15
24 0.15
25 0.15
26 0.15
27 0.15
28 0.15
29 0.15
3 -0.65
30 0.27
4 -0.57
5 -0.71
6 -0.23
7 0.57
8 -0.42
9 -0.01

>  <PUBCHEM_EFFECTIVE_ROTOR_COUNT>  (1) 
1

>  <PUBCHEM_PHARMACOPHORE_FEATURES>  (1) 
8
1 2 acceptor
1 3 acceptor
1 4 acceptor
3 5 6 22 cation
5 5 6 7 8 22 rings
6 1 9 10 11 12 13 rings
6 10 12 17 18 20 21 rings
6 9 11 14 15 16 19 rings

>  <PUBCHEM_HEAVY_ATOM_COUNT>  (1) 
22

>  <PUBCHEM_ATOM_DEF_STEREO_COUNT>  (1) 
0

>  <PUBCHEM_ATOM_UDEF_STEREO_COUNT>  (1) 
0

>  <PUBCHEM_BOND_DEF_STEREO_COUNT>  (1) 
0

>  <PUBCHEM_BOND_UDEF_STEREO_COUNT>  (1) 
0

>  <PUBCHEM_ISOTOPIC_ATOM_COUNT>  (1) 
0

>  <PUBCHEM_COMPONENT_COUNT>  (1) 
1

>  <PUBCHEM_CACTVS_TAUTO_COUNT>  (1) 
6

>  <PUBCHEM_CONFORMER_ID>  (1) 
00009CB700000001

>  <PUBCHEM_MMFF94_ENERGY>  (1) 
41.78

>  <PUBCHEM_FEATURE_SELFOVERLAP>  (1) 
40.64

>  <PUBCHEM_SHAPE_FINGERPRINT>  (1) 
10 15 18270387391958247128
10906281 52 18267607799627353860
10968037 39 18335986441023498916
11315181 36 18202288013556717512
11458722 379 18334294262431828787
11524674 6 16630525129075457822
11578080 2 16914521427355269202
12011746 2 18409726249149771773
12107183 9 17615121084330994962
12236239 1 17894631439905433476
12403259 226 18340762736678146865
12715332 25 18131348639602107223
12788726 201 18337106778821353064
13140716 1 18339652234613773249
13288520 33 18411702084308526157
13402501 40 18413109450665578302
13551218 46 18412263896037929518
13862211 1 18411979174187035063
14115302 16 17749398112728341358
14790565 3 18409735053548275004
15042514 8 18339363084346134863
15099037 51 18410575097664181335
15196674 1 18410575127871481057
15209289 33 18334012804571651275
16945 1 18337384921388517169
17492 89 17979070810457054191
17804303 29 18341613736944375768
1813 80 17530677736614375652
19141452 34 18131068276726735071
19591789 44 18410854347731658122
200 152 18060699498505538217
20028762 73 17987795340940022295
21033648 29 17488725818610825128
21236236 1 18341895147860651897
21267235 1 18409173242362236099
21279426 13 18265050236818193351
21682296 61 17986965059067917046
221490 88 18190748728653174969
2297311 6 18271535229803650188
23402539 116 18343015605985505703
23559900 14 18339919424054731024
3004659 81 18259987059672834934
3286 77 17346314959821312465
335352 9 18410855460861651573
34934 24 18411132580667501818
350125 39 18411139129902434057
351380 180 18411418427456722063
4214541 1 18410573959482289888
474229 33 18413107242904526263
5104073 3 18412545443870589168
559249 180 18263356989613063994
59755656 215 18338234860729713911
6138700 20 18337391543706296362
69090 78 18343862225264150023
8809292 202 18334297608105681931
9709674 26 18192432102556548635

>  <PUBCHEM_SHAPE_MULTIPOLES>  (1) 
419.07
11.17
2.35
0.71
7.95
0.38
0
-2.24
-0.02
-0.85
0
-0.16
-0.24
0

>  <PUBCHEM_SHAPE_SELFOVERLAP>  (1) 
938.695

>  <PUBCHEM_SHAPE_VOLUME>  (1) 
221.8

>  <PUBCHEM_COORDINATE_TYPE>  (1) 
2
5
10

$$$$
