40116
     RDKit          3D

 12 13  0  0  0  0  0  0  0  0999 V2000
    1.3998   -2.4565    0.0005 O   0  0  0  0  0  0  0  0  0  0  0  0
   -3.4869   -0.9481    0.0000 N   0  0  0  0  0  0  0  0  0  0  0  0
    0.1871   -0.3668   -0.0001 C   0  0  0  0  0  0  0  0  0  0  0  0
    0.2303    1.0478    0.0000 C   0  0  0  0  0  0  0  0  0  0  0  0
   -1.0582   -1.0159   -0.0002 C   0  0  0  0  0  0  0  0  0  0  0  0
    1.3906   -1.0907   -0.0003 C   0  0  0  0  0  0  0  0  0  0  0  0
   -0.9733    1.7716    0.0002 C   0  0  0  0  0  0  0  0  0  0  0  0
   -2.2440   -0.2810   -0.0001 C   0  0  0  0  0  0  0  0  0  0  0  0
    1.4756    1.6969    0.0002 C   0  0  0  0  0  0  0  0  0  0  0  0
   -2.2016    1.1101    0.0001 C   0  0  0  0  0  0  0  0  0  0  0  0
    2.6191   -0.4293   -0.0002 C   0  0  0  0  0  0  0  0  0  0  0  0
    2.6615    0.9618    0.0000 C   0  0  0  0  0  0  0  0  0  0  0  0
  1  6  1  0
  2  8  1  0
  3  4  1  0
  3  5  2  0
  3  6  1  0
  4  7  2  0
  4  9  1  0
  5  8  1  0
  6 11  2  0
  7 10  1  0
  8 10  2  0
  9 12  2  0
 11 12  1  0
M  END
>  <PUBCHEM_COMPOUND_CID>  (1) 
40116

>  <PUBCHEM_CONFORMER_RMSD>  (1) 
0.4

>  <PUBCHEM_CONFORMER_DIVERSEORDER>  (1) 
1

>  <PUBCHEM_MMFF94_PARTIAL_CHARGES>  (1) 
19
1 -0.53
10 -0.15
11 -0.15
12 -0.15
13 0.15
14 0.15
15 0.15
16 0.15
17 0.15
18 0.15
19 0.4
2 -0.9
20 0.4
21 0.45
5 -0.15
6 0.08
7 -0.15
8 0.1
9 -0.15

>  <PUBCHEM_EFFECTIVE_ROTOR_COUNT>  (1) 
0

>  <PUBCHEM_PHARMACOPHORE_FEATURES>  (1) 
5
1 1 donor
1 2 cation
1 2 donor
6 3 4 5 7 8 10 rings
6 3 4 6 9 11 12 rings

>  <PUBCHEM_HEAVY_ATOM_COUNT>  (1) 
12

>  <PUBCHEM_ATOM_DEF_STEREO_COUNT>  (1) 
0

>  <PUBCHEM_ATOM_UDEF_STEREO_COUNT>  (1) 
0

>  <PUBCHEM_BOND_DEF_STEREO_COUNT>  (1) 
0

>  <PUBCHEM_BOND_UDEF_STEREO_COUNT>  (1) 
0

>  <PUBCHEM_ISOTOPIC_ATOM_COUNT>  (1) 
0

>  <PUBCHEM_COMPONENT_COUNT>  (1) 
1

>  <PUBCHEM_CACTVS_TAUTO_COUNT>  (1) 
5

>  <PUBCHEM_CONFORMER_ID>  (1) 
00009CB400000001

>  <PUBCHEM_MMFF94_ENERGY>  (1) 
44.8227

>  <PUBCHEM_FEATURE_SELFOVERLAP>  (1) 
25.398

>  <PUBCHEM_SHAPE_FINGERPRINT>  (1) 
10967382 1 18338517572229555591
11206711 2 18408326557614688084
11471102 20 18410288142652001493
12423570 1 14944529223066251860
12524768 44 18124880049207523295
12897270 3 18410011048104147765
13380535 76 18335980973261372114
14325111 11 18410855477313708484
16945 1 18410573989472928612
17844478 74 18113626702785602393
17990270 104 18338234856165694914
193761 8 18194682562061031364
19973954 147 18339080367611737441
20201158 50 18335700559241680339
20645477 70 18412539912696756759
21040471 1 18122626329960278916
21501502 16 18338237059373147977
2334 1 17690279730239313635
23402655 69 18340471280703615645
23463225 33 18334852793132771848
23552423 10 18334862671024757157
23559900 14 17405144024972143542
241688 4 17976541615679205304
2748010 2 18194681471165517252
5084963 1 18202005455699595904
528886 8 18267298910000987024
63268167 104 18338519616660563873
7364860 26 18271242716776812830
8809292 202 18187089498010851835

>  <PUBCHEM_SHAPE_MULTIPOLES>  (1) 
236.1
4.15
2.07
0.6
1.38
0.28
0
0.44
0
-0.46
0
-0.01
-0.03
0

>  <PUBCHEM_SHAPE_SELFOVERLAP>  (1) 
520.972

>  <PUBCHEM_SHAPE_VOLUME>  (1) 
127.8

>  <PUBCHEM_COORDINATE_TYPE>  (1) 
2
5
10

$$$$
