40118
     RDKit          3D

 20 22  0  0  0  0  0  0  0  0999 V2000
   -0.6468   -1.5266    0.0010 S   0  0  0  0  0  0  0  0  0  0  0  0
   -0.5609   -2.2208    1.2709 O   0  0  0  0  0  0  0  0  0  0  0  0
   -0.5602   -2.2220   -1.2683 O   0  0  0  0  0  0  0  0  0  0  0  0
   -1.1821    2.7872    0.0012 O   0  0  0  0  0  0  0  0  0  0  0  0
    5.2825    0.6345   -0.0017 O   0  0  0  0  0  0  0  0  0  0  0  0
    4.7216   -1.5681   -0.0005 O   0  0  0  0  0  0  0  0  0  0  0  0
    0.6317   -0.3373    0.0004 C   0  0  0  0  0  0  0  0  0  0  0  0
   -2.1774   -0.6860   -0.0002 C   0  0  0  0  0  0  0  0  0  0  0  0
    0.3470    1.0232    0.0004 C   0  0  0  0  0  0  0  0  0  0  0  0
   -2.2340    0.7028   -0.0002 C   0  0  0  0  0  0  0  0  0  0  0  0
   -1.0310    1.5679    0.0008 C   0  0  0  0  0  0  0  0  0  0  0  0
    1.9477   -0.8094    0.0000 C   0  0  0  0  0  0  0  0  0  0  0  0
    1.4220    1.9256    0.0003 C   0  0  0  0  0  0  0  0  0  0  0  0
   -3.3380   -1.4656   -0.0007 C   0  0  0  0  0  0  0  0  0  0  0  0
   -3.4969    1.3150   -0.0007 C   0  0  0  0  0  0  0  0  0  0  0  0
    3.0037    0.0970   -0.0001 C   0  0  0  0  0  0  0  0  0  0  0  0
    2.7413    1.4642    0.0001 C   0  0  0  0  0  0  0  0  0  0  0  0
   -4.5836   -0.8448   -0.0012 C   0  0  0  0  0  0  0  0  0  0  0  0
   -4.6634    0.5450   -0.0012 C   0  0  0  0  0  0  0  0  0  0  0  0
    4.3766   -0.3817   -0.0004 C   0  0  0  0  0  0  0  0  0  0  0  0
  1  2  2  0
  1  3  2  0
  1  7  1  0
  1  8  1  0
  4 11  2  0
  5 20  1  0
  6 20  2  0
  7  9  2  0
  7 12  1  0
  8 10  2  0
  8 14  1  0
  9 11  1  0
  9 13  1  0
 10 11  1  0
 10 15  1  0
 12 16  2  0
 13 17  2  0
 14 18  2  0
 15 19  2  0
 16 17  1  0
 16 20  1  0
 18 19  1  0
M  END
>  <PUBCHEM_COMPOUND_CID>  (1) 
40118

>  <PUBCHEM_CONFORMER_RMSD>  (1) 
0.6

>  <PUBCHEM_CONFORMER_DIVERSEORDER>  (1) 
1

>  <PUBCHEM_MMFF94_PARTIAL_CHARGES>  (1) 
28
1 1.32
10 0.09
11 0.4
12 -0.15
13 -0.15
14 -0.15
15 -0.15
16 0.09
17 -0.15
18 -0.15
19 -0.15
2 -0.65
20 0.63
21 0.15
22 0.15
23 0.15
24 0.15
25 0.15
26 0.15
27 0.15
28 0.5
3 -0.65
4 -0.57
5 -0.65
6 -0.57
7 -0.01
8 -0.01
9 0.09

>  <PUBCHEM_EFFECTIVE_ROTOR_COUNT>  (1) 
1

>  <PUBCHEM_PHARMACOPHORE_FEATURES>  (1) 
9
1 2 acceptor
1 3 acceptor
1 4 acceptor
1 5 acceptor
1 6 acceptor
3 5 6 20 anion
6 1 7 8 9 10 11 rings
6 7 9 12 13 16 17 rings
6 8 10 14 15 18 19 rings

>  <PUBCHEM_HEAVY_ATOM_COUNT>  (1) 
20

>  <PUBCHEM_ATOM_DEF_STEREO_COUNT>  (1) 
0

>  <PUBCHEM_ATOM_UDEF_STEREO_COUNT>  (1) 
0

>  <PUBCHEM_BOND_DEF_STEREO_COUNT>  (1) 
0

>  <PUBCHEM_BOND_UDEF_STEREO_COUNT>  (1) 
0

>  <PUBCHEM_ISOTOPIC_ATOM_COUNT>  (1) 
0

>  <PUBCHEM_COMPONENT_COUNT>  (1) 
1

>  <PUBCHEM_CACTVS_TAUTO_COUNT>  (1) 
1

>  <PUBCHEM_CONFORMER_ID>  (1) 
00009CB600000001

>  <PUBCHEM_MMFF94_ENERGY>  (1) 
46.3415

>  <PUBCHEM_FEATURE_SELFOVERLAP>  (1) 
45.774

>  <PUBCHEM_SHAPE_FINGERPRINT>  (1) 
10062212 137 18342171185377000415
10906281 52 18267325234077272068
10967382 1 18410573981157255141
11132069 177 18413386536080068017
11458722 379 18335139773804089739
11578080 2 16842747520175991506
11680986 33 18121500425505372161
12011746 2 18411136922251671388
12236239 1 17894349969339721640
12403259 226 18411975875457356145
12715332 25 18131347526899726383
13140716 1 18339364191914323905
13288520 33 18412266120883340172
13862211 1 18410851057850350711
14115302 16 17749680678774464262
14790565 3 18410581686155114988
15042514 8 18411420656666626695
15099037 51 18409729564521593767
15196674 1 18410575106180321285
15209289 33 18334295374733399899
15442244 35 18339642346902465484
15536298 74 18342174513602095408
16945 1 18266741281844484581
17804303 29 18413109471955798356
1813 80 17458340853806552068
18186145 218 18040706000451153669
19591789 44 18410572933190821499
200 152 18060698399009708641
20028762 73 17987514982728765535
20510252 161 18272088249650492376
20905425 154 18124033429628367335
21029758 11 18413387648329210000
21267235 1 18410019857509437131
21279426 13 18265332807000898070
221490 88 18191030207840365945
2334 1 18338799039165165709
23402539 116 18343857831718386767
23463225 33 18409730681593067781
23559900 14 18412823608145010056
2748010 2 18411417354057938941
2871803 45 18334569131822606637
296302 2 9943808893413610359
3004659 81 18260269612776222070
3286 77 17346594218362744313
335352 9 18410856525665361885
350125 39 18411140225245740609
351380 180 18411135844283542479
4214541 1 18410573963772008421
43471831 8 18189612756942872602
5104073 3 18411699906659946120
59755656 215 18268432321774053679
6138700 20 18337955559138817150
69090 78 18272366490300252190
8809292 202 18334298694584740754
9709674 26 18265336290224759994

>  <PUBCHEM_SHAPE_MULTIPOLES>  (1) 
386.09
8.94
2.38
0.72
4.04
0.24
0
-0.78
-0.01
-0.41
0
-0.1
-0.27
0

>  <PUBCHEM_SHAPE_SELFOVERLAP>  (1) 
854.065

>  <PUBCHEM_SHAPE_VOLUME>  (1) 
206.2

>  <PUBCHEM_COORDINATE_TYPE>  (1) 
2
5
10

$$$$
