40128
     RDKit          3D

 21 24  0  0  0  0  0  0  0  0999 V2000
    0.1368   -1.0028    0.0011 N   0  0  0  0  0  0  0  0  0  0  0  0
    1.8799    0.6486    0.0002 C   0  0  0  0  0  0  0  0  0  0  0  0
   -0.4569    1.3158    0.0008 C   0  0  0  0  0  0  0  0  0  0  0  0
    0.9027    1.6464    0.0006 C   0  0  0  0  0  0  0  0  0  0  0  0
   -0.8179   -0.0439    0.0009 C   0  0  0  0  0  0  0  0  0  0  0  0
    1.4454   -0.6839    0.0008 C   0  0  0  0  0  0  0  0  0  0  0  0
   -2.1912   -0.3746    0.0005 C   0  0  0  0  0  0  0  0  0  0  0  0
    2.4101   -1.6878    0.0005 C   0  0  0  0  0  0  0  0  0  0  0  0
    3.2529    0.9519   -0.0005 C   0  0  0  0  0  0  0  0  0  0  0  0
   -3.1779    0.6451    0.0001 C   0  0  0  0  0  0  0  0  0  0  0  0
   -1.4354    2.3175    0.0008 C   0  0  0  0  0  0  0  0  0  0  0  0
    4.1984   -0.0691   -0.0012 C   0  0  0  0  0  0  0  0  0  0  0  0
    3.7756   -1.3922   -0.0005 C   0  0  0  0  0  0  0  0  0  0  0  0
    1.3224    3.0905   -0.0013 C   0  0  0  0  0  0  0  0  0  0  0  0
   -2.7845    1.9847    0.0004 C   0  0  0  0  0  0  0  0  0  0  0  0
   -2.6343   -1.7148    0.0001 C   0  0  0  0  0  0  0  0  0  0  0  0
    2.0012   -3.1284    0.0004 C   0  0  0  0  0  0  0  0  0  0  0  0
   -4.5414    0.3068   -0.0008 C   0  0  0  0  0  0  0  0  0  0  0  0
    5.6536    0.2527   -0.0006 C   0  0  0  0  0  0  0  0  0  0  0  0
   -3.9933   -2.0363   -0.0009 C   0  0  0  0  0  0  0  0  0  0  0  0
   -4.9461   -1.0261   -0.0015 C   0  0  0  0  0  0  0  0  0  0  0  0
  1  5  2  0
  1  6  1  0
  2  4  1  0
  2  6  2  0
  2  9  1  0
  3  4  2  0
  3  5  1  0
  3 11  1  0
  4 14  1  0
  5  7  1  0
  6  8  1  0
  7 10  2  0
  7 16  1  0
  8 13  2  0
  8 17  1  0
  9 12  2  0
 10 15  1  0
 10 18  1  0
 11 15  2  0
 12 13  1  0
 12 19  1  0
 16 20  2  0
 18 21  2  0
 20 21  1  0
M  END
>  <PUBCHEM_COMPOUND_CID>  (1) 
40128

>  <PUBCHEM_CONFORMER_RMSD>  (1) 
0.6

>  <PUBCHEM_CONFORMER_DIVERSEORDER>  (1) 
1

>  <PUBCHEM_MMFF94_PARTIAL_CHARGES>  (1) 
25
1 -0.62
11 -0.15
12 -0.14
13 -0.15
14 0.14
15 -0.15
16 -0.15
17 0.14
18 -0.15
19 0.14
20 -0.15
21 -0.15
22 0.15
23 0.15
24 0.15
28 0.15
29 0.15
33 0.15
37 0.15
38 0.15
4 -0.14
5 0.31
6 0.31
8 -0.14
9 -0.15

>  <PUBCHEM_EFFECTIVE_ROTOR_COUNT>  (1) 
0

>  <PUBCHEM_PHARMACOPHORE_FEATURES>  (1) 
5
1 1 acceptor
6 1 2 3 4 5 6 rings
6 2 6 8 9 12 13 rings
6 3 5 7 10 11 15 rings
6 7 10 16 18 20 21 rings

>  <PUBCHEM_HEAVY_ATOM_COUNT>  (1) 
21

>  <PUBCHEM_ATOM_DEF_STEREO_COUNT>  (1) 
0

>  <PUBCHEM_ATOM_UDEF_STEREO_COUNT>  (1) 
0

>  <PUBCHEM_BOND_DEF_STEREO_COUNT>  (1) 
0

>  <PUBCHEM_BOND_UDEF_STEREO_COUNT>  (1) 
0

>  <PUBCHEM_ISOTOPIC_ATOM_COUNT>  (1) 
0

>  <PUBCHEM_COMPONENT_COUNT>  (1) 
1

>  <PUBCHEM_CACTVS_TAUTO_COUNT>  (1) 
1

>  <PUBCHEM_CONFORMER_ID>  (1) 
00009CC000000001

>  <PUBCHEM_MMFF94_ENERGY>  (1) 
79.2943

>  <PUBCHEM_FEATURE_SELFOVERLAP>  (1) 
25.458

>  <PUBCHEM_SHAPE_FINGERPRINT>  (1) 
10616163 171 18412265021255973167
10906281 52 18262539055655877528
10967382 1 18410855434379508994
1100329 8 18195244644789969402
11578080 2 17097195143924140262
11806522 49 18408604772853515508
11963148 33 18336259149698990082
12107183 9 17689998933851716146
12236239 1 17822008701417917528
12553582 1 18339631313189764183
12839892 36 18265878199830114162
13140716 1 18123469642082307930
13288520 33 18411983567695836357
13862211 1 18410288134009553098
14178342 30 18339068286296242544
14787075 74 18261395576569205120
14790565 3 18266185105097349820
15196674 1 18338798914394602438
15230672 131 13506411909014272123
15352361 1 18410573993968291023
15442244 35 18339362942363709649
15536298 74 18270680981866704145
15927050 60 17548981504435126284
16945 1 18410856568361943745
17349148 13 18040435494931680320
17492 89 18265895765703418707
17804303 29 18412829105281233549
1813 80 17458351814135628693
18681886 176 18409728500308876592
19141452 34 18341897398765984019
19591789 44 18195246852081048942
200 152 18273493490035097211
20028762 73 18129940225295056718
20261772 1 17988921210185481287
20645477 70 18190454046994673391
21033648 29 17274242990126782138
21267235 1 18410864269137987774
21421861 104 17898287208504066762
21673915 165 18411419501203976738
221490 88 18263649635314200571
2334 1 17618223244376703654
23402539 116 18409442604982591422
23557571 272 18200882781613814532
23559900 14 18411410743834472505
2748010 2 18268144262575574132
2871803 45 18408602552339826590
335352 9 18410855465272780341
34934 24 18337948991589917939
350125 39 18410858805939951020
3545911 37 18410292501922396559
3886686 26 16966012266450532746
4214541 1 18410575046156267681
474229 33 18410291441398050138
5104073 3 18340485556636493362
59755656 215 18409167696905602294
7364860 26 18340204214529864200
8809292 202 18261114114398483155
9709674 26 18410017602288051579

>  <PUBCHEM_SHAPE_MULTIPOLES>  (1) 
427.19
9.57
2.99
0.61
0.68
0.13
0
-2.78
0
0.14
0
0
0
0

>  <PUBCHEM_SHAPE_SELFOVERLAP>  (1) 
974.213

>  <PUBCHEM_SHAPE_VOLUME>  (1) 
223.5

>  <PUBCHEM_COORDINATE_TYPE>  (1) 
2
5
10

$$$$
