40126
     RDKit          3D

 17 18  0  0  1  0  0  0  0  0999 V2000
   -0.4897   -1.5241   -2.5577 Cl  0  0  0  0  0  0  0  0  0  0  0  0
   -1.0858    2.3946    1.4889 Cl  0  0  0  0  0  0  0  0  0  0  0  0
   -2.9782    0.4162    0.7872 Cl  0  0  0  0  0  0  0  0  0  0  0  0
   -1.2040   -3.2091    0.8782 Cl  0  0  0  0  0  0  0  0  0  0  0  0
   -2.1483    1.5803   -2.0279 Cl  0  0  0  0  0  0  0  0  0  0  0  0
    2.3795    2.4213   -0.2455 Cl  0  0  0  0  0  0  0  0  0  0  0  0
    3.5352   -1.0525    0.0039 Cl  0  0  0  0  0  0  0  0  0  0  0  0
   -0.3696    0.3590   -0.3908 C   0  0  0  0  0  0  0  0  0  0  0  0
    1.0822    0.0822    0.1795 C   0  0  0  0  0  0  0  0  0  0  0  0
    0.5363   -1.0262    1.1299 C   0  0  0  0  0  0  0  0  0  0  0  0
   -0.8389   -1.0858   -0.8597 C   0  0  0  0  0  0  0  0  0  0  0  0
   -1.1988    0.6863    0.9271 C   0  0  0  0  0  0  0  0  0  0  0  0
   -0.1140   -2.0199    0.1324 C   0  0  0  0  0  0  0  0  0  0  0  0
   -0.5649   -0.2865    1.9521 C   0  0  0  0  0  0  0  0  0  0  0  0
   -0.4708    1.4265   -1.4740 C   0  0  0  0  0  0  0  0  0  0  0  0
    1.7952    1.2336    0.9236 C   0  0  0  0  0  0  0  0  0  0  0  0
    2.1344   -0.3960   -0.8474 C   0  0  0  0  0  0  0  0  0  0  0  0
  1 11  1  0
  2 12  1  0
  3 12  1  0
  4 13  1  0
  5 15  1  0
  6 16  1  0
  7 17  1  0
  8  9  1  0
  8 11  1  0
  8 12  1  0
  8 15  1  0
  9 10  1  0
  9 16  1  0
  9 17  1  0
 10 13  1  0
 10 14  1  0
 11 13  1  0
 12 14  1  0
M  END
>  <PUBCHEM_COMPOUND_CID>  (1) 
40126

>  <PUBCHEM_CONFORMER_RMSD>  (1) 
0.6

>  <PUBCHEM_CONFORMER_DIVERSEORDER>  (1) 
1
16
5
13
10
15
3
12
8
7
14
11
6
9
4
2

>  <PUBCHEM_MMFF94_PARTIAL_CHARGES>  (1) 
13
1 -0.29
11 0.29
12 0.58
13 0.29
15 0.29
16 0.29
17 0.29
2 -0.29
3 -0.29
4 -0.29
5 -0.29
6 -0.29
7 -0.29

>  <PUBCHEM_EFFECTIVE_ROTOR_COUNT>  (1) 
4

>  <PUBCHEM_PHARMACOPHORE_FEATURES>  (1) 
1
7 8 9 10 11 12 13 14 rings

>  <PUBCHEM_HEAVY_ATOM_COUNT>  (1) 
17

>  <PUBCHEM_ATOM_DEF_STEREO_COUNT>  (1) 
0

>  <PUBCHEM_ATOM_UDEF_STEREO_COUNT>  (1) 
4

>  <PUBCHEM_BOND_DEF_STEREO_COUNT>  (1) 
0

>  <PUBCHEM_BOND_UDEF_STEREO_COUNT>  (1) 
0

>  <PUBCHEM_ISOTOPIC_ATOM_COUNT>  (1) 
0

>  <PUBCHEM_COMPONENT_COUNT>  (1) 
1

>  <PUBCHEM_CACTVS_TAUTO_COUNT>  (1) 
1

>  <PUBCHEM_CONFORMER_ID>  (1) 
00009CBE00000001

>  <PUBCHEM_MMFF94_ENERGY>  (1) 
99.6951

>  <PUBCHEM_FEATURE_SELFOVERLAP>  (1) 
5.074

>  <PUBCHEM_SHAPE_FINGERPRINT>  (1) 
10863032 1 18194131925815621723
10948715 1 18199762486349500073
12423570 1 13493103900404283795
13024252 1 15574724598788143162
14142880 1 17760646266836209140
144361 1 14522783715012545665
14614273 12 18049712220532920620
14817 1 15888197764595732065
15490181 7 18040702671761880626
15490181 8 17771382753009439434
15557651 10 18042987396831832080
15881359 60 18189600786916341657
16945 1 18124908748305719306
21501502 16 18266465493462379354
23419403 2 16895085497839521081
23559900 14 18337663111264204138
2748010 2 18116448122225541130
3060560 45 17833790972872762325
5084963 1 18041291966992110344
54276843 12 18129933473399816001
81228 2 17898294063134551979

>  <PUBCHEM_SHAPE_MULTIPOLES>  (1) 
362.94
3.45
2.97
2.12
1.99
0.7
0.91
-0.72
0.03
-0.41
-0.33
-1.11
-0.03
0.24

>  <PUBCHEM_SHAPE_SELFOVERLAP>  (1) 
695.024

>  <PUBCHEM_SHAPE_VOLUME>  (1) 
221.8

>  <PUBCHEM_COORDINATE_TYPE>  (1) 
2
5
10

$$$$
