40122
     RDKit          3D

 25 27  0  0  0  0  0  0  0  0999 V2000
   -1.0028   -2.0669   -0.2330 O   0  0  0  0  0  0  0  0  0  0  0  0
    4.4190   -1.6388    0.2647 O   0  0  0  0  0  0  0  0  0  0  0  0
   -0.3023    2.2030   -0.4204 O   0  0  0  0  0  0  0  0  0  0  0  0
   -0.4713    1.8341    1.8455 O   0  0  0  0  0  0  0  0  0  0  0  0
    3.9967    0.9779   -0.0942 N   0  0  0  0  0  0  0  0  0  0  0  0
    0.8390   -0.8360    0.2097 C   0  0  0  0  0  0  0  0  0  0  0  0
    2.2271   -0.6651    0.3524 C   0  0  0  0  0  0  0  0  0  0  0  0
   -0.3054   -0.0052    0.3374 C   0  0  0  0  0  0  0  0  0  0  0  0
    0.3567   -2.0924   -0.1421 C   0  0  0  0  0  0  0  0  0  0  0  0
    2.8341    0.6502    0.7293 C   0  0  0  0  0  0  0  0  0  0  0  0
   -1.3938   -0.7990    0.0589 C   0  0  0  0  0  0  0  0  0  0  0  0
    3.0660   -1.7666    0.1341 C   0  0  0  0  0  0  0  0  0  0  0  0
    1.1652   -3.2054   -0.3659 C   0  0  0  0  0  0  0  0  0  0  0  0
    2.5421   -3.0128   -0.2186 C   0  0  0  0  0  0  0  0  0  0  0  0
   -2.8131   -0.5775    0.0128 C   0  0  0  0  0  0  0  0  0  0  0  0
   -0.3687    1.3861    0.6841 C   0  0  0  0  0  0  0  0  0  0  0  0
    4.5593    2.2677    0.3051 C   0  0  0  0  0  0  0  0  0  0  0  0
    3.6320    0.9964   -1.5104 C   0  0  0  0  0  0  0  0  0  0  0  0
   -3.4015    0.3850    0.8379 C   0  0  0  0  0  0  0  0  0  0  0  0
   -3.6132   -1.3231   -0.8575 C   0  0  0  0  0  0  0  0  0  0  0  0
   -4.7788    0.6004    0.7929 C   0  0  0  0  0  0  0  0  0  0  0  0
   -4.9905   -1.1076   -0.9025 C   0  0  0  0  0  0  0  0  0  0  0  0
   -5.5734   -0.1458   -0.0773 C   0  0  0  0  0  0  0  0  0  0  0  0
   -0.3549    3.6171   -0.2037 C   0  0  0  0  0  0  0  0  0  0  0  0
   -0.2675    4.3243   -1.5394 C   0  0  0  0  0  0  0  0  0  0  0  0
  1  9  1  0
  1 11  1  0
  2 12  1  0
  3 16  1  0
  3 24  1  0
  4 16  2  0
  5 10  1  0
  5 17  1  0
  5 18  1  0
  6  7  1  0
  6  8  1  0
  6  9  2  0
  7 10  1  0
  7 12  2  0
  8 11  2  0
  8 16  1  0
  9 13  1  0
 11 15  1  0
 12 14  1  0
 13 14  2  0
 15 19  2  0
 15 20  1  0
 19 21  1  0
 20 22  2  0
 21 23  2  0
 22 23  1  0
 24 25  1  0
M  END
>  <PUBCHEM_COMPOUND_CID>  (1) 
40122

>  <PUBCHEM_CONFORMER_RMSD>  (1) 
0.8

>  <PUBCHEM_CONFORMER_DIVERSEORDER>  (1) 
1
6
3
7
12
9
11
8
5
2
10
4

>  <PUBCHEM_MMFF94_PARTIAL_CHARGES>  (1) 
31
1 -0.28
10 0.41
11 0.09
12 0.08
13 -0.15
14 -0.15
15 0.05
16 0.81
17 0.27
18 0.27
19 -0.15
2 -0.53
20 -0.15
21 -0.15
22 -0.15
23 -0.15
24 0.28
28 0.15
29 0.15
3 -0.43
36 0.15
37 0.15
38 0.45
39 0.15
4 -0.57
40 0.15
41 0.15
5 -0.81
7 -0.14
8 -0.09
9 0.14

>  <PUBCHEM_EFFECTIVE_ROTOR_COUNT>  (1) 
6

>  <PUBCHEM_PHARMACOPHORE_FEATURES>  (1) 
7
1 1 acceptor
1 2 donor
1 4 acceptor
1 5 cation
5 1 6 8 9 11 rings
6 15 19 20 21 22 23 rings
6 6 7 9 12 13 14 rings

>  <PUBCHEM_HEAVY_ATOM_COUNT>  (1) 
25

>  <PUBCHEM_ATOM_DEF_STEREO_COUNT>  (1) 
0

>  <PUBCHEM_ATOM_UDEF_STEREO_COUNT>  (1) 
0

>  <PUBCHEM_BOND_DEF_STEREO_COUNT>  (1) 
0

>  <PUBCHEM_BOND_UDEF_STEREO_COUNT>  (1) 
0

>  <PUBCHEM_ISOTOPIC_ATOM_COUNT>  (1) 
0

>  <PUBCHEM_COMPONENT_COUNT>  (1) 
1

>  <PUBCHEM_CACTVS_TAUTO_COUNT>  (1) 
3

>  <PUBCHEM_CONFORMER_ID>  (1) 
00009CBA00000001

>  <PUBCHEM_MMFF94_ENERGY>  (1) 
68.8098

>  <PUBCHEM_FEATURE_SELFOVERLAP>  (1) 
35.623

>  <PUBCHEM_SHAPE_FINGERPRINT>  (1) 
10090160 65 18334290968086781378
10411042 1 17908144274508221590
10967382 1 18412543236489591250
12403259 226 18194680359143553322
12788726 201 18043527218212194194
13132413 78 18342741819111245237
13140716 1 18408602587053545330
14528608 73 18343302599668377783
14790565 3 18267026248213668080
14955137 171 18193300665123879921
15081414 286 18409171021558429373
15196674 1 18342455945966814723
15210252 30 18261959651556755620
15219462 58 16951984842472968760
15664445 248 18340221777036383476
1601671 61 18338232764537779241
17492 54 18262240048459387668
1813 80 18339657628892042087
18785283 64 17898869103985497929
20642791 178 18046351004844211861
20739085 24 18194427548831369553
21267235 1 18272657809769883687
21421861 104 18046625612083976707
21641784 216 18117014203347323964
22182313 1 17697308522019850246
23558518 356 17972883561979097352
23559900 14 18129092321382729850
34797466 226 15482385460582772187
34934 24 18339357595214016970
350125 39 18340207384895723552
44154327 71 18410015468073849238
46194498 28 18042111207109647525
474 4 18335983168000216235
5104073 3 18409449202316583643
59755656 215 18341901788444243342
6034566 193 17610925738601653932
70251023 43 18194970642882709603
7164475 11 18264770952475068708
9981440 41 17475501151004036473

>  <PUBCHEM_SHAPE_MULTIPOLES>  (1) 
486.03
9.3
4.17
1.1
6.02
2.96
0.06
-0.95
0.39
-2.62
1.4
0.13
0.67
-0.53

>  <PUBCHEM_SHAPE_SELFOVERLAP>  (1) 
1056.845

>  <PUBCHEM_SHAPE_VOLUME>  (1) 
268.6

>  <PUBCHEM_COORDINATE_TYPE>  (1) 
2
5
10

$$$$
