40125
     RDKit          3D

 17 18  0  0  1  0  0  0  0  0999 V2000
   -5.5415   -2.0901    0.6783 Cl  0  0  0  0  0  0  0  0  0  0  0  0
    0.8705   -0.9133   -0.6972 O   0  0  0  0  0  0  0  0  0  0  0  0
    1.4546    1.1741    1.2017 O   0  0  0  0  0  0  0  0  0  0  0  0
   -2.5095    0.4410   -0.1216 N   0  0  0  0  0  0  0  0  0  0  0  0
   -0.0871    0.0850   -0.3184 C   0  0  0  0  0  0  0  0  0  0  0  0
   -1.4736   -0.5259   -0.4594 C   0  0  0  0  0  0  0  0  0  0  0  0
    0.1777    0.5341    1.1126 C   0  0  0  0  0  0  0  0  0  0  0  0
   -3.8363   -0.1735   -0.2032 C   0  0  0  0  0  0  0  0  0  0  0  0
   -2.4360    1.6069   -1.0046 C   0  0  0  0  0  0  0  0  0  0  0  0
    2.1483   -0.5595   -0.3523 C   0  0  0  0  0  0  0  0  0  0  0  0
    2.4314    0.4595    0.5597 C   0  0  0  0  0  0  0  0  0  0  0  0
   -3.9379   -1.3253    0.7848 C   0  0  0  0  0  0  0  0  0  0  0  0
   -3.5120    2.6235   -0.6622 C   0  0  0  0  0  0  0  0  0  0  0  0
    3.1884   -1.2737   -0.9476 C   0  0  0  0  0  0  0  0  0  0  0  0
    3.7555    0.7947    0.8440 C   0  0  0  0  0  0  0  0  0  0  0  0
    4.5121   -0.9470   -0.6525 C   0  0  0  0  0  0  0  0  0  0  0  0
    4.7953    0.0893    0.2379 C   0  0  0  0  0  0  0  0  0  0  0  0
  1 12  1  0
  2  5  1  0
  2 10  1  0
  3  7  1  0
  3 11  1  0
  4  6  1  0
  4  8  1  0
  4  9  1  0
  5  6  1  0
  5  7  1  0
  8 12  1  0
  9 13  1  0
 10 11  2  0
 10 14  1  0
 11 15  1  0
 14 16  2  0
 15 17  2  0
 16 17  1  0
M  END
>  <PUBCHEM_COMPOUND_CID>  (1) 
40125

>  <PUBCHEM_CONFORMER_RMSD>  (1) 
0.8

>  <PUBCHEM_CONFORMER_DIVERSEORDER>  (1) 
1
8
13
33
9
30
17
2
7
18
32
19
10
34
22
16
15
14
27
5
29
21
25
6
28
26
31
24
4
35
23
3
20
12
11

>  <PUBCHEM_MMFF94_PARTIAL_CHARGES>  (1) 
20
1 -0.29
10 0.08
11 0.08
12 0.29
14 -0.15
15 -0.15
16 -0.15
17 -0.15
2 -0.36
3 -0.36
32 0.15
33 0.15
34 0.15
35 0.15
4 -0.81
5 0.28
6 0.27
7 0.28
8 0.27
9 0.27

>  <PUBCHEM_EFFECTIVE_ROTOR_COUNT>  (1) 
5.8

>  <PUBCHEM_PHARMACOPHORE_FEATURES>  (1) 
5
1 2 acceptor
1 3 acceptor
1 4 cation
6 10 11 14 15 16 17 rings
6 2 3 5 7 10 11 rings

>  <PUBCHEM_HEAVY_ATOM_COUNT>  (1) 
17

>  <PUBCHEM_ATOM_DEF_STEREO_COUNT>  (1) 
0

>  <PUBCHEM_ATOM_UDEF_STEREO_COUNT>  (1) 
1

>  <PUBCHEM_BOND_DEF_STEREO_COUNT>  (1) 
0

>  <PUBCHEM_BOND_UDEF_STEREO_COUNT>  (1) 
0

>  <PUBCHEM_ISOTOPIC_ATOM_COUNT>  (1) 
0

>  <PUBCHEM_COMPONENT_COUNT>  (1) 
1

>  <PUBCHEM_CACTVS_TAUTO_COUNT>  (1) 
1

>  <PUBCHEM_CONFORMER_ID>  (1) 
00009CBD00000001

>  <PUBCHEM_MMFF94_ENERGY>  (1) 
45.4762

>  <PUBCHEM_FEATURE_SELFOVERLAP>  (1) 
25.413

>  <PUBCHEM_SHAPE_FINGERPRINT>  (1) 
10354089 29 16917077693047740115
10912923 1 17240202114826847212
11405975 8 18265612078722630730
11471102 20 17703500018256184332
11543360 7 17967825946130455518
11796584 16 18118119169990149698
12236239 1 16225763017248334299
12403259 415 18201715167650674872
12616971 3 15841832248605651256
13296908 3 18273210868011981196
13675066 3 18273208703533145280
13760787 5 16630521826224234260
14252887 29 17275112708568024414
15219456 202 18272364248332630940
15653759 3 18409728443762060729
17844677 252 18335425672729178824
18186145 218 18271246015169056980
18785283 64 18055628671095739256
19026448 4 18411697656207715572
19026448 5 17313383388178495808
19141452 34 18129666430273524863
19433438 28 18411979169828517448
1986462 14 18261110742595837693
200 152 16558458691699664932
20645477 70 17560513985165966878
21065201 7 18260824852355764930
21267235 1 17775297049639974382
22094290 60 18260267438810399389
22943178 12 18341608179235323045
2297311 6 18334585654630385703
23402539 116 17894908546984962663
23402655 69 17631724981294928940
23493267 7 18337102354936355649
23557571 272 18408887308829852653
23559900 14 18195806276520733862
268830 7 15123498242268109256
29717793 49 15647043867840348282
314173 85 18261398892758906355
3268164 11 17894903027914869583
5104073 3 18271240526232599482
5281201 14 18413390921495112380
602551 16 18113621234823106898
6049 1 18341607127237731153
7495541 125 18411702123005299920

>  <PUBCHEM_SHAPE_MULTIPOLES>  (1) 
335
11
1.96
1.1
2.86
0.66
-0.1
-4.01
-0.7
3.17
0.22
-0.28
0.08
1.93

>  <PUBCHEM_SHAPE_SELFOVERLAP>  (1) 
682.046

>  <PUBCHEM_SHAPE_VOLUME>  (1) 
196.1

>  <PUBCHEM_COORDINATE_TYPE>  (1) 
2
5
10

$$$$
