40137
     RDKit          3D

 25 29  0  0  0  0  0  0  0  0999 V2000
    0.0003   -1.0004   -0.8686 O   0  0  0  0  0  0  0  0  0  0  0  0
   -0.0001    2.9369   -0.4778 N   0  0  0  0  0  0  0  0  0  0  0  0
    0.0000    2.0782    1.8301 N   0  0  0  0  0  0  0  0  0  0  0  0
   -1.2911    0.8507    0.0619 C   0  0  0  0  0  0  0  0  0  0  0  0
    1.2912    0.8510    0.0621 C   0  0  0  0  0  0  0  0  0  0  0  0
   -1.2102    2.1474   -0.7939 C   0  0  0  0  0  0  0  0  0  0  0  0
   -1.2038    1.2678    1.5564 C   0  0  0  0  0  0  0  0  0  0  0  0
    1.2101    2.1476   -0.7938 C   0  0  0  0  0  0  0  0  0  0  0  0
    1.2038    1.2680    1.5564 C   0  0  0  0  0  0  0  0  0  0  0  0
    0.0001    0.0828   -0.2876 C   0  0  0  0  0  0  0  0  0  0  0  0
   -0.0002    3.2686    0.9599 C   0  0  0  0  0  0  0  0  0  0  0  0
   -2.5399   -0.0025   -0.1812 C   0  0  0  0  0  0  0  0  0  0  0  0
    2.5400   -0.0024   -0.1810 C   0  0  0  0  0  0  0  0  0  0  0  0
   -2.7085   -1.2067    0.5040 C   0  0  0  0  0  0  0  0  0  0  0  0
    2.7086   -1.2065    0.5042 C   0  0  0  0  0  0  0  0  0  0  0  0
   -3.5113    0.4231   -1.0886 C   0  0  0  0  0  0  0  0  0  0  0  0
    3.5115    0.4231   -1.0885 C   0  0  0  0  0  0  0  0  0  0  0  0
   -3.8458   -1.9833    0.2826 C   0  0  0  0  0  0  0  0  0  0  0  0
    3.8456   -1.9834    0.2825 C   0  0  0  0  0  0  0  0  0  0  0  0
   -4.6485   -0.3535   -1.3101 C   0  0  0  0  0  0  0  0  0  0  0  0
    4.6485   -0.3535   -1.3101 C   0  0  0  0  0  0  0  0  0  0  0  0
   -4.8158   -1.5567   -0.6245 C   0  0  0  0  0  0  0  0  0  0  0  0
    4.8157   -1.5569   -0.6247 C   0  0  0  0  0  0  0  0  0  0  0  0
   -4.0251   -3.2697    1.0151 C   0  0  0  0  0  0  0  0  0  0  0  0
    4.0249   -3.2697    1.0153 C   0  0  0  0  0  0  0  0  0  0  0  0
  1 10  2  0
  2  6  1  0
  2  8  1  0
  2 11  1  0
  3  7  1  0
  3  9  1  0
  3 11  1  0
  4  6  1  0
  4  7  1  0
  4 10  1  0
  4 12  1  0
  5  8  1  0
  5  9  1  0
  5 10  1  0
  5 13  1  0
 12 14  2  0
 12 16  1  0
 13 15  2  0
 13 17  1  0
 14 18  1  0
 15 19  1  0
 16 20  2  0
 17 21  2  0
 18 22  2  0
 18 24  1  0
 19 23  2  0
 19 25  1  0
 20 22  1  0
 21 23  1  0
M  END
>  <PUBCHEM_COMPOUND_CID>  (1) 
40137

>  <PUBCHEM_CONFORMER_RMSD>  (1) 
0.6

>  <PUBCHEM_CONFORMER_DIVERSEORDER>  (1) 
1
9
8
5
6
7
10
4
2
3

>  <PUBCHEM_MMFF94_PARTIAL_CHARGES>  (1) 
33
1 -0.57
10 0.45
11 0.54
12 -0.14
13 -0.14
14 -0.15
15 -0.15
16 -0.15
17 -0.15
18 -0.14
19 -0.14
2 -0.81
20 -0.15
21 -0.15
22 -0.15
23 -0.15
24 0.14
25 0.14
3 -0.81
36 0.15
37 0.15
38 0.15
39 0.15
4 0.2
40 0.15
41 0.15
42 0.15
43 0.15
5 0.2
6 0.27
7 0.27
8 0.27
9 0.27

>  <PUBCHEM_EFFECTIVE_ROTOR_COUNT>  (1) 
3

>  <PUBCHEM_PHARMACOPHORE_FEATURES>  (1) 
9
1 1 acceptor
1 2 cation
1 3 cation
6 12 14 16 18 20 22 rings
6 13 15 17 19 21 23 rings
6 2 3 4 6 7 11 rings
6 2 3 5 8 9 11 rings
6 2 4 5 6 8 10 rings
6 3 4 5 7 9 10 rings

>  <PUBCHEM_HEAVY_ATOM_COUNT>  (1) 
25

>  <PUBCHEM_ATOM_DEF_STEREO_COUNT>  (1) 
0

>  <PUBCHEM_ATOM_UDEF_STEREO_COUNT>  (1) 
0

>  <PUBCHEM_BOND_DEF_STEREO_COUNT>  (1) 
0

>  <PUBCHEM_BOND_UDEF_STEREO_COUNT>  (1) 
0

>  <PUBCHEM_ISOTOPIC_ATOM_COUNT>  (1) 
0

>  <PUBCHEM_COMPONENT_COUNT>  (1) 
1

>  <PUBCHEM_CACTVS_TAUTO_COUNT>  (1) 
1

>  <PUBCHEM_CONFORMER_ID>  (1) 
00009CC900000001

>  <PUBCHEM_MMFF94_ENERGY>  (1) 
89.9159

>  <PUBCHEM_FEATURE_SELFOVERLAP>  (1) 
58.944

>  <PUBCHEM_SHAPE_FINGERPRINT>  (1) 
10622 236 17826778258058310834
10764073 3 12892584639832074900
10948715 1 9007057967497264533
11045515 52 18040157292514945164
11578080 2 18270102544768369424
11796584 16 18335137579134233039
12120059 20 18057316408949837518
12363563 72 18202004326012466255
12403259 118 10375874030578926807
12506688 2 18412545431006752938
12553582 1 18411144618822763146
12714826 92 18271520901470977860
12760667 363 18341891827402695095
12788726 201 18196085539172231097
12824470 246 18412550885847243088
12892183 10 12895066340607506789
13103583 49 17845116085011280555
13134695 92 17988074616766453729
13140716 1 18131072588863597832
13533116 47 17983579886758324067
13544653 18 18201438098930387152
13631057 29 18411984620796533406
13911987 19 17680736987956621996
13955234 65 17909270522570315209
14347329 18 17097747116700938549
14866123 147 18123467186136442161
14950920 106 14117508805987936270
15163728 17 11170194185725965370
16752209 62 18267857294483469254
16945 1 18187083953155487225
17349148 13 17060058211468554743
17357779 13 18201431463364203277
1813 80 17917724520861931877
18222031 100 17846493751083482991
193927 3 18202014230323212526
200 152 18260552182373202028
20775438 99 17548388850335840719
20775530 9 18411138077762053723
21250096 35 18412823590321582063
221490 88 18189902104868650759
22182313 1 18268967908407091805
23419403 2 17772438305647648945
23559900 14 18189608514094841655
3004659 81 18040429958861871110
3027735 51 18052531072030705287
394222 165 14618528972858297593
4280585 95 18186510008617979488
46194498 28 17387415864082330223
463206 1 18333450932682038475
474 4 8574443023120955735
5486654 36 18339657706275352139
633830 44 14996285799159436247
6442390 28 16755225458581621713
6669772 16 17621048981156451164
7970288 3 18131071540960571942
9709674 26 18045215201175320787

>  <PUBCHEM_SHAPE_MULTIPOLES>  (1) 
498.66
9.4
3.61
1.42
0
0.22
0.28
9.81
-2.76
0
1.31
0
-0.39
0

>  <PUBCHEM_SHAPE_SELFOVERLAP>  (1) 
1114.133

>  <PUBCHEM_SHAPE_VOLUME>  (1) 
257.6

>  <PUBCHEM_COORDINATE_TYPE>  (1) 
2
5
10

$$$$
