40136
     RDKit          3D

 13 14  0  0  0  0  0  0  0  0999 V2000
   -0.3514    0.7829    0.0013 N   0  0  0  0  0  0  0  0  0  0  0  0
    1.9853    0.4098    0.0056 N   0  0  0  0  0  0  0  0  0  0  0  0
   -1.9879   -0.9786   -0.0024 N   0  0  0  0  0  0  0  0  0  0  0  0
   -0.3298    2.1417    0.0023 N   0  0  0  0  0  0  0  0  0  0  0  0
   -2.4814    1.3958   -0.0022 N   0  0  0  0  0  0  0  0  0  0  0  0
    0.7244   -0.1141    0.0028 C   0  0  0  0  0  0  0  0  0  0  0  0
    0.4550   -1.4296    0.0017 C   0  0  0  0  0  0  0  0  0  0  0  0
    3.1774   -0.3968    0.0075 C   0  0  0  0  0  0  0  0  0  0  0  0
   -1.6808    0.3489   -0.0014 C   0  0  0  0  0  0  0  0  0  0  0  0
   -0.9890   -1.8111   -0.0012 C   0  0  0  0  0  0  0  0  0  0  0  0
    4.4079    0.4895   -0.0120 C   0  0  0  0  0  0  0  0  0  0  0  0
   -1.3061   -3.2860   -0.0012 C   0  0  0  0  0  0  0  0  0  0  0  0
   -1.6236    2.4475   -0.0007 C   0  0  0  0  0  0  0  0  0  0  0  0
  1  4  1  0
  1  6  1  0
  1  9  1  0
  2  6  1  0
  2  8  1  0
  3  9  1  0
  3 10  2  0
  4 13  2  0
  5  9  2  0
  5 13  1  0
  6  7  2  0
  7 10  1  0
  8 11  1  0
 10 12  1  0
M  END
>  <PUBCHEM_COMPOUND_CID>  (1) 
40136

>  <PUBCHEM_CONFORMER_RMSD>  (1) 
0.6

>  <PUBCHEM_CONFORMER_DIVERSEORDER>  (1) 
1
3
2

>  <PUBCHEM_MMFF94_PARTIAL_CHARGES>  (1) 
15
1 0.6
10 0.37
12 0.06
13 0.37
14 0.4
15 0.15
2 -0.87
24 0.15
3 -0.58
4 -0.71
5 -0.57
6 0.07
7 -0.14
8 0.37
9 0.31

>  <PUBCHEM_EFFECTIVE_ROTOR_COUNT>  (1) 
2

>  <PUBCHEM_PHARMACOPHORE_FEATURES>  (1) 
6
1 2 cation
1 2 donor
1 3 acceptor
4 1 3 5 9 cation
5 1 4 5 9 13 rings
6 1 3 6 7 9 10 rings

>  <PUBCHEM_HEAVY_ATOM_COUNT>  (1) 
13

>  <PUBCHEM_ATOM_DEF_STEREO_COUNT>  (1) 
0

>  <PUBCHEM_ATOM_UDEF_STEREO_COUNT>  (1) 
0

>  <PUBCHEM_BOND_DEF_STEREO_COUNT>  (1) 
0

>  <PUBCHEM_BOND_UDEF_STEREO_COUNT>  (1) 
0

>  <PUBCHEM_ISOTOPIC_ATOM_COUNT>  (1) 
0

>  <PUBCHEM_COMPONENT_COUNT>  (1) 
1

>  <PUBCHEM_CACTVS_TAUTO_COUNT>  (1) 
8

>  <PUBCHEM_CONFORMER_ID>  (1) 
00009CC800000001

>  <PUBCHEM_MMFF94_ENERGY>  (1) 
24.5832

>  <PUBCHEM_FEATURE_SELFOVERLAP>  (1) 
30.589

>  <PUBCHEM_SHAPE_FINGERPRINT>  (1) 
1 1 17833833767947777206
12716758 59 18341338782028544982
13024252 1 14634867543864265029
13380535 76 18268988696222423094
14325111 11 18338516322905892288
15042514 8 18408889567745526827
15669948 3 18409162234260875106
16945 1 18410855485940325994
193761 8 17906452482652388197
20510252 161 18343304738614735032
20645477 56 18411141312288756160
20871998 184 18272375320832335638
20871998 22 17762617695410661442
21524375 3 18127119767330874388
2334 1 17834114529933614183
23402539 116 18271235114621564719
23557571 272 18200608002723343956
23559900 14 18271806792786807414
241688 4 18122342647148780499
257057 1 17908134735047487086
2748010 2 18193568769899085415
3071541 12 17403459572207863132
3071541 250 17688317106289497262
54173680 148 18337954605344522778
6333449 129 18412261731447882016
7364860 26 17475512772552302039
81228 2 18339080500718943491

>  <PUBCHEM_SHAPE_MULTIPOLES>  (1) 
242.63
4.76
3.03
0.58
7.33
1.05
0
-0.86
0.01
-2.83
0
0.02
0.03
0

>  <PUBCHEM_SHAPE_SELFOVERLAP>  (1) 
510.314

>  <PUBCHEM_SHAPE_VOLUME>  (1) 
133.3

>  <PUBCHEM_COORDINATE_TYPE>  (1) 
2
5
10

$$$$
