40149
     RDKit          3D

 14 15  0  0  0  0  0  0  0  0999 V2000
   -1.8674    2.5958   -0.1177 Cl  0  0  0  0  0  0  0  0  0  0  0  0
   -0.0561    0.3154    0.6291 O   0  0  0  0  0  0  0  0  0  0  0  0
    2.2364    1.4044    0.2028 O   0  0  0  0  0  0  0  0  0  0  0  0
    3.3203   -0.6433   -0.0854 N   0  0  0  0  0  0  0  0  0  0  0  0
    4.6518   -0.2754    0.2963 C   0  0  0  0  0  0  0  0  0  0  0  0
    4.2676   -0.3721   -1.1262 C   0  0  0  0  0  0  0  0  0  0  0  0
    2.2288    0.1768    0.1537 C   0  0  0  0  0  0  0  0  0  0  0  0
    0.9660   -0.6149    0.3619 C   0  0  0  0  0  0  0  0  0  0  0  0
   -1.3410   -0.0423    0.2876 C   0  0  0  0  0  0  0  0  0  0  0  0
   -2.2725    0.9195   -0.0777 C   0  0  0  0  0  0  0  0  0  0  0  0
   -1.6783   -1.3889    0.3168 C   0  0  0  0  0  0  0  0  0  0  0  0
   -3.5666    0.5278   -0.4205 C   0  0  0  0  0  0  0  0  0  0  0  0
   -2.9725   -1.7805   -0.0260 C   0  0  0  0  0  0  0  0  0  0  0  0
   -3.9167   -0.8223   -0.3945 C   0  0  0  0  0  0  0  0  0  0  0  0
  1 10  1  0
  2  8  1  0
  2  9  1  0
  3  7  2  0
  4  5  1  0
  4  6  1  0
  4  7  1  0
  5  6  1  0
  7  8  1  0
  9 10  2  0
  9 11  1  0
 10 12  1  0
 11 13  2  0
 12 14  2  0
 13 14  1  0
M  END
>  <PUBCHEM_COMPOUND_CID>  (1) 
40149

>  <PUBCHEM_CONFORMER_RMSD>  (1) 
0.6

>  <PUBCHEM_CONFORMER_DIVERSEORDER>  (1) 
1
44
89
63
38
101
65
94
73
102
97
95
88
59
21
77
83
29
5
79
50
55
113
42
53
82
109
75
74
104
91
30
61
52
11
12
46
22
14
49
87
33
107
80
81
34
13
9
35
27
32
3
24
45
62
54
71
18
47
48
31
96
72
99
58
76
41
23
68
8
103
93
86
40
67
36
90
10
26
92
110
43
111
15
57
115
85
7
20
2
19
51
17
108
100
112
16
106
66
98
114
4
69
39
25
37
105
70
84
56
6
64
60
78
28

>  <PUBCHEM_MMFF94_PARTIAL_CHARGES>  (1) 
22
1 -0.18
10 0.18
11 -0.15
12 -0.15
13 -0.15
14 -0.15
15 0.1
16 0.1
17 0.1
18 0.1
2 -0.36
21 0.15
22 0.15
23 0.15
24 0.15
3 -0.57
4 -0.36
5 -0.05
6 -0.05
7 0.57
8 0.34
9 0.08

>  <PUBCHEM_EFFECTIVE_ROTOR_COUNT>  (1) 
4.6

>  <PUBCHEM_PHARMACOPHORE_FEATURES>  (1) 
3
1 2 acceptor
1 3 acceptor
6 9 10 11 12 13 14 rings

>  <PUBCHEM_HEAVY_ATOM_COUNT>  (1) 
14

>  <PUBCHEM_ATOM_DEF_STEREO_COUNT>  (1) 
0

>  <PUBCHEM_ATOM_UDEF_STEREO_COUNT>  (1) 
0

>  <PUBCHEM_BOND_DEF_STEREO_COUNT>  (1) 
0

>  <PUBCHEM_BOND_UDEF_STEREO_COUNT>  (1) 
0

>  <PUBCHEM_ISOTOPIC_ATOM_COUNT>  (1) 
0

>  <PUBCHEM_COMPONENT_COUNT>  (1) 
1

>  <PUBCHEM_CACTVS_TAUTO_COUNT>  (1) 
1

>  <PUBCHEM_CONFORMER_ID>  (1) 
00009CD500000001

>  <PUBCHEM_MMFF94_ENERGY>  (1) 
47.4637

>  <PUBCHEM_FEATURE_SELFOVERLAP>  (1) 
15.236

>  <PUBCHEM_SHAPE_FINGERPRINT>  (1) 
10680689 15 18409459063450094610
10751810 167 18333736814373678982
12032990 46 18338237192997240635
12186901 62 18335700516502809279
17802600 8 18411131446369023648
17870717 6 18271540710018467870
18186145 218 17822281435640256705
1986462 14 18411420592056883878
200 152 17275382105853884471
20279233 1 18131915953479840270
20300324 65 18407761438723776941
20325693 3 18336839618854452071
20645477 56 18338520724878365497
20645477 70 17131556025407620550
21061003 4 17060620018633192299
21119208 17 18259983781737192279
22094290 60 18410857650566776996
22485316 2 16917347043421353870
2297311 6 18340781393667323599
2306618 200 18273220763906905529
23402539 116 18412255130309891341
23402655 69 18187644665625652108
23403322 49 18202286879173940614
23557571 272 18201727210364536877
23559900 14 18340761624371002248
2748010 2 18122329436209075481
4028521 119 18187356610896220085
4214541 1 18410855413347842640
449060 50 8718829794900964218
559249 180 18191299369642126906
573450 72 18188759557800282274
57812782 119 18273214205396742502
93112 12 18409449202141820830
9709674 26 18413394224161705414

>  <PUBCHEM_SHAPE_MULTIPOLES>  (1) 
273.26
8.73
1.86
0.78
8.01
0.93
-0.1
-1.62
-1.7
-1.92
0
0.32
-0.04
0.16

>  <PUBCHEM_SHAPE_SELFOVERLAP>  (1) 
562.146

>  <PUBCHEM_SHAPE_VOLUME>  (1) 
158.3

>  <PUBCHEM_COORDINATE_TYPE>  (1) 
2
5
10

$$$$
