40146
     RDKit          3D

 18 19  0  0  0  0  0  0  0  0999 V2000
   -0.0708   -1.1466   -1.7305 O   0  0  0  0  0  0  0  0  0  0  0  0
   -0.5808    0.9382   -0.8528 N   0  0  0  0  0  0  0  0  0  0  0  0
   -4.7956   -0.6288    1.3569 N   0  0  0  0  0  0  0  0  0  0  0  0
    1.5902   -0.0882   -0.4579 C   0  0  0  0  0  0  0  0  0  0  0  0
    3.4459    1.2085    0.3858 C   0  0  0  0  0  0  0  0  0  0  0  0
    3.5284   -1.2051    0.4548 C   0  0  0  0  0  0  0  0  0  0  0  0
    2.2637   -1.2650   -0.1308 C   0  0  0  0  0  0  0  0  0  0  0  0
    2.1814    1.1485   -0.1997 C   0  0  0  0  0  0  0  0  0  0  0  0
   -1.9274    1.0139   -1.3720 C   0  0  0  0  0  0  0  0  0  0  0  0
    4.1194    0.0317    0.7131 C   0  0  0  0  0  0  0  0  0  0  0  0
    0.2713   -0.1510   -1.0683 C   0  0  0  0  0  0  0  0  0  0  0  0
   -2.9315    0.4382   -0.4158 C   0  0  0  0  0  0  0  0  0  0  0  0
    4.0781    2.5308    0.6621 C   0  0  0  0  0  0  0  0  0  0  0  0
    4.2487   -2.4633    0.8044 C   0  0  0  0  0  0  0  0  0  0  0  0
   -3.5268    1.2559    0.5310 C   0  0  0  0  0  0  0  0  0  0  0  0
   -3.2569   -0.9065   -0.4870 C   0  0  0  0  0  0  0  0  0  0  0  0
   -4.4475    0.6772    1.3895 C   0  0  0  0  0  0  0  0  0  0  0  0
   -4.1895   -1.3886    0.4172 C   0  0  0  0  0  0  0  0  0  0  0  0
  1 11  2  0
  2  9  1  0
  2 11  1  0
  3 17  2  0
  3 18  1  0
  4  7  2  0
  4  8  1  0
  4 11  1  0
  5  8  2  0
  5 10  1  0
  5 13  1  0
  6  7  1  0
  6 10  2  0
  6 14  1  0
  9 12  1  0
 12 15  2  0
 12 16  1  0
 15 17  1  0
 16 18  2  0
M  END
>  <PUBCHEM_COMPOUND_CID>  (1) 
40146

>  <PUBCHEM_CONFORMER_RMSD>  (1) 
0.6

>  <PUBCHEM_CONFORMER_DIVERSEORDER>  (1) 
1
3
14
2
8
15
4
16
7
11
6
13
5
17
10
12
18
9

>  <PUBCHEM_MMFF94_PARTIAL_CHARGES>  (1) 
26
1 -0.57
10 -0.15
11 0.54
12 -0.14
13 0.14
14 0.14
15 -0.15
16 -0.15
17 0.16
18 0.16
19 0.15
2 -0.73
20 0.15
23 0.15
24 0.37
3 -0.62
31 0.15
32 0.15
33 0.15
34 0.15
4 0.09
5 -0.14
6 -0.14
7 -0.15
8 -0.15
9 0.44

>  <PUBCHEM_EFFECTIVE_ROTOR_COUNT>  (1) 
4

>  <PUBCHEM_PHARMACOPHORE_FEATURES>  (1) 
5
1 1 acceptor
1 2 donor
1 3 acceptor
6 3 12 15 16 17 18 rings
6 4 5 6 7 8 10 rings

>  <PUBCHEM_HEAVY_ATOM_COUNT>  (1) 
18

>  <PUBCHEM_ATOM_DEF_STEREO_COUNT>  (1) 
0

>  <PUBCHEM_ATOM_UDEF_STEREO_COUNT>  (1) 
0

>  <PUBCHEM_BOND_DEF_STEREO_COUNT>  (1) 
0

>  <PUBCHEM_BOND_UDEF_STEREO_COUNT>  (1) 
0

>  <PUBCHEM_ISOTOPIC_ATOM_COUNT>  (1) 
0

>  <PUBCHEM_COMPONENT_COUNT>  (1) 
1

>  <PUBCHEM_CACTVS_TAUTO_COUNT>  (1) 
2

>  <PUBCHEM_CONFORMER_ID>  (1) 
00009CD200000001

>  <PUBCHEM_MMFF94_ENERGY>  (1) 
46.0337

>  <PUBCHEM_FEATURE_SELFOVERLAP>  (1) 
25.371

>  <PUBCHEM_SHAPE_FINGERPRINT>  (1) 
10498660 4 13182741395068751843
10670039 82 15697459765939906816
11045977 3 18334575715785860355
11370993 144 18336546006463654057
11405975 8 18189610557988071625
11543360 7 8790875281394280169
11552529 35 18127967710029820935
11796584 16 16518761816859422634
12107183 9 17981047410003079569
12251169 10 18413110576046944509
12363563 72 16153713128413475117
12390115 104 17907298011901441808
12403259 118 17775000146681839641
12507560 40 18333724702307571701
12633257 1 18342461391921919219
12644460 14 18410568488384674672
12670546 177 8718826483480938803
12707595 3 14779554499535182757
12892183 10 18409732893390403465
12916748 109 12391508694252290111
13103583 49 18193842539619954514
13583140 156 18262784203588254388
13675066 3 18040996224334346653
1420 369 17312829285958048291
14251764 30 18194972829675249430
14252887 29 17894909646380532768
14289901 80 18410851087920201841
14341114 176 18411143506505244192
14341114 328 17918001593992730843
14576447 43 12180137479195587856
14849402 71 18269269235788417928
15238133 3 16988568948471323633
15342816 4 14634870851194713892
15842332 3 17701514390292511662
15880784 105 18409169922109975643
16126227 98 17760091014313872124
1798214 20 12612750237348848281
1813 80 16515407373779829327
18785283 64 18260260894003258120
18915474 69 11674876697338586912
19050596 39 18343021077562889369
193927 3 16443358558876496155
19862831 5 9079121063440747709
20645477 56 12247384748458510621
20671657 53 14201400516747453381
20739085 24 18410862049125316148
21065198 48 18342739632803820209
21065198 57 18263076639263780629
21065199 12 18334855008887756921
21065201 7 16806154463285903708
21503847 285 17989214733025348788
21673915 165 18261109741847852563
21756936 100 17488456563259461780
21864079 5 16773506776096776168
22646028 28 16732989725732164467
22849341 161 17845655838109709522
231179 274 14405183937114461615
23402655 69 9223232961708908498
23503953 91 18060134310747697995
23557571 272 16951388975716046164
23559900 14 17676764271533873326
251288 83 17312820519845511284
2838139 119 13540798374972706291
316301 35 17603581898887369018
38570 142 18125455343752294780
49207404 50 18409449219374567546
5104073 3 18409728447919859249
53917941 68 11027529336056960322
5924683 9 18342453777499025063
59682541 52 10809613887889096937
633830 44 17561086899311827964
960060 61 11241970386460009706
9882013 296 18340205292761405629

>  <PUBCHEM_SHAPE_MULTIPOLES>  (1) 
354.6
10.98
2.13
1.3
3.95
0.03
-0.13
0.93
5.35
-2.56
0.44
0.92
0.02
0.02

>  <PUBCHEM_SHAPE_SELFOVERLAP>  (1) 
753.607

>  <PUBCHEM_SHAPE_VOLUME>  (1) 
198

>  <PUBCHEM_COORDINATE_TYPE>  (1) 
2
5
10

$$$$
