40152
     RDKit          3D

 10  9  0  0  1  0  0  0  0  0999 V2000
    0.4831    2.5813   -0.7845 O   0  0  0  0  0  0  0  0  0  0  0  0
    0.0435    0.2241   -0.4320 C   0  0  0  0  0  0  0  0  0  0  0  0
   -0.9199   -0.8463    0.1330 C   0  0  0  0  0  0  0  0  0  0  0  0
    1.4884   -0.0017    0.0886 C   0  0  0  0  0  0  0  0  0  0  0  0
   -0.4343    1.6754   -0.1665 C   0  0  0  0  0  0  0  0  0  0  0  0
   -2.3638   -0.7951   -0.3787 C   0  0  0  0  0  0  0  0  0  0  0  0
    2.0501   -1.3892   -0.2406 C   0  0  0  0  0  0  0  0  0  0  0  0
   -0.5645    2.0457    1.3070 C   0  0  0  0  0  0  0  0  0  0  0  0
   -3.2335   -1.9264    0.1471 C   0  0  0  0  0  0  0  0  0  0  0  0
    3.4509   -1.5680    0.3267 C   0  0  0  0  0  0  0  0  0  0  0  0
  1  5  1  0
  2  3  1  0
  2  4  1  0
  2  5  1  0
  3  6  1  0
  4  7  1  0
  5  8  1  0
  6  9  1  0
  7 10  1  0
M  END
>  <PUBCHEM_COMPOUND_CID>  (1) 
40152

>  <PUBCHEM_CONFORMER_RMSD>  (1) 
0.6

>  <PUBCHEM_CONFORMER_DIVERSEORDER>  (1) 
1
31
11
21
27
20
5
10
26
7
12
28
18
3
22
2
30
6
16
25
9
13
17
29
19
24
14
15
23
8
4

>  <PUBCHEM_MMFF94_PARTIAL_CHARGES>  (1) 
3
1 -0.68
30 0.4
5 0.28

>  <PUBCHEM_EFFECTIVE_ROTOR_COUNT>  (1) 
5

>  <PUBCHEM_PHARMACOPHORE_FEATURES>  (1) 
5
1 1 acceptor
1 1 donor
1 10 hydrophobe
1 9 hydrophobe
5 2 3 4 6 7 hydrophobe

>  <PUBCHEM_HEAVY_ATOM_COUNT>  (1) 
10

>  <PUBCHEM_ATOM_DEF_STEREO_COUNT>  (1) 
0

>  <PUBCHEM_ATOM_UDEF_STEREO_COUNT>  (1) 
1

>  <PUBCHEM_BOND_DEF_STEREO_COUNT>  (1) 
0

>  <PUBCHEM_BOND_UDEF_STEREO_COUNT>  (1) 
0

>  <PUBCHEM_ISOTOPIC_ATOM_COUNT>  (1) 
0

>  <PUBCHEM_COMPONENT_COUNT>  (1) 
1

>  <PUBCHEM_CACTVS_TAUTO_COUNT>  (1) 
1

>  <PUBCHEM_CONFORMER_ID>  (1) 
00009CD800000001

>  <PUBCHEM_MMFF94_ENERGY>  (1) 
9.5046

>  <PUBCHEM_FEATURE_SELFOVERLAP>  (1) 
25.373

>  <PUBCHEM_SHAPE_FINGERPRINT>  (1) 
1 1 17689153830364204269
18410436 195 18343297106573790227
19021347 4 17476643074763628472
20645477 70 17974839877192590631
20653091 64 18266184022596032731
20711985 344 18120637068264193939
20871998 184 18129658582750759054
20871998 22 18410571812003838738
23500284 5 18336547105696207483
23552423 10 18050569844013487487
58734987 33 18343018938753676275
81228 2 18196097646479433395

>  <PUBCHEM_SHAPE_MULTIPOLES>  (1) 
199.93
4.3
2.79
0.88
1.01
1.52
0.14
-4.68
0.38
-0.58
0.14
-0.07
0.43
-0.26

>  <PUBCHEM_SHAPE_SELFOVERLAP>  (1) 
355.409

>  <PUBCHEM_SHAPE_VOLUME>  (1) 
131

>  <PUBCHEM_COORDINATE_TYPE>  (1) 
2
5
10

$$$$
