4015
     RDKit          3D

 22 23  0  0  0  0  0  0  0  0999 V2000
    1.7773   -3.4461   -0.0619 O   0  0  0  0  0  0  0  0  0  0  0  0
   -5.9460    0.7887    0.0813 O   0  0  0  0  0  0  0  0  0  0  0  0
   -5.9518    3.4953    0.0234 O   0  0  0  0  0  0  0  0  0  0  0  0
    4.6036    2.2335    0.0150 N   0  0  0  0  0  0  0  0  0  0  0  0
   -2.3288   -2.7225   -0.0175 N   0  0  0  0  0  0  0  0  0  0  0  0
   -4.7541    2.7673    0.0076 N   0  0  0  0  0  0  0  0  0  0  0  0
    2.1158   -1.1503   -0.0299 C   0  0  0  0  0  0  0  0  0  0  0  0
   -0.2171   -2.1820   -0.0278 C   0  0  0  0  0  0  0  0  0  0  0  0
    3.7682    1.0973   -0.0002 C   0  0  0  0  0  0  0  0  0  0  0  0
    1.2539   -2.3215   -0.0455 C   0  0  0  0  0  0  0  0  0  0  0  0
   -0.9362   -0.9927    0.0039 C   0  0  0  0  0  0  0  0  0  0  0  0
   -2.2656   -1.3538    0.0100 C   0  0  0  0  0  0  0  0  0  0  0  0
    2.5412   -0.6135    1.1851 C   0  0  0  0  0  0  0  0  0  0  0  0
    2.5165   -0.5633   -1.2302 C   0  0  0  0  0  0  0  0  0  0  0  0
    3.3673    0.5103    1.2000 C   0  0  0  0  0  0  0  0  0  0  0  0
    3.3427    0.5605   -1.2154 C   0  0  0  0  0  0  0  0  0  0  0  0
   -1.0601   -3.2404   -0.0411 C   0  0  0  0  0  0  0  0  0  0  0  0
    5.5527    2.4324    1.0921 C   0  0  0  0  0  0  0  0  0  0  0  0
    4.5336    3.2102   -1.0538 C   0  0  0  0  0  0  0  0  0  0  0  0
   -3.4698   -0.6337    0.0376 C   0  0  0  0  0  0  0  0  0  0  0  0
   -3.5586    0.7220    0.0271 C   0  0  0  0  0  0  0  0  0  0  0  0
   -4.8846    1.4023    0.0403 C   0  0  0  0  0  0  0  0  0  0  0  0
  1 10  2  0
  2 22  2  0
  3  6  1  0
  4  9  1  0
  4 18  1  0
  4 19  1  0
  5 12  1  0
  5 17  1  0
  6 22  1  0
  7 10  1  0
  7 13  2  0
  7 14  1  0
  8 10  1  0
  8 11  1  0
  8 17  2  0
  9 15  2  0
  9 16  1  0
 11 12  2  0
 12 20  1  0
 13 15  1  0
 14 16  2  0
 20 21  2  0
 21 22  1  0
M  END
>  <PUBCHEM_COMPOUND_CID>  (1) 
4015

>  <PUBCHEM_CONFORMER_RMSD>  (1) 
0.8

>  <PUBCHEM_CONFORMER_DIVERSEORDER>  (1) 
1
25
7
17
15
5
16
14
20
12
4
8
3
18
21
2
9
22
23
10
19
13
6
11
24

>  <PUBCHEM_MMFF94_PARTIAL_CHARGES>  (1) 
33
1 -0.57
10 0.57
11 -0.15
12 -0.2
13 -0.15
14 -0.15
15 -0.15
16 -0.15
17 -0.3
18 0.37
19 0.37
2 -0.57
20 -0.11
21 -0.14
22 0.62
23 0.15
24 0.15
25 0.15
26 0.15
27 0.15
28 0.15
29 0.27
3 -0.44
36 0.15
37 0.15
38 0.37
39 0.4
4 -0.84
5 0.03
6 -0.39
7 0.09
8 -0.09
9 0.1

>  <PUBCHEM_EFFECTIVE_ROTOR_COUNT>  (1) 
6

>  <PUBCHEM_PHARMACOPHORE_FEATURES>  (1) 
8
1 1 acceptor
1 2 acceptor
1 4 cation
1 5 cation
1 5 donor
1 6 donor
5 5 8 11 12 17 rings
6 7 9 13 14 15 16 rings

>  <PUBCHEM_HEAVY_ATOM_COUNT>  (1) 
22

>  <PUBCHEM_ATOM_DEF_STEREO_COUNT>  (1) 
0

>  <PUBCHEM_ATOM_UDEF_STEREO_COUNT>  (1) 
0

>  <PUBCHEM_BOND_DEF_STEREO_COUNT>  (1) 
0

>  <PUBCHEM_BOND_UDEF_STEREO_COUNT>  (1) 
1

>  <PUBCHEM_ISOTOPIC_ATOM_COUNT>  (1) 
0

>  <PUBCHEM_COMPONENT_COUNT>  (1) 
1

>  <PUBCHEM_CACTVS_TAUTO_COUNT>  (1) 
9

>  <PUBCHEM_CONFORMER_ID>  (1) 
00000FAF00000001

>  <PUBCHEM_MMFF94_ENERGY>  (1) 
68.3364

>  <PUBCHEM_FEATURE_SELFOVERLAP>  (1) 
40.596

>  <PUBCHEM_SHAPE_FINGERPRINT>  (1) 
10498660 4 18272096032014772344
10615611 76 17315646359307847604
10928967 22 9727353584230936141
10937287 8 18410856555693417151
10968037 57 8502379944726282543
11720765 8 17772201804064383262
12107183 9 18335124385796248242
12293681 25 11670906412548525751
12390115 104 18269290099842112459
13878862 14 17900244326828153229
13965767 371 18040709251862787806
14223995 32 18270669965983102416
14251764 38 17904764728072770340
14251764 75 18340217336019165033
14429114 114 18269271275481268673
14468879 13 18334304162563594171
14739800 52 17690826179899679472
14848178 96 18341331072683620057
15163728 17 18337402650776196974
15342168 16 18409727344524733343
16988056 13 17691122639098816215
1768 210 18268973402303247213
17810953 82 18264770961176110677
17834072 32 18409449214821020353
20238998 120 17909269084105002046
20715895 44 18411696543732428576
20775438 99 9653847834516150421
20843269 155 10087656866216427828
21304253 13 18194393387094864698
21307412 95 8790345300010698419
21864079 5 18409450322959785438
22956985 138 8707945854037142119
23559900 14 18202287974891981894
245318 6 17969239948117704125
270888 7 18411134766167935256
2838139 119 18201148970775726692
312425 83 17704076157595249703
3246875 12 18410295852630169747
3472631 163 18338517542254559661
350125 39 18192432961465884622
474 4 18336265622714851531
5104073 3 18114179739643626179
6034566 193 18339099167148316425
633830 44 18341608158219832175
7064713 232 18262516017515138332
7288768 16 18113899385848421851
76465 3 9295296040293537851
7808743 9 18338796843993532168
960060 61 12247380307731475187
9849439 229 18410288108239613105
9981440 41 18336826519347267698

>  <PUBCHEM_SHAPE_MULTIPOLES>  (1) 
420.2
12.97
4.45
0.99
8.23
0.61
0.01
17.73
-0.83
2.02
0.25
-1.41
0.24
-0.14

>  <PUBCHEM_SHAPE_SELFOVERLAP>  (1) 
896.248

>  <PUBCHEM_SHAPE_VOLUME>  (1) 
234.3

>  <PUBCHEM_COORDINATE_TYPE>  (1) 
2
5
10

$$$$
