40155
     RDKit          3D

 28 31  0  0  0  0  0  0  0  0999 V2000
    5.8420    0.0739    0.1825 O   0  0  0  0  0  0  0  0  0  0  0  0
    4.8781   -2.5266    0.0268 O   0  0  0  0  0  0  0  0  0  0  0  0
   -4.6537   -2.4635   -0.0268 O   0  0  0  0  0  0  0  0  0  0  0  0
   -6.2029   -0.1608    0.0935 O   0  0  0  0  0  0  0  0  0  0  0  0
   -0.0373    1.5326    0.2283 N   0  0  0  0  0  0  0  0  0  0  0  0
    1.3072    1.7260    0.2471 C   0  0  0  0  0  0  0  0  0  0  0  0
   -0.5697    0.2585    0.1526 C   0  0  0  0  0  0  0  0  0  0  0  0
    2.2216    0.6773    0.1934 C   0  0  0  0  0  0  0  0  0  0  0  0
    1.7352   -0.6309    0.1157 C   0  0  0  0  0  0  0  0  0  0  0  0
   -2.0055    0.1095    0.1353 C   0  0  0  0  0  0  0  0  0  0  0  0
    0.3510   -0.8263    0.0961 C   0  0  0  0  0  0  0  0  0  0  0  0
    1.8457    3.1320    0.3318 C   0  0  0  0  0  0  0  0  0  0  0  0
   -2.8201    1.2608    0.1961 C   0  0  0  0  0  0  0  0  0  0  0  0
   -0.8478    2.6150    0.2855 C   0  0  0  0  0  0  0  0  0  0  0  0
   -2.2249    2.5114    0.2713 C   0  0  0  0  0  0  0  0  0  0  0  0
    3.6086    0.9016    0.2154 C   0  0  0  0  0  0  0  0  0  0  0  0
    2.6438   -1.7029    0.0603 C   0  0  0  0  0  0  0  0  0  0  0  0
   -2.6751   -1.1376    0.0596 C   0  0  0  0  0  0  0  0  0  0  0  0
   -4.2221    1.1549    0.1811 C   0  0  0  0  0  0  0  0  0  0  0  0
    4.5017   -0.1684    0.1601 C   0  0  0  0  0  0  0  0  0  0  0  0
    4.0192   -1.4710    0.0825 C   0  0  0  0  0  0  0  0  0  0  0  0
    2.0572    3.7390   -1.0459 C   0  0  0  0  0  0  0  0  0  0  0  0
   -4.0695   -1.2349    0.0452 C   0  0  0  0  0  0  0  0  0  0  0  0
   -4.8440   -0.0870    0.1060 C   0  0  0  0  0  0  0  0  0  0  0  0
    6.4877    0.2619   -1.0753 C   0  0  0  0  0  0  0  0  0  0  0  0
    4.3010   -3.8286   -0.0515 C   0  0  0  0  0  0  0  0  0  0  0  0
   -3.7839   -3.5923   -0.0860 C   0  0  0  0  0  0  0  0  0  0  0  0
   -6.8436   -0.1237   -1.1808 C   0  0  0  0  0  0  0  0  0  0  0  0
  1 20  1  0
  1 25  1  0
  2 21  1  0
  2 26  1  0
  3 23  1  0
  3 27  1  0
  4 24  1  0
  4 28  1  0
  5  6  2  0
  5  7  1  0
  5 14  1  0
  6  8  1  0
  6 12  1  0
  7 10  1  0
  7 11  2  0
  8  9  2  0
  8 16  1  0
  9 11  1  0
  9 17  1  0
 10 13  2  0
 10 18  1  0
 12 22  1  0
 13 15  1  0
 13 19  1  0
 14 15  2  0
 16 20  2  0
 17 21  2  0
 18 23  2  0
 19 24  2  0
 20 21  1  0
 23 24  1  0
M  CHG  1   5   1
M  END
>  <PUBCHEM_COMPOUND_CID>  (1) 
40155

>  <PUBCHEM_CONFORMER_RMSD>  (1) 
0.8

>  <PUBCHEM_CONFORMER_DIVERSEORDER>  (1) 
4
1
2
3

>  <PUBCHEM_MMFF94_PARTIAL_CHARGES>  (1) 
30
1 -0.36
11 -0.15
12 0.14
14 0.21
15 -0.15
16 -0.15
17 -0.15
18 -0.15
19 -0.15
2 -0.36
20 0.08
21 0.08
23 0.08
24 0.08
25 0.28
26 0.28
27 0.28
28 0.28
29 0.15
3 -0.36
32 0.15
33 0.15
34 0.15
35 0.15
36 0.15
37 0.15
4 -0.36
5 -0.08
6 0.22
7 0.36

>  <PUBCHEM_EFFECTIVE_ROTOR_COUNT>  (1) 
5

>  <PUBCHEM_PHARMACOPHORE_FEATURES>  (1) 
9
1 1 acceptor
1 2 acceptor
1 22 hydrophobe
1 3 acceptor
1 4 acceptor
6 10 13 18 19 23 24 rings
6 5 6 7 8 9 11 rings
6 5 7 10 13 14 15 rings
6 8 9 16 17 20 21 rings

>  <PUBCHEM_HEAVY_ATOM_COUNT>  (1) 
28

>  <PUBCHEM_ATOM_DEF_STEREO_COUNT>  (1) 
0

>  <PUBCHEM_ATOM_UDEF_STEREO_COUNT>  (1) 
0

>  <PUBCHEM_BOND_DEF_STEREO_COUNT>  (1) 
0

>  <PUBCHEM_BOND_UDEF_STEREO_COUNT>  (1) 
0

>  <PUBCHEM_ISOTOPIC_ATOM_COUNT>  (1) 
0

>  <PUBCHEM_COMPONENT_COUNT>  (1) 
1

>  <PUBCHEM_CACTVS_TAUTO_COUNT>  (1) 
2

>  <PUBCHEM_CONFORMER_ID>  (1) 
00009CDB00000004

>  <PUBCHEM_MMFF94_ENERGY>  (1) 
144.7015

>  <PUBCHEM_FEATURE_SELFOVERLAP>  (1) 
45.759

>  <PUBCHEM_SHAPE_FINGERPRINT>  (1) 
10411042 1 18266740182412153594
10622 236 17557962203926742535
10673678 19 17533236360718438860
11135609 187 18117565252464007796
11963148 33 18409724101767487194
12107183 9 17691409607628641042
13140716 1 17981035629319398768
138480 1 14375349367821613616
14341114 176 18412267216078953603
14415361 349 17846778533248731782
14790565 3 17403181391540764368
14955137 171 17846504750953871428
15042514 8 18051692149000976770
15196674 1 18339361834283512672
15320467 1 17907016171045967619
15352361 1 18411699867947041979
15361156 5 18041849518582908837
15927050 60 17693938901438442932
16087824 20 18338517423178019777
17492 89 18338516468908965427
17857418 61 18413105061229964283
1813 80 17676491618362219780
18681886 176 18341890848561244712
21267235 1 18411425037933617201
21279426 13 18192426377423262917
221490 88 18264492952095258539
23522609 53 18126316110363237544
23559900 14 18411693327123391441
24771750 20 17826530038712270796
24893989 43 16115443840283653775
25147074 1 18271541848454404569
3004659 81 18261386793377279361
335352 9 18411417324430875069
350125 39 18410294730768401685
4015057 19 18268699667236963217
4073 2 18261677085452461147
4409770 3 17467627101107603452
46194498 28 17603867823006963204
5104073 3 18128813045808856026
59755656 215 18411418410197868246
67856867 119 18337672047846344365
9709674 26 18335423529693394843

>  <PUBCHEM_SHAPE_MULTIPOLES>  (1) 
547.77
14.24
4.04
0.76
3.88
0.67
-0.15
7.4
-2.9
-1.82
-0.25
-0.01
-0.2
-0.47

>  <PUBCHEM_SHAPE_SELFOVERLAP>  (1) 
1212.753

>  <PUBCHEM_SHAPE_VOLUME>  (1) 
297.1

>  <PUBCHEM_COORDINATE_TYPE>  (1) 
2
5
10

$$$$
