40162
     RDKit          3D

 14 13  0  0  0  0  0  0  0  0999 V2000
    1.7345   -0.0794   -0.1775 S   0  0  0  0  0  0  0  0  0  0  0  0
    0.2469   -1.8774    0.8727 O   0  0  0  0  0  0  0  0  0  0  0  0
    1.6785   -0.0180   -1.6238 O   0  0  0  0  0  0  0  0  0  0  0  0
    1.9376    1.0905    0.6524 O   0  0  0  0  0  0  0  0  0  0  0  0
   -0.9290   -0.0070    0.0818 N   0  0  0  0  0  0  0  0  0  0  0  0
   -2.2232   -0.5329    0.4974 C   0  0  0  0  0  0  0  0  0  0  0  0
   -0.9728    1.3330   -0.5028 C   0  0  0  0  0  0  0  0  0  0  0  0
    0.2046   -0.7800    0.3317 C   0  0  0  0  0  0  0  0  0  0  0  0
   -2.8877   -1.3666   -0.5916 C   0  0  0  0  0  0  0  0  0  0  0  0
   -0.8888    2.4297    0.5521 C   0  0  0  0  0  0  0  0  0  0  0  0
    2.9593   -1.2799    0.2697 C   0  0  0  0  0  0  0  0  0  0  0  0
   -4.2499   -1.9019   -0.1737 C   0  0  0  0  0  0  0  0  0  0  0  0
   -0.9557    3.8277   -0.0460 C   0  0  0  0  0  0  0  0  0  0  0  0
    4.3456   -0.8377   -0.1425 C   0  0  0  0  0  0  0  0  0  0  0  0
  1  3  2  0
  1  4  2  0
  1  8  1  0
  1 11  1  0
  2  8  2  0
  5  6  1  0
  5  7  1  0
  5  8  1  0
  6  9  1  0
  7 10  1  0
  9 12  1  0
 10 13  1  0
 11 14  1  0
M  END
>  <PUBCHEM_COMPOUND_CID>  (1) 
40162

>  <PUBCHEM_CONFORMER_RMSD>  (1) 
0.8

>  <PUBCHEM_CONFORMER_DIVERSEORDER>  (1) 
1
33
58
36
61
52
9
60
13
57
66
27
68
50
67
35
53
47
25
29
44
3
16
32
26
10
37
23
38
55
21
39
54
63
56
46
7
34
41
65
31
2
51
17
24
43
19
15
18
30
69
22
48
42
12
59
28
6
64
4
8
49
14
62
11
20
40
45
5

>  <PUBCHEM_MMFF94_PARTIAL_CHARGES>  (1) 
9
1 1.17
11 0.11
2 -0.57
3 -0.65
4 -0.65
5 -0.66
6 0.3
7 0.3
8 0.65

>  <PUBCHEM_EFFECTIVE_ROTOR_COUNT>  (1) 
7

>  <PUBCHEM_PHARMACOPHORE_FEATURES>  (1) 
4
1 12 hydrophobe
1 13 hydrophobe
1 3 acceptor
1 4 acceptor

>  <PUBCHEM_HEAVY_ATOM_COUNT>  (1) 
14

>  <PUBCHEM_ATOM_DEF_STEREO_COUNT>  (1) 
0

>  <PUBCHEM_ATOM_UDEF_STEREO_COUNT>  (1) 
0

>  <PUBCHEM_BOND_DEF_STEREO_COUNT>  (1) 
0

>  <PUBCHEM_BOND_UDEF_STEREO_COUNT>  (1) 
0

>  <PUBCHEM_ISOTOPIC_ATOM_COUNT>  (1) 
0

>  <PUBCHEM_COMPONENT_COUNT>  (1) 
1

>  <PUBCHEM_CACTVS_TAUTO_COUNT>  (1) 
1

>  <PUBCHEM_CONFORMER_ID>  (1) 
00009CE200000001

>  <PUBCHEM_MMFF94_ENERGY>  (1) 
9.9788

>  <PUBCHEM_FEATURE_SELFOVERLAP>  (1) 
20.313

>  <PUBCHEM_SHAPE_FINGERPRINT>  (1) 
1 1 16825307706929032053
108231 29 18262517125516213875
12032990 46 18337672018024198955
15775835 57 17689998934042139232
16945 1 18194957448557832120
20511035 2 17179146019039902273
20671657 53 18269273624859170351
20711985 327 18341897454278928999
20711985 344 18336257934369730233
21061003 4 18261960760116954875
21296965 67 18412259575474441783
21339142 36 18409719660701614309
21426921 1 18339924788647672892
21501502 16 18411709768284846808
21524375 3 17613161762873678193
23402539 116 18413103961512809758
23419403 2 17104755596203862188
23526113 38 17971188368604910459
23557571 272 18273218564582852214
23559900 14 17767682764378106190
2748010 2 18268128989835685569
3286 77 17346314942361907418
5084963 1 17748829587949522222
68521 5 18410572851686448893
7364860 26 17908985757622067217
81228 2 18268725938940002873

>  <PUBCHEM_SHAPE_MULTIPOLES>  (1) 
269.37
5.99
3.23
0.91
1.45
4.09
-0.19
-5.07
-0.56
-2.54
0.23
0.17
-0.04
-0.22

>  <PUBCHEM_SHAPE_SELFOVERLAP>  (1) 
492.089

>  <PUBCHEM_SHAPE_VOLUME>  (1) 
172

>  <PUBCHEM_COORDINATE_TYPE>  (1) 
2
5
10

$$$$
