40171
     RDKit          3D

 24 26  0  0  0  0  0  0  0  0999 V2000
    4.3326   -1.4909   -1.4848 O   0  0  0  0  0  0  0  0  0  0  0  0
    1.8509    0.3595    2.3411 O   0  0  0  0  0  0  0  0  0  0  0  0
   -1.8299    2.5863   -0.3231 O   0  0  0  0  0  0  0  0  0  0  0  0
    0.4979   -1.7622    0.9715 O   0  0  0  0  0  0  0  0  0  0  0  0
    2.6698    0.0578    0.1880 N   0  0  0  0  0  0  0  0  0  0  0  0
   -0.5533    0.2187    0.3508 N   0  0  0  0  0  0  0  0  0  0  0  0
    2.5686    0.1593   -1.2740 C   0  0  0  0  0  0  0  0  0  0  0  0
    3.9801   -0.4023    0.6519 C   0  0  0  0  0  0  0  0  0  0  0  0
    3.0147   -1.1460   -1.9206 C   0  0  0  0  0  0  0  0  0  0  0  0
    4.3731   -1.6850   -0.0684 C   0  0  0  0  0  0  0  0  0  0  0  0
    1.7211    0.4654    1.1201 C   0  0  0  0  0  0  0  0  0  0  0  0
    0.4716    1.0697    0.6178 C   0  0  0  0  0  0  0  0  0  0  0  0
    0.4619    2.3965    0.4531 C   0  0  0  0  0  0  0  0  0  0  0  0
   -0.6795    3.1862   -0.0314 C   0  0  0  0  0  0  0  0  0  0  0  0
   -0.4821   -1.1572    0.5437 C   0  0  0  0  0  0  0  0  0  0  0  0
   -1.7133   -1.9224    0.2166 C   0  0  0  0  0  0  0  0  0  0  0  0
   -0.6818    4.5155   -0.2172 C   0  0  0  0  0  0  0  0  0  0  0  0
   -1.5947   -3.2427   -0.1641 C   0  0  0  0  0  0  0  0  0  0  0  0
   -2.9346   -1.2877    0.3047 C   0  0  0  0  0  0  0  0  0  0  0  0
   -1.9877    4.7994   -0.6829 C   0  0  0  0  0  0  0  0  0  0  0  0
   -2.6470    3.5931   -0.7299 C   0  0  0  0  0  0  0  0  0  0  0  0
   -2.7503   -3.9612   -0.4709 C   0  0  0  0  0  0  0  0  0  0  0  0
   -4.0902   -2.0064   -0.0020 C   0  0  0  0  0  0  0  0  0  0  0  0
   -3.9979   -3.3431   -0.3899 C   0  0  0  0  0  0  0  0  0  0  0  0
  1  9  1  0
  1 10  1  0
  2 11  2  0
  3 14  1  0
  3 21  1  0
  4 15  2  0
  5  7  1  0
  5  8  1  0
  5 11  1  0
  6 12  1  0
  6 15  1  0
  7  9  1  0
  8 10  1  0
 11 12  1  0
 12 13  2  0
 13 14  1  0
 14 17  2  0
 15 16  1  0
 16 18  2  0
 16 19  1  0
 17 20  1  0
 18 22  1  0
 19 23  2  0
 20 21  2  0
 22 24  2  0
 23 24  1  0
M  END
>  <PUBCHEM_COMPOUND_CID>  (1) 
40171

>  <PUBCHEM_CONFORMER_RMSD>  (1) 
0.8

>  <PUBCHEM_CONFORMER_DIVERSEORDER>  (1) 
1
11
16
21
13
17
20
14
7
19
9
8
12
22
18
15
10
3
5
4
2
6

>  <PUBCHEM_MMFF94_PARTIAL_CHARGES>  (1) 
34
1 -0.56
10 0.28
11 0.62
12 0.12
13 -0.11
14 0.09
15 0.54
16 0.09
17 -0.15
18 -0.15
19 -0.15
2 -0.57
20 -0.15
21 -0.01
22 -0.15
23 -0.15
24 -0.15
3 -0.28
33 0.15
34 0.37
35 0.15
36 0.15
37 0.15
38 0.15
39 0.15
4 -0.57
40 0.15
41 0.15
42 0.15
5 -0.66
6 -0.54
7 0.3
8 0.3
9 0.28

>  <PUBCHEM_EFFECTIVE_ROTOR_COUNT>  (1) 
7.2

>  <PUBCHEM_PHARMACOPHORE_FEATURES>  (1) 
8
1 1 acceptor
1 2 acceptor
1 3 acceptor
1 4 acceptor
1 6 donor
5 3 14 17 20 21 rings
6 1 5 7 8 9 10 rings
6 16 18 19 22 23 24 rings

>  <PUBCHEM_HEAVY_ATOM_COUNT>  (1) 
24

>  <PUBCHEM_ATOM_DEF_STEREO_COUNT>  (1) 
0

>  <PUBCHEM_ATOM_UDEF_STEREO_COUNT>  (1) 
0

>  <PUBCHEM_BOND_DEF_STEREO_COUNT>  (1) 
0

>  <PUBCHEM_BOND_UDEF_STEREO_COUNT>  (1) 
1

>  <PUBCHEM_ISOTOPIC_ATOM_COUNT>  (1) 
0

>  <PUBCHEM_COMPONENT_COUNT>  (1) 
1

>  <PUBCHEM_CACTVS_TAUTO_COUNT>  (1) 
2

>  <PUBCHEM_CONFORMER_ID>  (1) 
00009CEB00000001

>  <PUBCHEM_MMFF94_ENERGY>  (1) 
67.7205

>  <PUBCHEM_FEATURE_SELFOVERLAP>  (1) 
40.6

>  <PUBCHEM_SHAPE_FINGERPRINT>  (1) 
10930396 42 17476908522073728928
11578080 2 16594445887538624821
11582403 64 16404430259516806504
116883 192 18411981398705547356
121448 382 17911230620636788752
12160290 23 18122374326948719392
12293681 25 17487062150624079798
12788726 201 18261689128883260470
13052359 8 18193553363724690120
13681431 1 17907592663024751432
138480 1 15889115272884311121
13899415 180 18268414909987646246
14004458 79 18409739451821256316
14251757 5 18336553733136154733
14863182 85 17186141077629707768
14955137 171 18190198934912770179
15081414 286 18121218950818629889
15420108 30 16828944388661301049
15664445 248 17979086207930329588
16752209 62 18263079929182069914
17539 30 18411416185457368022
17980427 23 17116884455003509203
1813 80 18268158728052164611
19591789 44 17979638931624147515
20602899 9 17838625457107709360
21285901 2 18201732738098249431
21344244 181 17697886869351153359
21857420 4 18265597939970192829
21860390 5 17761764474587636383
2255824 54 17474953602112007466
23419403 2 17561069307394659512
23559900 14 17694219276502780995
26353 1 18123214512472011916
298252 57 17682416749539148688
314173 41 18122631809985698946
38695281 34 17399797099250002384
4409770 3 18265615386000396773
458136 41 17331685648144641897
474 4 16676389367090111113
58779409 8 18121782733652841148
59025328 239 17555696101217469879
7164475 11 18408047299458156958
7364860 26 17473261454022899841
81228 2 18339654415781751296

>  <PUBCHEM_SHAPE_MULTIPOLES>  (1) 
460.47
7.09
6.57
1.3
4.01
11.11
-0.01
-10.02
1.2
0.98
2.23
-1.27
-0.5
0.78

>  <PUBCHEM_SHAPE_SELFOVERLAP>  (1) 
994.893

>  <PUBCHEM_SHAPE_VOLUME>  (1) 
250.2

>  <PUBCHEM_COORDINATE_TYPE>  (1) 
2
5
10

$$$$
