40176
     RDKit          3D

 20 23  0  0  0  0  0  0  0  0999 V2000
    1.3598    0.8662    1.2521 N   0  0  0  0  0  0  0  0  0  0  0  0
   -1.3598    0.8659   -1.2523 N   0  0  0  0  0  0  0  0  0  0  0  0
    0.6711   -0.8118   -0.2779 C   0  0  0  0  0  0  0  0  0  0  0  0
   -0.6711   -0.8116    0.2781 C   0  0  0  0  0  0  0  0  0  0  0  0
    1.6504    0.0356    0.2330 C   0  0  0  0  0  0  0  0  0  0  0  0
   -1.6504    0.0355   -0.2330 C   0  0  0  0  0  0  0  0  0  0  0  0
    2.9351   -0.0089   -0.3478 C   0  0  0  0  0  0  0  0  0  0  0  0
   -2.9350   -0.0089    0.3478 C   0  0  0  0  0  0  0  0  0  0  0  0
    0.9376   -1.6861   -1.3345 C   0  0  0  0  0  0  0  0  0  0  0  0
   -0.9376   -1.6858    1.3348 C   0  0  0  0  0  0  0  0  0  0  0  0
    3.2035   -0.8881   -1.4105 C   0  0  0  0  0  0  0  0  0  0  0  0
   -3.2035   -0.8878    1.4107 C   0  0  0  0  0  0  0  0  0  0  0  0
    2.2052   -1.7245   -1.9018 C   0  0  0  0  0  0  0  0  0  0  0  0
   -2.2052   -1.7241    1.9022 C   0  0  0  0  0  0  0  0  0  0  0  0
    3.9213    0.8437    0.1663 C   0  0  0  0  0  0  0  0  0  0  0  0
   -3.9213    0.8437   -0.1664 C   0  0  0  0  0  0  0  0  0  0  0  0
    3.6247    1.7007    1.2164 C   0  0  0  0  0  0  0  0  0  0  0  0
   -3.6247    1.7005   -1.2167 C   0  0  0  0  0  0  0  0  0  0  0  0
    2.3397    1.6731    1.7191 C   0  0  0  0  0  0  0  0  0  0  0  0
   -2.3398    1.6728   -1.7194 C   0  0  0  0  0  0  0  0  0  0  0  0
  1  5  2  0
  1 19  1  0
  2  6  2  0
  2 20  1  0
  3  4  1  0
  3  5  1  0
  3  9  2  0
  4  6  1  0
  4 10  2  0
  5  7  1  0
  6  8  1  0
  7 11  1  0
  7 15  2  0
  8 12  1  0
  8 16  2  0
  9 13  1  0
 10 14  1  0
 11 13  2  0
 12 14  2  0
 15 17  1  0
 16 18  1  0
 17 19  2  0
 18 20  2  0
M  END
>  <PUBCHEM_COMPOUND_CID>  (1) 
40176

>  <PUBCHEM_CONFORMER_RMSD>  (1) 
0.6

>  <PUBCHEM_CONFORMER_DIVERSEORDER>  (1) 
1
4
3
2

>  <PUBCHEM_MMFF94_PARTIAL_CHARGES>  (1) 
28
1 -0.62
10 -0.15
11 -0.15
12 -0.15
13 -0.15
14 -0.15
15 -0.15
16 -0.15
17 -0.15
18 -0.15
19 0.16
2 -0.62
20 0.16
21 0.15
22 0.15
23 0.15
24 0.15
25 0.15
26 0.15
27 0.15
28 0.15
29 0.15
30 0.15
31 0.15
32 0.15
5 0.31
6 0.31
9 -0.15

>  <PUBCHEM_EFFECTIVE_ROTOR_COUNT>  (1) 
1

>  <PUBCHEM_PHARMACOPHORE_FEATURES>  (1) 
6
1 1 acceptor
1 2 acceptor
6 1 5 7 15 17 19 rings
6 2 6 8 16 18 20 rings
6 3 5 7 9 11 13 rings
6 4 6 8 10 12 14 rings

>  <PUBCHEM_HEAVY_ATOM_COUNT>  (1) 
20

>  <PUBCHEM_ATOM_DEF_STEREO_COUNT>  (1) 
0

>  <PUBCHEM_ATOM_UDEF_STEREO_COUNT>  (1) 
0

>  <PUBCHEM_BOND_DEF_STEREO_COUNT>  (1) 
0

>  <PUBCHEM_BOND_UDEF_STEREO_COUNT>  (1) 
0

>  <PUBCHEM_ISOTOPIC_ATOM_COUNT>  (1) 
0

>  <PUBCHEM_COMPONENT_COUNT>  (1) 
1

>  <PUBCHEM_CACTVS_TAUTO_COUNT>  (1) 
1

>  <PUBCHEM_CONFORMER_ID>  (1) 
00009CF000000001

>  <PUBCHEM_MMFF94_ENERGY>  (1) 
71.6173

>  <PUBCHEM_FEATURE_SELFOVERLAP>  (1) 
30.511

>  <PUBCHEM_SHAPE_FINGERPRINT>  (1) 
10165383 225 17697342933176116720
10871710 139 16465573435317895004
11582403 64 17474046260206398101
11725454 13 18266714983284867076
12236239 1 15647059286688161387
12553582 1 17170984692568230739
12716301 132 17895199891479859179
12730499 353 18272369755013408951
12788726 201 16227480527715483355
13134695 92 17916306039804503950
13538477 17 16588031237728150255
13583140 156 18335408115303566058
13764800 53 18113336392913548777
13965767 371 16083048469294397285
14739800 52 17314800813750428324
14955137 171 14811625471807296658
15219456 202 18413396440185040138
16752209 62 17385726915554070435
16945 1 17703516523398920774
17349148 13 17095513029000155831
18186145 218 18337962177302930025
18219364 16 18059013998640553080
19049666 15 18337961064811604362
19862831 5 15769771377080629285
19930381 70 17630028593751386033
20645477 70 17989210313377413998
21427221 339 15574988404090004612
21486144 27 18201731672951420027
21639500 275 17632577167014368594
21756936 100 17682950348113824128
22112679 90 16226051119069614502
23175994 123 17986129417440610422
23493267 7 18186799180091838144
23526113 38 18125168134308129894
23557571 272 18187941598152653247
23559900 14 18041570135297917902
23598291 2 15984277226636507366
238 59 17917132953625670188
25 1 17917992797831077996
3082319 5 15697997448452668004
350125 39 17197977784607486106
427121 178 17896316909621368657
474 4 17203323472592087936
495365 180 18269543970958516539
6049 1 18338816562082951303
633830 44 16701197411534743048
7097593 13 16298927776435094520
77492 1 15769784519685855779
7808743 9 17749400238616165428
81228 2 17968674816578917107
88987 49 17676491639768360671
90316 7 16515675641790270093

>  <PUBCHEM_SHAPE_MULTIPOLES>  (1) 
401.63
7.08
2.07
1.97
0
0.03
0
2.78
0
0
0
0
-0.19
3.04

>  <PUBCHEM_SHAPE_SELFOVERLAP>  (1) 
921.007

>  <PUBCHEM_SHAPE_VOLUME>  (1) 
204.9

>  <PUBCHEM_COORDINATE_TYPE>  (1) 
2
5
10

$$$$
