40175
     RDKit          3D

 15 15  0  0  1  0  0  0  0  0999 V2000
   -1.1364    1.5751    1.4820 O   0  0  0  0  0  0  0  0  0  0  0  0
    2.9343    1.7315   -0.8681 O   0  0  0  0  0  0  0  0  0  0  0  0
   -2.5342    2.1333   -0.2139 O   0  0  0  0  0  0  0  0  0  0  0  0
    4.2234   -0.2763    0.5568 O   0  0  0  0  0  0  0  0  0  0  0  0
   -3.5722   -0.4241   -0.1147 N   0  0  0  0  0  0  0  0  0  0  0  0
   -1.2385   -0.7983   -0.7624 C   0  0  0  0  0  0  0  0  0  0  0  0
   -2.1824   -0.2241    0.3041 C   0  0  0  0  0  0  0  0  0  0  0  0
    0.2166   -0.6562   -0.4125 C   0  0  0  0  0  0  0  0  0  0  0  0
    0.9081    0.4822   -0.8061 C   0  0  0  0  0  0  0  0  0  0  0  0
    0.8521   -1.6653    0.2997 C   0  0  0  0  0  0  0  0  0  0  0  0
   -1.9853    1.2740    0.4645 C   0  0  0  0  0  0  0  0  0  0  0  0
    2.2585    0.6138   -0.4818 C   0  0  0  0  0  0  0  0  0  0  0  0
    2.2022   -1.5337    0.6238 C   0  0  0  0  0  0  0  0  0  0  0  0
   -3.8517   -1.8378   -0.3045 C   0  0  0  0  0  0  0  0  0  0  0  0
    2.9053   -0.3942    0.2332 C   0  0  0  0  0  0  0  0  0  0  0  0
  1 11  1  0
  2 12  1  0
  3 11  2  0
  4 15  1  0
  5  7  1  0
  5 14  1  0
  6  7  1  0
  6  8  1  0
  7 11  1  0
  8  9  2  0
  8 10  1  0
  9 12  1  0
 10 13  2  0
 12 15  2  0
 13 15  1  0
M  END
>  <PUBCHEM_COMPOUND_CID>  (1) 
40175

>  <PUBCHEM_CONFORMER_RMSD>  (1) 
0.6

>  <PUBCHEM_CONFORMER_DIVERSEORDER>  (1) 
1
43
45
47
32
53
56
4
57
19
14
40
46
6
59
50
28
51
60
31
11
61
8
17
30
15
55
24
23
5
29
13
52
49
9
26
33
42
38
25
3
27
20
35
48
16
36
22
54
21
41
18
39
12
37
10
34
2
58
44
7

>  <PUBCHEM_MMFF94_PARTIAL_CHARGES>  (1) 
22
1 -0.65
10 -0.15
11 0.66
12 0.08
13 -0.15
14 0.27
15 0.08
19 0.36
2 -0.53
20 0.15
21 0.15
22 0.15
26 0.5
27 0.45
28 0.45
3 -0.57
4 -0.53
5 -0.9
6 0.14
7 0.33
8 -0.14
9 -0.15

>  <PUBCHEM_EFFECTIVE_ROTOR_COUNT>  (1) 
4

>  <PUBCHEM_PHARMACOPHORE_FEATURES>  (1) 
8
1 1 acceptor
1 2 donor
1 3 acceptor
1 4 donor
1 5 cation
1 5 donor
3 1 3 11 anion
6 8 9 10 12 13 15 rings

>  <PUBCHEM_HEAVY_ATOM_COUNT>  (1) 
15

>  <PUBCHEM_ATOM_DEF_STEREO_COUNT>  (1) 
0

>  <PUBCHEM_ATOM_UDEF_STEREO_COUNT>  (1) 
1

>  <PUBCHEM_BOND_DEF_STEREO_COUNT>  (1) 
0

>  <PUBCHEM_BOND_UDEF_STEREO_COUNT>  (1) 
0

>  <PUBCHEM_ISOTOPIC_ATOM_COUNT>  (1) 
0

>  <PUBCHEM_COMPONENT_COUNT>  (1) 
1

>  <PUBCHEM_CACTVS_TAUTO_COUNT>  (1) 
18

>  <PUBCHEM_CONFORMER_ID>  (1) 
00009CEF00000001

>  <PUBCHEM_MMFF94_ENERGY>  (1) 
32.224

>  <PUBCHEM_FEATURE_SELFOVERLAP>  (1) 
40.658

>  <PUBCHEM_SHAPE_FINGERPRINT>  (1) 
11132069 177 18059863869884849139
12162725 195 18334577936231178818
12251169 10 18261958435864128461
13581323 91 17917989477705521638
13764800 53 17202776882221773241
14144814 61 18335700499054128842
15375462 189 18340210803621535219
15375462 478 18341889692819396615
15442244 35 18192147097080161050
15775835 57 18339370668735925840
16945 1 18335431191572139719
17802600 8 18413101779685117592
17844478 74 15123519102998326339
17862501 102 18335412478753143562
19050596 39 18408606972061484931
200 152 18336254721945429743
20510252 161 18131351895023813299
20559304 39 18412545427043900110
21501502 16 18334860480792045685
22802520 49 15983440451132969212
228727 97 18270411610250005085
23402539 116 18131059467922851951
23557571 272 17632297856490191539
25610 137 18336551633044950047
26918003 58 17967252027073621139
57096353 35 18337393858661644263

>  <PUBCHEM_SHAPE_MULTIPOLES>  (1) 
280.23
6.4
2
0.95
0.19
0.38
-0.09
-0.85
-0.13
0.84
-0.12
-0.07
0.2
-0.92

>  <PUBCHEM_SHAPE_SELFOVERLAP>  (1) 
579.408

>  <PUBCHEM_SHAPE_VOLUME>  (1) 
160.3

>  <PUBCHEM_COORDINATE_TYPE>  (1) 
2
5
10

$$$$
