40179
     RDKit          3D

 28 30  0  0  0  0  0  0  0  0999 V2000
   -0.1761   -0.0428   -2.0009 O   0  0  0  0  0  0  0  0  0  0  0  0
    2.4905   -0.6501   -1.1421 O   0  0  0  0  0  0  0  0  0  0  0  0
   -0.1570   -1.5203   -0.2036 N   0  0  0  0  0  0  0  0  0  0  0  0
    1.7208    1.0743    0.2173 N   0  0  0  0  0  0  0  0  0  0  0  0
   -6.1243    0.5656   -0.0381 N   0  0  0  0  0  0  0  0  0  0  0  0
    0.5455   -4.2126    0.6172 C   0  0  0  0  0  0  0  0  0  0  0  0
    0.9483   -2.9971    1.4476 C   0  0  0  0  0  0  0  0  0  0  0  0
    0.4077   -3.8367   -0.8555 C   0  0  0  0  0  0  0  0  0  0  0  0
   -0.0046   -1.8222    1.2282 C   0  0  0  0  0  0  0  0  0  0  0  0
   -0.5510   -2.6638   -1.0321 C   0  0  0  0  0  0  0  0  0  0  0  0
   -0.0037   -0.2719   -0.8024 C   0  0  0  0  0  0  0  0  0  0  0  0
    0.3885    0.8618    0.0586 C   0  0  0  0  0  0  0  0  0  0  0  0
   -0.5983    1.5681    0.6194 C   0  0  0  0  0  0  0  0  0  0  0  0
   -2.0350    1.3078    0.4485 C   0  0  0  0  0  0  0  0  0  0  0  0
    2.7025    0.3021   -0.3953 C   0  0  0  0  0  0  0  0  0  0  0  0
   -2.6872    0.4710    1.3423 C   0  0  0  0  0  0  0  0  0  0  0  0
   -2.7153    1.9028   -0.6036 C   0  0  0  0  0  0  0  0  0  0  0  0
   -4.7460    0.8160    0.1261 C   0  0  0  0  0  0  0  0  0  0  0  0
   -4.0504    0.2238    1.1801 C   0  0  0  0  0  0  0  0  0  0  0  0
   -4.0786    1.6555   -0.7656 C   0  0  0  0  0  0  0  0  0  0  0  0
    4.1073    0.7011   -0.1200 C   0  0  0  0  0  0  0  0  0  0  0  0
   -6.7216    0.5854   -1.3585 C   0  0  0  0  0  0  0  0  0  0  0  0
   -6.9587    0.2713    1.1101 C   0  0  0  0  0  0  0  0  0  0  0  0
    5.0965   -0.2577   -0.1846 C   0  0  0  0  0  0  0  0  0  0  0  0
    4.3762    2.0175    0.1914 C   0  0  0  0  0  0  0  0  0  0  0  0
    6.4151    0.1170    0.0742 C   0  0  0  0  0  0  0  0  0  0  0  0
    5.6947    2.3922    0.4501 C   0  0  0  0  0  0  0  0  0  0  0  0
    6.7141    1.4419    0.3915 C   0  0  0  0  0  0  0  0  0  0  0  0
  1 11  2  0
  2 15  2  0
  3  9  1  0
  3 10  1  0
  3 11  1  0
  4 12  1  0
  4 15  1  0
  5 18  1  0
  5 22  1  0
  5 23  1  0
  6  7  1  0
  6  8  1  0
  7  9  1  0
  8 10  1  0
 11 12  1  0
 12 13  2  0
 13 14  1  0
 14 16  2  0
 14 17  1  0
 15 21  1  0
 16 19  1  0
 17 20  2  0
 18 19  2  0
 18 20  1  0
 21 24  2  0
 21 25  1  0
 24 26  1  0
 25 27  2  0
 26 28  2  0
 27 28  1  0
M  END
>  <PUBCHEM_COMPOUND_CID>  (1) 
40179

>  <PUBCHEM_CONFORMER_RMSD>  (1) 
1

>  <PUBCHEM_CONFORMER_DIVERSEORDER>  (1) 
1
4
5
2
3
6

>  <PUBCHEM_MMFF94_PARTIAL_CHARGES>  (1) 
36
1 -0.57
10 0.3
11 0.62
12 0.12
13 -0.18
14 0.03
15 0.54
16 -0.15
17 -0.15
18 0.1
19 -0.15
2 -0.57
20 -0.15
21 0.09
22 0.37
23 0.37
24 -0.15
25 -0.15
26 -0.15
27 -0.15
28 -0.15
3 -0.66
39 0.15
4 -0.54
40 0.37
41 0.15
42 0.15
43 0.15
44 0.15
5 -0.84
51 0.15
52 0.15
53 0.15
54 0.15
55 0.15
9 0.3

>  <PUBCHEM_EFFECTIVE_ROTOR_COUNT>  (1) 
8.2

>  <PUBCHEM_PHARMACOPHORE_FEATURES>  (1) 
7
1 1 acceptor
1 2 acceptor
1 4 donor
1 5 cation
6 14 16 17 18 19 20 rings
6 21 24 25 26 27 28 rings
6 3 6 7 8 9 10 rings

>  <PUBCHEM_HEAVY_ATOM_COUNT>  (1) 
28

>  <PUBCHEM_ATOM_DEF_STEREO_COUNT>  (1) 
0

>  <PUBCHEM_ATOM_UDEF_STEREO_COUNT>  (1) 
0

>  <PUBCHEM_BOND_DEF_STEREO_COUNT>  (1) 
0

>  <PUBCHEM_BOND_UDEF_STEREO_COUNT>  (1) 
1

>  <PUBCHEM_ISOTOPIC_ATOM_COUNT>  (1) 
0

>  <PUBCHEM_COMPONENT_COUNT>  (1) 
1

>  <PUBCHEM_CACTVS_TAUTO_COUNT>  (1) 
2

>  <PUBCHEM_CONFORMER_ID>  (1) 
00009CF300000001

>  <PUBCHEM_MMFF94_ENERGY>  (1) 
96.9255

>  <PUBCHEM_FEATURE_SELFOVERLAP>  (1) 
35.524

>  <PUBCHEM_SHAPE_FINGERPRINT>  (1) 
10 15 18261387897764591136
10050765 1 18050286969315567457
10090160 65 18411983546495514445
102385 1 17833269714177886685
11135926 11 18411133624603056751
11421498 54 17202771388710701451
11578080 2 17098616756766470743
11991303 11 18263370342234052982
12236239 1 16917072144393338985
12516196 113 9079113354016941400
12597179 24 18202290220943392374
12788726 201 18051957406308297946
12977781 61 17386872537586974547
13004483 165 8862948247473685816
13590594 115 17691123060449709743
13631057 29 18130499856055876879
13911987 19 18337407018347130077
13968360 50 18335133168387286767
14787075 74 18131350812634201137
15849732 13 17894914044611797068
15927050 60 18411979178693811094
16994733 274 16773804666585776577
1813 80 10809626965568679696
19304671 126 16957561501657692245
20197701 30 18335421266108369082
20567600 254 18335137583491932108
20567600 347 18261962851106722947
21033648 29 18339063944222222632
21033650 10 16556816064657937936
21049683 118 18196063725397202432
21236236 1 18200028576832451927
21344244 181 17917723374496288110
21521721 280 18343587364790608057
22224240 67 18413109480999303281
22956985 138 17316193632541552506
23352939 185 7997966882340386878
23559900 14 17751092309643514871
23569917 315 18342183262609493318
23569943 247 16198212460260535590
249057 3 18409451406452125892
3178227 256 18410585010929041249
335352 9 18342179956501721676
3383291 50 18271247106751075066
3411729 13 18261955128924206411
4258327 124 18043543909205011148
4340502 62 18334861610347202586
474229 33 18410577292540143081
57634706 306 18265881622328555733
59755656 215 18113901520230662379
59755656 520 18411410743670656758
6669772 16 18343869896556341238

>  <PUBCHEM_SHAPE_MULTIPOLES>  (1) 
549.55
15.32
3.61
1.3
1.81
5.34
-0.09
-11.76
0.85
-1.95
0.24
1.08
0.42
0.51

>  <PUBCHEM_SHAPE_SELFOVERLAP>  (1) 
1172.105

>  <PUBCHEM_SHAPE_VOLUME>  (1) 
302.6

>  <PUBCHEM_COORDINATE_TYPE>  (1) 
2
5
10

$$$$
