40182
     RDKit          3D

 17 17  0  0  1  0  0  0  0  0999 V2000
    1.6046    0.1181    0.0163 O   0  0  0  0  0  0  0  0  0  0  0  0
    4.0318   -1.2668    0.4174 O   0  0  0  0  0  0  0  0  0  0  0  0
    6.3356   -0.2794   -0.7684 O   0  0  0  0  0  0  0  0  0  0  0  0
    0.5051    1.9384    0.8979 O   0  0  0  0  0  0  0  0  0  0  0  0
   -5.3459   -0.2297   -0.4788 O   0  0  0  0  0  0  0  0  0  0  0  0
   -4.3666    1.7342   -0.4211 O   0  0  0  0  0  0  0  0  0  0  0  0
   -4.3215    0.4825   -0.3458 N   0  0  0  0  0  0  0  0  0  0  0  0
    3.9738   -0.0906   -0.3929 C   0  0  0  0  0  0  0  0  0  0  0  0
    2.8493    0.8019    0.1197 C   0  0  0  0  0  0  0  0  0  0  0  0
    5.3241    0.6084   -0.3040 C   0  0  0  0  0  0  0  0  0  0  0  0
   -0.7179   -0.0142    0.2839 C   0  0  0  0  0  0  0  0  0  0  0  0
    0.5101    0.8052    0.4424 C   0  0  0  0  0  0  0  0  0  0  0  0
   -1.9192    0.6227    0.0484 C   0  0  0  0  0  0  0  0  0  0  0  0
   -0.6194   -1.3876    0.3754 C   0  0  0  0  0  0  0  0  0  0  0  0
   -3.0724   -0.1476   -0.1019 C   0  0  0  0  0  0  0  0  0  0  0  0
   -1.7724   -2.1577    0.2250 C   0  0  0  0  0  0  0  0  0  0  0  0
   -2.9990   -1.5378   -0.0138 C   0  0  0  0  0  0  0  0  0  0  0  0
  1  9  1  0
  1 12  1  0
  2  8  1  0
  3 10  1  0
  4 12  2  0
  5  7  1  0
  6  7  2  0
  7 15  1  0
  8  9  1  0
  8 10  1  0
 11 12  1  0
 11 13  2  0
 11 14  1  0
 13 15  1  0
 14 16  2  0
 15 17  2  0
 16 17  1  0
M  CHG  2   5  -1   7   1
M  END
>  <PUBCHEM_COMPOUND_CID>  (1) 
40182

>  <PUBCHEM_CONFORMER_RMSD>  (1) 
0.8

>  <PUBCHEM_CONFORMER_DIVERSEORDER>  (1) 
2
44
7
74
46
70
9
28
40
27
79
58
41
32
5
60
3
45
24
76
67
47
56
6
25
34
37
14
68
63
35
52
10
43
66
49
23
4
62
42
57
15
30
51
59
78
1
8
21
19
31
22
16
29
53
75
50
17
11
39
18
65
73
38
36
13
54
55
12
20
71
61
64
77
26
33
48
72
69

>  <PUBCHEM_MMFF94_PARTIAL_CHARGES>  (1) 
23
1 -0.43
10 0.28
11 0.09
12 0.63
13 -0.15
14 -0.15
15 0.13
16 -0.15
17 -0.15
2 -0.68
23 0.15
24 0.15
25 0.15
26 0.15
27 0.4
28 0.4
3 -0.68
4 -0.57
5 -0.52
6 -0.52
7 0.91
8 0.28
9 0.28

>  <PUBCHEM_EFFECTIVE_ROTOR_COUNT>  (1) 
6

>  <PUBCHEM_PHARMACOPHORE_FEATURES>  (1) 
9
1 2 acceptor
1 2 donor
1 3 acceptor
1 3 donor
1 4 acceptor
1 5 acceptor
1 5 anion
1 6 acceptor
6 11 13 14 15 16 17 rings

>  <PUBCHEM_HEAVY_ATOM_COUNT>  (1) 
17

>  <PUBCHEM_ATOM_DEF_STEREO_COUNT>  (1) 
0

>  <PUBCHEM_ATOM_UDEF_STEREO_COUNT>  (1) 
1

>  <PUBCHEM_BOND_DEF_STEREO_COUNT>  (1) 
0

>  <PUBCHEM_BOND_UDEF_STEREO_COUNT>  (1) 
0

>  <PUBCHEM_ISOTOPIC_ATOM_COUNT>  (1) 
0

>  <PUBCHEM_COMPONENT_COUNT>  (1) 
1

>  <PUBCHEM_CACTVS_TAUTO_COUNT>  (1) 
1

>  <PUBCHEM_CONFORMER_ID>  (1) 
00009CF600000002

>  <PUBCHEM_MMFF94_ENERGY>  (1) 
46.7202

>  <PUBCHEM_FEATURE_SELFOVERLAP>  (1) 
45.763

>  <PUBCHEM_SHAPE_FINGERPRINT>  (1) 
10968037 39 18343868840088792348
11315181 36 18131359626745524904
12236239 1 17822009805150581754
124424 183 18201440310917581465
12555020 224 18342735221661859207
12788726 201 18129381510326445736
12815109 37 18344146999371732446
12916748 109 8070033272692583910
13288520 33 18343304794686608455
13760787 19 18186800296741266930
13964095 4 18334861597979246228
14115302 16 18335145327355059084
14251731 8 18410294717998927324
14251752 14 18187644674706047494
14386348 63 18060425720326584478
14911166 2 18413105074040980697
15048467 5 17967252005334780732
15099037 51 18413107268700632223
15196674 1 18408885140056179202
15242433 33 18334295366544437242
15242439 84 18343582958233003808
15375358 24 18202003239739194190
17804303 29 18339080496756019115
17834072 8 18410854364916776303
17870717 6 18271541844042671822
187816 3 18273215291896952441
19489759 90 14692576498375145211
200 152 16343706525473611512
20279233 1 17846227669580712966
20374829 77 18341893009061546202
20621476 66 18340212895096807801
20645477 56 18259983786111326357
20645477 70 17704074014622865580
20681677 155 18186800300946258362
20871999 31 18334011735135402394
21267235 1 18338801221377888675
2215653 11 18201998824359683846
22224240 67 11963394050847947877
22485316 2 18411417336877874834
23175994 123 17489310823347970089
23402539 116 18343016683711339949
23402655 69 18260267447679856846
23557571 272 18201164256844323924
23559900 14 18342735265212886352
2871803 45 18341337717388410486
293599 30 18336264548846355461
300161 21 18333445461320191242
3004659 81 18261111834351363810
3759504 43 17603588547253928835
4214541 1 18409167731444422148
4921388 177 16371296648238544594
5283173 99 18412543180782045688
559249 180 18335417959316185378
58051976 100 18260266394906623174
9709674 26 18052252087839360930

>  <PUBCHEM_SHAPE_MULTIPOLES>  (1) 
309.66
11.83
1.72
0.72
10.82
0.29
-0.02
-0.58
3.45
-1.18
-0.22
0.15
-0.06
0.29

>  <PUBCHEM_SHAPE_SELFOVERLAP>  (1) 
640.541

>  <PUBCHEM_SHAPE_VOLUME>  (1) 
177.1

>  <PUBCHEM_COORDINATE_TYPE>  (1) 
2
5
10

$$$$
