40193
     RDKit          3D

 21 23  0  0  1  0  0  0  0  0999 V2000
   -6.1351    0.2909   -0.1818 Cl  0  0  0  0  0  0  0  0  0  0  0  0
    0.4414    1.8822   -0.4672 N   0  0  0  0  0  0  0  0  0  0  0  0
    0.1624   -3.8102    0.9729 N   0  0  0  0  0  0  0  0  0  0  0  0
    0.4889   -1.3725    1.1979 C   0  0  0  0  0  0  0  0  0  0  0  0
    0.7427   -0.0669    0.5511 C   0  0  0  0  0  0  0  0  0  0  0  0
    0.4781   -2.5859    0.2282 C   0  0  0  0  0  0  0  0  0  0  0  0
    2.0180    0.5308    0.3481 C   0  0  0  0  0  0  0  0  0  0  0  0
   -0.2064    0.7878    0.0394 C   0  0  0  0  0  0  0  0  0  0  0  0
    1.8008    1.7526   -0.2925 C   0  0  0  0  0  0  0  0  0  0  0  0
    1.8246   -2.7512   -0.5020 C   0  0  0  0  0  0  0  0  0  0  0  0
   -1.6445    0.6673   -0.0143 C   0  0  0  0  0  0  0  0  0  0  0  0
    3.3405    0.1484    0.6488 C   0  0  0  0  0  0  0  0  0  0  0  0
    2.8441    2.6145   -0.6490 C   0  0  0  0  0  0  0  0  0  0  0  0
    1.8517   -3.9412   -1.4546 C   0  0  0  0  0  0  0  0  0  0  0  0
    4.3940    1.0005    0.2983 C   0  0  0  0  0  0  0  0  0  0  0  0
    4.1473    2.2141   -0.3406 C   0  0  0  0  0  0  0  0  0  0  0  0
   -2.4232    1.1567    1.0331 C   0  0  0  0  0  0  0  0  0  0  0  0
   -2.2514    0.0619   -1.1136 C   0  0  0  0  0  0  0  0  0  0  0  0
   -3.8123    1.0401    0.9814 C   0  0  0  0  0  0  0  0  0  0  0  0
   -3.6405   -0.0546   -1.1656 C   0  0  0  0  0  0  0  0  0  0  0  0
   -4.4210    0.4346   -0.1181 C   0  0  0  0  0  0  0  0  0  0  0  0
  1 21  1  0
  2  8  1  0
  2  9  1  0
  3  6  1  0
  4  5  1  0
  4  6  1  0
  5  7  1  0
  5  8  2  0
  6 10  1  0
  7  9  2  0
  7 12  1  0
  8 11  1  0
  9 13  1  0
 10 14  1  0
 11 17  2  0
 11 18  1  0
 12 15  2  0
 13 16  2  0
 15 16  1  0
 17 19  1  0
 18 20  2  0
 19 21  2  0
 20 21  1  0
M  END
>  <PUBCHEM_COMPOUND_CID>  (1) 
40193

>  <PUBCHEM_CONFORMER_RMSD>  (1) 
0.6

>  <PUBCHEM_CONFORMER_DIVERSEORDER>  (1) 
1
29
21
20
25
27
23
5
22
13
17
4
16
19
10
14
11
26
15
12
2
24
8
3
28
6
9
18
7

>  <PUBCHEM_MMFF94_PARTIAL_CHARGES>  (1) 
29
1 -0.18
11 0.05
12 -0.15
13 -0.15
15 -0.15
16 -0.15
17 -0.15
18 -0.15
19 -0.15
2 0.03
20 -0.15
21 0.18
27 0.27
28 0.15
29 0.36
3 -0.99
30 0.36
31 0.15
35 0.15
36 0.15
37 0.15
38 0.15
39 0.15
4 0.18
40 0.15
5 -0.18
6 0.27
8 -0.2
9 -0.15

>  <PUBCHEM_EFFECTIVE_ROTOR_COUNT>  (1) 
4

>  <PUBCHEM_PHARMACOPHORE_FEATURES>  (1) 
8
1 14 hydrophobe
1 2 cation
1 2 donor
1 3 cation
1 3 donor
5 2 5 7 8 9 rings
6 11 17 18 19 20 21 rings
6 7 9 12 13 15 16 rings

>  <PUBCHEM_HEAVY_ATOM_COUNT>  (1) 
21

>  <PUBCHEM_ATOM_DEF_STEREO_COUNT>  (1) 
0

>  <PUBCHEM_ATOM_UDEF_STEREO_COUNT>  (1) 
1

>  <PUBCHEM_BOND_DEF_STEREO_COUNT>  (1) 
0

>  <PUBCHEM_BOND_UDEF_STEREO_COUNT>  (1) 
0

>  <PUBCHEM_ISOTOPIC_ATOM_COUNT>  (1) 
0

>  <PUBCHEM_COMPONENT_COUNT>  (1) 
1

>  <PUBCHEM_CACTVS_TAUTO_COUNT>  (1) 
1

>  <PUBCHEM_CONFORMER_ID>  (1) 
00009D0100000001

>  <PUBCHEM_MMFF94_ENERGY>  (1) 
37.1876

>  <PUBCHEM_FEATURE_SELFOVERLAP>  (1) 
40.688

>  <PUBCHEM_SHAPE_FINGERPRINT>  (1) 
11421498 54 18202569453994498185
12107183 9 17480593650835265857
12236239 1 18272650169070322521
12553582 1 17689155608834553851
12592029 89 18410573976572072571
12788726 201 17545309135498192570
13009979 54 17415283819343422947
13140716 1 18116990195018390952
13533116 47 18201434732725644443
13540713 5 17609205012285389880
13583140 156 15865449818326320080
13692114 37 18126831919050795907
13836976 161 18333730242794212941
15309172 13 18261110811178489096
15502722 9 18338235964214509711
16752209 62 17979630457664592106
17138139 8 17697284642138744359
17980427 26 17487305310007813712
1813 80 17839185103904550550
200 152 18408879664273563577
204376 136 18261674869338798929
20567600 347 18272937141246268686
20600515 1 16693584070663941982
20602899 9 17987531462422541498
20645477 70 18334007264222114333
20739085 24 18187657859929391140
21033648 29 13190882295082874189
21033650 10 17415314769200225784
21054139 6 18269824471552657839
21197605 99 18191595361803788947
21421861 104 18194686968913839865
21524375 3 18261107534387298808
22182313 1 18116460135528974579
2255824 54 18339361838431007659
22907989 373 17687481469030959732
23419403 2 17684419088629850666
23557571 272 15574987313569043493
23559900 14 18196927765522264441
23566358 27 18270407079196937287
23598288 3 17903355154492405074
23598291 2 17985272872112463697
25147074 1 17535459646355372120
266924 1 17987807302349555609
283562 15 16676969921951656216
3060560 45 18407758144911232988
33824 294 18335137570665124091
352729 6 18265626552989343088
42630746 31 18411136918104435783
4280585 95 17907572528424614646
4340502 62 18334863835804952259
465052 167 17822007601515984688
474 4 18409449197736350193
59755656 215 18335139756576683029
6138700 20 18267027164011944894
6287921 2 18058723577084136086
633830 44 18342748415669569116
6443956 14 18192714432337558060
6669772 16 18186801379563857018
7364860 26 18269837527598940626
81228 2 17251170004916625584
8272917 22 18410010996976068373
9999458 23 15791729724326555648

>  <PUBCHEM_SHAPE_MULTIPOLES>  (1) 
424.08
9.01
3.78
1.14
10.3
5.08
-0.05
-5.02
-0.73
-4.5
-0.74
0.23
0.44
-0.19

>  <PUBCHEM_SHAPE_SELFOVERLAP>  (1) 
910.748

>  <PUBCHEM_SHAPE_VOLUME>  (1) 
236.2

>  <PUBCHEM_COORDINATE_TYPE>  (1) 
2
5
10

$$$$
