40207
     RDKit          3D

 27 28  0  0  0  0  0  0  0  0999 V2000
    1.7990   -0.3434    0.2897 O   0  0  0  0  0  0  0  0  0  0  0  0
   -1.6316   -0.2112   -0.6949 O   0  0  0  0  0  0  0  0  0  0  0  0
    0.8191   -0.0998   -1.7861 O   0  0  0  0  0  0  0  0  0  0  0  0
   -2.5282    2.4653   -1.1626 O   0  0  0  0  0  0  0  0  0  0  0  0
   -2.5659    2.9307    1.0915 O   0  0  0  0  0  0  0  0  0  0  0  0
    5.4845   -0.3418    0.2292 N   0  0  0  0  0  0  0  0  0  0  0  0
    5.8582    1.0461   -0.0775 C   0  0  0  0  0  0  0  0  0  0  0  0
    6.4514   -0.9621    1.1457 C   0  0  0  0  0  0  0  0  0  0  0  0
    7.2466    1.1157   -0.7150 C   0  0  0  0  0  0  0  0  0  0  0  0
    7.8594   -0.9584    0.5480 C   0  0  0  0  0  0  0  0  0  0  0  0
    8.2967    0.4518    0.1686 C   0  0  0  0  0  0  0  0  0  0  0  0
    4.1366   -0.3957    0.7943 C   0  0  0  0  0  0  0  0  0  0  0  0
    3.0898   -0.2689   -0.3011 C   0  0  0  0  0  0  0  0  0  0  0  0
   -2.8952   -2.7505   -0.4900 C   0  0  0  0  0  0  0  0  0  0  0  0
   -3.5510   -1.4862   -0.0413 C   0  0  0  0  0  0  0  0  0  0  0  0
   -2.8960   -0.2603   -0.1592 C   0  0  0  0  0  0  0  0  0  0  0  0
   -3.5248    0.9102    0.2653 C   0  0  0  0  0  0  0  0  0  0  0  0
    0.7404   -0.2443   -0.5736 C   0  0  0  0  0  0  0  0  0  0  0  0
   -4.8348   -1.5414    0.5013 C   0  0  0  0  0  0  0  0  0  0  0  0
   -3.6653   -3.4375   -1.6327 C   0  0  0  0  0  0  0  0  0  0  0  0
   -2.6797   -3.7429    0.6673 C   0  0  0  0  0  0  0  0  0  0  0  0
   -4.8085    0.8548    0.8081 C   0  0  0  0  0  0  0  0  0  0  0  0
   -0.5468   -0.3400    0.2024 C   0  0  0  0  0  0  0  0  0  0  0  0
   -5.4636   -0.3710    0.9262 C   0  0  0  0  0  0  0  0  0  0  0  0
   -5.5073    2.0915    1.2719 C   0  0  0  0  0  0  0  0  0  0  0  0
   -2.8363    2.1905    0.1400 C   0  0  0  0  0  0  0  0  0  0  0  0
   -1.8467    3.6988   -1.4155 C   0  0  0  0  0  0  0  0  0  0  0  0
  1 13  1  0
  1 18  1  0
  2 16  1  0
  2 23  1  0
  3 18  2  0
  4 26  1  0
  4 27  1  0
  5 26  2  0
  6  7  1  0
  6  8  1  0
  6 12  1  0
  7  9  1  0
  8 10  1  0
  9 11  1  0
 10 11  1  0
 12 13  1  0
 14 15  1  0
 14 20  1  0
 14 21  1  0
 15 16  2  0
 15 19  1  0
 16 17  1  0
 17 22  2  0
 17 26  1  0
 18 23  1  0
 19 24  2  0
 22 24  1  0
 22 25  1  0
M  END
>  <PUBCHEM_COMPOUND_CID>  (1) 
40207

>  <PUBCHEM_CONFORMER_RMSD>  (1) 
1.2

>  <PUBCHEM_CONFORMER_DIVERSEORDER>  (1) 
1
44
25
47
12
43
26
20
13
14
28
42
49
16
6
11
9
46
35
37
15
48
38
36
23
32
17
30
18
4
19
40
3
29
5
27
7
21
8
10
45
22
41
39
33
2
24
34
31

>  <PUBCHEM_MMFF94_PARTIAL_CHARGES>  (1) 
24
1 -0.43
12 0.27
13 0.28
14 0.14
15 -0.14
16 0.08
17 0.09
18 0.66
19 -0.15
2 -0.36
22 -0.14
23 0.34
24 -0.15
25 0.14
26 0.63
27 0.28
3 -0.57
4 -0.43
43 0.15
5 -0.57
52 0.15
6 -0.81
7 0.27
8 0.27

>  <PUBCHEM_EFFECTIVE_ROTOR_COUNT>  (1) 
11.2

>  <PUBCHEM_PHARMACOPHORE_FEATURES>  (1) 
7
1 2 acceptor
1 3 acceptor
1 5 acceptor
1 6 cation
3 14 20 21 hydrophobe
6 15 16 17 19 22 24 rings
6 6 7 8 9 10 11 rings

>  <PUBCHEM_HEAVY_ATOM_COUNT>  (1) 
27

>  <PUBCHEM_ATOM_DEF_STEREO_COUNT>  (1) 
0

>  <PUBCHEM_ATOM_UDEF_STEREO_COUNT>  (1) 
0

>  <PUBCHEM_BOND_DEF_STEREO_COUNT>  (1) 
0

>  <PUBCHEM_BOND_UDEF_STEREO_COUNT>  (1) 
0

>  <PUBCHEM_ISOTOPIC_ATOM_COUNT>  (1) 
0

>  <PUBCHEM_COMPONENT_COUNT>  (1) 
1

>  <PUBCHEM_CACTVS_TAUTO_COUNT>  (1) 
1

>  <PUBCHEM_CONFORMER_ID>  (1) 
00009D0F00000001

>  <PUBCHEM_MMFF94_ENERGY>  (1) 
63.0155

>  <PUBCHEM_FEATURE_SELFOVERLAP>  (1) 
35.529

>  <PUBCHEM_SHAPE_FINGERPRINT>  (1) 
10 15 18409736144517032064
100830 39 18337106775106828680
10290309 65 18197779899307003495
10299344 5 18333450950642083410
10319926 262 18201146733081948354
10411042 1 17982728881959828887
11101153 10 18263081188183085380
11315181 36 18333731346943660219
11524674 6 16988843899435390518
12596602 18 17894349964992351640
12616971 3 17458069287314118518
14844126 61 18339364192543039371
14849402 71 18188498003383849284
14856354 85 18336830887386841326
14933364 13 18341897394513273408
15021287 119 17385727989364206676
15183329 4 18334569145266807770
15348495 7 17988917929516185042
15461852 350 17703784838827861205
15716309 27 18113335315198510962
16110190 28 18410579491310502949
16992779 147 16322311884761794888
17780758 139 18334294292523259299
17844677 252 18411703210191298936
18927931 339 18342177812290213183
19377110 9 17894621548980834208
220451 1 18259703402853082330
23081809 10 18261108608814931294
23522609 53 18115892796541099828
23559900 14 18265605674857872624
24771293 8 18130233649825456305
3504750 166 18336253579695359398
3663271 9 18407757045932309842
4073 2 18408891759049435266
5364581 5 18057594567968800136
58260988 114 16733844115488220923
9953998 17 18412543215135866408
9996256 80 18334574642866988556

>  <PUBCHEM_SHAPE_MULTIPOLES>  (1) 
521.32
20.49
3.67
1.25
52.51
0.13
0.28
-0.01
-5.08
-7.37
0.92
-0.74
-0.12
-1.72

>  <PUBCHEM_SHAPE_SELFOVERLAP>  (1) 
1067.349

>  <PUBCHEM_SHAPE_VOLUME>  (1) 
301.6

>  <PUBCHEM_COORDINATE_TYPE>  (1) 
2
5
10

$$$$
