40202
     RDKit          3D

 24 26  0  0  0  0  0  0  0  0999 V2000
    6.9169   -0.2310   -0.6701 O   0  0  0  0  0  0  0  0  0  0  0  0
    0.6355   -0.2035    0.5497 O   0  0  0  0  0  0  0  0  0  0  0  0
   -0.4454   -1.8409   -0.6545 O   0  0  0  0  0  0  0  0  0  0  0  0
    4.3103   -0.4579    0.4505 N   0  0  0  0  0  0  0  0  0  0  0  0
    5.3777    0.2870    1.1326 C   0  0  0  0  0  0  0  0  0  0  0  0
    4.5216   -0.4227   -1.0033 C   0  0  0  0  0  0  0  0  0  0  0  0
    2.9974    0.0823    0.7973 C   0  0  0  0  0  0  0  0  0  0  0  0
    6.7381   -0.2861    0.7458 C   0  0  0  0  0  0  0  0  0  0  0  0
    5.9019   -0.9800   -1.3393 C   0  0  0  0  0  0  0  0  0  0  0  0
    1.8912   -0.7534    0.1732 C   0  0  0  0  0  0  0  0  0  0  0  0
   -1.7412   -0.1872    0.5955 C   0  0  0  0  0  0  0  0  0  0  0  0
   -0.4739   -0.8491    0.0632 C   0  0  0  0  0  0  0  0  0  0  0  0
   -1.8559    1.2913    0.2487 C   0  0  0  0  0  0  0  0  0  0  0  0
   -3.0077   -0.9560    0.2412 C   0  0  0  0  0  0  0  0  0  0  0  0
   -2.5327    2.1275    1.1121 C   0  0  0  0  0  0  0  0  0  0  0  0
   -3.6600   -0.6574   -0.9368 C   0  0  0  0  0  0  0  0  0  0  0  0
   -1.2798    1.7483   -0.9183 C   0  0  0  0  0  0  0  0  0  0  0  0
   -3.4624   -1.9260    1.1098 C   0  0  0  0  0  0  0  0  0  0  0  0
   -2.6383    3.4816    0.7942 C   0  0  0  0  0  0  0  0  0  0  0  0
   -4.8200   -1.3611   -1.2610 C   0  0  0  0  0  0  0  0  0  0  0  0
   -1.3852    3.1024   -1.2363 C   0  0  0  0  0  0  0  0  0  0  0  0
   -4.6223   -2.6298    0.7856 C   0  0  0  0  0  0  0  0  0  0  0  0
   -2.0645    3.9689   -0.3799 C   0  0  0  0  0  0  0  0  0  0  0  0
   -5.3011   -2.3472   -0.3999 C   0  0  0  0  0  0  0  0  0  0  0  0
  1  8  1  0
  1  9  1  0
  2 10  1  0
  2 12  1  0
  3 12  2  0
  4  5  1  0
  4  6  1  0
  4  7  1  0
  5  8  1  0
  6  9  1  0
  7 10  1  0
 11 12  1  0
 11 13  1  0
 11 14  1  0
 13 15  2  0
 13 17  1  0
 14 16  2  0
 14 18  1  0
 15 19  1  0
 16 20  1  0
 17 21  2  0
 18 22  2  0
 19 23  2  0
 20 24  2  0
 21 23  1  0
 22 24  1  0
M  END
>  <PUBCHEM_COMPOUND_CID>  (1) 
40202

>  <PUBCHEM_CONFORMER_RMSD>  (1) 
0.8

>  <PUBCHEM_CONFORMER_DIVERSEORDER>  (1) 
1
147
239
179
61
98
169
243
25
150
246
166
34
90
93
130
28
30
217
119
9
272
20
212
45
195
32
194
249
250
122
84
229
205
13
95
172
181
276
67
175
193
123
74
115
105
83
108
47
245
271
252
46
100
200
2
253
70
14
258
53
241
221
197
231
3
161
237
73
85
160
277
77
12
227
78
235
137
269
162
40
41
68
218
92
54
69
76
114
127
24
196
236
259
136
275
273
265
209
222
139
199
11
65
144
174
251
91
29
206
109
146
149
232
157
261
242
44
185
164
264
7
202
234
35
22
256
141
233
62
216
75
210
81
113
153
173
184
86
213
49
104
183
129
201
10
260
89
88
60
177
267
187
96
102
190
64
215
23
42
48
59
142
151
266
170
207
110
36
254
43
63
248
186
268
131
111
80
125
31
255
126
33
168
220
128
39
158
240
134
124
214
238
188
224
57
148
17
101
247
155
226
66
107
120
118
178
143
176
8
171
38
99
58
156
211
191
198
219
5
203
97
270
263
18
6
121
94
274
27
112
159
163
117
262
72
132
56
26
21
228
135
145
225
180
15
37
16
223
55
208
4
133
189
116
19
165
82
154
103
257
167
79
50
152
192
244
204
182
87
71
230
51
106
52
138
140

>  <PUBCHEM_MMFF94_PARTIAL_CHARGES>  (1) 
34
1 -0.56
10 0.28
11 0.35
12 0.66
13 -0.14
14 -0.14
15 -0.15
16 -0.15
17 -0.15
18 -0.15
19 -0.15
2 -0.43
20 -0.15
21 -0.15
22 -0.15
23 -0.15
24 -0.15
3 -0.57
38 0.15
39 0.15
4 -0.81
40 0.15
41 0.15
42 0.15
43 0.15
44 0.15
45 0.15
46 0.15
47 0.15
5 0.27
6 0.27
7 0.27
8 0.28
9 0.28

>  <PUBCHEM_EFFECTIVE_ROTOR_COUNT>  (1) 
8.2

>  <PUBCHEM_PHARMACOPHORE_FEATURES>  (1) 
6
1 1 acceptor
1 3 acceptor
1 4 cation
6 1 4 5 6 8 9 rings
6 13 15 17 19 21 23 rings
6 14 16 18 20 22 24 rings

>  <PUBCHEM_HEAVY_ATOM_COUNT>  (1) 
24

>  <PUBCHEM_ATOM_DEF_STEREO_COUNT>  (1) 
0

>  <PUBCHEM_ATOM_UDEF_STEREO_COUNT>  (1) 
0

>  <PUBCHEM_BOND_DEF_STEREO_COUNT>  (1) 
0

>  <PUBCHEM_BOND_UDEF_STEREO_COUNT>  (1) 
0

>  <PUBCHEM_ISOTOPIC_ATOM_COUNT>  (1) 
0

>  <PUBCHEM_COMPONENT_COUNT>  (1) 
1

>  <PUBCHEM_CACTVS_TAUTO_COUNT>  (1) 
1

>  <PUBCHEM_CONFORMER_ID>  (1) 
00009D0A00000001

>  <PUBCHEM_MMFF94_ENERGY>  (1) 
59.875

>  <PUBCHEM_FEATURE_SELFOVERLAP>  (1) 
30.447

>  <PUBCHEM_SHAPE_FINGERPRINT>  (1) 
10366900 7 18260266369511444306
10411042 1 18265898137152379523
10670039 82 18335426742882566766
11056379 131 18410015407517162562
11101153 10 18335989782767245724
11265709 11 18335987562352809105
11315181 36 17894914053238472754
11578080 2 17558570018632880175
12082328 90 18410858734164801470
12107183 9 17539678111477261514
12166972 35 17458627881706289806
12788726 201 18260537918623691563
13073987 5 18411411783976077194
13782708 43 18202569454285037830
14347332 77 18411697677893697934
14508225 48 18410004477342664477
14556957 393 18186527621941530717
14713325 29 18270122309790166201
14955137 171 18196377150741706731
15348495 7 7925620091290970286
16087824 20 18337952270111954669
16992727 255 17895741895701101245
17686467 74 18262235642672456488
17844677 252 18341897394560811280
1813 80 18129113371455135079
18927931 339 18412549825048667999
21033648 29 17774989169125005736
21033650 10 18117866334223919366
21236236 1 18412825754963837857
21304303 172 18343868827720920305
2132832 1 18114470045067874668
21424621 283 11314567802427575423
2297311 6 18410578409063081866
2303208 19 17632022975084871974
23175994 123 18264203781223143727
23402539 116 18409727383126918611
23557571 272 18342181029067314789
23559900 14 17969779868112838721
249057 25 17676489433120385348
283562 15 18409163290717523595
46194498 28 18202002175194108988
469060 322 18336275582137259161
497634 4 18040994021084721878
5104073 3 18341045199966542442
5969126 39 18343292687342489429
81228 2 18338240350183058761

>  <PUBCHEM_SHAPE_MULTIPOLES>  (1) 
471.32
14.81
3.72
1.28
29.64
4.3
-0.13
-8.93
-1.06
-7.23
-0.13
0.17
0.06
0.35

>  <PUBCHEM_SHAPE_SELFOVERLAP>  (1) 
998.731

>  <PUBCHEM_SHAPE_VOLUME>  (1) 
261.7

>  <PUBCHEM_COORDINATE_TYPE>  (1) 
2
5
10

$$$$
