40204
     RDKit          3D

 17 18  0  0  1  0  0  0  0  0999 V2000
    2.4604   -3.5685    0.1399 Cl  0  0  0  0  0  0  0  0  0  0  0  0
    1.8481    2.2589   -0.1806 O   0  0  0  0  0  0  0  0  0  0  0  0
   -2.9131    0.3058   -0.9823 O   0  0  0  0  0  0  0  0  0  0  0  0
   -4.3106   -2.0504   -0.6769 O   0  0  0  0  0  0  0  0  0  0  0  0
   -1.6059    2.7341    0.5053 O   0  0  0  0  0  0  0  0  0  0  0  0
   -0.4398    0.7145    0.4454 N   0  0  0  0  0  0  0  0  0  0  0  0
   -1.5460   -0.0749    0.9720 C   0  0  0  0  0  0  0  0  0  0  0  0
   -2.3962   -0.7128   -0.1252 C   0  0  0  0  0  0  0  0  0  0  0  0
    0.8137    0.0924    0.1806 C   0  0  0  0  0  0  0  0  0  0  0  0
   -0.6007    2.0806    0.2270 C   0  0  0  0  0  0  0  0  0  0  0  0
    1.9189    0.8939   -0.1284 C   0  0  0  0  0  0  0  0  0  0  0  0
    0.5575    2.7262   -0.5067 C   0  0  0  0  0  0  0  0  0  0  0  0
   -3.5687   -1.5229    0.4185 C   0  0  0  0  0  0  0  0  0  0  0  0
    0.9977   -1.2958    0.2622 C   0  0  0  0  0  0  0  0  0  0  0  0
    3.1814    0.3302   -0.3327 C   0  0  0  0  0  0  0  0  0  0  0  0
    2.2560   -1.8618    0.0384 C   0  0  0  0  0  0  0  0  0  0  0  0
    3.3474   -1.0497   -0.2565 C   0  0  0  0  0  0  0  0  0  0  0  0
  1 16  1  0
  2 11  1  0
  2 12  1  0
  3  8  1  0
  4 13  1  0
  5 10  2  0
  6  7  1  0
  6  9  1  0
  6 10  1  0
  7  8  1  0
  8 13  1  0
  9 11  2  0
  9 14  1  0
 10 12  1  0
 11 15  1  0
 14 16  2  0
 15 17  2  0
 16 17  1  0
M  END
>  <PUBCHEM_COMPOUND_CID>  (1) 
40204

>  <PUBCHEM_CONFORMER_RMSD>  (1) 
0.6

>  <PUBCHEM_CONFORMER_DIVERSEORDER>  (1) 
1
4
15
6
17
7
8
16
5
9
12
10
14
3
2
11
13

>  <PUBCHEM_MMFF94_PARTIAL_CHARGES>  (1) 
22
1 -0.18
10 0.57
11 0.08
12 0.34
13 0.28
14 -0.15
15 -0.15
16 0.18
17 -0.15
2 -0.36
25 0.15
26 0.15
27 0.15
28 0.4
29 0.4
3 -0.68
4 -0.68
5 -0.57
6 -0.48
7 0.3
8 0.28
9 0.12

>  <PUBCHEM_EFFECTIVE_ROTOR_COUNT>  (1) 
3.6

>  <PUBCHEM_PHARMACOPHORE_FEATURES>  (1) 
8
1 2 acceptor
1 3 acceptor
1 3 donor
1 4 acceptor
1 4 donor
1 5 acceptor
6 2 6 9 10 11 12 rings
6 9 11 14 15 16 17 rings

>  <PUBCHEM_HEAVY_ATOM_COUNT>  (1) 
17

>  <PUBCHEM_ATOM_DEF_STEREO_COUNT>  (1) 
0

>  <PUBCHEM_ATOM_UDEF_STEREO_COUNT>  (1) 
1

>  <PUBCHEM_BOND_DEF_STEREO_COUNT>  (1) 
0

>  <PUBCHEM_BOND_UDEF_STEREO_COUNT>  (1) 
0

>  <PUBCHEM_ISOTOPIC_ATOM_COUNT>  (1) 
0

>  <PUBCHEM_COMPONENT_COUNT>  (1) 
1

>  <PUBCHEM_CACTVS_TAUTO_COUNT>  (1) 
1

>  <PUBCHEM_CONFORMER_ID>  (1) 
00009D0C00000001

>  <PUBCHEM_MMFF94_ENERGY>  (1) 
45.9929

>  <PUBCHEM_FEATURE_SELFOVERLAP>  (1) 
40.639

>  <PUBCHEM_SHAPE_FINGERPRINT>  (1) 
10967382 1 18266181827783432730
11578080 2 17631997720339990841
116883 192 18268427945529445789
11806522 49 18411702114647428356
12553582 1 18337965510029357563
13083527 12 18264466486812995730
13140716 1 18122908887252911410
14178342 30 18267295448647957816
14251717 144 18194681694762500191
14576447 43 18270397325199763495
15001771 113 18410296878235939681
15757776 16 18340207487421303910
16945 1 18337402603452370320
20645477 70 18191015919070020175
21452121 199 18337090320253473506
21501502 16 18193563263977637792
221490 88 18047478004199515195
2255824 54 18193843858048228838
23184049 29 18192711142260896354
23388829 49 18411986875047565928
23402539 116 18409724050221695378
23419403 2 17464207843636498716
23557571 272 17913767215948237138
23559900 14 17908133284329807410
23598291 2 18057905686888628883
257057 1 18265045843272312602
2748010 2 18265619771367838240
2871803 45 18410576201507868678
3060560 45 18120651593769781638
54173680 148 17977948982094272922
59682541 52 18052503786947753679
6338986 31 18338227159547468210
7364860 26 18195808685422120577
81228 2 18192988210363479505
8199 65 18194404613447519618

>  <PUBCHEM_SHAPE_MULTIPOLES>  (1) 
323.26
5.91
3.63
0.79
3.05
0.09
0
4.73
-0.93
-0.57
-0.09
0.34
0.02
-0.51

>  <PUBCHEM_SHAPE_SELFOVERLAP>  (1) 
673.717

>  <PUBCHEM_SHAPE_VOLUME>  (1) 
183.4

>  <PUBCHEM_COORDINATE_TYPE>  (1) 
2
5
10

$$$$
