40209
     RDKit          3D

 26 26  0  0  0  0  0  0  0  0999 V2000
   -1.3737    0.5611    0.8945 O   0  0  0  0  0  0  0  0  0  0  0  0
    2.0664    0.6638   -0.0600 O   0  0  0  0  0  0  0  0  0  0  0  0
   -1.0555   -2.3415   -0.7513 O   0  0  0  0  0  0  0  0  0  0  0  0
   -1.9191   -2.7499    1.3431 O   0  0  0  0  0  0  0  0  0  0  0  0
    1.0432   -0.0846    1.8691 O   0  0  0  0  0  0  0  0  0  0  0  0
    5.7353    0.3113   -0.0577 N   0  0  0  0  0  0  0  0  0  0  0  0
   -3.1411    2.7077    0.3195 C   0  0  0  0  0  0  0  0  0  0  0  0
   -3.4564    1.2877   -0.0181 C   0  0  0  0  0  0  0  0  0  0  0  0
   -2.5654    0.2627    0.2791 C   0  0  0  0  0  0  0  0  0  0  0  0
    4.4049    0.6492   -0.5624 C   0  0  0  0  0  0  0  0  0  0  0  0
   -2.8696   -1.0558   -0.0395 C   0  0  0  0  0  0  0  0  0  0  0  0
    5.8178   -1.1158    0.2508 C   0  0  0  0  0  0  0  0  0  0  0  0
    6.7610    0.6838   -1.0314 C   0  0  0  0  0  0  0  0  0  0  0  0
   -4.6679    0.9901   -0.6422 C   0  0  0  0  0  0  0  0  0  0  0  0
   -3.0524    3.6024   -0.9303 C   0  0  0  0  0  0  0  0  0  0  0  0
   -4.1418    3.3083    1.3239 C   0  0  0  0  0  0  0  0  0  0  0  0
   -4.0810   -1.3535   -0.6636 C   0  0  0  0  0  0  0  0  0  0  0  0
    3.3378    0.3039    0.4641 C   0  0  0  0  0  0  0  0  0  0  0  0
   -4.9802   -0.3305   -0.9650 C   0  0  0  0  0  0  0  0  0  0  0  0
    7.1741   -1.4740    0.8340 C   0  0  0  0  0  0  0  0  0  0  0  0
    6.6901    2.1645   -1.3640 C   0  0  0  0  0  0  0  0  0  0  0  0
   -0.2709    0.8473    0.0576 C   0  0  0  0  0  0  0  0  0  0  0  0
   -4.4432   -2.7582   -1.0217 C   0  0  0  0  0  0  0  0  0  0  0  0
   -1.9269   -2.1232    0.2784 C   0  0  0  0  0  0  0  0  0  0  0  0
    0.9927    0.4134    0.7527 C   0  0  0  0  0  0  0  0  0  0  0  0
   -0.0783   -3.3700   -0.5594 C   0  0  0  0  0  0  0  0  0  0  0  0
  1  9  1  0
  1 22  1  0
  2 18  1  0
  2 25  1  0
  3 24  1  0
  3 26  1  0
  4 24  2  0
  5 25  2  0
  6 10  1  0
  6 12  1  0
  6 13  1  0
  7  8  1  0
  7 15  1  0
  7 16  1  0
  8  9  2  0
  8 14  1  0
  9 11  1  0
 10 18  1  0
 11 17  2  0
 11 24  1  0
 12 20  1  0
 13 21  1  0
 14 19  2  0
 17 19  1  0
 17 23  1  0
 22 25  1  0
M  END
>  <PUBCHEM_COMPOUND_CID>  (1) 
40209

>  <PUBCHEM_CONFORMER_RMSD>  (1) 
1

>  <PUBCHEM_CONFORMER_DIVERSEORDER>  (1) 
2
135
165
115
61
119
132
71
169
173
76
74
16
58
62
139
22
85
92
80
131
158
147
118
127
30
100
88
162
152
63
45
104
141
53
70
120
145
97
98
51
108
168
90
148
43
75
155
150
113
86
55
133
40
146
123
1
136
17
7
125
56
27
99
87
60
138
69
144
28
121
52
93
64
3
106
79
44
129
73
103
140
163
83
156
48
172
14
49
95
114
33
47
109
21
126
117
91
174
31
142
116
35
157
110
26
59
65
10
170
4
101
81
124
171
167
94
36
72
160
128
153
57
68
11
12
159
122
102
24
15
164
96
137
37
54
25
13
42
5
111
151
9
50
29
6
154
105
38
161
46
143
134
107
77
20
78
8
23
149
67
18
19
82
89
41
66
34
32
130
112
39
166
84

>  <PUBCHEM_MMFF94_PARTIAL_CHARGES>  (1) 
24
1 -0.36
10 0.27
11 0.09
12 0.27
13 0.27
14 -0.15
17 -0.14
18 0.28
19 -0.15
2 -0.43
22 0.34
23 0.14
24 0.63
25 0.66
26 0.28
3 -0.43
34 0.15
4 -0.57
43 0.15
5 -0.57
6 -0.81
7 0.14
8 -0.14
9 0.08

>  <PUBCHEM_EFFECTIVE_ROTOR_COUNT>  (1) 
12

>  <PUBCHEM_PHARMACOPHORE_FEATURES>  (1) 
6
1 1 acceptor
1 4 acceptor
1 5 acceptor
1 6 cation
3 7 15 16 hydrophobe
6 8 9 11 14 17 19 rings

>  <PUBCHEM_HEAVY_ATOM_COUNT>  (1) 
26

>  <PUBCHEM_ATOM_DEF_STEREO_COUNT>  (1) 
0

>  <PUBCHEM_ATOM_UDEF_STEREO_COUNT>  (1) 
0

>  <PUBCHEM_BOND_DEF_STEREO_COUNT>  (1) 
0

>  <PUBCHEM_BOND_UDEF_STEREO_COUNT>  (1) 
0

>  <PUBCHEM_ISOTOPIC_ATOM_COUNT>  (1) 
0

>  <PUBCHEM_COMPONENT_COUNT>  (1) 
1

>  <PUBCHEM_CACTVS_TAUTO_COUNT>  (1) 
1

>  <PUBCHEM_CONFORMER_ID>  (1) 
00009D1100000002

>  <PUBCHEM_MMFF94_ENERGY>  (1) 
69.5167

>  <PUBCHEM_FEATURE_SELFOVERLAP>  (1) 
30.454

>  <PUBCHEM_SHAPE_FINGERPRINT>  (1) 
10165383 225 18200597965617590177
10595046 47 18336267937886808108
10670039 82 18409720747017116593
11315181 36 17988927799145114280
12236239 1 18040713680005640204
12821665 9 18189907602791124708
12954195 1 18272651238416556401
13782708 43 17632290228902749422
13941206 138 18187079538092819667
14251757 5 18338518663383487306
14347332 77 18270958046059584503
14713325 29 18409737270352676475
14790565 3 17120586012923827945
15021287 119 17458349602839719164
15183329 4 18334012770797410262
15250474 111 18334569136582246138
16990350 14 16761429409892540352
16992828 155 17678455260220676517
17844677 252 18271809064313518992
19489759 90 18343862203926664936
21236236 1 18412544292919631677
23081809 10 18187367619493569840
23198884 109 18186800292171655166
23559900 14 18199736102376086985
3004659 81 18408603644295475138
328310 630 17096383872564348180
3610482 184 18188229644793661852
5085150 59 18059283276317130534
5265222 85 18271529813944582102
5283173 99 18342738524992895688
531348 171 18337106757224865402
559249 180 18410569544741141530
59755656 520 17488195798662545537
6327066 14 18044652002098570221
70251023 43 17256803928737431339
9981440 41 18410017606862840899

>  <PUBCHEM_SHAPE_MULTIPOLES>  (1) 
500.74
16.65
3.9
1.23
36.44
0.15
0.15
3.23
-3.84
-5.08
-0.35
0.18
0.18
-2.36

>  <PUBCHEM_SHAPE_SELFOVERLAP>  (1) 
1009.182

>  <PUBCHEM_SHAPE_VOLUME>  (1) 
296.2

>  <PUBCHEM_COORDINATE_TYPE>  (1) 
2
5
10

$$$$
