40217
     RDKit          3D

 24 25  0  0  0  0  0  0  0  0999 V2000
    5.7579   -0.0111    0.5273 O   0  0  0  0  0  0  0  0  0  0  0  0
   -0.4256    0.6839   -0.9643 O   0  0  0  0  0  0  0  0  0  0  0  0
   -0.4973   -2.4595    0.1904 O   0  0  0  0  0  0  0  0  0  0  0  0
   -1.4503   -2.4035   -1.9042 O   0  0  0  0  0  0  0  0  0  0  0  0
    3.1626    0.9317   -0.1634 N   0  0  0  0  0  0  0  0  0  0  0  0
    3.3580   -0.3644    0.5008 C   0  0  0  0  0  0  0  0  0  0  0  0
    4.3421    1.2649   -0.9741 C   0  0  0  0  0  0  0  0  0  0  0  0
    1.9548    0.9165   -0.9861 C   0  0  0  0  0  0  0  0  0  0  0  0
    4.6296   -0.3277    1.3435 C   0  0  0  0  0  0  0  0  0  0  0  0
    5.5911    1.2623   -0.0973 C   0  0  0  0  0  0  0  0  0  0  0  0
    0.7237    0.6737   -0.1278 C   0  0  0  0  0  0  0  0  0  0  0  0
   -1.8543    2.9347    0.0128 C   0  0  0  0  0  0  0  0  0  0  0  0
   -2.3650    1.5368    0.1353 C   0  0  0  0  0  0  0  0  0  0  0  0
   -1.6337    0.4598   -0.3574 C   0  0  0  0  0  0  0  0  0  0  0  0
   -2.1220   -0.8381   -0.2359 C   0  0  0  0  0  0  0  0  0  0  0  0
   -3.5950    1.3140    0.7545 C   0  0  0  0  0  0  0  0  0  0  0  0
   -3.3521   -1.0608    0.3831 C   0  0  0  0  0  0  0  0  0  0  0  0
   -2.7759    3.8236   -0.8423 C   0  0  0  0  0  0  0  0  0  0  0  0
   -1.6144    3.5941    1.3833 C   0  0  0  0  0  0  0  0  0  0  0  0
   -4.0885    0.0153    0.8782 C   0  0  0  0  0  0  0  0  0  0  0  0
   -1.3486   -1.9610   -0.7552 C   0  0  0  0  0  0  0  0  0  0  0  0
   -3.9065   -2.4405    0.5301 C   0  0  0  0  0  0  0  0  0  0  0  0
    0.3203   -3.5678   -0.2007 C   0  0  0  0  0  0  0  0  0  0  0  0
    1.1891   -3.9769    0.9695 C   0  0  0  0  0  0  0  0  0  0  0  0
  1  9  1  0
  1 10  1  0
  2 11  1  0
  2 14  1  0
  3 21  1  0
  3 23  1  0
  4 21  2  0
  5  6  1  0
  5  7  1  0
  5  8  1  0
  6  9  1  0
  7 10  1  0
  8 11  1  0
 12 13  1  0
 12 18  1  0
 12 19  1  0
 13 14  2  0
 13 16  1  0
 14 15  1  0
 15 17  2  0
 15 21  1  0
 16 20  2  0
 17 20  1  0
 17 22  1  0
 23 24  1  0
M  END
>  <PUBCHEM_COMPOUND_CID>  (1) 
40217

>  <PUBCHEM_CONFORMER_RMSD>  (1) 
1

>  <PUBCHEM_CONFORMER_DIVERSEORDER>  (1) 
1
25
34
21
7
20
12
29
31
32
26
23
10
27
5
13
15
28
18
22
33
11
19
14
24
16
17
3
8
30
9
4
2
6

>  <PUBCHEM_MMFF94_PARTIAL_CHARGES>  (1) 
23
1 -0.56
10 0.28
11 0.28
12 0.14
13 -0.14
14 0.08
15 0.09
16 -0.15
17 -0.14
2 -0.36
20 -0.15
21 0.63
22 0.14
23 0.28
3 -0.43
38 0.15
4 -0.57
45 0.15
5 -0.81
6 0.27
7 0.27
8 0.27
9 0.28

>  <PUBCHEM_EFFECTIVE_ROTOR_COUNT>  (1) 
9.2

>  <PUBCHEM_PHARMACOPHORE_FEATURES>  (1) 
7
1 1 acceptor
1 2 acceptor
1 4 acceptor
1 5 cation
3 12 18 19 hydrophobe
6 1 5 6 7 9 10 rings
6 13 14 15 16 17 20 rings

>  <PUBCHEM_HEAVY_ATOM_COUNT>  (1) 
24

>  <PUBCHEM_ATOM_DEF_STEREO_COUNT>  (1) 
0

>  <PUBCHEM_ATOM_UDEF_STEREO_COUNT>  (1) 
0

>  <PUBCHEM_BOND_DEF_STEREO_COUNT>  (1) 
0

>  <PUBCHEM_BOND_UDEF_STEREO_COUNT>  (1) 
0

>  <PUBCHEM_ISOTOPIC_ATOM_COUNT>  (1) 
0

>  <PUBCHEM_COMPONENT_COUNT>  (1) 
1

>  <PUBCHEM_CACTVS_TAUTO_COUNT>  (1) 
1

>  <PUBCHEM_CONFORMER_ID>  (1) 
00009D1900000001

>  <PUBCHEM_MMFF94_ENERGY>  (1) 
66.7453

>  <PUBCHEM_FEATURE_SELFOVERLAP>  (1) 
35.522

>  <PUBCHEM_SHAPE_FINGERPRINT>  (1) 
10670039 82 18410865369387854020
1100329 8 17906177605062618019
11578080 2 16807285801006868215
12107183 9 17756418267265972152
12422481 6 17903051375756282730
12553582 1 18195803196638500286
12633257 1 17988091087517628457
12788726 201 18338808934569284420
12930653 34 18337956671107435957
13140716 1 18340215201731447297
13167823 11 18333730230653148320
14178342 30 18335989653448130812
14251751 93 18336262358133161032
14251757 5 18267595778715564268
14420673 8 18122346775240716158
15042514 8 18339367477928613791
15420108 30 17988657251082383515
20510252 161 18342183270993036601
20600515 1 17986131792610421653
23402539 116 18200592617934023599
23559900 14 17835518224130330666
23728640 28 18339645671344913218
283562 15 18410575102243868297
3178227 256 18121799476432854715
338550 245 18335426717076112510
469060 322 18266762314220134811
5265222 85 18270973465967889726
9862522 239 18338227159610726421
9981440 41 18195524797027731009

>  <PUBCHEM_SHAPE_MULTIPOLES>  (1) 
465.45
9.71
4.79
1.2
14.54
1.27
0.07
-3.16
-2.14
-3.44
-0.29
0.06
0.01
-0.81

>  <PUBCHEM_SHAPE_SELFOVERLAP>  (1) 
952.674

>  <PUBCHEM_SHAPE_VOLUME>  (1) 
271

>  <PUBCHEM_COORDINATE_TYPE>  (1) 
2
5
10

$$$$
