40213
     RDKit          3D

 22 22  0  0  0  0  0  0  0  0999 V2000
    0.0095    0.4633   -0.9257 O   0  0  0  0  0  0  0  0  0  0  0  0
   -0.0330   -2.4541    0.7232 O   0  0  0  0  0  0  0  0  0  0  0  0
    0.7638   -2.8021   -1.4083 O   0  0  0  0  0  0  0  0  0  0  0  0
   -3.4966    0.3608    0.2067 N   0  0  0  0  0  0  0  0  0  0  0  0
    1.6464    2.7280   -0.4211 C   0  0  0  0  0  0  0  0  0  0  0  0
    2.0746    1.3333   -0.1028 C   0  0  0  0  0  0  0  0  0  0  0  0
   -2.3539    0.1819   -0.6883 C   0  0  0  0  0  0  0  0  0  0  0  0
    1.2419    0.2492   -0.3658 C   0  0  0  0  0  0  0  0  0  0  0  0
   -1.0742    0.6717   -0.0296 C   0  0  0  0  0  0  0  0  0  0  0  0
    1.6544   -1.0456   -0.0640 C   0  0  0  0  0  0  0  0  0  0  0  0
   -3.6541    1.7713    0.5589 C   0  0  0  0  0  0  0  0  0  0  0  0
   -4.7177   -0.1502   -0.4151 C   0  0  0  0  0  0  0  0  0  0  0  0
    3.3301    1.1206    0.4666 C   0  0  0  0  0  0  0  0  0  0  0  0
    2.9098   -1.2582    0.5055 C   0  0  0  0  0  0  0  0  0  0  0  0
    1.5502    3.6136    0.8348 C   0  0  0  0  0  0  0  0  0  0  0  0
    2.5575    3.3977   -1.4661 C   0  0  0  0  0  0  0  0  0  0  0  0
    3.7477   -0.1751    0.7709 C   0  0  0  0  0  0  0  0  0  0  0  0
   -4.7997    1.9684    1.5372 C   0  0  0  0  0  0  0  0  0  0  0  0
   -4.5721   -1.6158   -0.7880 C   0  0  0  0  0  0  0  0  0  0  0  0
    3.3843   -2.6344    0.8426 C   0  0  0  0  0  0  0  0  0  0  0  0
    0.7750   -2.1760   -0.3432 C   0  0  0  0  0  0  0  0  0  0  0  0
   -0.9439   -3.5481    0.5715 C   0  0  0  0  0  0  0  0  0  0  0  0
  1  8  1  0
  1  9  1  0
  2 21  1  0
  2 22  1  0
  3 21  2  0
  4  7  1  0
  4 11  1  0
  4 12  1  0
  5  6  1  0
  5 15  1  0
  5 16  1  0
  6  8  2  0
  6 13  1  0
  7  9  1  0
  8 10  1  0
 10 14  2  0
 10 21  1  0
 11 18  1  0
 12 19  1  0
 13 17  2  0
 14 17  1  0
 14 20  1  0
M  END
>  <PUBCHEM_COMPOUND_CID>  (1) 
40213

>  <PUBCHEM_CONFORMER_RMSD>  (1) 
0.8

>  <PUBCHEM_CONFORMER_DIVERSEORDER>  (1) 
1
80
31
97
94
76
38
66
88
56
60
65
90
64
72
54
5
69
63
47
33
57
42
70
87
58
39
67
81
28
95
78
68
79
45
84
93
51
62
74
46
40
29
25
23
55
61
34
50
27
52
2
59
48
36
53
85
8
37
43
71
35
32
7
92
11
41
30
26
49
20
73
22
12
91
6
3
44
83
96
21
9
14
10
19
13
18
4
17
16
75
86
15
24
77
82
89

>  <PUBCHEM_MMFF94_PARTIAL_CHARGES>  (1) 
20
1 -0.36
10 0.09
11 0.27
12 0.27
13 -0.15
14 -0.14
17 -0.15
2 -0.43
20 0.14
21 0.63
22 0.28
3 -0.57
32 0.15
39 0.15
4 -0.81
5 0.14
6 -0.14
7 0.27
8 0.08
9 0.28

>  <PUBCHEM_EFFECTIVE_ROTOR_COUNT>  (1) 
9

>  <PUBCHEM_PHARMACOPHORE_FEATURES>  (1) 
5
1 1 acceptor
1 3 acceptor
1 4 cation
3 5 15 16 hydrophobe
6 6 8 10 13 14 17 rings

>  <PUBCHEM_HEAVY_ATOM_COUNT>  (1) 
22

>  <PUBCHEM_ATOM_DEF_STEREO_COUNT>  (1) 
0

>  <PUBCHEM_ATOM_UDEF_STEREO_COUNT>  (1) 
0

>  <PUBCHEM_BOND_DEF_STEREO_COUNT>  (1) 
0

>  <PUBCHEM_BOND_UDEF_STEREO_COUNT>  (1) 
0

>  <PUBCHEM_ISOTOPIC_ATOM_COUNT>  (1) 
0

>  <PUBCHEM_COMPONENT_COUNT>  (1) 
1

>  <PUBCHEM_CACTVS_TAUTO_COUNT>  (1) 
1

>  <PUBCHEM_CONFORMER_ID>  (1) 
00009D1500000001

>  <PUBCHEM_MMFF94_ENERGY>  (1) 
65.343

>  <PUBCHEM_FEATURE_SELFOVERLAP>  (1) 
25.371

>  <PUBCHEM_SHAPE_FINGERPRINT>  (1) 
10006869 2 17907298011278670363
1100329 8 18336824303618252968
12403260 363 18339071692104938171
12553582 1 17977669710546613535
12633257 1 18336545997968684627
12788726 201 16750161103618855044
12954195 1 17761515968176100548
13140716 1 18048301538846302960
13533116 47 18409166654061615737
13583140 156 17241038907357417211
13965767 371 16692475767233220449
14178342 30 18270675355802229945
14251757 5 15819610744751952527
14251764 38 18336550507826815867
14790565 3 18337397140550323884
14844126 61 16387881282290188787
16945 1 18188198888680060662
20028762 73 18270948081847234791
20739085 24 18265339413125088952
21197605 99 18049164659959582555
21421861 104 17251465288218416050
21524375 3 18338795748692527669
2255824 54 18409174306854924573
23558518 356 17975130160919507954
23559900 14 18341039766595295001
350125 39 17902791104885061076
474 4 18409731759719497449
5104073 3 18341890754061395739
5312544 6 18193551392535103109
6443956 14 18192432961275954605
7097593 13 18197220252673926021
81228 2 16754107250966701592
9709674 26 18410859858797671879

>  <PUBCHEM_SHAPE_MULTIPOLES>  (1) 
430.16
8.38
4.54
1.16
10.82
0.08
0.04
1.7
-1.53
-2.41
-0.15
0.2
0.32
-1.81

>  <PUBCHEM_SHAPE_SELFOVERLAP>  (1) 
865.83

>  <PUBCHEM_SHAPE_VOLUME>  (1) 
256

>  <PUBCHEM_COORDINATE_TYPE>  (1) 
2
5
10

$$$$
