40211
     RDKit          3D

 20 20  0  0  0  0  0  0  0  0999 V2000
   -0.4596    0.5680    0.8378 O   0  0  0  0  0  0  0  0  0  0  0  0
   -0.6292   -2.4391   -0.6251 O   0  0  0  0  0  0  0  0  0  0  0  0
    0.0709   -2.7004    1.5522 O   0  0  0  0  0  0  0  0  0  0  0  0
   -3.9206    0.5939   -0.4299 N   0  0  0  0  0  0  0  0  0  0  0  0
    1.3333    2.6917    0.2579 C   0  0  0  0  0  0  0  0  0  0  0  0
    1.6840    1.2560    0.0436 C   0  0  0  0  0  0  0  0  0  0  0  0
    0.7761    0.2436    0.3420 C   0  0  0  0  0  0  0  0  0  0  0  0
    1.1171   -1.0906    0.1383 C   0  0  0  0  0  0  0  0  0  0  0  0
    2.9425    0.9317   -0.4630 C   0  0  0  0  0  0  0  0  0  0  0  0
    2.3757   -1.4149   -0.3681 C   0  0  0  0  0  0  0  0  0  0  0  0
    1.3367    3.4988   -1.0534 C   0  0  0  0  0  0  0  0  0  0  0  0
    2.2480    3.3711    1.2936 C   0  0  0  0  0  0  0  0  0  0  0  0
   -1.4949    0.7834   -0.1122 C   0  0  0  0  0  0  0  0  0  0  0  0
    3.2883   -0.4038   -0.6687 C   0  0  0  0  0  0  0  0  0  0  0  0
   -2.8208    0.3726    0.5084 C   0  0  0  0  0  0  0  0  0  0  0  0
    2.7751   -2.8361   -0.5997 C   0  0  0  0  0  0  0  0  0  0  0  0
    0.1587   -2.1451    0.4520 C   0  0  0  0  0  0  0  0  0  0  0  0
   -3.9762    1.9994   -0.8299 C   0  0  0  0  0  0  0  0  0  0  0  0
   -5.1910    0.1812    0.1654 C   0  0  0  0  0  0  0  0  0  0  0  0
   -1.6142   -3.4616   -0.4411 C   0  0  0  0  0  0  0  0  0  0  0  0
  1  7  1  0
  1 13  1  0
  2 17  1  0
  2 20  1  0
  3 17  2  0
  4 15  1  0
  4 18  1  0
  4 19  1  0
  5  6  1  0
  5 11  1  0
  5 12  1  0
  6  7  2  0
  6  9  1  0
  7  8  1  0
  8 10  2  0
  8 17  1  0
  9 14  2  0
 10 14  1  0
 10 16  1  0
 13 15  1  0
M  END
>  <PUBCHEM_COMPOUND_CID>  (1) 
40211

>  <PUBCHEM_CONFORMER_RMSD>  (1) 
0.8

>  <PUBCHEM_CONFORMER_DIVERSEORDER>  (1) 
5
42
30
34
32
14
16
27
13
36
31
10
15
39
38
22
29
11
37
9
26
20
19
21
12
33
17
6
8
35
41
3
28
25
40
1
4
24
7
2
43
23
18

>  <PUBCHEM_MMFF94_PARTIAL_CHARGES>  (1) 
20
1 -0.36
10 -0.14
13 0.28
14 -0.15
15 0.27
16 0.14
17 0.63
18 0.27
19 0.27
2 -0.43
20 0.28
22 0.15
3 -0.57
31 0.15
4 -0.81
5 0.14
6 -0.14
7 0.08
8 0.09
9 -0.15

>  <PUBCHEM_EFFECTIVE_ROTOR_COUNT>  (1) 
7

>  <PUBCHEM_PHARMACOPHORE_FEATURES>  (1) 
5
1 1 acceptor
1 3 acceptor
1 4 cation
3 5 11 12 hydrophobe
6 6 7 8 9 10 14 rings

>  <PUBCHEM_HEAVY_ATOM_COUNT>  (1) 
20

>  <PUBCHEM_ATOM_DEF_STEREO_COUNT>  (1) 
0

>  <PUBCHEM_ATOM_UDEF_STEREO_COUNT>  (1) 
0

>  <PUBCHEM_BOND_DEF_STEREO_COUNT>  (1) 
0

>  <PUBCHEM_BOND_UDEF_STEREO_COUNT>  (1) 
0

>  <PUBCHEM_ISOTOPIC_ATOM_COUNT>  (1) 
0

>  <PUBCHEM_COMPONENT_COUNT>  (1) 
1

>  <PUBCHEM_CACTVS_TAUTO_COUNT>  (1) 
1

>  <PUBCHEM_CONFORMER_ID>  (1) 
00009D1300000005

>  <PUBCHEM_MMFF94_ENERGY>  (1) 
67.7409

>  <PUBCHEM_FEATURE_SELFOVERLAP>  (1) 
25.371

>  <PUBCHEM_SHAPE_FINGERPRINT>  (1) 
10967382 1 18411422778327210166
11578080 2 16843874489435095978
116883 192 17042316143702217125
12553582 1 17834114139555749209
13140716 1 18196085766937613464
13149001 5 18268731517996791646
15210252 30 17532666624089520588
16945 1 18271815631048865386
17980427 23 17913738817487176778
20645477 70 18338793395815236503
21524375 3 18335142007424389003
21634736 98 18201150031469157839
221490 88 18409456886054922627
22289505 5 17828192208763127941
2334 1 17763755681793194952
23558518 356 18047182239723737667
23559900 14 18129950091636346472
238 59 18046312329021985981
2748010 2 18265910055301296144
283562 15 17907023868196093482
3060560 45 18408881811208182853
350125 39 17979084008885812288
59554788 191 18267868474805450454
6443956 14 18196096529920084669
7364860 26 18343016696506785241
81228 2 17615125920406180161

>  <PUBCHEM_SHAPE_MULTIPOLES>  (1) 
389
6.61
4.62
1.03
9.55
0.21
0.15
-1.96
-1.17
-2.21
-0.09
-0.19
-0.21
0.76

>  <PUBCHEM_SHAPE_SELFOVERLAP>  (1) 
787.969

>  <PUBCHEM_SHAPE_VOLUME>  (1) 
230.4

>  <PUBCHEM_COORDINATE_TYPE>  (1) 
2
5
10

$$$$
