40223
     RDKit          3D

 24 26  0  0  1  0  0  0  0  0999 V2000
    1.9870    0.0929   -1.6250 O   0  0  0  0  0  0  0  0  0  0  0  0
   -1.2585    0.1487   -0.0929 O   0  0  0  0  0  0  0  0  0  0  0  0
   -0.5226    0.7888   -2.1810 O   0  0  0  0  0  0  0  0  0  0  0  0
   -4.9218    0.5482    0.3015 N   0  0  0  0  0  0  0  0  0  0  0  0
    1.4958    0.9434    0.5442 C   0  0  0  0  0  0  0  0  0  0  0  0
    2.9566    0.7889    1.0441 C   0  0  0  0  0  0  0  0  0  0  0  0
    2.8731    2.9383    0.4379 C   0  0  0  0  0  0  0  0  0  0  0  0
    1.4606    2.4297    0.0695 C   0  0  0  0  0  0  0  0  0  0  0  0
    3.1579    2.1512    1.7209 C   0  0  0  0  0  0  0  0  0  0  0  0
    1.0719   -0.0483   -0.5290 C   0  0  0  0  0  0  0  0  0  0  0  0
    3.9151    0.9660   -0.1107 C   0  0  0  0  0  0  0  0  0  0  0  0
    3.8606    2.2548   -0.4776 C   0  0  0  0  0  0  0  0  0  0  0  0
    1.0921   -1.5265   -0.1393 C   0  0  0  0  0  0  0  0  0  0  0  0
   -0.3110    0.3477   -1.0578 C   0  0  0  0  0  0  0  0  0  0  0  0
    1.4460   -2.4556   -1.0914 C   0  0  0  0  0  0  0  0  0  0  0  0
    0.7553   -1.8743    1.1495 C   0  0  0  0  0  0  0  0  0  0  0  0
   -2.5971    0.4954   -0.4607 C   0  0  0  0  0  0  0  0  0  0  0  0
   -3.5300    0.2221    0.7025 C   0  0  0  0  0  0  0  0  0  0  0  0
    1.4642   -3.8043   -0.7358 C   0  0  0  0  0  0  0  0  0  0  0  0
    0.7737   -3.2229    1.5051 C   0  0  0  0  0  0  0  0  0  0  0  0
    1.1281   -4.1880    0.5625 C   0  0  0  0  0  0  0  0  0  0  0  0
   -5.0491    2.0328   -0.0663 C   0  0  0  0  0  0  0  0  0  0  0  0
   -5.3469   -0.2835   -0.9162 C   0  0  0  0  0  0  0  0  0  0  0  0
   -5.9011    0.2543    1.4461 C   0  0  0  0  0  0  0  0  0  0  0  0
  1 10  1  0
  2 14  1  0
  2 17  1  0
  3 14  2  0
  4 18  1  0
  4 22  1  0
  4 23  1  0
  4 24  1  0
  5  6  1  0
  5  8  1  0
  5 10  1  0
  6  9  1  0
  6 11  1  0
  7  8  1  0
  7  9  1  0
  7 12  1  0
 10 13  1  0
 10 14  1  0
 11 12  2  0
 13 15  2  0
 13 16  1  0
 15 19  1  0
 16 20  2  0
 17 18  1  0
 19 21  2  0
 20 21  1  0
M  CHG  1   4   1
M  END
>  <PUBCHEM_COMPOUND_CID>  (1) 
40223

>  <PUBCHEM_CONFORMER_RMSD>  (1) 
0.8

>  <PUBCHEM_CONFORMER_DIVERSEORDER>  (1) 
1
96
237
86
91
231
313
291
169
186
153
121
320
227
209
50
62
85
119
183
92
318
314
127
108
213
210
207
229
40
125
263
196
76
34
223
87
10
171
220
228
161
174
230
45
78
317
162
100
321
7
60
322
28
270
131
33
221
294
301
120
52
279
166
276
83
310
111
274
203
324
283
167
163
319
195
112
39
214
255
175
261
146
181
311
238
88
159
13
225
257
98
243
158
132
297
293
205
148
124
23
81
51
63
58
273
113
190
30
31
123
249
79
117
41
151
248
187
73
95
292
217
290
139
189
74
295
128
142
97
154
197
106
164
268
16
145
280
56
105
289
115
54
104
57
256
20
179
155
191
325
235
93
288
89
185
84
137
198
184
80
278
202
101
46
241
144
156
303
218
234
6
298
233
135
55
103
140
136
17
211
204
312
170
287
193
69
240
245
224
168
236
143
19
323
188
65
82
258
285
116
72
219
266
267
286
206
271
38
147
239
61
68
252
173
254
296
22
222
134
246
27
172
53
253
281
299
21
232
25
75
35
260
42
176
141
304
118
247
4
180
9
59
43
138
126
70
200
12
178
160
32
37
302
129
14
165
109
284
199
18
26
306
309
275
77
250
308
208
15
259
47
201
99
110
5
49
182
265
133
212
107
29
150
2
269
152
66
307
157
316
149
67
315
244
71
130
264
216
64
226
242
122
102
24
305
3
8
48
44
114
215
11
262
194
90
272
251
300
282
36
192
94
277
177

>  <PUBCHEM_MMFF94_PARTIAL_CHARGES>  (1) 
29
1 -0.68
10 0.48
11 -0.29
12 -0.29
13 -0.14
14 0.66
15 -0.15
16 -0.15
17 0.28
18 0.5
19 -0.15
2 -0.43
20 -0.15
21 -0.15
22 0.5
23 0.5
24 0.5
3 -0.57
32 0.15
33 0.15
34 0.4
35 0.15
36 0.15
4 -1.01
41 0.15
42 0.15
43 0.15
6 0.14
7 0.14

>  <PUBCHEM_EFFECTIVE_ROTOR_COUNT>  (1) 
7.6

>  <PUBCHEM_PHARMACOPHORE_FEATURES>  (1) 
6
1 1 acceptor
1 1 donor
1 3 acceptor
1 4 cation
6 13 15 16 19 20 21 rings
7 5 6 7 8 9 11 12 rings

>  <PUBCHEM_HEAVY_ATOM_COUNT>  (1) 
24

>  <PUBCHEM_ATOM_DEF_STEREO_COUNT>  (1) 
0

>  <PUBCHEM_ATOM_UDEF_STEREO_COUNT>  (1) 
4

>  <PUBCHEM_BOND_DEF_STEREO_COUNT>  (1) 
0

>  <PUBCHEM_BOND_UDEF_STEREO_COUNT>  (1) 
0

>  <PUBCHEM_ISOTOPIC_ATOM_COUNT>  (1) 
0

>  <PUBCHEM_COMPONENT_COUNT>  (1) 
1

>  <PUBCHEM_CACTVS_TAUTO_COUNT>  (1) 
1

>  <PUBCHEM_CONFORMER_ID>  (1) 
00009D1F00000001

>  <PUBCHEM_MMFF94_ENERGY>  (1) 
98.0281

>  <PUBCHEM_FEATURE_SELFOVERLAP>  (1) 
30.454

>  <PUBCHEM_SHAPE_FINGERPRINT>  (1) 
10090160 65 18340763840637456261
114674 6 18115030693267043211
12035758 1 18336251380877585802
12107183 9 17623015595478681497
12730499 353 18338529598676191387
12788726 201 17401471041358293154
13009979 54 16842492128535701547
13140716 1 18339349851388034442
13533116 47 18337398120176315939
13583140 156 18412259507298693645
13692114 37 18198329839905367871
13878862 14 18121199997561327221
13955234 65 18340773645931742451
14178342 30 18189058745443940079
14863182 85 18187940490230510583
14955137 171 18198052587287372866
15142526 21 18057596779850778489
15338160 23 17473818910861654992
15775530 1 17608347074522670469
15927050 60 18339922731818047150
17868525 174 17907297650712524769
1813 80 17485372166460186334
20567600 347 18336262426810751715
20739085 24 18260828189735966220
21049683 118 17909799331258800689
21054139 6 18127677422112210487
21120745 212 17260762746186099334
21421861 104 18267305331130283625
21731228 192 18264762336728474786
21756936 100 18054500581040502656
21796203 349 17907043702155295539
22956985 138 17751626676885669618
23558518 356 17765420333623044964
23559900 14 17823428106499495173
25222932 49 14998569614202619585
268830 7 18059019372415267489
298252 57 16845013532215676916
31174 14 18264763251641229799
3178227 256 18409455760857679586
3421961 26 18265334993524600667
4058900 60 18336277794230415736
427121 178 18336551602616039338
4340502 62 18411139173479289523
458136 41 18409165515225408342
474 4 18342176721410633209
58260988 521 18040997315667802058
5895379 119 16698376919338476449
59755656 520 18267573788335536716
633830 44 18130220574763066548
6442390 28 18337955717513893820
653340 110 18193846074853526755
7364860 26 18340486651547451214
81228 2 17468735834330233294
8272917 22 18341051835147487137
9777508 108 18122909986453666499
9841814 1 18121780534782982211
9999458 23 18411703192584253100

>  <PUBCHEM_SHAPE_MULTIPOLES>  (1) 
471.32
9.39
4.37
1.51
19.37
4.89
-0.06
-7.11
1.78
-4.67
0.78
-0.06
0.17
0.43

>  <PUBCHEM_SHAPE_SELFOVERLAP>  (1) 
1006.511

>  <PUBCHEM_SHAPE_VOLUME>  (1) 
266.9

>  <PUBCHEM_COORDINATE_TYPE>  (1) 
2
5
10

$$$$
