40221
     RDKit          3D

 15 16  0  0  1  0  0  0  0  0999 V2000
    1.9175    0.8076   -1.7017 O   0  0  0  0  0  0  0  0  0  0  0  0
   -3.3733    1.7559    0.3591 O   0  0  0  0  0  0  0  0  0  0  0  0
   -3.8672   -0.9751    0.2308 O   0  0  0  0  0  0  0  0  0  0  0  0
    3.5356    1.5277    0.7075 N   0  0  0  0  0  0  0  0  0  0  0  0
    2.4036    0.5874    0.6862 C   0  0  0  0  0  0  0  0  0  0  0  0
    2.9602   -0.8290    0.4752 C   0  0  0  0  0  0  0  0  0  0  0  0
    1.4094    1.0622   -0.3920 C   0  0  0  0  0  0  0  0  0  0  0  0
    1.9178   -1.9417    0.5807 C   0  0  0  0  0  0  0  0  0  0  0  0
    0.8668   -1.9195   -0.5261 C   0  0  0  0  0  0  0  0  0  0  0  0
    0.0220    0.4734   -0.2256 C   0  0  0  0  0  0  0  0  0  0  0  0
   -0.2293   -0.9108   -0.2869 C   0  0  0  0  0  0  0  0  0  0  0  0
   -1.0557    1.3525   -0.0076 C   0  0  0  0  0  0  0  0  0  0  0  0
   -1.5483   -1.3754   -0.1319 C   0  0  0  0  0  0  0  0  0  0  0  0
   -2.3564    0.8751    0.1474 C   0  0  0  0  0  0  0  0  0  0  0  0
   -2.6029   -0.4901    0.0850 C   0  0  0  0  0  0  0  0  0  0  0  0
  1  7  1  0
  2 14  1  0
  3 15  1  0
  4  5  1  0
  5  6  1  0
  5  7  1  0
  6  8  1  0
  7 10  1  0
  8  9  1  0
  9 11  1  0
 10 11  2  0
 10 12  1  0
 11 13  1  0
 12 14  2  0
 13 15  2  0
 14 15  1  0
M  END
>  <PUBCHEM_COMPOUND_CID>  (1) 
40221

>  <PUBCHEM_CONFORMER_RMSD>  (1) 
0.4

>  <PUBCHEM_CONFORMER_DIVERSEORDER>  (1) 
1
2
4
3

>  <PUBCHEM_MMFF94_PARTIAL_CHARGES>  (1) 
20
1 -0.68
10 -0.14
11 -0.14
12 -0.15
13 -0.15
14 0.08
15 0.08
2 -0.53
24 0.15
25 0.36
26 0.36
27 0.15
28 0.4
29 0.45
3 -0.53
30 0.45
4 -0.99
5 0.27
7 0.42
9 0.14

>  <PUBCHEM_EFFECTIVE_ROTOR_COUNT>  (1) 
1

>  <PUBCHEM_PHARMACOPHORE_FEATURES>  (1) 
8
1 1 acceptor
1 1 donor
1 2 donor
1 3 donor
1 4 cation
1 4 donor
6 10 11 12 13 14 15 rings
7 5 6 7 8 9 10 11 rings

>  <PUBCHEM_HEAVY_ATOM_COUNT>  (1) 
15

>  <PUBCHEM_ATOM_DEF_STEREO_COUNT>  (1) 
2

>  <PUBCHEM_ATOM_UDEF_STEREO_COUNT>  (1) 
0

>  <PUBCHEM_BOND_DEF_STEREO_COUNT>  (1) 
0

>  <PUBCHEM_BOND_UDEF_STEREO_COUNT>  (1) 
0

>  <PUBCHEM_ISOTOPIC_ATOM_COUNT>  (1) 
0

>  <PUBCHEM_COMPONENT_COUNT>  (1) 
1

>  <PUBCHEM_CACTVS_TAUTO_COUNT>  (1) 
18

>  <PUBCHEM_CONFORMER_ID>  (1) 
00009D1D00000001

>  <PUBCHEM_MMFF94_ENERGY>  (1) 
33.3336

>  <PUBCHEM_FEATURE_SELFOVERLAP>  (1) 
40.609

>  <PUBCHEM_SHAPE_FINGERPRINT>  (1) 
10608611 8 18339919316590617817
10967382 1 18339077202178518907
12251169 10 18408600378996470290
12382932 28 18412260601766020897
12696612 119 18334016051487818702
13140716 1 18266465304499759723
14144814 61 18409728456583568281
14325111 11 18412542106728452633
15219456 202 18412542076800682171
15536298 74 18342455928807869074
15775835 57 18200593712860656930
16945 1 18265341775209103375
17804303 29 18340206267972429622
17990270 104 18339080372007223914
20510252 161 18202568401511219425
20511035 2 18411140199285636678
20525323 117 18341886411801946959
20559304 39 18334299806970870205
21501502 16 18409732824749950491
21501925 9 18334010597164260811
22445834 79 18335413543657074178
2334 1 18410299090528926663
23388829 49 18267011933261029455
23463225 33 18335138678518642959
23552423 10 18187933850089790383
2748010 2 18338525127551867679
3248919 1 17676493873251477409
53812653 8 18119259595085458252
7364860 26 18200596891279166534

>  <PUBCHEM_SHAPE_MULTIPOLES>  (1) 
286.1
5.47
2.06
0.89
1.78
0.32
-0.23
-0.93
1.27
-0.31
0.08
-0.51
-0.11
-0.16

>  <PUBCHEM_SHAPE_SELFOVERLAP>  (1) 
605.871

>  <PUBCHEM_SHAPE_VOLUME>  (1) 
158.9

>  <PUBCHEM_COORDINATE_TYPE>  (1) 
2
5
10

$$$$
