40230
     RDKit          3D

 15 16  0  0  0  0  0  0  0  0999 V2000
   -4.2530    0.3544   -0.0115 O   0  0  0  0  0  0  0  0  0  0  0  0
   -2.4949   -1.6122    0.0056 O   0  0  0  0  0  0  0  0  0  0  0  0
    0.0467    0.9648    0.0049 N   0  0  0  0  0  0  0  0  0  0  0  0
    0.4740   -1.2134   -0.0004 C   0  0  0  0  0  0  0  0  0  0  0  0
    1.7147   -0.5168   -0.0013 C   0  0  0  0  0  0  0  0  0  0  0  0
   -0.5328   -0.2757    0.0034 C   0  0  0  0  0  0  0  0  0  0  0  0
    1.4184    0.8481    0.0020 C   0  0  0  0  0  0  0  0  0  0  0  0
    3.0656   -0.9173   -0.0046 C   0  0  0  0  0  0  0  0  0  0  0  0
    0.3011   -2.6821   -0.0026 C   0  0  0  0  0  0  0  0  0  0  0  0
   -1.9478   -0.4819    0.0056 C   0  0  0  0  0  0  0  0  0  0  0  0
    2.4094    1.8360    0.0020 C   0  0  0  0  0  0  0  0  0  0  0  0
    4.0675    0.0598   -0.0044 C   0  0  0  0  0  0  0  0  0  0  0  0
    3.7422    1.4148   -0.0012 C   0  0  0  0  0  0  0  0  0  0  0  0
   -2.8913    0.7379    0.0100 C   0  0  0  0  0  0  0  0  0  0  0  0
   -5.1198    1.4837   -0.0075 C   0  0  0  0  0  0  0  0  0  0  0  0
  1 14  1  0
  1 15  1  0
  2 10  2  0
  3  6  1  0
  3  7  1  0
  4  5  1  0
  4  6  2  0
  4  9  1  0
  5  7  2  0
  5  8  1  0
  6 10  1  0
  7 11  1  0
  8 12  2  0
 10 14  1  0
 11 13  2  0
 12 13  1  0
M  END
>  <PUBCHEM_COMPOUND_CID>  (1) 
40230

>  <PUBCHEM_CONFORMER_RMSD>  (1) 
0.6

>  <PUBCHEM_CONFORMER_DIVERSEORDER>  (1) 
1
9
7
17
2
3
8
15
12
4
10
16
6
13
11
5
14

>  <PUBCHEM_MMFF94_PARTIAL_CHARGES>  (1) 
19
1 -0.56
10 0.59
11 -0.15
12 -0.15
13 -0.15
14 0.34
15 0.28
16 0.27
17 0.15
2 -0.57
21 0.15
22 0.15
23 0.15
3 0.03
4 -0.18
6 -0.24
7 -0.15
8 -0.15
9 0.18

>  <PUBCHEM_EFFECTIVE_ROTOR_COUNT>  (1) 
3

>  <PUBCHEM_PHARMACOPHORE_FEATURES>  (1) 
6
1 1 acceptor
1 2 acceptor
1 3 cation
1 3 donor
5 3 4 5 6 7 rings
6 5 7 8 11 12 13 rings

>  <PUBCHEM_HEAVY_ATOM_COUNT>  (1) 
15

>  <PUBCHEM_ATOM_DEF_STEREO_COUNT>  (1) 
0

>  <PUBCHEM_ATOM_UDEF_STEREO_COUNT>  (1) 
0

>  <PUBCHEM_BOND_DEF_STEREO_COUNT>  (1) 
0

>  <PUBCHEM_BOND_UDEF_STEREO_COUNT>  (1) 
0

>  <PUBCHEM_ISOTOPIC_ATOM_COUNT>  (1) 
0

>  <PUBCHEM_COMPONENT_COUNT>  (1) 
1

>  <PUBCHEM_CACTVS_TAUTO_COUNT>  (1) 
10

>  <PUBCHEM_CONFORMER_ID>  (1) 
00009D2600000001

>  <PUBCHEM_MMFF94_ENERGY>  (1) 
28.9852

>  <PUBCHEM_FEATURE_SELFOVERLAP>  (1) 
30.547

>  <PUBCHEM_SHAPE_FINGERPRINT>  (1) 
10411042 1 17401768519547289427
10608611 8 18267865171537964144
10967382 1 18410856525543821282
11471102 20 18411417276215563277
11543360 7 15554160475478710880
12644460 14 18188211974976192995
13380535 76 18409730647228223531
13571099 22 18130794442934349310
13922767 16 18413105061182504632
14325111 11 18338799021647452546
14415576 193 18409451366784460053
14897335 6 18412543206630269063
14911166 2 18340496603677376526
15196674 1 18410855494487906658
15442244 35 18124316004121766120
15775835 57 18409731785024941052
16945 1 18338799992310243338
18186145 218 18409162221111995524
193761 8 17690280409292422370
19784866 9 18411135792859901939
20645477 70 18271808973544030495
212847 35 18408042901084948804
21501502 16 18193552505232449310
21524375 3 18412262848081434687
231179 274 18041273279816154877
23402539 116 18273207629928510524
23402655 69 18343863333365874956
23558518 356 17900257816877317682
23559900 14 18273496797777054632
25 1 18409727348387157759
2748010 2 18337961189492347406
293599 30 18409732885011647364
3060560 45 18342458093308051310
3071541 37 18335145241482203782
335352 9 18410573955698844062
4047638 21 18409169887433563209
4072396 5 18264755589393063690
495365 180 17489295421853598864
4990 188 17989212542106517212
5104073 3 18409165545131879147
528886 8 18411414020778085026
53812653 166 18411416219896195154
602551 16 16081955726956923521
633830 44 18413106173436590430
6430166 295 18409444786715233809
69090 78 18412258462872339807
7364860 26 18268711606270424878
8272917 22 18270122292916343055

>  <PUBCHEM_SHAPE_MULTIPOLES>  (1) 
291.97
8.13
2.12
0.6
7.36
0.81
0
-4.33
-0.03
-0.22
0
-0.04
0
0.01

>  <PUBCHEM_SHAPE_SELFOVERLAP>  (1) 
625.699

>  <PUBCHEM_SHAPE_VOLUME>  (1) 
163.9

>  <PUBCHEM_COORDINATE_TYPE>  (1) 
2
5
10

$$$$
