40235
     RDKit          3D

 11 12  0  0  0  0  0  0  0  0999 V2000
    3.9146   -0.9074   -0.0002 Br  0  0  0  0  0  0  0  0  0  0  0  0
   -1.3974   -1.1900   -0.0001 O   0  0  0  0  0  0  0  0  0  0  0  0
   -1.7935    1.0415    0.0001 N   0  0  0  0  0  0  0  0  0  0  0  0
   -3.6023   -0.5445   -0.0005 N   0  0  0  0  0  0  0  0  0  0  0  0
   -0.1919   -0.5487    0.0002 C   0  0  0  0  0  0  0  0  0  0  0  0
   -0.4381    0.8163    0.0001 C   0  0  0  0  0  0  0  0  0  0  0  0
    1.0723   -1.1252    0.0002 C   0  0  0  0  0  0  0  0  0  0  0  0
    0.6496    1.7012   -0.0001 C   0  0  0  0  0  0  0  0  0  0  0  0
   -2.3019   -0.1711    0.0004 C   0  0  0  0  0  0  0  0  0  0  0  0
    2.1465   -0.2287    0.0000 C   0  0  0  0  0  0  0  0  0  0  0  0
    1.9420    1.1566   -0.0002 C   0  0  0  0  0  0  0  0  0  0  0  0
  1 10  1  0
  2  5  1  0
  2  9  1  0
  3  6  1  0
  3  9  2  0
  4  9  1  0
  5  6  2  0
  5  7  1  0
  6  8  1  0
  7 10  2  0
  8 11  2  0
 10 11  1  0
M  END
>  <PUBCHEM_COMPOUND_CID>  (1) 
40235

>  <PUBCHEM_CONFORMER_RMSD>  (1) 
0.4

>  <PUBCHEM_CONFORMER_DIVERSEORDER>  (1) 
1

>  <PUBCHEM_MMFF94_PARTIAL_CHARGES>  (1) 
16
1 -0.11
10 0.11
11 -0.15
12 0.15
13 0.15
14 0.15
15 0.4
16 0.4
2 -0.28
3 -0.57
4 -0.88
5 0.14
6 0.23
7 -0.15
8 -0.15
9 0.56

>  <PUBCHEM_EFFECTIVE_ROTOR_COUNT>  (1) 
0

>  <PUBCHEM_PHARMACOPHORE_FEATURES>  (1) 
5
1 1 hydrophobe
1 4 donor
3 3 4 9 cation
5 2 3 5 6 9 rings
6 5 6 7 8 10 11 rings

>  <PUBCHEM_HEAVY_ATOM_COUNT>  (1) 
11

>  <PUBCHEM_ATOM_DEF_STEREO_COUNT>  (1) 
0

>  <PUBCHEM_ATOM_UDEF_STEREO_COUNT>  (1) 
0

>  <PUBCHEM_BOND_DEF_STEREO_COUNT>  (1) 
0

>  <PUBCHEM_BOND_UDEF_STEREO_COUNT>  (1) 
0

>  <PUBCHEM_ISOTOPIC_ATOM_COUNT>  (1) 
0

>  <PUBCHEM_COMPONENT_COUNT>  (1) 
1

>  <PUBCHEM_CACTVS_TAUTO_COUNT>  (1) 
2

>  <PUBCHEM_CONFORMER_ID>  (1) 
00009D2B00000001

>  <PUBCHEM_MMFF94_ENERGY>  (1) 
16.7917

>  <PUBCHEM_FEATURE_SELFOVERLAP>  (1) 
25.49

>  <PUBCHEM_SHAPE_FINGERPRINT>  (1) 
10219947 1 18272370875635947646
12032990 46 18411142415768277574
14128692 85 18411703196799923388
14325111 11 18410574010932051265
16945 1 18410575088968602212
193761 8 17834113426517331270
20201158 50 18409730642637824594
20871998 22 18200040525505302854
21040471 1 17978229688087182240
21501925 9 18411128148050184426
23402539 116 18201145573013367255
23402655 69 18122606290144445741
23463225 33 18408886200965452486
23552423 10 18189335834762805564
2748010 2 18193276531602364646
369184 2 15195279803047621550
5084963 1 18343301474365639368
7364860 26 18270400628514878104
8809292 202 18187089498090044571

>  <PUBCHEM_SHAPE_MULTIPOLES>  (1) 
216.49
5.19
1.52
0.61
0.82
0.41
0
-1.85
0
0.27
0
0.11
0
0

>  <PUBCHEM_SHAPE_SELFOVERLAP>  (1) 
462.064

>  <PUBCHEM_SHAPE_VOLUME>  (1) 
125

>  <PUBCHEM_COORDINATE_TYPE>  (1) 
2
5
10

$$$$
