40232
     RDKit          3D

 23 25  0  0  0  0  0  0  0  0999 V2000
    0.0331   -2.4773    0.0004 O   0  0  0  0  0  0  0  0  0  0  0  0
    2.3501   -3.6287    0.0008 O   0  0  0  0  0  0  0  0  0  0  0  0
    3.5069   -1.6829   -0.0001 O   0  0  0  0  0  0  0  0  0  0  0  0
   -3.3708   -1.7111   -0.0010 O   0  0  0  0  0  0  0  0  0  0  0  0
   -2.2957   -3.6299   -0.0006 O   0  0  0  0  0  0  0  0  0  0  0  0
   -2.2885   -2.3653   -0.0002 N   0  0  0  0  0  0  0  0  0  0  0  0
    0.7081   -0.3349    0.0001 C   0  0  0  0  0  0  0  0  0  0  0  0
   -0.7061   -0.3549   -0.0001 C   0  0  0  0  0  0  0  0  0  0  0  0
    1.6202    0.7748   -0.0001 C   0  0  0  0  0  0  0  0  0  0  0  0
   -1.6504    0.7254    0.0001 C   0  0  0  0  0  0  0  0  0  0  0  0
    1.1106   -1.6491    0.0003 C   0  0  0  0  0  0  0  0  0  0  0  0
   -1.0684   -1.6818    0.0001 C   0  0  0  0  0  0  0  0  0  0  0  0
    2.0628    1.3139    1.2078 C   0  0  0  0  0  0  0  0  0  0  0  0
    2.0634    1.3130   -1.2080 C   0  0  0  0  0  0  0  0  0  0  0  0
   -2.1101    1.2519   -1.2079 C   0  0  0  0  0  0  0  0  0  0  0  0
   -2.1107    1.2511    1.2080 C   0  0  0  0  0  0  0  0  0  0  0  0
    2.4004   -2.2557    0.0002 C   0  0  0  0  0  0  0  0  0  0  0  0
    2.9487    2.3913    1.2078 C   0  0  0  0  0  0  0  0  0  0  0  0
    2.9494    2.3904   -1.2081 C   0  0  0  0  0  0  0  0  0  0  0  0
   -3.0283    2.3021   -1.2078 C   0  0  0  0  0  0  0  0  0  0  0  0
   -3.0290    2.3012    1.2082 C   0  0  0  0  0  0  0  0  0  0  0  0
    3.3920    2.9296   -0.0002 C   0  0  0  0  0  0  0  0  0  0  0  0
   -3.4877    2.8266    0.0002 C   0  0  0  0  0  0  0  0  0  0  0  0
  1 11  1  0
  1 12  1  0
  2 17  1  0
  3 17  2  0
  4  6  1  0
  5  6  2  0
  6 12  1  0
  7  8  1  0
  7  9  1  0
  7 11  2  0
  8 10  1  0
  8 12  2  0
  9 13  2  0
  9 14  1  0
 10 15  2  0
 10 16  1  0
 11 17  1  0
 13 18  1  0
 14 19  2  0
 15 20  1  0
 16 21  2  0
 18 22  2  0
 19 22  1  0
 20 23  2  0
 21 23  1  0
M  CHG  2   4  -1   6   1
M  END
>  <PUBCHEM_COMPOUND_CID>  (1) 
40232

>  <PUBCHEM_CONFORMER_RMSD>  (1) 
0.6

>  <PUBCHEM_CONFORMER_DIVERSEORDER>  (1) 
1
2

>  <PUBCHEM_MMFF94_PARTIAL_CHARGES>  (1) 
34
1 -0.28
10 0.05
11 0.05
12 0.22
13 -0.15
14 -0.15
15 -0.15
16 -0.15
17 0.81
18 -0.15
19 -0.15
2 -0.65
20 -0.15
21 -0.15
22 -0.15
23 -0.15
24 0.15
25 0.15
26 0.15
27 0.15
28 0.15
29 0.15
3 -0.57
30 0.15
31 0.15
32 0.15
33 0.15
34 0.5
4 -0.52
5 -0.52
6 0.96
7 -0.05
8 -0.05
9 0.05

>  <PUBCHEM_EFFECTIVE_ROTOR_COUNT>  (1) 
4

>  <PUBCHEM_PHARMACOPHORE_FEATURES>  (1) 
10
1 1 acceptor
1 2 acceptor
1 3 acceptor
1 4 acceptor
1 4 anion
1 5 acceptor
3 2 3 17 anion
5 1 7 8 11 12 rings
6 10 15 16 20 21 23 rings
6 9 13 14 18 19 22 rings

>  <PUBCHEM_HEAVY_ATOM_COUNT>  (1) 
23

>  <PUBCHEM_ATOM_DEF_STEREO_COUNT>  (1) 
0

>  <PUBCHEM_ATOM_UDEF_STEREO_COUNT>  (1) 
0

>  <PUBCHEM_BOND_DEF_STEREO_COUNT>  (1) 
0

>  <PUBCHEM_BOND_UDEF_STEREO_COUNT>  (1) 
0

>  <PUBCHEM_ISOTOPIC_ATOM_COUNT>  (1) 
0

>  <PUBCHEM_COMPONENT_COUNT>  (1) 
1

>  <PUBCHEM_CACTVS_TAUTO_COUNT>  (1) 
1

>  <PUBCHEM_CONFORMER_ID>  (1) 
00009D2800000001

>  <PUBCHEM_MMFF94_ENERGY>  (1) 
60.5655

>  <PUBCHEM_FEATURE_SELFOVERLAP>  (1) 
50.912

>  <PUBCHEM_SHAPE_FINGERPRINT>  (1) 
10162869 55 17838617752849984649
10165383 225 18193871242739486125
10498660 4 18049724310670504813
1100329 8 18267026059693406506
11582403 64 16555895854934695152
12035758 1 18119235174107128848
12788726 201 17832712648619557996
13132413 78 17622164559992733960
13134695 92 17979067185409308212
13140716 1 18410010996559226720
13149001 5 18196671608771355950
13583140 156 17313377860550545473
13911987 19 17759537564015083798
13965767 371 18187632596895027584
14178342 30 18337949099312643384
14223421 5 18410292557556706283
14614273 12 18264764540068004485
14713325 29 17029140013409869628
14790565 3 17835253242382424860
14955137 171 17836105384951848611
15042514 8 17544472420245288602
16945 1 18122624955185589862
17980427 23 17772166657771680958
1813 80 17552646846404390558
18785283 64 18191042126301220528
18981168 100 18410573989452076461
20028762 73 16687680247380334670
20510252 161 18052821643542517944
20600515 1 17839467687494168946
20671657 1 18338242548320526116
20715895 44 17825071975209551029
20905425 154 18270125750275469078
21330990 113 18124596650634123057
21501502 16 18410862065788103406
22149856 69 18339362969273769361
23175994 123 17686069292247569741
2334 1 18410575123328334108
23402539 116 17694219276475822852
23419403 2 15742007549022705790
23558518 356 18333726944270041683
238 59 17755557383894606957
266924 87 18267296719499308879
2748010 2 18409451388090316039
283562 15 18051132784959989376
3178227 256 17977680718843173217
350125 39 18410301314878887307
469060 322 18048045361084444001
474 4 18197487433714905513
5252454 2 18266481891120891101
589210 1 18410569595711036674
81228 2 17905623437625707457
9981440 41 17483067821857878848

>  <PUBCHEM_SHAPE_MULTIPOLES>  (1) 
439
6.22
4.71
1.14
0.78
2.64
0
-3.32
0
-0.63
0
0.06
-0.95
0

>  <PUBCHEM_SHAPE_SELFOVERLAP>  (1) 
977.454

>  <PUBCHEM_SHAPE_VOLUME>  (1) 
233.6

>  <PUBCHEM_COORDINATE_TYPE>  (1) 
2
5
10

$$$$
