40236
     RDKit          3D

 12 13  0  0  0  0  0  0  0  0999 V2000
    0.3772    3.2405    0.0000 Br  0  0  0  0  0  0  0  0  0  0  0  0
    3.8736   -1.2658    0.0002 Br  0  0  0  0  0  0  0  0  0  0  0  0
   -1.7494    0.7504    0.0003 O   0  0  0  0  0  0  0  0  0  0  0  0
   -1.5048   -1.5028   -0.0001 N   0  0  0  0  0  0  0  0  0  0  0  0
   -3.6853   -0.4864    0.0003 N   0  0  0  0  0  0  0  0  0  0  0  0
   -0.4125    0.4722   -0.0001 C   0  0  0  0  0  0  0  0  0  0  0  0
   -0.2667   -0.9071   -0.0002 C   0  0  0  0  0  0  0  0  0  0  0  0
    0.6397    1.3796   -0.0001 C   0  0  0  0  0  0  0  0  0  0  0  0
    1.0253   -1.4521    0.0000 C   0  0  0  0  0  0  0  0  0  0  0  0
    1.9219    0.8198    0.0000 C   0  0  0  0  0  0  0  0  0  0  0  0
    2.1135   -0.5673    0.0000 C   0  0  0  0  0  0  0  0  0  0  0  0
   -2.3324   -0.4811   -0.0003 C   0  0  0  0  0  0  0  0  0  0  0  0
  1  8  1  0
  2 11  1  0
  3  6  1  0
  3 12  1  0
  4  7  1  0
  4 12  2  0
  5 12  1  0
  6  7  2  0
  6  8  1  0
  7  9  1  0
  8 10  2  0
  9 11  2  0
 10 11  1  0
M  END
>  <PUBCHEM_COMPOUND_CID>  (1) 
40236

>  <PUBCHEM_CONFORMER_RMSD>  (1) 
0.4

>  <PUBCHEM_CONFORMER_DIVERSEORDER>  (1) 
1

>  <PUBCHEM_MMFF94_PARTIAL_CHARGES>  (1) 
16
1 -0.11
10 -0.15
11 0.11
12 0.56
13 0.15
14 0.15
15 0.4
16 0.4
2 -0.11
3 -0.28
4 -0.57
5 -0.88
6 0.14
7 0.23
8 0.11
9 -0.15

>  <PUBCHEM_EFFECTIVE_ROTOR_COUNT>  (1) 
0

>  <PUBCHEM_PHARMACOPHORE_FEATURES>  (1) 
6
1 1 hydrophobe
1 2 hydrophobe
1 5 donor
3 4 5 12 cation
5 3 4 6 7 12 rings
6 6 7 8 9 10 11 rings

>  <PUBCHEM_HEAVY_ATOM_COUNT>  (1) 
12

>  <PUBCHEM_ATOM_DEF_STEREO_COUNT>  (1) 
0

>  <PUBCHEM_ATOM_UDEF_STEREO_COUNT>  (1) 
0

>  <PUBCHEM_BOND_DEF_STEREO_COUNT>  (1) 
0

>  <PUBCHEM_BOND_UDEF_STEREO_COUNT>  (1) 
0

>  <PUBCHEM_ISOTOPIC_ATOM_COUNT>  (1) 
0

>  <PUBCHEM_COMPONENT_COUNT>  (1) 
1

>  <PUBCHEM_CACTVS_TAUTO_COUNT>  (1) 
2

>  <PUBCHEM_CONFORMER_ID>  (1) 
00009D2C00000001

>  <PUBCHEM_MMFF94_ENERGY>  (1) 
17.7946

>  <PUBCHEM_FEATURE_SELFOVERLAP>  (1) 
30.564

>  <PUBCHEM_SHAPE_FINGERPRINT>  (1) 
10130415 120 18334294262326307762
10967382 1 18338517568172121028
11471102 20 18410006672028234943
12032990 46 18410579465714772402
13380535 76 17760921149100800352
14648413 74 18119811562707322337
16945 1 18194682798284050759
17990270 104 18193273211592716410
193761 8 17834394905641433094
20510252 161 18198337365119665096
20871998 184 18057318397234235190
20871998 22 18199477579794172742
21040471 1 17545884192478936036
2334 1 18410856594279356128
23402539 116 18200301135245968567
23463225 33 18409730647286063894
23552423 10 18050567644641799399
241688 4 18410856516922459440
2748010 2 18411409614231478916
3071541 12 18194969771009317580
3071541 158 18261109703203540564
7364860 26 18196935693594315640
81228 2 18194132810921957984

>  <PUBCHEM_SHAPE_MULTIPOLES>  (1) 
243.01
4.72
2.65
0.62
0.9
2.98
0
-2.99
0
0.07
0
0.1
0.04
0

>  <PUBCHEM_SHAPE_SELFOVERLAP>  (1) 
504.001

>  <PUBCHEM_SHAPE_VOLUME>  (1) 
145.3

>  <PUBCHEM_COORDINATE_TYPE>  (1) 
2
5
10

$$$$
