40248
     RDKit          3D

 27 28  0  0  0  0  0  0  0  0999 V2000
   -7.7511   -1.8019   -0.3575 Cl  0  0  0  0  0  0  0  0  0  0  0  0
   -2.3634    0.2198    0.8485 O   0  0  0  0  0  0  0  0  0  0  0  0
    0.4936    1.7429   -0.7300 O   0  0  0  0  0  0  0  0  0  0  0  0
    3.5961   -0.8824   -0.0960 O   0  0  0  0  0  0  0  0  0  0  0  0
    0.0559    1.1345    1.4817 O   0  0  0  0  0  0  0  0  0  0  0  0
    1.8962   -0.4527   -1.5874 O   0  0  0  0  0  0  0  0  0  0  0  0
   -1.6277    0.7693   -0.2413 C   0  0  0  0  0  0  0  0  0  0  0  0
   -2.4191    1.9627   -0.7668 C   0  0  0  0  0  0  0  0  0  0  0  0
   -1.4584   -0.3098   -1.3073 C   0  0  0  0  0  0  0  0  0  0  0  0
   -0.2782    1.2222    0.3061 C   0  0  0  0  0  0  0  0  0  0  0  0
    4.6119   -3.0083    0.3767 C   0  0  0  0  0  0  0  0  0  0  0  0
    4.6399   -4.4980    0.0471 C   0  0  0  0  0  0  0  0  0  0  0  0
    3.5602   -2.2715   -0.4405 C   0  0  0  0  0  0  0  0  0  0  0  0
   -3.6178   -0.2508    0.5676 C   0  0  0  0  0  0  0  0  0  0  0  0
    1.7506    2.1819   -0.3088 C   0  0  0  0  0  0  0  0  0  0  0  0
    2.8464    1.3187   -0.3052 C   0  0  0  0  0  0  0  0  0  0  0  0
    5.7205   -5.2224    0.8338 C   0  0  0  0  0  0  0  0  0  0  0  0
    2.7099   -0.0644   -0.7405 C   0  0  0  0  0  0  0  0  0  0  0  0
    1.9026    3.5035    0.1110 C   0  0  0  0  0  0  0  0  0  0  0  0
   -3.7947   -1.5811    0.1868 C   0  0  0  0  0  0  0  0  0  0  0  0
   -4.7192    0.6000    0.6621 C   0  0  0  0  0  0  0  0  0  0  0  0
    4.0940    1.7771    0.1179 C   0  0  0  0  0  0  0  0  0  0  0  0
    3.1503    3.9619    0.5340 C   0  0  0  0  0  0  0  0  0  0  0  0
    4.2460    3.0988    0.5375 C   0  0  0  0  0  0  0  0  0  0  0  0
   -5.0728   -2.0606   -0.0996 C   0  0  0  0  0  0  0  0  0  0  0  0
   -5.9974    0.1205    0.3756 C   0  0  0  0  0  0  0  0  0  0  0  0
   -6.1741   -1.2098   -0.0053 C   0  0  0  0  0  0  0  0  0  0  0  0
  1 27  1  0
  2  7  1  0
  2 14  1  0
  3 10  1  0
  3 15  1  0
  4 13  1  0
  4 18  1  0
  5 10  2  0
  6 18  2  0
  7  8  1  0
  7  9  1  0
  7 10  1  0
 11 12  1  0
 11 13  1  0
 12 17  1  0
 14 20  2  0
 14 21  1  0
 15 16  2  0
 15 19  1  0
 16 18  1  0
 16 22  1  0
 19 23  2  0
 20 25  1  0
 21 26  2  0
 22 24  2  0
 23 24  1  0
 25 27  2  0
 26 27  1  0
M  END
>  <PUBCHEM_COMPOUND_CID>  (1) 
40248

>  <PUBCHEM_CONFORMER_RMSD>  (1) 
1

>  <PUBCHEM_CONFORMER_DIVERSEORDER>  (1) 
1
240
168
235
92
184
238
28
34
108
103
45
152
256
83
88
143
259
265
245
25
118
207
159
12
73
257
47
110
10
234
119
66
262
271
167
156
196
175
140
75
252
187
191
230
114
61
173
241
139
176
266
267
43
148
199
208
4
134
232
221
242
16
243
136
163
181
135
202
249
56
94
52
153
154
51
41
30
105
123
186
193
250
178
90
158
64
59
80
261
55
171
211
219
60
147
14
122
183
130
133
195
126
13
192
131
132
48
162
179
117
253
151
164
204
269
76
37
81
145
251
150
166
5
247
70
31
209
149
268
210
44
260
185
226
218
161
141
68
35
155
113
57
233
33
223
42
86
7
67
180
87
213
63
229
203
2
84
215
100
74
40
32
115
244
116
104
144
239
26
102
190
165
197
20
49
224
200
216
138
160
22
93
129
198
121
137
217
205
182
106
107
8
201
157
24
264
72
254
97
263
111
174
85
19
227
11
21
17
248
50
169
236
71
29
214
231
177
36
120
89
3
65
222
194
142
212
258
27
77
112
255
125
23
91
53
82
146
62
225
99
54
188
38
228
170
237
46
220
18
128
270
109
172
79
95
206
69
39
78
189
9
58
127
101
98
124
96
246
6
15

>  <PUBCHEM_MMFF94_PARTIAL_CHARGES>  (1) 
30
1 -0.18
10 0.66
13 0.28
14 0.08
15 0.08
16 0.09
18 0.63
19 -0.15
2 -0.36
20 -0.15
21 -0.15
22 -0.15
23 -0.15
24 -0.15
25 -0.15
26 -0.15
27 0.18
3 -0.23
4 -0.43
43 0.15
44 0.15
45 0.15
46 0.15
47 0.15
48 0.15
49 0.15
5 -0.57
50 0.15
6 -0.57
7 0.34

>  <PUBCHEM_EFFECTIVE_ROTOR_COUNT>  (1) 
10

>  <PUBCHEM_PHARMACOPHORE_FEATURES>  (1) 
7
1 17 hydrophobe
1 2 acceptor
1 5 acceptor
1 6 acceptor
3 7 8 9 hydrophobe
6 14 20 21 25 26 27 rings
6 15 16 19 22 23 24 rings

>  <PUBCHEM_HEAVY_ATOM_COUNT>  (1) 
27

>  <PUBCHEM_ATOM_DEF_STEREO_COUNT>  (1) 
0

>  <PUBCHEM_ATOM_UDEF_STEREO_COUNT>  (1) 
0

>  <PUBCHEM_BOND_DEF_STEREO_COUNT>  (1) 
0

>  <PUBCHEM_BOND_UDEF_STEREO_COUNT>  (1) 
0

>  <PUBCHEM_ISOTOPIC_ATOM_COUNT>  (1) 
0

>  <PUBCHEM_COMPONENT_COUNT>  (1) 
1

>  <PUBCHEM_CACTVS_TAUTO_COUNT>  (1) 
1

>  <PUBCHEM_CONFORMER_ID>  (1) 
00009D3800000001

>  <PUBCHEM_MMFF94_ENERGY>  (1) 
86.4168

>  <PUBCHEM_FEATURE_SELFOVERLAP>  (1) 
35.53

>  <PUBCHEM_SHAPE_FINGERPRINT>  (1) 
10411042 1 18266459798521043082
10595046 47 18200317757550314097
10622 236 18058149791609119007
11135609 149 18264749043778443893
114674 6 18260267464812591538
11719270 70 18267019638997153272
11963148 33 18054220205712849575
12107183 9 18126578821017605329
12293681 25 17895777178313677034
13073987 5 18342182202469190257
13533116 47 18408888455738938819
13583140 156 17700138982966813921
13785724 45 18056493746217768918
13911852 28 18337110051444026646
13955234 65 18341895255176864432
14068700 675 18268431239822681298
14844126 61 17542793006470099634
15250474 111 17986663964817728951
15927050 60 18125723632831156358
16992752 21 18124045529643711870
17492 89 18411134697564327736
17859628 70 18410857689754252160
18393751 57 17908688867913825608
19246450 95 17550122359165211833
19319366 153 18056757861015802972
19427546 62 17835240421694387464
20775438 99 18190451843250294123
21049683 118 16985166166759414056
21130935 74 18338241565917825339
21344244 78 18130777950344595864
22224240 67 18127406981049375432
22956985 138 18336540509775713002
23559900 14 18409724033067953257
23569914 152 17687709815884906463
23569943 247 18262241002786842091
23845131 108 17692245653305107016
239999 70 17916883433559394812
3004659 81 18060150855125155221
32027 91 18337382739139189399
3421961 26 18411138022238123976
345986 75 17846503612302014585
376196 1 14928208617929498510
4073 2 18121223336032908699
4340502 62 17986679374901793709
4403749 210 17616251829030246576
463206 1 18189346670923998818
484985 159 17325485506797490782
5104073 3 18271824440543683265
5309563 4 18194402187066012090
59755656 215 18337677532593447532
613672 6 17910666567187970526
621550 34 18265046014918848908
6441014 3 17977663104750775722
6679774 75 18189321533750695562
6697151 62 18196065790648938181
7970288 3 18193275183273680578

>  <PUBCHEM_SHAPE_MULTIPOLES>  (1) 
528.17
16.06
5.7
1
21.75
4.92
-0.09
15.8
1.69
-15.09
1.25
-0.08
-0.02
-0.57

>  <PUBCHEM_SHAPE_SELFOVERLAP>  (1) 
1100.154

>  <PUBCHEM_SHAPE_VOLUME>  (1) 
300.7

>  <PUBCHEM_COORDINATE_TYPE>  (1) 
2
5
10

$$$$
