40249
     RDKit          3D

 25 26  0  0  0  0  0  0  0  0999 V2000
   -5.5805    2.3012    0.5220 Cl  0  0  0  0  0  0  0  0  0  0  0  0
   -2.0117   -2.1927   -0.7204 O   0  0  0  0  0  0  0  0  0  0  0  0
    0.2427   -0.1447    0.6369 O   0  0  0  0  0  0  0  0  0  0  0  0
    0.2825   -0.6413   -1.6445 O   0  0  0  0  0  0  0  0  0  0  0  0
    4.2790   -0.0794   -0.0443 O   0  0  0  0  0  0  0  0  0  0  0  0
    2.7315   -1.0190    1.3775 O   0  0  0  0  0  0  0  0  0  0  0  0
   -0.7417   -2.1971   -0.0739 C   0  0  0  0  0  0  0  0  0  0  0  0
    0.0144   -3.4263   -0.5679 C   0  0  0  0  0  0  0  0  0  0  0  0
   -0.9644   -2.2398    1.4355 C   0  0  0  0  0  0  0  0  0  0  0  0
   -0.0174   -0.9211   -0.4901 C   0  0  0  0  0  0  0  0  0  0  0  0
   -2.8446   -1.1456   -0.4314 C   0  0  0  0  0  0  0  0  0  0  0  0
    0.9072    1.0469    0.3389 C   0  0  0  0  0  0  0  0  0  0  0  0
    2.2850    1.0757    0.3298 C   0  0  0  0  0  0  0  0  0  0  0  0
   -2.7940    0.0094   -1.2048 C   0  0  0  0  0  0  0  0  0  0  0  0
   -3.7331   -1.2446    0.6343 C   0  0  0  0  0  0  0  0  0  0  0  0
    0.1428    2.1602    0.0611 C   0  0  0  0  0  0  0  0  0  0  0  0
    2.9301    2.2752    0.0287 C   0  0  0  0  0  0  0  0  0  0  0  0
   -3.6411    1.0774   -0.9094 C   0  0  0  0  0  0  0  0  0  0  0  0
   -4.5803   -0.1766    0.9297 C   0  0  0  0  0  0  0  0  0  0  0  0
    0.7880    3.3597   -0.2403 C   0  0  0  0  0  0  0  0  0  0  0  0
    2.1816    3.4173   -0.2562 C   0  0  0  0  0  0  0  0  0  0  0  0
    3.0852   -0.1052    0.6222 C   0  0  0  0  0  0  0  0  0  0  0  0
   -4.5343    0.9845    0.1580 C   0  0  0  0  0  0  0  0  0  0  0  0
    5.1572   -1.1913    0.1615 C   0  0  0  0  0  0  0  0  0  0  0  0
    6.4160   -0.9826   -0.6530 C   0  0  0  0  0  0  0  0  0  0  0  0
  1 23  1  0
  2  7  1  0
  2 11  1  0
  3 10  1  0
  3 12  1  0
  4 10  2  0
  5 22  1  0
  5 24  1  0
  6 22  2  0
  7  8  1  0
  7  9  1  0
  7 10  1  0
 11 14  2  0
 11 15  1  0
 12 13  2  0
 12 16  1  0
 13 17  1  0
 13 22  1  0
 14 18  1  0
 15 19  2  0
 16 20  2  0
 17 21  2  0
 18 23  2  0
 19 23  1  0
 20 21  1  0
 24 25  1  0
M  END
>  <PUBCHEM_COMPOUND_CID>  (1) 
40249

>  <PUBCHEM_CONFORMER_RMSD>  (1) 
0.8

>  <PUBCHEM_CONFORMER_DIVERSEORDER>  (1) 
1
87
254
288
230
220
9
207
82
55
244
24
75
203
258
199
106
272
229
6
179
57
164
126
259
280
251
241
120
245
80
122
198
216
150
267
295
48
276
123
211
93
231
260
45
129
253
225
168
206
151
237
112
270
194
215
279
186
139
124
137
292
290
269
248
210
96
209
171
262
177
208
85
281
147
283
53
145
86
156
111
32
256
27
91
261
66
217
257
140
196
47
100
135
286
252
39
116
26
218
200
99
183
271
201
223
189
275
185
95
240
114
40
212
158
255
188
181
77
74
119
81
155
104
68
19
180
94
83
227
273
133
236
108
154
128
192
219
146
105
293
213
118
268
21
161
98
190
152
60
195
197
16
239
285
238
148
3
232
79
243
103
159
125
30
294
131
23
136
88
127
113
34
264
242
46
117
5
175
205
266
130
289
278
44
134
50
282
29
214
249
287
49
142
193
202
13
176
25
110
172
265
61
65
97
76
221
204
153
71
69
160
11
157
170
296
52
70
78
274
191
22
84
62
250
149
8
73
72
234
246
291
235
12
109
92
121
166
263
35
54
63
4
51
224
165
277
174
42
28
247
17
102
222
167
228
143
10
41
178
89
182
14
297
15
43
64
144
31
115
90
58
132
33
284
173
226
138
169
37
101
187
233
163
36
38
59
107
141
67
162
2
18
7
184
20
56

>  <PUBCHEM_MMFF94_PARTIAL_CHARGES>  (1) 
30
1 -0.18
10 0.66
11 0.08
12 0.08
13 0.09
14 -0.15
15 -0.15
16 -0.15
17 -0.15
18 -0.15
19 -0.15
2 -0.36
20 -0.15
21 -0.15
22 0.63
23 0.18
24 0.28
3 -0.23
32 0.15
33 0.15
34 0.15
35 0.15
36 0.15
37 0.15
38 0.15
39 0.15
4 -0.57
5 -0.43
6 -0.57
7 0.34

>  <PUBCHEM_EFFECTIVE_ROTOR_COUNT>  (1) 
8

>  <PUBCHEM_PHARMACOPHORE_FEATURES>  (1) 
6
1 2 acceptor
1 4 acceptor
1 6 acceptor
3 7 8 9 hydrophobe
6 11 14 15 18 19 23 rings
6 12 13 16 17 20 21 rings

>  <PUBCHEM_HEAVY_ATOM_COUNT>  (1) 
25

>  <PUBCHEM_ATOM_DEF_STEREO_COUNT>  (1) 
0

>  <PUBCHEM_ATOM_UDEF_STEREO_COUNT>  (1) 
0

>  <PUBCHEM_BOND_DEF_STEREO_COUNT>  (1) 
0

>  <PUBCHEM_BOND_UDEF_STEREO_COUNT>  (1) 
0

>  <PUBCHEM_ISOTOPIC_ATOM_COUNT>  (1) 
0

>  <PUBCHEM_COMPONENT_COUNT>  (1) 
1

>  <PUBCHEM_CACTVS_TAUTO_COUNT>  (1) 
1

>  <PUBCHEM_CONFORMER_ID>  (1) 
00009D3900000001

>  <PUBCHEM_MMFF94_ENERGY>  (1) 
88.9506

>  <PUBCHEM_FEATURE_SELFOVERLAP>  (1) 
30.449

>  <PUBCHEM_SHAPE_FINGERPRINT>  (1) 
10366900 7 17458337568182931331
10906281 52 18342189860200596244
1100329 8 18410572894377769520
12166972 35 18059851805210828353
12403260 363 18340759464160681975
12553582 1 18336250285455105562
12633257 1 18187352204486543353
12788726 201 18264203613587310520
13140716 1 18410011061543301337
13583140 156 17895184515966710699
14178342 30 17692230247135564464
14341114 176 18189058741190917649
14466204 15 18338516331200499489
14790565 3 18410016515993719524
14955137 171 18408895018027045603
15099037 51 18412262835402378142
15238133 3 18335148578850835804
15442244 35 18339075020488334152
15475509 8 18199762349274244764
1601671 61 18410291367935102898
16087824 20 18265616468306859925
17349148 13 17632023030180877226
17492 89 18123748926652818254
19319366 153 17676482831550612202
20775530 9 12253620135368005529
21033648 29 17916850404864905762
23558518 356 18119246413999891607
335352 9 18411699863678747525
350125 39 18338518672427135007
474 4 18341611495582993753
59755656 215 18197218048754232373
6138700 20 18339927000624954342
6287921 2 17317892704054371204
6328613 192 18410580608577220732
6913067 236 10735876140962425914
7226269 152 17846499210076509168
9709674 26 18120087548895416962

>  <PUBCHEM_SHAPE_MULTIPOLES>  (1) 
487.01
10.68
3.77
1.1
3.33
1.22
-0.02
1.03
0.57
0.43
-0.2
-0.34
-0.37
-0.07

>  <PUBCHEM_SHAPE_SELFOVERLAP>  (1) 
1027.931

>  <PUBCHEM_SHAPE_VOLUME>  (1) 
274.5

>  <PUBCHEM_COORDINATE_TYPE>  (1) 
2
5
10

$$$$
