40245
     RDKit          3D

 23 25  0  0  1  0  0  0  0  0999 V2000
    6.9421    1.1511   -0.2433 Cl  0  0  0  0  0  0  0  0  0  0  0  0
    7.0227   -2.0166    0.4123 Cl  0  0  0  0  0  0  0  0  0  0  0  0
    0.7210    0.0582    0.0453 O   0  0  0  0  0  0  0  0  0  0  0  0
   -3.7258   -1.3487   -1.6468 O   0  0  0  0  0  0  0  0  0  0  0  0
   -5.9693   -2.4665   -0.0477 O   0  0  0  0  0  0  0  0  0  0  0  0
   -5.2401    1.9657    0.8945 O   0  0  0  0  0  0  0  0  0  0  0  0
   -3.8576    0.2658    0.0465 N   0  0  0  0  0  0  0  0  0  0  0  0
   -5.9570   -0.2220    0.5574 N   0  0  0  0  0  0  0  0  0  0  0  0
   -2.7338    0.9815   -0.1131 N   0  0  0  0  0  0  0  0  0  0  0  0
   -3.9484   -1.1294   -0.2773 C   0  0  0  0  0  0  0  0  0  0  0  0
   -5.4032   -1.3907    0.0874 C   0  0  0  0  0  0  0  0  0  0  0  0
   -5.0412    0.8114    0.5417 C   0  0  0  0  0  0  0  0  0  0  0  0
    1.8195    0.8393   -0.1277 C   0  0  0  0  0  0  0  0  0  0  0  0
    3.0808    0.1653   -0.0009 C   0  0  0  0  0  0  0  0  0  0  0  0
   -0.3320    0.8793   -0.1148 C   0  0  0  0  0  0  0  0  0  0  0  0
    1.4522    2.1378   -0.3934 C   0  0  0  0  0  0  0  0  0  0  0  0
    0.0370    2.1556   -0.3833 C   0  0  0  0  0  0  0  0  0  0  0  0
   -1.6514    0.2849    0.0213 C   0  0  0  0  0  0  0  0  0  0  0  0
    4.2768    0.8722   -0.1595 C   0  0  0  0  0  0  0  0  0  0  0  0
    3.1219   -1.2034    0.2827 C   0  0  0  0  0  0  0  0  0  0  0  0
    5.5020    0.2168   -0.0356 C   0  0  0  0  0  0  0  0  0  0  0  0
    4.3469   -1.8588    0.4067 C   0  0  0  0  0  0  0  0  0  0  0  0
    5.5369   -1.1487    0.2477 C   0  0  0  0  0  0  0  0  0  0  0  0
  1 21  1  0
  2 23  1  0
  3 13  1  0
  3 15  1  0
  4 10  1  0
  5 11  2  0
  6 12  2  0
  7  9  1  0
  7 10  1  0
  7 12  1  0
  8 11  1  0
  8 12  1  0
  9 18  2  0
 10 11  1  0
 13 14  1  0
 13 16  2  0
 14 19  2  0
 14 20  1  0
 15 17  2  0
 15 18  1  0
 16 17  1  0
 19 21  1  0
 20 22  2  0
 21 23  2  0
 22 23  1  0
M  END
>  <PUBCHEM_COMPOUND_CID>  (1) 
40245

>  <PUBCHEM_CONFORMER_RMSD>  (1) 
0.6

>  <PUBCHEM_CONFORMER_DIVERSEORDER>  (1) 
2
47
13
24
52
70
5
30
62
63
7
69
45
1
68
38
58
16
25
56
26
21
64
12
55
33
19
35
27
41
61
15
66
49
46
67
10
32
53
60
37
48
4
20
6
34
65
9
42
14
31
51
28
59
43
23
8
18
11
54
22
3
29
39
50
40
36
57
17
44

>  <PUBCHEM_MMFF94_PARTIAL_CHARGES>  (1) 
31
1 -0.18
10 0.64
11 0.57
12 0.69
13 0.09
14 0.05
15 0.05
16 -0.15
17 -0.15
18 0.47
19 -0.15
2 -0.18
20 -0.15
21 0.18
22 -0.15
23 0.18
25 0.37
26 0.15
27 0.15
28 0.06
29 0.15
3 -0.28
30 0.15
31 0.4
32 0.15
4 -0.68
5 -0.57
6 -0.57
7 -0.3
8 -0.49
9 -0.51

>  <PUBCHEM_EFFECTIVE_ROTOR_COUNT>  (1) 
3.6

>  <PUBCHEM_PHARMACOPHORE_FEATURES>  (1) 
10
1 3 acceptor
1 4 acceptor
1 4 donor
1 5 acceptor
1 6 acceptor
1 8 donor
1 9 acceptor
5 3 13 15 16 17 rings
5 7 8 10 11 12 rings
6 14 19 20 21 22 23 rings

>  <PUBCHEM_HEAVY_ATOM_COUNT>  (1) 
23

>  <PUBCHEM_ATOM_DEF_STEREO_COUNT>  (1) 
0

>  <PUBCHEM_ATOM_UDEF_STEREO_COUNT>  (1) 
1

>  <PUBCHEM_BOND_DEF_STEREO_COUNT>  (1) 
0

>  <PUBCHEM_BOND_UDEF_STEREO_COUNT>  (1) 
1

>  <PUBCHEM_ISOTOPIC_ATOM_COUNT>  (1) 
0

>  <PUBCHEM_COMPONENT_COUNT>  (1) 
1

>  <PUBCHEM_CACTVS_TAUTO_COUNT>  (1) 
3

>  <PUBCHEM_CONFORMER_ID>  (1) 
00009D3500000002

>  <PUBCHEM_MMFF94_ENERGY>  (1) 
47.5657

>  <PUBCHEM_FEATURE_SELFOVERLAP>  (1) 
50.753

>  <PUBCHEM_SHAPE_FINGERPRINT>  (1) 
10299344 5 18410578383308894490
10595046 47 18409452505046018148
11315181 36 18341615936679755513
11524674 6 16774076271722684551
11963148 33 18336822005759145206
12107183 9 18267591200080610297
12236239 1 18413673500130529976
12516196 113 18410012148016916560
12596602 18 18059857268282557160
13073987 5 18340488966846118697
13167823 11 18412544331901092627
13288520 33 18409449202680014501
13668630 136 17603587443389233371
13685833 64 18260552238044337611
13862211 1 18334293158867917698
14251764 18 18343022198934404025
15183329 4 18187642492377585547
15348495 7 16343410804275399202
15461852 350 16988838385499163861
15716309 27 18411136930809918163
15927050 60 17695344068761761388
16110190 28 18342175570169260255
17492 89 18192995048748044851
17780758 139 18202281373405499977
17857418 61 18409448102814848375
1813 80 18041008305861261492
20028762 73 18409727319140876450
21130935 74 18413388722630229450
21267235 1 18337956684957805702
220451 1 18412268328644275284
22950370 63 18408886222044747572
23035841 295 18410575063462679106
23081809 10 18335707147795475900
23402539 116 18409446977407056645
23522609 53 18119842203237043140
23559900 14 18336541732897712057
3004659 81 17967250884633113866
314194 84 18410572907410279850
351380 3 18409444782499459250
397830 11 16271346639032441042
4015057 19 17822581615126396649
4073 2 18114188557264082858
4214541 1 18411983559855176337
4325135 7 18261114089113904740
4340502 62 15769776845407278734
4463277 17 18410294701046366076
46194498 28 16950842630010894862
465052 167 18343023294235525870
5104073 3 18202008771942025649
559249 180 18412261719164243415
59682541 35 18339915014077710896
67856867 119 18341334508388996505
999808 66 17895486911861203899

>  <PUBCHEM_SHAPE_MULTIPOLES>  (1) 
438.65
19.27
2.32
0.78
0.53
0.27
-0.12
8.14
1.92
-0.05
-0.03
0.51
0.07
-1.41

>  <PUBCHEM_SHAPE_SELFOVERLAP>  (1) 
945.163

>  <PUBCHEM_SHAPE_VOLUME>  (1) 
244.8

>  <PUBCHEM_COORDINATE_TYPE>  (1) 
2
5
10

$$$$
