4024
     RDKit          3D

 25 27  0  0  1  0  0  0  0  0999 V2000
    1.3743    2.1134    0.3957 N   0  0  0  0  0  0  0  0  0  0  0  0
   -0.2072    1.0079    1.6780 N   0  0  0  0  0  0  0  0  0  0  0  0
    2.1867    0.0980   -0.7385 C   0  0  0  0  0  0  0  0  0  0  0  0
    2.3308    1.0282    0.4921 C   0  0  0  0  0  0  0  0  0  0  0  0
    3.5642    0.1077   -1.4234 C   0  0  0  0  0  0  0  0  0  0  0  0
    3.7575    1.5833    0.4313 C   0  0  0  0  0  0  0  0  0  0  0  0
    4.1619    1.4483   -1.0290 C   0  0  0  0  0  0  0  0  0  0  0  0
    1.7066   -1.2978   -0.4040 C   0  0  0  0  0  0  0  0  0  0  0  0
    0.1314    2.0464    0.9827 C   0  0  0  0  0  0  0  0  0  0  0  0
   -0.7570    3.2700    0.7600 C   0  0  0  0  0  0  0  0  0  0  0  0
    0.9495   -2.0148   -1.3302 C   0  0  0  0  0  0  0  0  0  0  0  0
    2.0218   -1.8663    0.8298 C   0  0  0  0  0  0  0  0  0  0  0  0
   -1.1387    3.5042   -0.7086 C   0  0  0  0  0  0  0  0  0  0  0  0
   -2.3102    2.6601   -1.2261 C   0  0  0  0  0  0  0  0  0  0  0  0
   -1.9549    1.1923   -1.4524 C   0  0  0  0  0  0  0  0  0  0  0  0
   -3.1262    0.3935   -2.0328 C   0  0  0  0  0  0  0  0  0  0  0  0
   -2.9503   -1.1188   -1.8305 C   0  0  0  0  0  0  0  0  0  0  0  0
   -3.7486   -1.6936   -0.6496 C   0  0  0  0  0  0  0  0  0  0  0  0
   -1.5029    0.8943    2.3334 C   0  0  0  0  0  0  0  0  0  0  0  0
   -3.4878   -1.0567    0.7185 C   0  0  0  0  0  0  0  0  0  0  0  0
   -1.8021   -0.5909    2.5783 C   0  0  0  0  0  0  0  0  0  0  0  0
   -2.1072   -1.3842    1.2978 C   0  0  0  0  0  0  0  0  0  0  0  0
    0.5071   -3.3014   -1.0221 C   0  0  0  0  0  0  0  0  0  0  0  0
    1.5794   -3.1529    1.1377 C   0  0  0  0  0  0  0  0  0  0  0  0
    0.8220   -3.8703    0.2117 C   0  0  0  0  0  0  0  0  0  0  0  0
  1  4  1  0
  1  9  1  0
  2  9  2  0
  2 19  1  0
  3  4  1  0
  3  5  1  0
  3  8  1  0
  4  6  1  0
  5  7  1  0
  6  7  1  0
  8 11  2  0
  8 12  1  0
  9 10  1  0
 10 13  1  0
 11 23  1  0
 12 24  2  0
 13 14  1  0
 14 15  1  0
 15 16  1  0
 16 17  1  0
 17 18  1  0
 18 20  1  0
 19 21  1  0
 20 22  1  0
 21 22  1  0
 23 25  2  0
 24 25  1  0
M  END
>  <PUBCHEM_COMPOUND_CID>  (1) 
4024

>  <PUBCHEM_CONFORMER_RMSD>  (1) 
1

>  <PUBCHEM_CONFORMER_DIVERSEORDER>  (1) 
1
959
321
307
616
750
824
668
69
449
212
297
342
1128
28
516
653
727
740
1084
952
843
859
553
356
982
502
816
91
916
1043
341
752
421
79
64
31
56
268
943
528
1130
75
328
214
358
648
394
1029
761
646
485
1050
439
1027
367
1109
301
543
971
168
630
24
770
280
544
953
25
512
769
654
602
295
33
772
912
240
651
314
54
235
291
111
400
852
284
66
335
477
93
130
62
576
657
808
303
435
458
220
121
230
417
409
1026
218
660
1024
155
101
254
189
491
775
290
55
184
360
563
132
50
133
593
282
1141
788
479
128
211
530
974
535
305
44
884
276
488
327
127
80
57
219
12
251
591
191
227
882
271
103
407
2
506
138
412
275
197
149
964
48
934
625
14
178
174
533
82
247
401
67
618
609
440
781
153
237
117
6
43
203
467
38
17
481
1134
380
817
317
22
208
1036
395
571
922
32
382
682
248
658
11
92
236
146
294
720
41
455
204
45
487
978
46
15
812
129
26
13
172
656
51
256
993
183
494
4
521
1083
855
365
161
613
232
374
792
5
450
257
21
37
363
369
1099
318
162
70
944
1055
1094
231
3
858
308
8
403
828
505
198
68
562
352
540

>  <PUBCHEM_MMFF94_PARTIAL_CHARGES>  (1) 
19
1 -0.82
10 0.06
11 -0.15
12 -0.15
19 0.25
2 -0.7
23 -0.15
24 -0.15
25 -0.15
3 0.14
34 0.4
37 0.15
38 0.15
4 0.37
59 0.15
60 0.15
61 0.15
8 -0.14
9 0.44

>  <PUBCHEM_EFFECTIVE_ROTOR_COUNT>  (1) 
6.2

>  <PUBCHEM_PHARMACOPHORE_FEATURES>  (1) 
4
1 1 donor
3 1 2 9 cation
5 3 4 5 6 7 rings
6 8 11 12 23 24 25 rings

>  <PUBCHEM_HEAVY_ATOM_COUNT>  (1) 
25

>  <PUBCHEM_ATOM_DEF_STEREO_COUNT>  (1) 
0

>  <PUBCHEM_ATOM_UDEF_STEREO_COUNT>  (1) 
2

>  <PUBCHEM_BOND_DEF_STEREO_COUNT>  (1) 
0

>  <PUBCHEM_BOND_UDEF_STEREO_COUNT>  (1) 
0

>  <PUBCHEM_ISOTOPIC_ATOM_COUNT>  (1) 
0

>  <PUBCHEM_COMPONENT_COUNT>  (1) 
1

>  <PUBCHEM_CACTVS_TAUTO_COUNT>  (1) 
2

>  <PUBCHEM_CONFORMER_ID>  (1) 
00000FB800000001

>  <PUBCHEM_MMFF94_ENERGY>  (1) 
53.684

>  <PUBCHEM_FEATURE_SELFOVERLAP>  (1) 
20.297

>  <PUBCHEM_SHAPE_FINGERPRINT>  (1) 
11578080 2 16519097210538861150
121448 382 18343582949996783060
12156800 1 14944142267528841143
12596599 1 17417536928937283567
12788726 201 17487616312932417177
13149001 5 17766282350733751576
13911987 19 18045233875408157716
17357779 13 18338520862259407093
17492 54 18193831767799966351
17980427 23 17974262367083044082
18981168 100 14780415313960308921
22907989 373 17969806205269692156
238 59 18195218192054563535
2818148 4 17557171448116305630
35225 105 17329182094854410191
3524813 1 17979070810303917455
469060 322 18337117868342475661
5283178 26 17974585881046575547
70251023 43 18199477571231099391
7226269 152 18268137842454080168
9981440 41 18262502737454991080

>  <PUBCHEM_SHAPE_MULTIPOLES>  (1) 
504.53
6.03
4.65
2.21
1.07
0.8
-0.55
-0.59
2.16
0.37
0.07
-1.56
0.03
0.13

>  <PUBCHEM_SHAPE_SELFOVERLAP>  (1) 
1022.499

>  <PUBCHEM_SHAPE_VOLUME>  (1) 
292.4

>  <PUBCHEM_COORDINATE_TYPE>  (1) 
2
5
10

$$$$
