40253
     RDKit          3D

 33 35  0  0  0  0  0  0  0  0999 V2000
   -1.4752   -1.6346   -0.1821 O   0  0  0  0  0  0  0  0  0  0  0  0
   -5.8156   -0.3942    1.5220 O   0  0  0  0  0  0  0  0  0  0  0  0
   -3.2886    2.7648   -0.8113 O   0  0  0  0  0  0  0  0  0  0  0  0
   -3.7473   -2.4168    1.2030 O   0  0  0  0  0  0  0  0  0  0  0  0
    6.4049    0.9943    1.1434 O   0  0  0  0  0  0  0  0  0  0  0  0
   -1.2449    1.3064   -2.4079 O   0  0  0  0  0  0  0  0  0  0  0  0
    0.9120   -2.5489   -1.4277 N   0  0  0  0  0  0  0  0  0  0  0  0
   -4.5610    1.1031    0.3874 C   0  0  0  0  0  0  0  0  0  0  0  0
   -2.4916   -0.7401    0.0078 C   0  0  0  0  0  0  0  0  0  0  0  0
   -2.3803    0.5584   -0.4960 C   0  0  0  0  0  0  0  0  0  0  0  0
   -4.6335   -0.1984    0.8731 C   0  0  0  0  0  0  0  0  0  0  0  0
   -3.4077    1.4946   -0.3148 C   0  0  0  0  0  0  0  0  0  0  0  0
   -3.6293   -1.1509    0.7090 C   0  0  0  0  0  0  0  0  0  0  0  0
   -1.5321   -2.4320   -1.3605 C   0  0  0  0  0  0  0  0  0  0  0  0
   -0.3111   -3.3370   -1.3974 C   0  0  0  0  0  0  0  0  0  0  0  0
   -5.7781    1.7261    0.7700 C   0  0  0  0  0  0  0  0  0  0  0  0
   -1.1776    0.9487   -1.2250 C   0  0  0  0  0  0  0  0  0  0  0  0
   -6.5014    0.7766    1.4538 C   0  0  0  0  0  0  0  0  0  0  0  0
    0.1429    0.8755   -0.5162 C   0  0  0  0  0  0  0  0  0  0  0  0
    2.0545   -3.3473   -0.9768 C   0  0  0  0  0  0  0  0  0  0  0  0
    1.1596   -2.0280   -2.7744 C   0  0  0  0  0  0  0  0  0  0  0  0
    1.2764    1.1980   -1.1564 C   0  0  0  0  0  0  0  0  0  0  0  0
    2.6201    1.1447   -0.5539 C   0  0  0  0  0  0  0  0  0  0  0  0
    7.0323   -0.2850    1.2192 C   0  0  0  0  0  0  0  0  0  0  0  0
   -2.6970    3.7354    0.0452 C   0  0  0  0  0  0  0  0  0  0  0  0
   -3.2688   -2.6412    2.5269 C   0  0  0  0  0  0  0  0  0  0  0  0
    5.1638    1.0435    0.5868 C   0  0  0  0  0  0  0  0  0  0  0  0
    3.6678    1.8706   -1.1203 C   0  0  0  0  0  0  0  0  0  0  0  0
    2.8443    0.3680    0.5829 C   0  0  0  0  0  0  0  0  0  0  0  0
    4.9397    1.8201   -0.5500 C   0  0  0  0  0  0  0  0  0  0  0  0
    4.1161    0.3174    1.1533 C   0  0  0  0  0  0  0  0  0  0  0  0
    7.2873   -0.6320    2.6780 C   0  0  0  0  0  0  0  0  0  0  0  0
    8.3194   -0.2601    0.4091 C   0  0  0  0  0  0  0  0  0  0  0  0
  1  9  1  0
  1 14  1  0
  2 11  1  0
  2 18  1  0
  3 12  1  0
  3 25  1  0
  4 13  1  0
  4 26  1  0
  5 24  1  0
  5 27  1  0
  6 17  2  0
  7 15  1  0
  7 20  1  0
  7 21  1  0
  8 11  2  0
  8 12  1  0
  8 16  1  0
  9 10  1  0
  9 13  2  0
 10 12  2  0
 10 17  1  0
 11 13  1  0
 14 15  1  0
 16 18  2  0
 17 19  1  0
 19 22  2  0
 22 23  1  0
 23 28  2  0
 23 29  1  0
 24 32  1  0
 24 33  1  0
 27 30  2  0
 27 31  1  0
 28 30  1  0
 29 31  2  0
M  END
>  <PUBCHEM_COMPOUND_CID>  (1) 
40253

>  <PUBCHEM_CONFORMER_RMSD>  (1) 
1

>  <PUBCHEM_CONFORMER_DIVERSEORDER>  (1) 
2
19
13
11
8
24
16
28
9
6
37
27
35
22
29
4
20
32
17
33
34
26
3
10
14
25
23
31
5
38
1
36
7
21
15
18
12
30

>  <PUBCHEM_MMFF94_PARTIAL_CHARGES>  (1) 
38
1 -0.36
10 0.09
11 0.14
12 0.08
13 0.08
14 0.28
15 0.27
16 -0.15
17 0.47
18 -0.01
19 -0.14
2 -0.28
20 0.27
21 0.27
22 -0.18
23 0.03
24 0.28
25 0.28
26 0.28
27 0.08
28 -0.15
29 -0.15
3 -0.36
30 -0.15
31 -0.15
38 0.15
39 0.15
4 -0.36
40 0.15
47 0.15
5 -0.36
55 0.15
56 0.15
57 0.15
58 0.15
6 -0.57
7 -0.81
9 0.08

>  <PUBCHEM_EFFECTIVE_ROTOR_COUNT>  (1) 
11

>  <PUBCHEM_PHARMACOPHORE_FEATURES>  (1) 
11
1 1 acceptor
1 2 acceptor
1 3 acceptor
1 4 acceptor
1 5 acceptor
1 6 acceptor
1 7 cation
3 24 32 33 hydrophobe
5 2 8 11 16 18 rings
6 23 27 28 29 30 31 rings
6 8 9 10 11 12 13 rings

>  <PUBCHEM_HEAVY_ATOM_COUNT>  (1) 
33

>  <PUBCHEM_ATOM_DEF_STEREO_COUNT>  (1) 
0

>  <PUBCHEM_ATOM_UDEF_STEREO_COUNT>  (1) 
0

>  <PUBCHEM_BOND_DEF_STEREO_COUNT>  (1) 
0

>  <PUBCHEM_BOND_UDEF_STEREO_COUNT>  (1) 
1

>  <PUBCHEM_ISOTOPIC_ATOM_COUNT>  (1) 
0

>  <PUBCHEM_COMPONENT_COUNT>  (1) 
1

>  <PUBCHEM_CACTVS_TAUTO_COUNT>  (1) 
1

>  <PUBCHEM_CONFORMER_ID>  (1) 
00009D3D00000002

>  <PUBCHEM_MMFF94_ENERGY>  (1) 
120.9518

>  <PUBCHEM_FEATURE_SELFOVERLAP>  (1) 
55.934

>  <PUBCHEM_SHAPE_FINGERPRINT>  (1) 
10305334 12 18040433304615171339
10319926 262 18334304145220298062
10939801 23 18336830905199881644
11387372 6 17022623078489187731
11524674 6 18131347522894909670
12422481 6 18410858780792542190
12925494 130 17980205184350280501
14279260 333 17895181161992703850
14950920 106 17749946786463840938
15064986 96 18195236729128306634
15320294 125 18334003987489043822
16110190 28 18334573594615529916
16994733 274 15482678948777929059
17780758 139 18259700112106429769
17913733 40 17989490701627139262
20554085 129 17418088802191231626
21033648 29 17917727802644128969
23522609 53 17241912899592333012
23559900 14 18192740889557336397
3411729 13 18271251529733388087
397638 26 18060410314669368594
4093350 32 16630248005391215126
5171179 24 17836098779814243943
5265222 85 18053684730780746068
5385378 56 18131076978625882022
563151 74 17846786169600083035
6679774 75 18261404343068117782
9896288 288 17896036551537193529
9961470 85 17694225465192614777

>  <PUBCHEM_SHAPE_MULTIPOLES>  (1) 
638.93
17.54
3.63
2.17
24.59
1.72
-0.18
-5.18
-13.9
-2.44
1.34
0.78
1.27
0.73

>  <PUBCHEM_SHAPE_SELFOVERLAP>  (1) 
1356.001

>  <PUBCHEM_SHAPE_VOLUME>  (1) 
361.4

>  <PUBCHEM_COORDINATE_TYPE>  (1) 
2
5
10

$$$$
