4026
     RDKit          3D

 14 13  0  0  0  0  0  0  0  0999 V2000
    3.1185    0.3673   -0.2997 N   0  0  0  0  0  0  0  0  0  0  0  0
   -3.1138    0.3642    0.2856 N   0  0  0  0  0  0  0  0  0  0  0  0
    0.6371    0.3412   -0.3778 C   0  0  0  0  0  0  0  0  0  0  0  0
   -0.6659    0.3586    0.4280 C   0  0  0  0  0  0  0  0  0  0  0  0
    1.8948    0.3878    0.4925 C   0  0  0  0  0  0  0  0  0  0  0  0
   -1.8833    0.3384   -0.4963 C   0  0  0  0  0  0  0  0  0  0  0  0
    4.2940    0.4051    0.5588 C   0  0  0  0  0  0  0  0  0  0  0  0
   -4.2818    0.3694   -0.5838 C   0  0  0  0  0  0  0  0  0  0  0  0
    5.5608    0.3938   -0.2396 C   0  0  0  0  0  0  0  0  0  0  0  0
   -5.5552    0.4046    0.2032 C   0  0  0  0  0  0  0  0  0  0  0  0
    6.5041   -0.4962   -0.1236 C   0  0  0  0  0  0  0  0  0  0  0  0
   -6.5039   -0.4833    0.1212 C   0  0  0  0  0  0  0  0  0  0  0  0
    7.4451   -1.3829   -0.0087 C   0  0  0  0  0  0  0  0  0  0  0  0
   -7.4505   -1.3680    0.0401 C   0  0  0  0  0  0  0  0  0  0  0  0
  1  5  1  0
  1  7  1  0
  2  6  1  0
  2  8  1  0
  3  4  1  0
  3  5  1  0
  4  6  1  0
  7  9  1  0
  8 10  1  0
  9 11  2  0
 10 12  2  0
 11 13  2  0
 12 14  2  0
M  END
>  <PUBCHEM_COMPOUND_CID>  (1) 
4026

>  <PUBCHEM_CONFORMER_RMSD>  (1) 
0.8

>  <PUBCHEM_CONFORMER_DIVERSEORDER>  (1) 
1
126
244
272
240
2
25
256
83
151
43
74
228
123
3
97
109
59
286
279
112
65
133
61
178
67
121
125
15
299
221
7
271
266
90
222
170
60
185
99
22
167
236
300
261
165
153
283
196
201
94
96
89
215
179
117
288
166
124
246
120
17
268
129
180
150
243
80
27
84
227
262
76
58
107
241
157
258
87
141
206
219
229
93
235
98
298
26
223
155
287
18
156
265
116
297
200
69
238
142
189
12
158
202
175
148
145
187
273
11
30
114
62
95
119
296
72
161
16
255
78
264
24
147
168
37
29
63
203
276
290
103
294
224
269
205
233
182
212
56
164
199
128
92
146
5
81
77
250
247
68
105
251
195
198
19
149
14
260
192
32
48
131
154
64
100
242
8
169
197
85
91
254
45
113
193
263
70
50
216
42
232
252
220
159
210
226
171
115
106
101
57
291
140
79
49
230
144
137
245
122
9
280
52
267
44
152
234
118
163
21
176
249
204
284
134
289
33
53
214
183
186
135
138
82
108
213
104
51
211
172
40
31
160
259
191
278
218
38
225
277
139
10
162
253
132
207
66
231
75
282
130
73
54
184
6
47
190
36
20
34
102
177
194
71
188
39
237
13
173
174
35
285
217
274
275
239
295
270
23
127
248
293
209
257
41
88
143
4
292
86
55
181
46
110
28
136
111
281
208

>  <PUBCHEM_MMFF94_PARTIAL_CHARGES>  (1) 
20
1 -0.9
10 -0.22
11 -0.13
12 -0.13
13 -0.24
14 -0.24
2 -0.9
23 0.36
24 0.36
29 0.15
30 0.15
31 0.15
32 0.15
33 0.15
34 0.15
5 0.27
6 0.27
7 0.41
8 0.41
9 -0.22

>  <PUBCHEM_EFFECTIVE_ROTOR_COUNT>  (1) 
9

>  <PUBCHEM_PHARMACOPHORE_FEATURES>  (1) 
6
1 1 cation
1 1 donor
1 13 hydrophobe
1 14 hydrophobe
1 2 cation
1 2 donor

>  <PUBCHEM_HEAVY_ATOM_COUNT>  (1) 
14

>  <PUBCHEM_ATOM_DEF_STEREO_COUNT>  (1) 
0

>  <PUBCHEM_ATOM_UDEF_STEREO_COUNT>  (1) 
0

>  <PUBCHEM_BOND_DEF_STEREO_COUNT>  (1) 
0

>  <PUBCHEM_BOND_UDEF_STEREO_COUNT>  (1) 
0

>  <PUBCHEM_ISOTOPIC_ATOM_COUNT>  (1) 
0

>  <PUBCHEM_COMPONENT_COUNT>  (1) 
1

>  <PUBCHEM_CACTVS_TAUTO_COUNT>  (1) 
1

>  <PUBCHEM_CONFORMER_ID>  (1) 
00000FBA00000001

>  <PUBCHEM_MMFF94_ENERGY>  (1) 
1.2982

>  <PUBCHEM_FEATURE_SELFOVERLAP>  (1) 
30.446

>  <PUBCHEM_SHAPE_FINGERPRINT>  (1) 
10066227 49 18335420106805491466
10968037 39 13767927919053042633
11315181 36 12612756805329556309
12091667 2 17313104142849182301
125118 31 11024106560095868594
12714333 28 8790886284900136445
13073987 5 15769508516507776424
13533116 47 14923930229355583448
14123256 10 15574713594807416204
1420 363 17989490731554604349
14251764 18 16917348147470509736
14251764 46 18410573985151451137
14729087 3 10592049046687452163
15690457 1 18342453755232910847
15716309 27 18272932752311599799
17093844 174 12247677180672181815
17834076 25 18413671309428112068
20621476 38 18337390444790702610
20735858 18 16774079565983361054
20767249 213 10665230349882202120
21095086 128 18334011692048832763
21130983 4 10447926179009416002
21150785 3 16298387963428285126
21315763 28 18410575088963704237
23035841 295 18059856177424277279
23402539 116 11600001051215671121
23521765 1 18341894095129161285
246663 6 18410296912521714499
328311 84 18343866614947651334
33532 11 18409446952012182506
42788 4 18410573989452043981
8209 1 14851604384185974301

>  <PUBCHEM_SHAPE_MULTIPOLES>  (1) 
278.15
24.04
1.02
0.73
0.04
0.36
0
10.56
0
0.04
-0.01
0
-0.04
0.18

>  <PUBCHEM_SHAPE_SELFOVERLAP>  (1) 
510.522

>  <PUBCHEM_SHAPE_VOLUME>  (1) 
172.6

>  <PUBCHEM_COORDINATE_TYPE>  (1) 
2
5
10

$$$$
