40266
     RDKit          3D

 20 23  0  0  1  0  0  0  0  0999 V2000
   -3.7633   -0.7118    0.1263 C   0  0  0  0  0  0  0  0  0  0  0  0
   -2.2476   -0.5496    0.1004 C   0  0  0  0  0  0  0  0  0  0  0  0
   -4.5058    0.5798   -0.2454 C   0  0  0  0  0  0  0  0  0  0  0  0
   -1.6215    0.7167    0.0732 C   0  0  0  0  0  0  0  0  0  0  0  0
   -3.9185    1.7576    0.5056 C   0  0  0  0  0  0  0  0  0  0  0  0
   -2.4735    1.9762    0.0751 C   0  0  0  0  0  0  0  0  0  0  0  0
   -0.1902    0.8240    0.0108 C   0  0  0  0  0  0  0  0  0  0  0  0
    0.6220   -0.3426    0.0578 C   0  0  0  0  0  0  0  0  0  0  0  0
   -1.4356   -1.6824    0.1750 C   0  0  0  0  0  0  0  0  0  0  0  0
   -4.2803   -1.8361   -0.7838 C   0  0  0  0  0  0  0  0  0  0  0  0
   -0.0447   -1.5802    0.1544 C   0  0  0  0  0  0  0  0  0  0  0  0
    2.0618   -0.2367    0.0101 C   0  0  0  0  0  0  0  0  0  0  0  0
    0.4645    2.0662   -0.1022 C   0  0  0  0  0  0  0  0  0  0  0  0
    2.6585    1.0430   -0.0958 C   0  0  0  0  0  0  0  0  0  0  0  0
    0.5792   -2.9376    0.2626 C   0  0  0  0  0  0  0  0  0  0  0  0
    1.8519    2.1756   -0.1532 C   0  0  0  0  0  0  0  0  0  0  0  0
    2.9525   -1.3412    0.0601 C   0  0  0  0  0  0  0  0  0  0  0  0
    4.0560    1.1877   -0.1468 C   0  0  0  0  0  0  0  0  0  0  0  0
    4.3411   -1.1874    0.0095 C   0  0  0  0  0  0  0  0  0  0  0  0
    4.8935    0.0788   -0.0939 C   0  0  0  0  0  0  0  0  0  0  0  0
  1  2  1  0
  1  3  1  0
  1 10  1  0
  2  4  2  0
  2  9  1  0
  3  5  1  0
  4  6  1  0
  4  7  1  0
  5  6  1  0
  7  8  2  0
  7 13  1  0
  8 11  1  0
  8 12  1  0
  9 11  2  0
 11 15  1  0
 12 14  2  0
 12 17  1  0
 13 16  2  0
 14 16  1  0
 14 18  1  0
 17 19  2  0
 18 20  2  0
 19 20  1  0
M  END
>  <PUBCHEM_COMPOUND_CID>  (1) 
40266

>  <PUBCHEM_CONFORMER_RMSD>  (1) 
0.6

>  <PUBCHEM_CONFORMER_DIVERSEORDER>  (1) 
1

>  <PUBCHEM_MMFF94_PARTIAL_CHARGES>  (1) 
20
1 0.14
11 -0.14
13 -0.15
15 0.14
16 -0.15
17 -0.15
18 -0.15
19 -0.15
2 -0.14
20 -0.15
28 0.15
32 0.15
36 0.15
37 0.15
38 0.15
39 0.15
4 -0.14
40 0.15
6 0.14
9 -0.15

>  <PUBCHEM_EFFECTIVE_ROTOR_COUNT>  (1) 
0.8

>  <PUBCHEM_PHARMACOPHORE_FEATURES>  (1) 
4
6 1 2 3 4 5 6 rings
6 12 14 17 18 19 20 rings
6 2 4 7 8 9 11 rings
6 7 8 12 13 14 16 rings

>  <PUBCHEM_HEAVY_ATOM_COUNT>  (1) 
20

>  <PUBCHEM_ATOM_DEF_STEREO_COUNT>  (1) 
0

>  <PUBCHEM_ATOM_UDEF_STEREO_COUNT>  (1) 
1

>  <PUBCHEM_BOND_DEF_STEREO_COUNT>  (1) 
0

>  <PUBCHEM_BOND_UDEF_STEREO_COUNT>  (1) 
0

>  <PUBCHEM_ISOTOPIC_ATOM_COUNT>  (1) 
0

>  <PUBCHEM_COMPONENT_COUNT>  (1) 
1

>  <PUBCHEM_CACTVS_TAUTO_COUNT>  (1) 
1

>  <PUBCHEM_CONFORMER_ID>  (1) 
00009D4A00000001

>  <PUBCHEM_MMFF94_ENERGY>  (1) 
79.9811

>  <PUBCHEM_FEATURE_SELFOVERLAP>  (1) 
20.362

>  <PUBCHEM_SHAPE_FINGERPRINT>  (1) 
10062212 137 18412820279165423915
10411042 1 16896806259940595882
10616163 171 18412545418443909783
10693767 8 17770480235170288383
10967382 1 18337674096766744954
11132069 177 18409727331191516336
11458722 379 18410014316563638991
11471102 20 18409164402712775580
11578080 2 16699198597831762362
11680986 33 18119250811708415906
11806522 49 18410854395002652773
12011746 2 18410014338444586238
12107183 9 17762619490727759395
12236239 1 18060701684944598129
12403259 226 18340762749599855089
12403260 363 18410851105052442191
12592029 89 18335144133143122131
13140716 1 18410294687807841816
13583140 156 16515960471120347985
138480 1 17689154508969673450
13862211 1 18409724067190723930
14790565 3 18409175389429568460
15099037 51 18409450284473754918
15196674 1 18410575088968602208
15209289 33 18410012147831923411
15442244 35 18410575080526477640
15536298 74 18342175574733142168
16752209 62 18410570725350531338
16945 1 18121505914494538784
17349148 13 18410288133603078867
17492 89 18413108381145563815
1813 80 17240204322450788836
18186145 218 18335698321352631748
19591789 44 18410011013850079730
200 152 18202279225810854613
20028762 73 18201153377291717623
20510252 161 18343586247851158696
21029758 11 18341891913322899713
21267235 1 18410583889372708306
21279426 13 18265615372930904974
21421861 104 17753893805225910010
221490 88 18264213671704391723
2334 1 18409732889021583064
23366157 5 17898014533920970498
23402539 116 18342170072684824942
23463225 33 18335984190344591128
23559900 14 18271522095873150616
2748010 2 18409169917693467700
3004659 81 18260835852817095054
335352 9 18338235942655121693
34934 24 18265892467589521497
350125 39 18410859876003726465
4214541 1 18411982446841370693
5104073 3 18411138043232874504
6138700 20 18265900160077129846
69090 78 18412261761470539542
7364860 26 18196092148910965767
9709674 26 18411989078228905206
9981440 41 17399233543649073584

>  <PUBCHEM_SHAPE_MULTIPOLES>  (1) 
411.59
9
2.69
0.67
0.44
0.44
0.02
-0.17
0.66
-0.47
-0.05
-0.19
0.04
-0.55

>  <PUBCHEM_SHAPE_SELFOVERLAP>  (1) 
919.88

>  <PUBCHEM_SHAPE_VOLUME>  (1) 
206.9

>  <PUBCHEM_COORDINATE_TYPE>  (1) 
2
5
10

$$$$
