40267
     RDKit          3D

 15 15  0  0  0  0  0  0  0  0999 V2000
    1.4352    0.5747   -1.0332 S   0  0  0  0  0  0  0  0  0  0  0  0
   -1.2385   -0.9092   -0.9023 O   0  0  0  0  0  0  0  0  0  0  0  0
   -0.7358   -1.5767    1.2675 O   0  0  0  0  0  0  0  0  0  0  0  0
   -0.9242   -3.1327   -0.4428 N   0  0  0  0  0  0  0  0  0  0  0  0
    4.9272   -0.0388    0.0589 N   0  0  0  0  0  0  0  0  0  0  0  0
   -1.2804    0.3818   -0.4651 C   0  0  0  0  0  0  0  0  0  0  0  0
   -0.1430    1.1890   -0.4611 C   0  0  0  0  0  0  0  0  0  0  0  0
   -2.4981    0.8902   -0.0131 C   0  0  0  0  0  0  0  0  0  0  0  0
   -0.2231    2.5047   -0.0050 C   0  0  0  0  0  0  0  0  0  0  0  0
   -2.5783    2.2060    0.4431 C   0  0  0  0  0  0  0  0  0  0  0  0
   -1.4408    3.0132    0.4472 C   0  0  0  0  0  0  0  0  0  0  0  0
   -0.9446   -1.8610    0.0918 C   0  0  0  0  0  0  0  0  0  0  0  0
    2.4593    0.7637    0.4522 C   0  0  0  0  0  0  0  0  0  0  0  0
   -0.6503   -4.3204    0.3321 C   0  0  0  0  0  0  0  0  0  0  0  0
    3.8354    0.3155    0.2296 C   0  0  0  0  0  0  0  0  0  0  0  0
  1  7  1  0
  1 13  1  0
  2  6  1  0
  2 12  1  0
  3 12  2  0
  4 12  1  0
  4 14  1  0
  5 15  3  0
  6  7  2  0
  6  8  1  0
  7  9  1  0
  8 10  2  0
  9 11  2  0
 10 11  1  0
 13 15  1  0
M  END
>  <PUBCHEM_COMPOUND_CID>  (1) 
40267

>  <PUBCHEM_CONFORMER_RMSD>  (1) 
0.6

>  <PUBCHEM_CONFORMER_DIVERSEORDER>  (1) 
2
149
197
68
27
242
241
101
131
130
7
107
265
77
274
196
135
121
54
236
122
61
223
150
187
79
73
263
123
91
43
154
99
105
96
238
49
237
170
212
217
231
22
227
161
119
213
93
248
15
224
175
31
252
264
210
193
20
151
128
181
148
239
250
221
142
38
240
19
176
165
56
14
192
53
116
177
110
82
173
208
92
169
271
8
140
251
229
145
203
166
60
178
137
202
84
39
162
9
179
33
134
228
254
86
152
276
138
80
136
85
51
232
201
153
37
157
220
89
174
207
156
40
205
270
112
272
219
222
144
160
155
106
41
141
81
168
249
47
111
129
218
273
18
172
164
184
163
42
72
253
103
16
167
262
171
117
66
158
199
180
109
64
258
259
204
126
195
124
275
209
256
139
246
74
245
24
35
36
98
226
63
127
94
71
28
261
194
146
26
102
65
30
200
57
62
268
50
215
3
100
4
32
120
143
243
225
159
247
67
244
17
216
260
87
23
183
211
78
55
230
69
269
70
108
113
59
97
83
118
206
76
58
12
5
234
257
95
147
88
13
189
75
21
233
255
133
214
186
25
235
267
29
46
48
266
104
34
44
52
11
6
132
90
182
198
191
190
10
115
1
125
45
188
185
114

>  <PUBCHEM_MMFF94_PARTIAL_CHARGES>  (1) 
20
1 -0.33
10 -0.15
11 -0.15
12 0.78
13 0.43
14 0.3
15 0.36
16 0.15
17 0.15
18 0.15
19 0.15
2 -0.23
22 0.37
3 -0.57
4 -0.73
5 -0.56
6 0.08
7 0.1
8 -0.15
9 -0.15

>  <PUBCHEM_EFFECTIVE_ROTOR_COUNT>  (1) 
5

>  <PUBCHEM_PHARMACOPHORE_FEATURES>  (1) 
4
1 3 acceptor
1 4 donor
1 5 acceptor
6 6 7 8 9 10 11 rings

>  <PUBCHEM_HEAVY_ATOM_COUNT>  (1) 
15

>  <PUBCHEM_ATOM_DEF_STEREO_COUNT>  (1) 
0

>  <PUBCHEM_ATOM_UDEF_STEREO_COUNT>  (1) 
0

>  <PUBCHEM_BOND_DEF_STEREO_COUNT>  (1) 
0

>  <PUBCHEM_BOND_UDEF_STEREO_COUNT>  (1) 
0

>  <PUBCHEM_ISOTOPIC_ATOM_COUNT>  (1) 
0

>  <PUBCHEM_COMPONENT_COUNT>  (1) 
1

>  <PUBCHEM_CACTVS_TAUTO_COUNT>  (1) 
2

>  <PUBCHEM_CONFORMER_ID>  (1) 
00009D4B00000002

>  <PUBCHEM_MMFF94_ENERGY>  (1) 
33.4327

>  <PUBCHEM_FEATURE_SELFOVERLAP>  (1) 
20.297

>  <PUBCHEM_SHAPE_FINGERPRINT>  (1) 
12553582 1 17833844037600028534
14022349 108 17762907562858970161
15279307 12 18187360996358379754
20510252 161 18272371927766188120
21524375 3 18129378189921268428
21650355 55 18339635771566212472
21665056 4 18338231570779496526
23402539 116 18272922843479377829
23419403 2 17129280225115965017
23728640 28 18409446981828663794
257057 1 17834674177109932454
2748010 2 18194141645653653861
305870 269 18051132484354853372
3250762 1 17545018864454567341
43471831 8 18193841435850282149
54173680 148 18266740362521029740
58807428 26 18196660600669910336
7364860 26 17547854053596553781
81228 2 18271251632854515469

>  <PUBCHEM_SHAPE_MULTIPOLES>  (1) 
290.84
4.98
4.51
0.91
7.39
6.6
0.03
-4.01
-0.73
-1.54
-0.65
0
0.07
-0.24

>  <PUBCHEM_SHAPE_SELFOVERLAP>  (1) 
579.374

>  <PUBCHEM_SHAPE_VOLUME>  (1) 
171.6

>  <PUBCHEM_COORDINATE_TYPE>  (1) 
2
5
10

$$$$
