40271
     RDKit          3D

 16 16  0  0  0  0  0  0  0  0999 V2000
    1.0430   -0.9144    0.7008 O   0  0  0  0  0  0  0  0  0  0  0  0
   -2.4708    0.0459   -0.1097 N   0  0  0  0  0  0  0  0  0  0  0  0
   -1.2946   -0.8824    0.1567 C   0  0  0  0  0  0  0  0  0  0  0  0
   -3.6971   -0.7797   -0.4715 C   0  0  0  0  0  0  0  0  0  0  0  0
   -2.7619    0.8666    1.1384 C   0  0  0  0  0  0  0  0  0  0  0  0
   -2.1297    0.9793   -1.2624 C   0  0  0  0  0  0  0  0  0  0  0  0
   -0.0682   -0.0544    0.4862 C   0  0  0  0  0  0  0  0  0  0  0  0
   -4.0312   -1.7053    0.6778 C   0  0  0  0  0  0  0  0  0  0  0  0
   -3.9317    1.7873    0.8678 C   0  0  0  0  0  0  0  0  0  0  0  0
   -1.8414    0.1579   -2.5000 C   0  0  0  0  0  0  0  0  0  0  0  0
    2.2795   -0.4186    0.3790 C   0  0  0  0  0  0  0  0  0  0  0  0
    2.5200    0.9471    0.4770 C   0  0  0  0  0  0  0  0  0  0  0  0
    3.2801   -1.2865   -0.0426 C   0  0  0  0  0  0  0  0  0  0  0  0
    3.7782    1.4517    0.1487 C   0  0  0  0  0  0  0  0  0  0  0  0
    4.5383   -0.7818   -0.3709 C   0  0  0  0  0  0  0  0  0  0  0  0
    4.7873    0.5873   -0.2752 C   0  0  0  0  0  0  0  0  0  0  0  0
  1  7  1  0
  1 11  1  0
  2  3  1  0
  2  4  1  0
  2  5  1  0
  2  6  1  0
  3  7  1  0
  4  8  1  0
  5  9  1  0
  6 10  1  0
 11 12  2  0
 11 13  1  0
 12 14  1  0
 13 15  2  0
 14 16  2  0
 15 16  1  0
M  CHG  1   2   1
M  END
>  <PUBCHEM_COMPOUND_CID>  (1) 
40271

>  <PUBCHEM_CONFORMER_RMSD>  (1) 
0.8

>  <PUBCHEM_CONFORMER_DIVERSEORDER>  (1) 
5
12
41
18
9
48
30
11
3
32
22
8
46
42
23
2
19
7
24
1
31
20
33
47
10
34
21
13
39
16
29
4
40
17
15
38
6
35
27
14
37
25
36
26
43
28
44
45

>  <PUBCHEM_MMFF94_PARTIAL_CHARGES>  (1) 
18
1 -0.36
11 0.08
12 -0.15
13 -0.15
14 -0.15
15 -0.15
16 -0.15
2 -1.01
3 0.5
36 0.15
37 0.15
38 0.15
39 0.15
4 0.5
40 0.15
5 0.5
6 0.5
7 0.28

>  <PUBCHEM_EFFECTIVE_ROTOR_COUNT>  (1) 
7

>  <PUBCHEM_PHARMACOPHORE_FEATURES>  (1) 
3
1 1 acceptor
1 2 cation
6 11 12 13 14 15 16 rings

>  <PUBCHEM_HEAVY_ATOM_COUNT>  (1) 
16

>  <PUBCHEM_ATOM_DEF_STEREO_COUNT>  (1) 
0

>  <PUBCHEM_ATOM_UDEF_STEREO_COUNT>  (1) 
0

>  <PUBCHEM_BOND_DEF_STEREO_COUNT>  (1) 
0

>  <PUBCHEM_BOND_UDEF_STEREO_COUNT>  (1) 
0

>  <PUBCHEM_ISOTOPIC_ATOM_COUNT>  (1) 
0

>  <PUBCHEM_COMPONENT_COUNT>  (1) 
1

>  <PUBCHEM_CACTVS_TAUTO_COUNT>  (1) 
1

>  <PUBCHEM_CONFORMER_ID>  (1) 
00009D4F00000005

>  <PUBCHEM_MMFF94_ENERGY>  (1) 
67.7318

>  <PUBCHEM_FEATURE_SELFOVERLAP>  (1) 
15.223

>  <PUBCHEM_SHAPE_FINGERPRINT>  (1) 
10366900 7 16515685571675530232
10498660 4 17458893877705385036
10680689 15 17313106332348657771
11132069 177 17530965791253844183
11615757 297 18408882957858975192
12173636 292 18273209820177228031
12346177 29 14548723015499442605
12916754 54 18333447646878556163
12932764 1 17676763184785964418
13675066 3 17418372476375826898
15788980 27 16988842761685241982
16752209 62 15410055045689851819
17802600 8 17168137979384909900
18186145 218 18333729092212313554
19422 9 18273215291764992626
19433438 15 17775562018566678020
1986462 14 18408042905158116650
200 152 18341887528699204735
20645477 70 18341619192402388678
22854114 59 17821446871944473944
23402539 116 18130786733758255352
23402655 69 18202566164154972208
23503958 25 17023182687169029316
23557571 272 17894348869480090631
3268164 11 17095511916218420327
4214541 1 18341898476022047320
5104073 3 18411981351840813698
5281201 14 18411986858189229556
58051976 100 17060613404230757325
633830 44 18341613690074087134
77779 3 18341898489054720154
81228 2 17244153931141902018

>  <PUBCHEM_SHAPE_MULTIPOLES>  (1) 
318.42
10.18
1.62
1.37
5.52
0.15
-0.98
0.31
0.46
-0.7
0.34
-1.41
0.16
-0.04

>  <PUBCHEM_SHAPE_SELFOVERLAP>  (1) 
630.115

>  <PUBCHEM_SHAPE_VOLUME>  (1) 
192.4

>  <PUBCHEM_COORDINATE_TYPE>  (1) 
2
5
10

$$$$
