4027
     RDKit          3D

 28 29  0  0  1  0  0  0  0  0999 V2000
    2.5851    0.8992    1.3130 O   0  0  0  0  0  0  0  0  0  0  0  0
   -1.4059   -0.0322    1.2078 O   0  0  0  0  0  0  0  0  0  0  0  0
   -4.8616   -2.5415    1.3701 O   0  0  0  0  0  0  0  0  0  0  0  0
    1.2304   -0.2980   -1.5998 O   0  0  0  0  0  0  0  0  0  0  0  0
   -4.5919   -0.2710    1.0402 O   0  0  0  0  0  0  0  0  0  0  0  0
    5.1714    0.0609    2.1018 O   0  0  0  0  0  0  0  0  0  0  0  0
   -2.6144   -0.6353   -0.6716 N   0  0  0  0  0  0  0  0  0  0  0  0
    0.2758    1.3744   -0.2876 N   0  0  0  0  0  0  0  0  0  0  0  0
    5.5294   -0.2344   -0.1802 N   0  0  0  0  0  0  0  0  0  0  0  0
   -3.1910   -1.8524   -0.1155 C   0  0  0  0  0  0  0  0  0  0  0  0
   -1.0737    1.2660   -0.7603 C   0  0  0  0  0  0  0  0  0  0  0  0
   -3.7359   -2.6087   -1.3214 C   0  0  0  0  0  0  0  0  0  0  0  0
   -2.9950   -0.4638   -2.0714 C   0  0  0  0  0  0  0  0  0  0  0  0
   -4.0848   -1.4981   -2.3091 C   0  0  0  0  0  0  0  0  0  0  0  0
   -1.8935    2.5631   -0.6475 C   0  0  0  0  0  0  0  0  0  0  0  0
   -1.7027    0.1427    0.0248 C   0  0  0  0  0  0  0  0  0  0  0  0
    2.6387    0.8673   -0.1190 C   0  0  0  0  0  0  0  0  0  0  0  0
    3.3147   -0.1807    0.7163 C   0  0  0  0  0  0  0  0  0  0  0  0
    1.3164    0.5802   -0.7495 C   0  0  0  0  0  0  0  0  0  0  0  0
   -2.0545    3.0515    0.8096 C   0  0  0  0  0  0  0  0  0  0  0  0
   -4.2848   -1.4350    0.8207 C   0  0  0  0  0  0  0  0  0  0  0  0
   -1.2648    3.6452   -1.5352 C   0  0  0  0  0  0  0  0  0  0  0  0
    4.7592   -0.1053    0.9598 C   0  0  0  0  0  0  0  0  0  0  0  0
   -2.9410    4.2833    0.9431 C   0  0  0  0  0  0  0  0  0  0  0  0
    6.9739   -0.1880   -0.1673 C   0  0  0  0  0  0  0  0  0  0  0  0
    7.5973   -1.5652    0.0252 C   0  0  0  0  0  0  0  0  0  0  0  0
   -5.9280   -2.2867    2.2900 C   0  0  0  0  0  0  0  0  0  0  0  0
    7.2311   -2.5375   -1.0870 C   0  0  0  0  0  0  0  0  0  0  0  0
  1 17  1  0
  1 18  1  0
  2 16  2  0
  3 21  1  0
  3 27  1  0
  4 19  2  0
  5 21  2  0
  6 23  2  0
  7 10  1  0
  7 13  1  0
  7 16  1  0
  8 11  1  0
  8 19  1  0
  9 23  1  0
  9 25  1  0
 10 12  1  0
 10 21  1  0
 11 15  1  0
 11 16  1  0
 12 14  1  0
 13 14  1  0
 15 20  1  0
 15 22  1  0
 17 18  1  0
 17 19  1  0
 18 23  1  0
 20 24  1  0
 25 26  1  0
 26 28  1  0
M  END
>  <PUBCHEM_COMPOUND_CID>  (1) 
4027

>  <PUBCHEM_CONFORMER_RMSD>  (1) 
1.4

>  <PUBCHEM_CONFORMER_DIVERSEORDER>  (1) 
2
161
71
15
114
60
148
129
74
49
102
118
104
58
177
46
77
174
65
144
57
154
75
101
59
87
47
4
85
169
160
61
116
91
155
41
143
190
32
30
153
170
151
124
117
35
150
44
39
125
162
83
69
137
53
187
94
107
78
96
73
89
184
81
183
80
22
9
126
165
192
70
43
33
168
179
29
127
31
131
193
105
146
17
98
181
52
120
188
99
110
147
156
6
45
173
63
8
111
186
55
121
149
93
64
84
25
21
23
166
159
16
88
51
112
26
164
139
19
133
185
178
72
11
113
152
28
189
86
5
20
136
140
54
34
95
92
82
56
68
10
90
67
135
145
182
109
119
50
36
132
138
7
122
40
123
76
103
79
180
142
37
48
106
14
12
167
100
24
175
38
128
130
134
13
176
115
27
97
108
3
171
158
163
1
172
157
191
42
18
66
141
62

>  <PUBCHEM_MMFF94_PARTIAL_CHARGES>  (1) 
24
1 -0.3
10 0.36
11 0.36
13 0.3
16 0.57
17 0.05
18 0.05
19 0.63
2 -0.57
21 0.66
23 0.63
25 0.3
27 0.28
3 -0.43
38 0.1
39 0.1
4 -0.57
40 0.37
49 0.37
5 -0.57
6 -0.57
7 -0.66
8 -0.73
9 -0.73

>  <PUBCHEM_EFFECTIVE_ROTOR_COUNT>  (1) 
14.6

>  <PUBCHEM_PHARMACOPHORE_FEATURES>  (1) 
11
1 1 acceptor
1 2 acceptor
1 22 hydrophobe
1 24 hydrophobe
1 28 hydrophobe
1 4 acceptor
1 5 acceptor
1 6 acceptor
1 8 donor
1 9 donor
5 7 10 12 13 14 rings

>  <PUBCHEM_HEAVY_ATOM_COUNT>  (1) 
28

>  <PUBCHEM_ATOM_DEF_STEREO_COUNT>  (1) 
0

>  <PUBCHEM_ATOM_UDEF_STEREO_COUNT>  (1) 
5

>  <PUBCHEM_BOND_DEF_STEREO_COUNT>  (1) 
0

>  <PUBCHEM_BOND_UDEF_STEREO_COUNT>  (1) 
0

>  <PUBCHEM_ISOTOPIC_ATOM_COUNT>  (1) 
0

>  <PUBCHEM_COMPONENT_COUNT>  (1) 
1

>  <PUBCHEM_CACTVS_TAUTO_COUNT>  (1) 
4

>  <PUBCHEM_CONFORMER_ID>  (1) 
00000FBB00000002

>  <PUBCHEM_MMFF94_ENERGY>  (1) 
43.1653

>  <PUBCHEM_FEATURE_SELFOVERLAP>  (1) 
55.826

>  <PUBCHEM_SHAPE_FINGERPRINT>  (1) 
11101153 10 18336547235342051820
11135609 201 9438861494727136303
11545043 162 18059565855379361432
12403259 118 14189296014469672779
12553582 1 18269000954375318055
12633257 1 17060345179539229089
12760667 363 18410569613196685855
12788726 201 18338253647012001569
13009979 54 18334863835119890812
13690498 29 18335984190819533588
13782708 43 18202558467900963414
15131766 46 16197307793687255848
15230672 131 17978794502890522798
17844677 252 18202557381268904080
1813 80 18269000963128945061
18927931 339 18410006637288903015
21315759 148 18341889672362412056
2303208 19 17988637481395029014
23198884 109 11458418029480177290
23559900 14 17896307177236317948
25269216 80 18116455703766127982
2838139 119 10881944070416419998
312423 11 18261397771393153780
312425 54 17274822497633556570
4015057 19 13406795527980403622
4073 2 18200026236829272550
484985 159 18113334194243610987
5104073 3 15984811684463111754
513202 73 18342457024019359166
563151 74 14979689762181131159
57527293 21 17631455729457545605
59755656 520 18055064367969370821
9896288 288 18268438940825240993

>  <PUBCHEM_SHAPE_MULTIPOLES>  (1) 
526.07
16.75
3.96
1.96
35.5
3.6
-0.03
-15.42
3.52
-6.05
0.01
-2.3
-0.73
1.39

>  <PUBCHEM_SHAPE_SELFOVERLAP>  (1) 
1059.759

>  <PUBCHEM_SHAPE_VOLUME>  (1) 
309.2

>  <PUBCHEM_COORDINATE_TYPE>  (1) 
2
5
10

$$$$
