40280
     RDKit          3D

 22 23  0  0  0  0  0  0  0  0999 V2000
    1.4802    1.3029    0.7824 O   0  0  0  0  0  0  0  0  0  0  0  0
   -5.3504    0.6012   -0.7005 O   0  0  0  0  0  0  0  0  0  0  0  0
    0.9724   -0.9238    0.6640 O   0  0  0  0  0  0  0  0  0  0  0  0
    5.0064    0.5450    0.0220 N   0  0  0  0  0  0  0  0  0  0  0  0
   -0.6423    0.7359    0.3201 N   0  0  0  0  0  0  0  0  0  0  0  0
    5.1605   -0.8851    0.3233 C   0  0  0  0  0  0  0  0  0  0  0  0
    5.8387    0.9393   -1.1233 C   0  0  0  0  0  0  0  0  0  0  0  0
    6.6170   -1.2285    0.6391 C   0  0  0  0  0  0  0  0  0  0  0  0
    7.3175    0.6556   -0.8546 C   0  0  0  0  0  0  0  0  0  0  0  0
    7.5446   -0.8082   -0.4952 C   0  0  0  0  0  0  0  0  0  0  0  0
    3.6021    0.8660   -0.2315 C   0  0  0  0  0  0  0  0  0  0  0  0
    2.8319    0.9739    1.0749 C   0  0  0  0  0  0  0  0  0  0  0  0
    0.6209    0.2474    0.5919 C   0  0  0  0  0  0  0  0  0  0  0  0
   -1.8224    0.0020    0.0613 C   0  0  0  0  0  0  0  0  0  0  0  0
   -3.0186    0.6722   -0.1949 C   0  0  0  0  0  0  0  0  0  0  0  0
   -4.1828   -0.0523   -0.4502 C   0  0  0  0  0  0  0  0  0  0  0  0
   -6.5572   -0.0548   -0.3149 C   0  0  0  0  0  0  0  0  0  0  0  0
   -7.6049    0.9973    0.0150 C   0  0  0  0  0  0  0  0  0  0  0  0
   -1.7905   -1.3925    0.0626 C   0  0  0  0  0  0  0  0  0  0  0  0
   -4.1509   -1.4468   -0.4489 C   0  0  0  0  0  0  0  0  0  0  0  0
   -2.9548   -2.1170   -0.1926 C   0  0  0  0  0  0  0  0  0  0  0  0
   -8.9173    0.3704    0.4501 C   0  0  0  0  0  0  0  0  0  0  0  0
  1 12  1  0
  1 13  1  0
  2 16  1  0
  2 17  1  0
  3 13  2  0
  4  6  1  0
  4  7  1  0
  4 11  1  0
  5 13  1  0
  5 14  1  0
  6  8  1  0
  7  9  1  0
  8 10  1  0
  9 10  1  0
 11 12  1  0
 14 15  2  0
 14 19  1  0
 15 16  1  0
 16 20  2  0
 17 18  1  0
 18 22  1  0
 19 21  2  0
 20 21  1  0
M  END
>  <PUBCHEM_COMPOUND_CID>  (1) 
40280

>  <PUBCHEM_CONFORMER_RMSD>  (1) 
1

>  <PUBCHEM_CONFORMER_DIVERSEORDER>  (1) 
2
35
12
55
57
64
70
38
48
33
36
29
52
1
7
8
43
17
50
39
13
18
21
9
15
71
58
27
47
49
72
31
73
23
46
16
30
11
32
68
19
40
74
41
54
60
69
37
10
66
22
14
56
42
67
75
59
61
26
28
53
24
25
63
3
62
45
5
65
44
6
20
51
4
34

>  <PUBCHEM_MMFF94_PARTIAL_CHARGES>  (1) 
22
1 -0.43
11 0.27
12 0.28
13 0.78
14 0.12
15 -0.15
16 0.08
17 0.28
19 -0.15
2 -0.36
20 -0.15
21 -0.15
3 -0.57
37 0.37
38 0.15
4 -0.81
43 0.15
44 0.15
45 0.15
5 -0.55
6 0.27
7 0.27

>  <PUBCHEM_EFFECTIVE_ROTOR_COUNT>  (1) 
10.2

>  <PUBCHEM_PHARMACOPHORE_FEATURES>  (1) 
7
1 2 acceptor
1 22 hydrophobe
1 3 acceptor
1 4 cation
1 5 donor
6 14 15 16 19 20 21 rings
6 4 6 7 8 9 10 rings

>  <PUBCHEM_HEAVY_ATOM_COUNT>  (1) 
22

>  <PUBCHEM_ATOM_DEF_STEREO_COUNT>  (1) 
0

>  <PUBCHEM_ATOM_UDEF_STEREO_COUNT>  (1) 
0

>  <PUBCHEM_BOND_DEF_STEREO_COUNT>  (1) 
0

>  <PUBCHEM_BOND_UDEF_STEREO_COUNT>  (1) 
0

>  <PUBCHEM_ISOTOPIC_ATOM_COUNT>  (1) 
0

>  <PUBCHEM_COMPONENT_COUNT>  (1) 
1

>  <PUBCHEM_CACTVS_TAUTO_COUNT>  (1) 
2

>  <PUBCHEM_CONFORMER_ID>  (1) 
00009D5800000002

>  <PUBCHEM_MMFF94_ENERGY>  (1) 
41.6592

>  <PUBCHEM_FEATURE_SELFOVERLAP>  (1) 
35.52

>  <PUBCHEM_SHAPE_FINGERPRINT>  (1) 
10 15 8430312437972452548
10299344 5 18335138691641006147
106641 1 9079111151046475596
10670039 82 18201999885908371737
10883706 142 15213297543748749632
11135609 127 18262519338179310844
11135609 99 14057586608681747441
11315181 36 17560805467231808579
11408170 108 15625675916432948534
11524674 6 16988561329368548687
11638347 137 12391518581172443548
11719270 70 17846780689923629014
11724838 91 9079112263527440330
11796584 16 18271810163798630022
12730499 353 13984654837979414184
13668630 136 16487257694407639798
13885169 127 15698005111354819553
13914758 101 15338844144804771043
13964095 4 18412826889025121069
14251752 14 18335417954878364468
14251764 18 18413387631697622567
14251764 46 18410575080373392864
14933364 13 17676206879046671101
15183329 4 18343867710174699018
15188451 53 15554451778147528058
15728490 51 12901554555093112817
15849732 13 17313105254849917631
17834072 8 18272651259780479972
18335252 98 12468354639880824529
20621476 8 18202562865752003097
21095086 128 16153706514153160147
21150785 3 17022621970265993168
21267235 1 18337391647391815723
221357 26 17603301549529615332
22224240 67 11314310554991927512
23035841 295 18409163316254802715
23198884 109 17530964687278437456
23559900 14 18129370665238786488
249057 3 18342174488074891261
28498 318 17988925548165435172
3004659 81 18335137592983927258
335352 9 18342173384626875541
34797466 226 13190343440017367202
3545911 37 18410289216588952217
3633792 109 14548744976215534671
4073 2 17822295751362659098
4325135 7 18408604747548013606
4339292 15 14763766643487419485
5283156 175 18408321065263970402
559249 180 17489300928070543303
5758199 1 13912322369928796793
59682541 35 11025805305169918324
5969126 39 10231761059608347571
59755656 215 18202003209257685351
59755656 520 17530961406509519019
9663363 56 17132113538201281584

>  <PUBCHEM_SHAPE_MULTIPOLES>  (1) 
425.18
25.66
1.51
0.9
5.68
0.56
0
-2.15
-3.41
0.04
0.01
-0.75
-0.11
-0.7

>  <PUBCHEM_SHAPE_SELFOVERLAP>  (1) 
861.092

>  <PUBCHEM_SHAPE_VOLUME>  (1) 
248

>  <PUBCHEM_COORDINATE_TYPE>  (1) 
2
5
10

$$$$
