4028
     RDKit          3D

 22 21  0  0  0  0  0  0  0  0999 V2000
   -5.1181    1.1854   -0.4775 O   0  0  0  0  0  0  0  0  0  0  0  0
   -3.4363    0.8167   -1.9621 O   0  0  0  0  0  0  0  0  0  0  0  0
   -0.7216   -2.2851   -1.0687 C   0  0  0  0  0  0  0  0  0  0  0  0
   -1.3499   -2.2428    0.3294 C   0  0  0  0  0  0  0  0  0  0  0  0
    0.8089   -2.2767   -1.1080 C   0  0  0  0  0  0  0  0  0  0  0  0
   -2.8806   -2.1828    0.3772 C   0  0  0  0  0  0  0  0  0  0  0  0
    1.4484   -3.4972   -0.4346 C   0  0  0  0  0  0  0  0  0  0  0  0
   -3.4469   -2.0874    1.7942 C   0  0  0  0  0  0  0  0  0  0  0  0
    2.9814   -3.4567   -0.4760 C   0  0  0  0  0  0  0  0  0  0  0  0
   -4.9679   -2.0407    1.7801 C   0  0  0  0  0  0  0  0  0  0  0  0
    3.5242   -2.2837    0.2884 C   0  0  0  0  0  0  0  0  0  0  0  0
    4.2776   -1.3172   -0.2571 C   0  0  0  0  0  0  0  0  0  0  0  0
    4.8124   -0.1507    0.5219 C   0  0  0  0  0  0  0  0  0  0  0  0
   -1.6058    2.0632   -0.1677 C   0  0  0  0  0  0  0  0  0  0  0  0
   -0.7636    3.0795    0.6092 C   0  0  0  0  0  0  0  0  0  0  0  0
    4.3137    1.1466   -0.0460 C   0  0  0  0  0  0  0  0  0  0  0  0
   -3.0938    2.4054   -0.1761 C   0  0  0  0  0  0  0  0  0  0  0  0
    3.1309    3.3503    0.0711 C   0  0  0  0  0  0  0  0  0  0  0  0
    0.7013    2.7469    0.5850 C   0  0  0  0  0  0  0  0  0  0  0  0
    3.6102    2.0512    0.6514 C   0  0  0  0  0  0  0  0  0  0  0  0
    1.6465    3.5879    0.1365 C   0  0  0  0  0  0  0  0  0  0  0  0
   -3.8709    1.3879   -0.9707 C   0  0  0  0  0  0  0  0  0  0  0  0
  1 22  1  0
  2 22  2  0
  3  4  1  0
  3  5  1  0
  4  6  1  0
  5  7  1  0
  6  8  1  0
  7  9  1  0
  8 10  1  0
  9 11  1  0
 11 12  2  0
 12 13  1  0
 13 16  1  0
 14 15  1  0
 14 17  1  0
 15 19  1  0
 16 20  2  0
 17 22  1  0
 18 20  1  0
 18 21  1  0
 19 21  2  0
M  END
>  <PUBCHEM_COMPOUND_CID>  (1) 
4028

>  <PUBCHEM_CONFORMER_RMSD>  (1) 
1.4

>  <PUBCHEM_CONFORMER_DIVERSEORDER>  (1) 
1
12
89
3
136
149
56
90
11
67
4
157
46
72
33
7
88
6
20
41
2
141
151
25
161
73
128
155
9
91
137
80
5
29
18
159
58
127
55
95
125
132
129
99
154
87
130
39
138
45
30
111
26
112
27
104
31
65
61
28
142
82
167
13
116
78
109
144
74
96
118
15
140
106
16
22
165
63
36
94
168
48
42
79
92
145
108
69
68
71
153
122
44
37
166
10
50
162
57
110
98
115
117
62
123
53
8
81
60
66
51
97
105
14
134
75
107
147
119
34
164
54
124
158
102
76
85
120
19
114
83
103
35
93
47
160
113
24
126
131
40
77
84
148
43
64
139
59
101
70
52
32
156
49
38
146
152
163
121
21
135
23
150
133
100
143
17
86

>  <PUBCHEM_MMFF94_PARTIAL_CHARGES>  (1) 
21
1 -0.65
11 -0.29
12 -0.29
13 0.28
15 0.14
16 -0.29
17 0.06
18 0.28
19 -0.29
2 -0.57
20 -0.29
21 -0.29
22 0.66
40 0.15
41 0.15
48 0.15
53 0.15
54 0.15
55 0.15
56 0.5
9 0.14

>  <PUBCHEM_EFFECTIVE_ROTOR_COUNT>  (1) 
15

>  <PUBCHEM_PHARMACOPHORE_FEATURES>  (1) 
5
1 1 acceptor
1 10 hydrophobe
1 2 acceptor
3 1 2 22 anion
4 14 15 17 19 hydrophobe

>  <PUBCHEM_HEAVY_ATOM_COUNT>  (1) 
22

>  <PUBCHEM_ATOM_DEF_STEREO_COUNT>  (1) 
0

>  <PUBCHEM_ATOM_UDEF_STEREO_COUNT>  (1) 
0

>  <PUBCHEM_BOND_DEF_STEREO_COUNT>  (1) 
0

>  <PUBCHEM_BOND_UDEF_STEREO_COUNT>  (1) 
3

>  <PUBCHEM_ISOTOPIC_ATOM_COUNT>  (1) 
0

>  <PUBCHEM_COMPONENT_COUNT>  (1) 
1

>  <PUBCHEM_CACTVS_TAUTO_COUNT>  (1) 
1

>  <PUBCHEM_CONFORMER_ID>  (1) 
00000FBC00000001

>  <PUBCHEM_MMFF94_ENERGY>  (1) 
2.8395

>  <PUBCHEM_FEATURE_SELFOVERLAP>  (1) 
25.429

>  <PUBCHEM_SHAPE_FINGERPRINT>  (1) 
12038231 1 17404020323707741132
12422481 6 18263944279182991281
13122387 1 17620752787352254900
13165054 342 17759536851230185668
14251757 17 18335699425280643841
14251764 38 18339642226733207903
19930381 70 18051969225830923588
20621476 13 18412538808562646070
20621476 7 18195814191802270162
20764821 26 18268978951010064116
325973 47 18267867190156541544
373842 8 18338508630741057746
445580 102 18410860983466712482
463206 1 18195249906288521888
5081480 168 17201390415307836038
6433294 58 18411417328145814200

>  <PUBCHEM_SHAPE_MULTIPOLES>  (1) 
441.01
10.5
6.2
1.3
2.51
0.68
-0.05
-0.67
-1.79
-2.29
-0.06
1.76
-0.52
2.69

>  <PUBCHEM_SHAPE_SELFOVERLAP>  (1) 
821.089

>  <PUBCHEM_SHAPE_VOLUME>  (1) 
274.2

>  <PUBCHEM_COORDINATE_TYPE>  (1) 
2
5
10

$$$$
