40292
     RDKit          3D

 33 36  0  0  1  0  0  0  0  0999 V2000
   -7.6724   -3.9679    0.7685 Cl  0  0  0  0  0  0  0  0  0  0  0  0
   -7.8685    3.0562    0.8869 Cl  0  0  0  0  0  0  0  0  0  0  0  0
    7.0673    0.1530    1.0680 P   0  0  0  0  0  0  0  0  0  0  0  0
    5.5556   -0.3455    1.3403 O   0  0  0  0  0  0  0  0  0  0  0  0
    7.7775   -0.0715    2.5034 O   0  0  0  0  0  0  0  0  0  0  0  0
    7.7013   -1.0192    0.1520 O   0  0  0  0  0  0  0  0  0  0  0  0
    7.1902    1.5407    0.5102 O   0  0  0  0  0  0  0  0  0  0  0  0
   -3.9656    0.9195   -0.2371 O   0  0  0  0  0  0  0  0  0  0  0  0
   -3.5846   -1.2085    0.5878 O   0  0  0  0  0  0  0  0  0  0  0  0
   -5.7624   -0.3932    0.5410 N   0  0  0  0  0  0  0  0  0  0  0  0
    3.1727   -0.4364    0.6535 C   0  0  0  0  0  0  0  0  0  0  0  0
    2.5055   -0.9602   -0.6449 C   0  0  0  0  0  0  0  0  0  0  0  0
    2.2878    0.1261   -1.7400 C   0  0  0  0  0  0  0  0  0  0  0  0
    1.6421    1.4212   -1.1899 C   0  0  0  0  0  0  0  0  0  0  0  0
    4.6620   -0.4041    0.2427 C   0  0  0  0  0  0  0  0  0  0  0  0
    2.6448    0.9380    1.1016 C   0  0  0  0  0  0  0  0  0  0  0  0
    3.4845   -2.0520   -1.1272 C   0  0  0  0  0  0  0  0  0  0  0  0
    2.5027    1.9493   -0.0297 C   0  0  0  0  0  0  0  0  0  0  0  0
    4.8685   -1.6646   -0.5981 C   0  0  0  0  0  0  0  0  0  0  0  0
    1.4451   -0.3701   -2.9257 C   0  0  0  0  0  0  0  0  0  0  0  0
    2.9314   -1.4216    1.8235 C   0  0  0  0  0  0  0  0  0  0  0  0
    0.1489    1.2646   -0.9132 C   0  0  0  0  0  0  0  0  0  0  0  0
    0.0209   -0.7267   -2.5155 C   0  0  0  0  0  0  0  0  0  0  0  0
   -0.6051    0.2687   -1.5709 C   0  0  0  0  0  0  0  0  0  0  0  0
   -0.5311    2.1623   -0.0707 C   0  0  0  0  0  0  0  0  0  0  0  0
   -1.9852    0.1567   -1.3248 C   0  0  0  0  0  0  0  0  0  0  0  0
   -1.9037    2.0455    0.1587 C   0  0  0  0  0  0  0  0  0  0  0  0
   -2.6302    1.0387   -0.4630 C   0  0  0  0  0  0  0  0  0  0  0  0
   -4.3826   -0.3097    0.3239 C   0  0  0  0  0  0  0  0  0  0  0  0
   -6.4260   -1.5634    1.1064 C   0  0  0  0  0  0  0  0  0  0  0  0
   -6.6266    0.7264    0.1951 C   0  0  0  0  0  0  0  0  0  0  0  0
   -6.8625   -2.5573    0.0432 C   0  0  0  0  0  0  0  0  0  0  0  0
   -6.8023    1.7048    1.3441 C   0  0  0  0  0  0  0  0  0  0  0  0
  1 32  1  0
  2 33  1  0
  3  4  1  0
  3  5  1  0
  3  6  1  0
  3  7  2  0
  4 15  1  0
  8 28  1  0
  8 29  1  0
  9 29  2  0
 10 29  1  0
 10 30  1  0
 10 31  1  0
 11 12  1  0
 11 15  1  0
 11 16  1  0
 11 21  1  0
 12 13  1  0
 12 17  1  0
 13 14  1  0
 13 20  1  0
 14 18  1  0
 14 22  1  0
 15 19  1  0
 16 18  1  0
 17 19  1  0
 20 23  1  0
 22 24  2  0
 22 25  1  0
 23 24  1  0
 24 26  1  0
 25 27  2  0
 26 28  2  0
 27 28  1  0
 30 32  1  0
 31 33  1  0
M  END
>  <PUBCHEM_COMPOUND_CID>  (1) 
40292

>  <PUBCHEM_CONFORMER_RMSD>  (1) 
1

>  <PUBCHEM_CONFORMER_DIVERSEORDER>  (1) 
2
98
184
234
194
228
51
120
201
252
177
246
129
183
226
104
79
93
176
92
195
14
142
158
90
179
215
165
198
59
190
40
231
227
182
248
32
85
70
181
153
131
149
28
137
255
125
41
241
203
55
174
154
148
238
196
188
130
206
244
232
64
19
239
112
214
69
218
80
24
102
33
47
54
74
152
52
143
175
66
253
134
204
249
168
82
219
113
122
250
230
224
6
173
212
140
16
191
45
119
205
185
221
161
13
202
170
117
242
53
37
105
18
229
192
222
88
223
172
187
256
127
17
35
61
34
180
65
213
62
156
186
71
171
217
8
110
49
159
116
78
73
163
108
15
115
67
97
121
200
247
99
155
60
30
225
209
111
193
128
139
237
42
167
12
166
44
23
11
95
31
96
160
236
91
86
63
178
46
141
254
36
136
189
150
84
75
87
57
132
145
100
118
81
22
29
240
107
26
106
109
164
216
124
233
146
9
144
27
68
151
83
169
50
220
7
210
147
251
21
138
207
135
94
103
4
197
123
58
39
77
211
133
10
43
126
114
38
235
76
56
101
243
1
25
89
48
245
162
72
20
157
199
5
208
3

>  <PUBCHEM_MMFF94_PARTIAL_CHARGES>  (1) 
29
1 -0.29
10 -0.66
14 0.14
15 0.28
2 -0.29
22 -0.14
23 0.14
24 -0.14
25 -0.15
26 -0.15
27 -0.15
28 0.08
29 0.78
3 1.51
30 0.3
31 0.3
32 0.29
33 0.29
4 -0.55
5 -0.77
53 0.15
54 0.15
55 0.15
56 0.5
57 0.5
6 -0.77
7 -0.7
8 -0.23
9 -0.57

>  <PUBCHEM_EFFECTIVE_ROTOR_COUNT>  (1) 
10.4

>  <PUBCHEM_PHARMACOPHORE_FEATURES>  (1) 
9
1 5 acceptor
1 6 acceptor
1 7 acceptor
1 9 acceptor
4 3 5 6 7 anion
5 11 12 15 17 19 rings
6 11 12 13 14 16 18 rings
6 13 14 20 22 23 24 rings
6 22 24 25 26 27 28 rings

>  <PUBCHEM_HEAVY_ATOM_COUNT>  (1) 
33

>  <PUBCHEM_ATOM_DEF_STEREO_COUNT>  (1) 
1

>  <PUBCHEM_ATOM_UDEF_STEREO_COUNT>  (1) 
4

>  <PUBCHEM_BOND_DEF_STEREO_COUNT>  (1) 
0

>  <PUBCHEM_BOND_UDEF_STEREO_COUNT>  (1) 
0

>  <PUBCHEM_ISOTOPIC_ATOM_COUNT>  (1) 
0

>  <PUBCHEM_COMPONENT_COUNT>  (1) 
1

>  <PUBCHEM_CACTVS_TAUTO_COUNT>  (1) 
1

>  <PUBCHEM_CONFORMER_ID>  (1) 
00009D6400000002

>  <PUBCHEM_MMFF94_ENERGY>  (1) 
62.7184

>  <PUBCHEM_FEATURE_SELFOVERLAP>  (1) 
45.947

>  <PUBCHEM_SHAPE_FINGERPRINT>  (1) 
10 15 17418374684241964797
10165383 225 16486968493096123068
10670039 82 10015867565968741475
11135609 99 18115309011010312986
11135926 11 15430032146049522849
11796584 16 18186804647922608263
12422481 6 17775284941973881407
14068700 675 17822009826150970012
14394314 77 18261393317585648017
14931854 50 11747208044202422360
14955137 171 18272649052885253716
15064986 96 17273697551361804990
15183329 4 11025787700399691247
15301273 46 17917716760214600580
15510800 12 17894921779758571075
15840311 113 17632572748195141224
20028762 73 18335987544936615259
21033648 29 17273957082991981768
21637258 2 17385439929559039942
22224240 67 17203321208906920092
23522609 53 17751956621095810421
23559900 14 17985573090769442957
25222932 49 18040708173931946154
2838139 119 11959727187979687555
3009799 131 12035450532752687708
3383291 50 18188495782732939315
4066623 53 12757147991867025614
439807 62 12973900195022715497
5104073 3 18128534852192453208
5385378 56 15769782330027846358
57724786 102 14691704650616665328
59682541 35 18271801363410107984

>  <PUBCHEM_SHAPE_MULTIPOLES>  (1) 
646.52
22.87
2.94
2.01
13.28
1.14
-0.72
5.78
15.02
7.49
0.71
-2.3
0.33
0.39

>  <PUBCHEM_SHAPE_SELFOVERLAP>  (1) 
1328.981

>  <PUBCHEM_SHAPE_VOLUME>  (1) 
377.2

>  <PUBCHEM_COORDINATE_TYPE>  (1) 
2
5
10

$$$$
