40294
     RDKit          3D

 25 26  0  0  0  0  0  0  0  0999 V2000
    2.0763   -0.0779    0.5056 O   0  0  0  0  0  0  0  0  0  0  0  0
   -4.8989    1.0901    0.3836 O   0  0  0  0  0  0  0  0  0  0  0  0
    1.2681    1.4562   -0.9631 O   0  0  0  0  0  0  0  0  0  0  0  0
    5.5745   -1.0247   -0.1671 N   0  0  0  0  0  0  0  0  0  0  0  0
   -0.1318    0.6149    0.7343 N   0  0  0  0  0  0  0  0  0  0  0  0
    6.1966    0.3058   -0.1178 C   0  0  0  0  0  0  0  0  0  0  0  0
    6.4530   -2.0441    0.4237 C   0  0  0  0  0  0  0  0  0  0  0  0
    7.5301    0.3194   -0.8667 C   0  0  0  0  0  0  0  0  0  0  0  0
    7.7948   -2.1074   -0.3077 C   0  0  0  0  0  0  0  0  0  0  0  0
    8.4793   -0.7456   -0.3291 C   0  0  0  0  0  0  0  0  0  0  0  0
    4.2795   -1.0093    0.5125 C   0  0  0  0  0  0  0  0  0  0  0  0
    3.3235   -0.0479   -0.1757 C   0  0  0  0  0  0  0  0  0  0  0  0
    1.0791    0.7389    0.0165 C   0  0  0  0  0  0  0  0  0  0  0  0
   -6.6795   -2.1840   -0.1328 C   0  0  0  0  0  0  0  0  0  0  0  0
   -6.4550   -0.6741   -0.0877 C   0  0  0  0  0  0  0  0  0  0  0  0
   -8.0805   -2.5228   -0.6413 C   0  0  0  0  0  0  0  0  0  0  0  0
   -5.0475   -0.3289    0.3777 C   0  0  0  0  0  0  0  0  0  0  0  0
   -1.2915    1.3786    0.3248 C   0  0  0  0  0  0  0  0  0  0  0  0
   -3.6482    1.5826    0.1674 C   0  0  0  0  0  0  0  0  0  0  0  0
   -2.5309    0.8462    0.5611 C   0  0  0  0  0  0  0  0  0  0  0  0
   -8.2962   -4.0259   -0.7198 C   0  0  0  0  0  0  0  0  0  0  0  0
   -0.2222   -0.2843    1.8942 C   0  0  0  0  0  0  0  0  0  0  0  0
   -1.0856    2.5921   -0.2756 C   0  0  0  0  0  0  0  0  0  0  0  0
   -3.4841    2.8237   -0.4478 C   0  0  0  0  0  0  0  0  0  0  0  0
   -2.2027    3.3283   -0.6693 C   0  0  0  0  0  0  0  0  0  0  0  0
  1 12  1  0
  1 13  1  0
  2 17  1  0
  2 19  1  0
  3 13  2  0
  4  6  1  0
  4  7  1  0
  4 11  1  0
  5 13  1  0
  5 18  1  0
  5 22  1  0
  6  8  1  0
  7  9  1  0
  8 10  1  0
  9 10  1  0
 11 12  1  0
 14 15  1  0
 14 16  1  0
 15 17  1  0
 16 21  1  0
 18 20  1  0
 18 23  2  0
 19 20  2  0
 19 24  1  0
 23 25  1  0
 24 25  2  0
M  END
>  <PUBCHEM_COMPOUND_CID>  (1) 
40294

>  <PUBCHEM_CONFORMER_RMSD>  (1) 
1.2

>  <PUBCHEM_CONFORMER_DIVERSEORDER>  (1) 
2
131
31
7
118
32
129
28
116
13
136
137
36
8
109
84
113
134
39
29
73
22
49
95
34
108
101
76
126
38
86
41
69
128
130
79
26
127
67
3
138
52
56
99
97
24
89
47
37
60
114
46
57
43
10
112
58
33
30
1
80
4
59
124
88
106
98
42
125
64
105
103
45
53
91
115
48
110
18
40
104
17
96
135
25
71
81
92
65
72
85
90
21
11
74
6
14
20
123
132
66
121
94
12
78
15
62
93
44
87
122
100
117
19
5
51
55
75
23
120
133
102
16
119
27
9
107
111
63
83
61
70
82
77
35
50
68
54

>  <PUBCHEM_MMFF94_PARTIAL_CHARGES>  (1) 
22
1 -0.43
11 0.27
12 0.28
13 0.78
17 0.28
18 0.12
19 0.08
2 -0.36
20 -0.15
22 0.3
23 -0.15
24 -0.15
25 -0.15
3 -0.57
4 -0.81
48 0.15
5 -0.48
55 0.15
56 0.15
57 0.15
6 0.27
7 0.27

>  <PUBCHEM_EFFECTIVE_ROTOR_COUNT>  (1) 
12.2

>  <PUBCHEM_PHARMACOPHORE_FEATURES>  (1) 
6
1 2 acceptor
1 21 hydrophobe
1 3 acceptor
1 4 cation
6 18 19 20 23 24 25 rings
6 4 6 7 8 9 10 rings

>  <PUBCHEM_HEAVY_ATOM_COUNT>  (1) 
25

>  <PUBCHEM_ATOM_DEF_STEREO_COUNT>  (1) 
0

>  <PUBCHEM_ATOM_UDEF_STEREO_COUNT>  (1) 
0

>  <PUBCHEM_BOND_DEF_STEREO_COUNT>  (1) 
0

>  <PUBCHEM_BOND_UDEF_STEREO_COUNT>  (1) 
0

>  <PUBCHEM_ISOTOPIC_ATOM_COUNT>  (1) 
0

>  <PUBCHEM_COMPONENT_COUNT>  (1) 
1

>  <PUBCHEM_CACTVS_TAUTO_COUNT>  (1) 
1

>  <PUBCHEM_CONFORMER_ID>  (1) 
00009D6600000002

>  <PUBCHEM_MMFF94_ENERGY>  (1) 
59.3401

>  <PUBCHEM_FEATURE_SELFOVERLAP>  (1) 
30.446

>  <PUBCHEM_SHAPE_FINGERPRINT>  (1) 
10162869 55 18040998467230389390
10411042 1 18410855508365059589
10595046 47 18188210884629382456
10693767 8 18192147312461145453
11315181 36 18338802204044957864
11497681 19 18410009944292180630
11524674 6 16702015366101298079
11756154 67 18339360885718687351
11761917 116 18411420647776161630
12539745 222 17704358758581197033
13248334 5 17834112323307919969
1361 4 18339642231071165682
13631057 29 18410011014087288041
13673619 4 17988922292949594233
14178184 131 17845367911955932439
14202775 3 18201163140765270334
14429380 56 16732989756387656612
14671636 106 18342175600460981846
14931854 50 17676196988570808835
15461852 350 18337399258221388774
21130935 74 18199186201308595402
21150785 3 17967254191578531736
21267235 1 18260835899702974321
21315763 28 18262238820979455532
21344244 246 18043534017494440869
23389318 12 18260551160360857532
23424782 7 18343016710108637872
23523788 1 17203063958279138687
23559900 14 18187368735942935104
2835820 83 18197214957681948735
2838139 119 11386375859076199179
306946 40 14346078681116571798
406291 66 18341610482219502471
4339292 15 18271515451373893511
44280117 145 18411420591999387933
5104073 3 13398042336985581642
54039377 194 18410013278078859063
5718773 13 18411980286921194279
58260988 521 17417816153377569943
636775 8 18342462542799269822
6691757 9 17987806203724515257
7970288 3 18339074999926556055

>  <PUBCHEM_SHAPE_MULTIPOLES>  (1) 
486.92
27.24
3.69
0.97
14.02
0.71
-0.22
31.28
6.67
-8.9
1.14
-0.04
0.03
-1.45

>  <PUBCHEM_SHAPE_SELFOVERLAP>  (1) 
979.931

>  <PUBCHEM_SHAPE_VOLUME>  (1) 
286.7

>  <PUBCHEM_COORDINATE_TYPE>  (1) 
2
5
10

$$$$
