40299
     RDKit          3D

 12 12  0  0  0  0  0  0  0  0999 V2000
    0.3813    2.1179   -0.0032 O   0  0  0  0  0  0  0  0  0  0  0  0
   -3.6069   -0.1863   -0.0017 O   0  0  0  0  0  0  0  0  0  0  0  0
   -0.2640   -1.3554   -0.0016 N   0  0  0  0  0  0  0  0  0  0  0  0
   -1.6615    1.0222    0.0014 N   0  0  0  0  0  0  0  0  0  0  0  0
   -1.6149   -1.3116   -0.0022 N   0  0  0  0  0  0  0  0  0  0  0  0
    1.8945   -0.2461   -0.0005 C   0  0  0  0  0  0  0  0  0  0  0  0
    0.3893   -0.2396   -0.0006 C   0  0  0  0  0  0  0  0  0  0  0  0
    2.3698    0.4795    1.2599 C   0  0  0  0  0  0  0  0  0  0  0  0
    2.3933    0.4785   -1.2529 C   0  0  0  0  0  0  0  0  0  0  0  0
    2.3841   -1.6962    0.0025 C   0  0  0  0  0  0  0  0  0  0  0  0
   -0.2903    1.0986   -0.0006 C   0  0  0  0  0  0  0  0  0  0  0  0
   -2.3747   -0.1614   -0.0005 C   0  0  0  0  0  0  0  0  0  0  0  0
  1 11  2  0
  2 12  2  0
  3  5  1  0
  3  7  2  0
  4 11  1  0
  4 12  1  0
  5 12  1  0
  6  7  1  0
  6  8  1  0
  6  9  1  0
  6 10  1  0
  7 11  1  0
M  END
>  <PUBCHEM_COMPOUND_CID>  (1) 
40299

>  <PUBCHEM_CONFORMER_RMSD>  (1) 
0.4

>  <PUBCHEM_CONFORMER_DIVERSEORDER>  (1) 
1
2

>  <PUBCHEM_MMFF94_PARTIAL_CHARGES>  (1) 
11
1 -0.57
11 0.63
12 0.69
2 -0.57
22 0.37
23 0.37
3 -0.51
4 -0.49
5 -0.37
6 0.06
7 0.39

>  <PUBCHEM_EFFECTIVE_ROTOR_COUNT>  (1) 
1

>  <PUBCHEM_PHARMACOPHORE_FEATURES>  (1) 
7
1 1 acceptor
1 2 acceptor
1 3 acceptor
1 4 donor
1 5 donor
4 6 8 9 10 hydrophobe
6 3 4 5 7 11 12 rings

>  <PUBCHEM_HEAVY_ATOM_COUNT>  (1) 
12

>  <PUBCHEM_ATOM_DEF_STEREO_COUNT>  (1) 
0

>  <PUBCHEM_ATOM_UDEF_STEREO_COUNT>  (1) 
0

>  <PUBCHEM_BOND_DEF_STEREO_COUNT>  (1) 
0

>  <PUBCHEM_BOND_UDEF_STEREO_COUNT>  (1) 
0

>  <PUBCHEM_ISOTOPIC_ATOM_COUNT>  (1) 
0

>  <PUBCHEM_COMPONENT_COUNT>  (1) 
1

>  <PUBCHEM_CACTVS_TAUTO_COUNT>  (1) 
6

>  <PUBCHEM_CONFORMER_ID>  (1) 
00009D6B00000001

>  <PUBCHEM_MMFF94_ENERGY>  (1) 
36.5107

>  <PUBCHEM_FEATURE_SELFOVERLAP>  (1) 
35.564

>  <PUBCHEM_SHAPE_FINGERPRINT>  (1) 
10130415 120 18260264127195474547
10857977 72 18411127052464356337
12524768 44 18272369763075946238
12932764 1 17988924470207804071
15310529 11 16660640778071225125
16945 1 18410856607026919589
21040471 1 18338516344037720480
23552423 10 18187651236909920402
23559900 14 17480860828198689854
241688 4 18193842539651680712
2748010 2 18267017263215112989
369184 2 17988351607406540547
5084963 1 18262802835219687458
7364860 26 18412546518297922212

>  <PUBCHEM_SHAPE_MULTIPOLES>  (1) 
220.27
4.29
1.64
0.87
2.21
0.11
0
-0.74
0.01
-0.32
0
-0.71
0.16
0

>  <PUBCHEM_SHAPE_SELFOVERLAP>  (1) 
453.618

>  <PUBCHEM_SHAPE_VOLUME>  (1) 
127

>  <PUBCHEM_COORDINATE_TYPE>  (1) 
2
5
10

$$$$
