403
     RDKit          3D

  8  8  0  0  0  0  0  0  0  0999 V2000
   -2.7620   -0.0002    0.0000 O   0  0  0  0  0  0  0  0  0  0  0  0
    2.7991   -0.0001   -0.0002 N   0  0  0  0  0  0  0  0  0  0  0  0
    1.3887    0.0002    0.0001 C   0  0  0  0  0  0  0  0  0  0  0  0
    0.6915   -1.2079    0.0002 C   0  0  0  0  0  0  0  0  0  0  0  0
    0.6911    1.2082    0.0001 C   0  0  0  0  0  0  0  0  0  0  0  0
   -1.4010   -0.0001   -0.0001 C   0  0  0  0  0  0  0  0  0  0  0  0
   -0.7034   -1.2080   -0.0001 C   0  0  0  0  0  0  0  0  0  0  0  0
   -0.7038    1.2079    0.0000 C   0  0  0  0  0  0  0  0  0  0  0  0
  1  6  1  0
  2  3  1  0
  3  4  2  0
  3  5  1  0
  4  7  1  0
  5  8  2  0
  6  7  2  0
  6  8  1  0
M  END
>  <PUBCHEM_COMPOUND_CID>  (1) 
403

>  <PUBCHEM_CONFORMER_RMSD>  (1) 
0.4

>  <PUBCHEM_CONFORMER_DIVERSEORDER>  (1) 
1

>  <PUBCHEM_MMFF94_PARTIAL_CHARGES>  (1) 
15
1 -0.53
10 0.15
11 0.15
12 0.15
13 0.4
14 0.4
15 0.45
2 -0.9
3 0.1
4 -0.15
5 -0.15
6 0.08
7 -0.15
8 -0.15
9 0.15

>  <PUBCHEM_EFFECTIVE_ROTOR_COUNT>  (1) 
0

>  <PUBCHEM_PHARMACOPHORE_FEATURES>  (1) 
4
1 1 donor
1 2 cation
1 2 donor
6 3 4 5 6 7 8 rings

>  <PUBCHEM_HEAVY_ATOM_COUNT>  (1) 
8

>  <PUBCHEM_ATOM_DEF_STEREO_COUNT>  (1) 
0

>  <PUBCHEM_ATOM_UDEF_STEREO_COUNT>  (1) 
0

>  <PUBCHEM_BOND_DEF_STEREO_COUNT>  (1) 
0

>  <PUBCHEM_BOND_UDEF_STEREO_COUNT>  (1) 
0

>  <PUBCHEM_ISOTOPIC_ATOM_COUNT>  (1) 
0

>  <PUBCHEM_COMPONENT_COUNT>  (1) 
1

>  <PUBCHEM_CACTVS_TAUTO_COUNT>  (1) 
4

>  <PUBCHEM_CONFORMER_ID>  (1) 
0000019300000001

>  <PUBCHEM_MMFF94_ENERGY>  (1) 
28.1291

>  <PUBCHEM_FEATURE_SELFOVERLAP>  (1) 
20.297

>  <PUBCHEM_SHAPE_FINGERPRINT>  (1) 
16714656 1 18410858763163727814
18185500 45 18410852183084049671
20096714 4 18338799017194314155
21040471 1 18338516459875204451
23235685 24 18410852170183304000
23402655 69 18195226842820668589
23552423 10 18045228145837368814
29004967 10 18261399935618171313
5084963 1 18343864419971378272

>  <PUBCHEM_SHAPE_MULTIPOLES>  (1) 
153.79
2.9
1.38
0.59
0.1
0
0
0
0
-0.01
0
0
0
0

>  <PUBCHEM_SHAPE_SELFOVERLAP>  (1) 
319.66

>  <PUBCHEM_SHAPE_VOLUME>  (1) 
88.4

>  <PUBCHEM_COORDINATE_TYPE>  (1) 
2
5
10

$$$$
