40306
     RDKit          3D

 19 19  0  0  0  0  0  0  0  0999 V2000
   -0.2231    1.9557   -0.2946 O   0  0  0  0  0  0  0  0  0  0  0  0
   -0.6657   -4.3922   -0.0415 O   0  0  0  0  0  0  0  0  0  0  0  0
   -4.7714    1.3195   -0.1152 C   0  0  0  0  0  0  0  0  0  0  0  0
    4.7881    1.4045    0.1910 C   0  0  0  0  0  0  0  0  0  0  0  0
   -1.2018   -0.2242   -0.3757 C   0  0  0  0  0  0  0  0  0  0  0  0
    1.1422    0.0299    0.0874 C   0  0  0  0  0  0  0  0  0  0  0  0
   -0.0995    0.5985   -0.1962 C   0  0  0  0  0  0  0  0  0  0  0  0
   -3.4289    0.7285    0.2404 C   0  0  0  0  0  0  0  0  0  0  0  0
    3.5933    0.5071   -0.0210 C   0  0  0  0  0  0  0  0  0  0  0  0
   -2.5246    0.3482   -0.6761 C   0  0  0  0  0  0  0  0  0  0  0  0
    2.3244    0.8591    0.2825 C   0  0  0  0  0  0  0  0  0  0  0  0
   -1.0895   -1.6039   -0.2775 C   0  0  0  0  0  0  0  0  0  0  0  0
    1.2680   -1.3556    0.1886 C   0  0  0  0  0  0  0  0  0  0  0  0
    0.1521   -2.1725    0.0062 C   0  0  0  0  0  0  0  0  0  0  0  0
   -5.8957    0.4305    0.4149 C   0  0  0  0  0  0  0  0  0  0  0  0
   -4.8919    2.7341    0.4507 C   0  0  0  0  0  0  0  0  0  0  0  0
    5.7668    0.7564    1.1697 C   0  0  0  0  0  0  0  0  0  0  0  0
    5.4744    1.6940   -1.1435 C   0  0  0  0  0  0  0  0  0  0  0  0
    0.2829   -3.6175    0.1100 C   0  0  0  0  0  0  0  0  0  0  0  0
  1  7  1  0
  2 19  2  0
  3  8  1  0
  3 15  1  0
  3 16  1  0
  4  9  1  0
  4 17  1  0
  4 18  1  0
  5  7  2  0
  5 10  1  0
  5 12  1  0
  6  7  1  0
  6 11  1  0
  6 13  2  0
  8 10  2  0
  9 11  2  0
 12 14  2  0
 13 14  1  0
 14 19  1  0
M  END
>  <PUBCHEM_COMPOUND_CID>  (1) 
40306

>  <PUBCHEM_CONFORMER_RMSD>  (1) 
0.6

>  <PUBCHEM_CONFORMER_DIVERSEORDER>  (1) 
2
31
9
5
1
64
14
34
55
17
21
12
62
15
44
59
13
6
7
23
11
33
3
20
37
19
61
10
65
36
53
28
22
32
24
39
57
25
49
41
29
58
45
46
18
60
56
27
35
47
50
40
63
51
54
16
48
52
8
4
38
30
42
26
43

>  <PUBCHEM_MMFF94_PARTIAL_CHARGES>  (1) 
23
1 -0.53
10 -0.18
11 -0.18
12 -0.15
13 -0.15
14 0.09
19 0.42
2 -0.57
22 0.15
23 0.15
24 0.15
25 0.15
26 0.15
27 0.15
3 0.14
4 0.14
40 0.06
41 0.45
5 0.03
6 0.03
7 0.08
8 -0.29
9 -0.29

>  <PUBCHEM_EFFECTIVE_ROTOR_COUNT>  (1) 
5

>  <PUBCHEM_PHARMACOPHORE_FEATURES>  (1) 
5
1 1 donor
1 2 acceptor
3 3 15 16 hydrophobe
3 4 17 18 hydrophobe
6 5 6 7 12 13 14 rings

>  <PUBCHEM_HEAVY_ATOM_COUNT>  (1) 
19

>  <PUBCHEM_ATOM_DEF_STEREO_COUNT>  (1) 
0

>  <PUBCHEM_ATOM_UDEF_STEREO_COUNT>  (1) 
0

>  <PUBCHEM_BOND_DEF_STEREO_COUNT>  (1) 
0

>  <PUBCHEM_BOND_UDEF_STEREO_COUNT>  (1) 
2

>  <PUBCHEM_ISOTOPIC_ATOM_COUNT>  (1) 
0

>  <PUBCHEM_COMPONENT_COUNT>  (1) 
1

>  <PUBCHEM_CACTVS_TAUTO_COUNT>  (1) 
4

>  <PUBCHEM_CONFORMER_ID>  (1) 
00009D7200000002

>  <PUBCHEM_MMFF94_ENERGY>  (1) 
43.6986

>  <PUBCHEM_FEATURE_SELFOVERLAP>  (1) 
25.371

>  <PUBCHEM_SHAPE_FINGERPRINT>  (1) 
10382601 240 18042403534693170283
10411042 1 17258215168938596015
10493431 412 18410854377970587005
1100329 8 18267865158352830216
11036077 3 18410857650746319974
12293681 160 17775004565897213296
12390115 104 18341626939731586713
12788726 201 17685230751602299862
13140716 1 18335980865908769539
13631057 29 18200866396968052383
13955234 65 18121225268731853483
14347332 77 9222695305356457488
14790565 3 18410578366150786892
15042514 8 18263078984637801034
15664445 248 17410787860226021799
15927050 60 18412262839677084558
17539 30 17911230942727882790
17980427 23 17386297596416853015
18222031 100 8646766707742269916
18785283 64 18190176785233810794
19784866 170 18334860476629271949
19784866 34 18340484478578608717
200 152 11527953360976656228
204376 136 18409166606120656135
20739085 24 18117002091423549372
21054139 6 18341883143822575583
21236236 1 18339078310776401671
212916 134 18271227392201509104
21452121 103 18339921502834187162
21781051 124 18115047254692519818
22182313 1 18195836087198054655
22224240 67 18412543236985197193
23402539 116 18272643584626761348
23557571 272 18127706026752319526
23559900 14 17833264221563009475
25147074 1 18266999756865786463
2916195 48 18059567031462273240
293599 30 18411983567812095172
3091708 16 9409143868159348411
335352 9 18410855456777420998
3411729 13 18263926549035759867
350125 39 18265336290815441181
3759504 43 18409449223490245151
458136 41 18338514132113894783
474229 33 18407476665512973705
5104073 3 18190186681402574185
5486654 2 18411704304680316485
59755656 520 18410288133724703838
633830 44 18271803471600896495
77188 2 17257934793214861967
9981440 41 18409452462375427195

>  <PUBCHEM_SHAPE_MULTIPOLES>  (1) 
379.27
12
3.62
0.83
1.42
5.05
0
-12.33
-1.6
-1.14
-0.04
0.64
-0.23
-0.59

>  <PUBCHEM_SHAPE_SELFOVERLAP>  (1) 
772.462

>  <PUBCHEM_SHAPE_VOLUME>  (1) 
222.7

>  <PUBCHEM_COORDINATE_TYPE>  (1) 
2
5
10

$$$$
