40302
     RDKit          3D

 12 13  0  0  0  0  0  0  0  0999 V2000
    2.9592    1.2523   -0.3043 S   0  0  0  0  0  0  0  0  0  0  0  0
    1.5047   -0.8208    0.2147 N   0  0  0  0  0  0  0  0  0  0  0  0
    3.8395   -1.1800    0.3160 N   0  0  0  0  0  0  0  0  0  0  0  0
   -0.7736    0.0702   -0.0213 C   0  0  0  0  0  0  0  0  0  0  0  0
    0.6526    0.2314   -0.0557 C   0  0  0  0  0  0  0  0  0  0  0  0
   -1.5892    1.1476    0.3250 C   0  0  0  0  0  0  0  0  0  0  0  0
   -1.3438   -1.1639   -0.3341 C   0  0  0  0  0  0  0  0  0  0  0  0
    1.2546    1.4341   -0.3579 C   0  0  0  0  0  0  0  0  0  0  0  0
   -2.9748    0.9910    0.3588 C   0  0  0  0  0  0  0  0  0  0  0  0
   -2.7296   -1.3204   -0.3004 C   0  0  0  0  0  0  0  0  0  0  0  0
   -3.5449   -0.2430    0.0460 C   0  0  0  0  0  0  0  0  0  0  0  0
    2.7454   -0.3984    0.1132 C   0  0  0  0  0  0  0  0  0  0  0  0
  1  8  1  0
  1 12  1  0
  2  5  1  0
  2 12  2  0
  3 12  1  0
  4  5  1  0
  4  6  2  0
  4  7  1  0
  5  8  2  0
  6  9  1  0
  7 10  2  0
  9 11  2  0
 10 11  1  0
M  END
>  <PUBCHEM_COMPOUND_CID>  (1) 
40302

>  <PUBCHEM_CONFORMER_RMSD>  (1) 
0.4

>  <PUBCHEM_CONFORMER_DIVERSEORDER>  (1) 
1
2
3

>  <PUBCHEM_MMFF94_PARTIAL_CHARGES>  (1) 
20
1 -0.08
10 -0.15
11 -0.15
12 0.46
13 0.15
14 0.15
15 0.15
16 0.15
17 0.15
18 0.15
19 0.4
2 -0.57
20 0.4
3 -0.88
4 0.05
5 0.17
6 -0.15
7 -0.15
8 -0.11
9 -0.15

>  <PUBCHEM_EFFECTIVE_ROTOR_COUNT>  (1) 
1

>  <PUBCHEM_PHARMACOPHORE_FEATURES>  (1) 
4
1 3 donor
3 2 3 12 cation
5 1 2 5 8 12 rings
6 4 6 7 9 10 11 rings

>  <PUBCHEM_HEAVY_ATOM_COUNT>  (1) 
12

>  <PUBCHEM_ATOM_DEF_STEREO_COUNT>  (1) 
0

>  <PUBCHEM_ATOM_UDEF_STEREO_COUNT>  (1) 
0

>  <PUBCHEM_BOND_DEF_STEREO_COUNT>  (1) 
0

>  <PUBCHEM_BOND_UDEF_STEREO_COUNT>  (1) 
0

>  <PUBCHEM_ISOTOPIC_ATOM_COUNT>  (1) 
0

>  <PUBCHEM_COMPONENT_COUNT>  (1) 
1

>  <PUBCHEM_CACTVS_TAUTO_COUNT>  (1) 
2

>  <PUBCHEM_CONFORMER_ID>  (1) 
00009D6E00000001

>  <PUBCHEM_MMFF94_ENERGY>  (1) 
25.757

>  <PUBCHEM_FEATURE_SELFOVERLAP>  (1) 
20.297

>  <PUBCHEM_SHAPE_FINGERPRINT>  (1) 
10130415 120 18413670201347597008
10608611 8 18412259553709994161
11769659 78 18411412942614751519
12251169 10 18412263913064337154
12932764 1 17631732797628654497
13690532 89 18410007724195131967
14144814 61 18411420622010930569
14325111 11 18411139155666456397
15375462 189 18040995077731215650
15442244 35 18338518534624210696
15536298 74 18341895216748654244
15669948 3 18059293291631608679
15775835 57 18410864286370688941
16945 1 18341337682253088637
18186145 218 17603299366799589258
19422 9 18409171029789394862
200 152 18272639169695494455
20279233 1 15841551864160334741
20645477 70 18335415768402823079
20871998 184 17916590976419730503
20871998 22 18267868268631540166
21267235 1 18410865360059778370
21501502 16 18411703222248032245
21501925 9 18410001152984671122
22445834 79 18335137544731991435
2255824 54 18040719182175387386
23402539 116 17988633070258167165
23463225 33 18410575054825323654
23552423 10 18263081170575246325
23559900 14 18131348588479198496
3248919 1 17604431919684717344
369184 2 18411138060840023625
5104073 3 18411420626353339065
57096353 35 18266742578470953957
7364860 26 18270962457386772672
8030462 33 18336273451917765508

>  <PUBCHEM_SHAPE_MULTIPOLES>  (1) 
240.84
6.31
1.55
0.68
1.03
0.06
-0.02
-0.79
0.28
0.21
-0.04
0
0.03
-0.58

>  <PUBCHEM_SHAPE_SELFOVERLAP>  (1) 
510.183

>  <PUBCHEM_SHAPE_VOLUME>  (1) 
136.8

>  <PUBCHEM_COORDINATE_TYPE>  (1) 
2
5
10

$$$$
