40305
     RDKit          3D

 26 29  0  0  0  0  0  0  0  0999 V2000
    5.1480   -1.6111   -0.0023 O   0  0  0  0  0  0  0  0  0  0  0  0
    5.6464    1.1190   -0.1208 O   0  0  0  0  0  0  0  0  0  0  0  0
   -5.4894    1.3781    0.1194 O   0  0  0  0  0  0  0  0  0  0  0  0
   -6.1123   -1.3211    0.2378 O   0  0  0  0  0  0  0  0  0  0  0  0
   -0.3403    1.5603   -0.0059 N   0  0  0  0  0  0  0  0  0  0  0  0
   -0.7123    0.2646    0.0542 C   0  0  0  0  0  0  0  0  0  0  0  0
    0.3174   -0.7185    0.0700 C   0  0  0  0  0  0  0  0  0  0  0  0
    1.6911   -0.3035    0.0226 C   0  0  0  0  0  0  0  0  0  0  0  0
   -2.0981   -0.0902    0.0995 C   0  0  0  0  0  0  0  0  0  0  0  0
    1.9794    1.0757   -0.0388 C   0  0  0  0  0  0  0  0  0  0  0  0
   -2.4447   -1.4602    0.1614 C   0  0  0  0  0  0  0  0  0  0  0  0
    0.9274    1.9766   -0.0511 C   0  0  0  0  0  0  0  0  0  0  0  0
   -0.0911   -2.0654    0.1328 C   0  0  0  0  0  0  0  0  0  0  0  0
   -1.4382   -2.4273    0.1773 C   0  0  0  0  0  0  0  0  0  0  0  0
    2.8034   -1.1837    0.0325 C   0  0  0  0  0  0  0  0  0  0  0  0
   -3.1637    0.8436    0.0869 C   0  0  0  0  0  0  0  0  0  0  0  0
    3.3048    1.5395   -0.0872 C   0  0  0  0  0  0  0  0  0  0  0  0
   -1.2111    2.7344   -0.0360 C   0  0  0  0  0  0  0  0  0  0  0  0
   -3.7934   -1.8536    0.2071 C   0  0  0  0  0  0  0  0  0  0  0  0
    4.1202   -0.7168   -0.0151 C   0  0  0  0  0  0  0  0  0  0  0  0
    4.3709    0.6461   -0.0749 C   0  0  0  0  0  0  0  0  0  0  0  0
   -4.5005    0.4400    0.1328 C   0  0  0  0  0  0  0  0  0  0  0  0
   -4.8155   -0.9092    0.1929 C   0  0  0  0  0  0  0  0  0  0  0  0
    5.6087   -2.0869   -1.2654 C   0  0  0  0  0  0  0  0  0  0  0  0
    6.2816    1.3954    1.1265 C   0  0  0  0  0  0  0  0  0  0  0  0
   -5.9887    1.7741   -1.1562 C   0  0  0  0  0  0  0  0  0  0  0  0
  1 20  1  0
  1 24  1  0
  2 21  1  0
  2 25  1  0
  3 22  1  0
  3 26  1  0
  4 23  1  0
  5  6  2  0
  5 12  1  0
  5 18  1  0
  6  7  1  0
  6  9  1  0
  7  8  2  0
  7 13  1  0
  8 10  1  0
  8 15  1  0
  9 11  2  0
  9 16  1  0
 10 12  2  0
 10 17  1  0
 11 14  1  0
 11 19  1  0
 13 14  2  0
 15 20  2  0
 16 22  2  0
 17 21  2  0
 19 23  2  0
 20 21  1  0
 22 23  1  0
M  CHG  1   5   1
M  END
>  <PUBCHEM_COMPOUND_CID>  (1) 
40305

>  <PUBCHEM_CONFORMER_RMSD>  (1) 
0.6

>  <PUBCHEM_CONFORMER_DIVERSEORDER>  (1) 
1
2
3

>  <PUBCHEM_MMFF94_PARTIAL_CHARGES>  (1) 
29
1 -0.36
12 0.21
13 -0.15
14 -0.15
15 -0.15
16 -0.15
17 -0.15
18 0.49
19 -0.15
2 -0.36
20 0.08
21 0.08
22 0.08
23 0.08
24 0.28
25 0.28
26 0.28
27 0.15
28 0.15
29 0.15
3 -0.36
30 0.15
31 0.15
32 0.15
36 0.15
37 0.45
4 -0.53
5 -0.21
6 0.36

>  <PUBCHEM_EFFECTIVE_ROTOR_COUNT>  (1) 
3

>  <PUBCHEM_PHARMACOPHORE_FEATURES>  (1) 
8
1 1 acceptor
1 2 acceptor
1 3 acceptor
1 4 donor
6 5 6 7 8 10 12 rings
6 6 7 9 11 13 14 rings
6 8 10 15 17 20 21 rings
6 9 11 16 19 22 23 rings

>  <PUBCHEM_HEAVY_ATOM_COUNT>  (1) 
26

>  <PUBCHEM_ATOM_DEF_STEREO_COUNT>  (1) 
0

>  <PUBCHEM_ATOM_UDEF_STEREO_COUNT>  (1) 
0

>  <PUBCHEM_BOND_DEF_STEREO_COUNT>  (1) 
0

>  <PUBCHEM_BOND_UDEF_STEREO_COUNT>  (1) 
0

>  <PUBCHEM_ISOTOPIC_ATOM_COUNT>  (1) 
0

>  <PUBCHEM_COMPONENT_COUNT>  (1) 
1

>  <PUBCHEM_CACTVS_TAUTO_COUNT>  (1) 
3

>  <PUBCHEM_CONFORMER_ID>  (1) 
00009D7100000001

>  <PUBCHEM_MMFF94_ENERGY>  (1) 
148.4748

>  <PUBCHEM_FEATURE_SELFOVERLAP>  (1) 
40.677

>  <PUBCHEM_SHAPE_FINGERPRINT>  (1) 
10835480 77 18413101779754202560
10906281 52 18339662095140980420
11578080 2 16662884718580497759
12011746 2 18338237059462740999
12236239 1 17749104513222516848
12516196 113 18202001057563641464
12788726 201 17917158216697502992
12838862 33 18337089233843258817
13140716 1 18409729603208000203
13402501 40 18411700984575202823
13533116 47 17775288244798839874
13862211 1 18410009922891697219
14341114 176 18411426106699900880
14790565 3 18409172095215883185
15183329 4 18410013191292763399
15196674 1 18410294717840801603
1813 80 17313384547909440996
19591789 44 18410012104660769331
200 152 18060701706055457347
20511986 3 18342725339094909770
21033648 29 18340194284971521833
21130935 74 18202288008697988171
21236236 1 18342460288173658169
21267235 1 18409457994335943475
21279426 13 18410293571168890943
21421861 104 17895177876121273554
21709351 56 18335135393617683359
21792934 111 18339068307623184616
21859007 373 17969202465811407252
23402539 116 18342171181028941421
23559900 14 18413668024084267824
3004659 81 18261396629163513134
335352 9 18410013199893254431
34797466 226 16988571255232933160
34934 24 18409724075827897522
350125 39 18409449168109552348
3680242 22 18260544490123893578
4073 2 18041565853183894930
4214541 1 18409449202453122153
5104073 3 18410858763047905010
59755656 215 18265335010329982247
6138700 20 18337676308485595951
9709674 26 18337960119998329674

>  <PUBCHEM_SHAPE_MULTIPOLES>  (1) 
506.61
14.48
2.71
0.78
1.97
0
0.09
-0.74
0.79
-0.21
0.18
0.33
-0.01
1.6

>  <PUBCHEM_SHAPE_SELFOVERLAP>  (1) 
1134.989

>  <PUBCHEM_SHAPE_VOLUME>  (1) 
271.8

>  <PUBCHEM_COORDINATE_TYPE>  (1) 
2
5
10

$$$$
