40316
     RDKit          3D

 20 22  0  0  1  0  0  0  0  0999 V2000
   -1.4719    1.9251   -0.1443 S   0  0  0  0  0  0  0  0  0  0  0  0
    5.7740   -1.5065   -0.5825 O   0  0  0  0  0  0  0  0  0  0  0  0
    3.7703   -1.3168   -1.6242 O   0  0  0  0  0  0  0  0  0  0  0  0
   -0.8192   -0.5476    0.1903 N   0  0  0  0  0  0  0  0  0  0  0  0
    4.1423   -0.0387    0.4238 C   0  0  0  0  0  0  0  0  0  0  0  0
    2.7658    0.5179    0.2746 C   0  0  0  0  0  0  0  0  0  0  0  0
    0.3613    0.1807    0.1728 C   0  0  0  0  0  0  0  0  0  0  0  0
    1.6651   -0.3428    0.3125 C   0  0  0  0  0  0  0  0  0  0  0  0
    0.2070    1.5594   -0.0013 C   0  0  0  0  0  0  0  0  0  0  0  0
    2.5874    1.8859    0.1004 C   0  0  0  0  0  0  0  0  0  0  0  0
    1.3081    2.4298   -0.0403 C   0  0  0  0  0  0  0  0  0  0  0  0
    4.3861   -0.7496    1.7702 C   0  0  0  0  0  0  0  0  0  0  0  0
   -1.8388    0.2639    0.0331 C   0  0  0  0  0  0  0  0  0  0  0  0
    4.5158   -1.0064   -0.7042 C   0  0  0  0  0  0  0  0  0  0  0  0
   -3.2228   -0.1462    0.0013 C   0  0  0  0  0  0  0  0  0  0  0  0
   -3.5975   -1.3750    0.5433 C   0  0  0  0  0  0  0  0  0  0  0  0
   -4.1828    0.6867   -0.5722 C   0  0  0  0  0  0  0  0  0  0  0  0
   -4.9345   -1.7714    0.5118 C   0  0  0  0  0  0  0  0  0  0  0  0
   -5.5198    0.2903   -0.6035 C   0  0  0  0  0  0  0  0  0  0  0  0
   -5.8957   -0.9387   -0.0615 C   0  0  0  0  0  0  0  0  0  0  0  0
  1  9  1  0
  1 13  1  0
  2 14  1  0
  3 14  2  0
  4  7  1  0
  4 13  2  0
  5  6  1  0
  5 12  1  0
  5 14  1  0
  6  8  2  0
  6 10  1  0
  7  8  1  0
  7  9  2  0
  9 11  1  0
 10 11  2  0
 13 15  1  0
 15 16  2  0
 15 17  1  0
 16 18  1  0
 17 19  2  0
 18 20  2  0
 19 20  1  0
M  END
>  <PUBCHEM_COMPOUND_CID>  (1) 
40316

>  <PUBCHEM_CONFORMER_RMSD>  (1) 
0.6

>  <PUBCHEM_CONFORMER_DIVERSEORDER>  (1) 
2
6
4
7
3
10
8
1
9
5

>  <PUBCHEM_MMFF94_PARTIAL_CHARGES>  (1) 
28
1 -0.08
10 -0.15
11 -0.15
13 0.33
14 0.66
15 0.05
16 -0.15
17 -0.15
18 -0.15
19 -0.15
2 -0.65
20 -0.15
22 0.15
23 0.15
24 0.15
28 0.15
29 0.15
3 -0.57
30 0.15
31 0.15
32 0.15
33 0.5
4 -0.57
5 0.2
6 -0.14
7 0.23
8 -0.15
9 0.04

>  <PUBCHEM_EFFECTIVE_ROTOR_COUNT>  (1) 
3

>  <PUBCHEM_PHARMACOPHORE_FEATURES>  (1) 
8
1 12 hydrophobe
1 2 acceptor
1 3 acceptor
1 4 acceptor
3 2 3 14 anion
5 1 4 7 9 13 rings
6 15 16 17 18 19 20 rings
6 6 7 8 9 10 11 rings

>  <PUBCHEM_HEAVY_ATOM_COUNT>  (1) 
20

>  <PUBCHEM_ATOM_DEF_STEREO_COUNT>  (1) 
0

>  <PUBCHEM_ATOM_UDEF_STEREO_COUNT>  (1) 
1

>  <PUBCHEM_BOND_DEF_STEREO_COUNT>  (1) 
0

>  <PUBCHEM_BOND_UDEF_STEREO_COUNT>  (1) 
0

>  <PUBCHEM_ISOTOPIC_ATOM_COUNT>  (1) 
0

>  <PUBCHEM_COMPONENT_COUNT>  (1) 
1

>  <PUBCHEM_CACTVS_TAUTO_COUNT>  (1) 
1

>  <PUBCHEM_CONFORMER_ID>  (1) 
00009D7C00000002

>  <PUBCHEM_MMFF94_ENERGY>  (1) 
50.3627

>  <PUBCHEM_FEATURE_SELFOVERLAP>  (1) 
40.727

>  <PUBCHEM_SHAPE_FINGERPRINT>  (1) 
11128504 68 15213020466106257199
11405975 8 18334856151929274329
11543360 7 15430325758065610936
11796584 16 18335135406075602931
11858739 19 18272368672444143581
12032990 46 18411703183725318752
12236239 1 17632858651013458945
12596602 18 15195559130636110695
12670546 56 16128657431369153619
13288520 33 18410013226100875261
13533116 47 17775004617373263352
13675066 3 18060413625266181601
13685833 64 18409171039022985819
13862211 1 18408314493394587611
13955234 65 18129096900134690544
14252887 29 18131069329541997786
14341114 176 18335706087323571737
14366163 111 14273455885760239044
15183329 4 18260825969622320161
15196674 1 18335136544479377897
15342816 4 18187365394520915568
15788980 27 17846495946165049397
15848702 151 18130794438370343759
17349148 13 17846788429047896547
17492 89 18122627421014399615
17844677 252 18187366545340477701
1813 80 18186804677407468612
18186145 218 17676475194750092789
18222031 100 18412824681511995352
19141452 34 17917988408184922751
193927 3 18271818907739647052
19784866 240 18271534129880474585
200 152 18130785672722076137
20028762 73 18201715206147846431
20369508 70 18261104193192834416
20374829 77 18261107469983712809
20403669 9 18410575076094457775
20645477 70 18410292553235397660
21033648 29 17345735418145463457
21033650 10 17170691981682065284
21150785 3 13262682573651499259
21267235 1 18335425686230953995
21279426 13 18335413557122354661
21682296 61 17988371359914149815
221490 88 18116719710477524393
2215653 11 18409724067570097151
22224240 67 17631999945633754714
23016692 55 18411710867695871452
23175994 123 18272368689983131225
23402539 116 18343011208403276621
23557571 272 18271247097353519068
23559900 14 18335415815832008161
239999 70 18410574011633424522
2871803 45 18260545623552050088
29717793 49 18342452664901730293
3004659 81 18186239532999688420
312423 11 18339656606342224441
314173 85 18342176652474690521
335352 9 18335699426103654501
3411729 13 18191859240362758920
4214541 1 18334289877845323205
4340502 62 14045745941147938317
465052 167 18342463668038366822
474 4 11455892494015081504
4990 188 18334857225048423795
5104073 3 18409729608094136585
5207 123 18413111640824508356
5281201 14 17968092079489695077
542803 24 14779263107763847991
5718773 13 18197218045451853918
59682541 52 14056993863960081386
59755656 215 18261669286524898935
633830 44 17677322948269173777
8863177 126 17823713056115882971
960060 61 17095242518826609826
9709674 26 18116999003853604195

>  <PUBCHEM_SHAPE_MULTIPOLES>  (1) 
398.72
13.32
2.04
0.99
4.73
0.76
-0.01
-7.52
1.13
-0.44
0.03
-1.13
-0.36
0.94

>  <PUBCHEM_SHAPE_SELFOVERLAP>  (1) 
864.194

>  <PUBCHEM_SHAPE_VOLUME>  (1) 
219.9

>  <PUBCHEM_COORDINATE_TYPE>  (1) 
2
5
10

$$$$
