40319
     RDKit          3D

 16 17  0  0  0  0  0  0  0  0999 V2000
    0.9122   -3.1612    0.0793 Cl  0  0  0  0  0  0  0  0  0  0  0  0
    2.5226    2.8516   -0.3976 Cl  0  0  0  0  0  0  0  0  0  0  0  0
    4.5840    0.6718    0.8181 Cl  0  0  0  0  0  0  0  0  0  0  0  0
   -0.7774   -0.9219   -1.0001 O   0  0  0  0  0  0  0  0  0  0  0  0
    0.4864   -0.5537   -0.5697 C   0  0  0  0  0  0  0  0  0  0  0  0
   -1.8471   -0.3417   -0.3910 C   0  0  0  0  0  0  0  0  0  0  0  0
    1.3549   -1.4990   -0.0526 C   0  0  0  0  0  0  0  0  0  0  0  0
    0.8456    0.7793   -0.6746 C   0  0  0  0  0  0  0  0  0  0  0  0
    2.1125    1.1787   -0.2493 C   0  0  0  0  0  0  0  0  0  0  0  0
    2.6220   -1.0997    0.3729 C   0  0  0  0  0  0  0  0  0  0  0  0
    3.0008    0.2392    0.2746 C   0  0  0  0  0  0  0  0  0  0  0  0
   -1.8808   -0.2263    0.9986 C   0  0  0  0  0  0  0  0  0  0  0  0
   -2.9103    0.1372   -1.1566 C   0  0  0  0  0  0  0  0  0  0  0  0
   -2.9777    0.3678    1.6228 C   0  0  0  0  0  0  0  0  0  0  0  0
   -4.0071    0.7314   -0.5324 C   0  0  0  0  0  0  0  0  0  0  0  0
   -4.0407    0.8466    0.8574 C   0  0  0  0  0  0  0  0  0  0  0  0
  1  7  1  0
  2  9  1  0
  3 11  1  0
  4  5  1  0
  4  6  1  0
  5  7  2  0
  5  8  1  0
  6 12  2  0
  6 13  1  0
  7 10  1  0
  8  9  2  0
  9 11  1  0
 10 11  2  0
 12 14  1  0
 13 15  2  0
 14 16  2  0
 15 16  1  0
M  END
>  <PUBCHEM_COMPOUND_CID>  (1) 
40319

>  <PUBCHEM_CONFORMER_RMSD>  (1) 
0.6

>  <PUBCHEM_CONFORMER_DIVERSEORDER>  (1) 
1
2
5
4
6
7
3

>  <PUBCHEM_MMFF94_PARTIAL_CHARGES>  (1) 
23
1 -0.18
10 -0.15
11 0.18
12 -0.15
13 -0.15
14 -0.15
15 -0.15
16 -0.15
17 0.15
18 0.15
19 0.15
2 -0.18
20 0.15
21 0.15
22 0.15
23 0.15
3 -0.18
4 -0.17
5 0.08
6 0.08
7 0.18
8 -0.15
9 0.18

>  <PUBCHEM_EFFECTIVE_ROTOR_COUNT>  (1) 
2

>  <PUBCHEM_PHARMACOPHORE_FEATURES>  (1) 
3
1 4 acceptor
6 5 7 8 9 10 11 rings
6 6 12 13 14 15 16 rings

>  <PUBCHEM_HEAVY_ATOM_COUNT>  (1) 
16

>  <PUBCHEM_ATOM_DEF_STEREO_COUNT>  (1) 
0

>  <PUBCHEM_ATOM_UDEF_STEREO_COUNT>  (1) 
0

>  <PUBCHEM_BOND_DEF_STEREO_COUNT>  (1) 
0

>  <PUBCHEM_BOND_UDEF_STEREO_COUNT>  (1) 
0

>  <PUBCHEM_ISOTOPIC_ATOM_COUNT>  (1) 
0

>  <PUBCHEM_COMPONENT_COUNT>  (1) 
1

>  <PUBCHEM_CACTVS_TAUTO_COUNT>  (1) 
1

>  <PUBCHEM_CONFORMER_ID>  (1) 
00009D7F00000001

>  <PUBCHEM_MMFF94_ENERGY>  (1) 
49.1261

>  <PUBCHEM_FEATURE_SELFOVERLAP>  (1) 
15.223

>  <PUBCHEM_SHAPE_FINGERPRINT>  (1) 
10366900 7 17894638041127729693
10465860 228 18271250430295255942
10498660 4 15913053062808229145
10980938 120 18410291376461831414
11471102 22 18113618980112462356
11640471 11 17917998260902975545
11725454 13 16880437512198539919
12236239 1 17918268740847648631
12251169 10 18260267464300569864
124424 183 17313093151173180213
12507557 5 18409443721690075041
12633257 1 17749114404236924337
13140716 1 18263362649952529824
14790565 3 18335430101442380796
15209294 21 18059561525820212256
15309172 13 18335982047103227942
15375358 24 17894907395659212815
15653759 3 17094962138961168485
15775835 57 17917992767418193041
16945 1 18409170974033954486
1813 80 17554623798466359870
18186145 218 18342464750522820246
18219364 16 18333444361333952933
19049666 15 17461434729092280343
20157964 124 18338230463200290789
20279233 1 17530966860932867835
204376 136 18410011074153604290
20510252 161 17836646701044242930
20600515 1 15574990611713881583
20645464 45 17458345230451780379
20645477 70 18190165807128512919
20739085 24 18336550396368493632
21524375 3 18201155558854508894
21731228 192 18335422425749682034
22169311 14 17313103063952574049
2255824 54 18341338794676349574
22854114 111 18412548686808117657
23184049 59 18408318882871892732
23402539 116 15769768053060850288
23557571 272 14333120906154319717
2838139 119 15697135487962514432
3472631 163 16487259846418967993
350125 39 18120941860702990818
474 4 18412825802150358425
633830 44 18201168714524167396
7364860 26 18129665175567879718
77492 1 17846210025770716767
81228 2 16892852926684421878
8272917 22 18339082579736218351
9981440 41 16910283974483353224

>  <PUBCHEM_SHAPE_MULTIPOLES>  (1) 
329.01
7.56
2.39
1.17
1.96
0.8
0.21
-3.47
1.87
-2.28
-0.23
0.86
-0.12
-0.29

>  <PUBCHEM_SHAPE_SELFOVERLAP>  (1) 
683.568

>  <PUBCHEM_SHAPE_VOLUME>  (1) 
190.3

>  <PUBCHEM_COORDINATE_TYPE>  (1) 
2
5
10

$$$$
