40315
     RDKit          3D

 20 22  0  0  0  0  0  0  0  0999 V2000
   -1.7930    1.8124    0.4529 S   0  0  0  0  0  0  0  0  0  0  0  0
    6.5645   -1.5548    1.2221 O   0  0  0  0  0  0  0  0  0  0  0  0
    6.4243   -0.8537   -0.9339 O   0  0  0  0  0  0  0  0  0  0  0  0
   -1.1274   -0.5497   -0.3411 N   0  0  0  0  0  0  0  0  0  0  0  0
    2.4376    0.5839   -0.3883 C   0  0  0  0  0  0  0  0  0  0  0  0
    3.8131    0.0888   -0.6887 C   0  0  0  0  0  0  0  0  0  0  0  0
    0.0442    0.1871   -0.2456 C   0  0  0  0  0  0  0  0  0  0  0  0
   -0.1181    1.5103    0.1761 C   0  0  0  0  0  0  0  0  0  0  0  0
    1.3463   -0.2781   -0.5310 C   0  0  0  0  0  0  0  0  0  0  0  0
    2.2512    1.8960    0.0325 C   0  0  0  0  0  0  0  0  0  0  0  0
    4.5266   -0.5211    0.5232 C   0  0  0  0  0  0  0  0  0  0  0  0
    0.9734    2.3815    0.3216 C   0  0  0  0  0  0  0  0  0  0  0  0
   -2.1481    0.2014    0.0008 C   0  0  0  0  0  0  0  0  0  0  0  0
   -3.5243   -0.2348    0.0197 C   0  0  0  0  0  0  0  0  0  0  0  0
   -3.8236   -1.5956    0.0719 C   0  0  0  0  0  0  0  0  0  0  0  0
   -4.5525    0.7061   -0.0152 C   0  0  0  0  0  0  0  0  0  0  0  0
    5.9247   -0.9734    0.1776 C   0  0  0  0  0  0  0  0  0  0  0  0
   -5.1535   -2.0162    0.0891 C   0  0  0  0  0  0  0  0  0  0  0  0
   -5.8824    0.2856    0.0020 C   0  0  0  0  0  0  0  0  0  0  0  0
   -6.1829   -1.0756    0.0542 C   0  0  0  0  0  0  0  0  0  0  0  0
  1  8  1  0
  1 13  1  0
  2 17  1  0
  3 17  2  0
  4  7  1  0
  4 13  2  0
  5  6  1  0
  5  9  2  0
  5 10  1  0
  6 11  1  0
  7  8  2  0
  7  9  1  0
  8 12  1  0
 10 12  2  0
 11 17  1  0
 13 14  1  0
 14 15  2  0
 14 16  1  0
 15 18  1  0
 16 19  2  0
 18 20  2  0
 19 20  1  0
M  END
>  <PUBCHEM_COMPOUND_CID>  (1) 
40315

>  <PUBCHEM_CONFORMER_RMSD>  (1) 
0.6

>  <PUBCHEM_CONFORMER_DIVERSEORDER>  (1) 
1
14
13
4
9
2
10
3
11
8
12
7
5
6

>  <PUBCHEM_MMFF94_PARTIAL_CHARGES>  (1) 
29
1 -0.08
10 -0.15
11 0.06
12 -0.15
13 0.33
14 0.05
15 -0.15
16 -0.15
17 0.66
18 -0.15
19 -0.15
2 -0.65
20 -0.15
23 0.15
24 0.15
27 0.15
28 0.15
29 0.15
3 -0.57
30 0.15
31 0.15
32 0.15
33 0.5
4 -0.57
5 -0.14
6 0.14
7 0.23
8 0.04
9 -0.15

>  <PUBCHEM_EFFECTIVE_ROTOR_COUNT>  (1) 
4

>  <PUBCHEM_PHARMACOPHORE_FEATURES>  (1) 
7
1 2 acceptor
1 3 acceptor
1 4 acceptor
3 2 3 17 anion
5 1 4 7 8 13 rings
6 14 15 16 18 19 20 rings
6 5 7 8 9 10 12 rings

>  <PUBCHEM_HEAVY_ATOM_COUNT>  (1) 
20

>  <PUBCHEM_ATOM_DEF_STEREO_COUNT>  (1) 
0

>  <PUBCHEM_ATOM_UDEF_STEREO_COUNT>  (1) 
0

>  <PUBCHEM_BOND_DEF_STEREO_COUNT>  (1) 
0

>  <PUBCHEM_BOND_UDEF_STEREO_COUNT>  (1) 
0

>  <PUBCHEM_ISOTOPIC_ATOM_COUNT>  (1) 
0

>  <PUBCHEM_COMPONENT_COUNT>  (1) 
1

>  <PUBCHEM_CACTVS_TAUTO_COUNT>  (1) 
1

>  <PUBCHEM_CONFORMER_ID>  (1) 
00009D7B00000001

>  <PUBCHEM_MMFF94_ENERGY>  (1) 
45.8952

>  <PUBCHEM_FEATURE_SELFOVERLAP>  (1) 
35.65

>  <PUBCHEM_SHAPE_FINGERPRINT>  (1) 
10 15 17774993601705412706
106641 1 17988917903946490354
10670039 82 11747205832616590406
10753850 27 18113894949331444530
11315181 36 18343306976735749281
11524674 6 17275384313499237311
11796584 16 17821449066541374546
12166972 35 18040158430802493876
12236239 1 18114183016956392740
12516196 113 18413388739846677272
12616971 3 17774719865647917773
12760667 363 18342174466831903469
13288520 33 18410294714078532381
13533116 47 18259984882087447256
13685833 64 18410577305161313978
13740256 8 18410576209949791734
13862211 1 18342175592034460751
14123256 34 18411146848058605954
14251752 14 17895188870683643389
15183329 4 16950276295755242051
15196674 1 18341051929963919141
15927050 60 17695625539374588740
17492 89 18050005799170777923
17857418 61 18335421257434116434
18222031 100 18341339937664923972
19784866 240 18409173207427601668
200 152 17988928898883595049
20028762 73 18131068276790636646
20374829 77 18409731763808710357
20832881 197 18408604781433069913
21033648 29 16629948933031048891
21150785 3 15791737429265685022
21267235 1 18412553110402802079
21637258 2 17822002104274233026
22182313 1 17488472870960109172
22224240 67 16343696634322425246
2297311 6 18130797711889920876
23035841 295 18334858307528122475
23198884 109 15574715776956842301
23402539 116 18341610421429765319
23522609 53 18118999989877471540
23536379 177 17312822662770246676
23559900 14 18263640826484313841
249999 5 18056192708161494944
25147074 1 18339100236447706880
26918003 58 18273216404657439785
3004659 81 18259989284212589420
335352 9 18411419506105573389
3411729 13 18057878246828606144
351380 3 18334290959760409058
4073 2 17897731096370318632
4214541 1 18411703201691190949
465052 167 18413111679959229494
5104073 3 18201446938532271849
559249 180 18410009923587594155
5718773 13 18270113660444158479
59682541 35 18271515490946179248
59682541 52 14490740240228928306
59755656 215 18411421670152321310
6138700 20 18408323263396214995
8863177 126 18044387251534157939
9709674 26 18048600610504180083

>  <PUBCHEM_SHAPE_MULTIPOLES>  (1) 
398.72
16.1
2.05
0.79
7.78
0.54
0.04
-10.78
1.2
-0.14
0.32
0.74
-0.1
-0.4

>  <PUBCHEM_SHAPE_SELFOVERLAP>  (1) 
859.377

>  <PUBCHEM_SHAPE_VOLUME>  (1) 
220.2

>  <PUBCHEM_COORDINATE_TYPE>  (1) 
2
5
10

$$$$
