40311
     RDKit          3D

 12 11  0  0  0  0  0  0  0  0999 V2000
   -0.5778    0.0529    0.0972 O   0  0  0  0  0  0  0  0  0  0  0  0
    3.4814   -0.9489   -1.1029 O   0  0  0  0  0  0  0  0  0  0  0  0
    1.6127    2.2886    0.9162 O   0  0  0  0  0  0  0  0  0  0  0  0
    0.5898   -1.8641    0.5388 O   0  0  0  0  0  0  0  0  0  0  0  0
    1.7254    0.1084    0.0527 N   0  0  0  0  0  0  0  0  0  0  0  0
   -2.9952    0.2659    0.0699 C   0  0  0  0  0  0  0  0  0  0  0  0
   -1.8011   -0.6694    0.2795 C   0  0  0  0  0  0  0  0  0  0  0  0
   -3.0071    0.8459   -1.3460 C   0  0  0  0  0  0  0  0  0  0  0  0
   -4.3035   -0.4688    0.3536 C   0  0  0  0  0  0  0  0  0  0  0  0
    0.5772   -0.6674    0.2562 C   0  0  0  0  0  0  0  0  0  0  0  0
    3.0632   -0.4690    0.1656 C   0  0  0  0  0  0  0  0  0  0  0  0
    1.6350    1.5259   -0.2808 C   0  0  0  0  0  0  0  0  0  0  0  0
  1  7  1  0
  1 10  1  0
  2 11  1  0
  3 12  1  0
  4 10  2  0
  5 10  1  0
  5 11  1  0
  5 12  1  0
  6  7  1  0
  6  8  1  0
  6  9  1  0
M  END
>  <PUBCHEM_COMPOUND_CID>  (1) 
40311

>  <PUBCHEM_CONFORMER_RMSD>  (1) 
0.6

>  <PUBCHEM_CONFORMER_DIVERSEORDER>  (1) 
1
82
29
52
72
27
31
68
30
53
38
57
41
76
69
12
83
78
18
7
54
58
3
74
67
35
22
24
62
37
73
65
61
81
16
75
21
32
26
42
79
9
17
39
19
44
66
48
33
23
10
46
20
64
45
49
36
6
51
40
77
47
28
25
80
14
56
50
60
70
63
5
4
13
43
71
2
8
34
15
59
55
11

>  <PUBCHEM_MMFF94_PARTIAL_CHARGES>  (1) 
11
1 -0.43
10 0.78
11 0.58
12 0.58
2 -0.68
26 0.4
27 0.4
3 -0.68
4 -0.57
5 -0.66
7 0.28

>  <PUBCHEM_EFFECTIVE_ROTOR_COUNT>  (1) 
6

>  <PUBCHEM_PHARMACOPHORE_FEATURES>  (1) 
6
1 2 acceptor
1 2 donor
1 3 acceptor
1 3 donor
1 4 acceptor
3 6 8 9 hydrophobe

>  <PUBCHEM_HEAVY_ATOM_COUNT>  (1) 
12

>  <PUBCHEM_ATOM_DEF_STEREO_COUNT>  (1) 
0

>  <PUBCHEM_ATOM_UDEF_STEREO_COUNT>  (1) 
0

>  <PUBCHEM_BOND_DEF_STEREO_COUNT>  (1) 
0

>  <PUBCHEM_BOND_UDEF_STEREO_COUNT>  (1) 
0

>  <PUBCHEM_ISOTOPIC_ATOM_COUNT>  (1) 
0

>  <PUBCHEM_COMPONENT_COUNT>  (1) 
1

>  <PUBCHEM_CACTVS_TAUTO_COUNT>  (1) 
1

>  <PUBCHEM_CONFORMER_ID>  (1) 
00009D7700000001

>  <PUBCHEM_MMFF94_ENERGY>  (1) 
15.2647

>  <PUBCHEM_FEATURE_SELFOVERLAP>  (1) 
30.447

>  <PUBCHEM_SHAPE_FINGERPRINT>  (1) 
11062470 55 8718827574587462387
12932764 1 18187075166079212795
13922767 16 18410846677152345200
14325111 11 18336265746941465755
15775835 57 18268152126840190525
18186145 218 18411417323718633915
20233049 118 18041274383754612252
20339313 130 18131075921910673656
20606313 2 18413671326797911320
20671657 53 18271531901029811808
21028194 46 18187645829709319811
230 275 18115291380184997449
2748010 2 18263646345131881387
81228 2 16388718014870303931

>  <PUBCHEM_SHAPE_MULTIPOLES>  (1) 
218.5
6.71
1.65
0.94
3.49
0.53
0.2
-0.47
0.93
-0.98
-0.28
0.02
0.2
0.84

>  <PUBCHEM_SHAPE_SELFOVERLAP>  (1) 
405.861

>  <PUBCHEM_SHAPE_VOLUME>  (1) 
136.8

>  <PUBCHEM_COORDINATE_TYPE>  (1) 
2
5
10

$$$$
