40322
     RDKit          3D

 17 19  0  0  0  0  0  0  0  0999 V2000
   -0.7351    1.2442    0.3437 O   0  0  0  0  0  0  0  0  0  0  0  0
   -0.6711   -0.8659   -0.4945 N   0  0  0  0  0  0  0  0  0  0  0  0
   -3.0835   -1.2243   -0.5320 N   0  0  0  0  0  0  0  0  0  0  0  0
    1.5076   -3.0906    0.4148 N   0  0  0  0  0  0  0  0  0  0  0  0
    1.4305    0.4006   -0.0844 C   0  0  0  0  0  0  0  0  0  0  0  0
    0.0087    0.1919   -0.1056 C   0  0  0  0  0  0  0  0  0  0  0  0
   -2.0176    0.7979    0.2226 C   0  0  0  0  0  0  0  0  0  0  0  0
   -1.9720   -0.4885   -0.2887 C   0  0  0  0  0  0  0  0  0  0  0  0
    2.3321   -0.6550    0.0974 C   0  0  0  0  0  0  0  0  0  0  0  0
    1.9224    1.7003   -0.2522 C   0  0  0  0  0  0  0  0  0  0  0  0
   -3.1980    1.4518    0.5324 C   0  0  0  0  0  0  0  0  0  0  0  0
    3.7059   -0.4138    0.1110 C   0  0  0  0  0  0  0  0  0  0  0  0
    3.2961    1.9413   -0.2388 C   0  0  0  0  0  0  0  0  0  0  0  0
   -4.3510    0.7092    0.2872 C   0  0  0  0  0  0  0  0  0  0  0  0
    4.1879    0.8844   -0.0572 C   0  0  0  0  0  0  0  0  0  0  0  0
   -4.2391   -0.5814   -0.2288 C   0  0  0  0  0  0  0  0  0  0  0  0
    1.8761   -2.0022    0.2730 C   0  0  0  0  0  0  0  0  0  0  0  0
  1  6  1  0
  1  7  1  0
  2  6  2  0
  2  8  1  0
  3  8  1  0
  3 16  2  0
  4 17  3  0
  5  6  1  0
  5  9  2  0
  5 10  1  0
  7  8  2  0
  7 11  1  0
  9 12  1  0
  9 17  1  0
 10 13  2  0
 11 14  2  0
 12 15  2  0
 13 15  1  0
 14 16  1  0
M  END
>  <PUBCHEM_COMPOUND_CID>  (1) 
40322

>  <PUBCHEM_CONFORMER_RMSD>  (1) 
0.6

>  <PUBCHEM_CONFORMER_DIVERSEORDER>  (1) 
1
6
4
5
2
3

>  <PUBCHEM_MMFF94_PARTIAL_CHARGES>  (1) 
24
1 -0.28
10 -0.15
11 -0.15
12 -0.15
13 -0.15
14 -0.15
15 -0.15
16 0.16
17 0.48
18 0.15
19 0.15
2 -0.57
20 0.15
21 0.15
22 0.15
23 0.15
24 0.15
3 -0.57
4 -0.56
5 0.05
6 0.43
7 0.14
8 0.48
9 0.07

>  <PUBCHEM_EFFECTIVE_ROTOR_COUNT>  (1) 
1

>  <PUBCHEM_PHARMACOPHORE_FEATURES>  (1) 
5
1 3 acceptor
1 4 acceptor
5 1 2 6 7 8 rings
6 3 7 8 11 14 16 rings
6 5 9 10 12 13 15 rings

>  <PUBCHEM_HEAVY_ATOM_COUNT>  (1) 
17

>  <PUBCHEM_ATOM_DEF_STEREO_COUNT>  (1) 
0

>  <PUBCHEM_ATOM_UDEF_STEREO_COUNT>  (1) 
0

>  <PUBCHEM_BOND_DEF_STEREO_COUNT>  (1) 
0

>  <PUBCHEM_BOND_UDEF_STEREO_COUNT>  (1) 
0

>  <PUBCHEM_ISOTOPIC_ATOM_COUNT>  (1) 
0

>  <PUBCHEM_COMPONENT_COUNT>  (1) 
1

>  <PUBCHEM_CACTVS_TAUTO_COUNT>  (1) 
1

>  <PUBCHEM_CONFORMER_ID>  (1) 
00009D8200000001

>  <PUBCHEM_MMFF94_ENERGY>  (1) 
37.8336

>  <PUBCHEM_FEATURE_SELFOVERLAP>  (1) 
25.513

>  <PUBCHEM_SHAPE_FINGERPRINT>  (1) 
10616163 171 18341332287996282703
10967382 1 18410012130652067150
10980938 120 18408323255074824952
11471102 20 18408601457265415596
12107183 9 17691972562051232873
12236239 1 18273215305008752940
12251169 10 18412546474926366453
12553582 1 17760079623400888826
12644460 14 18335428906659880386
13380535 76 18333733550151197906
13760787 19 18343303673726414029
138480 1 17905607700987503714
14144814 61 18411418384475433121
14178342 30 18123175815328345432
14251717 144 18408601470224163942
15196674 1 18412545418116368404
15279307 12 18342174483495217375
15375358 24 18113056043080957395
15375462 6 18335701615798490461
15442244 35 18123753049773176680
15536298 74 18343585114296043430
15669948 3 17846208986552129231
16945 1 18336820888565286660
17492 89 18339925905466601851
18186145 218 18335419075690781588
19050596 39 18411981360161715569
200 152 18343295994377727277
201361 129 18411421687379013402
20279233 1 16153707626512772729
20559304 39 18340205189777136040
20645477 70 18341330003004765399
21267235 1 18412835684870229886
21421861 104 17970907756795281240
21501502 16 18341892948836954515
22445834 79 18339360768973250707
2255824 54 18334298682190501116
22854114 111 18409168809428517852
23402539 116 18060133271276104300
23402655 69 18411981351456061277
23463225 33 18341049614680829223
23559900 14 18198901422684375718
3060560 45 18408044022466675590
3312278 4 18341051903967099763
33824 294 18334857216722506330
34934 24 18342734105117795101
3545911 37 18410577284071657765
474 4 18188212116815816116
4990 188 17988937664764108148
5104073 3 18411699893658798305
57096353 35 18341610481422287589
603831 33 18201424926687748943
633830 44 18341899623121375948
7364860 26 18341615859001059502
77779 3 18412266146600506757
8272917 22 18338240370866818719
9709674 26 18410580582406457739
9981440 41 17403166497131927728

>  <PUBCHEM_SHAPE_MULTIPOLES>  (1) 
329.04
8.2
2.23
0.68
3.38
1.15
0
-1.66
0.07
-1.47
0.21
0.11
0
-0.73

>  <PUBCHEM_SHAPE_SELFOVERLAP>  (1) 
740.765

>  <PUBCHEM_SHAPE_VOLUME>  (1) 
171.4

>  <PUBCHEM_COORDINATE_TYPE>  (1) 
2
5
10

$$$$
