40320
     RDKit          3D

 18 20  0  0  0  0  0  0  0  0999 V2000
   -1.6709   -2.2513   -0.8803 O   0  0  0  0  0  0  0  0  0  0  0  0
    3.1737    0.6482   -1.1621 N   0  0  0  0  0  0  0  0  0  0  0  0
    3.9132    0.1364    0.8705 N   0  0  0  0  0  0  0  0  0  0  0  0
    5.3917    1.2112   -0.7055 N   0  0  0  0  0  0  0  0  0  0  0  0
    2.1121    0.0600   -0.5237 C   0  0  0  0  0  0  0  0  0  0  0  0
    2.5988   -0.2504    0.7430 C   0  0  0  0  0  0  0  0  0  0  0  0
   -0.0259   -0.8416    0.0014 C   0  0  0  0  0  0  0  0  0  0  0  0
    0.8076   -0.2185   -0.9332 C   0  0  0  0  0  0  0  0  0  0  0  0
    1.7476   -0.8761    1.6694 C   0  0  0  0  0  0  0  0  0  0  0  0
    0.4337   -1.1654    1.2801 C   0  0  0  0  0  0  0  0  0  0  0  0
   -1.3982   -1.1568   -0.3664 C   0  0  0  0  0  0  0  0  0  0  0  0
    4.2254    0.6709   -0.2888 C   0  0  0  0  0  0  0  0  0  0  0  0
   -2.5245   -0.2002   -0.1489 C   0  0  0  0  0  0  0  0  0  0  0  0
   -2.2493    1.0219    0.4194 C   0  0  0  0  0  0  0  0  0  0  0  0
   -3.7920   -0.5794   -0.5258 C   0  0  0  0  0  0  0  0  0  0  0  0
   -3.3011    1.9154    0.6224 C   0  0  0  0  0  0  0  0  0  0  0  0
   -4.8437    0.3141   -0.3228 C   0  0  0  0  0  0  0  0  0  0  0  0
   -4.5981    1.5615    0.2514 C   0  0  0  0  0  0  0  0  0  0  0  0
  1 11  2  0
  2  5  1  0
  2 12  1  0
  3  6  1  0
  3 12  2  0
  4 12  1  0
  5  6  2  0
  5  8  1  0
  6  9  1  0
  7  8  2  0
  7 10  1  0
  7 11  1  0
  9 10  2  0
 11 13  1  0
 13 14  2  0
 13 15  1  0
 14 16  1  0
 15 17  2  0
 16 18  2  0
 17 18  1  0
M  END
>  <PUBCHEM_COMPOUND_CID>  (1) 
40320

>  <PUBCHEM_CONFORMER_RMSD>  (1) 
0.6

>  <PUBCHEM_CONFORMER_DIVERSEORDER>  (1) 
2
1

>  <PUBCHEM_MMFF94_PARTIAL_CHARGES>  (1) 
29
1 -0.57
10 -0.15
11 0.4
12 0.27
13 0.09
14 -0.15
15 -0.15
16 -0.15
17 -0.15
18 -0.15
19 0.15
2 0.03
20 0.15
21 0.15
22 0.27
23 0.15
24 0.15
25 0.15
26 0.15
27 0.4
28 0.4
29 0.15
3 -0.57
4 -0.88
5 -0.15
6 0.23
7 0.09
8 -0.15
9 -0.15

>  <PUBCHEM_EFFECTIVE_ROTOR_COUNT>  (1) 
2

>  <PUBCHEM_PHARMACOPHORE_FEATURES>  (1) 
7
1 1 acceptor
1 2 donor
1 4 donor
4 2 3 4 12 cation
5 2 3 5 6 12 rings
6 13 14 15 16 17 18 rings
6 5 6 7 8 9 10 rings

>  <PUBCHEM_HEAVY_ATOM_COUNT>  (1) 
18

>  <PUBCHEM_ATOM_DEF_STEREO_COUNT>  (1) 
0

>  <PUBCHEM_ATOM_UDEF_STEREO_COUNT>  (1) 
0

>  <PUBCHEM_BOND_DEF_STEREO_COUNT>  (1) 
0

>  <PUBCHEM_BOND_UDEF_STEREO_COUNT>  (1) 
0

>  <PUBCHEM_ISOTOPIC_ATOM_COUNT>  (1) 
0

>  <PUBCHEM_COMPONENT_COUNT>  (1) 
1

>  <PUBCHEM_CACTVS_TAUTO_COUNT>  (1) 
9

>  <PUBCHEM_CONFORMER_ID>  (1) 
00009D8000000002

>  <PUBCHEM_MMFF94_ENERGY>  (1) 
50.4591

>  <PUBCHEM_FEATURE_SELFOVERLAP>  (1) 
35.671

>  <PUBCHEM_SHAPE_FINGERPRINT>  (1) 
10498660 4 18130503020887767113
10646746 165 18272647961150794176
11640471 11 18260833682892947449
12236239 1 18259698999967966487
12251169 10 15140968365310388683
12390115 104 16735825482659297484
12596602 18 17822013112127973337
12633257 1 14707222023264130005
12892183 10 16806170947845171689
12916748 109 18342464737648474199
13583140 156 17458627835194936857
13631057 29 17605842640923327579
14252887 29 15430314694356470098
14739800 52 18270378599743746928
15209294 21 18186799201466389172
15309172 13 16660644055025978515
15342168 16 17095815411597647342
15775835 57 18334576819713911177
17357779 13 15410897349000903392
1813 80 17682387049756420802
204376 136 17167867477828126762
20645477 56 18201441397533764375
20671657 53 11743832569169706059
21713013 43 14764045871341808029
221357 26 15338834232051946105
22854114 59 16588024606335419107
23048698 100 17895188870662375307
23366157 5 17979074886592086199
23402539 116 18130780170620849021
23557571 272 17917153913324583079
23559900 14 17775569715348578214
26918003 58 14201398283317207133
2838139 119 17915448609920037568
3268164 11 17988911276548449005
3472631 163 18411421730155172093
4028521 119 17775565312822470297
465052 167 9870879434828567429
474 4 17822014245830482084
5104073 3 16661767877171307640
5281201 14 16200430273428573865
59755656 520 17676207991955222282
633830 44 18040720294524665414
76465 3 8502361214294900249
77492 1 18260255348498807059
7808743 9 18200316507388023985

>  <PUBCHEM_SHAPE_MULTIPOLES>  (1) 
349.62
9.97
1.62
1.18
1.44
0.05
-0.24
-5.31
1.02
-1.02
-0.01
0.66
0.21
-1.26

>  <PUBCHEM_SHAPE_SELFOVERLAP>  (1) 
784.597

>  <PUBCHEM_SHAPE_VOLUME>  (1) 
185.5

>  <PUBCHEM_COORDINATE_TYPE>  (1) 
2
5
10

$$$$
