40339
     RDKit          3D

 23 25  0  0  1  0  0  0  0  0999 V2000
    0.5801    2.6490   -0.6661 O   0  0  0  0  0  0  0  0  0  0  0  0
    0.4478    1.0346   -2.3133 O   0  0  0  0  0  0  0  0  0  0  0  0
   -3.6821    0.2695    0.9140 N   0  0  0  0  0  0  0  0  0  0  0  0
    0.5311    0.3963    0.0274 C   0  0  0  0  0  0  0  0  0  0  0  0
   -0.0406    1.1471    1.2593 C   0  0  0  0  0  0  0  0  0  0  0  0
   -2.2593   -0.0112    1.1397 C   0  0  0  0  0  0  0  0  0  0  0  0
   -1.5467    1.3444    1.1494 C   0  0  0  0  0  0  0  0  0  0  0  0
   -0.3470   -0.8024   -0.3729 C   0  0  0  0  0  0  0  0  0  0  0  0
   -1.6506   -0.9859    0.1436 C   0  0  0  0  0  0  0  0  0  0  0  0
    1.9741   -0.0158    0.3943 C   0  0  0  0  0  0  0  0  0  0  0  0
    0.5129    1.3719   -1.1389 C   0  0  0  0  0  0  0  0  0  0  0  0
    0.1505   -1.7357   -1.3101 C   0  0  0  0  0  0  0  0  0  0  0  0
   -2.3677   -2.1420   -0.2261 C   0  0  0  0  0  0  0  0  0  0  0  0
    2.1889   -0.8985    1.4451 C   0  0  0  0  0  0  0  0  0  0  0  0
    3.0401    0.5012   -0.3305 C   0  0  0  0  0  0  0  0  0  0  0  0
   -3.8784    0.8497   -0.4117 C   0  0  0  0  0  0  0  0  0  0  0  0
   -4.1909    1.1647    1.9497 C   0  0  0  0  0  0  0  0  0  0  0  0
   -0.5912   -2.8529   -1.6866 C   0  0  0  0  0  0  0  0  0  0  0  0
   -1.8465   -3.0620   -1.1352 C   0  0  0  0  0  0  0  0  0  0  0  0
    3.4918   -1.2702    1.7767 C   0  0  0  0  0  0  0  0  0  0  0  0
    4.3430    0.1294    0.0009 C   0  0  0  0  0  0  0  0  0  0  0  0
    4.5688   -0.7563    1.0546 C   0  0  0  0  0  0  0  0  0  0  0  0
    0.5719    3.6751   -1.6636 C   0  0  0  0  0  0  0  0  0  0  0  0
  1 11  1  0
  1 23  1  0
  2 11  2  0
  3  6  1  0
  3 16  1  0
  3 17  1  0
  4  5  1  0
  4  8  1  0
  4 10  1  0
  4 11  1  0
  5  7  1  0
  6  7  1  0
  6  9  1  0
  8  9  2  0
  8 12  1  0
  9 13  1  0
 10 14  2  0
 10 15  1  0
 12 18  2  0
 13 19  2  0
 14 20  1  0
 15 21  2  0
 18 19  1  0
 20 22  2  0
 21 22  1  0
M  END
>  <PUBCHEM_COMPOUND_CID>  (1) 
40339

>  <PUBCHEM_CONFORMER_RMSD>  (1) 
0.8

>  <PUBCHEM_CONFORMER_DIVERSEORDER>  (1) 
1
3
4
2
5
6

>  <PUBCHEM_MMFF94_PARTIAL_CHARGES>  (1) 
30
1 -0.43
10 -0.14
11 0.66
12 -0.15
13 -0.15
14 -0.15
15 -0.15
16 0.27
17 0.27
18 -0.15
19 -0.15
2 -0.57
20 -0.15
21 -0.15
22 -0.15
23 0.28
29 0.15
3 -0.81
30 0.15
31 0.15
32 0.15
39 0.15
4 0.35
40 0.15
41 0.15
42 0.15
43 0.15
6 0.41
8 -0.14
9 -0.14

>  <PUBCHEM_EFFECTIVE_ROTOR_COUNT>  (1) 
4.8

>  <PUBCHEM_PHARMACOPHORE_FEATURES>  (1) 
5
1 2 acceptor
1 3 cation
6 10 14 15 20 21 22 rings
6 4 5 6 7 8 9 rings
6 8 9 12 13 18 19 rings

>  <PUBCHEM_HEAVY_ATOM_COUNT>  (1) 
23

>  <PUBCHEM_ATOM_DEF_STEREO_COUNT>  (1) 
2

>  <PUBCHEM_ATOM_UDEF_STEREO_COUNT>  (1) 
0

>  <PUBCHEM_BOND_DEF_STEREO_COUNT>  (1) 
0

>  <PUBCHEM_BOND_UDEF_STEREO_COUNT>  (1) 
0

>  <PUBCHEM_ISOTOPIC_ATOM_COUNT>  (1) 
0

>  <PUBCHEM_COMPONENT_COUNT>  (1) 
1

>  <PUBCHEM_CACTVS_TAUTO_COUNT>  (1) 
1

>  <PUBCHEM_CONFORMER_ID>  (1) 
00009D9300000001

>  <PUBCHEM_MMFF94_ENERGY>  (1) 
87.4258

>  <PUBCHEM_FEATURE_SELFOVERLAP>  (1) 
25.391

>  <PUBCHEM_SHAPE_FINGERPRINT>  (1) 
10756046 70 18335993067905011149
10759866 29 17903360651834071447
10863032 1 18057884838827457944
11578080 2 18049969433118375244
12011746 2 17917988343638742882
12236239 1 18407762547273706546
12293681 160 16611392857942504421
12403814 3 18188760665680200800
12422481 6 17903646176738518129
12553582 1 18041270020294803514
12633257 1 17988637472119383746
12788726 201 17912085254714875863
13132413 78 18260551142622182460
13134695 92 18040435494895419941
13140716 1 18129664235191107659
133893 2 17316749190797695340
13538477 17 18343295998683302706
13583140 156 17822300136365694259
14178342 30 18058747814301395419
14223421 5 17270301434257022274
14943834 7 17978794828378972645
14955137 171 18192458383350624112
15852999 172 17417545652116127087
16752209 62 18059283387506147831
16945 1 18130785637813529874
17349148 13 18201433710059438271
17980427 23 17988921219034086189
1813 80 18260551147413041710
19930374 2 18193832643862258293
20600515 1 18060148647475490048
20691752 17 18121518859552557123
20739085 24 17836963047187263617
21033648 29 18129934594613654201
21330990 113 18127423250063089670
22112679 90 18337389443730532710
22182313 1 17905904582486087189
23184049 29 17699276986798070107
23184049 59 18409172073550779065
23419403 2 17407118755584798511
23559900 14 17632311072853621820
23598288 3 17679564654957173448
23598291 2 18191594252947111812
266924 1 17906739454928599837
2748010 2 17907597830302925005
3250762 1 17329149065986094213
34934 24 18260544537310575928
352729 6 18129676317145419059
394222 165 17903678320157898641
427121 178 17345773883957059611
465052 167 18188788218380883723
484985 159 15506011525917142730
5845 1 12530907999441936252
6992083 37 18410570708170662055
90316 7 18335404747874982776

>  <PUBCHEM_SHAPE_MULTIPOLES>  (1) 
456.61
6.63
3.15
1.94
2.27
0.08
-0.17
-0.17
3.81
-1.29
-2.23
-0.07
0.42
-1.81

>  <PUBCHEM_SHAPE_SELFOVERLAP>  (1) 
988.668

>  <PUBCHEM_SHAPE_VOLUME>  (1) 
249

>  <PUBCHEM_COORDINATE_TYPE>  (1) 
2
5
10

$$$$
