40335
     RDKit          3D

 21 23  0  0  1  0  0  0  0  0999 V2000
    2.8193    1.8524    0.0352 N   0  0  0  0  0  0  0  0  0  0  0  0
   -1.6595   -2.4379   -2.4040 N   0  0  0  0  0  0  0  0  0  0  0  0
   -0.6551   -0.4830   -0.9152 C   0  0  0  0  0  0  0  0  0  0  0  0
    2.0632    0.8797   -0.7651 C   0  0  0  0  0  0  0  0  0  0  0  0
   -0.1444    0.5928   -1.9151 C   0  0  0  0  0  0  0  0  0  0  0  0
    0.7928    1.5880   -1.2469 C   0  0  0  0  0  0  0  0  0  0  0  0
    0.5174   -1.0599   -0.0967 C   0  0  0  0  0  0  0  0  0  0  0  0
    1.7759   -0.4167   -0.0238 C   0  0  0  0  0  0  0  0  0  0  0  0
   -1.7668    0.1394   -0.0362 C   0  0  0  0  0  0  0  0  0  0  0  0
    0.3243   -2.2575    0.6310 C   0  0  0  0  0  0  0  0  0  0  0  0
    2.8122   -1.0381    0.7036 C   0  0  0  0  0  0  0  0  0  0  0  0
   -1.2205   -1.5834   -1.7534 C   0  0  0  0  0  0  0  0  0  0  0  0
    2.0739    2.2046    1.2412 C   0  0  0  0  0  0  0  0  0  0  0  0
    3.1089    3.0445   -0.7578 C   0  0  0  0  0  0  0  0  0  0  0  0
    1.3550   -2.8342    1.3700 C   0  0  0  0  0  0  0  0  0  0  0  0
    2.6028   -2.2295    1.3972 C   0  0  0  0  0  0  0  0  0  0  0  0
   -2.8750    0.7177   -0.6411 C   0  0  0  0  0  0  0  0  0  0  0  0
   -1.6424    0.1122    1.3465 C   0  0  0  0  0  0  0  0  0  0  0  0
   -3.8767    1.2790    0.1510 C   0  0  0  0  0  0  0  0  0  0  0  0
   -2.6441    0.6732    2.1387 C   0  0  0  0  0  0  0  0  0  0  0  0
   -3.7613    1.2567    1.5408 C   0  0  0  0  0  0  0  0  0  0  0  0
  1  4  1  0
  1 13  1  0
  1 14  1  0
  2 12  3  0
  3  5  1  0
  3  7  1  0
  3  9  1  0
  3 12  1  0
  4  6  1  0
  4  8  1  0
  5  6  1  0
  7  8  2  0
  7 10  1  0
  8 11  1  0
  9 17  2  0
  9 18  1  0
 10 15  2  0
 11 16  2  0
 15 16  1  0
 17 19  1  0
 18 20  2  0
 19 21  2  0
 20 21  1  0
M  END
>  <PUBCHEM_COMPOUND_CID>  (1) 
40335

>  <PUBCHEM_CONFORMER_RMSD>  (1) 
0.6

>  <PUBCHEM_CONFORMER_DIVERSEORDER>  (1) 
2
1
3

>  <PUBCHEM_MMFF94_PARTIAL_CHARGES>  (1) 
28
1 -0.81
10 -0.15
11 -0.15
12 0.36
13 0.27
14 0.27
15 -0.15
16 -0.15
17 -0.15
18 -0.15
19 -0.15
2 -0.56
20 -0.15
21 -0.15
27 0.15
28 0.15
3 0.49
35 0.15
36 0.15
37 0.15
38 0.15
39 0.15
4 0.41
40 0.15
41 0.15
7 -0.14
8 -0.14
9 -0.14

>  <PUBCHEM_EFFECTIVE_ROTOR_COUNT>  (1) 
2.8

>  <PUBCHEM_PHARMACOPHORE_FEATURES>  (1) 
5
1 1 cation
1 2 acceptor
6 3 4 5 6 7 8 rings
6 7 8 10 11 15 16 rings
6 9 17 18 19 20 21 rings

>  <PUBCHEM_HEAVY_ATOM_COUNT>  (1) 
21

>  <PUBCHEM_ATOM_DEF_STEREO_COUNT>  (1) 
2

>  <PUBCHEM_ATOM_UDEF_STEREO_COUNT>  (1) 
0

>  <PUBCHEM_BOND_DEF_STEREO_COUNT>  (1) 
0

>  <PUBCHEM_BOND_UDEF_STEREO_COUNT>  (1) 
0

>  <PUBCHEM_ISOTOPIC_ATOM_COUNT>  (1) 
0

>  <PUBCHEM_COMPONENT_COUNT>  (1) 
1

>  <PUBCHEM_CACTVS_TAUTO_COUNT>  (1) 
1

>  <PUBCHEM_CONFORMER_ID>  (1) 
00009D8F00000002

>  <PUBCHEM_MMFF94_ENERGY>  (1) 
76.0897

>  <PUBCHEM_FEATURE_SELFOVERLAP>  (1) 
25.391

>  <PUBCHEM_SHAPE_FINGERPRINT>  (1) 
10064457 181 18116735069312158520
10165383 225 17897474841352282364
10366900 7 17822867368148314857
11471102 22 17968942980839839619
11578080 2 17477989100661873509
11640471 11 18272088322517067585
12633257 1 17969229927810549473
12788726 201 17843955082141574959
13134695 92 18045496413583727661
13140716 1 18186801413464302130
133893 2 17969758913437140150
13538477 17 17988627627759103943
13583140 156 18334298673764077465
13965767 371 17843122502372347785
14142880 1 17977936105582119540
14617773 55 18126828598555331510
14787075 74 17691971883367524939
14817 1 16317545514606963991
14955137 171 18269563749689356538
15309172 13 17896604075245188764
15534591 1 18126860514689215068
16945 1 18191313680040192051
17357990 137 17916874512505586513
1813 80 17909837539863397662
19049666 15 17315071061165200501
19765921 60 18269558402080312456
20510252 161 17254554319240125880
20600515 1 17320732373274359215
20723712 36 17914900828983100458
21041028 32 17900817146484479802
21524375 3 18271258208375800301
21731228 192 18116727398379456272
21756936 100 17975997662751834276
22892500 29 18115027385909564001
23419403 2 17096075883889056462
23557571 272 14979374254147310597
23558518 356 17978797040614229764
23559900 14 17023478447222445997
266924 1 18198325441657806030
2748010 2 17603853490938070214
31174 14 17968659302513342178
350125 39 18117007773987081106
35225 105 17763774347320195712
3797600 57 18056784189249587763
394222 165 18269293316741066577
427121 178 17688921700287720433
474 4 18335976562398504960
495365 180 18187636977855933041
5262128 65 10303823063659530432
539174 4 18268686399397164696
568465 68 17823981134693743690
5845 1 11134672826551072045
5895379 119 16911461151636114329
6992083 37 17984963926214191414
81228 2 17400384710700013026
9981440 41 17125062584591179792

>  <PUBCHEM_SHAPE_MULTIPOLES>  (1) 
422.21
5.45
3.16
2.07
3.04
0.12
-0.4
-2.66
2.22
-3.17
0.07
1.15
0.57
-1.63

>  <PUBCHEM_SHAPE_SELFOVERLAP>  (1) 
915.591

>  <PUBCHEM_SHAPE_VOLUME>  (1) 
227.4

>  <PUBCHEM_COORDINATE_TYPE>  (1) 
2
5
10

$$$$
