40330
     RDKit          3D

 29 31  0  0  1  0  0  0  0  0999 V2000
   -1.6884   -2.7737    0.8037 S   0  0  0  0  0  0  0  0  0  0  0  0
    6.0504    0.9567   -0.6965 F   0  0  0  0  0  0  0  0  0  0  0  0
    5.8837   -1.1607   -0.2577 F   0  0  0  0  0  0  0  0  0  0  0  0
    5.1219   -0.3798   -2.1387 F   0  0  0  0  0  0  0  0  0  0  0  0
   -1.9974    0.3155    3.5912 O   0  0  0  0  0  0  0  0  0  0  0  0
   -3.1206    1.1668    0.1451 N   0  0  0  0  0  0  0  0  0  0  0  0
   -2.8706    1.3499    1.5730 C   0  0  0  0  0  0  0  0  0  0  0  0
   -2.2036    0.1070    2.1895 C   0  0  0  0  0  0  0  0  0  0  0  0
   -3.3248    2.4592   -0.5092 C   0  0  0  0  0  0  0  0  0  0  0  0
   -4.2802    0.3000   -0.0651 C   0  0  0  0  0  0  0  0  0  0  0  0
   -0.8858   -0.1995    1.5482 C   0  0  0  0  0  0  0  0  0  0  0  0
   -1.9855    3.1619   -0.7255 C   0  0  0  0  0  0  0  0  0  0  0  0
   -4.2211   -0.3382   -1.4519 C   0  0  0  0  0  0  0  0  0  0  0  0
   -0.6099   -1.4335    0.9321 C   0  0  0  0  0  0  0  0  0  0  0  0
    0.6278   -1.7017    0.3364 C   0  0  0  0  0  0  0  0  0  0  0  0
    0.1005    0.7867    1.5675 C   0  0  0  0  0  0  0  0  0  0  0  0
    1.6292   -0.6739    0.3664 C   0  0  0  0  0  0  0  0  0  0  0  0
    1.3502    0.5694    0.9879 C   0  0  0  0  0  0  0  0  0  0  0  0
   -1.0496    2.3141   -1.5876 C   0  0  0  0  0  0  0  0  0  0  0  0
   -5.4142   -1.2660   -1.6844 C   0  0  0  0  0  0  0  0  0  0  0  0
    0.6394   -3.0338   -0.2163 C   0  0  0  0  0  0  0  0  0  0  0  0
    2.8986   -0.8798   -0.2161 C   0  0  0  0  0  0  0  0  0  0  0  0
    2.3405    1.5646    1.0098 C   0  0  0  0  0  0  0  0  0  0  0  0
    0.2727    3.0221   -1.8370 C   0  0  0  0  0  0  0  0  0  0  0  0
   -5.3816   -1.8778   -3.0760 C   0  0  0  0  0  0  0  0  0  0  0  0
    3.8674    0.1237   -0.1826 C   0  0  0  0  0  0  0  0  0  0  0  0
   -0.5417   -3.7118   -0.0315 C   0  0  0  0  0  0  0  0  0  0  0  0
    3.5893    1.3422    0.4288 C   0  0  0  0  0  0  0  0  0  0  0  0
    5.2036   -0.1096   -0.8035 C   0  0  0  0  0  0  0  0  0  0  0  0
  1 14  1  0
  1 27  1  0
  2 29  1  0
  3 29  1  0
  4 29  1  0
  5  8  1  0
  6  7  1  0
  6  9  1  0
  6 10  1  0
  7  8  1  0
  8 11  1  0
  9 12  1  0
 10 13  1  0
 11 14  2  0
 11 16  1  0
 12 19  1  0
 13 20  1  0
 14 15  1  0
 15 17  2  0
 15 21  1  0
 16 18  2  0
 17 18  1  0
 17 22  1  0
 18 23  1  0
 19 24  1  0
 20 25  1  0
 21 27  2  0
 22 26  2  0
 23 28  2  0
 26 28  1  0
 26 29  1  0
M  END
>  <PUBCHEM_COMPOUND_CID>  (1) 
40330

>  <PUBCHEM_CONFORMER_RMSD>  (1) 
1

>  <PUBCHEM_CONFORMER_DIVERSEORDER>  (1) 
1
61
89
68
95
35
83
17
48
44
67
90
31
30
22
69
56
66
45
72
77
88
78
62
15
42
36
8
9
64
81
3
92
71
54
21
19
85
84
93
58
12
5
63
76
25
91
50
86
32
96
87
24
41
98
43
28
40
75
97
53
11
52
47
70
51
46
49
2
20
60
10
94
82
73
18
59
13
38
23
6
4
39
14
26
57
79
33
55
80
37
29
27
34
65
16
7
74

>  <PUBCHEM_MMFF94_PARTIAL_CHARGES>  (1) 
27
1 -0.08
10 0.27
11 -0.14
14 0.04
16 -0.15
2 -0.34
21 -0.15
22 -0.15
23 -0.15
26 -0.14
27 -0.11
28 -0.15
29 1.16
3 -0.34
4 -0.34
41 0.15
46 0.4
47 0.15
48 0.15
49 0.15
5 -0.68
56 0.15
57 0.15
6 -0.81
7 0.27
8 0.42
9 0.27

>  <PUBCHEM_EFFECTIVE_ROTOR_COUNT>  (1) 
10

>  <PUBCHEM_PHARMACOPHORE_FEATURES>  (1) 
8
1 24 hydrophobe
1 25 hydrophobe
1 5 acceptor
1 5 donor
1 6 cation
5 1 14 15 21 27 rings
6 11 14 15 16 17 18 rings
6 17 18 22 23 26 28 rings

>  <PUBCHEM_HEAVY_ATOM_COUNT>  (1) 
29

>  <PUBCHEM_ATOM_DEF_STEREO_COUNT>  (1) 
0

>  <PUBCHEM_ATOM_UDEF_STEREO_COUNT>  (1) 
1

>  <PUBCHEM_BOND_DEF_STEREO_COUNT>  (1) 
0

>  <PUBCHEM_BOND_UDEF_STEREO_COUNT>  (1) 
0

>  <PUBCHEM_ISOTOPIC_ATOM_COUNT>  (1) 
0

>  <PUBCHEM_COMPONENT_COUNT>  (1) 
1

>  <PUBCHEM_CACTVS_TAUTO_COUNT>  (1) 
1

>  <PUBCHEM_CONFORMER_ID>  (1) 
00009D8A00000001

>  <PUBCHEM_MMFF94_ENERGY>  (1) 
51.0488

>  <PUBCHEM_FEATURE_SELFOVERLAP>  (1) 
40.678

>  <PUBCHEM_SHAPE_FINGERPRINT>  (1) 
10165383 225 18267603341472861440
105312 117 18261967270912718670
13383661 66 17703229649780890479
13583140 156 17386298678474168874
13994607 96 17167870776621329719
14251764 30 16629669799481752559
17349148 13 17989209222561216114
17357779 13 18259985985287952417
17492 54 17895737583236995439
17909252 39 16845286176534405166
19958102 18 18412261740275654998
20775438 99 17551482854427377151
21033648 29 18411422799924016456
22393880 68 18129933499364993521
22907989 373 18196668494988299889
23114952 82 17831584171462929281
23559900 14 17916046628718507246
238 59 17975106787391147741
2838139 119 17894629219259953996
563151 248 17345499070991810635

>  <PUBCHEM_SHAPE_MULTIPOLES>  (1) 
567.98
10.58
3.64
2.42
6.86
0.52
-0.42
0.97
8
-2.06
1.2
-2.6
-0.13
-0.87

>  <PUBCHEM_SHAPE_SELFOVERLAP>  (1) 
1188.958

>  <PUBCHEM_SHAPE_VOLUME>  (1) 
328.2

>  <PUBCHEM_COORDINATE_TYPE>  (1) 
2
5
10

$$$$
