40356
     RDKit          3D

 16 17  0  0  0  0  0  0  0  0999 V2000
   -1.0086    1.1531   -1.1402 O   0  0  0  0  0  0  0  0  0  0  0  0
   -0.9297    0.9493    1.2605 O   0  0  0  0  0  0  0  0  0  0  0  0
    3.0319    0.4025   -0.1471 N   0  0  0  0  0  0  0  0  0  0  0  0
   -0.5237    1.7196    0.1023 C   0  0  0  0  0  0  0  0  0  0  0  0
    1.0035    1.7504    0.0548 C   0  0  0  0  0  0  0  0  0  0  0  0
    1.5751    0.3490   -0.1236 C   0  0  0  0  0  0  0  0  0  0  0  0
   -1.0887    3.1326    0.2407 C   0  0  0  0  0  0  0  0  0  0  0  0
    3.5981   -0.9294   -0.3069 C   0  0  0  0  0  0  0  0  0  0  0  0
   -1.6901    0.0627   -0.6910 C   0  0  0  0  0  0  0  0  0  0  0  0
   -1.6450   -0.0535    0.6795 C   0  0  0  0  0  0  0  0  0  0  0  0
    3.1624   -1.8311    0.8447 C   0  0  0  0  0  0  0  0  0  0  0  0
    5.1185   -0.8295   -0.3796 C   0  0  0  0  0  0  0  0  0  0  0  0
   -2.3639   -0.8500   -1.4755 C   0  0  0  0  0  0  0  0  0  0  0  0
   -2.2712   -1.0895    1.3413 C   0  0  0  0  0  0  0  0  0  0  0  0
   -3.0073   -1.9087   -0.8301 C   0  0  0  0  0  0  0  0  0  0  0  0
   -2.9612   -2.0277    0.5702 C   0  0  0  0  0  0  0  0  0  0  0  0
  1  4  1  0
  1  9  1  0
  2  4  1  0
  2 10  1  0
  3  6  1  0
  3  8  1  0
  4  5  1  0
  4  7  1  0
  5  6  1  0
  8 11  1  0
  8 12  1  0
  9 10  2  0
  9 13  1  0
 10 14  1  0
 13 15  2  0
 14 16  2  0
 15 16  1  0
M  END
>  <PUBCHEM_COMPOUND_CID>  (1) 
40356

>  <PUBCHEM_CONFORMER_RMSD>  (1) 
0.6

>  <PUBCHEM_CONFORMER_DIVERSEORDER>  (1) 
1
10
17
13
7
16
12
18
4
8
3
15
5
2
11
14
9
6

>  <PUBCHEM_MMFF94_PARTIAL_CHARGES>  (1) 
17
1 -0.36
10 0.08
13 -0.15
14 -0.15
15 -0.15
16 -0.15
2 -0.36
24 0.36
3 -0.9
32 0.15
33 0.15
34 0.15
35 0.15
4 0.56
6 0.27
8 0.27
9 0.08

>  <PUBCHEM_EFFECTIVE_ROTOR_COUNT>  (1) 
4.6

>  <PUBCHEM_PHARMACOPHORE_FEATURES>  (1) 
7
1 1 acceptor
1 2 acceptor
1 3 cation
1 3 donor
3 8 11 12 hydrophobe
5 1 2 4 9 10 rings
6 9 10 13 14 15 16 rings

>  <PUBCHEM_HEAVY_ATOM_COUNT>  (1) 
16

>  <PUBCHEM_ATOM_DEF_STEREO_COUNT>  (1) 
0

>  <PUBCHEM_ATOM_UDEF_STEREO_COUNT>  (1) 
0

>  <PUBCHEM_BOND_DEF_STEREO_COUNT>  (1) 
0

>  <PUBCHEM_BOND_UDEF_STEREO_COUNT>  (1) 
0

>  <PUBCHEM_ISOTOPIC_ATOM_COUNT>  (1) 
0

>  <PUBCHEM_COMPONENT_COUNT>  (1) 
1

>  <PUBCHEM_CACTVS_TAUTO_COUNT>  (1) 
1

>  <PUBCHEM_CONFORMER_ID>  (1) 
00009DA400000001

>  <PUBCHEM_MMFF94_ENERGY>  (1) 
27.6136

>  <PUBCHEM_FEATURE_SELFOVERLAP>  (1) 
35.674

>  <PUBCHEM_SHAPE_FINGERPRINT>  (1) 
10616163 171 18339364046408155822
10618630 7 18409732893379788910
11127187 94 17749104508690218111
11137873 295 18334573594314927495
11578080 2 17559939065292309289
11725454 13 14044359324073234035
12363563 72 18410855503336629046
12553582 1 18410013255970831458
12633257 1 14404910257377344959
13024252 1 17895482423150665997
13533116 47 17834965544272714515
14251764 38 12180713692441277454
18981168 100 8285638800768189016
200 152 18333730234541920782
20291156 8 18341050804329079262
20361792 2 18271242841035283605
20645477 70 17975961378751696271
21296965 67 18341047523005466709
21731516 1 18343307002141510588
23500284 5 18410298007738180363
23526113 38 18119223285679981133
23559900 14 18337095827066444696
23728640 28 17978785718805968722
27216 239 10879984774654444126
474 4 8717733564691447495
4921388 177 16225772916831655251
5262128 65 16153713179715719350
81228 2 18336814321587386081

>  <PUBCHEM_SHAPE_MULTIPOLES>  (1) 
312.55
6.96
2.72
1.2
9.9
1.47
-0.01
-5.47
-0.69
-1.27
0.31
-0.82
-0.31
-0.25

>  <PUBCHEM_SHAPE_SELFOVERLAP>  (1) 
651.523

>  <PUBCHEM_SHAPE_VOLUME>  (1) 
179.8

>  <PUBCHEM_COORDINATE_TYPE>  (1) 
2
5
10

$$$$
