40354
     RDKit          3D

 18 20  0  0  0  0  0  0  0  0999 V2000
   -1.3903   -1.0167    1.1331 O   0  0  0  0  0  0  0  0  0  0  0  0
   -1.6286   -0.9624   -1.2650 O   0  0  0  0  0  0  0  0  0  0  0  0
    4.9892    0.8653    0.4541 O   0  0  0  0  0  0  0  0  0  0  0  0
    2.3992    0.0607   -0.4097 N   0  0  0  0  0  0  0  0  0  0  0  0
   -1.0046   -1.6125   -0.1301 C   0  0  0  0  0  0  0  0  0  0  0  0
    0.5115   -1.4901   -0.2780 C   0  0  0  0  0  0  0  0  0  0  0  0
    0.9497   -0.0307   -0.2478 C   0  0  0  0  0  0  0  0  0  0  0  0
    3.0914   -0.6279    0.6887 C   0  0  0  0  0  0  0  0  0  0  0  0
    2.8294    1.4643   -0.4743 C   0  0  0  0  0  0  0  0  0  0  0  0
    4.6016   -0.5083    0.5053 C   0  0  0  0  0  0  0  0  0  0  0  0
    4.3457    1.5341   -0.6313 C   0  0  0  0  0  0  0  0  0  0  0  0
   -1.4301   -3.0801   -0.1211 C   0  0  0  0  0  0  0  0  0  0  0  0
   -2.2331   -0.0300    0.7193 C   0  0  0  0  0  0  0  0  0  0  0  0
   -2.3690    0.0010   -0.6496 C   0  0  0  0  0  0  0  0  0  0  0  0
   -2.8981    0.8612    1.5355 C   0  0  0  0  0  0  0  0  0  0  0  0
   -3.1774    0.9252   -1.2784 C   0  0  0  0  0  0  0  0  0  0  0  0
   -3.7238    1.8076    0.9241 C   0  0  0  0  0  0  0  0  0  0  0  0
   -3.8628    1.8394   -0.4748 C   0  0  0  0  0  0  0  0  0  0  0  0
  1  5  1  0
  1 13  1  0
  2  5  1  0
  2 14  1  0
  3 10  1  0
  3 11  1  0
  4  7  1  0
  4  8  1  0
  4  9  1  0
  5  6  1  0
  5 12  1  0
  6  7  1  0
  8 10  1  0
  9 11  1  0
 13 14  2  0
 13 15  1  0
 14 16  1  0
 15 17  2  0
 16 18  2  0
 17 18  1  0
M  END
>  <PUBCHEM_COMPOUND_CID>  (1) 
40354

>  <PUBCHEM_CONFORMER_RMSD>  (1) 
0.6

>  <PUBCHEM_CONFORMER_DIVERSEORDER>  (1) 
1
12
21
13
4
6
15
14
18
19
2
22
5
10
7
9
8
20
17
16
11
3

>  <PUBCHEM_MMFF94_PARTIAL_CHARGES>  (1) 
20
1 -0.36
10 0.28
11 0.28
13 0.08
14 0.08
15 -0.15
16 -0.15
17 -0.15
18 -0.15
2 -0.36
3 -0.56
34 0.15
35 0.15
36 0.15
37 0.15
4 -0.81
5 0.56
7 0.27
8 0.27
9 0.27

>  <PUBCHEM_EFFECTIVE_ROTOR_COUNT>  (1) 
4.8

>  <PUBCHEM_PHARMACOPHORE_FEATURES>  (1) 
7
1 1 acceptor
1 2 acceptor
1 3 acceptor
1 4 cation
5 1 2 5 13 14 rings
6 13 14 15 16 17 18 rings
6 3 4 8 9 10 11 rings

>  <PUBCHEM_HEAVY_ATOM_COUNT>  (1) 
18

>  <PUBCHEM_ATOM_DEF_STEREO_COUNT>  (1) 
0

>  <PUBCHEM_ATOM_UDEF_STEREO_COUNT>  (1) 
0

>  <PUBCHEM_BOND_DEF_STEREO_COUNT>  (1) 
0

>  <PUBCHEM_BOND_UDEF_STEREO_COUNT>  (1) 
0

>  <PUBCHEM_ISOTOPIC_ATOM_COUNT>  (1) 
0

>  <PUBCHEM_COMPONENT_COUNT>  (1) 
1

>  <PUBCHEM_CACTVS_TAUTO_COUNT>  (1) 
1

>  <PUBCHEM_CONFORMER_ID>  (1) 
00009DA200000001

>  <PUBCHEM_MMFF94_ENERGY>  (1) 
40.9914

>  <PUBCHEM_FEATURE_SELFOVERLAP>  (1) 
35.676

>  <PUBCHEM_SHAPE_FINGERPRINT>  (1) 
10014705 185 18408879663719357396
11089746 13 17917418836077531664
11543360 7 14620787202385905776
11552529 35 15937553613342951392
11640471 11 18129941165928933667
11725454 13 16879606217210005815
12077114 3 18333450936770646868
12500047 106 18342451569516316482
12633257 1 18188196633885871522
12788726 201 18125138662269516143
128620 24 10519980466001556360
12892183 10 17168151100378169273
13103583 49 10810203058629059373
13583140 156 17385723590864092745
13675066 3 17458064841959364288
14004511 7 18410009940429723302
14123260 362 18202567271628787136
15061688 2 18188766120716142541
15239191 94 11025795401365690848
15342168 16 18340216185088917341
15534591 1 18272932709050963287
17093844 174 18341326786859873808
1741750 31 18342460343670330370
17834072 32 18411704287584921172
1813 80 7853277800438969027
18186145 218 18199196100263863079
18915474 69 9439399129900143208
19765921 60 17988081063607077091
20112054 13 18040998414514440364
20300324 65 17346589786019940949
20361792 2 8213844969451902787
204376 136 18410577249711795947
20645477 56 18342184396337466362
21524375 3 18342172233312045423
21713013 43 13182724932264238873
21731228 192 18260555489392849675
22182937 141 18341338880628131089
235170 7 14404900267520713520
23559900 14 18131917053513376110
27216 239 18187370943291744505
2838139 119 17970892376919016141
312423 11 17823429377599162350
4028521 119 17632294549307604809
474 4 18268430135915235427
4921388 177 14908179772341992973
5104073 3 18260822757213643432
5706482 22 18412544306105252899
57724786 102 18261968353397887020
6328613 192 18411705396667613468
633830 44 17986963933843838303

>  <PUBCHEM_SHAPE_MULTIPOLES>  (1) 
347.84
9.18
2.35
1.18
9.21
1.19
-0.11
-5.79
-0.81
-1.19
0.19
-0.89
-0.2
-0.61

>  <PUBCHEM_SHAPE_SELFOVERLAP>  (1) 
740.889

>  <PUBCHEM_SHAPE_VOLUME>  (1) 
194.1

>  <PUBCHEM_COORDINATE_TYPE>  (1) 
2
5
10

$$$$
