40358
     RDKit          3D

 19 21  0  0  0  0  0  0  0  0999 V2000
   -1.7635    0.9986   -1.1406 O   0  0  0  0  0  0  0  0  0  0  0  0
   -2.0192    0.9465    1.2558 O   0  0  0  0  0  0  0  0  0  0  0  0
    2.0499    0.0670    0.4394 N   0  0  0  0  0  0  0  0  0  0  0  0
    4.7270   -0.6497   -0.3840 N   0  0  0  0  0  0  0  0  0  0  0  0
    0.5996    0.1049    0.2636 C   0  0  0  0  0  0  0  0  0  0  0  0
    2.7264    0.7752   -0.6542 C   0  0  0  0  0  0  0  0  0  0  0  0
    2.5286   -1.3181    0.5259 C   0  0  0  0  0  0  0  0  0  0  0  0
    0.1011    1.5477    0.2825 C   0  0  0  0  0  0  0  0  0  0  0  0
   -1.4100    1.6137    0.1228 C   0  0  0  0  0  0  0  0  0  0  0  0
    4.2475    0.7350   -0.4711 C   0  0  0  0  0  0  0  0  0  0  0  0
    4.0498   -1.3593    0.7081 C   0  0  0  0  0  0  0  0  0  0  0  0
   -1.8886    3.0648    0.1033 C   0  0  0  0  0  0  0  0  0  0  0  0
    6.1774   -0.6866   -0.2065 C   0  0  0  0  0  0  0  0  0  0  0  0
   -2.5731   -0.0162   -0.7287 C   0  0  0  0  0  0  0  0  0  0  0  0
   -2.7189   -0.0460    0.6392 C   0  0  0  0  0  0  0  0  0  0  0  0
   -3.1985   -0.9349   -1.5460 C   0  0  0  0  0  0  0  0  0  0  0  0
   -3.4982   -0.9963    1.2660 C   0  0  0  0  0  0  0  0  0  0  0  0
   -3.9942   -1.9079   -0.9366 C   0  0  0  0  0  0  0  0  0  0  0  0
   -4.1432   -1.9384    0.4613 C   0  0  0  0  0  0  0  0  0  0  0  0
  1  9  1  0
  1 14  1  0
  2  9  1  0
  2 15  1  0
  3  5  1  0
  3  6  1  0
  3  7  1  0
  4 10  1  0
  4 11  1  0
  4 13  1  0
  5  8  1  0
  6 10  1  0
  7 11  1  0
  8  9  1  0
  9 12  1  0
 14 15  2  0
 14 16  1  0
 15 17  1  0
 16 18  2  0
 17 19  2  0
 18 19  1  0
M  END
>  <PUBCHEM_COMPOUND_CID>  (1) 
40358

>  <PUBCHEM_CONFORMER_RMSD>  (1) 
0.6

>  <PUBCHEM_CONFORMER_DIVERSEORDER>  (1) 
1
12
24
13
2
14
22
16
8
4
19
15
17
9
10
25
5
18
20
7
6
23
21
3
11

>  <PUBCHEM_MMFF94_PARTIAL_CHARGES>  (1) 
21
1 -0.36
10 0.27
11 0.27
13 0.27
14 0.08
15 0.08
16 -0.15
17 -0.15
18 -0.15
19 -0.15
2 -0.36
3 -0.81
38 0.15
39 0.15
4 -0.81
40 0.15
41 0.15
5 0.27
6 0.27
7 0.27
9 0.56

>  <PUBCHEM_EFFECTIVE_ROTOR_COUNT>  (1) 
4.8

>  <PUBCHEM_PHARMACOPHORE_FEATURES>  (1) 
7
1 1 acceptor
1 2 acceptor
1 3 cation
1 4 cation
5 1 2 9 14 15 rings
6 14 15 16 17 18 19 rings
6 3 4 6 7 10 11 rings

>  <PUBCHEM_HEAVY_ATOM_COUNT>  (1) 
19

>  <PUBCHEM_ATOM_DEF_STEREO_COUNT>  (1) 
0

>  <PUBCHEM_ATOM_UDEF_STEREO_COUNT>  (1) 
0

>  <PUBCHEM_BOND_DEF_STEREO_COUNT>  (1) 
0

>  <PUBCHEM_BOND_UDEF_STEREO_COUNT>  (1) 
0

>  <PUBCHEM_ISOTOPIC_ATOM_COUNT>  (1) 
0

>  <PUBCHEM_COMPONENT_COUNT>  (1) 
1

>  <PUBCHEM_CACTVS_TAUTO_COUNT>  (1) 
1

>  <PUBCHEM_CONFORMER_ID>  (1) 
00009DA600000001

>  <PUBCHEM_MMFF94_ENERGY>  (1) 
44.5023

>  <PUBCHEM_FEATURE_SELFOVERLAP>  (1) 
35.676

>  <PUBCHEM_SHAPE_FINGERPRINT>  (1) 
10616163 171 18339923714536980046
10680689 15 18201156564277802072
11045515 52 18040432217872270621
11046707 91 18202281420206839903
11089746 13 12107787449994200198
11370993 144 14692584195035615470
11578080 2 17773860052219898873
12553582 1 18340481261643024163
12633257 1 16056602109532695615
12714826 92 18060135414480544265
12788726 201 18267008472002939049
128620 24 18334576858574202190
12892183 10 13757811333671382415
12916754 54 18411702101588797448
13103583 49 17986132879506180075
13167823 11 18410013200557989718
13288520 33 18413110562792894182
13544653 18 18336264647345565373
13583140 156 17560221528358793272
13675066 3 13470696953184507524
14123255 352 8646775486402273762
14123260 362 11169909476786482887
14251758 9 8934730998307332048
14576447 43 18333729118246082114
15188451 53 16056587824946256103
15239191 94 18201719556969925690
15880784 105 17703508899747717634
17349148 13 17894631453043497800
17780758 139 17203613653346324610
1813 80 18200046164897602501
18915474 69 18410574024186153526
18927931 339 18341338816367158638
19489759 90 13334735752098932734
200 152 18259984889817499618
20101258 96 18410018727501125993
20291156 8 18341611568175470591
20871999 31 17749380469250401421
21054139 6 18260265249068662194
21426921 1 18339924814001310392
21709351 56 18114185190605620252
22646028 1 18410009940440415686
22646028 28 18410573985315143858
23402539 116 18333452028087855436
235170 7 16805313414163526454
23557571 272 18058732394957793764
23559900 14 18335691771712595784
23598288 3 18343025467104460013
27216 239 11095883796000972319
2838139 119 11166847281654628267
2871803 45 18187359960728065714
312423 11 18338247032662022164
351380 3 18342459282892828463
4028521 119 12829480454841601735
4921388 177 16443068309445247243
5104073 3 18341608158530607624
602551 16 17060337465841632806
7495541 125 17632573873386337112
7970288 3 18269835474821819215

>  <PUBCHEM_SHAPE_MULTIPOLES>  (1) 
369.31
11.03
2.3
1.15
13.83
1.14
-0.11
-6.39
-0.99
-2.02
0.11
-1.01
-0.22
-0.61

>  <PUBCHEM_SHAPE_SELFOVERLAP>  (1) 
781.226

>  <PUBCHEM_SHAPE_VOLUME>  (1) 
208.7

>  <PUBCHEM_COORDINATE_TYPE>  (1) 
2
5
10

$$$$
