40377
     RDKit          3D

 19 21  0  0  1  0  0  0  0  0999 V2000
   -1.1018   -1.0828    1.1784 O   0  0  0  0  0  0  0  0  0  0  0  0
   -1.2330   -1.4312   -1.2032 O   0  0  0  0  0  0  0  0  0  0  0  0
    5.1183    1.2433    0.4121 O   0  0  0  0  0  0  0  0  0  0  0  0
    2.6494    0.0787   -0.3941 N   0  0  0  0  0  0  0  0  0  0  0  0
   -4.4668    2.4303    1.0478 N   0  0  0  0  0  0  0  0  0  0  0  0
   -0.6091   -1.8335    0.0412 C   0  0  0  0  0  0  0  0  0  0  0  0
    0.8962   -1.5979   -0.0749 C   0  0  0  0  0  0  0  0  0  0  0  0
    1.2069   -0.1183   -0.2669 C   0  0  0  0  0  0  0  0  0  0  0  0
    3.3453   -0.3614    0.8232 C   0  0  0  0  0  0  0  0  0  0  0  0
    2.9612    1.4877   -0.6709 C   0  0  0  0  0  0  0  0  0  0  0  0
   -0.9092   -3.3138    0.2737 C   0  0  0  0  0  0  0  0  0  0  0  0
    4.8469   -0.1345    0.6722 C   0  0  0  0  0  0  0  0  0  0  0  0
    4.4717    1.6702   -0.7875 C   0  0  0  0  0  0  0  0  0  0  0  0
   -2.0045   -0.2545    0.5834 C   0  0  0  0  0  0  0  0  0  0  0  0
   -2.0793   -0.4534   -0.7762 C   0  0  0  0  0  0  0  0  0  0  0  0
   -2.7789    0.6912    1.2228 C   0  0  0  0  0  0  0  0  0  0  0  0
   -2.9328    0.2825   -1.5718 C   0  0  0  0  0  0  0  0  0  0  0  0
   -3.6519    1.4503    0.4400 C   0  0  0  0  0  0  0  0  0  0  0  0
   -3.7285    1.2470   -0.9493 C   0  0  0  0  0  0  0  0  0  0  0  0
  1  6  1  0
  1 14  1  0
  2  6  1  0
  2 15  1  0
  3 12  1  0
  3 13  1  0
  4  8  1  0
  4  9  1  0
  4 10  1  0
  5 18  1  0
  6  7  1  0
  6 11  1  0
  7  8  1  0
  9 12  1  0
 10 13  1  0
 14 15  2  0
 14 16  1  0
 15 17  1  0
 16 18  2  0
 17 19  2  0
 18 19  1  0
M  END
>  <PUBCHEM_COMPOUND_CID>  (1) 
40377

>  <PUBCHEM_CONFORMER_RMSD>  (1) 
0.6

>  <PUBCHEM_CONFORMER_DIVERSEORDER>  (1) 
2
28
13
30
9
24
26
31
7
35
15
3
18
38
14
39
23
10
11
8
32
29
37
36
16
4
27
19
25
34
17
33
40
12
20
21
5
22
1
6

>  <PUBCHEM_MMFF94_PARTIAL_CHARGES>  (1) 
22
1 -0.36
10 0.27
12 0.28
13 0.28
14 0.08
15 0.08
16 -0.15
17 -0.15
18 0.1
19 -0.15
2 -0.36
3 -0.56
35 0.15
36 0.15
37 0.15
38 0.4
39 0.4
4 -0.81
5 -0.9
6 0.56
8 0.27
9 0.27

>  <PUBCHEM_EFFECTIVE_ROTOR_COUNT>  (1) 
4.8

>  <PUBCHEM_PHARMACOPHORE_FEATURES>  (1) 
9
1 1 acceptor
1 2 acceptor
1 3 acceptor
1 4 cation
1 5 cation
1 5 donor
5 1 2 6 14 15 rings
6 14 15 16 17 18 19 rings
6 3 4 9 10 12 13 rings

>  <PUBCHEM_HEAVY_ATOM_COUNT>  (1) 
19

>  <PUBCHEM_ATOM_DEF_STEREO_COUNT>  (1) 
0

>  <PUBCHEM_ATOM_UDEF_STEREO_COUNT>  (1) 
1

>  <PUBCHEM_BOND_DEF_STEREO_COUNT>  (1) 
0

>  <PUBCHEM_BOND_UDEF_STEREO_COUNT>  (1) 
0

>  <PUBCHEM_ISOTOPIC_ATOM_COUNT>  (1) 
0

>  <PUBCHEM_COMPONENT_COUNT>  (1) 
1

>  <PUBCHEM_CACTVS_TAUTO_COUNT>  (1) 
1

>  <PUBCHEM_CONFORMER_ID>  (1) 
00009DB900000002

>  <PUBCHEM_MMFF94_ENERGY>  (1) 
53.8873

>  <PUBCHEM_FEATURE_SELFOVERLAP>  (1) 
45.825

>  <PUBCHEM_SHAPE_FINGERPRINT>  (1) 
11089746 13 18130495410643263096
11640471 11 18272364222763215775
12173636 292 18340490070446881455
12633257 1 16588607347714924961
12788726 201 18122889087048468946
128620 24 11239997871743432960
12892183 10 16226045544217823505
13103583 49 11386657239463539309
13583140 156 16660354879156945169
13675066 3 16805318882067733494
14004511 7 18408318908815802270
14123260 362 18272090508634166304
14142880 1 18408885153119909637
14251764 38 17843388829406094168
14576447 43 10303812082193019408
15239191 94 8142091961604391460
15342168 16 18337680724070373693
15375462 189 8790597139338610598
15534591 1 18272652337891410167
1741750 31 18411420630754060274
17834072 32 18411141359264546412
1813 80 8430024425665394019
18186145 218 18339365149702937694
18222031 100 11170207483166260073
18785283 64 18191029988818763043
18915474 69 9943806694854818944
19765921 60 18201719492830448099
19784866 240 8285901485780308025
19784866 34 18270401577554567985
20361792 2 8934707895134999411
204376 136 18408041788672354499
20645477 56 18339651143196064666
20871999 31 16056585552913577397
21475661 188 17680705917862463357
21524375 3 18410849954249516583
21731228 192 18186805759744508019
22182937 141 18337958998969206209
22950370 63 9223224174131948353
235170 7 14979955861170049576
23559900 14 18273498979725968458
27216 239 18113904891932873201
283562 15 18118680169501255450
2871803 45 11600005444734943948
3472631 163 17846778469072257705
351380 3 8718821011571842845
4028521 119 17561084691624810368
46194498 28 14116075090270189081
474 4 18338515223220080867
4921388 177 15482672420216674813
5104073 3 18041833039247302800
57724786 102 18187938252785002308
6328613 192 18409733989514776068
633830 44 18199190594337329287
9981440 41 18202277026672295266

>  <PUBCHEM_SHAPE_MULTIPOLES>  (1) 
363.44
9.65
2.54
1.24
8.67
1.33
0.07
-7.66
-1.06
-1.17
-0.16
-0.86
-0.23
-0.96

>  <PUBCHEM_SHAPE_SELFOVERLAP>  (1) 
774.976

>  <PUBCHEM_SHAPE_VOLUME>  (1) 
202.7

>  <PUBCHEM_COORDINATE_TYPE>  (1) 
2
5
10

$$$$
