40378
     RDKit          3D

 16 17  0  0  0  0  0  0  0  0999 V2000
    4.1557   -0.7701    1.1281 O   0  0  0  0  0  0  0  0  0  0  0  0
   -2.0593    0.0122    0.0271 N   0  0  0  0  0  0  0  0  0  0  0  0
   -2.7765    1.2852    0.1626 C   0  0  0  0  0  0  0  0  0  0  0  0
   -2.7415   -1.0434   -0.7349 C   0  0  0  0  0  0  0  0  0  0  0  0
   -4.1850    1.0537    0.7079 C   0  0  0  0  0  0  0  0  0  0  0  0
   -4.1462   -1.2802   -0.1845 C   0  0  0  0  0  0  0  0  0  0  0  0
   -4.9420    0.0175   -0.1134 C   0  0  0  0  0  0  0  0  0  0  0  0
   -0.6589    0.0081    0.0233 C   0  0  0  0  0  0  0  0  0  0  0  0
    3.6488   -0.0059    0.0098 C   0  0  0  0  0  0  0  0  0  0  0  0
    2.1574   -0.0012    0.0143 C   0  0  0  0  0  0  0  0  0  0  0  0
    0.0673    1.1094   -0.4700 C   0  0  0  0  0  0  0  0  0  0  0  0
    0.0631   -1.0979    0.5120 C   0  0  0  0  0  0  0  0  0  0  0  0
    1.4623    1.1048   -0.4745 C   0  0  0  0  0  0  0  0  0  0  0  0
    1.4579   -1.1026    0.5077 C   0  0  0  0  0  0  0  0  0  0  0  0
    4.3062    1.3905    0.1552 C   0  0  0  0  0  0  0  0  0  0  0  0
    4.1909   -0.6801   -1.2707 C   0  0  0  0  0  0  0  0  0  0  0  0
  1  9  1  0
  2  3  1  0
  2  4  1  0
  2  8  1  0
  3  5  1  0
  4  6  1  0
  5  7  1  0
  6  7  1  0
  8 11  2  0
  8 12  1  0
  9 10  1  0
  9 15  1  0
  9 16  1  0
 10 13  2  0
 10 14  1  0
 11 13  1  0
 12 14  2  0
M  END
>  <PUBCHEM_COMPOUND_CID>  (1) 
40378

>  <PUBCHEM_CONFORMER_RMSD>  (1) 
0.6

>  <PUBCHEM_CONFORMER_DIVERSEORDER>  (1) 
1
10
5
8
9
6
3
4
7
2

>  <PUBCHEM_MMFF94_PARTIAL_CHARGES>  (1) 
16
1 -0.68
10 -0.14
11 -0.15
12 -0.15
13 -0.15
14 -0.15
2 -0.84
27 0.15
28 0.15
29 0.15
3 0.37
30 0.15
37 0.4
4 0.37
8 0.1
9 0.42

>  <PUBCHEM_EFFECTIVE_ROTOR_COUNT>  (1) 
3.2

>  <PUBCHEM_PHARMACOPHORE_FEATURES>  (1) 
6
1 1 acceptor
1 1 donor
1 2 cation
3 9 15 16 hydrophobe
6 2 3 4 5 6 7 rings
6 8 10 11 12 13 14 rings

>  <PUBCHEM_HEAVY_ATOM_COUNT>  (1) 
16

>  <PUBCHEM_ATOM_DEF_STEREO_COUNT>  (1) 
0

>  <PUBCHEM_ATOM_UDEF_STEREO_COUNT>  (1) 
0

>  <PUBCHEM_BOND_DEF_STEREO_COUNT>  (1) 
0

>  <PUBCHEM_BOND_UDEF_STEREO_COUNT>  (1) 
0

>  <PUBCHEM_ISOTOPIC_ATOM_COUNT>  (1) 
0

>  <PUBCHEM_COMPONENT_COUNT>  (1) 
1

>  <PUBCHEM_CACTVS_TAUTO_COUNT>  (1) 
1

>  <PUBCHEM_CONFORMER_ID>  (1) 
00009DBA00000001

>  <PUBCHEM_MMFF94_ENERGY>  (1) 
52.1626

>  <PUBCHEM_FEATURE_SELFOVERLAP>  (1) 
30.446

>  <PUBCHEM_SHAPE_FINGERPRINT>  (1) 
11132069 177 18411134723217976429
11401426 45 18334289890070614797
11471102 20 18113616794053275508
11806522 49 18336262452633010431
12236239 1 18410854365644698341
12916748 109 18412549824911069753
13167823 11 18342457045119681383
13675066 3 17918274263875001775
13760787 19 16415476082178274332
13760787 5 17458347424900617254
14123238 8 17988643016742846597
15196674 1 18409729573111502305
15375462 189 18186796946328828313
15536298 74 18341332274958003580
15788980 27 16487256551724941973
16945 1 17530966891002809772
17834072 33 18343582979386152013
17862501 102 18408316687853473777
18186145 218 18334855017778242180
18522853 276 18410854378171157489
19026448 4 17275102821268173298
19784866 240 16629418960691276454
200 152 18409161143544741415
20279233 1 15841837759148977493
20281475 54 18114178631504853962
20645477 70 17203619142530774614
21267235 1 18410302427966584823
22646028 1 18334853922355742747
22854114 59 18186518817121312240
23402539 116 18342731931621549039
23402655 69 18261388910869834061
23557571 272 17632026268612955985
23559900 14 17846783996952857590
29717793 49 18131348601174203181
34797466 226 17059783337366135956
4047638 21 18407762547437178088
4214541 1 18272654523987487801
474 4 18042407018112672468
4990 188 18272660013003074238
5104073 3 18411136952316397587
542803 24 17489873738973171201
633830 44 18410295817589839054
69090 78 18272368697860779374
7495541 125 16128085762816815491
77779 3 18273498970123210093
9981440 41 17256805023574290513

>  <PUBCHEM_SHAPE_MULTIPOLES>  (1) 
318.42
10.21
1.46
0.9
1.64
0.12
0.04
0.1
0.04
0.21
-0.02
-0.51
-0.13
-0.39

>  <PUBCHEM_SHAPE_SELFOVERLAP>  (1) 
658.029

>  <PUBCHEM_SHAPE_VOLUME>  (1) 
183.3

>  <PUBCHEM_COORDINATE_TYPE>  (1) 
2
5
10

$$$$
