40373
     RDKit          3D

 20 22  0  0  0  0  0  0  0  0999 V2000
   -0.2462   -0.3128   -1.1696 O   0  0  0  0  0  0  0  0  0  0  0  0
   -0.2116   -0.4780    1.2282 O   0  0  0  0  0  0  0  0  0  0  0  0
   -1.9259    3.2642    0.3254 N   0  0  0  0  0  0  0  0  0  0  0  0
    0.3267    0.2053    0.0627 C   0  0  0  0  0  0  0  0  0  0  0  0
   -0.0644    1.6840    0.1700 C   0  0  0  0  0  0  0  0  0  0  0  0
   -1.5788    1.8504    0.2438 C   0  0  0  0  0  0  0  0  0  0  0  0
    1.8481    0.0780    0.0322 C   0  0  0  0  0  0  0  0  0  0  0  0
   -1.0630   -1.2992   -0.7096 C   0  0  0  0  0  0  0  0  0  0  0  0
   -1.0431   -1.3936    0.6612 C   0  0  0  0  0  0  0  0  0  0  0  0
    2.5564   -0.0628    1.2233 C   0  0  0  0  0  0  0  0  0  0  0  0
    2.5218    0.1034   -1.1867 C   0  0  0  0  0  0  0  0  0  0  0  0
   -1.8428   -2.1326   -1.4840 C   0  0  0  0  0  0  0  0  0  0  0  0
   -1.8018   -2.3269    1.3364 C   0  0  0  0  0  0  0  0  0  0  0  0
   -3.3792    3.4369    0.3630 C   0  0  0  0  0  0  0  0  0  0  0  0
   -1.3564    4.0009   -0.8043 C   0  0  0  0  0  0  0  0  0  0  0  0
    3.9462   -0.1786    1.1955 C   0  0  0  0  0  0  0  0  0  0  0  0
    3.9116   -0.0126   -1.2146 C   0  0  0  0  0  0  0  0  0  0  0  0
   -2.6208   -3.0881   -0.8260 C   0  0  0  0  0  0  0  0  0  0  0  0
   -2.6004   -3.1846    0.5765 C   0  0  0  0  0  0  0  0  0  0  0  0
    4.6237   -0.1535   -0.0234 C   0  0  0  0  0  0  0  0  0  0  0  0
  1  4  1  0
  1  8  1  0
  2  4  1  0
  2  9  1  0
  3  6  1  0
  3 14  1  0
  3 15  1  0
  4  5  1  0
  4  7  1  0
  5  6  1  0
  7 10  2  0
  7 11  1  0
  8  9  2  0
  8 12  1  0
  9 13  1  0
 10 16  1  0
 11 17  2  0
 12 18  2  0
 13 19  2  0
 16 20  2  0
 17 20  1  0
 18 19  1  0
M  END
>  <PUBCHEM_COMPOUND_CID>  (1) 
40373

>  <PUBCHEM_CONFORMER_RMSD>  (1) 
0.6

>  <PUBCHEM_CONFORMER_DIVERSEORDER>  (1) 
1
2
10
7
5
9
3
4
6
8

>  <PUBCHEM_MMFF94_PARTIAL_CHARGES>  (1) 
28
1 -0.36
10 -0.15
11 -0.15
12 -0.15
13 -0.15
14 0.27
15 0.27
16 -0.15
17 -0.15
18 -0.15
19 -0.15
2 -0.36
20 -0.15
25 0.15
26 0.15
27 0.15
28 0.15
3 -0.81
35 0.15
36 0.15
37 0.15
38 0.15
39 0.15
4 0.7
6 0.27
7 -0.14
8 0.08
9 0.08

>  <PUBCHEM_EFFECTIVE_ROTOR_COUNT>  (1) 
4.6

>  <PUBCHEM_PHARMACOPHORE_FEATURES>  (1) 
6
1 1 acceptor
1 2 acceptor
1 3 cation
5 1 2 4 8 9 rings
6 7 10 11 16 17 20 rings
6 8 9 12 13 18 19 rings

>  <PUBCHEM_HEAVY_ATOM_COUNT>  (1) 
20

>  <PUBCHEM_ATOM_DEF_STEREO_COUNT>  (1) 
0

>  <PUBCHEM_ATOM_UDEF_STEREO_COUNT>  (1) 
0

>  <PUBCHEM_BOND_DEF_STEREO_COUNT>  (1) 
0

>  <PUBCHEM_BOND_UDEF_STEREO_COUNT>  (1) 
0

>  <PUBCHEM_ISOTOPIC_ATOM_COUNT>  (1) 
0

>  <PUBCHEM_COMPONENT_COUNT>  (1) 
1

>  <PUBCHEM_CACTVS_TAUTO_COUNT>  (1) 
1

>  <PUBCHEM_CONFORMER_ID>  (1) 
00009DB500000001

>  <PUBCHEM_MMFF94_ENERGY>  (1) 
57.9399

>  <PUBCHEM_FEATURE_SELFOVERLAP>  (1) 
30.599

>  <PUBCHEM_SHAPE_FINGERPRINT>  (1) 
11488393 25 17481443577629098343
11578080 2 17489017292160780648
11833330 49 18338510941069355289
121448 382 18124568934904629101
12293681 4 18339355366558689239
12363563 72 18194678400528261710
12532896 13 18196929968133696468
12553582 1 18194129744273519722
12707595 3 17902508521321803226
12714826 92 18130802178291872578
12788726 201 18335425694056062571
13052359 8 18337387145791348761
13134695 92 17906163311041600991
13140716 1 18267584783119375385
13149001 5 18059559266277752200
13583140 156 17774135969814324634
136203 1 18411135839972803073
13681431 1 17834952357899474545
13911987 19 17178010696508049900
13955234 65 17187854117215898297
14178000 22 18193828241790266368
14178342 30 18334563621849188082
15842332 3 17894630332231093730
15906896 17 18336268946449547187
16945 1 18411418397217786753
17539 30 18341887519665989805
1813 80 17983872347390861974
200 152 17896031217208579226
20097449 115 18123752212275672410
20197701 30 17977376136246051240
20361792 2 18125723641083194654
20567600 347 17977952285151067825
20711985 344 18410287034223462922
21041028 32 18192720166155451027
21285901 2 18060144236728310847
21304303 282 17831819574367803444
21524375 3 18050003298750524128
22112679 90 18051159126031417001
2255824 54 17044579505293459111
22620623 9 18272098192552094806
22956985 138 17178844736175540099
23419403 2 16844143822839265593
23557571 272 18267005332128481856
23558518 356 18193267503607988999
23559900 14 17024848576677096690
23598288 3 17971222345827580908
3091708 16 9203090991003967193
4175511 71 18051987110175042283
458136 41 17693110560659908497
59755656 520 18194678164315272500
6049 1 17775007916636179288
6138700 20 16970557608338213638
633830 44 11892699829284393646
6442390 28 18125731084477848457
6786 2 17836672741441228737
7364860 26 17329995110303525999
7615 1 17822008727335550916
81228 2 18411130359657882353
81539 233 17760365492165761221
9925002 15 18262249909641593917

>  <PUBCHEM_SHAPE_MULTIPOLES>  (1) 
394.87
6.33
4.55
1.37
7.68
4.15
-0.08
-1.2
0.08
-8.01
-0.24
0.26
-0.57
-0.33

>  <PUBCHEM_SHAPE_SELFOVERLAP>  (1) 
855.161

>  <PUBCHEM_SHAPE_VOLUME>  (1) 
217.4

>  <PUBCHEM_COORDINATE_TYPE>  (1) 
2
5
10

$$$$
