40389
     RDKit          3D

 21 23  0  0  1  0  0  0  0  0999 V2000
    3.6279    0.6943   -0.6300 N   0  0  0  0  0  0  0  0  0  0  0  0
   -0.4493    1.2888    2.9364 N   0  0  0  0  0  0  0  0  0  0  0  0
   -0.5638    0.5747    0.3864 C   0  0  0  0  0  0  0  0  0  0  0  0
    2.1891    0.5686   -0.8914 C   0  0  0  0  0  0  0  0  0  0  0  0
    0.0196    1.7423   -0.4576 C   0  0  0  0  0  0  0  0  0  0  0  0
    1.5348    1.8352   -0.3306 C   0  0  0  0  0  0  0  0  0  0  0  0
    0.2796   -0.7072    0.2487 C   0  0  0  0  0  0  0  0  0  0  0  0
    1.5642   -0.7054   -0.3436 C   0  0  0  0  0  0  0  0  0  0  0  0
   -2.0200    0.3789   -0.1014 C   0  0  0  0  0  0  0  0  0  0  0  0
   -0.2317   -1.9217    0.7613 C   0  0  0  0  0  0  0  0  0  0  0  0
    2.2441   -1.9321   -0.4860 C   0  0  0  0  0  0  0  0  0  0  0  0
   -0.4995    0.9762    1.8202 C   0  0  0  0  0  0  0  0  0  0  0  0
    3.8831    0.6893    0.8082 C   0  0  0  0  0  0  0  0  0  0  0  0
    4.1484    1.9143   -1.2417 C   0  0  0  0  0  0  0  0  0  0  0  0
    0.4750   -3.1157    0.6395 C   0  0  0  0  0  0  0  0  0  0  0  0
    1.7082   -3.1226    0.0044 C   0  0  0  0  0  0  0  0  0  0  0  0
   -3.0710    0.5816    0.7828 C   0  0  0  0  0  0  0  0  0  0  0  0
   -2.2562    0.0027   -1.4167 C   0  0  0  0  0  0  0  0  0  0  0  0
   -4.3830    0.4047    0.3434 C   0  0  0  0  0  0  0  0  0  0  0  0
   -3.5682   -0.1740   -1.8562 C   0  0  0  0  0  0  0  0  0  0  0  0
   -4.6315    0.0270   -0.9761 C   0  0  0  0  0  0  0  0  0  0  0  0
  1  4  1  0
  1 13  1  0
  1 14  1  0
  2 12  3  0
  3  5  1  0
  3  7  1  0
  3  9  1  0
  3 12  1  0
  4  6  1  0
  4  8  1  0
  5  6  1  0
  7  8  2  0
  7 10  1  0
  8 11  1  0
  9 17  2  0
  9 18  1  0
 10 15  2  0
 11 16  2  0
 15 16  1  0
 17 19  1  0
 18 20  2  0
 19 21  2  0
 20 21  1  0
M  END
>  <PUBCHEM_COMPOUND_CID>  (1) 
40389

>  <PUBCHEM_CONFORMER_RMSD>  (1) 
0.6

>  <PUBCHEM_CONFORMER_DIVERSEORDER>  (1) 
1
2
3

>  <PUBCHEM_MMFF94_PARTIAL_CHARGES>  (1) 
28
1 -0.81
10 -0.15
11 -0.15
12 0.36
13 0.27
14 0.27
15 -0.15
16 -0.15
17 -0.15
18 -0.15
19 -0.15
2 -0.56
20 -0.15
21 -0.15
27 0.15
28 0.15
3 0.49
35 0.15
36 0.15
37 0.15
38 0.15
39 0.15
4 0.41
40 0.15
41 0.15
7 -0.14
8 -0.14
9 -0.14

>  <PUBCHEM_EFFECTIVE_ROTOR_COUNT>  (1) 
2.8

>  <PUBCHEM_PHARMACOPHORE_FEATURES>  (1) 
5
1 1 cation
1 2 acceptor
6 3 4 5 6 7 8 rings
6 7 8 10 11 15 16 rings
6 9 17 18 19 20 21 rings

>  <PUBCHEM_HEAVY_ATOM_COUNT>  (1) 
21

>  <PUBCHEM_ATOM_DEF_STEREO_COUNT>  (1) 
2

>  <PUBCHEM_ATOM_UDEF_STEREO_COUNT>  (1) 
0

>  <PUBCHEM_BOND_DEF_STEREO_COUNT>  (1) 
0

>  <PUBCHEM_BOND_UDEF_STEREO_COUNT>  (1) 
0

>  <PUBCHEM_ISOTOPIC_ATOM_COUNT>  (1) 
0

>  <PUBCHEM_COMPONENT_COUNT>  (1) 
1

>  <PUBCHEM_CACTVS_TAUTO_COUNT>  (1) 
1

>  <PUBCHEM_CONFORMER_ID>  (1) 
00009DC500000001

>  <PUBCHEM_MMFF94_ENERGY>  (1) 
75.0187

>  <PUBCHEM_FEATURE_SELFOVERLAP>  (1) 
25.391

>  <PUBCHEM_SHAPE_FINGERPRINT>  (1) 
11725454 13 17240757436443746661
12236239 1 18060424599329629037
12553582 1 17831863447728237683
12592029 89 18040995137686547970
12730499 353 18259989284249597023
12788726 201 17345486902990466217
13009979 54 17628920032152893219
13083527 12 18045198467676748266
13140716 1 18192149515215281568
133893 2 18044677312160581034
13583140 156 16805607026954913032
13911987 19 18188505686320342660
14617773 55 17843977952472595554
14787075 74 17631157761943666104
15375462 189 18060416885541855259
15502722 9 18261391105250034207
15852999 172 18186809092776221434
16752209 62 16986590846029097113
16945 1 18413103982913611205
17349148 13 18410570652784499794
1813 80 17839464384184810230
18186145 218 18336270067383381102
19765921 60 18342458148910237858
204376 136 18260551172818530238
20645477 70 18336818681374343535
21452121 199 17901640710310224771
22112679 90 17559957623855810139
22182313 1 18191896563232694454
22907989 373 17613736124660187582
229495 10 17979379485245269289
23419403 2 17197421444033883051
23557571 272 16515980176905036135
23559900 14 18268722778593497276
23598291 2 18057333781701587621
25 1 18335421291693368341
266924 1 17986966154057243168
2748010 2 18191051021611045970
298252 57 17968087689742727600
3323516 105 18187090525030060263
34934 24 17775564217590128529
352729 6 18192445262394365660
4340502 62 18408895048766939579
4409770 3 15821531213719084201
474 4 18408887347283825372
633830 44 18341909492692653380
77492 1 18059580127017466273
81228 2 17179116821894454507
8272917 22 18336831888314051141

>  <PUBCHEM_SHAPE_MULTIPOLES>  (1) 
422.21
7.08
2.67
1.69
3.2
2.47
0.83
-2.62
-2.67
-2.63
0.15
0.74
-0.65
-0.6

>  <PUBCHEM_SHAPE_SELFOVERLAP>  (1) 
915.648

>  <PUBCHEM_SHAPE_VOLUME>  (1) 
227.4

>  <PUBCHEM_COORDINATE_TYPE>  (1) 
2
5
10

$$$$
