40399
     RDKit          3D

 20 21  0  0  0  0  0  0  0  0999 V2000
   -1.5795    0.7407   -2.0402 O   0  0  0  0  0  0  0  0  0  0  0  0
    0.0013    2.6108    0.2942 O   0  0  0  0  0  0  0  0  0  0  0  0
   -4.0185   -0.5257   -1.8485 O   0  0  0  0  0  0  0  0  0  0  0  0
    4.7731    1.3087   -0.0793 O   0  0  0  0  0  0  0  0  0  0  0  0
    2.3508   -2.8218   -0.0162 O   0  0  0  0  0  0  0  0  0  0  0  0
    4.7578   -1.4599   -0.1517 O   0  0  0  0  0  0  0  0  0  0  0  0
   -5.0306   -1.2027    0.6378 O   0  0  0  0  0  0  0  0  0  0  0  0
   -1.3553    0.7062    0.3421 C   0  0  0  0  0  0  0  0  0  0  0  0
    1.2204    0.6195    0.1548 C   0  0  0  0  0  0  0  0  0  0  0  0
   -0.0631    1.3739    0.2668 C   0  0  0  0  0  0  0  0  0  0  0  0
   -2.0765    0.4078   -0.8141 C   0  0  0  0  0  0  0  0  0  0  0  0
    1.1758   -0.7553    0.1218 C   0  0  0  0  0  0  0  0  0  0  0  0
    2.3979    1.3286    0.0892 C   0  0  0  0  0  0  0  0  0  0  0  0
   -1.8695    0.3634    1.5927 C   0  0  0  0  0  0  0  0  0  0  0  0
   -3.3117   -0.2335   -0.7195 C   0  0  0  0  0  0  0  0  0  0  0  0
    3.5971    0.6238   -0.0151 C   0  0  0  0  0  0  0  0  0  0  0  0
    2.3750   -1.4601    0.0177 C   0  0  0  0  0  0  0  0  0  0  0  0
    3.5857   -0.7706   -0.0509 C   0  0  0  0  0  0  0  0  0  0  0  0
   -3.1045   -0.2776    1.6873 C   0  0  0  0  0  0  0  0  0  0  0  0
   -3.8256   -0.5762    0.5312 C   0  0  0  0  0  0  0  0  0  0  0  0
  1 11  1  0
  2 10  2  0
  3 15  1  0
  4 16  1  0
  5 17  1  0
  6 18  1  0
  7 20  1  0
  8 10  1  0
  8 11  2  0
  8 14  1  0
  9 10  1  0
  9 12  2  0
  9 13  1  0
 11 15  1  0
 12 17  1  0
 13 16  2  0
 14 19  2  0
 15 20  2  0
 16 18  1  0
 17 18  2  0
 19 20  1  0
M  END
>  <PUBCHEM_COMPOUND_CID>  (1) 
40399

>  <PUBCHEM_CONFORMER_RMSD>  (1) 
0.6

>  <PUBCHEM_CONFORMER_DIVERSEORDER>  (1) 
1
5
8
9
4
7
10
3
6
2

>  <PUBCHEM_MMFF94_PARTIAL_CHARGES>  (1) 
30
1 -0.53
10 0.4
11 0.08
12 -0.15
13 -0.15
14 -0.15
15 0.08
16 0.08
17 0.08
18 0.08
19 -0.15
2 -0.57
20 0.08
21 0.15
22 0.15
23 0.15
24 0.15
25 0.45
26 0.45
27 0.45
28 0.45
29 0.45
3 -0.53
30 0.45
4 -0.53
5 -0.53
6 -0.53
7 -0.53
8 0.09
9 0.09

>  <PUBCHEM_EFFECTIVE_ROTOR_COUNT>  (1) 
2

>  <PUBCHEM_PHARMACOPHORE_FEATURES>  (1) 
9
1 1 donor
1 2 acceptor
1 3 donor
1 4 donor
1 5 donor
1 6 donor
1 7 donor
6 8 11 14 15 19 20 rings
6 9 12 13 16 17 18 rings

>  <PUBCHEM_HEAVY_ATOM_COUNT>  (1) 
20

>  <PUBCHEM_ATOM_DEF_STEREO_COUNT>  (1) 
0

>  <PUBCHEM_ATOM_UDEF_STEREO_COUNT>  (1) 
0

>  <PUBCHEM_BOND_DEF_STEREO_COUNT>  (1) 
0

>  <PUBCHEM_BOND_UDEF_STEREO_COUNT>  (1) 
0

>  <PUBCHEM_ISOTOPIC_ATOM_COUNT>  (1) 
0

>  <PUBCHEM_COMPONENT_COUNT>  (1) 
1

>  <PUBCHEM_CACTVS_TAUTO_COUNT>  (1) 
510

>  <PUBCHEM_CONFORMER_ID>  (1) 
00009DCF00000001

>  <PUBCHEM_MMFF94_ENERGY>  (1) 
61.7036

>  <PUBCHEM_FEATURE_SELFOVERLAP>  (1) 
45.693

>  <PUBCHEM_SHAPE_FINGERPRINT>  (1) 
12236239 1 17704078412569110809
12553582 1 18272928332093913358
12596602 18 17274828007891539627
128620 24 18407761443314058892
13224815 77 18410013213105236160
13544653 18 18334583438110866641
13675066 3 12319734774093093332
13911987 19 18190467245514291748
14004511 7 11169910589103761280
14386348 63 17967256411929067355
15375358 24 17967527982389264409
15375462 189 17917991672175093898
1813 80 18129679559318499580
18186145 218 17458063737725819721
19422 9 17632580431194742764
200 152 18413106151893097321
20279233 1 17675928706894445578
20645477 70 18334013887119785138
20871999 31 16298383565903877183
21267235 1 18341343218782704042
221490 88 18266180539741786206
22646028 28 18201999902227832214
23402539 116 18336266743505747400
23557571 272 17095520725228005797
23559900 14 17022894628255048592
23598288 3 17844255029445636168
2871803 45 18335701615914333474
46194498 28 17604711213255742797
474 4 17557689550559526416
4921388 177 16515979085724847729
5104073 3 18341328886598040624
77492 1 17632582681715661305
83771 10 18341897389580126081

>  <PUBCHEM_SHAPE_MULTIPOLES>  (1) 
370.51
9.07
1.91
1.29
0.87
0.25
0.25
3.06
0.24
1.73
-0.07
-1.86
-0.05
0.15

>  <PUBCHEM_SHAPE_SELFOVERLAP>  (1) 
818.952

>  <PUBCHEM_SHAPE_VOLUME>  (1) 
198.8

>  <PUBCHEM_COORDINATE_TYPE>  (1) 
2
5
10

$$$$
