40391
     RDKit          3D

 22 24  0  0  0  0  0  0  0  0999 V2000
   -0.5905    4.4987    0.8260 Cl  0  0  0  0  0  0  0  0  0  0  0  0
    2.2120   -3.0620    0.1219 O   0  0  0  0  0  0  0  0  0  0  0  0
    1.9615   -0.7907   -0.3348 N   0  0  0  0  0  0  0  0  0  0  0  0
   -0.5282   -1.7496    1.1155 N   0  0  0  0  0  0  0  0  0  0  0  0
    1.2980    0.4600   -0.0845 C   0  0  0  0  0  0  0  0  0  0  0  0
   -0.0258    0.5477    0.3941 C   0  0  0  0  0  0  0  0  0  0  0  0
   -0.9032   -0.6498    0.5548 C   0  0  0  0  0  0  0  0  0  0  0  0
    1.7177   -1.9635    0.3893 C   0  0  0  0  0  0  0  0  0  0  0  0
    0.8329   -1.8266    1.6027 C   0  0  0  0  0  0  0  0  0  0  0  0
   -2.2973   -0.5985    0.0269 C   0  0  0  0  0  0  0  0  0  0  0  0
    1.9812    1.6665   -0.3357 C   0  0  0  0  0  0  0  0  0  0  0  0
   -0.5991    1.8001    0.6808 C   0  0  0  0  0  0  0  0  0  0  0  0
    2.9986   -0.8246   -1.3660 C   0  0  0  0  0  0  0  0  0  0  0  0
    1.3978    2.9073   -0.0673 C   0  0  0  0  0  0  0  0  0  0  0  0
    0.1126    2.9737    0.4524 C   0  0  0  0  0  0  0  0  0  0  0  0
   -2.5834    0.1905   -1.0804 C   0  0  0  0  0  0  0  0  0  0  0  0
   -3.2945   -1.3407    0.6478 C   0  0  0  0  0  0  0  0  0  0  0  0
   -3.8870    0.2385   -1.5744 C   0  0  0  0  0  0  0  0  0  0  0  0
   -4.5981   -1.2927    0.1536 C   0  0  0  0  0  0  0  0  0  0  0  0
   -4.8943   -0.5031   -0.9575 C   0  0  0  0  0  0  0  0  0  0  0  0
    4.3067   -0.4813   -0.8092 C   0  0  0  0  0  0  0  0  0  0  0  0
    5.3823   -0.1997   -0.3560 C   0  0  0  0  0  0  0  0  0  0  0  0
  1 15  1  0
  2  8  2  0
  3  5  1  0
  3  8  1  0
  3 13  1  0
  4  7  2  0
  4  9  1  0
  5  6  2  0
  5 11  1  0
  6  7  1  0
  6 12  1  0
  7 10  1  0
  8  9  1  0
 10 16  2  0
 10 17  1  0
 11 14  2  0
 12 15  2  0
 13 21  1  0
 14 15  1  0
 16 18  1  0
 17 19  2  0
 18 20  2  0
 19 20  1  0
 21 22  3  0
M  END
>  <PUBCHEM_COMPOUND_CID>  (1) 
40391

>  <PUBCHEM_CONFORMER_RMSD>  (1) 
0.6

>  <PUBCHEM_CONFORMER_DIVERSEORDER>  (1) 
1
3
5
6
7
8
4
2

>  <PUBCHEM_MMFF94_PARTIAL_CHARGES>  (1) 
31
1 -0.18
10 0.09
11 -0.15
12 -0.15
13 0.5
14 -0.15
15 0.18
16 -0.15
17 -0.15
18 -0.15
19 -0.15
2 -0.57
20 -0.15
21 -0.2
22 -0.18
25 0.15
26 0.15
29 0.15
3 -0.48
30 0.15
31 0.15
32 0.15
33 0.15
34 0.15
35 0.18
4 -0.7
5 0.12
6 0.09
7 0.28
8 0.57
9 0.31

>  <PUBCHEM_EFFECTIVE_ROTOR_COUNT>  (1) 
2.4

>  <PUBCHEM_PHARMACOPHORE_FEATURES>  (1) 
6
1 2 acceptor
1 22 hydrophobe
1 4 acceptor
6 10 16 17 18 19 20 rings
6 5 6 11 12 14 15 rings
7 3 4 5 6 7 8 9 rings

>  <PUBCHEM_HEAVY_ATOM_COUNT>  (1) 
22

>  <PUBCHEM_ATOM_DEF_STEREO_COUNT>  (1) 
0

>  <PUBCHEM_ATOM_UDEF_STEREO_COUNT>  (1) 
0

>  <PUBCHEM_BOND_DEF_STEREO_COUNT>  (1) 
0

>  <PUBCHEM_BOND_UDEF_STEREO_COUNT>  (1) 
0

>  <PUBCHEM_ISOTOPIC_ATOM_COUNT>  (1) 
0

>  <PUBCHEM_COMPONENT_COUNT>  (1) 
1

>  <PUBCHEM_CACTVS_TAUTO_COUNT>  (1) 
1

>  <PUBCHEM_CONFORMER_ID>  (1) 
00009DC700000001

>  <PUBCHEM_MMFF94_ENERGY>  (1) 
85.1852

>  <PUBCHEM_FEATURE_SELFOVERLAP>  (1) 
30.458

>  <PUBCHEM_SHAPE_FINGERPRINT>  (1) 
10165383 225 17254588374031002481
10366900 7 17967807293436012139
104564 63 18198343948882744149
10906281 52 18267328545755669532
10930396 42 18122594363341875576
11646440 116 18410300232678920066
12035758 1 18264487476354919376
12035759 4 18263643957177862344
12166972 35 17822016406652732526
12293681 160 18334292037469971072
12403259 226 18045223996735352763
12553582 1 18339649944863369979
12623949 98 17619943950469487847
12730499 353 18119810468218623011
12788726 201 18054502509322420121
13134695 92 18200312250727254341
13140716 1 18192171475646544178
13911987 19 18191325934082937694
14790565 3 17547575872908095993
16945 1 18409454678103979546
17349148 13 18113904806434759146
17357779 13 18342455928660312580
1813 80 17774459233915431605
18186145 218 18261672670710915825
20642791 13 18342182124864795340
20645477 70 18270392914769088391
21029758 11 18411141359285340192
21041028 32 18342468053606424105
21524375 3 17686045498339577849
221357 26 18409160018310821981
221490 88 18121224430970500827
22620623 9 17699591159576856180
23402539 116 18342463603919643318
23419403 2 17609531514822883299
23526113 38 18192999446156109953
23536364 44 18264486195990707885
23557571 272 17981583997605779130
23558518 356 18046925779142993498
23559900 14 18336269058973466500
23566358 2 18191300477278920236
238 59 17906705336146172565
25 1 18122061163724806513
25147074 1 17900548870021533962
266924 87 18337958866300019286
2748010 2 17902243534697642234
283562 15 18338522945898528264
3298306 158 17833839643970083588
3323516 105 18262519307533588887
34934 24 18196098750228253121
3524813 1 18040992977286369063
6438718 38 17700409183448774005
6443956 14 18339644546015989476
7164475 11 18123186797211710630
7226269 152 18333448759976419992
7364860 26 18337943601833145043
81228 2 17762598617582339569

>  <PUBCHEM_SHAPE_MULTIPOLES>  (1) 
438.79
8.06
3.79
1.24
1.37
4.72
0.1
-4.36
3.61
-1.09
-1.49
0.37
-0.25
0.17

>  <PUBCHEM_SHAPE_SELFOVERLAP>  (1) 
947.635

>  <PUBCHEM_SHAPE_VOLUME>  (1) 
239.3

>  <PUBCHEM_COORDINATE_TYPE>  (1) 
2
5
10

$$$$
