40408
     RDKit          3D

 17 18  0  0  1  0  0  0  0  0999 V2000
   -0.2311    1.0396   -1.6686 O   0  0  0  0  0  0  0  0  0  0  0  0
    0.7834    2.1248    0.9297 N   0  0  0  0  0  0  0  0  0  0  0  0
    0.5430    0.7127    0.6064 C   0  0  0  0  0  0  0  0  0  0  0  0
    1.8431    0.0143    0.2635 C   0  0  0  0  0  0  0  0  0  0  0  0
   -0.5036    0.6043   -0.5307 C   0  0  0  0  0  0  0  0  0  0  0  0
   -1.8001   -0.0067   -0.2852 C   0  0  0  0  0  0  0  0  0  0  0  0
    1.9996   -1.3193    0.5960 C   0  0  0  0  0  0  0  0  0  0  0  0
    2.8428    0.7263   -0.3746 C   0  0  0  0  0  0  0  0  0  0  0  0
   -0.4658    2.7943    1.2478 C   0  0  0  0  0  0  0  0  0  0  0  0
   -1.9269   -1.0127    0.6728 C   0  0  0  0  0  0  0  0  0  0  0  0
   -2.9172    0.4134   -1.0073 C   0  0  0  0  0  0  0  0  0  0  0  0
    3.1963   -1.9625    0.2801 C   0  0  0  0  0  0  0  0  0  0  0  0
    4.0394    0.0829   -0.6906 C   0  0  0  0  0  0  0  0  0  0  0  0
    4.2161   -1.2615   -0.3632 C   0  0  0  0  0  0  0  0  0  0  0  0
   -3.1705   -1.5988    0.9086 C   0  0  0  0  0  0  0  0  0  0  0  0
   -4.1609   -0.1726   -0.7713 C   0  0  0  0  0  0  0  0  0  0  0  0
   -4.2874   -1.1786    0.1866 C   0  0  0  0  0  0  0  0  0  0  0  0
  1  5  2  0
  2  3  1  0
  2  9  1  0
  3  4  1  0
  3  5  1  0
  4  7  2  0
  4  8  1  0
  5  6  1  0
  6 10  2  0
  6 11  1  0
  7 12  1  0
  8 13  2  0
 10 15  1  0
 11 16  2  0
 12 14  2  0
 13 14  1  0
 15 17  2  0
 16 17  1  0
M  END
>  <PUBCHEM_COMPOUND_CID>  (1) 
40408

>  <PUBCHEM_CONFORMER_RMSD>  (1) 
0.6

>  <PUBCHEM_CONFORMER_DIVERSEORDER>  (1) 
7
45
44
50
11
12
36
34
51
52
39
35
28
43
47
54
33
30
8
41
13
23
38
20
42
46
17
18
5
6
21
27
37
53
40
55
48
22
9
10
25
32
3
14
4
56
1
19
15
49
29
16
26
31
24
2

>  <PUBCHEM_MMFF94_PARTIAL_CHARGES>  (1) 
28
1 -0.57
10 -0.15
11 -0.15
12 -0.15
13 -0.15
14 -0.15
15 -0.15
16 -0.15
17 -0.15
19 0.36
2 -0.9
20 0.15
21 0.15
25 0.15
26 0.15
27 0.15
28 0.15
29 0.15
3 0.47
30 0.15
31 0.15
32 0.15
4 -0.14
5 0.42
6 0.09
7 -0.15
8 -0.15
9 0.27

>  <PUBCHEM_EFFECTIVE_ROTOR_COUNT>  (1) 
4

>  <PUBCHEM_PHARMACOPHORE_FEATURES>  (1) 
5
1 1 acceptor
1 2 cation
1 2 donor
6 4 7 8 12 13 14 rings
6 6 10 11 15 16 17 rings

>  <PUBCHEM_HEAVY_ATOM_COUNT>  (1) 
17

>  <PUBCHEM_ATOM_DEF_STEREO_COUNT>  (1) 
0

>  <PUBCHEM_ATOM_UDEF_STEREO_COUNT>  (1) 
1

>  <PUBCHEM_BOND_DEF_STEREO_COUNT>  (1) 
0

>  <PUBCHEM_BOND_UDEF_STEREO_COUNT>  (1) 
0

>  <PUBCHEM_ISOTOPIC_ATOM_COUNT>  (1) 
0

>  <PUBCHEM_COMPONENT_COUNT>  (1) 
1

>  <PUBCHEM_CACTVS_TAUTO_COUNT>  (1) 
2

>  <PUBCHEM_CONFORMER_ID>  (1) 
00009DD800000007

>  <PUBCHEM_MMFF94_ENERGY>  (1) 
53.0073

>  <PUBCHEM_FEATURE_SELFOVERLAP>  (1) 
25.371

>  <PUBCHEM_SHAPE_FINGERPRINT>  (1) 
10465860 71 17022902367422184167
10498660 4 16660629748853834791
10646746 165 12319467588129834555
11543360 7 17240771695893217302
12119455 92 9007060149350810688
12251169 10 12247671682338822970
12506688 2 18410295830316550130
12507560 14 18060701723567713775
12553582 1 18130782365217567142
12707595 3 18343580767456752474
12788726 201 18055632811312077457
12892183 10 13039182602536092710
13134695 92 18059568144043561857
13296909 8 15123793955319894697
13533116 47 18126566962998028803
13538477 17 18125444103453180792
13544653 18 18410578387498392711
14178342 30 17978499842142154394
14252887 29 17775570836298073638
15375462 189 18342173401342676830
15906896 17 17698162850701266736
16752209 62 18128528276048877001
17804303 29 18408041831985978895
17834074 16 18260547848424451415
1813 80 17417827144489205604
18222031 100 17418088836603587589
19784866 140 18272386256377857326
200 152 18410292484911520806
20281475 54 18334856091224738435
20361792 2 17917982880403574948
20645477 70 18272083928644094462
20671657 53 18343869939199656033
20871999 31 17385438813316130751
21069387 34 17774428499693892215
21250096 35 18413669110478917475
21296965 67 18272088292351978936
21524375 3 9655571911549456405
22094290 60 17967531264081901901
23175994 123 18342742918543667245
23382010 3 13407086945310414805
23557571 272 17458615731407625388
23559900 14 18333724745463037724
25610 137 18412548717184229072
2838139 119 15286224885933950998
2871803 45 17968094213861704314
3323516 105 18261674865054283794
42 15 13901911102656591358
465052 167 17988364870645749023
474 4 14490767826477024414
4921388 177 15864364561842433443
7364860 26 17752492228822824541
81228 2 18056765321094558144
83771 10 18410576192812231002
9709674 26 17895480344249526771

>  <PUBCHEM_SHAPE_MULTIPOLES>  (1) 
339
8.03
2.17
1.16
0.36
0.94
0.1
-4.48
1.42
-0.35
-0.97
0.36
0.38
0.3

>  <PUBCHEM_SHAPE_SELFOVERLAP>  (1) 
722.72

>  <PUBCHEM_SHAPE_VOLUME>  (1) 
188

>  <PUBCHEM_COORDINATE_TYPE>  (1) 
2
5
10

$$$$
