40406
     RDKit          3D

 26 27  0  0  0  0  0  0  0  0999 V2000
    1.2066    0.6305   -1.4452 O   0  0  0  0  0  0  0  0  0  0  0  0
   -1.5467    0.4194   -1.4230 O   0  0  0  0  0  0  0  0  0  0  0  0
    0.2225   -3.5655    0.3535 N   0  0  0  0  0  0  0  0  0  0  0  0
    2.1144    1.1436    0.6530 N   0  0  0  0  0  0  0  0  0  0  0  0
   -2.4884    0.7902    0.6902 N   0  0  0  0  0  0  0  0  0  0  0  0
   -0.0165   -1.2097    0.9928 C   0  0  0  0  0  0  0  0  0  0  0  0
    0.1183   -2.2051   -0.1645 C   0  0  0  0  0  0  0  0  0  0  0  0
   -0.1336    0.2589    0.5346 C   0  0  0  0  0  0  0  0  0  0  0  0
    1.5861   -3.8389    0.8094 C   0  0  0  0  0  0  0  0  0  0  0  0
   -0.1771   -4.5361   -0.6663 C   0  0  0  0  0  0  0  0  0  0  0  0
    1.1270    0.6967   -0.2224 C   0  0  0  0  0  0  0  0  0  0  0  0
   -1.4584    0.4982   -0.2015 C   0  0  0  0  0  0  0  0  0  0  0  0
    1.6954   -5.2297    1.4109 C   0  0  0  0  0  0  0  0  0  0  0  0
    0.7457   -4.4771   -1.8718 C   0  0  0  0  0  0  0  0  0  0  0  0
    3.4053    1.6238    0.3270 C   0  0  0  0  0  0  0  0  0  0  0  0
   -3.8425    1.0672    0.3856 C   0  0  0  0  0  0  0  0  0  0  0  0
    4.2737    2.0320    1.3395 C   0  0  0  0  0  0  0  0  0  0  0  0
   -4.7463    1.3411    1.4122 C   0  0  0  0  0  0  0  0  0  0  0  0
    3.8097    1.6884   -1.0065 C   0  0  0  0  0  0  0  0  0  0  0  0
   -4.2734    1.0671   -0.9412 C   0  0  0  0  0  0  0  0  0  0  0  0
    5.5461    2.5049    1.0187 C   0  0  0  0  0  0  0  0  0  0  0  0
   -6.0808    1.6145    1.1122 C   0  0  0  0  0  0  0  0  0  0  0  0
    5.0823    2.1612   -1.3272 C   0  0  0  0  0  0  0  0  0  0  0  0
   -5.6079    1.3408   -1.2411 C   0  0  0  0  0  0  0  0  0  0  0  0
    5.9503    2.5694   -0.3146 C   0  0  0  0  0  0  0  0  0  0  0  0
   -6.5116    1.6144   -0.2143 C   0  0  0  0  0  0  0  0  0  0  0  0
  1 11  2  0
  2 12  2  0
  3  7  1  0
  3  9  1  0
  3 10  1  0
  4 11  1  0
  4 15  1  0
  5 12  1  0
  5 16  1  0
  6  7  1  0
  6  8  1  0
  8 11  1  0
  8 12  1  0
  9 13  1  0
 10 14  1  0
 15 17  2  0
 15 19  1  0
 16 18  2  0
 16 20  1  0
 17 21  1  0
 18 22  1  0
 19 23  2  0
 20 24  2  0
 21 25  2  0
 22 26  2  0
 23 25  1  0
 24 26  1  0
M  END
>  <PUBCHEM_COMPOUND_CID>  (1) 
40406

>  <PUBCHEM_CONFORMER_RMSD>  (1) 
1

>  <PUBCHEM_CONFORMER_DIVERSEORDER>  (1) 
1
47
20
49
61
78
62
79
65
21
91
101
76
58
29
98
72
33
45
59
100
12
99
90
42
50
46
13
87
53
82
51
66
57
18
8
93
32
67
94
55
74
22
60
43
95
70
97
75
80
44
85
40
52
34
68
11
9
89
25
63
88
86
39
48
84
4
64
28
81
73
35
15
19
6
10
37
77
3
71
26
17
30
5
14
92
7
2
83
41
36
54
69
56
38
23
24
16
96
27
31

>  <PUBCHEM_MMFF94_PARTIAL_CHARGES>  (1) 
35
1 -0.57
10 0.27
11 0.57
12 0.57
15 0.12
16 0.12
17 -0.15
18 -0.15
19 -0.15
2 -0.57
20 -0.15
21 -0.15
22 -0.15
23 -0.15
24 -0.15
25 -0.15
26 -0.15
3 -0.81
4 -0.55
42 0.37
43 0.37
44 0.15
45 0.15
46 0.15
47 0.15
48 0.15
49 0.15
5 -0.55
50 0.15
51 0.15
52 0.15
53 0.15
7 0.27
8 0.12
9 0.27

>  <PUBCHEM_EFFECTIVE_ROTOR_COUNT>  (1) 
11

>  <PUBCHEM_PHARMACOPHORE_FEATURES>  (1) 
8
1 1 acceptor
1 2 acceptor
1 3 cation
1 4 donor
1 5 donor
1 8 anion
6 15 17 19 21 23 25 rings
6 16 18 20 22 24 26 rings

>  <PUBCHEM_HEAVY_ATOM_COUNT>  (1) 
26

>  <PUBCHEM_ATOM_DEF_STEREO_COUNT>  (1) 
0

>  <PUBCHEM_ATOM_UDEF_STEREO_COUNT>  (1) 
0

>  <PUBCHEM_BOND_DEF_STEREO_COUNT>  (1) 
0

>  <PUBCHEM_BOND_UDEF_STEREO_COUNT>  (1) 
0

>  <PUBCHEM_ISOTOPIC_ATOM_COUNT>  (1) 
0

>  <PUBCHEM_COMPONENT_COUNT>  (1) 
1

>  <PUBCHEM_CACTVS_TAUTO_COUNT>  (1) 
3

>  <PUBCHEM_CONFORMER_ID>  (1) 
00009DD600000001

>  <PUBCHEM_MMFF94_ENERGY>  (1) 
69.0563

>  <PUBCHEM_FEATURE_SELFOVERLAP>  (1) 
40.6

>  <PUBCHEM_SHAPE_FINGERPRINT>  (1) 
102385 1 17905608796077725981
10258939 38 15692049271415042134
10721379 63 18054802684211658463
11297750 10 17318445393546725847
11488393 25 18118398441036071131
11823591 26 18410566310050648785
11991303 11 18265061399870686622
12597179 24 18271533077977516982
12788726 201 17761210320775190438
13631057 29 18198052776819399847
13757389 114 18192162700686006484
13955234 65 18263927631394100395
13968360 50 18336256882176439547
14150023 24 18334849524784128544
15183329 4 16128384765355334985
15664445 248 17698174949798427774
15927050 60 18412544344749974366
17539 30 17837487823218403558
17913733 40 18338529585770047945
17980427 23 17313951947491172453
1813 80 17694782918051503519
20505436 4 17918277537542246253
20554085 129 18270666641124046737
21033648 29 18268708484051078744
21049683 118 18200292434106243162
21120745 212 17181670987405921340
21424621 283 18272652372019612008
21796203 349 17691437134159385643
23559900 14 17170126841812397543
23598288 3 17390810099368794856
23929065 36 17624674036484829218
249999 5 18336829675957825539
3411729 13 18187643561919212625
38695281 34 18408884044369507015
504843 32 18115868666908220451
5385378 56 18337115570746138185
59755656 520 18411414055444019004
6669772 16 18343872104047926462
6673363 416 17401774026307929294
6679774 75 18040708144358189282
77188 2 17617658752514835522
9658208 31 18269838782357288264

>  <PUBCHEM_SHAPE_MULTIPOLES>  (1) 
508.39
13.68
6.25
1.55
9.58
14.29
-0.21
-21.15
0.47
-6.41
0.26
-0.13
0.4
-0.66

>  <PUBCHEM_SHAPE_SELFOVERLAP>  (1) 
1050.172

>  <PUBCHEM_SHAPE_VOLUME>  (1) 
289.6

>  <PUBCHEM_COORDINATE_TYPE>  (1) 
2
5
10

$$$$
