40409
     RDKit          3D

 24 26  0  0  0  0  0  0  0  0999 V2000
    1.2486    1.9644    0.2709 S   0  0  0  0  0  0  0  0  0  0  0  0
    0.7978   -2.4781   -0.0368 O   0  0  0  0  0  0  0  0  0  0  0  0
    2.9962   -2.6079    0.6007 O   0  0  0  0  0  0  0  0  0  0  0  0
   -1.4211    2.0459    0.9376 O   0  0  0  0  0  0  0  0  0  0  0  0
   -0.3562   -0.0529    0.7794 N   0  0  0  0  0  0  0  0  0  0  0  0
    5.4224    0.8864   -1.1119 C   0  0  0  0  0  0  0  0  0  0  0  0
    4.5577   -0.1905   -0.4380 C   0  0  0  0  0  0  0  0  0  0  0  0
    5.2845    2.2446   -0.4085 C   0  0  0  0  0  0  0  0  0  0  0  0
    3.1804    0.3128   -0.1351 C   0  0  0  0  0  0  0  0  0  0  0  0
    3.8376    2.7620   -0.4456 C   0  0  0  0  0  0  0  0  0  0  0  0
    2.8771    1.6611   -0.1209 C   0  0  0  0  0  0  0  0  0  0  0  0
    2.0401   -0.4797    0.1938 C   0  0  0  0  0  0  0  0  0  0  0  0
    0.9238    0.2913    0.4370 C   0  0  0  0  0  0  0  0  0  0  0  0
    2.0175   -1.9189    0.2775 C   0  0  0  0  0  0  0  0  0  0  0  0
   -1.4372    0.8214    1.0077 C   0  0  0  0  0  0  0  0  0  0  0  0
   -2.6980    0.0499    1.3676 C   0  0  0  0  0  0  0  0  0  0  0  0
   -3.8354    0.2775    0.4067 C   0  0  0  0  0  0  0  0  0  0  0  0
    0.7054   -3.9058    0.0258 C   0  0  0  0  0  0  0  0  0  0  0  0
   -4.7299    1.3122    0.6407 C   0  0  0  0  0  0  0  0  0  0  0  0
   -3.9721   -0.5506   -0.6982 C   0  0  0  0  0  0  0  0  0  0  0  0
   -0.6996   -4.3259   -0.3503 C   0  0  0  0  0  0  0  0  0  0  0  0
   -5.7832    1.5232   -0.2490 C   0  0  0  0  0  0  0  0  0  0  0  0
   -5.0254   -0.3396   -1.5879 C   0  0  0  0  0  0  0  0  0  0  0  0
   -5.9310    0.6973   -1.3634 C   0  0  0  0  0  0  0  0  0  0  0  0
  1 11  1  0
  1 13  1  0
  2 14  1  0
  2 18  1  0
  3 14  2  0
  4 15  2  0
  5 13  1  0
  5 15  1  0
  6  7  1  0
  6  8  1  0
  7  9  1  0
  8 10  1  0
  9 11  2  0
  9 12  1  0
 10 11  1  0
 12 13  2  0
 12 14  1  0
 15 16  1  0
 16 17  1  0
 17 19  2  0
 17 20  1  0
 18 21  1  0
 19 22  1  0
 20 23  2  0
 22 24  2  0
 23 24  1  0
M  END
>  <PUBCHEM_COMPOUND_CID>  (1) 
40409

>  <PUBCHEM_CONFORMER_RMSD>  (1) 
0.8

>  <PUBCHEM_CONFORMER_DIVERSEORDER>  (1) 
2
68
20
96
6
52
75
73
63
91
1
84
50
77
25
28
41
67
74
51
87
92
79
66
86
39
82
15
56
60
43
37
62
93
33
45
40
98
27
76
35
9
17
81
54
55
61
88
12
22
5
64
58
72
78
44
57
21
34
90
100
8
30
16
24
32
59
65
36
53
94
95
13
89
31
69
99
97
42
48
26
85
11
19
80
46
14
47
83
3
71
38
29
18
70
23
10
7
4
49

>  <PUBCHEM_MMFF94_PARTIAL_CHARGES>  (1) 
27
1 -0.08
10 0.18
11 -0.14
12 -0.09
13 0.1
14 0.81
15 0.57
16 0.2
17 -0.14
18 0.28
19 -0.15
2 -0.43
20 -0.15
22 -0.15
23 -0.15
24 -0.15
3 -0.57
33 0.37
38 0.15
39 0.15
4 -0.57
43 0.15
44 0.15
45 0.15
5 -0.49
7 0.18
9 -0.18

>  <PUBCHEM_EFFECTIVE_ROTOR_COUNT>  (1) 
7.8

>  <PUBCHEM_PHARMACOPHORE_FEATURES>  (1) 
6
1 3 acceptor
1 4 acceptor
1 5 donor
5 1 9 11 12 13 rings
6 17 19 20 22 23 24 rings
6 6 7 8 9 10 11 rings

>  <PUBCHEM_HEAVY_ATOM_COUNT>  (1) 
24

>  <PUBCHEM_ATOM_DEF_STEREO_COUNT>  (1) 
0

>  <PUBCHEM_ATOM_UDEF_STEREO_COUNT>  (1) 
0

>  <PUBCHEM_BOND_DEF_STEREO_COUNT>  (1) 
0

>  <PUBCHEM_BOND_UDEF_STEREO_COUNT>  (1) 
0

>  <PUBCHEM_ISOTOPIC_ATOM_COUNT>  (1) 
0

>  <PUBCHEM_COMPONENT_COUNT>  (1) 
1

>  <PUBCHEM_CACTVS_TAUTO_COUNT>  (1) 
4

>  <PUBCHEM_CONFORMER_ID>  (1) 
00009DD900000002

>  <PUBCHEM_MMFF94_ENERGY>  (1) 
50.281

>  <PUBCHEM_FEATURE_SELFOVERLAP>  (1) 
30.504

>  <PUBCHEM_SHAPE_FINGERPRINT>  (1) 
10090160 65 18410293592606765097
10411042 1 17759805845490908426
10693767 8 18058173826208807302
11069576 57 18128805349032847759
12236239 1 17917712391874306989
12507557 5 8502658095661978561
12730499 353 18333739017623323873
12788726 201 17416973837925499665
14117953 113 18266733576409762622
14289585 56 18187080607649868572
14528608 73 18412824707007953669
14790565 3 18410862087469012556
14931854 50 18199732800174101327
15183329 4 17988918934982033261
15250474 111 18200021838503186543
15537594 2 18060701693756104863
16993438 75 18189902109459751851
17138139 8 17773293812120646143
17818456 19 17054431739986492937
18335252 98 18260833735524461507
18681886 176 17131826594876939976
200 152 18273218599180454745
20028762 73 18129661894724653230
20511986 3 17916851457628030909
20645477 70 18262522490014717347
21033648 144 18186239532947161789
21054139 6 18272926137450281271
22393880 68 18130218354707748093
23557571 272 16950577601012703089
23559900 14 18409165472186058515
23576562 1 17899429850768585380
25147074 1 18129389193854334617
3004659 81 18201433623980529727
3060560 45 18409172095521487622
335352 9 18409736162788736028
38695281 34 18409732867367372571
4058900 60 18261399909980431115
4280585 95 17266394478818587390
46194498 28 18189606143410109559
53917941 68 18195522821336902018
8272917 22 18339365154250878447

>  <PUBCHEM_SHAPE_MULTIPOLES>  (1) 
475.17
13.07
3.93
1.13
8.67
5.48
-0.13
-8.78
-5.34
-2.46
-0.09
1.1
-0.18
-0.94

>  <PUBCHEM_SHAPE_SELFOVERLAP>  (1) 
999.644

>  <PUBCHEM_SHAPE_VOLUME>  (1) 
268.1

>  <PUBCHEM_COORDINATE_TYPE>  (1) 
2
5
10

$$$$
