40411
     RDKit          3D

 17 17  0  0  0  0  0  0  0  0999 V2000
   -2.6113   -2.7918    0.1586 O   0  0  0  0  0  0  0  0  0  0  0  0
   -2.5254    2.6652   -0.3473 O   0  0  0  0  0  0  0  0  0  0  0  0
   -0.3905    1.3299    1.8661 O   0  0  0  0  0  0  0  0  0  0  0  0
    4.3629   -0.8043   -0.9549 O   0  0  0  0  0  0  0  0  0  0  0  0
    4.3822    0.4967    0.8132 O   0  0  0  0  0  0  0  0  0  0  0  0
   -1.8567   -0.0804   -0.0770 N   0  0  0  0  0  0  0  0  0  0  0  0
    3.7647   -0.1457   -0.0702 N   0  0  0  0  0  0  0  0  0  0  0  0
   -2.6008   -0.5772    1.0622 C   0  0  0  0  0  0  0  0  0  0  0  0
   -2.5769    0.4394   -1.2213 C   0  0  0  0  0  0  0  0  0  0  0  0
   -0.4448   -0.0900   -0.0665 C   0  0  0  0  0  0  0  0  0  0  0  0
   -3.4580   -1.7684    0.6653 C   0  0  0  0  0  0  0  0  0  0  0  0
   -2.1902    1.8854   -1.4876 C   0  0  0  0  0  0  0  0  0  0  0  0
    0.2628    0.6163    0.9061 C   0  0  0  0  0  0  0  0  0  0  0  0
    0.2425   -0.8145   -1.0405 C   0  0  0  0  0  0  0  0  0  0  0  0
    1.6575    0.5982    0.9048 C   0  0  0  0  0  0  0  0  0  0  0  0
    1.6372   -0.8326   -1.0419 C   0  0  0  0  0  0  0  0  0  0  0  0
    2.3447   -0.1263   -0.0691 C   0  0  0  0  0  0  0  0  0  0  0  0
  1 11  1  0
  2 12  1  0
  3 13  1  0
  4  7  1  0
  5  7  2  0
  6  8  1  0
  6  9  1  0
  6 10  1  0
  7 17  1  0
  8 11  1  0
  9 12  1  0
 10 13  2  0
 10 14  1  0
 13 15  1  0
 14 16  2  0
 15 17  2  0
 16 17  1  0
M  CHG  2   4  -1   7   1
M  END
>  <PUBCHEM_COMPOUND_CID>  (1) 
40411

>  <PUBCHEM_CONFORMER_RMSD>  (1) 
0.8

>  <PUBCHEM_CONFORMER_DIVERSEORDER>  (1) 
1
7
9
5
6
10
2
3
8
11
4

>  <PUBCHEM_MMFF94_PARTIAL_CHARGES>  (1) 
23
1 -0.68
10 0.1
11 0.28
12 0.28
13 0.08
14 -0.15
15 -0.15
16 -0.15
17 0.13
2 -0.68
26 0.15
27 0.15
28 0.15
29 0.4
3 -0.53
30 0.4
31 0.45
4 -0.52
5 -0.52
6 -0.84
7 0.91
8 0.37
9 0.37

>  <PUBCHEM_EFFECTIVE_ROTOR_COUNT>  (1) 
6

>  <PUBCHEM_PHARMACOPHORE_FEATURES>  (1) 
10
1 1 acceptor
1 1 donor
1 2 acceptor
1 2 donor
1 3 donor
1 4 acceptor
1 4 anion
1 5 acceptor
1 6 cation
6 10 13 14 15 16 17 rings

>  <PUBCHEM_HEAVY_ATOM_COUNT>  (1) 
17

>  <PUBCHEM_ATOM_DEF_STEREO_COUNT>  (1) 
0

>  <PUBCHEM_ATOM_UDEF_STEREO_COUNT>  (1) 
0

>  <PUBCHEM_BOND_DEF_STEREO_COUNT>  (1) 
0

>  <PUBCHEM_BOND_UDEF_STEREO_COUNT>  (1) 
0

>  <PUBCHEM_ISOTOPIC_ATOM_COUNT>  (1) 
0

>  <PUBCHEM_COMPONENT_COUNT>  (1) 
1

>  <PUBCHEM_CACTVS_TAUTO_COUNT>  (1) 
3

>  <PUBCHEM_CONFORMER_ID>  (1) 
00009DDB00000001

>  <PUBCHEM_MMFF94_ENERGY>  (1) 
59.9784

>  <PUBCHEM_FEATURE_SELFOVERLAP>  (1) 
50.828

>  <PUBCHEM_SHAPE_FINGERPRINT>  (1) 
11543360 7 18040725800630339566
12138202 97 18188761743843527741
12491281 212 17240766116736208124
12500047 106 18189329078721356742
13214271 11 17418103117396259355
13583140 156 18265869468044978760
14289901 80 18113619006225105736
15309172 13 16988850479235402358
15653759 3 18408039628082057266
15775835 57 16371283312370319453
16945 1 18409722971746794351
17844478 74 18341333378732683789
18186145 218 18272093777621152350
18534176 82 18337101294248186509
19026448 4 18407757028388358990
19026448 5 17385722483173908710
200 152 16845283982428109071
20645477 56 18188773838308279725
20645477 70 17417808379903463014
21061003 4 17775007924682684563
21339142 149 17313109639521091681
22094290 60 18260548939287934007
23402539 116 17530681043348705411
23493267 7 18338794499015241626
23526113 38 18057595482638357087
23557571 272 18189047749863360621
23559900 14 18267579123085838506
25 1 17913763912870648709
2748010 2 17702646891279270536
3286 77 17701823404488974867
6049 1 18340761632670812496
6442390 28 18048605824710995977
77492 1 16226037881927465568
81228 2 18114188532010924817

>  <PUBCHEM_SHAPE_MULTIPOLES>  (1) 
310.54
6.64
2.03
1.42
5.92
0.12
0.12
-1.4
-0.23
-2.92
-0.2
-0.15
0.35
1.23

>  <PUBCHEM_SHAPE_SELFOVERLAP>  (1) 
636.916

>  <PUBCHEM_SHAPE_VOLUME>  (1) 
179.7

>  <PUBCHEM_COORDINATE_TYPE>  (1) 
2
5
10

$$$$
