40412
     RDKit          3D

 33 37  0  0  1  0  0  0  0  0999 V2000
   -7.5031   -2.9614   -0.6379 Cl  0  0  0  0  0  0  0  0  0  0  0  0
    2.4092    2.9897    0.4410 O   0  0  0  0  0  0  0  0  0  0  0  0
   -3.8742    1.8524   -0.5629 O   0  0  0  0  0  0  0  0  0  0  0  0
   -4.9475   -0.3908    0.8292 O   0  0  0  0  0  0  0  0  0  0  0  0
   -2.2744    0.4789   -3.1896 O   0  0  0  0  0  0  0  0  0  0  0  0
    5.7091   -2.7206    0.4458 O   0  0  0  0  0  0  0  0  0  0  0  0
    7.4708   -2.3343   -0.9836 O   0  0  0  0  0  0  0  0  0  0  0  0
   -5.5059   -2.5416    1.4414 O   0  0  0  0  0  0  0  0  0  0  0  0
    1.8172    1.6800    0.4622 C   0  0  0  0  0  0  0  0  0  0  0  0
    0.3621    1.7915   -0.0648 C   0  0  0  0  0  0  0  0  0  0  0  0
    2.7056    0.6861   -0.3377 C   0  0  0  0  0  0  0  0  0  0  0  0
   -0.3274    0.4137   -0.2729 C   0  0  0  0  0  0  0  0  0  0  0  0
   -1.8012    0.5432   -0.8153 C   0  0  0  0  0  0  0  0  0  0  0  0
   -2.6332    1.5189    0.0813 C   0  0  0  0  0  0  0  0  0  0  0  0
    3.9321    0.5478    0.6103 C   0  0  0  0  0  0  0  0  0  0  0  0
    1.9670   -0.6606   -0.5376 C   0  0  0  0  0  0  0  0  0  0  0  0
    0.5682   -0.5010   -1.1328 C   0  0  0  0  0  0  0  0  0  0  0  0
    1.9468    1.1855    1.9163 C   0  0  0  0  0  0  0  0  0  0  0  0
   -0.4909    2.7199    0.8158 C   0  0  0  0  0  0  0  0  0  0  0  0
   -1.9097    2.8622    0.2819 C   0  0  0  0  0  0  0  0  0  0  0  0
    3.3309    0.5294    2.0237 C   0  0  0  0  0  0  0  0  0  0  0  0
   -2.5247   -0.8314   -0.8965 C   0  0  0  0  0  0  0  0  0  0  0  0
    3.1540    1.2328   -1.7073 C   0  0  0  0  0  0  0  0  0  0  0  0
   -2.9777    0.8845    1.4559 C   0  0  0  0  0  0  0  0  0  0  0  0
   -2.8226   -1.4453    0.4711 C   0  0  0  0  0  0  0  0  0  0  0  0
   -3.6274   -0.5000    1.3565 C   0  0  0  0  0  0  0  0  0  0  0  0
   -1.7884    1.0790   -2.2365 C   0  0  0  0  0  0  0  0  0  0  0  0
    4.8471   -0.6024    0.3391 C   0  0  0  0  0  0  0  0  0  0  0  0
    4.6343   -1.9262    0.9585 C   0  0  0  0  0  0  0  0  0  0  0  0
    5.9198   -0.6063   -0.4478 C   0  0  0  0  0  0  0  0  0  0  0  0
    6.4779   -1.9580   -0.3852 C   0  0  0  0  0  0  0  0  0  0  0  0
   -5.6438   -1.5658    0.7171 C   0  0  0  0  0  0  0  0  0  0  0  0
   -6.6000   -1.4498   -0.4387 C   0  0  0  0  0  0  0  0  0  0  0  0
  1 33  1  0
  2  9  1  0
  3 14  1  0
  4 26  1  0
  4 32  1  0
  5 27  2  0
  6 29  1  0
  6 31  1  0
  7 31  2  0
  8 32  2  0
  9 10  1  0
  9 11  1  0
  9 18  1  0
 10 12  1  0
 10 19  1  0
 11 15  1  0
 11 16  1  0
 11 23  1  0
 12 13  1  0
 12 17  1  0
 13 14  1  0
 13 22  1  0
 13 27  1  0
 14 20  1  0
 14 24  1  0
 15 21  1  0
 15 28  1  0
 16 17  1  0
 18 21  1  0
 19 20  1  0
 22 25  1  0
 24 26  1  0
 25 26  1  0
 28 29  1  0
 28 30  2  0
 30 31  1  0
 32 33  1  0
M  END
>  <PUBCHEM_COMPOUND_CID>  (1) 
40412

>  <PUBCHEM_CONFORMER_RMSD>  (1) 
1

>  <PUBCHEM_CONFORMER_DIVERSEORDER>  (1) 
3
87
28
75
27
72
78
83
18
56
16
63
88
48
24
1
13
81
19
34
49
69
32
74
30
84
21
64
77
41
73
53
67
71
51
4
86
76
20
43
45
44
15
36
5
60
39
40
8
2
85
58
11
82
23
29
46
50
31
12
14
59
35
38
6
52
7
17
80
22
62
55
33
68
79
61
65
57
47
25
26
89
54
70
10
9
37
66
42

>  <PUBCHEM_MMFF94_PARTIAL_CHARGES>  (1) 
24
1 -0.29
13 0.06
14 0.28
15 0.14
2 -0.68
26 0.28
27 0.45
28 -0.28
29 0.42
3 -0.68
30 -0.14
31 0.71
32 0.66
33 0.35
4 -0.43
5 -0.57
59 0.4
6 -0.43
60 0.06
61 0.4
64 0.15
7 -0.57
8 -0.57
9 0.28

>  <PUBCHEM_EFFECTIVE_ROTOR_COUNT>  (1) 
7.6

>  <PUBCHEM_PHARMACOPHORE_FEATURES>  (1) 
12
1 2 acceptor
1 2 donor
1 3 acceptor
1 3 donor
1 5 acceptor
1 7 acceptor
1 8 acceptor
5 6 28 29 30 31 rings
5 9 11 15 18 21 rings
6 10 12 13 14 19 20 rings
6 13 14 22 24 25 26 rings
6 9 10 11 12 16 17 rings

>  <PUBCHEM_HEAVY_ATOM_COUNT>  (1) 
33

>  <PUBCHEM_ATOM_DEF_STEREO_COUNT>  (1) 
5

>  <PUBCHEM_ATOM_UDEF_STEREO_COUNT>  (1) 
3

>  <PUBCHEM_BOND_DEF_STEREO_COUNT>  (1) 
0

>  <PUBCHEM_BOND_UDEF_STEREO_COUNT>  (1) 
0

>  <PUBCHEM_ISOTOPIC_ATOM_COUNT>  (1) 
0

>  <PUBCHEM_COMPONENT_COUNT>  (1) 
1

>  <PUBCHEM_CACTVS_TAUTO_COUNT>  (1) 
1

>  <PUBCHEM_CONFORMER_ID>  (1) 
00009DDC00000003

>  <PUBCHEM_MMFF94_ENERGY>  (1) 
107.6868

>  <PUBCHEM_FEATURE_SELFOVERLAP>  (1) 
61.13

>  <PUBCHEM_SHAPE_FINGERPRINT>  (1) 
10692045 39 13757812377200879004
11135609 12 18410569617591814936
11135609 187 11025791003440596935
117089 54 18337685160403027162
11796584 16 18193559961406243656
12166972 35 18260550038773428764
12422481 6 17203611479886923767
12633257 1 16200425888520159080
12760667 363 18408606972351791171
13009979 54 18339932524137714716
131258 38 17768233966836038391
13224815 77 17774716554028022728
13533116 47 18338797934999602043
1361 87 17604724381515196739
13673619 4 18260269646339128516
13690498 29 17676488315479491518
13782708 43 18333729135062052007
14251764 30 18409451350026694554
14950920 106 17917437557275628955
14955137 171 17917717864232172624
15064986 96 16342310047159699535
15082195 135 14562525189521619766
15131766 46 17056942281104034897
15183329 4 15430302664833906535
15510800 12 18187653565500159427
16994733 274 9295020055087216559
20028762 73 18273216417115964143
21033650 10 16226040060256652461
21304303 64 9079118860771897151
21304304 249 18342178899233560447
21756936 100 12823292373694299623
21987483 16 16913956296403116239
23522609 53 18051730781968878912
23559900 14 18334010596974714065
23569914 152 13843312553023844939
2838139 119 10447661157946798339
3004659 81 17822290214490177915
392239 28 18200889426197390003
4340502 62 13901918820744328029
437815 12 18334575776384933515
46194498 28 17603868944615386724
465052 167 18343308088968748358
474113 269 18201431502916130159
484985 159 18336264527429327217
497634 4 17968383355407559004
5104073 3 12535347878665400508
54039377 194 18271534122224554830
563151 248 16559030514876555943
56633871 153 18131629015035840503
5718773 13 18413106191049430515
57527293 21 17560799995586158197
59755656 215 18333447633999507387
6081469 158 18411416233488297231
636775 8 18199200499571670486
6691757 9 14764337228563188669
7970288 3 18410013238701447522
8863177 126 18412826919169254018
9896288 288 17701549398106775921

>  <PUBCHEM_SHAPE_MULTIPOLES>  (1) 
639.91
16.32
3.15
1.8
1.39
0.1
-0.63
19.14
0.48
0.4
0.35
0.52
-0.31
0.73

>  <PUBCHEM_SHAPE_SELFOVERLAP>  (1) 
1376.03

>  <PUBCHEM_SHAPE_VOLUME>  (1) 
349.1

>  <PUBCHEM_COORDINATE_TYPE>  (1) 
2
5
10

$$$$
