40419
     RDKit          3D

 19 22  0  0  0  0  0  0  0  0999 V2000
    2.3067    0.3068   -0.3275 N   0  0  0  0  0  0  0  0  0  0  0  0
    5.0751   -0.1447    0.3731 N   0  0  0  0  0  0  0  0  0  0  0  0
   -1.4517   -0.2730   -0.2777 C   0  0  0  0  0  0  0  0  0  0  0  0
   -3.1547    0.0578    1.5702 C   0  0  0  0  0  0  0  0  0  0  0  0
   -3.3933    1.3250   -0.5950 C   0  0  0  0  0  0  0  0  0  0  0  0
   -3.8123   -1.1593   -0.5362 C   0  0  0  0  0  0  0  0  0  0  0  0
   -1.6715   -0.1998    1.2520 C   0  0  0  0  0  0  0  0  0  0  0  0
   -1.9095    1.0640   -0.9072 C   0  0  0  0  0  0  0  0  0  0  0  0
   -2.3272   -1.4135   -0.8489 C   0  0  0  0  0  0  0  0  0  0  0  0
   -3.5865    1.3873    0.9293 C   0  0  0  0  0  0  0  0  0  0  0  0
   -4.0033   -1.0847    0.9877 C   0  0  0  0  0  0  0  0  0  0  0  0
   -4.2407    0.1762   -1.1667 C   0  0  0  0  0  0  0  0  0  0  0  0
    0.0250   -0.5293   -0.5904 C   0  0  0  0  0  0  0  0  0  0  0  0
    0.9057    0.5640   -0.0003 C   0  0  0  0  0  0  0  0  0  0  0  0
    2.7497   -0.9706    0.2442 C   0  0  0  0  0  0  0  0  0  0  0  0
    3.1620    1.4029    0.1440 C   0  0  0  0  0  0  0  0  0  0  0  0
    4.2191   -1.2406   -0.0977 C   0  0  0  0  0  0  0  0  0  0  0  0
    4.6317    1.1335   -0.1967 C   0  0  0  0  0  0  0  0  0  0  0  0
    6.4756   -0.4019    0.0439 C   0  0  0  0  0  0  0  0  0  0  0  0
  1 14  1  0
  1 15  1  0
  1 16  1  0
  2 17  1  0
  2 18  1  0
  2 19  1  0
  3  7  1  0
  3  8  1  0
  3  9  1  0
  3 13  1  0
  4  7  1  0
  4 10  1  0
  4 11  1  0
  5  8  1  0
  5 10  1  0
  5 12  1  0
  6  9  1  0
  6 11  1  0
  6 12  1  0
 13 14  1  0
 15 17  1  0
 16 18  1  0
M  END
>  <PUBCHEM_COMPOUND_CID>  (1) 
40419

>  <PUBCHEM_CONFORMER_RMSD>  (1) 
0.8

>  <PUBCHEM_CONFORMER_DIVERSEORDER>  (1) 
1
3
2

>  <PUBCHEM_MMFF94_PARTIAL_CHARGES>  (1) 
8
1 -0.81
14 0.27
15 0.27
16 0.27
17 0.27
18 0.27
19 0.27
2 -0.81

>  <PUBCHEM_EFFECTIVE_ROTOR_COUNT>  (1) 
5.4

>  <PUBCHEM_PHARMACOPHORE_FEATURES>  (1) 
7
1 1 cation
1 2 cation
6 1 2 15 16 17 18 rings
6 3 4 5 7 8 10 rings
6 3 4 6 7 9 11 rings
6 3 5 6 8 9 12 rings
6 4 5 6 10 11 12 rings

>  <PUBCHEM_HEAVY_ATOM_COUNT>  (1) 
19

>  <PUBCHEM_ATOM_DEF_STEREO_COUNT>  (1) 
0

>  <PUBCHEM_ATOM_UDEF_STEREO_COUNT>  (1) 
0

>  <PUBCHEM_BOND_DEF_STEREO_COUNT>  (1) 
0

>  <PUBCHEM_BOND_UDEF_STEREO_COUNT>  (1) 
0

>  <PUBCHEM_ISOTOPIC_ATOM_COUNT>  (1) 
0

>  <PUBCHEM_COMPONENT_COUNT>  (1) 
1

>  <PUBCHEM_CACTVS_TAUTO_COUNT>  (1) 
1

>  <PUBCHEM_CONFORMER_ID>  (1) 
00009DE300000001

>  <PUBCHEM_MMFF94_ENERGY>  (1) 
47.2276

>  <PUBCHEM_FEATURE_SELFOVERLAP>  (1) 
48.041

>  <PUBCHEM_SHAPE_FINGERPRINT>  (1) 
10366900 7 17676201386057871200
10680689 15 17894912927334522948
11315181 36 18413387648576895816
11615757 297 18202563999064102720
12091667 2 18186519900128050702
12107183 9 17694508044296673738
12236239 1 17846779607549080474
12507557 5 18202561791393052816
12596602 18 17561079237622882666
128620 24 11815893470395540556
12916754 54 18338516464476165925
13024252 1 17989489628628801847
13167823 11 18413386553465840902
13214271 11 18040435490842460919
13224815 77 18113620101062009900
13288520 33 18412824707424327927
13583140 156 18335136501123425623
13675066 3 18260832605030255460
14004511 7 18343866610525999004
14142880 1 17987810605511949489
14386348 63 17313104155153738154
15788980 27 18335419071691076788
17093844 174 18334286557461063648
17349148 13 17203890760319929636
17834072 33 18342455976184196334
17844677 252 17967819357751285652
18927931 339 17822297872390616159
19489759 90 18411695482722181176
200 152 18201431493676770535
20279233 1 17385724698897148050
20325693 3 14923942349557580627
20645477 70 18337666422003611286
21267235 1 18411423933478383534
22646028 1 18343864433177948980
2306618 200 18202565060401189809
23402539 116 18410007732479170052
23557571 272 16226318227813367174
23559900 14 17821722862301052460
4214541 1 18412543210614065060
5104073 3 18409164420346469032
542803 24 16845575327133936720
77779 3 18409166614926868668
90127 26 18040155123951903972

>  <PUBCHEM_SHAPE_MULTIPOLES>  (1) 
381.05
12.48
1.48
1.16
17.8
0.1
0.22
-0.59
0.46
-0.33
-0.09
-1.47
0
-0.07

>  <PUBCHEM_SHAPE_SELFOVERLAP>  (1) 
806.023

>  <PUBCHEM_SHAPE_VOLUME>  (1) 
205.6

>  <PUBCHEM_COORDINATE_TYPE>  (1) 
2
5
10

$$$$
