40425
     RDKit          3D

 18 20  0  0  0  0  0  0  0  0999 V2000
    3.4957   -0.6405    0.0446 N   0  0  0  0  0  0  0  0  0  0  0  0
   -1.3473    0.4826   -0.0031 C   0  0  0  0  0  0  0  0  0  0  0  0
   -3.0231   -0.9403    1.2585 C   0  0  0  0  0  0  0  0  0  0  0  0
   -3.8055    1.1009    0.0046 C   0  0  0  0  0  0  0  0  0  0  0  0
   -3.0299   -0.9353   -1.2616 C   0  0  0  0  0  0  0  0  0  0  0  0
   -1.5865   -0.3893    1.2524 C   0  0  0  0  0  0  0  0  0  0  0  0
   -2.3667    1.6464    0.0019 C   0  0  0  0  0  0  0  0  0  0  0  0
   -1.5932   -0.3840   -1.2609 C   0  0  0  0  0  0  0  0  0  0  0  0
   -4.0158    0.2341    1.2572 C   0  0  0  0  0  0  0  0  0  0  0  0
   -3.2439   -1.7919   -0.0027 C   0  0  0  0  0  0  0  0  0  0  0  0
   -4.0224    0.2391   -1.2503 C   0  0  0  0  0  0  0  0  0  0  0  0
    0.0828    1.0291   -0.0058 C   0  0  0  0  0  0  0  0  0  0  0  0
    1.1043   -0.1032    0.0277 C   0  0  0  0  0  0  0  0  0  0  0  0
    2.5283    0.4491   -0.0086 C   0  0  0  0  0  0  0  0  0  0  0  0
    4.8579   -0.1281    0.0005 C   0  0  0  0  0  0  0  0  0  0  0  0
    5.8275   -1.3137    0.0506 C   0  0  0  0  0  0  0  0  0  0  0  0
    5.0448    0.6493   -1.3066 C   0  0  0  0  0  0  0  0  0  0  0  0
    5.0929    0.7958    1.2014 C   0  0  0  0  0  0  0  0  0  0  0  0
  1 14  1  0
  1 15  1  0
  2  6  1  0
  2  7  1  0
  2  8  1  0
  2 12  1  0
  3  6  1  0
  3  9  1  0
  3 10  1  0
  4  7  1  0
  4  9  1  0
  4 11  1  0
  5  8  1  0
  5 10  1  0
  5 11  1  0
 12 13  1  0
 13 14  1  0
 15 16  1  0
 15 17  1  0
 15 18  1  0
M  END
>  <PUBCHEM_COMPOUND_CID>  (1) 
40425

>  <PUBCHEM_CONFORMER_RMSD>  (1) 
0.8

>  <PUBCHEM_CONFORMER_DIVERSEORDER>  (1) 
1

>  <PUBCHEM_MMFF94_PARTIAL_CHARGES>  (1) 
4
1 -0.9
14 0.27
15 0.27
40 0.36

>  <PUBCHEM_EFFECTIVE_ROTOR_COUNT>  (1) 
6.2

>  <PUBCHEM_PHARMACOPHORE_FEATURES>  (1) 
7
1 1 cation
1 1 donor
4 15 16 17 18 hydrophobe
6 2 3 4 6 7 9 rings
6 2 3 5 6 8 10 rings
6 2 4 5 7 8 11 rings
6 3 4 5 9 10 11 rings

>  <PUBCHEM_HEAVY_ATOM_COUNT>  (1) 
18

>  <PUBCHEM_ATOM_DEF_STEREO_COUNT>  (1) 
0

>  <PUBCHEM_ATOM_UDEF_STEREO_COUNT>  (1) 
0

>  <PUBCHEM_BOND_DEF_STEREO_COUNT>  (1) 
0

>  <PUBCHEM_BOND_UDEF_STEREO_COUNT>  (1) 
0

>  <PUBCHEM_ISOTOPIC_ATOM_COUNT>  (1) 
0

>  <PUBCHEM_COMPONENT_COUNT>  (1) 
1

>  <PUBCHEM_CACTVS_TAUTO_COUNT>  (1) 
1

>  <PUBCHEM_CONFORMER_ID>  (1) 
00009DE900000001

>  <PUBCHEM_MMFF94_ENERGY>  (1) 
39.0289

>  <PUBCHEM_FEATURE_SELFOVERLAP>  (1) 
48.037

>  <PUBCHEM_SHAPE_FINGERPRINT>  (1) 
10680689 15 18273217495241607304
11315181 36 16917062270157393952
12507557 5 11527940153783455266
12596602 18 16128366074374788810
12916748 109 9655574132517040396
12916754 54 18130219488484103589
13024252 1 17458061578311733457
13167823 11 18333731299968175290
13288520 33 17312827082586941211
13675066 3 18343865524284381896
15788980 27 18334013887256701222
16945 1 18410856551999518209
17093844 174 17132111312843732914
17349148 13 17748829609772316994
17844677 252 17917994979870072352
18186145 218 16732984245491252708
18927931 339 18410580565326373886
19489759 90 18335414651895624000
200 152 16845283956299407557
20325693 3 16732699446120034807
22646028 1 18202281412012466252
2306618 200 17346882239217845121
23402539 116 14996279219406487006
23557571 272 18188491251346503052
23559900 14 18335695091748728376
4214541 1 18411418376086146936
4921388 177 16732990850802723427
5104073 3 17775562065990894290
542803 24 17676490544957810636
543368 44 17531824565960226852
559249 180 18269267980749897590
90127 26 17775008994488458256

>  <PUBCHEM_SHAPE_MULTIPOLES>  (1) 
365.45
12.66
1.4
1.32
19.95
0.12
0.03
1.17
-0.02
-0.58
-0.02
-0.62
0.07
0.01

>  <PUBCHEM_SHAPE_SELFOVERLAP>  (1) 
759.139

>  <PUBCHEM_SHAPE_VOLUME>  (1) 
203.8

>  <PUBCHEM_COORDINATE_TYPE>  (1) 
2
5
10

$$$$
