40435
     RDKit          3D

 17 19  0  0  1  0  0  0  0  0999 V2000
    3.7653    0.5074   -0.3044 N   0  0  0  0  0  0  0  0  0  0  0  0
   -0.6357   -0.1642   -0.2837 C   0  0  0  0  0  0  0  0  0  0  0  0
   -2.9351   -0.0692   -1.3459 C   0  0  0  0  0  0  0  0  0  0  0  0
   -2.6617   -1.0362    0.9653 C   0  0  0  0  0  0  0  0  0  0  0  0
   -2.3887    1.4417    0.5957 C   0  0  0  0  0  0  0  0  0  0  0  0
   -1.4323   -0.2735   -1.6055 C   0  0  0  0  0  0  0  0  0  0  0  0
   -1.1596   -1.2379    0.6993 C   0  0  0  0  0  0  0  0  0  0  0  0
   -0.8873    1.2331    0.3310 C   0  0  0  0  0  0  0  0  0  0  0  0
   -3.4296   -1.1432   -0.3627 C   0  0  0  0  0  0  0  0  0  0  0  0
   -3.1578    1.3223   -0.7304 C   0  0  0  0  0  0  0  0  0  0  0  0
   -2.8859    0.3601    1.5691 C   0  0  0  0  0  0  0  0  0  0  0  0
    0.8588   -0.3680   -0.5457 C   0  0  0  0  0  0  0  0  0  0  0  0
    1.6582   -0.2981    0.7546 C   0  0  0  0  0  0  0  0  0  0  0  0
    3.1672   -0.5197    0.5485 C   0  0  0  0  0  0  0  0  0  0  0  0
    3.4245   -1.8851   -0.0877 C   0  0  0  0  0  0  0  0  0  0  0  0
    5.2059    0.2907   -0.4311 C   0  0  0  0  0  0  0  0  0  0  0  0
    3.4938    1.8397    0.2335 C   0  0  0  0  0  0  0  0  0  0  0  0
  1 14  1  0
  1 16  1  0
  1 17  1  0
  2  6  1  0
  2  7  1  0
  2  8  1  0
  2 12  1  0
  3  6  1  0
  3  9  1  0
  3 10  1  0
  4  7  1  0
  4  9  1  0
  4 11  1  0
  5  8  1  0
  5 10  1  0
  5 11  1  0
 12 13  1  0
 13 14  1  0
 14 15  1  0
M  END
>  <PUBCHEM_COMPOUND_CID>  (1) 
40435

>  <PUBCHEM_CONFORMER_RMSD>  (1) 
0.6

>  <PUBCHEM_CONFORMER_DIVERSEORDER>  (1) 
3
6
9
7
4
5
8
1
2

>  <PUBCHEM_MMFF94_PARTIAL_CHARGES>  (1) 
4
1 -0.81
14 0.27
16 0.27
17 0.27

>  <PUBCHEM_EFFECTIVE_ROTOR_COUNT>  (1) 
5.2

>  <PUBCHEM_PHARMACOPHORE_FEATURES>  (1) 
5
1 1 cation
6 2 3 4 6 7 9 rings
6 2 3 5 6 8 10 rings
6 2 4 5 7 8 11 rings
6 3 4 5 9 10 11 rings

>  <PUBCHEM_HEAVY_ATOM_COUNT>  (1) 
17

>  <PUBCHEM_ATOM_DEF_STEREO_COUNT>  (1) 
0

>  <PUBCHEM_ATOM_UDEF_STEREO_COUNT>  (1) 
1

>  <PUBCHEM_BOND_DEF_STEREO_COUNT>  (1) 
0

>  <PUBCHEM_BOND_UDEF_STEREO_COUNT>  (1) 
0

>  <PUBCHEM_ISOTOPIC_ATOM_COUNT>  (1) 
0

>  <PUBCHEM_COMPONENT_COUNT>  (1) 
1

>  <PUBCHEM_CACTVS_TAUTO_COUNT>  (1) 
1

>  <PUBCHEM_CONFORMER_ID>  (1) 
00009DF300000003

>  <PUBCHEM_MMFF94_ENERGY>  (1) 
45.9546

>  <PUBCHEM_FEATURE_SELFOVERLAP>  (1) 
37.888

>  <PUBCHEM_SHAPE_FINGERPRINT>  (1) 
10366900 7 18335422413096551058
11132069 177 14634867526710860518
11315181 36 17822008731503774604
11615757 297 18272370901521744056
12173636 292 18114740443397281173
12507557 5 18114455751922965568
128620 24 17821451278813158026
12916754 54 18130786775990653022
12932764 1 17346309410549518402
13024252 1 11241972569004833911
13214271 11 18342462538704385353
13224815 77 18201432601746736408
13296908 3 17531248340051571546
14144814 61 18413668006951598530
14289901 80 18411697703452479322
15309172 13 17846500339536967038
16945 1 16128364996089512575
18186145 218 17895194364104972834
19422 9 18201720635017344530
1986462 14 14908181962448123084
200 152 18411693314011753039
20279233 1 16732699441677458962
20325693 3 16128383682970140292
20645477 56 17749105565494779341
20645477 70 18336820884613782510
2306618 200 17676485042957212893
23557571 272 17530685415593537172
23559900 14 18337100164925157642
296302 2 17748824111728894500
3082319 5 18131626777484089694
474 4 18192146212844639556
5104073 3 18334575720450100152
633830 44 18262801752977833502
9709674 26 18409172103937914034

>  <PUBCHEM_SHAPE_MULTIPOLES>  (1) 
344.87
8.45
1.64
1.27
9.7
0.15
-0.08
0.63
-0.54
0.33
0.16
-1.1
-0.04
0

>  <PUBCHEM_SHAPE_SELFOVERLAP>  (1) 
719.692

>  <PUBCHEM_SHAPE_VOLUME>  (1) 
191.3

>  <PUBCHEM_COORDINATE_TYPE>  (1) 
2
5
10

$$$$
