40431
     RDKit          3D

 16 18  0  0  0  0  0  0  0  0999 V2000
   -5.5278    0.2418   -0.0158 N   0  0  0  0  0  0  0  0  0  0  0  0
    0.7551    0.5305    0.0041 C   0  0  0  0  0  0  0  0  0  0  0  0
    2.3476   -1.0079    1.2377 C   0  0  0  0  0  0  0  0  0  0  0  0
    2.3649   -0.9460   -1.2816 C   0  0  0  0  0  0  0  0  0  0  0  0
    3.2426    1.0167    0.0331 C   0  0  0  0  0  0  0  0  0  0  0  0
    0.9424   -0.3811    1.2401 C   0  0  0  0  0  0  0  0  0  0  0  0
    0.9596   -0.3194   -1.2723 C   0  0  0  0  0  0  0  0  0  0  0  0
    1.8349    1.6379    0.0385 C   0  0  0  0  0  0  0  0  0  0  0  0
    2.5280   -1.8412   -0.0420 C   0  0  0  0  0  0  0  0  0  0  0  0
    3.4013    0.1117    1.2661 C   0  0  0  0  0  0  0  0  0  0  0  0
    3.4185    0.1732   -1.2405 C   0  0  0  0  0  0  0  0  0  0  0  0
   -0.6439    1.1523    0.0098 C   0  0  0  0  0  0  0  0  0  0  0  0
   -1.7237    0.0759    0.0147 C   0  0  0  0  0  0  0  0  0  0  0  0
   -3.1202    0.7007   -0.0107 C   0  0  0  0  0  0  0  0  0  0  0  0
   -4.2064   -0.3729    0.0299 C   0  0  0  0  0  0  0  0  0  0  0  0
   -6.5727   -0.7723   -0.0111 C   0  0  0  0  0  0  0  0  0  0  0  0
  1 15  1  0
  1 16  1  0
  2  6  1  0
  2  7  1  0
  2  8  1  0
  2 12  1  0
  3  6  1  0
  3  9  1  0
  3 10  1  0
  4  7  1  0
  4  9  1  0
  4 11  1  0
  5  8  1  0
  5 10  1  0
  5 11  1  0
 12 13  1  0
 13 14  1  0
 14 15  1  0
M  END
>  <PUBCHEM_COMPOUND_CID>  (1) 
40431

>  <PUBCHEM_CONFORMER_RMSD>  (1) 
0.8

>  <PUBCHEM_CONFORMER_DIVERSEORDER>  (1) 
1
2
3

>  <PUBCHEM_MMFF94_PARTIAL_CHARGES>  (1) 
4
1 -0.9
15 0.27
16 0.27
40 0.36

>  <PUBCHEM_EFFECTIVE_ROTOR_COUNT>  (1) 
6.2

>  <PUBCHEM_PHARMACOPHORE_FEATURES>  (1) 
6
1 1 cation
1 1 donor
6 2 3 4 6 7 9 rings
6 2 3 5 6 8 10 rings
6 2 4 5 7 8 11 rings
6 3 4 5 9 10 11 rings

>  <PUBCHEM_HEAVY_ATOM_COUNT>  (1) 
16

>  <PUBCHEM_ATOM_DEF_STEREO_COUNT>  (1) 
0

>  <PUBCHEM_ATOM_UDEF_STEREO_COUNT>  (1) 
0

>  <PUBCHEM_BOND_DEF_STEREO_COUNT>  (1) 
0

>  <PUBCHEM_BOND_UDEF_STEREO_COUNT>  (1) 
0

>  <PUBCHEM_ISOTOPIC_ATOM_COUNT>  (1) 
0

>  <PUBCHEM_COMPONENT_COUNT>  (1) 
1

>  <PUBCHEM_CACTVS_TAUTO_COUNT>  (1) 
1

>  <PUBCHEM_CONFORMER_ID>  (1) 
00009DEF00000001

>  <PUBCHEM_MMFF94_ENERGY>  (1) 
30.7185

>  <PUBCHEM_FEATURE_SELFOVERLAP>  (1) 
42.962

>  <PUBCHEM_SHAPE_FINGERPRINT>  (1) 
12616999 72 18334584529101112398
13464513 79 18201721764540820596
14252887 29 18272373066058602313
15061688 2 14274890813318003950
16945 1 18411134736809747052
17834072 33 18336545006179216805
20645477 70 18334575716081584175
23402655 69 12757155679657192711
23557571 272 17023175007709449293
239999 70 18343308088567880510
3060560 45 18412552024213945982
427121 178 17060323146389057994
4340502 62 17418086650518091578
465052 167 18130794447081916327
5104073 3 17846220991064771747
522135 26 18407760326648942123
5281201 14 15502648261713467119
5374978 207 16271927104089004475
54040823 5 18341897389643254138
7164475 11 17023738992676161973

>  <PUBCHEM_SHAPE_MULTIPOLES>  (1) 
324.29
10.39
1.39
1.21
25.15
0.08
-0.01
1.83
-0.03
-0.91
0.01
-1.32
0.24
0

>  <PUBCHEM_SHAPE_SELFOVERLAP>  (1) 
672.996

>  <PUBCHEM_SHAPE_VOLUME>  (1) 
179.3

>  <PUBCHEM_COORDINATE_TYPE>  (1) 
2
5
10

$$$$
