40433
     RDKit          3D

 17 19  0  0  0  0  0  0  0  0999 V2000
   -5.1886    0.0770    0.2335 N   0  0  0  0  0  0  0  0  0  0  0  0
    1.0774   -0.4655    0.1889 C   0  0  0  0  0  0  0  0  0  0  0  0
    2.6799    0.5130   -1.5137 C   0  0  0  0  0  0  0  0  0  0  0  0
    2.7758    1.2830    0.8840 C   0  0  0  0  0  0  0  0  0  0  0  0
    3.5452   -1.0380    0.2742 C   0  0  0  0  0  0  0  0  0  0  0  0
    1.2552   -0.0202   -1.2820 C   0  0  0  0  0  0  0  0  0  0  0  0
    1.3509    0.7477    1.1091 C   0  0  0  0  0  0  0  0  0  0  0  0
    2.1182   -1.5668    0.5012 C   0  0  0  0  0  0  0  0  0  0  0  0
    2.9288    1.7127   -0.5846 C   0  0  0  0  0  0  0  0  0  0  0  0
    3.6943   -0.5968   -1.1913 C   0  0  0  0  0  0  0  0  0  0  0  0
    3.7898    0.1694    1.1944 C   0  0  0  0  0  0  0  0  0  0  0  0
   -0.3410   -0.9953    0.4158 C   0  0  0  0  0  0  0  0  0  0  0  0
   -1.3839    0.0638    0.0767 C   0  0  0  0  0  0  0  0  0  0  0  0
   -2.7989   -0.4587    0.3338 C   0  0  0  0  0  0  0  0  0  0  0  0
   -3.8495    0.5863   -0.0379 C   0  0  0  0  0  0  0  0  0  0  0  0
   -5.4583   -1.1172   -0.5691 C   0  0  0  0  0  0  0  0  0  0  0  0
   -6.1954    1.1057   -0.0330 C   0  0  0  0  0  0  0  0  0  0  0  0
  1 15  1  0
  1 16  1  0
  1 17  1  0
  2  6  1  0
  2  7  1  0
  2  8  1  0
  2 12  1  0
  3  6  1  0
  3  9  1  0
  3 10  1  0
  4  7  1  0
  4  9  1  0
  4 11  1  0
  5  8  1  0
  5 10  1  0
  5 11  1  0
 12 13  1  0
 13 14  1  0
 14 15  1  0
M  END
>  <PUBCHEM_COMPOUND_CID>  (1) 
40433

>  <PUBCHEM_CONFORMER_RMSD>  (1) 
0.8

>  <PUBCHEM_CONFORMER_DIVERSEORDER>  (1) 
1
2

>  <PUBCHEM_MMFF94_PARTIAL_CHARGES>  (1) 
4
1 -0.81
15 0.27
16 0.27
17 0.27

>  <PUBCHEM_EFFECTIVE_ROTOR_COUNT>  (1) 
6.2

>  <PUBCHEM_PHARMACOPHORE_FEATURES>  (1) 
5
1 1 cation
6 2 3 4 6 7 9 rings
6 2 3 5 6 8 10 rings
6 2 4 5 7 8 11 rings
6 3 4 5 9 10 11 rings

>  <PUBCHEM_HEAVY_ATOM_COUNT>  (1) 
17

>  <PUBCHEM_ATOM_DEF_STEREO_COUNT>  (1) 
0

>  <PUBCHEM_ATOM_UDEF_STEREO_COUNT>  (1) 
0

>  <PUBCHEM_BOND_DEF_STEREO_COUNT>  (1) 
0

>  <PUBCHEM_BOND_UDEF_STEREO_COUNT>  (1) 
0

>  <PUBCHEM_ISOTOPIC_ATOM_COUNT>  (1) 
0

>  <PUBCHEM_COMPONENT_COUNT>  (1) 
1

>  <PUBCHEM_CACTVS_TAUTO_COUNT>  (1) 
1

>  <PUBCHEM_CONFORMER_ID>  (1) 
00009DF100000001

>  <PUBCHEM_MMFF94_ENERGY>  (1) 
40.6737

>  <PUBCHEM_FEATURE_SELFOVERLAP>  (1) 
37.888

>  <PUBCHEM_SHAPE_FINGERPRINT>  (1) 
11287383 113 17561080337086998259
128620 24 16487256577953519115
13024252 1 9116227898089582474
13167823 11 18342171181345952615
13955234 65 13045943512731633028
14528608 73 18410291437171407975
15788980 27 18131913763136027791
16945 1 18261684709868366906
17834072 33 18409448107463392991
17844677 252 18131073749358952617
18186145 218 18342459231500387731
20645477 70 16702311139018829494
212847 35 18260550017356451665
21503847 285 16515410672256618732
23402539 116 18202273702530326269
23402655 69 18411421734565748303
23557571 272 16486976133405060705
23559900 14 17240772769545695354
29717793 49 16630529501499694681
3060560 45 17060341833490887868
4047638 21 18334577953627319450
4990 188 17989492922267552159
5104073 3 17240489156039223049
522135 26 18114183020934946314
5281201 14 18113897109457414359
5374978 207 13551187797170428709
54040823 5 16128659669521868242
542803 24 17676207962122085149
633830 44 18187081788882022359
7495541 125 18060133288819684523

>  <PUBCHEM_SHAPE_MULTIPOLES>  (1) 
344.87
11.73
1.42
1.22
23.77
0.09
0.22
1.16
0.72
-0.48
-0.05
-1.3
0.12
-0.17

>  <PUBCHEM_SHAPE_SELFOVERLAP>  (1) 
714.521

>  <PUBCHEM_SHAPE_VOLUME>  (1) 
192.5

>  <PUBCHEM_COORDINATE_TYPE>  (1) 
2
5
10

$$$$
