40437
     RDKit          3D

 15 17  0  0  1  0  0  0  0  0999 V2000
   -0.2637   -2.6676   -0.0849 Cl  0  0  0  0  0  0  0  0  0  0  0  0
   -3.9428    0.1821    0.3857 N   0  0  0  0  0  0  0  0  0  0  0  0
   -0.1454    0.0745    0.4711 C   0  0  0  0  0  0  0  0  0  0  0  0
    1.5847   -0.9144   -1.1047 C   0  0  0  0  0  0  0  0  0  0  0  0
    1.5615    1.5724   -0.6791 C   0  0  0  0  0  0  0  0  0  0  0  0
    2.3054   -0.0040    1.1363 C   0  0  0  0  0  0  0  0  0  0  0  0
    0.1174   -0.9995   -0.6263 C   0  0  0  0  0  0  0  0  0  0  0  0
    0.1142    1.4666   -0.1692 C   0  0  0  0  0  0  0  0  0  0  0  0
    0.8552   -0.1047    1.6415 C   0  0  0  0  0  0  0  0  0  0  0  0
    1.8146    0.4762   -1.7269 C   0  0  0  0  0  0  0  0  0  0  0  0
    2.5597   -1.0882    0.0768 C   0  0  0  0  0  0  0  0  0  0  0  0
    2.5255    1.3789    0.5021 C   0  0  0  0  0  0  0  0  0  0  0  0
   -1.5874    0.0301    0.9961 C   0  0  0  0  0  0  0  0  0  0  0  0
   -2.5832    0.2111   -0.1399 C   0  0  0  0  0  0  0  0  0  0  0  0
   -4.9155    0.3865   -0.6786 C   0  0  0  0  0  0  0  0  0  0  0  0
  1  7  1  0
  2 14  1  0
  2 15  1  0
  3  7  1  0
  3  8  1  0
  3  9  1  0
  3 13  1  0
  4  7  1  0
  4 10  1  0
  4 11  1  0
  5  8  1  0
  5 10  1  0
  5 12  1  0
  6  9  1  0
  6 11  1  0
  6 12  1  0
 13 14  1  0
M  END
>  <PUBCHEM_COMPOUND_CID>  (1) 
40437

>  <PUBCHEM_CONFORMER_RMSD>  (1) 
0.6

>  <PUBCHEM_CONFORMER_DIVERSEORDER>  (1) 
2
6
5
3
1
4

>  <PUBCHEM_MMFF94_PARTIAL_CHARGES>  (1) 
6
1 -0.29
14 0.27
15 0.27
2 -0.9
34 0.36
7 0.29

>  <PUBCHEM_EFFECTIVE_ROTOR_COUNT>  (1) 
4.2

>  <PUBCHEM_PHARMACOPHORE_FEATURES>  (1) 
6
1 2 cation
1 2 donor
6 3 4 5 7 8 10 rings
6 3 4 6 7 9 11 rings
6 3 5 6 8 9 12 rings
6 4 5 6 10 11 12 rings

>  <PUBCHEM_HEAVY_ATOM_COUNT>  (1) 
15

>  <PUBCHEM_ATOM_DEF_STEREO_COUNT>  (1) 
0

>  <PUBCHEM_ATOM_UDEF_STEREO_COUNT>  (1) 
3

>  <PUBCHEM_BOND_DEF_STEREO_COUNT>  (1) 
0

>  <PUBCHEM_BOND_UDEF_STEREO_COUNT>  (1) 
0

>  <PUBCHEM_ISOTOPIC_ATOM_COUNT>  (1) 
0

>  <PUBCHEM_COMPONENT_COUNT>  (1) 
1

>  <PUBCHEM_CACTVS_TAUTO_COUNT>  (1) 
1

>  <PUBCHEM_CONFORMER_ID>  (1) 
00009DF500000002

>  <PUBCHEM_MMFF94_ENERGY>  (1) 
36.1718

>  <PUBCHEM_FEATURE_SELFOVERLAP>  (1) 
42.901

>  <PUBCHEM_SHAPE_FINGERPRINT>  (1) 
10219947 1 18410852148945812081
10863032 1 18198902707301239672
10948715 1 18122905588744557336
11680611 10 18045492264740577282
12138202 97 17986960854051808054
12423570 1 16254671441785832948
12654215 9 17894349964696848245
12725867 57 18337394833809111068
13024252 1 15364116278009186120
13134695 92 17895181169532883956
13380536 243 18336279984642118118
13380536 305 18411146843604993439
14344429 50 17458344143308343096
14817 1 13451932859833627052
14993402 34 18410302393258563606
15775835 57 18041562554284689469
15852999 172 18059576939814538242
16945 1 18058472983322567026
18186145 218 18272101491297915927
21452121 99 18197219354593543275
22892500 29 16515682251844879159
23402539 116 18272076232115505637
23419403 2 17681805459538783182
23559900 14 17984450631443283964
257057 1 17400639320936433699
2748010 2 18126024859918953046
3060560 45 18409727353061927039
5084963 1 18059301958949341250
528886 8 18340215166827837628
5337951 7 17095527300764536832
54040823 5 15482665805898531687

>  <PUBCHEM_SHAPE_MULTIPOLES>  (1) 
305.58
5.49
1.81
1.36
9.4
0.9
-0.02
-1.31
-0.54
-0.66
-0.25
-0.63
-0.07
0.06

>  <PUBCHEM_SHAPE_SELFOVERLAP>  (1) 
635.039

>  <PUBCHEM_SHAPE_VOLUME>  (1) 
175.8

>  <PUBCHEM_COORDINATE_TYPE>  (1) 
2
5
10

$$$$
