4044
     RDKit          3D

 18 19  0  0  0  0  0  0  0  0999 V2000
    3.6687    2.2790   -0.1329 O   0  0  0  0  0  0  0  0  0  0  0  0
    1.6167    2.2850   -1.0887 O   0  0  0  0  0  0  0  0  0  0  0  0
    0.0318    0.3523    0.1656 N   0  0  0  0  0  0  0  0  0  0  0  0
   -2.3804    0.6045    0.4483 C   0  0  0  0  0  0  0  0  0  0  0  0
   -1.2848   -0.0574   -0.1133 C   0  0  0  0  0  0  0  0  0  0  0  0
   -3.6783    0.1814    0.1612 C   0  0  0  0  0  0  0  0  0  0  0  0
    1.2565   -0.3487    0.2338 C   0  0  0  0  0  0  0  0  0  0  0  0
   -1.4977   -1.1458   -0.9640 C   0  0  0  0  0  0  0  0  0  0  0  0
   -3.8857   -0.9053   -0.6885 C   0  0  0  0  0  0  0  0  0  0  0  0
   -2.1623    1.7720    1.3587 C   0  0  0  0  0  0  0  0  0  0  0  0
   -2.7955   -1.5687   -1.2512 C   0  0  0  0  0  0  0  0  0  0  0  0
    2.4607    0.2809   -0.0817 C   0  0  0  0  0  0  0  0  0  0  0  0
   -4.8633    0.8752    0.7488 C   0  0  0  0  0  0  0  0  0  0  0  0
    1.2510   -1.6881    0.6234 C   0  0  0  0  0  0  0  0  0  0  0  0
    3.6592   -0.4290   -0.0075 C   0  0  0  0  0  0  0  0  0  0  0  0
    2.4496   -2.3979    0.6976 C   0  0  0  0  0  0  0  0  0  0  0  0
    3.6534   -1.7684    0.3822 C   0  0  0  0  0  0  0  0  0  0  0  0
    2.5005    1.6789   -0.4920 C   0  0  0  0  0  0  0  0  0  0  0  0
  1 18  1  0
  2 18  2  0
  3  5  1  0
  3  7  1  0
  4  5  2  0
  4  6  1  0
  4 10  1  0
  5  8  1  0
  6  9  2  0
  6 13  1  0
  7 12  2  0
  7 14  1  0
  8 11  2  0
  9 11  1  0
 12 15  1  0
 12 18  1  0
 14 16  2  0
 15 17  2  0
 16 17  1  0
M  END
>  <PUBCHEM_COMPOUND_CID>  (1) 
4044

>  <PUBCHEM_CONFORMER_RMSD>  (1) 
0.6

>  <PUBCHEM_CONFORMER_DIVERSEORDER>  (1) 
1
7
11
5
2
8
10
6
9
3
4

>  <PUBCHEM_MMFF94_PARTIAL_CHARGES>  (1) 
27
1 -0.65
10 0.14
11 -0.15
12 0.09
13 0.14
14 -0.15
15 -0.15
16 -0.15
17 -0.15
18 0.63
19 0.4
2 -0.57
20 0.15
21 0.15
25 0.15
29 0.15
3 -0.6
30 0.15
31 0.15
32 0.15
33 0.5
4 -0.14
5 0.1
6 -0.14
7 0.1
8 -0.15
9 -0.15

>  <PUBCHEM_EFFECTIVE_ROTOR_COUNT>  (1) 
3

>  <PUBCHEM_PHARMACOPHORE_FEATURES>  (1) 
7
1 1 acceptor
1 2 acceptor
1 3 cation
1 3 donor
3 1 2 18 anion
6 4 5 6 8 9 11 rings
6 7 12 14 15 16 17 rings

>  <PUBCHEM_HEAVY_ATOM_COUNT>  (1) 
18

>  <PUBCHEM_ATOM_DEF_STEREO_COUNT>  (1) 
0

>  <PUBCHEM_ATOM_UDEF_STEREO_COUNT>  (1) 
0

>  <PUBCHEM_BOND_DEF_STEREO_COUNT>  (1) 
0

>  <PUBCHEM_BOND_UDEF_STEREO_COUNT>  (1) 
0

>  <PUBCHEM_ISOTOPIC_ATOM_COUNT>  (1) 
0

>  <PUBCHEM_COMPONENT_COUNT>  (1) 
1

>  <PUBCHEM_CACTVS_TAUTO_COUNT>  (1) 
2

>  <PUBCHEM_CONFORMER_ID>  (1) 
00000FCC00000001

>  <PUBCHEM_MMFF94_ENERGY>  (1) 
72.9964

>  <PUBCHEM_FEATURE_SELFOVERLAP>  (1) 
35.58

>  <PUBCHEM_SHAPE_FINGERPRINT>  (1) 
10062212 137 18201995534800038791
10616163 171 18272368706709781135
11578080 2 18054755512665845065
12236239 1 18343584023063120402
12251169 10 18341894030863011351
12553582 1 18117831106317381202
13009979 54 18129665184263186194
13538477 17 18202279212704426047
13583140 156 17896608289240992081
14115302 16 17989204819839916211
15342168 16 17823429377161501157
15375462 189 18343303703923177563
15442244 35 18267866090576309608
15536298 74 18342174488222376380
15669948 3 17846493777217205591
16752209 62 17632283606327085831
17492 89 18413390925674580679
1813 80 18121226381228603302
18186145 218 18040992955616496247
19050596 39 18413106164899409531
19422 9 18342172293357301967
200 152 18340759391056339663
20233049 118 17632574924941155122
20559304 39 18341613689899922912
20645477 70 18335696139625627759
20715895 44 17909549455211827137
21267235 1 18340495477721166171
221490 88 18261117408554457906
2255824 54 18334858333667165270
22854114 111 18335704961472304460
23402539 116 17560506302023537053
23463225 33 18342173332602127079
23557571 272 16558476275095458128
23559900 14 17274833428076840204
23598288 3 18059572542353648687
23598291 2 18413109433380006446
3082319 5 18343864450094191031
312423 11 18341623615511470935
474 4 18188772884862502076
5104073 3 18413107281796726427
58051976 100 18411139100153576711
603831 33 18129369578601231679
6049 1 17168418277461486207
67856867 119 18341884243012430232
6992083 37 18125163723307768400
7097593 13 18197494026262916435
7364860 26 18411135844710667482
7615 1 18343013389397278257
77492 1 18343300374970081991
84936 182 18198903806681681080
90525 40 18131349683289937087
9981440 41 17762891465775427320

>  <PUBCHEM_SHAPE_MULTIPOLES>  (1) 
353.71
8.4
2.41
1.05
3.23
0.44
0.03
0.18
-0.58
-1.91
0.11
0.48
0.03
-1.95

>  <PUBCHEM_SHAPE_SELFOVERLAP>  (1) 
761.581

>  <PUBCHEM_SHAPE_VOLUME>  (1) 
195.5

>  <PUBCHEM_COORDINATE_TYPE>  (1) 
2
5
10

$$$$
