40445
     RDKit          3D

 21 24  0  0  1  0  0  0  0  0999 V2000
   -4.1059   -2.1491    0.5596 N   0  0  0  0  0  0  0  0  0  0  0  0
    0.5909   -0.9058   -0.4918 C   0  0  0  0  0  0  0  0  0  0  0  0
    2.0589    0.4731    1.0681 C   0  0  0  0  0  0  0  0  0  0  0  0
    0.6021    0.2395    0.5793 C   0  0  0  0  0  0  0  0  0  0  0  0
    2.5105   -2.0002    0.7904 C   0  0  0  0  0  0  0  0  0  0  0  0
    3.0109   -0.4193   -1.0973 C   0  0  0  0  0  0  0  0  0  0  0  0
    1.0862   -2.1960    0.2341 C   0  0  0  0  0  0  0  0  0  0  0  0
    1.5901   -0.6357   -1.6431 C   0  0  0  0  0  0  0  0  0  0  0  0
    2.5315   -0.8172    1.7755 C   0  0  0  0  0  0  0  0  0  0  0  0
    3.0226    0.7500   -0.1007 C   0  0  0  0  0  0  0  0  0  0  0  0
    3.4656   -1.6974   -0.3742 C   0  0  0  0  0  0  0  0  0  0  0  0
   -0.8146   -1.1579   -1.0531 C   0  0  0  0  0  0  0  0  0  0  0  0
   -0.1613    1.5286    0.2907 C   0  0  0  0  0  0  0  0  0  0  0  0
   -1.7849   -1.5430    0.0570 C   0  0  0  0  0  0  0  0  0  0  0  0
   -0.8940    2.1381    1.3041 C   0  0  0  0  0  0  0  0  0  0  0  0
   -0.1184    2.0854   -0.9835 C   0  0  0  0  0  0  0  0  0  0  0  0
   -3.1885   -1.7612   -0.5052 C   0  0  0  0  0  0  0  0  0  0  0  0
   -1.5917    3.3167    1.0404 C   0  0  0  0  0  0  0  0  0  0  0  0
   -0.8161    3.2642   -1.2471 C   0  0  0  0  0  0  0  0  0  0  0  0
   -1.5528    3.8797   -0.2350 C   0  0  0  0  0  0  0  0  0  0  0  0
   -5.4411   -2.3924    0.0318 C   0  0  0  0  0  0  0  0  0  0  0  0
  1 17  1  0
  1 21  1  0
  2  4  1  0
  2  7  1  0
  2  8  1  0
  2 12  1  0
  3  4  1  0
  3  9  1  0
  3 10  1  0
  4 13  1  0
  5  7  1  0
  5  9  1  0
  5 11  1  0
  6  8  1  0
  6 10  1  0
  6 11  1  0
 12 14  1  0
 13 15  2  0
 13 16  1  0
 14 17  1  0
 15 18  1  0
 16 19  2  0
 18 20  2  0
 19 20  1  0
M  END
>  <PUBCHEM_COMPOUND_CID>  (1) 
40445

>  <PUBCHEM_CONFORMER_RMSD>  (1) 
0.8

>  <PUBCHEM_CONFORMER_DIVERSEORDER>  (1) 
1
8
4
5
2
3
6
7

>  <PUBCHEM_MMFF94_PARTIAL_CHARGES>  (1) 
16
1 -0.9
13 -0.14
15 -0.15
16 -0.15
17 0.27
18 -0.15
19 -0.15
20 -0.15
21 0.27
4 0.14
40 0.15
41 0.15
44 0.15
45 0.15
46 0.36
47 0.15

>  <PUBCHEM_EFFECTIVE_ROTOR_COUNT>  (1) 
6.2

>  <PUBCHEM_PHARMACOPHORE_FEATURES>  (1) 
7
1 1 cation
1 1 donor
6 13 15 16 18 19 20 rings
6 2 3 4 5 7 9 rings
6 2 3 4 6 8 10 rings
6 2 5 6 7 8 11 rings
6 3 5 6 9 10 11 rings

>  <PUBCHEM_HEAVY_ATOM_COUNT>  (1) 
21

>  <PUBCHEM_ATOM_DEF_STEREO_COUNT>  (1) 
0

>  <PUBCHEM_ATOM_UDEF_STEREO_COUNT>  (1) 
3

>  <PUBCHEM_BOND_DEF_STEREO_COUNT>  (1) 
0

>  <PUBCHEM_BOND_UDEF_STEREO_COUNT>  (1) 
0

>  <PUBCHEM_ISOTOPIC_ATOM_COUNT>  (1) 
0

>  <PUBCHEM_COMPONENT_COUNT>  (1) 
1

>  <PUBCHEM_CACTVS_TAUTO_COUNT>  (1) 
1

>  <PUBCHEM_CONFORMER_ID>  (1) 
00009DFD00000001

>  <PUBCHEM_MMFF94_ENERGY>  (1) 
64.134

>  <PUBCHEM_FEATURE_SELFOVERLAP>  (1) 
47.92

>  <PUBCHEM_SHAPE_FINGERPRINT>  (1) 
10064457 181 17694511351073487568
104564 63 18341897350888419119
10863032 1 18125718990261133046
108634 29 18197767809538126287
11680611 10 18043797698563445154
12035759 4 18189921818584079748
121448 382 17691941805505888053
12553582 1 18340196518207049719
12788726 201 18335420158075612634
13134695 92 18268419312750831983
13140716 1 18340197518997174531
13149001 5 16906957504658277103
13681431 1 18121507014058855617
13878862 14 18049421928980083327
14790565 3 17761775469852691625
14955137 171 17836653289634448744
15210252 30 18115031929964072437
15309172 13 17618505376636911136
15420108 30 17268048564885775056
1601671 61 18126566962063819453
16945 1 17691398612886980458
17357779 13 18272639148183812685
18785283 64 17685214276444855603
21285901 2 17845116050240007942
21452121 99 18051972524138836628
22182313 1 17703213020062521690
2255824 54 17832984223796683327
23558518 356 18189337866456747890
3052486 1 18337121072830975825
3380486 145 17839703227410261007
350125 39 18413388718524847632
394222 165 16734108036674628852
5283268 108 18341053003658056235
5939293 188 17980194511097288083
70251023 43 18411430505126895714
7164475 11 18337116665899449582
81228 2 18338227168242767993
8509985 295 18337107960554608799
9981440 41 16477897491954494746

>  <PUBCHEM_SHAPE_MULTIPOLES>  (1) 
427.19
6.13
4.39
1.41
5.23
3.49
-0.04
-6.54
-0.43
5.27
0.01
-0.6
0.34
-0.12

>  <PUBCHEM_SHAPE_SELFOVERLAP>  (1) 
916.405

>  <PUBCHEM_SHAPE_VOLUME>  (1) 
230.3

>  <PUBCHEM_COORDINATE_TYPE>  (1) 
2
5
10

$$$$
