40459
     RDKit          3D

 27 28  0  0  1  0  0  0  0  0999 V2000
   -0.2040    3.4532   -1.2570 O   0  0  0  0  0  0  0  0  0  0  0  0
   -4.0732   -1.1106   -1.8942 O   0  0  0  0  0  0  0  0  0  0  0  0
   -6.1203   -1.3220   -0.9426 O   0  0  0  0  0  0  0  0  0  0  0  0
    3.1196   -1.1063   -0.1174 N   0  0  0  0  0  0  0  0  0  0  0  0
   -1.4556    1.9176   -0.2056 N   0  0  0  0  0  0  0  0  0  0  0  0
   -3.6760    1.6125   -0.2456 N   0  0  0  0  0  0  0  0  0  0  0  0
   -4.9404   -2.5930    1.2068 N   0  0  0  0  0  0  0  0  0  0  0  0
    2.3104   -2.2302    0.3066 C   0  0  0  0  0  0  0  0  0  0  0  0
    4.3347   -1.3510   -0.8669 C   0  0  0  0  0  0  0  0  0  0  0  0
    2.7212    0.2145    0.1846 C   0  0  0  0  0  0  0  0  0  0  0  0
    2.1204   -2.2182    1.8199 C   0  0  0  0  0  0  0  0  0  0  0  0
    4.0231   -2.0417   -2.1904 C   0  0  0  0  0  0  0  0  0  0  0  0
    3.5359    1.0479    0.9509 C   0  0  0  0  0  0  0  0  0  0  0  0
    1.4970    0.6828   -0.2927 C   0  0  0  0  0  0  0  0  0  0  0  0
    1.0877    1.9846   -0.0040 C   0  0  0  0  0  0  0  0  0  0  0  0
    3.1265    2.3497    1.2398 C   0  0  0  0  0  0  0  0  0  0  0  0
    1.9024    2.8182    0.7623 C   0  0  0  0  0  0  0  0  0  0  0  0
    1.2375   -3.3564    2.3131 C   0  0  0  0  0  0  0  0  0  0  0  0
    5.2648   -2.2815   -3.0380 C   0  0  0  0  0  0  0  0  0  0  0  0
    4.8518    0.5726    1.4753 C   0  0  0  0  0  0  0  0  0  0  0  0
   -0.2073    2.4805   -0.5084 C   0  0  0  0  0  0  0  0  0  0  0  0
   -3.9273   -0.3619    1.2582 C   0  0  0  0  0  0  0  0  0  0  0  0
   -3.0922    0.6717    0.5553 C   0  0  0  0  0  0  0  0  0  0  0  0
   -1.7271    0.8298    0.5921 C   0  0  0  0  0  0  0  0  0  0  0  0
   -4.1340   -1.6425    0.4365 C   0  0  0  0  0  0  0  0  0  0  0  0
   -2.6755    2.3365   -0.6940 C   0  0  0  0  0  0  0  0  0  0  0  0
   -4.9001   -1.3570   -0.8445 C   0  0  0  0  0  0  0  0  0  0  0  0
  1 21  2  0
  2 27  1  0
  3 27  2  0
  4  8  1  0
  4  9  1  0
  4 10  1  0
  5 21  1  0
  5 24  1  0
  5 26  1  0
  6 23  1  0
  6 26  2  0
  7 25  1  0
  8 11  1  0
  9 12  1  0
 10 13  2  0
 10 14  1  0
 11 18  1  0
 12 19  1  0
 13 16  1  0
 13 20  1  0
 14 15  2  0
 15 17  1  0
 15 21  1  0
 16 17  2  0
 22 23  1  0
 22 25  1  0
 23 24  2  0
 25 27  1  0
M  END
>  <PUBCHEM_COMPOUND_CID>  (1) 
40459

>  <PUBCHEM_CONFORMER_RMSD>  (1) 
1

>  <PUBCHEM_CONFORMER_DIVERSEORDER>  (1) 
21
93
9
26
94
109
20
78
24
53
1
44
92
64
45
23
19
75
42
31
84
65
48
18
66
3
68
50
16
107
61
58
52
97
60
40
99
62
30
2
51
57
106
22
101
35
83
11
98
91
71
36
77
105
59
13
72
85
56
32
43
33
46
89
49
67
90
27
70
34
41
28
86
104
25
96
29
103
76
63
80
81
54
88
7
15
87
73
5
69
14
39
38
4
79
55
37
100
8
95
6
82
74
47
10
17
102
12
108

>  <PUBCHEM_MMFF94_PARTIAL_CHARGES>  (1) 
31
1 -0.57
10 0.1
13 -0.14
14 -0.15
15 0.09
16 -0.15
17 -0.15
2 -0.65
20 0.14
21 0.49
22 0.18
23 0.05
24 -0.3
25 0.33
26 0.04
27 0.66
3 -0.57
36 0.15
37 0.15
38 0.15
4 -0.84
5 0.29
50 0.15
52 0.15
53 0.36
54 0.36
55 0.5
6 -0.57
7 -0.99
8 0.37
9 0.37

>  <PUBCHEM_EFFECTIVE_ROTOR_COUNT>  (1) 
10

>  <PUBCHEM_PHARMACOPHORE_FEATURES>  (1) 
11
1 1 acceptor
1 18 hydrophobe
1 19 hydrophobe
1 2 acceptor
1 3 acceptor
1 4 cation
1 7 cation
1 7 donor
3 2 3 27 anion
5 5 6 23 24 26 rings
6 10 13 14 15 16 17 rings

>  <PUBCHEM_HEAVY_ATOM_COUNT>  (1) 
27

>  <PUBCHEM_ATOM_DEF_STEREO_COUNT>  (1) 
0

>  <PUBCHEM_ATOM_UDEF_STEREO_COUNT>  (1) 
1

>  <PUBCHEM_BOND_DEF_STEREO_COUNT>  (1) 
0

>  <PUBCHEM_BOND_UDEF_STEREO_COUNT>  (1) 
0

>  <PUBCHEM_ISOTOPIC_ATOM_COUNT>  (1) 
0

>  <PUBCHEM_COMPONENT_COUNT>  (1) 
1

>  <PUBCHEM_CACTVS_TAUTO_COUNT>  (1) 
1

>  <PUBCHEM_CONFORMER_ID>  (1) 
00009E0B00000015

>  <PUBCHEM_MMFF94_ENERGY>  (1) 
64.8952

>  <PUBCHEM_FEATURE_SELFOVERLAP>  (1) 
55.878

>  <PUBCHEM_SHAPE_FINGERPRINT>  (1) 
108634 29 18335145344851771018
10928967 22 18337681831961355147
114674 6 18335136543951584970
12553582 1 18114473296542246497
12596599 1 18128821854306829370
12623949 98 17917160480092039926
13533116 47 18130506457156489649
13583140 156 17203030968097851793
13911882 115 18343864424878288312
14251740 57 18202006559406120255
14251764 30 17630341752849441798
14681488 357 18272377464084281014
14950920 106 15626501688035763639
15537594 2 18189631440261139035
17138139 8 18189345563513305146
17909252 39 17845106090933280998
20511986 3 17844511401023861829
20775530 9 18410300177029013225
21197605 99 17835240421288037107
21315759 227 17968932132354148539
22393880 68 18337953368314489006
23559900 14 18059288760536446337
463206 1 18122617512566552227
508706 21 18260833691593808067
613672 6 18336258046313030395
6823239 73 18199751358437207298
7918774 8 17273154396907376470
86090 222 18115593784790822819
9709674 26 18409165532511038961

>  <PUBCHEM_SHAPE_MULTIPOLES>  (1) 
518.12
11.96
4.19
2.11
8.97
0.38
0.66
-8.49
3.68
-0.99
-0.24
-2.47
-1.98
2.46

>  <PUBCHEM_SHAPE_SELFOVERLAP>  (1) 
1074.048

>  <PUBCHEM_SHAPE_VOLUME>  (1) 
297.9

>  <PUBCHEM_COORDINATE_TYPE>  (1) 
2
5
10

$$$$
