40455
     RDKit          3D

 21 21  0  0  0  0  0  0  0  0999 V2000
    3.9461   -1.3706    3.4446 Cl  0  0  0  0  0  0  0  0  0  0  0  0
    2.1524   -3.4339   -2.6289 Cl  0  0  0  0  0  0  0  0  0  0  0  0
   -2.8750    1.7532    1.0569 O   0  0  0  0  0  0  0  0  0  0  0  0
   -4.2281   -0.6161   -1.2680 O   0  0  0  0  0  0  0  0  0  0  0  0
   -5.8530   -1.4571    0.0738 O   0  0  0  0  0  0  0  0  0  0  0  0
    2.5977   -0.2460   -0.1913 N   0  0  0  0  0  0  0  0  0  0  0  0
   -2.4160   -0.4750    0.6087 N   0  0  0  0  0  0  0  0  0  0  0  0
    1.5475    0.6963   -0.2531 C   0  0  0  0  0  0  0  0  0  0  0  0
    3.4547   -0.3116    0.9746 C   0  0  0  0  0  0  0  0  0  0  0  0
    2.8380   -1.1481   -1.2988 C   0  0  0  0  0  0  0  0  0  0  0  0
    1.7636    1.9723   -0.7735 C   0  0  0  0  0  0  0  0  0  0  0  0
    0.2828    0.3386    0.2141 C   0  0  0  0  0  0  0  0  0  0  0  0
   -0.7659    1.2567    0.1606 C   0  0  0  0  0  0  0  0  0  0  0  0
    0.7150    2.8905   -0.8267 C   0  0  0  0  0  0  0  0  0  0  0  0
    2.8945   -1.2739    2.0101 C   0  0  0  0  0  0  0  0  0  0  0  0
    1.8730   -2.3227   -1.2650 C   0  0  0  0  0  0  0  0  0  0  0  0
   -0.5499    2.5327   -0.3598 C   0  0  0  0  0  0  0  0  0  0  0  0
    3.1079    2.3825   -1.2806 C   0  0  0  0  0  0  0  0  0  0  0  0
   -2.0847    0.8844    0.6477 C   0  0  0  0  0  0  0  0  0  0  0  0
   -3.6941   -0.9984    1.0346 C   0  0  0  0  0  0  0  0  0  0  0  0
   -4.7066   -1.0536   -0.0801 C   0  0  0  0  0  0  0  0  0  0  0  0
  1 15  1  0
  2 16  1  0
  3 19  2  0
  4 21  1  0
  5 21  2  0
  6  8  1  0
  6  9  1  0
  6 10  1  0
  7 19  1  0
  7 20  1  0
  8 11  2  0
  8 12  1  0
  9 15  1  0
 10 16  1  0
 11 14  1  0
 11 18  1  0
 12 13  2  0
 13 17  1  0
 13 19  1  0
 14 17  2  0
 20 21  1  0
M  END
>  <PUBCHEM_COMPOUND_CID>  (1) 
40455

>  <PUBCHEM_CONFORMER_RMSD>  (1) 
0.8

>  <PUBCHEM_CONFORMER_DIVERSEORDER>  (1) 
2
80
21
18
66
113
49
122
73
112
68
120
50
105
109
39
29
79
75
45
87
26
88
115
20
117
116
33
124
16
63
94
76
28
69
24
9
107
100
25
44
17
125
43
108
60
99
123
46
35
13
129
47
62
106
70
92
85
103
114
98
102
82
104
52
127
23
51
72
101
130
34
38
65
19
119
96
58
83
22
1
57
27
74
95
61
32
121
93
31
42
11
41
55
67
10
40
86
56
78
97
128
37
54
64
77
91
59
90
12
89
84
48
3
111
118
110
4
30
53
126
71
14
36
8
81
6
7
15
5

>  <PUBCHEM_MMFF94_PARTIAL_CHARGES>  (1) 
26
1 -0.29
10 0.37
11 -0.14
12 -0.15
13 0.09
14 -0.15
15 0.29
16 0.29
17 -0.15
18 0.14
19 0.54
2 -0.29
20 0.36
21 0.66
26 0.15
27 0.15
3 -0.57
32 0.15
36 0.37
39 0.5
4 -0.65
5 -0.57
6 -0.84
7 -0.73
8 0.1
9 0.37

>  <PUBCHEM_EFFECTIVE_ROTOR_COUNT>  (1) 
9

>  <PUBCHEM_PHARMACOPHORE_FEATURES>  (1) 
7
1 3 acceptor
1 4 acceptor
1 5 acceptor
1 6 cation
1 7 donor
3 4 5 21 anion
6 8 11 12 13 14 17 rings

>  <PUBCHEM_HEAVY_ATOM_COUNT>  (1) 
21

>  <PUBCHEM_ATOM_DEF_STEREO_COUNT>  (1) 
0

>  <PUBCHEM_ATOM_UDEF_STEREO_COUNT>  (1) 
0

>  <PUBCHEM_BOND_DEF_STEREO_COUNT>  (1) 
0

>  <PUBCHEM_BOND_UDEF_STEREO_COUNT>  (1) 
0

>  <PUBCHEM_ISOTOPIC_ATOM_COUNT>  (1) 
0

>  <PUBCHEM_COMPONENT_COUNT>  (1) 
1

>  <PUBCHEM_CACTVS_TAUTO_COUNT>  (1) 
2

>  <PUBCHEM_CONFORMER_ID>  (1) 
00009E0700000002

>  <PUBCHEM_MMFF94_ENERGY>  (1) 
64.9144

>  <PUBCHEM_FEATURE_SELFOVERLAP>  (1) 
35.58

>  <PUBCHEM_SHAPE_FINGERPRINT>  (1) 
11118852 30 18130506439185654758
116883 192 18337961069439290573
12160290 23 17393051638142516140
12293681 25 17979900627838799206
12363563 72 18187647968302496035
12549972 3 17127036907672746632
12553582 1 18114756914417448587
12670545 2 18186514415144019339
13083527 12 18114730595333053864
14022347 108 17682709249253796336
14178342 30 18197775501149410921
14848160 33 18260829323680652515
14863182 85 18060422438718655238
15183329 4 18411421727020344677
15342168 16 12247676110629440849
15342816 4 18186806863381966706
17818456 19 17486237538493998945
18681886 176 18200319939209071060
20369508 70 17967525804888337923
20600515 1 17974271141569841104
20626108 58 18335412461240737905
20645477 70 18335991977257377455
20671657 53 18113893871273820361
20775530 9 17914351073259663167
21315764 371 16701453606244674927
21452121 199 18260823783225978112
23419403 2 17903593580400530608
23557571 272 18124586479824563704
23559900 14 17986397684965266821
25222932 49 17752774798863578779
3004659 81 18408888464539727199
3060560 45 18197515114836956172
312425 83 14057013727725084059
427121 178 16917063408471771050
484985 159 15944807890732285770
7164475 11 18343032073180788305
7808743 9 11311189084561953722

>  <PUBCHEM_SHAPE_MULTIPOLES>  (1) 
408.34
8.79
3.47
2.4
12.73
0.35
-1.23
-5.85
-2.66
-1.86
2.39
-3.96
-2.33
-0.59

>  <PUBCHEM_SHAPE_SELFOVERLAP>  (1) 
810.031

>  <PUBCHEM_SHAPE_VOLUME>  (1) 
244.9

>  <PUBCHEM_COORDINATE_TYPE>  (1) 
2
5
10

$$$$
