40450
     RDKit          3D

 15 14  0  0  0  0  0  0  0  0999 V2000
    1.4980   -1.9409    0.5506 O   0  0  0  0  0  0  0  0  0  0  0  0
   -1.6543   -1.3709   -1.1593 O   0  0  0  0  0  0  0  0  0  0  0  0
   -0.1873    2.1135   -0.2772 C   0  0  0  0  0  0  0  0  0  0  0  0
    1.0124    1.1452   -0.4985 C   0  0  0  0  0  0  0  0  0  0  0  0
    1.9134    0.9173    0.7269 C   0  0  0  0  0  0  0  0  0  0  0  0
   -0.9937    2.1913   -1.5902 C   0  0  0  0  0  0  0  0  0  0  0  0
    0.3264    3.5292    0.0530 C   0  0  0  0  0  0  0  0  0  0  0  0
    3.0382   -0.0784    0.4368 C   0  0  0  0  0  0  0  0  0  0  0  0
   -1.1323    1.6698    0.8301 C   0  0  0  0  0  0  0  0  0  0  0  0
    2.5503   -1.4803    0.1115 C   0  0  0  0  0  0  0  0  0  0  0  0
   -1.8036    0.5528    0.8687 C   0  0  0  0  0  0  0  0  0  0  0  0
    3.4548   -2.3114   -0.7608 C   0  0  0  0  0  0  0  0  0  0  0  0
   -2.4756   -0.5583    0.9138 C   0  0  0  0  0  0  0  0  0  0  0  0
   -2.3741   -1.5562   -0.1804 C   0  0  0  0  0  0  0  0  0  0  0  0
   -3.1727   -2.8227   -0.0251 C   0  0  0  0  0  0  0  0  0  0  0  0
  1 10  2  0
  2 14  2  0
  3  4  1  0
  3  6  1  0
  3  7  1  0
  3  9  1  0
  4  5  1  0
  5  8  1  0
  8 10  1  0
  9 11  2  0
 10 12  1  0
 11 13  2  0
 13 14  1  0
 14 15  1  0
M  END
>  <PUBCHEM_COMPOUND_CID>  (1) 
40450

>  <PUBCHEM_CONFORMER_RMSD>  (1) 
0.8

>  <PUBCHEM_CONFORMER_DIVERSEORDER>  (1) 
1
184
177
109
57
83
105
163
186
58
117
39
185
15
96
132
51
124
100
8
125
111
191
123
178
166
70
7
74
182
175
94
174
9
45
116
80
44
119
122
155
157
32
143
69
180
181
192
37
89
188
104
135
118
27
99
93
136
187
92
114
112
97
173
12
13
115
152
165
36
138
134
169
72
139
172
31
10
189
102
144
171
67
42
110
79
61
46
87
140
71
142
90
91
179
85
154
95
53
190
19
106
101
34
98
145
161
11
60
167
30
40
5
73
59
126
28
76
107
120
195
62
16
49
4
159
196
130
20
133
84
147
22
137
24
160
64
88
43
21
65
86
29
146
194
151
18
17
176
141
78
56
148
156
23
162
54
55
63
35
193
129
52
158
75
33
6
41
26
47
68
127
103
48
2
170
168
3
25
38
131
183
81
128
77
14
108
113
66
153
50
149
150
164
82
121
197

>  <PUBCHEM_MMFF94_PARTIAL_CHARGES>  (1) 
13
1 -0.57
10 0.45
11 -0.13
12 0.06
13 -0.07
14 0.49
15 0.06
2 -0.57
28 0.15
3 0.14
32 0.15
8 0.06
9 -0.22

>  <PUBCHEM_EFFECTIVE_ROTOR_COUNT>  (1) 
6

>  <PUBCHEM_PHARMACOPHORE_FEATURES>  (1) 
4
1 1 acceptor
1 2 acceptor
3 3 6 7 hydrophobe
5 3 4 5 8 9 hydrophobe

>  <PUBCHEM_HEAVY_ATOM_COUNT>  (1) 
15

>  <PUBCHEM_ATOM_DEF_STEREO_COUNT>  (1) 
0

>  <PUBCHEM_ATOM_UDEF_STEREO_COUNT>  (1) 
0

>  <PUBCHEM_BOND_DEF_STEREO_COUNT>  (1) 
0

>  <PUBCHEM_BOND_UDEF_STEREO_COUNT>  (1) 
0

>  <PUBCHEM_ISOTOPIC_ATOM_COUNT>  (1) 
0

>  <PUBCHEM_COMPONENT_COUNT>  (1) 
1

>  <PUBCHEM_CACTVS_TAUTO_COUNT>  (1) 
6

>  <PUBCHEM_CONFORMER_ID>  (1) 
00009E0200000001

>  <PUBCHEM_MMFF94_ENERGY>  (1) 
21.0696

>  <PUBCHEM_FEATURE_SELFOVERLAP>  (1) 
20.433

>  <PUBCHEM_SHAPE_FINGERPRINT>  (1) 
11321824 6 17903623095236005434
11322862 65 18047471123735415685
12841375 7 18410303514039332182
14251705 54 18194402422930380947
14251711 518 18117273649273411570
20291156 8 18340494446950140187
20645476 183 16374683994439684136
20645477 70 17758666034100169051
20871998 184 17977116655807555993
21160774 45 18194122910837477406
21256008 148 18119806911210144404
21665056 4 17689997834535156116
2255824 54 17759812837238119573
22889148 1 17388520623706623477
23419403 2 17628314360597180345
23598291 2 18053971690145674393
257057 1 18409160034741624067
2748010 2 18339911645921179024
3060560 45 17033594263272665733
59682541 52 17552605430837733191
598444 67 17550116865605938534
81228 2 18188485766061615233
8199 65 17690842688846025227

>  <PUBCHEM_SHAPE_MULTIPOLES>  (1) 
296.95
5
4.01
1.13
1.44
0.94
-0.23
-5.38
0.18
-0.43
-0.74
-0.28
0.3
0.24

>  <PUBCHEM_SHAPE_SELFOVERLAP>  (1) 
567.454

>  <PUBCHEM_SHAPE_VOLUME>  (1) 
182.3

>  <PUBCHEM_COORDINATE_TYPE>  (1) 
2
5
10

$$$$
