40453
     RDKit          3D

 24 27  0  0  1  0  0  0  0  0999 V2000
    0.6952   -0.8958    1.2952 O   0  0  0  0  0  0  0  0  0  0  0  0
    2.6610    2.3724   -1.3718 O   0  0  0  0  0  0  0  0  0  0  0  0
   -2.5804    1.5114    2.0986 O   0  0  0  0  0  0  0  0  0  0  0  0
   -1.0088   -0.6052   -1.7116 O   0  0  0  0  0  0  0  0  0  0  0  0
   -1.4086    0.6317    0.2545 N   0  0  0  0  0  0  0  0  0  0  0  0
    2.0678    0.5334   -0.0007 N   0  0  0  0  0  0  0  0  0  0  0  0
   -0.1166    1.2129    0.4661 C   0  0  0  0  0  0  0  0  0  0  0  0
    0.3913    1.9962   -0.7245 C   0  0  0  0  0  0  0  0  0  0  0  0
    0.9109    0.1270    0.6588 C   0  0  0  0  0  0  0  0  0  0  0  0
    1.8596    1.6803   -0.7585 C   0  0  0  0  0  0  0  0  0  0  0  0
   -2.4892    0.8445    1.0847 C   0  0  0  0  0  0  0  0  0  0  0  0
   -1.7092   -0.2024   -0.8015 C   0  0  0  0  0  0  0  0  0  0  0  0
   -3.5920    0.0819    0.5008 C   0  0  0  0  0  0  0  0  0  0  0  0
   -3.1204   -0.5512   -0.6397 C   0  0  0  0  0  0  0  0  0  0  0  0
    3.3213   -0.1552    0.0839 C   0  0  0  0  0  0  0  0  0  0  0  0
   -4.8981   -0.0539    0.9242 C   0  0  0  0  0  0  0  0  0  0  0  0
   -3.9301   -1.3536   -1.4170 C   0  0  0  0  0  0  0  0  0  0  0  0
    4.2079   -0.1310   -0.9946 C   0  0  0  0  0  0  0  0  0  0  0  0
    3.6602   -0.8529    1.2451 C   0  0  0  0  0  0  0  0  0  0  0  0
   -5.7372   -0.8620    0.1517 C   0  0  0  0  0  0  0  0  0  0  0  0
   -5.2579   -1.5057   -1.0075 C   0  0  0  0  0  0  0  0  0  0  0  0
    5.4281   -0.8017   -0.9124 C   0  0  0  0  0  0  0  0  0  0  0  0
    4.8806   -1.5233    1.3274 C   0  0  0  0  0  0  0  0  0  0  0  0
    5.7646   -1.4978    0.2487 C   0  0  0  0  0  0  0  0  0  0  0  0
  1  9  2  0
  2 10  2  0
  3 11  2  0
  4 12  2  0
  5  7  1  0
  5 11  1  0
  5 12  1  0
  6  9  1  0
  6 10  1  0
  6 15  1  0
  7  8  1  0
  7  9  1  0
  8 10  1  0
 11 13  1  0
 12 14  1  0
 13 14  2  0
 13 16  1  0
 14 17  1  0
 15 18  2  0
 15 19  1  0
 16 20  2  0
 17 21  2  0
 18 22  1  0
 19 23  2  0
 20 21  1  0
 22 24  2  0
 23 24  1  0
M  END
>  <PUBCHEM_COMPOUND_CID>  (1) 
40453

>  <PUBCHEM_CONFORMER_RMSD>  (1) 
0.6

>  <PUBCHEM_CONFORMER_DIVERSEORDER>  (1) 
1
4
14
7
6
8
5
16
9
3
2
10
15
13
11
12

>  <PUBCHEM_MMFF94_PARTIAL_CHARGES>  (1) 
33
1 -0.57
10 0.57
11 0.54
12 0.54
13 0.09
14 0.09
15 0.12
16 -0.15
17 -0.15
18 -0.15
19 -0.15
2 -0.57
20 -0.15
21 -0.15
22 -0.15
23 -0.15
24 -0.15
28 0.15
29 0.15
3 -0.57
30 0.15
31 0.15
32 0.15
33 0.15
34 0.15
35 0.15
36 0.15
4 -0.57
5 -0.42
6 -0.24
7 0.36
8 0.06
9 0.57

>  <PUBCHEM_EFFECTIVE_ROTOR_COUNT>  (1) 
2.8

>  <PUBCHEM_PHARMACOPHORE_FEATURES>  (1) 
8
1 1 acceptor
1 2 acceptor
1 3 acceptor
1 4 acceptor
5 5 11 12 13 14 rings
5 6 7 8 9 10 rings
6 13 14 16 17 20 21 rings
6 15 18 19 22 23 24 rings

>  <PUBCHEM_HEAVY_ATOM_COUNT>  (1) 
24

>  <PUBCHEM_ATOM_DEF_STEREO_COUNT>  (1) 
0

>  <PUBCHEM_ATOM_UDEF_STEREO_COUNT>  (1) 
1

>  <PUBCHEM_BOND_DEF_STEREO_COUNT>  (1) 
0

>  <PUBCHEM_BOND_UDEF_STEREO_COUNT>  (1) 
0

>  <PUBCHEM_ISOTOPIC_ATOM_COUNT>  (1) 
0

>  <PUBCHEM_COMPONENT_COUNT>  (1) 
1

>  <PUBCHEM_CACTVS_TAUTO_COUNT>  (1) 
4

>  <PUBCHEM_CONFORMER_ID>  (1) 
00009E0500000001

>  <PUBCHEM_MMFF94_ENERGY>  (1) 
74.2789

>  <PUBCHEM_FEATURE_SELFOVERLAP>  (1) 
40.692

>  <PUBCHEM_SHAPE_FINGERPRINT>  (1) 
10 15 14189567563729671346
10319926 262 16702027422480633506
10366900 7 16515398564828207001
11089746 13 10809345559475313398
11578080 2 18197752523297060225
11961588 58 13262395596251956819
12236239 1 18341899601525278177
12403259 415 16226047825299125141
12553582 1 18260824878526527818
12596602 18 18131346419088262770
12616971 3 18411426128797294529
12892183 10 16773796952961662038
13009979 54 18272661163833010257
13533116 47 18339361975780141136
13583140 156 16128085638357735448
13675066 3 16128656332121256668
13782708 43 16805327720978742675
13862211 1 18187362100144174722
13911987 19 17240780462412377298
14178342 30 17345770589653943753
14739800 52 17202194325627387624
15183329 4 18040708135472016693
15188451 53 17917700306036633887
15348495 7 15841543111017550515
17349148 13 18413394241072100883
1813 80 18409453553286771900
18222031 100 18409163303602022464
19784866 140 17749104469887644024
19784866 240 18409448085460970967
200 152 17895192169218292624
20028762 73 18343579655314353238
20645477 70 17748827453287518208
21033648 29 14907606836273357562
21637258 2 18341321245297358215
221357 26 17458057162220411317
22393880 68 16805599321878491051
22950370 63 18334858294716988966
23366157 5 17627217202859922537
23402539 116 18187928318509302440
23522609 53 18193307180410744684
23557571 272 16414931772035173825
23559900 14 15213022669266211487
25147074 1 18339378408383479456
2767999 5 9367343734516445874
2838139 119 11530481138372645302
3004659 81 18341613745512860853
314194 84 18259988154441343274
3411729 13 16843873386314186512
34797466 226 14851900148508706142
351380 3 18410009927334247074
46194498 28 16009040526507476070
465052 167 18335426784930614262
5104073 3 17345478266133208235
559249 180 18343018861908377871
5924683 9 14979373171672972013
6669772 16 17604707915032166920
7970288 3 18334851680731922554
960060 61 17458064872024220094
9981440 41 17260741275080344608

>  <PUBCHEM_SHAPE_MULTIPOLES>  (1) 
460.47
13.13
1.81
1.54
1.6
0.65
0.12
-7.98
-0.1
0.73
-0.3
-0.19
0.03
-2.01

>  <PUBCHEM_SHAPE_SELFOVERLAP>  (1) 
1040.331

>  <PUBCHEM_SHAPE_VOLUME>  (1) 
240.3

>  <PUBCHEM_COORDINATE_TYPE>  (1) 
2
5
10

$$$$
