40476
     RDKit          3D

 19 20  0  0  0  0  0  0  0  0999 V2000
   -0.7212   -2.5276    0.2167 Cl  0  0  0  0  0  0  0  0  0  0  0  0
   -0.3520    2.8907   -0.2847 Cl  0  0  0  0  0  0  0  0  0  0  0  0
    0.5440    0.3429    2.7851 Cl  0  0  0  0  0  0  0  0  0  0  0  0
   -3.8609   -2.2877   -0.0311 Cl  0  0  0  0  0  0  0  0  0  0  0  0
    3.7619   -0.3794   -2.5210 Cl  0  0  0  0  0  0  0  0  0  0  0  0
   -5.1679    0.5974   -0.4012 Cl  0  0  0  0  0  0  0  0  0  0  0  0
    5.2656   -0.2279    0.3397 Cl  0  0  0  0  0  0  0  0  0  0  0  0
   -0.6768    0.1775   -0.0412 C   0  0  0  0  0  0  0  0  0  0  0  0
    0.7665    0.0804    0.0698 C   0  0  0  0  0  0  0  0  0  0  0  0
   -1.4743   -0.9691    0.0115 C   0  0  0  0  0  0  0  0  0  0  0  0
   -1.2770    1.4292   -0.2036 C   0  0  0  0  0  0  0  0  0  0  0  0
    1.4146    0.1445    1.3034 C   0  0  0  0  0  0  0  0  0  0  0  0
    1.5083   -0.0810   -1.1003 C   0  0  0  0  0  0  0  0  0  0  0  0
   -2.8611   -0.8647   -0.0975 C   0  0  0  0  0  0  0  0  0  0  0  0
   -2.6636    1.5336   -0.3127 C   0  0  0  0  0  0  0  0  0  0  0  0
    2.8982   -0.1784   -1.0369 C   0  0  0  0  0  0  0  0  0  0  0  0
    2.8047    0.0472    1.3668 C   0  0  0  0  0  0  0  0  0  0  0  0
   -3.4556    0.3868   -0.2594 C   0  0  0  0  0  0  0  0  0  0  0  0
    3.5466   -0.1143    0.1966 C   0  0  0  0  0  0  0  0  0  0  0  0
  1 10  1  0
  2 11  1  0
  3 12  1  0
  4 14  1  0
  5 16  1  0
  6 18  1  0
  7 19  1  0
  8  9  1  0
  8 10  2  0
  8 11  1  0
  9 12  2  0
  9 13  1  0
 10 14  1  0
 11 15  2  0
 12 17  1  0
 13 16  2  0
 14 18  2  0
 15 18  1  0
 16 19  1  0
 17 19  2  0
M  END
>  <PUBCHEM_COMPOUND_CID>  (1) 
40476

>  <PUBCHEM_CONFORMER_RMSD>  (1) 
0.6

>  <PUBCHEM_CONFORMER_DIVERSEORDER>  (1) 
2
1

>  <PUBCHEM_MMFF94_PARTIAL_CHARGES>  (1) 
20
1 -0.18
10 0.18
11 0.18
12 0.18
13 -0.15
14 0.18
15 -0.15
16 0.18
17 -0.15
18 0.18
19 0.18
2 -0.18
20 0.15
21 0.15
22 0.15
3 -0.18
4 -0.18
5 -0.18
6 -0.18
7 -0.18

>  <PUBCHEM_EFFECTIVE_ROTOR_COUNT>  (1) 
1

>  <PUBCHEM_PHARMACOPHORE_FEATURES>  (1) 
2
6 8 10 11 14 15 18 rings
6 9 12 13 16 17 19 rings

>  <PUBCHEM_HEAVY_ATOM_COUNT>  (1) 
19

>  <PUBCHEM_ATOM_DEF_STEREO_COUNT>  (1) 
0

>  <PUBCHEM_ATOM_UDEF_STEREO_COUNT>  (1) 
0

>  <PUBCHEM_BOND_DEF_STEREO_COUNT>  (1) 
0

>  <PUBCHEM_BOND_UDEF_STEREO_COUNT>  (1) 
0

>  <PUBCHEM_ISOTOPIC_ATOM_COUNT>  (1) 
0

>  <PUBCHEM_COMPONENT_COUNT>  (1) 
1

>  <PUBCHEM_CACTVS_TAUTO_COUNT>  (1) 
1

>  <PUBCHEM_CONFORMER_ID>  (1) 
00009E1C00000002

>  <PUBCHEM_MMFF94_ENERGY>  (1) 
53.4276

>  <PUBCHEM_FEATURE_SELFOVERLAP>  (1) 
10.149

>  <PUBCHEM_SHAPE_FINGERPRINT>  (1) 
10498660 4 18408040702024451981
11796584 16 18341611482545936038
12236239 1 17530680991824720756
13140716 1 18337391668972218881
13538477 17 17967243213394216347
13544592 145 17988932140987817967
13544653 18 17203616981645103556
13760787 19 17022900151677982243
14386348 63 17918556825457371910
15342168 16 14635737309281052030
1601671 61 18262796247420896253
16752209 62 18188475982780157987
16945 1 18411987927066425741
17804303 29 18341890835760517827
18186145 218 18059583446689653938
192875 21 17095246899952130812
19422 9 17530682125648900147
19862831 5 17603304855820528238
200 152 16515680031025156941
20279233 1 17918275350586221318
20510252 161 18269270175336163857
20600515 1 18412822486499597973
20645476 183 17530684325120541995
20645477 70 16486977237375140652
20871999 31 18336275642467235223
23175994 123 17203611488566730504
23402539 116 18411409626931621822
23526113 38 17632573799754876722
23557571 272 18272930479957954152
23559900 14 18342743988222600550
23598291 2 17240480308010785191
2748010 2 18120082030394983781
350125 39 17689155608887021845
474 4 16516260651086016300
59755656 215 18264767670893844470
77492 1 17458623402071197608
8272917 22 16009304284854567729

>  <PUBCHEM_SHAPE_MULTIPOLES>  (1) 
404.1
8.64
2.1
1.75
0.69
0.09
0.44
-1.35
-2.13
-2.23
-0.15
2.15
0.04
0.46

>  <PUBCHEM_SHAPE_SELFOVERLAP>  (1) 
814.269

>  <PUBCHEM_SHAPE_VOLUME>  (1) 
229

>  <PUBCHEM_COORDINATE_TYPE>  (1) 
2
5
10

$$$$
