40475
     RDKit          3D

 19 20  0  0  0  0  0  0  0  0999 V2000
   -0.6043    2.7182   -0.0259 Cl  0  0  0  0  0  0  0  0  0  0  0  0
   -0.6042   -2.7180   -0.0252 Cl  0  0  0  0  0  0  0  0  0  0  0  0
    0.4327   -0.0006    2.8019 Cl  0  0  0  0  0  0  0  0  0  0  0  0
   -3.7892   -2.6654   -0.2751 Cl  0  0  0  0  0  0  0  0  0  0  0  0
   -3.7892    2.6654   -0.2766 Cl  0  0  0  0  0  0  0  0  0  0  0  0
    3.7057   -0.0022   -2.5196 Cl  0  0  0  0  0  0  0  0  0  0  0  0
    5.1884    0.0014    0.3560 Cl  0  0  0  0  0  0  0  0  0  0  0  0
   -0.7669   -0.0002   -0.0383 C   0  0  0  0  0  0  0  0  0  0  0  0
    0.6794   -0.0001    0.0760 C   0  0  0  0  0  0  0  0  0  0  0  0
   -1.4682    1.2080   -0.0935 C   0  0  0  0  0  0  0  0  0  0  0  0
   -1.4686   -1.2080   -0.0937 C   0  0  0  0  0  0  0  0  0  0  0  0
    1.3185    0.0002    1.3159 C   0  0  0  0  0  0  0  0  0  0  0  0
    1.4334   -0.0001   -1.0974 C   0  0  0  0  0  0  0  0  0  0  0  0
   -2.8591   -1.2077   -0.2034 C   0  0  0  0  0  0  0  0  0  0  0  0
   -2.8587    1.2081   -0.2033 C   0  0  0  0  0  0  0  0  0  0  0  0
    2.8267    0.0000   -1.0310 C   0  0  0  0  0  0  0  0  0  0  0  0
    2.7119    0.0004    1.3824 C   0  0  0  0  0  0  0  0  0  0  0  0
   -3.5542    0.0002   -0.2581 C   0  0  0  0  0  0  0  0  0  0  0  0
    3.4660    0.0003    0.2088 C   0  0  0  0  0  0  0  0  0  0  0  0
  1 10  1  0
  2 11  1  0
  3 12  1  0
  4 14  1  0
  5 15  1  0
  6 16  1  0
  7 19  1  0
  8  9  1  0
  8 10  2  0
  8 11  1  0
  9 12  2  0
  9 13  1  0
 10 15  1  0
 11 14  2  0
 12 17  1  0
 13 16  2  0
 14 18  1  0
 15 18  2  0
 16 19  1  0
 17 19  2  0
M  END
>  <PUBCHEM_COMPOUND_CID>  (1) 
40475

>  <PUBCHEM_CONFORMER_RMSD>  (1) 
0.6

>  <PUBCHEM_CONFORMER_DIVERSEORDER>  (1) 
1

>  <PUBCHEM_MMFF94_PARTIAL_CHARGES>  (1) 
20
1 -0.18
10 0.18
11 0.18
12 0.18
13 -0.15
14 0.18
15 0.18
16 0.18
17 -0.15
18 -0.15
19 0.18
2 -0.18
20 0.15
21 0.15
22 0.15
3 -0.18
4 -0.18
5 -0.18
6 -0.18
7 -0.18

>  <PUBCHEM_EFFECTIVE_ROTOR_COUNT>  (1) 
1

>  <PUBCHEM_PHARMACOPHORE_FEATURES>  (1) 
2
6 8 10 11 14 15 18 rings
6 9 12 13 16 17 19 rings

>  <PUBCHEM_HEAVY_ATOM_COUNT>  (1) 
19

>  <PUBCHEM_ATOM_DEF_STEREO_COUNT>  (1) 
0

>  <PUBCHEM_ATOM_UDEF_STEREO_COUNT>  (1) 
0

>  <PUBCHEM_BOND_DEF_STEREO_COUNT>  (1) 
0

>  <PUBCHEM_BOND_UDEF_STEREO_COUNT>  (1) 
0

>  <PUBCHEM_ISOTOPIC_ATOM_COUNT>  (1) 
0

>  <PUBCHEM_COMPONENT_COUNT>  (1) 
1

>  <PUBCHEM_CACTVS_TAUTO_COUNT>  (1) 
1

>  <PUBCHEM_CONFORMER_ID>  (1) 
00009E1B00000001

>  <PUBCHEM_MMFF94_ENERGY>  (1) 
53.3798

>  <PUBCHEM_FEATURE_SELFOVERLAP>  (1) 
10.149

>  <PUBCHEM_SHAPE_FINGERPRINT>  (1) 
10498660 4 18338796706687045149
11640471 11 17604996918364231109
11796584 16 18271244903247989358
12236239 1 17676483943076033932
12553582 1 18264492969750504691
12714826 92 18130517425838591655
12716301 132 18270660027000660411
12788726 201 17751942434048490083
13140716 1 18266741471329285683
13538477 17 18187352199737953601
13965767 371 17536591803175165948
16752209 62 18335407002854509271
16945 1 18410862061550918037
18186145 218 17917157108484578984
19049666 15 17703513190177186539
19422 9 17821444664210269882
19862831 5 17603862334012150614
200 152 16732974345143138615
20510252 161 18343018925947746249
20600515 1 18341888567696876532
20691752 17 17313660559366633964
20871999 31 18339654415844924797
21756936 100 17097243643106329108
22112679 90 18040711463502121133
23175994 123 16988847198038442520
23402539 116 18411691085018522652
23419403 2 17345460647591583257
23493267 7 18339353076797470209
23526113 38 17346030065823683130
23557571 272 18272089426597975752
23559900 14 18201160936902669430
23598291 2 17675924300305589686
23598294 1 18335687343674614811
2748010 2 18050271859635794853
298252 57 18261398793035583832
474 4 16877950425423062932
6049 1 17846781844731254137
6442390 28 17768548100929074385
7364860 26 17766557228699146665
77492 1 17676201368582427240
8272917 22 16298936538358165027

>  <PUBCHEM_SHAPE_MULTIPOLES>  (1) 
404.1
7.87
2.54
1.75
4.05
0
0.48
0
-1.93
-4.13
-0.3
2.09
0
0

>  <PUBCHEM_SHAPE_SELFOVERLAP>  (1) 
814.318

>  <PUBCHEM_SHAPE_VOLUME>  (1) 
230.1

>  <PUBCHEM_COORDINATE_TYPE>  (1) 
2
5
10

$$$$
