40471
     RDKit          3D

 18 19  0  0  0  0  0  0  0  0999 V2000
    0.3188    2.7181    0.0146 Cl  0  0  0  0  0  0  0  0  0  0  0  0
    0.3190   -2.7181    0.0152 Cl  0  0  0  0  0  0  0  0  0  0  0  0
   -0.6587   -0.0002   -2.8353 Cl  0  0  0  0  0  0  0  0  0  0  0  0
    3.4977   -2.6653    0.3347 Cl  0  0  0  0  0  0  0  0  0  0  0  0
    3.4974    2.6655    0.3349 Cl  0  0  0  0  0  0  0  0  0  0  0  0
   -4.0959    0.0005    2.3724 Cl  0  0  0  0  0  0  0  0  0  0  0  0
    0.4812   -0.0002    0.0312 C   0  0  0  0  0  0  0  0  0  0  0  0
   -0.9622   -0.0003   -0.1147 C   0  0  0  0  0  0  0  0  0  0  0  0
    1.1810    1.2080    0.1014 C   0  0  0  0  0  0  0  0  0  0  0  0
    1.1815   -1.2081    0.1022 C   0  0  0  0  0  0  0  0  0  0  0  0
   -1.5745   -0.0004   -1.3681 C   0  0  0  0  0  0  0  0  0  0  0  0
   -1.7417   -0.0001    1.0422 C   0  0  0  0  0  0  0  0  0  0  0  0
    2.5694   -1.2077    0.2422 C   0  0  0  0  0  0  0  0  0  0  0  0
    2.5689    1.2082    0.2416 C   0  0  0  0  0  0  0  0  0  0  0  0
    3.2630    0.0003    0.3119 C   0  0  0  0  0  0  0  0  0  0  0  0
   -3.1332    0.0000    0.9457 C   0  0  0  0  0  0  0  0  0  0  0  0
   -2.9662   -0.0003   -1.4644 C   0  0  0  0  0  0  0  0  0  0  0  0
   -3.7455    0.0000   -0.3076 C   0  0  0  0  0  0  0  0  0  0  0  0
  1  9  1  0
  2 10  1  0
  3 11  1  0
  4 13  1  0
  5 14  1  0
  6 16  1  0
  7  8  1  0
  7  9  2  0
  7 10  1  0
  8 11  2  0
  8 12  1  0
  9 14  1  0
 10 13  2  0
 11 17  1  0
 12 16  2  0
 13 15  1  0
 14 15  2  0
 16 18  1  0
 17 18  2  0
M  END
>  <PUBCHEM_COMPOUND_CID>  (1) 
40471

>  <PUBCHEM_CONFORMER_RMSD>  (1) 
0.6

>  <PUBCHEM_CONFORMER_DIVERSEORDER>  (1) 
1

>  <PUBCHEM_MMFF94_PARTIAL_CHARGES>  (1) 
20
1 -0.18
10 0.18
11 0.18
12 -0.15
13 0.18
14 0.18
15 -0.15
16 0.18
17 -0.15
18 -0.15
19 0.15
2 -0.18
20 0.15
21 0.15
22 0.15
3 -0.18
4 -0.18
5 -0.18
6 -0.18
9 0.18

>  <PUBCHEM_EFFECTIVE_ROTOR_COUNT>  (1) 
1

>  <PUBCHEM_PHARMACOPHORE_FEATURES>  (1) 
2
6 7 9 10 13 14 15 rings
6 8 11 12 16 17 18 rings

>  <PUBCHEM_HEAVY_ATOM_COUNT>  (1) 
18

>  <PUBCHEM_ATOM_DEF_STEREO_COUNT>  (1) 
0

>  <PUBCHEM_ATOM_UDEF_STEREO_COUNT>  (1) 
0

>  <PUBCHEM_BOND_DEF_STEREO_COUNT>  (1) 
0

>  <PUBCHEM_BOND_UDEF_STEREO_COUNT>  (1) 
0

>  <PUBCHEM_ISOTOPIC_ATOM_COUNT>  (1) 
0

>  <PUBCHEM_COMPONENT_COUNT>  (1) 
1

>  <PUBCHEM_CACTVS_TAUTO_COUNT>  (1) 
1

>  <PUBCHEM_CONFORMER_ID>  (1) 
00009E1700000001

>  <PUBCHEM_MMFF94_ENERGY>  (1) 
51.0246

>  <PUBCHEM_FEATURE_SELFOVERLAP>  (1) 
10.149

>  <PUBCHEM_SHAPE_FINGERPRINT>  (1) 
10967382 1 18410568513874832016
10980938 120 18337951293977381192
11640471 11 17631737191412236897
12236239 1 17703785929390688739
12390115 104 17762911257127424240
12491281 212 17131558356804539944
12553582 1 18268994176965066278
12596599 1 17988921154446014535
13140716 1 18266168625676282112
13538477 17 17274243067678935607
13965767 371 16914555246191326697
14178342 30 18054214707942687792
14787075 74 17410204436537337927
14817 1 14833827458476126031
15219456 202 18040148530760067857
15309172 13 18336545022604803024
15534591 1 17630337551764595208
16945 1 18410566293476895298
17357990 137 17489598865239933593
17844478 74 17821727225887390597
1813 80 17914905240621824214
18175812 5 17749105591079927623
18186145 218 18342741840301017772
18219364 16 18117546534320772020
19049666 15 17677879146138470821
19422 9 17847056692478682991
19784866 34 18196366151182931000
204376 136 18192427700468680496
20600515 1 16081075000963231717
20645476 183 17845363526445039525
20645477 70 18335688425843122151
20739085 24 18265072287323092520
21041028 32 18197222451517846824
21061003 4 18263927639757135651
21639500 275 18339908420232097132
21756936 100 17771921677327763808
22112679 90 17489575762436710088
2255824 54 18342736308752723942
23175994 123 18191304875436525462
2334 1 17905599253471614874
23419403 2 17968649424462958486
23557571 272 16950277390924358813
23559900 14 16443335417661601874
23598291 2 17917990585558988965
2748010 2 18190162530326772940
31174 14 18334018276460219730
3286 77 18261394403605653623
350125 39 17544195342856243968
458136 41 18263092161765945292
474 4 18056468680868004072
568465 68 18113340803744592243
6049 1 17821730494257224092
621550 5 17678476172557682182
633830 44 18059591207711544541
6992083 37 17704061872470621525
7615 1 17704059699111817409
77492 1 17703784834142373303
81228 2 17257629146499105136
8272917 22 18341896256040926367

>  <PUBCHEM_SHAPE_MULTIPOLES>  (1) 
381.65
6.65
2.65
1.79
1.86
0
0.79
0
-2.68
-3.77
-0.37
2.34
0
0

>  <PUBCHEM_SHAPE_SELFOVERLAP>  (1) 
774.92

>  <PUBCHEM_SHAPE_VOLUME>  (1) 
216.6

>  <PUBCHEM_COORDINATE_TYPE>  (1) 
2
5
10

$$$$
