40470
     RDKit          3D

 17 18  0  0  0  0  0  0  0  0999 V2000
    0.5592   -2.3678    0.4592 Cl  0  0  0  0  0  0  0  0  0  0  0  0
   -1.2550    0.8384    2.1447 Cl  0  0  0  0  0  0  0  0  0  0  0  0
    3.6793   -1.9073    0.7103 Cl  0  0  0  0  0  0  0  0  0  0  0  0
   -4.4018    0.4487    1.6930 Cl  0  0  0  0  0  0  0  0  0  0  0  0
    4.8757    0.9670    0.0110 Cl  0  0  0  0  0  0  0  0  0  0  0  0
    0.4296    0.2276   -0.3185 C   0  0  0  0  0  0  0  0  0  0  0  0
   -1.0078    0.0707   -0.4497 C   0  0  0  0  0  0  0  0  0  0  0  0
    1.2591   -0.8166    0.0906 C   0  0  0  0  0  0  0  0  0  0  0  0
    0.9755    1.4758   -0.6181 C   0  0  0  0  0  0  0  0  0  0  0  0
   -1.8829    0.3212    0.6073 C   0  0  0  0  0  0  0  0  0  0  0  0
   -1.5061   -0.3453   -1.6843 C   0  0  0  0  0  0  0  0  0  0  0  0
    2.6347   -0.6124    0.2001 C   0  0  0  0  0  0  0  0  0  0  0  0
    2.3509    1.6799   -0.5086 C   0  0  0  0  0  0  0  0  0  0  0  0
   -3.2565    0.1556    0.4296 C   0  0  0  0  0  0  0  0  0  0  0  0
   -2.8796   -0.5109   -1.8619 C   0  0  0  0  0  0  0  0  0  0  0  0
    3.1805    0.6359   -0.0997 C   0  0  0  0  0  0  0  0  0  0  0  0
   -3.7548   -0.2605   -0.8050 C   0  0  0  0  0  0  0  0  0  0  0  0
  1  8  1  0
  2 10  1  0
  3 12  1  0
  4 14  1  0
  5 16  1  0
  6  7  1  0
  6  8  2  0
  6  9  1  0
  7 10  2  0
  7 11  1  0
  8 12  1  0
  9 13  2  0
 10 14  1  0
 11 15  2  0
 12 16  2  0
 13 16  1  0
 14 17  2  0
 15 17  1  0
M  END
>  <PUBCHEM_COMPOUND_CID>  (1) 
40470

>  <PUBCHEM_CONFORMER_RMSD>  (1) 
0.6

>  <PUBCHEM_CONFORMER_DIVERSEORDER>  (1) 
1
2

>  <PUBCHEM_MMFF94_PARTIAL_CHARGES>  (1) 
20
1 -0.18
10 0.18
11 -0.15
12 0.18
13 -0.15
14 0.18
15 -0.15
16 0.18
17 -0.15
18 0.15
19 0.15
2 -0.18
20 0.15
21 0.15
22 0.15
3 -0.18
4 -0.18
5 -0.18
8 0.18
9 -0.15

>  <PUBCHEM_EFFECTIVE_ROTOR_COUNT>  (1) 
1

>  <PUBCHEM_PHARMACOPHORE_FEATURES>  (1) 
2
6 6 8 9 12 13 16 rings
6 7 10 11 14 15 17 rings

>  <PUBCHEM_HEAVY_ATOM_COUNT>  (1) 
17

>  <PUBCHEM_ATOM_DEF_STEREO_COUNT>  (1) 
0

>  <PUBCHEM_ATOM_UDEF_STEREO_COUNT>  (1) 
0

>  <PUBCHEM_BOND_DEF_STEREO_COUNT>  (1) 
0

>  <PUBCHEM_BOND_UDEF_STEREO_COUNT>  (1) 
0

>  <PUBCHEM_ISOTOPIC_ATOM_COUNT>  (1) 
0

>  <PUBCHEM_COMPONENT_COUNT>  (1) 
1

>  <PUBCHEM_CACTVS_TAUTO_COUNT>  (1) 
1

>  <PUBCHEM_CONFORMER_ID>  (1) 
00009E1600000001

>  <PUBCHEM_MMFF94_ENERGY>  (1) 
50.9001

>  <PUBCHEM_FEATURE_SELFOVERLAP>  (1) 
10.149

>  <PUBCHEM_SHAPE_FINGERPRINT>  (1) 
11471102 20 18260540122062849934
11471102 22 18040723566878125664
12119455 92 17894623790394541008
12236239 1 18131350821339913981
12403814 3 18272092678247097049
13140716 1 18045219599353622768
13296908 3 17313101929975498375
13538477 17 17703789210803757649
13581323 91 17060334119555342926
13583140 156 18411991269353108769
13965767 371 16910065884122521529
15219456 202 17530678797075327159
15309172 13 18187366562113755654
15375358 24 17240478126578822568
15375462 189 18131348605342615163
15653759 3 16370724829029651445
15775835 57 17988932166704932481
16752209 62 17060324224726185791
16945 1 18334850627978689798
1813 80 18125452912642147190
18186145 218 18410855477577108598
19049666 15 16951394438840293885
19141452 34 17241342368989206011
19422 9 18131627889659326959
200 152 18410564102938079591
20279233 1 17022899051533260536
204376 136 18187927352215559332
20645477 70 18115291302854649766
22112679 90 17846770802317594893
23236772 104 18131633391591320299
23402539 116 16487256568910430052
23493267 7 15482677870387910686
23526113 38 17386268927051293708
23557571 272 16153709833988923477
23559900 14 15864343585470124706
2748010 2 18043514029153747932
3286 77 17895205384938144571
34934 24 17917999343398427049
4340502 62 18337410300487608355
474 4 18055342793999180480
6049 1 17095522876911441869
633830 44 18271255970734457444
77492 1 18131066047791351309
8272917 22 18338238146595979447
90316 7 17489584515833462513
9981440 41 16692989737538048552

>  <PUBCHEM_SHAPE_MULTIPOLES>  (1) 
359.2
8.02
1.73
1.63
1.3
0.69
-0.18
-0.82
-1.18
1.79
-0.23
-1.98
-0.11
-1.2

>  <PUBCHEM_SHAPE_SELFOVERLAP>  (1) 
735.154

>  <PUBCHEM_SHAPE_VOLUME>  (1) 
200.8

>  <PUBCHEM_COORDINATE_TYPE>  (1) 
2
5
10

$$$$
