40484
     RDKit          3D

 21 22  0  0  0  0  0  0  0  0999 V2000
    0.3009    2.7115   -0.0522 Cl  0  0  0  0  0  0  0  0  0  0  0  0
    0.2998   -2.7111    0.0492 Cl  0  0  0  0  0  0  0  0  0  0  0  0
   -0.8028    0.0516    2.7180 Cl  0  0  0  0  0  0  0  0  0  0  0  0
   -0.8023   -0.0507   -2.7173 Cl  0  0  0  0  0  0  0  0  0  0  0  0
    3.4473   -2.7190    0.0502 Cl  0  0  0  0  0  0  0  0  0  0  0  0
    3.4480    2.7184   -0.0500 Cl  0  0  0  0  0  0  0  0  0  0  0  0
    5.0196   -0.0006    0.0012 Cl  0  0  0  0  0  0  0  0  0  0  0  0
   -3.9971   -0.0512   -2.6649 Cl  0  0  0  0  0  0  0  0  0  0  0  0
   -3.9975    0.0499    2.6650 Cl  0  0  0  0  0  0  0  0  0  0  0  0
    0.4852    0.0002    0.0002 C   0  0  0  0  0  0  0  0  0  0  0  0
   -0.9717    0.0004    0.0000 C   0  0  0  0  0  0  0  0  0  0  0  0
    1.1835    1.2079   -0.0223 C   0  0  0  0  0  0  0  0  0  0  0  0
    1.1832   -1.2077    0.0226 C   0  0  0  0  0  0  0  0  0  0  0  0
   -1.6691    0.0229    1.2079 C   0  0  0  0  0  0  0  0  0  0  0  0
   -1.6693   -0.0222   -1.2077 C   0  0  0  0  0  0  0  0  0  0  0  0
    2.5781   -1.2080    0.0225 C   0  0  0  0  0  0  0  0  0  0  0  0
    2.5783    1.2076   -0.0227 C   0  0  0  0  0  0  0  0  0  0  0  0
    3.2758   -0.0003   -0.0001 C   0  0  0  0  0  0  0  0  0  0  0  0
   -3.0643   -0.0223   -1.2075 C   0  0  0  0  0  0  0  0  0  0  0  0
   -3.0640    0.0228    1.2079 C   0  0  0  0  0  0  0  0  0  0  0  0
   -3.7616    0.0001    0.0002 C   0  0  0  0  0  0  0  0  0  0  0  0
  1 12  1  0
  2 13  1  0
  3 14  1  0
  4 15  1  0
  5 16  1  0
  6 17  1  0
  7 18  1  0
  8 19  1  0
  9 20  1  0
 10 11  1  0
 10 12  2  0
 10 13  1  0
 11 14  2  0
 11 15  1  0
 12 17  1  0
 13 16  2  0
 14 20  1  0
 15 19  2  0
 16 18  1  0
 17 18  2  0
 19 21  1  0
 20 21  2  0
M  END
>  <PUBCHEM_COMPOUND_CID>  (1) 
40484

>  <PUBCHEM_CONFORMER_RMSD>  (1) 
0.6

>  <PUBCHEM_CONFORMER_DIVERSEORDER>  (1) 
1

>  <PUBCHEM_MMFF94_PARTIAL_CHARGES>  (1) 
20
1 -0.18
12 0.18
13 0.18
14 0.18
15 0.18
16 0.18
17 0.18
18 0.18
19 0.18
2 -0.18
20 0.18
21 -0.15
22 0.15
3 -0.18
4 -0.18
5 -0.18
6 -0.18
7 -0.18
8 -0.18
9 -0.18

>  <PUBCHEM_EFFECTIVE_ROTOR_COUNT>  (1) 
1

>  <PUBCHEM_PHARMACOPHORE_FEATURES>  (1) 
2
6 10 12 13 16 17 18 rings
6 11 14 15 19 20 21 rings

>  <PUBCHEM_HEAVY_ATOM_COUNT>  (1) 
21

>  <PUBCHEM_ATOM_DEF_STEREO_COUNT>  (1) 
0

>  <PUBCHEM_ATOM_UDEF_STEREO_COUNT>  (1) 
0

>  <PUBCHEM_BOND_DEF_STEREO_COUNT>  (1) 
0

>  <PUBCHEM_BOND_UDEF_STEREO_COUNT>  (1) 
0

>  <PUBCHEM_ISOTOPIC_ATOM_COUNT>  (1) 
0

>  <PUBCHEM_COMPONENT_COUNT>  (1) 
1

>  <PUBCHEM_CACTVS_TAUTO_COUNT>  (1) 
1

>  <PUBCHEM_CONFORMER_ID>  (1) 
00009E2400000001

>  <PUBCHEM_MMFF94_ENERGY>  (1) 
64.0815

>  <PUBCHEM_FEATURE_SELFOVERLAP>  (1) 
10.149

>  <PUBCHEM_SHAPE_FINGERPRINT>  (1) 
10062212 137 17489590052146338259
11582403 64 16812866032612194613
11640471 11 17631472170471061729
11725454 13 17316444527044536309
12236239 1 17775567537377912299
12553582 1 18340211774289412166
12596599 1 17988924444274892822
13009979 54 17489586727578284030
13140716 1 18266459996289284626
13538477 17 16916786240877571771
13583140 156 18343033172707851217
13911987 19 18333734641520972654
13965767 371 17056992600808512073
15309172 13 18336271218576969530
15842332 3 17775567541678232391
16945 1 18410293614688158820
17357779 13 18261108522330049324
1813 80 17914067404108246846
18186145 218 18341334469770447652
18219364 16 18261109711677040434
19049666 15 17604422986068241777
200 152 18271798017024052573
20645477 70 18334566928272509142
20691752 17 17988911310290905424
21033648 29 17822284721169380220
21065201 7 16153426129818587066
21756936 100 17772210840311771464
22112679 90 17418093204559018657
22182313 1 17676207974342524327
23175994 123 18186526483727736476
2334 1 17977947118621473550
23402539 116 18202562873988295452
23419403 2 17967542246002034619
23493267 7 16877936127339946832
23526113 38 17823684296608140530
23557571 272 16805604763369718829
23559900 14 16515958156544776186
23598291 2 17918275367597402373
350125 39 17544201931404563280
4340502 62 18198649742602764515
474 4 18057313093161043536
5265222 85 16371023918743747778
57527295 17 17752749252450452967
6049 1 17676215649501719325
633830 44 18057906777552112764
7615 1 17775560931718354129
77492 1 17775566442145421061
8272917 22 18341902840109804943

>  <PUBCHEM_SHAPE_MULTIPOLES>  (1) 
449
7.8
2.38
2.35
1.53
0
0
0
0
3.25
0
-4.08
0
-0.14

>  <PUBCHEM_SHAPE_SELFOVERLAP>  (1) 
895.278

>  <PUBCHEM_SHAPE_VOLUME>  (1) 
258.4

>  <PUBCHEM_COORDINATE_TYPE>  (1) 
2
5
10

$$$$
