40485
     RDKit          3D

 20 21  0  0  0  0  0  0  0  0999 V2000
   -0.3575   -2.7116   -0.2120 Cl  0  0  0  0  0  0  0  0  0  0  0  0
   -0.3577    2.7119   -0.2101 Cl  0  0  0  0  0  0  0  0  0  0  0  0
    1.0250   -0.0020    2.4091 Cl  0  0  0  0  0  0  0  0  0  0  0  0
   -3.4969    2.7192    0.0173 Cl  0  0  0  0  0  0  0  0  0  0  0  0
   -3.4963   -2.7193    0.0169 Cl  0  0  0  0  0  0  0  0  0  0  0  0
   -5.0644   -0.0003    0.1314 Cl  0  0  0  0  0  0  0  0  0  0  0  0
    4.1693    0.0002    2.0573 Cl  0  0  0  0  0  0  0  0  0  0  0  0
    5.3920   -0.0004   -0.8899 Cl  0  0  0  0  0  0  0  0  0  0  0  0
   -0.5368    0.0001   -0.1964 C   0  0  0  0  0  0  0  0  0  0  0  0
    0.9112    0.0003   -0.3011 C   0  0  0  0  0  0  0  0  0  0  0  0
   -1.2381   -1.2079   -0.1462 C   0  0  0  0  0  0  0  0  0  0  0  0
   -1.2383    1.2081   -0.1455 C   0  0  0  0  0  0  0  0  0  0  0  0
    1.7397   -0.0002    0.8212 C   0  0  0  0  0  0  0  0  0  0  0  0
    1.4689    0.0009   -1.5797 C   0  0  0  0  0  0  0  0  0  0  0  0
   -2.6296    1.2080   -0.0453 C   0  0  0  0  0  0  0  0  0  0  0  0
   -2.6293   -1.2080   -0.0461 C   0  0  0  0  0  0  0  0  0  0  0  0
   -3.3252   -0.0001    0.0045 C   0  0  0  0  0  0  0  0  0  0  0  0
    3.1259   -0.0002    0.6647 C   0  0  0  0  0  0  0  0  0  0  0  0
    2.8549    0.0010   -1.7361 C   0  0  0  0  0  0  0  0  0  0  0  0
    3.6833    0.0003   -0.6140 C   0  0  0  0  0  0  0  0  0  0  0  0
  1 11  1  0
  2 12  1  0
  3 13  1  0
  4 15  1  0
  5 16  1  0
  6 17  1  0
  7 18  1  0
  8 20  1  0
  9 10  1  0
  9 11  2  0
  9 12  1  0
 10 13  2  0
 10 14  1  0
 11 16  1  0
 12 15  2  0
 13 18  1  0
 14 19  2  0
 15 17  1  0
 16 17  2  0
 18 20  2  0
 19 20  1  0
M  END
>  <PUBCHEM_COMPOUND_CID>  (1) 
40485

>  <PUBCHEM_CONFORMER_RMSD>  (1) 
0.6

>  <PUBCHEM_CONFORMER_DIVERSEORDER>  (1) 
1

>  <PUBCHEM_MMFF94_PARTIAL_CHARGES>  (1) 
20
1 -0.18
11 0.18
12 0.18
13 0.18
14 -0.15
15 0.18
16 0.18
17 0.18
18 0.18
19 -0.15
2 -0.18
20 0.18
21 0.15
22 0.15
3 -0.18
4 -0.18
5 -0.18
6 -0.18
7 -0.18
8 -0.18

>  <PUBCHEM_EFFECTIVE_ROTOR_COUNT>  (1) 
1

>  <PUBCHEM_PHARMACOPHORE_FEATURES>  (1) 
2
6 10 13 14 18 19 20 rings
6 9 11 12 15 16 17 rings

>  <PUBCHEM_HEAVY_ATOM_COUNT>  (1) 
20

>  <PUBCHEM_ATOM_DEF_STEREO_COUNT>  (1) 
0

>  <PUBCHEM_ATOM_UDEF_STEREO_COUNT>  (1) 
0

>  <PUBCHEM_BOND_DEF_STEREO_COUNT>  (1) 
0

>  <PUBCHEM_BOND_UDEF_STEREO_COUNT>  (1) 
0

>  <PUBCHEM_ISOTOPIC_ATOM_COUNT>  (1) 
0

>  <PUBCHEM_COMPONENT_COUNT>  (1) 
1

>  <PUBCHEM_CACTVS_TAUTO_COUNT>  (1) 
1

>  <PUBCHEM_CONFORMER_ID>  (1) 
00009E2500000001

>  <PUBCHEM_MMFF94_ENERGY>  (1) 
61.9417

>  <PUBCHEM_FEATURE_SELFOVERLAP>  (1) 
10.149

>  <PUBCHEM_SHAPE_FINGERPRINT>  (1) 
10062212 137 17967249788904704969
10366900 7 17846494816282636973
10411042 1 18122631823529957951
10498660 4 18338798892851837469
11132069 177 18413108368491815367
12011746 2 18341890780084334989
12236239 1 17676209069617038180
12403259 415 17917990559847389200
12553582 1 18335984285103325803
12788726 201 18042692882240095843
13140716 1 18266745869307225025
13538477 17 18113334249592895243
13583140 156 17987778758170836498
13965767 371 17610056767706740580
14178342 30 18410570656900118859
14386348 63 17775573043415339662
15042514 8 18337680840293421119
15219456 202 17489866063877071698
15375462 189 17749380481818811881
16752209 62 18335128826344090687
16945 1 18410858763738682327
17804303 29 18342740766743836115
18186145 218 17846783974908360952
19049666 15 17703236096098701314
19422 9 17821725039865230946
200 152 16587737646664411557
20028762 73 17985272030732631407
20510252 161 18271529697896543313
20600515 1 18268414901413328009
21033648 29 17561073700787552528
21065201 7 18413673495935880414
22112679 90 17967807236941943940
23175994 123 16988852678543325560
2334 1 17978513367125609061
23366157 5 17753893032380255357
23402539 116 18412826905999255910
23493267 7 18340207397052690089
23526113 38 17488754367385204054
23557571 272 18272940396789326124
23559900 14 18199756856264294054
23598288 3 17459738233789666685
23598291 2 17531518794363837818
2748010 2 18122904502544716165
2838139 119 14979407136749083369
350125 39 17617668656946556621
474 4 17024885985579033972
5265222 85 18271257127178387182
59755656 215 18339084782843912783
602551 16 18341046397724275682
77492 1 17676206874915110662
8272917 22 16371000750887987563

>  <PUBCHEM_SHAPE_MULTIPOLES>  (1) 
426.55
8.95
2.47
1.55
2.74
0
0.7
0
-0.14
-3.53
-0.19
2.25
0
0

>  <PUBCHEM_SHAPE_SELFOVERLAP>  (1) 
854.622

>  <PUBCHEM_SHAPE_VOLUME>  (1) 
242.9

>  <PUBCHEM_COORDINATE_TYPE>  (1) 
2
5
10

$$$$
