40498
     RDKit          3D

 24 27  0  0  1  0  0  0  0  0999 V2000
   -3.1677   -0.7552   -0.1169 O   0  0  0  0  0  0  0  0  0  0  0  0
   -1.8677    0.2203   -1.8193 O   0  0  0  0  0  0  0  0  0  0  0  0
    1.4753    2.0767    0.3446 O   0  0  0  0  0  0  0  0  0  0  0  0
   -0.5410   -2.8856    0.8101 O   0  0  0  0  0  0  0  0  0  0  0  0
   -0.8236    2.0648    0.2980 N   0  0  0  0  0  0  0  0  0  0  0  0
   -0.9055   -0.6865    0.0855 N   0  0  0  0  0  0  0  0  0  0  0  0
   -2.8422   -2.8994   -1.1736 N   0  0  0  0  0  0  0  0  0  0  0  0
   -2.0958    1.3608    0.3573 C   0  0  0  0  0  0  0  0  0  0  0  0
   -2.0276    0.0567   -0.4171 C   0  0  0  0  0  0  0  0  0  0  0  0
   -3.1159    2.4114   -0.0805 C   0  0  0  0  0  0  0  0  0  0  0  0
    0.4153   -0.0862    0.2497 C   0  0  0  0  0  0  0  0  0  0  0  0
   -1.0171    3.5059    0.2586 C   0  0  0  0  0  0  0  0  0  0  0  0
   -2.5121    3.6964    0.4863 C   0  0  0  0  0  0  0  0  0  0  0  0
    0.4129    1.4515    0.2997 C   0  0  0  0  0  0  0  0  0  0  0  0
   -2.7269   -2.1142    0.0509 C   0  0  0  0  0  0  0  0  0  0  0  0
   -1.2552   -1.9920    0.3815 C   0  0  0  0  0  0  0  0  0  0  0  0
    1.3568   -0.5600   -0.8574 C   0  0  0  0  0  0  0  0  0  0  0  0
   -3.5116   -2.7459    1.1911 C   0  0  0  0  0  0  0  0  0  0  0  0
    2.7975   -0.4523   -0.4411 C   0  0  0  0  0  0  0  0  0  0  0  0
    3.4988    0.7195   -0.6947 C   0  0  0  0  0  0  0  0  0  0  0  0
    3.4104   -1.5261    0.1916 C   0  0  0  0  0  0  0  0  0  0  0  0
    4.8356    0.8193   -0.3089 C   0  0  0  0  0  0  0  0  0  0  0  0
    4.7472   -1.4264    0.5774 C   0  0  0  0  0  0  0  0  0  0  0  0
    5.4597   -0.2537    0.3271 C   0  0  0  0  0  0  0  0  0  0  0  0
  1  9  1  0
  1 15  1  0
  2  9  1  0
  3 14  2  0
  4 16  2  0
  5  8  1  0
  5 12  1  0
  5 14  1  0
  6  9  1  0
  6 11  1  0
  6 16  1  0
  7 15  1  0
  8  9  1  0
  8 10  1  0
 10 13  1  0
 11 14  1  0
 11 17  1  0
 12 13  1  0
 15 16  1  0
 15 18  1  0
 17 19  1  0
 19 20  2  0
 19 21  1  0
 20 22  1  0
 21 23  2  0
 22 24  2  0
 23 24  1  0
M  END
>  <PUBCHEM_COMPOUND_CID>  (1) 
40498

>  <PUBCHEM_CONFORMER_RMSD>  (1) 
0.6

>  <PUBCHEM_CONFORMER_DIVERSEORDER>  (1) 
1
2
3
4

>  <PUBCHEM_MMFF94_PARTIAL_CHARGES>  (1) 
29
1 -0.56
11 0.36
12 0.3
14 0.57
15 0.61
16 0.57
17 0.14
19 -0.14
2 -0.68
20 -0.15
21 -0.15
22 -0.15
23 -0.15
24 -0.15
3 -0.57
35 0.4
39 0.36
4 -0.57
40 0.36
41 0.15
42 0.15
43 0.15
44 0.15
45 0.15
5 -0.66
6 -0.66
7 -0.99
8 0.3
9 0.86

>  <PUBCHEM_EFFECTIVE_ROTOR_COUNT>  (1) 
3.2

>  <PUBCHEM_PHARMACOPHORE_FEATURES>  (1) 
11
1 1 acceptor
1 2 acceptor
1 2 donor
1 3 acceptor
1 4 acceptor
1 7 cation
1 7 donor
5 1 6 9 15 16 rings
5 5 8 10 12 13 rings
6 19 20 21 22 23 24 rings
6 5 6 8 9 11 14 rings

>  <PUBCHEM_HEAVY_ATOM_COUNT>  (1) 
24

>  <PUBCHEM_ATOM_DEF_STEREO_COUNT>  (1) 
4

>  <PUBCHEM_ATOM_UDEF_STEREO_COUNT>  (1) 
0

>  <PUBCHEM_BOND_DEF_STEREO_COUNT>  (1) 
0

>  <PUBCHEM_BOND_UDEF_STEREO_COUNT>  (1) 
0

>  <PUBCHEM_ISOTOPIC_ATOM_COUNT>  (1) 
0

>  <PUBCHEM_COMPONENT_COUNT>  (1) 
1

>  <PUBCHEM_CACTVS_TAUTO_COUNT>  (1) 
1

>  <PUBCHEM_CONFORMER_ID>  (1) 
00009E3200000001

>  <PUBCHEM_MMFF94_ENERGY>  (1) 
65.4857

>  <PUBCHEM_FEATURE_SELFOVERLAP>  (1) 
56.042

>  <PUBCHEM_SHAPE_FINGERPRINT>  (1) 
10319926 262 18270100329234333218
10411042 1 18195245739917290419
10493431 412 18125447414704472841
10616163 171 18411984637670415118
10906281 52 18201450142520157173
1100329 8 18410860962620208273
11036077 51 18265050219743812555
11315181 36 18186518805196350242
11370993 70 18122342368092164860
11578080 2 17059474361760990857
12107183 9 17902787458684596266
12173636 292 18265897960320313756
12293681 160 18124854791185993605
12553582 1 18268153247763689030
12788726 201 18264789785838213182
13027679 85 18410854412641581253
13052359 8 18336267817094850321
13140716 1 18411989091408946641
13583140 156 17774708793649528690
138480 1 16320906708841896433
14081887 123 18341320180714869576
14178342 30 18335416825587016722
14790565 3 18052545369771833105
14844126 61 18410848854616712850
14866123 147 18337955563064318419
15042514 8 18409456860253210625
17492 89 18408889516865587962
18927931 339 18342742914423014078
19591789 44 18050853212912624017
20101258 96 18338808917147095040
20510252 161 18412269427944958674
20775438 99 16832296740028375511
20832881 197 18264204893519849531
21029758 11 18266454489455882823
21041028 32 18265345082486882771
21049683 271 17539703807759846503
21478907 32 18339078306470443227
22224240 67 18055646023502379433
23227448 37 18340488859456235556
23402539 116 18341043086172569911
23557571 272 18201165369097941572
23558518 356 18261404303974879962
23559900 14 18127410047877193990
23728640 28 18339924792599794515
2748010 2 18269825587985756473
3091708 16 8915984311604418593
3178227 256 18338813208769327697
350125 39 18408609162574193433
352729 6 18268437836422507405
3759504 43 18191025608315831933
4214541 1 18408885097322205846
4340502 62 18049732823791849809
463206 1 17975976780357317530
5104073 3 18411413987193670954
5309563 4 18050292762414274474
7097593 13 17972874766419039602
9709674 26 18199752453706758518

>  <PUBCHEM_SHAPE_MULTIPOLES>  (1) 
455.49
8.5
4.07
0.97
12.16
1.15
-0.2
-1.59
0.51
-5.44
0.84
-0.34
-0.32
-0.32

>  <PUBCHEM_SHAPE_SELFOVERLAP>  (1) 
995.691

>  <PUBCHEM_SHAPE_VOLUME>  (1) 
245.3

>  <PUBCHEM_COORDINATE_TYPE>  (1) 
2
5
10

$$$$
