40495
     RDKit          3D

 10  9  0  0  0  0  0  0  0  0999 V2000
   -0.2793    1.2264    0.7870 O   0  0  0  0  0  0  0  0  0  0  0  0
   -0.9149    0.0213   -1.1906 O   0  0  0  0  0  0  0  0  0  0  0  0
   -0.3053   -1.1581    0.8106 O   0  0  0  0  0  0  0  0  0  0  0  0
    1.4149   -0.0069   -0.3815 C   0  0  0  0  0  0  0  0  0  0  0  0
   -0.1029    0.0267    0.0020 C   0  0  0  0  0  0  0  0  0  0  0  0
    2.3312   -0.0459    0.8517 C   0  0  0  0  0  0  0  0  0  0  0  0
    1.7539   -1.1903   -1.2974 C   0  0  0  0  0  0  0  0  0  0  0  0
    0.0508    2.4338    0.1193 C   0  0  0  0  0  0  0  0  0  0  0  0
   -2.3214    0.0498   -0.9909 C   0  0  0  0  0  0  0  0  0  0  0  0
   -1.6271   -1.3567    1.2897 C   0  0  0  0  0  0  0  0  0  0  0  0
  1  5  1  0
  1  8  1  0
  2  5  1  0
  2  9  1  0
  3  5  1  0
  3 10  1  0
  4  5  1  0
  4  6  1  0
  4  7  1  0
M  END
>  <PUBCHEM_COMPOUND_CID>  (1) 
40495

>  <PUBCHEM_CONFORMER_RMSD>  (1) 
0.6

>  <PUBCHEM_CONFORMER_DIVERSEORDER>  (1) 
2
1

>  <PUBCHEM_MMFF94_PARTIAL_CHARGES>  (1) 
7
1 -0.56
10 0.28
2 -0.56
3 -0.56
5 0.84
8 0.28
9 0.28

>  <PUBCHEM_EFFECTIVE_ROTOR_COUNT>  (1) 
4

>  <PUBCHEM_PHARMACOPHORE_FEATURES>  (1) 
4
1 1 acceptor
1 2 acceptor
1 3 acceptor
3 4 6 7 hydrophobe

>  <PUBCHEM_HEAVY_ATOM_COUNT>  (1) 
10

>  <PUBCHEM_ATOM_DEF_STEREO_COUNT>  (1) 
0

>  <PUBCHEM_ATOM_UDEF_STEREO_COUNT>  (1) 
0

>  <PUBCHEM_BOND_DEF_STEREO_COUNT>  (1) 
0

>  <PUBCHEM_BOND_UDEF_STEREO_COUNT>  (1) 
0

>  <PUBCHEM_ISOTOPIC_ATOM_COUNT>  (1) 
0

>  <PUBCHEM_COMPONENT_COUNT>  (1) 
1

>  <PUBCHEM_CACTVS_TAUTO_COUNT>  (1) 
1

>  <PUBCHEM_CONFORMER_ID>  (1) 
00009E2F00000002

>  <PUBCHEM_MMFF94_ENERGY>  (1) 
39.3276

>  <PUBCHEM_FEATURE_SELFOVERLAP>  (1) 
20.395

>  <PUBCHEM_SHAPE_FINGERPRINT>  (1) 
10702982 57 17255418023814219535
12423570 1 14243164327393159520
137420 1 11735053226461851856
16945 1 17980156955892734820
20711978 78 17982472673483526683
21040471 1 17385996222424136383
23552449 11 17903936786862636843
24536 1 18336562520702513158
29004967 10 18130782390839508807
5084963 1 17534622616535588494
5943 1 8745673593808861661
68250623 7 17696184807839345903

>  <PUBCHEM_SHAPE_MULTIPOLES>  (1) 
188.19
2.69
1.81
1.37
0.14
1.15
-0.09
-0.8
-0.26
-0.13
0.32
-0.17
-0.44
0.61

>  <PUBCHEM_SHAPE_SELFOVERLAP>  (1) 
344.248

>  <PUBCHEM_SHAPE_VOLUME>  (1) 
119.2

>  <PUBCHEM_COORDINATE_TYPE>  (1) 
2
5
10

$$$$
