40494
     RDKit          3D

 11 12  0  0  1  0  0  0  0  0999 V2000
   -3.3101   -0.7370   -0.4599 O   0  0  0  0  0  0  0  0  0  0  0  0
    4.2739   -0.0086   -0.2917 N   0  0  0  0  0  0  0  0  0  0  0  0
   -2.5526    0.0179    0.4866 C   0  0  0  0  0  0  0  0  0  0  0  0
   -3.4142    0.6909   -0.5335 C   0  0  0  0  0  0  0  0  0  0  0  0
   -1.0719    0.0121    0.3177 C   0  0  0  0  0  0  0  0  0  0  0  0
   -0.3741    1.2174    0.2405 C   0  0  0  0  0  0  0  0  0  0  0  0
   -0.3839   -1.1985    0.2369 C   0  0  0  0  0  0  0  0  0  0  0  0
    1.0118    1.2122    0.0826 C   0  0  0  0  0  0  0  0  0  0  0  0
    1.0019   -1.2038    0.0790 C   0  0  0  0  0  0  0  0  0  0  0  0
    1.6998    0.0015    0.0018 C   0  0  0  0  0  0  0  0  0  0  0  0
    3.1194   -0.0040   -0.1600 C   0  0  0  0  0  0  0  0  0  0  0  0
  1  3  1  0
  1  4  1  0
  2 11  3  0
  3  4  1  0
  3  5  1  0
  5  6  2  0
  5  7  1  0
  6  8  1  0
  7  9  2  0
  8 10  2  0
  9 10  1  0
 10 11  1  0
M  END
>  <PUBCHEM_COMPOUND_CID>  (1) 
40494

>  <PUBCHEM_CONFORMER_RMSD>  (1) 
0.4

>  <PUBCHEM_CONFORMER_DIVERSEORDER>  (1) 
2
1

>  <PUBCHEM_MMFF94_PARTIAL_CHARGES>  (1) 
18
1 -0.3
10 0.07
11 0.48
12 0.1
13 0.1
14 0.1
15 0.15
16 0.15
17 0.15
18 0.15
2 -0.56
3 0.08
4 -0.05
5 -0.03
6 -0.15
7 -0.15
8 -0.15
9 -0.15

>  <PUBCHEM_EFFECTIVE_ROTOR_COUNT>  (1) 
1.6

>  <PUBCHEM_PHARMACOPHORE_FEATURES>  (1) 
3
1 1 acceptor
1 2 acceptor
6 5 6 7 8 9 10 rings

>  <PUBCHEM_HEAVY_ATOM_COUNT>  (1) 
11

>  <PUBCHEM_ATOM_DEF_STEREO_COUNT>  (1) 
0

>  <PUBCHEM_ATOM_UDEF_STEREO_COUNT>  (1) 
1

>  <PUBCHEM_BOND_DEF_STEREO_COUNT>  (1) 
0

>  <PUBCHEM_BOND_UDEF_STEREO_COUNT>  (1) 
0

>  <PUBCHEM_ISOTOPIC_ATOM_COUNT>  (1) 
0

>  <PUBCHEM_COMPONENT_COUNT>  (1) 
1

>  <PUBCHEM_CACTVS_TAUTO_COUNT>  (1) 
1

>  <PUBCHEM_CONFORMER_ID>  (1) 
00009E2E00000002

>  <PUBCHEM_MMFF94_ENERGY>  (1) 
20.5216

>  <PUBCHEM_FEATURE_SELFOVERLAP>  (1) 
15.223

>  <PUBCHEM_SHAPE_FINGERPRINT>  (1) 
10219947 1 18411140233929867144
11062470 55 17385444314889486300
11401426 45 18412819183822045976
12032990 46 18412553127656738634
12897270 3 18411979148496138085
13690532 89 18410011031288327330
14325111 11 18409730672639038840
14911166 2 18410575093337422724
14993402 34 18272367581211311526
16945 1 18410863156757042176
19026448 4 15698001812434710104
19026448 5 15719393957904065978
193761 8 17690562309191307586
20201158 50 18409731746444224803
20645476 183 17605012458041243726
21293036 1 18409730668444213942
21501502 16 18120651323165827217
23235685 24 18408318886950582178
23402539 116 18343576326935302884
23402655 69 18266444431338834293
23559900 14 18341615941248801840
2748010 2 18122912198435124560
528886 8 18411132532927022011

>  <PUBCHEM_SHAPE_MULTIPOLES>  (1) 
215.52
5.94
1.24
0.69
1.35
0.01
-0.01
-0.16
1.2
-0.1
-0.04
-0.19
-0.01
0.03

>  <PUBCHEM_SHAPE_SELFOVERLAP>  (1) 
455.602

>  <PUBCHEM_SHAPE_VOLUME>  (1) 
120.1

>  <PUBCHEM_COORDINATE_TYPE>  (1) 
2
5
10

$$$$
