40503
     RDKit          3D

 24 26  0  0  0  0  0  0  0  0999 V2000
    3.3159   -1.7731    0.4111 O   0  0  0  0  0  0  0  0  0  0  0  0
   -0.2597    1.8540    0.6763 O   0  0  0  0  0  0  0  0  0  0  0  0
   -2.8747   -2.6226   -0.6186 O   0  0  0  0  0  0  0  0  0  0  0  0
    2.5705    1.4167   -0.4177 N   0  0  0  0  0  0  0  0  0  0  0  0
    1.2758   -0.5053    0.3952 C   0  0  0  0  0  0  0  0  0  0  0  0
    2.0899    0.6981    0.7607 C   0  0  0  0  0  0  0  0  0  0  0  0
   -0.1115   -0.4648    0.2121 C   0  0  0  0  0  0  0  0  0  0  0  0
   -0.8036   -1.6293   -0.1267 C   0  0  0  0  0  0  0  0  0  0  0  0
    1.9649   -1.7082    0.2388 C   0  0  0  0  0  0  0  0  0  0  0  0
    3.4122    0.5475   -1.2397 C   0  0  0  0  0  0  0  0  0  0  0  0
    3.3092    2.6152   -0.0205 C   0  0  0  0  0  0  0  0  0  0  0  0
   -0.8327    0.8134    0.3795 C   0  0  0  0  0  0  0  0  0  0  0  0
   -2.2967    0.8417    0.1845 C   0  0  0  0  0  0  0  0  0  0  0  0
   -2.9888   -0.3229   -0.1538 C   0  0  0  0  0  0  0  0  0  0  0  0
   -2.2675   -1.6010   -0.3224 C   0  0  0  0  0  0  0  0  0  0  0  0
   -0.1082   -2.8344   -0.2827 C   0  0  0  0  0  0  0  0  0  0  0  0
    1.2744   -2.8703   -0.0996 C   0  0  0  0  0  0  0  0  0  0  0  0
    3.9207    1.2795   -2.4700 C   0  0  0  0  0  0  0  0  0  0  0  0
    2.4314    3.5602    0.7824 C   0  0  0  0  0  0  0  0  0  0  0  0
   -2.9921    2.0468    0.3410 C   0  0  0  0  0  0  0  0  0  0  0  0
   -4.3764   -0.2826   -0.3357 C   0  0  0  0  0  0  0  0  0  0  0  0
   -4.3749    2.0825    0.1590 C   0  0  0  0  0  0  0  0  0  0  0  0
   -5.0656    0.9203   -0.1785 C   0  0  0  0  0  0  0  0  0  0  0  0
    3.7874   -2.0613    1.7253 C   0  0  0  0  0  0  0  0  0  0  0  0
  1  9  1  0
  1 24  1  0
  2 12  2  0
  3 15  2  0
  4  6  1  0
  4 10  1  0
  4 11  1  0
  5  6  1  0
  5  7  2  0
  5  9  1  0
  7  8  1  0
  7 12  1  0
  8 15  1  0
  8 16  2  0
  9 17  2  0
 10 18  1  0
 11 19  1  0
 12 13  1  0
 13 14  2  0
 13 20  1  0
 14 15  1  0
 14 21  1  0
 16 17  1  0
 20 22  2  0
 21 23  2  0
 22 23  1  0
M  END
>  <PUBCHEM_COMPOUND_CID>  (1) 
40503

>  <PUBCHEM_CONFORMER_RMSD>  (1) 
0.8

>  <PUBCHEM_CONFORMER_DIVERSEORDER>  (1) 
2
3
4
1

>  <PUBCHEM_MMFF94_PARTIAL_CHARGES>  (1) 
28
1 -0.36
10 0.27
11 0.27
12 0.4
13 0.09
14 0.09
15 0.4
16 -0.15
17 -0.15
2 -0.57
20 -0.15
21 -0.15
22 -0.15
23 -0.15
24 0.28
3 -0.57
31 0.15
32 0.15
39 0.15
4 -0.81
40 0.15
41 0.15
42 0.15
5 -0.14
6 0.41
7 0.09
8 0.09
9 0.08

>  <PUBCHEM_EFFECTIVE_ROTOR_COUNT>  (1) 
5

>  <PUBCHEM_PHARMACOPHORE_FEATURES>  (1) 
7
1 1 acceptor
1 2 acceptor
1 3 acceptor
1 4 cation
6 13 14 20 21 22 23 rings
6 5 7 8 9 16 17 rings
6 7 8 12 13 14 15 rings

>  <PUBCHEM_HEAVY_ATOM_COUNT>  (1) 
24

>  <PUBCHEM_ATOM_DEF_STEREO_COUNT>  (1) 
0

>  <PUBCHEM_ATOM_UDEF_STEREO_COUNT>  (1) 
0

>  <PUBCHEM_BOND_DEF_STEREO_COUNT>  (1) 
0

>  <PUBCHEM_BOND_UDEF_STEREO_COUNT>  (1) 
0

>  <PUBCHEM_ISOTOPIC_ATOM_COUNT>  (1) 
0

>  <PUBCHEM_COMPONENT_COUNT>  (1) 
1

>  <PUBCHEM_CACTVS_TAUTO_COUNT>  (1) 
1

>  <PUBCHEM_CONFORMER_ID>  (1) 
00009E3700000002

>  <PUBCHEM_MMFF94_ENERGY>  (1) 
89.9131

>  <PUBCHEM_FEATURE_SELFOVERLAP>  (1) 
35.564

>  <PUBCHEM_SHAPE_FINGERPRINT>  (1) 
10411042 1 17619630177364799119
10498660 4 18339359798463681221
10616163 171 18340486763622724303
10759866 29 18260272961953894614
10967382 1 18197212547191354291
1100329 8 18410568449023490226
12173636 292 18267582584212196973
12403260 363 18340472384246232139
13140716 1 18410003330153678579
13583140 156 17169263733600532787
138480 1 18124031234810265266
14955137 171 18265050237435761634
15196674 1 18411976954142389795
16945 1 18269559334135798595
17134986 127 18410296947224454796
17980427 23 18127663033945368578
1813 80 17534340046980969154
18186145 218 18130239253660024656
18336668 15 18115865209939107636
18681886 176 18342731884889111930
19591789 44 17690843784416139587
20510252 161 17983299510670359345
20715895 44 17759513371044696549
21267235 1 18341615850638166539
21304253 335 18339911667844564690
21501502 16 18410005554941495227
21864079 5 18340766043580814551
22393880 68 18341899640011133620
2334 1 18340763853116085507
23366157 5 18186793703955612842
23558518 356 17975134550249490444
23559900 14 18131636694785219900
25147074 1 18334849532868050430
2748010 2 17044003365506411099
335352 9 18268424625256202863
345986 75 16883548953953731370
350125 39 18410007719504389376
394222 165 18187920724785577762
474 4 17676494976957858892
5104073 3 18408324372267476233
6034566 193 16664616741114242532
633830 44 18131070459018709213
67856867 119 18338222838757614648
7097593 13 18116698621882886762
7364860 26 18411696565439061704
9709674 26 17912372231702662572
9981440 41 17975403930635382112

>  <PUBCHEM_SHAPE_MULTIPOLES>  (1) 
471.32
8.55
3.79
1.2
5.03
0.18
0.45
3.46
1.17
-2.09
-0.45
-1.8
0.22
-1.44

>  <PUBCHEM_SHAPE_SELFOVERLAP>  (1) 
1028.364

>  <PUBCHEM_SHAPE_VOLUME>  (1) 
256.7

>  <PUBCHEM_COORDINATE_TYPE>  (1) 
2
5
10

$$$$
