40504
     RDKit          3D

 24 27  0  0  0  0  0  0  0  0999 V2000
   -3.1390   -1.9532   -0.3870 O   0  0  0  0  0  0  0  0  0  0  0  0
    0.2882    1.7812   -0.9536 O   0  0  0  0  0  0  0  0  0  0  0  0
    3.0393   -2.3940    0.9317 O   0  0  0  0  0  0  0  0  0  0  0  0
   -2.5570    1.3370    0.0885 N   0  0  0  0  0  0  0  0  0  0  0  0
   -3.3883    2.4285   -0.4184 C   0  0  0  0  0  0  0  0  0  0  0  0
   -3.4310    0.5776    0.9821 C   0  0  0  0  0  0  0  0  0  0  0  0
   -4.1463    2.8836    0.8200 C   0  0  0  0  0  0  0  0  0  0  0  0
   -4.1713    1.6682    1.7418 C   0  0  0  0  0  0  0  0  0  0  0  0
   -2.0060    0.5161   -0.9795 C   0  0  0  0  0  0  0  0  0  0  0  0
   -1.1562   -0.5991   -0.4519 C   0  0  0  0  0  0  0  0  0  0  0  0
    0.2206   -0.4742   -0.2303 C   0  0  0  0  0  0  0  0  0  0  0  0
    0.9480   -1.5596    0.2626 C   0  0  0  0  0  0  0  0  0  0  0  0
   -1.7994   -1.8070   -0.1800 C   0  0  0  0  0  0  0  0  0  0  0  0
    0.8930    0.8085   -0.5207 C   0  0  0  0  0  0  0  0  0  0  0  0
    2.3462    0.9262   -0.2834 C   0  0  0  0  0  0  0  0  0  0  0  0
    0.2986   -2.7699    0.5340 C   0  0  0  0  0  0  0  0  0  0  0  0
   -1.0736   -2.8899    0.3120 C   0  0  0  0  0  0  0  0  0  0  0  0
    2.4011   -1.4417    0.5004 C   0  0  0  0  0  0  0  0  0  0  0  0
    3.0737   -0.1592    0.2090 C   0  0  0  0  0  0  0  0  0  0  0  0
    2.9957    2.1365   -0.5554 C   0  0  0  0  0  0  0  0  0  0  0  0
    4.4508   -0.0346    0.4293 C   0  0  0  0  0  0  0  0  0  0  0  0
    4.3680    2.2562   -0.3344 C   0  0  0  0  0  0  0  0  0  0  0  0
    5.0940    1.1731    0.1567 C   0  0  0  0  0  0  0  0  0  0  0  0
   -3.5488   -2.4104   -1.6737 C   0  0  0  0  0  0  0  0  0  0  0  0
  1 13  1  0
  1 24  1  0
  2 14  2  0
  3 18  2  0
  4  5  1  0
  4  6  1  0
  4  9  1  0
  5  7  1  0
  6  8  1  0
  7  8  1  0
  9 10  1  0
 10 11  1  0
 10 13  2  0
 11 12  2  0
 11 14  1  0
 12 16  1  0
 12 18  1  0
 13 17  1  0
 14 15  1  0
 15 19  2  0
 15 20  1  0
 16 17  2  0
 18 19  1  0
 19 21  1  0
 20 22  2  0
 21 23  2  0
 22 23  1  0
M  END
>  <PUBCHEM_COMPOUND_CID>  (1) 
40504

>  <PUBCHEM_CONFORMER_RMSD>  (1) 
0.8

>  <PUBCHEM_CONFORMER_DIVERSEORDER>  (1) 
2
1

>  <PUBCHEM_MMFF94_PARTIAL_CHARGES>  (1) 
28
1 -0.36
10 -0.14
11 0.09
12 0.09
13 0.08
14 0.4
15 0.09
16 -0.15
17 -0.15
18 0.4
19 0.09
2 -0.57
20 -0.15
21 -0.15
22 -0.15
23 -0.15
24 0.28
3 -0.57
35 0.15
36 0.15
37 0.15
38 0.15
39 0.15
4 -0.81
40 0.15
5 0.27
6 0.27
9 0.41

>  <PUBCHEM_EFFECTIVE_ROTOR_COUNT>  (1) 
4

>  <PUBCHEM_PHARMACOPHORE_FEATURES>  (1) 
8
1 1 acceptor
1 2 acceptor
1 3 acceptor
1 4 cation
5 4 5 6 7 8 rings
6 10 11 12 13 16 17 rings
6 11 12 14 15 18 19 rings
6 15 19 20 21 22 23 rings

>  <PUBCHEM_HEAVY_ATOM_COUNT>  (1) 
24

>  <PUBCHEM_ATOM_DEF_STEREO_COUNT>  (1) 
0

>  <PUBCHEM_ATOM_UDEF_STEREO_COUNT>  (1) 
0

>  <PUBCHEM_BOND_DEF_STEREO_COUNT>  (1) 
0

>  <PUBCHEM_BOND_UDEF_STEREO_COUNT>  (1) 
0

>  <PUBCHEM_ISOTOPIC_ATOM_COUNT>  (1) 
0

>  <PUBCHEM_COMPONENT_COUNT>  (1) 
1

>  <PUBCHEM_CACTVS_TAUTO_COUNT>  (1) 
1

>  <PUBCHEM_CONFORMER_ID>  (1) 
00009E3800000002

>  <PUBCHEM_MMFF94_ENERGY>  (1) 
87.9641

>  <PUBCHEM_FEATURE_SELFOVERLAP>  (1) 
40.64

>  <PUBCHEM_SHAPE_FINGERPRINT>  (1) 
10382601 240 18041279864132765258
10493431 412 18409733949757374384
10967382 1 18190733151197045966
1100329 8 18265328400744533178
11578080 2 16628314036961387639
12107183 9 18123185706390173226
12390115 104 18340220673250633340
12403260 363 18266167521563854876
12422481 6 18116693150900926296
12633257 1 18263350426755076274
12788726 201 18058997493546023759
13140716 1 18262800657492264818
13540713 5 18337941333869405714
13583140 156 16081353177326060380
14178342 30 18263358260685928936
14790565 3 18261686960331640108
14955137 171 17902238810439955642
15196674 1 18335977645299676814
15209294 21 18412267245990860816
15475509 35 16371860512898291368
15475509 8 17482290223015027254
16945 1 18047176467403911862
19591789 44 17760931736501218094
20157964 124 18120933907210133429
20510252 161 18268430311692364019
20691752 17 17821445742764038830
20739085 24 17971487208213890028
20775438 99 15679104875361705199
21236236 1 18340205297198914644
21267235 1 18189617310267485054
21501502 16 18410285917484713998
21731228 192 18336554841153353259
21756936 100 18271807951631873060
23184049 59 18190465960859626997
2334 1 18334850645238031062
23402539 116 18126561451985230767
23558518 356 18261681466398373338
23559900 14 17833262404860837316
23845131 108 18260553277954256107
25147074 1 18338784667682581251
2748010 2 17040055556090402486
283562 15 18266733757104486719
335352 9 18336543807999620014
350125 39 18410575132372092345
474 4 18338796693775353713
5048184 11 18410858741557483841
5104073 3 18335412509340005272
633830 44 18128821837264317901
6438718 38 18131356349115824479
70251023 43 17271429511823060327
7064713 232 18411129234724708080
7832392 63 18410855417479370606
9709674 26 18339364171020288342

>  <PUBCHEM_SHAPE_MULTIPOLES>  (1) 
471.32
9.13
3.69
1.12
3.39
0.71
-0.02
-5.88
-1.34
-2.3
-0.16
-1.07
-0.01
-2.16

>  <PUBCHEM_SHAPE_SELFOVERLAP>  (1) 
1049.244

>  <PUBCHEM_SHAPE_VOLUME>  (1) 
251.2

>  <PUBCHEM_COORDINATE_TYPE>  (1) 
2
5
10

$$$$
