40517
     RDKit          3D

 18 19  0  0  0  0  0  0  0  0999 V2000
   -0.5108    2.5658   -0.3898 Cl  0  0  0  0  0  0  0  0  0  0  0  0
    1.0629   -0.5567   -2.4023 Cl  0  0  0  0  0  0  0  0  0  0  0  0
    0.4162    0.4222    2.9293 Cl  0  0  0  0  0  0  0  0  0  0  0  0
   -3.6827    2.3101   -0.7433 Cl  0  0  0  0  0  0  0  0  0  0  0  0
   -3.3746   -2.9516    0.2608 Cl  0  0  0  0  0  0  0  0  0  0  0  0
    4.2256   -0.4514   -1.9454 Cl  0  0  0  0  0  0  0  0  0  0  0  0
   -0.5670   -0.1072    0.0935 C   0  0  0  0  0  0  0  0  0  0  0  0
    0.8736   -0.0654    0.2685 C   0  0  0  0  0  0  0  0  0  0  0  0
   -1.3119    1.0325   -0.2097 C   0  0  0  0  0  0  0  0  0  0  0  0
   -1.2047   -1.3392    0.2389 C   0  0  0  0  0  0  0  0  0  0  0  0
    1.7270   -0.2607   -0.8205 C   0  0  0  0  0  0  0  0  0  0  0  0
    1.4122    0.1718    1.5356 C   0  0  0  0  0  0  0  0  0  0  0  0
   -2.6949    0.9402   -0.3674 C   0  0  0  0  0  0  0  0  0  0  0  0
   -2.5874   -1.4315    0.0811 C   0  0  0  0  0  0  0  0  0  0  0  0
    3.1100   -0.2188   -0.6433 C   0  0  0  0  0  0  0  0  0  0  0  0
    2.7952    0.2136    1.7126 C   0  0  0  0  0  0  0  0  0  0  0  0
   -3.3326   -0.2919   -0.2220 C   0  0  0  0  0  0  0  0  0  0  0  0
    3.6441    0.0182    0.6233 C   0  0  0  0  0  0  0  0  0  0  0  0
  1  9  1  0
  2 11  1  0
  3 12  1  0
  4 13  1  0
  5 14  1  0
  6 15  1  0
  7  8  1  0
  7  9  2  0
  7 10  1  0
  8 11  2  0
  8 12  1  0
  9 13  1  0
 10 14  2  0
 11 15  1  0
 12 16  2  0
 13 17  2  0
 14 17  1  0
 15 18  2  0
 16 18  1  0
M  END
>  <PUBCHEM_COMPOUND_CID>  (1) 
40517

>  <PUBCHEM_CONFORMER_RMSD>  (1) 
0.6

>  <PUBCHEM_CONFORMER_DIVERSEORDER>  (1) 
1
2

>  <PUBCHEM_MMFF94_PARTIAL_CHARGES>  (1) 
20
1 -0.18
10 -0.15
11 0.18
12 0.18
13 0.18
14 0.18
15 0.18
16 -0.15
17 -0.15
18 -0.15
19 0.15
2 -0.18
20 0.15
21 0.15
22 0.15
3 -0.18
4 -0.18
5 -0.18
6 -0.18
9 0.18

>  <PUBCHEM_EFFECTIVE_ROTOR_COUNT>  (1) 
1

>  <PUBCHEM_PHARMACOPHORE_FEATURES>  (1) 
2
6 7 9 10 13 14 17 rings
6 8 11 12 15 16 18 rings

>  <PUBCHEM_HEAVY_ATOM_COUNT>  (1) 
18

>  <PUBCHEM_ATOM_DEF_STEREO_COUNT>  (1) 
0

>  <PUBCHEM_ATOM_UDEF_STEREO_COUNT>  (1) 
0

>  <PUBCHEM_BOND_DEF_STEREO_COUNT>  (1) 
0

>  <PUBCHEM_BOND_UDEF_STEREO_COUNT>  (1) 
0

>  <PUBCHEM_ISOTOPIC_ATOM_COUNT>  (1) 
0

>  <PUBCHEM_COMPONENT_COUNT>  (1) 
1

>  <PUBCHEM_CACTVS_TAUTO_COUNT>  (1) 
1

>  <PUBCHEM_CONFORMER_ID>  (1) 
00009E4500000001

>  <PUBCHEM_MMFF94_ENERGY>  (1) 
50.8939

>  <PUBCHEM_FEATURE_SELFOVERLAP>  (1) 
10.149

>  <PUBCHEM_SHAPE_FINGERPRINT>  (1) 
11543360 7 18263097633596439910
11582403 64 16474794644171075281
11640471 11 17313952896204476805
11796584 16 18340210666314853382
12236239 1 17313381214529359602
12553582 1 18116717511697557075
12714826 92 18272097127194853555
13009979 54 17604413125139965434
13134695 92 16415474948259617376
13140716 1 18191305090902042467
13538477 17 17967802821762939001
13583140 156 17984104220338566650
15219456 202 17847056701020891274
15775835 57 17313393279182496580
16752209 62 18115289173183841019
16945 1 18410852122970429288
18175812 5 17988638614290585580
18186145 218 18060420166390499704
18219364 16 17060044990936484490
19049666 15 17917433060202068339
19422 9 17458338632860053962
20600515 1 18337935831821361257
20645477 70 16845569794873162022
20871999 31 18335428988380387815
21061003 4 16773809094565377246
21618674 53 17603876563370703521
21639500 275 16056018264425885272
21756936 100 16806476672149129300
22112679 90 17676759911936475685
22802520 49 18130229246285770764
23175994 123 17275112721078146072
23184049 29 18117832420734927557
23402539 116 18339066104083467548
23419403 2 17775000245149342617
23493267 7 18411140190769295111
23526113 38 17632004269642402858
23557571 272 18342172288824866816
23559900 14 18340770330596570670
23598291 2 17095515154597198943
23598294 1 18187078447433999827
2748010 2 18059846307299196221
350125 39 15763547231256337186
474 4 16443641197921466716
568465 68 17561084747512152002
6049 1 18059858410506454665
621550 5 17986690348622044755
6442390 28 17981899540537829937
7615 1 17313089869744183038
77492 1 17313097544871892034
88987 49 18334286548596575581
9981440 41 17101735337216795388

>  <PUBCHEM_SHAPE_MULTIPOLES>  (1) 
381.65
6.75
2.21
2.13
1.18
0.04
-0.72
1
1.94
-3.6
0.29
2.15
-0.07
1.07

>  <PUBCHEM_SHAPE_SELFOVERLAP>  (1) 
774.917

>  <PUBCHEM_SHAPE_VOLUME>  (1) 
216.6

>  <PUBCHEM_COORDINATE_TYPE>  (1) 
2
5
10

$$$$
