40512
     RDKit          3D

 15 14  0  0  0  0  0  0  0  0999 V2000
    3.9576    0.0689    0.3807 O   0  0  0  0  0  0  0  0  0  0  0  0
   -2.6932    2.7411   -1.0497 O   0  0  0  0  0  0  0  0  0  0  0  0
    4.9509   -1.3875   -1.1125 O   0  0  0  0  0  0  0  0  0  0  0  0
   -2.1369    1.0164    0.0297 N   0  0  0  0  0  0  0  0  0  0  0  0
   -2.9200    2.0785   -0.0302 N   0  0  0  0  0  0  0  0  0  0  0  0
   -0.8203    1.2666    0.6044 C   0  0  0  0  0  0  0  0  0  0  0  0
    0.2347    0.4090   -0.0922 C   0  0  0  0  0  0  0  0  0  0  0  0
   -2.7886   -0.0940    0.7387 C   0  0  0  0  0  0  0  0  0  0  0  0
   -3.6999   -0.8687   -0.2118 C   0  0  0  0  0  0  0  0  0  0  0  0
    1.6217    0.6495    0.5014 C   0  0  0  0  0  0  0  0  0  0  0  0
   -4.3720   -2.0426    0.5012 C   0  0  0  0  0  0  0  0  0  0  0  0
    2.6886   -0.1692   -0.2135 C   0  0  0  0  0  0  0  0  0  0  0  0
   -5.3081   -2.7976   -0.4290 C   0  0  0  0  0  0  0  0  0  0  0  0
    5.0099   -0.6091   -0.1703 C   0  0  0  0  0  0  0  0  0  0  0  0
    6.2757   -0.2614    0.5530 C   0  0  0  0  0  0  0  0  0  0  0  0
  1 12  1  0
  1 14  1  0
  2  5  2  0
  3 14  2  0
  4  5  1  0
  4  6  1  0
  4  8  1  0
  6  7  1  0
  7 10  1  0
  8  9  1  0
  9 11  1  0
 10 12  1  0
 11 13  1  0
 14 15  1  0
M  END
>  <PUBCHEM_COMPOUND_CID>  (1) 
40512

>  <PUBCHEM_CONFORMER_RMSD>  (1) 
0.8

>  <PUBCHEM_CONFORMER_DIVERSEORDER>  (1) 
1
34
205
114
393
271
171
397
231
172
66
203
405
379
55
323
7
10
160
186
8
208
33
90
210
361
322
263
94
311
365
281
217
15
107
141
319
296
40
87
407
234
305
233
45
26
167
250
83
159
80
44
332
242
335
317
306
57
103
344
189
243
369
230
370
350
41
342
190
188
51
3
12
374
314
358
352
168
256
25
139
226
84
251
340
151
312
240
149
395
218
197
292
388
9
11
143
237
85
121
46
142
321
148
135
23
267
375
362
337
181
37
360
144
248
93
346
320
105
303
4
284
126
92
329
216
278
253
223
359
246
49
118
174
309
214
137
270
95
265
17
39
300
336
386
394
29
410
119
156
228
224
373
145
299
193
13
170
150
2
324
235
166
308
99
368
209
287
62
98
268
116
391
101
19
43
147
104
31
273
6
212
86
341
409
157
215
108
161
28
14
183
288
112
401
338
81
249
247
387
74
291
164
258
327
399
355
59
366
97
377
229
255
133
61
138
20
198
259
184
134
110
290
227
53
96
289
48
349
185
402
88
16
238
357
318
351
325
194
200
348
353
178
175
232
276
71
52
272
403
30
102
120
252
70
65
378
64
244
277
69
297
400
275
262
78
282
5
283
89
162
339
117
122
179
343
58
280
236
371
382
100
22
36
392
91
260
128
380
72
408
130
241
124
302
264
404
239
293
364
356
56
76
63
213
73
155
294
140
54
384
261
113
372
304
182
106
201
152
383
354
195
192
165
115
285
257
77
153
269
176
225
132
109
50
202
254
196
390
204
326
158
18
163
82
68
310
129
27
301
32
75
274
313
363
333
125
60
315
199
286
328
347
389
47
146
345
221
21
127
381
220
385
266
406
24
187
245
307
177
295
279
173
35
169
131
191
180
298
398
67
111
331
206
38
207
376
136
330
154
334
396
211
123
222
79
42
219
316
367

>  <PUBCHEM_MMFF94_PARTIAL_CHARGES>  (1) 
10
1 -0.43
12 0.28
14 0.66
15 0.06
2 -0.16
3 -0.57
4 -0.36
5 -0.01
6 0.27
8 0.27

>  <PUBCHEM_EFFECTIVE_ROTOR_COUNT>  (1) 
10

>  <PUBCHEM_PHARMACOPHORE_FEATURES>  (1) 
2
1 13 hydrophobe
1 3 acceptor

>  <PUBCHEM_HEAVY_ATOM_COUNT>  (1) 
15

>  <PUBCHEM_ATOM_DEF_STEREO_COUNT>  (1) 
0

>  <PUBCHEM_ATOM_UDEF_STEREO_COUNT>  (1) 
0

>  <PUBCHEM_BOND_DEF_STEREO_COUNT>  (1) 
0

>  <PUBCHEM_BOND_UDEF_STEREO_COUNT>  (1) 
0

>  <PUBCHEM_ISOTOPIC_ATOM_COUNT>  (1) 
0

>  <PUBCHEM_COMPONENT_COUNT>  (1) 
1

>  <PUBCHEM_CACTVS_TAUTO_COUNT>  (1) 
1

>  <PUBCHEM_CONFORMER_ID>  (1) 
00009E4000000001

>  <PUBCHEM_MMFF94_ENERGY>  (1) 
13.5119

>  <PUBCHEM_FEATURE_SELFOVERLAP>  (1) 
10.148

>  <PUBCHEM_SHAPE_FINGERPRINT>  (1) 
10680689 15 18261119525851736136
10912923 1 17821730507933533680
11809386 21 18187639185200072371
12916754 54 18340771524017489945
14251718 22 18410576202172227520
14251732 16 18340484573674609336
14508225 48 18188482588524203757
17539 30 18335410271693939037
17834072 33 18334300881493513508
193927 3 18336838583720036267
1986462 14 18410014299573940196
20374829 77 18410009979285181467
20621476 21 18059871549260469038
21054139 6 18114178640765046282
21426921 1 18335981987200863837
21728266 224 18188199932077694946
22896161 15 18340486772687081392
23402539 116 17385726876355993665
23559900 14 18410844482419197969
23590187 135 18341895216426959426
3014063 24 17702660107390156143
5104073 3 17917148295876670970
58051976 100 18409163286279994877
59345605 10 18341894112588657466
59755656 520 18197216937249863105
77188 2 18195245744929649961

>  <PUBCHEM_SHAPE_MULTIPOLES>  (1) 
281.12
14.34
2.48
0.86
13.79
0.32
-0.06
-10.53
-0.48
-4.93
-0.64
0.06
0.03
0.72

>  <PUBCHEM_SHAPE_SELFOVERLAP>  (1) 
520.311

>  <PUBCHEM_SHAPE_VOLUME>  (1) 
177.9

>  <PUBCHEM_COORDINATE_TYPE>  (1) 
2
5
10

$$$$
