40510
     RDKit          3D

 22 25  0  0  0  0  0  0  0  0999 V2000
   -3.0568   -1.8728    0.2850 O   0  0  0  0  0  0  0  0  0  0  0  0
   -2.3020    1.4356    0.0504 N   0  0  0  0  0  0  0  0  0  0  0  0
   -3.0537    2.5364    0.6523 C   0  0  0  0  0  0  0  0  0  0  0  0
   -3.2380    0.7980   -0.8752 C   0  0  0  0  0  0  0  0  0  0  0  0
   -3.8008    3.1271   -0.5342 C   0  0  0  0  0  0  0  0  0  0  0  0
   -3.9251    1.9838   -1.5365 C   0  0  0  0  0  0  0  0  0  0  0  0
   -1.7844    0.5072    1.0445 C   0  0  0  0  0  0  0  0  0  0  0  0
   -1.0153   -0.6175    0.4174 C   0  0  0  0  0  0  0  0  0  0  0  0
    0.3674   -0.5194    0.1902 C   0  0  0  0  0  0  0  0  0  0  0  0
   -1.7155   -1.7718    0.0659 C   0  0  0  0  0  0  0  0  0  0  0  0
    1.0489   -1.6057   -0.4012 C   0  0  0  0  0  0  0  0  0  0  0  0
    1.0867    0.6360    0.5388 C   0  0  0  0  0  0  0  0  0  0  0  0
    2.4697    0.7334    0.3114 C   0  0  0  0  0  0  0  0  0  0  0  0
    0.3290   -2.7607   -0.7492 C   0  0  0  0  0  0  0  0  0  0  0  0
   -1.0441   -2.8420   -0.5167 C   0  0  0  0  0  0  0  0  0  0  0  0
    2.4318   -1.5083   -0.6287 C   0  0  0  0  0  0  0  0  0  0  0  0
    3.1511   -0.3530   -0.2802 C   0  0  0  0  0  0  0  0  0  0  0  0
    3.1896    1.8881    0.6599 C   0  0  0  0  0  0  0  0  0  0  0  0
    4.5339   -0.2549   -0.5071 C   0  0  0  0  0  0  0  0  0  0  0  0
    4.5628    1.9694    0.4277 C   0  0  0  0  0  0  0  0  0  0  0  0
    5.2342    0.8992   -0.1551 C   0  0  0  0  0  0  0  0  0  0  0  0
   -3.4693   -2.4079    1.5407 C   0  0  0  0  0  0  0  0  0  0  0  0
  1 10  1  0
  1 22  1  0
  2  3  1  0
  2  4  1  0
  2  7  1  0
  3  5  1  0
  4  6  1  0
  5  6  1  0
  7  8  1  0
  8  9  1  0
  8 10  2  0
  9 11  2  0
  9 12  1  0
 10 15  1  0
 11 14  1  0
 11 16  1  0
 12 13  2  0
 13 17  1  0
 13 18  1  0
 14 15  2  0
 16 17  2  0
 17 19  1  0
 18 20  2  0
 19 21  2  0
 20 21  1  0
M  END
>  <PUBCHEM_COMPOUND_CID>  (1) 
40510

>  <PUBCHEM_CONFORMER_RMSD>  (1) 
0.6

>  <PUBCHEM_CONFORMER_DIVERSEORDER>  (1) 
1
3
2
4
5
6

>  <PUBCHEM_MMFF94_PARTIAL_CHARGES>  (1) 
24
1 -0.36
10 0.08
12 -0.15
14 -0.15
15 -0.15
16 -0.15
18 -0.15
19 -0.15
2 -0.81
20 -0.15
21 -0.15
22 0.28
3 0.27
33 0.15
34 0.15
35 0.15
36 0.15
37 0.15
38 0.15
39 0.15
4 0.27
40 0.15
7 0.41
8 -0.14

>  <PUBCHEM_EFFECTIVE_ROTOR_COUNT>  (1) 
4

>  <PUBCHEM_PHARMACOPHORE_FEATURES>  (1) 
6
1 1 acceptor
1 2 cation
5 2 3 4 5 6 rings
6 13 17 18 19 20 21 rings
6 8 9 10 11 14 15 rings
6 9 11 12 13 16 17 rings

>  <PUBCHEM_HEAVY_ATOM_COUNT>  (1) 
22

>  <PUBCHEM_ATOM_DEF_STEREO_COUNT>  (1) 
0

>  <PUBCHEM_ATOM_UDEF_STEREO_COUNT>  (1) 
0

>  <PUBCHEM_BOND_DEF_STEREO_COUNT>  (1) 
0

>  <PUBCHEM_BOND_UDEF_STEREO_COUNT>  (1) 
0

>  <PUBCHEM_ISOTOPIC_ATOM_COUNT>  (1) 
0

>  <PUBCHEM_COMPONENT_COUNT>  (1) 
1

>  <PUBCHEM_CACTVS_TAUTO_COUNT>  (1) 
1

>  <PUBCHEM_CONFORMER_ID>  (1) 
00009E3E00000001

>  <PUBCHEM_MMFF94_ENERGY>  (1) 
79.3289

>  <PUBCHEM_FEATURE_SELFOVERLAP>  (1) 
30.499

>  <PUBCHEM_SHAPE_FINGERPRINT>  (1) 
10498660 4 18410572885967377716
105312 117 18261390005575032300
10608611 8 18342177803926540472
10646746 165 18409449193810433628
10670039 82 18191323760961835628
10688039 33 18117845631980847539
11045515 52 17694486444811748815
11370993 70 18340481188428113628
11725454 13 17677607549839807085
12107183 9 18117826717340262034
12173636 292 18411697703236045837
12403259 226 17913205648604916314
12403259 415 18200878491168683568
12403814 3 18268718392476936939
12730499 353 18266465296026155233
12769317 202 17978776918534725109
12788726 201 18117825818938216707
13140716 1 18339086973393018234
13464514 151 18197780994407320477
13583140 156 17603307029011021241
14142880 1 18187072984114345213
14251751 93 18409729603545577834
14508225 48 17480284013209739399
14713325 29 18336271210271780843
14848178 96 18267860597229430588
16752209 62 18269539671743914530
18186145 218 18059307512774578120
20510252 161 18270966854921366899
21033648 144 18262228933052559388
21033648 29 18272080643374213640
21279426 13 18270974445167900126
22182313 1 18341909484123811046
22182937 141 18412270510472090969
22393880 68 18342177748192465574
22907989 373 18267301121956890469
23227448 37 18410573993952772429
23557571 272 18334863847930270317
23559900 14 18201441312526319318
23566358 2 18130799953266945382
238 59 17845919767343143317
23845131 108 18046921385882112753
25 1 18196371412163745613
2748010 2 18342186552337462199
283562 15 18262798587835246355
3187 122 18041848440583027729
350125 39 18340779237583230424
4371632 12 14904207391544789344
474 4 18197211439179592529
5104073 3 18409729569570870976
559249 180 18409444770532533410
633830 44 17630905814539781496
84936 182 17984411949881008817
9981440 41 18339347600746160867

>  <PUBCHEM_SHAPE_MULTIPOLES>  (1) 
441.9
9.18
3.62
1.09
5.91
0.28
-0.02
-6.32
0.67
-3.51
0.21
-0.92
0.01
1.85

>  <PUBCHEM_SHAPE_SELFOVERLAP>  (1) 
979.64

>  <PUBCHEM_SHAPE_VOLUME>  (1) 
239.3

>  <PUBCHEM_COORDINATE_TYPE>  (1) 
2
5
10

$$$$
