40526
     RDKit          3D

 20 22  0  0  1  0  0  0  0  0999 V2000
    2.1343   -0.7591   -1.7373 S   0  0  0  0  0  0  0  0  0  0  0  0
    2.1241   -0.9093    0.9712 O   0  0  0  0  0  0  0  0  0  0  0  0
   -5.8739    1.4144   -0.3741 O   0  0  0  0  0  0  0  0  0  0  0  0
   -3.7627    1.8172   -1.0922 O   0  0  0  0  0  0  0  0  0  0  0  0
    1.4449   -1.4317   -0.1988 C   0  0  0  0  0  0  0  0  0  0  0  0
   -0.0027   -1.1049   -0.0752 C   0  0  0  0  0  0  0  0  0  0  0  0
   -2.7167   -0.4918    0.1552 C   0  0  0  0  0  0  0  0  0  0  0  0
   -4.1663   -0.1639    0.2784 C   0  0  0  0  0  0  0  0  0  0  0  0
   -0.9632   -1.9807   -0.5838 C   0  0  0  0  0  0  0  0  0  0  0  0
   -0.4021    0.0782    0.5489 C   0  0  0  0  0  0  0  0  0  0  0  0
   -2.3191   -1.6744   -0.4689 C   0  0  0  0  0  0  0  0  0  0  0  0
   -1.7580    0.3845    0.6640 C   0  0  0  0  0  0  0  0  0  0  0  0
    3.3720    0.0539   -0.8013 C   0  0  0  0  0  0  0  0  0  0  0  0
    3.1925   -0.1475    0.5629 C   0  0  0  0  0  0  0  0  0  0  0  0
   -4.6570   -0.0351    1.7349 C   0  0  0  0  0  0  0  0  0  0  0  0
    4.4241    0.8244   -1.2734 C   0  0  0  0  0  0  0  0  0  0  0  0
    4.0576    0.4187    1.4883 C   0  0  0  0  0  0  0  0  0  0  0  0
   -4.5513    1.1164   -0.4713 C   0  0  0  0  0  0  0  0  0  0  0  0
    5.3029    1.3962   -0.3510 C   0  0  0  0  0  0  0  0  0  0  0  0
    5.1204    1.1946    1.0234 C   0  0  0  0  0  0  0  0  0  0  0  0
  1  5  1  0
  1 13  1  0
  2  5  1  0
  2 14  1  0
  3 18  1  0
  4 18  2  0
  5  6  1  0
  6  9  2  0
  6 10  1  0
  7  8  1  0
  7 11  2  0
  7 12  1  0
  8 15  1  0
  8 18  1  0
  9 11  1  0
 10 12  2  0
 13 14  2  0
 13 16  1  0
 14 17  1  0
 16 19  2  0
 17 20  2  0
 19 20  1  0
M  END
>  <PUBCHEM_COMPOUND_CID>  (1) 
40526

>  <PUBCHEM_CONFORMER_RMSD>  (1) 
0.6

>  <PUBCHEM_CONFORMER_DIVERSEORDER>  (1) 
2
16
30
15
21
4
9
33
19
18
11
31
26
13
29
1
25
6
20
10
32
23
5
24
3
22
17
7
27
28
12
8
14

>  <PUBCHEM_MMFF94_PARTIAL_CHARGES>  (1) 
28
1 -0.33
10 -0.15
11 -0.15
12 -0.15
13 0.1
14 0.08
16 -0.15
17 -0.15
18 0.66
19 -0.15
2 -0.36
20 -0.15
23 0.15
24 0.15
25 0.15
26 0.15
3 -0.65
30 0.15
31 0.15
32 0.15
33 0.15
34 0.5
4 -0.57
5 0.65
6 -0.14
7 -0.14
8 0.2
9 -0.15

>  <PUBCHEM_EFFECTIVE_ROTOR_COUNT>  (1) 
3.6

>  <PUBCHEM_PHARMACOPHORE_FEATURES>  (1) 
8
1 15 hydrophobe
1 2 acceptor
1 3 acceptor
1 4 acceptor
3 3 4 18 anion
5 1 2 5 13 14 rings
6 13 14 16 17 19 20 rings
6 6 7 9 10 11 12 rings

>  <PUBCHEM_HEAVY_ATOM_COUNT>  (1) 
20

>  <PUBCHEM_ATOM_DEF_STEREO_COUNT>  (1) 
0

>  <PUBCHEM_ATOM_UDEF_STEREO_COUNT>  (1) 
2

>  <PUBCHEM_BOND_DEF_STEREO_COUNT>  (1) 
0

>  <PUBCHEM_BOND_UDEF_STEREO_COUNT>  (1) 
0

>  <PUBCHEM_ISOTOPIC_ATOM_COUNT>  (1) 
0

>  <PUBCHEM_COMPONENT_COUNT>  (1) 
1

>  <PUBCHEM_CACTVS_TAUTO_COUNT>  (1) 
1

>  <PUBCHEM_CONFORMER_ID>  (1) 
00009E4E00000002

>  <PUBCHEM_MMFF94_ENERGY>  (1) 
51.6191

>  <PUBCHEM_FEATURE_SELFOVERLAP>  (1) 
40.728

>  <PUBCHEM_SHAPE_FINGERPRINT>  (1) 
10014705 185 18343017817819900735
10498660 4 18131070458880980864
10670039 82 18270413698111143188
11128504 68 16272207487590270136
11543360 7 14548728521721245363
11552529 35 16372145514111918362
12236239 1 18040996271964030730
12403259 118 17821732749632032309
12403259 415 18339371768342284959
12596602 18 16588026839692617600
12670546 177 14979959181179379732
12670546 56 16732977609592447279
12730499 353 17489320701699267902
12892183 10 17313106324128131523
12969540 114 17846773005625223213
13583140 156 17168416151658396039
13675066 3 17967534545157659355
13914758 101 13767916937185722295
1420 369 8286200556446492508
14341114 176 14490470889913186822
14341114 328 16805327694876602612
14528608 73 16415477155566793385
14576447 43 12391518590046876700
15183329 4 13326583925703983883
15188451 53 14707503537623267929
15238133 3 17168152221565113308
15375358 24 17703791439855042922
15880784 105 14345799374343983593
1601671 61 18411982477169950844
17834072 33 13973965410975751576
18186145 218 18060426780914604431
18222031 100 10737287969389513682
19377110 9 17313678143331398555
19784866 240 11887688251422052956
200 152 14620802604122902194
20645477 56 18413109476340306591
20645477 70 16486986085234870518
221357 26 16200439052489290240
231179 274 18342457049815354394
23227448 37 18270115850111958333
23402539 116 18130782408689245606
23402655 69 16917353645023328166
23503953 91 15791738507191537547
23557571 272 17844819263578318358
23559900 14 17918284160228900710
2838139 119 17632293476029998112
3060560 45 16486976207041918588
312425 54 15140678064355713977
341906 21 18407478868725643148
3472631 163 18339642342919020700
351380 3 9727633907913389197
3545911 37 18272658964973109470
4028521 119 18131914870746960150
4340502 62 17240487983650125923
465052 167 9078822022353972137
5104073 3 17895761686503829289
542803 24 17675924309175001296
5924683 9 15719682068964082187
633830 44 17345484695456539711
7808743 9 18336829813781634412
7970288 3 9655576313839044933
960060 61 15195289724638444112

>  <PUBCHEM_SHAPE_MULTIPOLES>  (1) 
397.83
12.71
1.7
1.41
2.12
0.4
-0.06
-7.84
-0.72
0.43
-0.29
-0.31
-0.27
0.88

>  <PUBCHEM_SHAPE_SELFOVERLAP>  (1) 
854.977

>  <PUBCHEM_SHAPE_VOLUME>  (1) 
219.8

>  <PUBCHEM_COORDINATE_TYPE>  (1) 
2
5
10

$$$$
