40536
     RDKit          3D

 19 21  0  0  1  0  0  0  0  0999 V2000
   -5.5620   -1.0055   -0.4083 Cl  0  0  0  0  0  0  0  0  0  0  0  0
    2.8021   -2.0940    0.0129 N   0  0  0  0  0  0  0  0  0  0  0  0
    2.3278    0.7417   -0.6510 C   0  0  0  0  0  0  0  0  0  0  0  0
    0.3994    2.1067    0.4460 C   0  0  0  0  0  0  0  0  0  0  0  0
    1.2349   -0.2288   -0.1300 C   0  0  0  0  0  0  0  0  0  0  0  0
    0.1550    0.5831    0.6488 C   0  0  0  0  0  0  0  0  0  0  0  0
    2.8752    1.6200    0.4899 C   0  0  0  0  0  0  0  0  0  0  0  0
    1.6714    1.6704   -1.6909 C   0  0  0  0  0  0  0  0  0  0  0  0
    1.7461    2.4498    1.1171 C   0  0  0  0  0  0  0  0  0  0  0  0
    0.5278    2.4644   -1.0465 C   0  0  0  0  0  0  0  0  0  0  0  0
    1.8155   -1.3518    0.7349 C   0  0  0  0  0  0  0  0  0  0  0  0
   -1.2884    0.1830    0.3818 C   0  0  0  0  0  0  0  0  0  0  0  0
   -2.2144    0.1977    1.4213 C   0  0  0  0  0  0  0  0  0  0  0  0
   -1.6756   -0.1968   -0.9005 C   0  0  0  0  0  0  0  0  0  0  0  0
    2.2371   -2.7119   -1.2003 C   0  0  0  0  0  0  0  0  0  0  0  0
    3.4140   -3.1418    0.8498 C   0  0  0  0  0  0  0  0  0  0  0  0
   -3.5374   -0.1703    1.1767 C   0  0  0  0  0  0  0  0  0  0  0  0
   -2.9987   -0.5647   -1.1452 C   0  0  0  0  0  0  0  0  0  0  0  0
   -3.9298   -0.5513   -0.1065 C   0  0  0  0  0  0  0  0  0  0  0  0
  1 19  1  0
  2 11  1  0
  2 15  1  0
  2 16  1  0
  3  5  1  0
  3  7  1  0
  3  8  1  0
  4  6  1  0
  4  9  1  0
  4 10  1  0
  5  6  1  0
  5 11  1  0
  6 12  1  0
  7  9  1  0
  8 10  1  0
 12 13  2  0
 12 14  1  0
 13 17  1  0
 14 18  2  0
 17 19  2  0
 18 19  1  0
M  END
>  <PUBCHEM_COMPOUND_CID>  (1) 
40536

>  <PUBCHEM_CONFORMER_RMSD>  (1) 
0.6

>  <PUBCHEM_CONFORMER_DIVERSEORDER>  (1) 
1
4
3
2

>  <PUBCHEM_MMFF94_PARTIAL_CHARGES>  (1) 
16
1 -0.18
11 0.27
12 -0.14
13 -0.15
14 -0.15
15 0.27
16 0.27
17 -0.15
18 -0.15
19 0.18
2 -0.81
34 0.15
35 0.15
42 0.15
43 0.15
6 0.14

>  <PUBCHEM_EFFECTIVE_ROTOR_COUNT>  (1) 
4.2

>  <PUBCHEM_PHARMACOPHORE_FEATURES>  (1) 
3
1 2 cation
6 12 13 14 17 18 19 rings
8 3 4 5 6 7 8 9 10 rings

>  <PUBCHEM_HEAVY_ATOM_COUNT>  (1) 
19

>  <PUBCHEM_ATOM_DEF_STEREO_COUNT>  (1) 
1

>  <PUBCHEM_ATOM_UDEF_STEREO_COUNT>  (1) 
1

>  <PUBCHEM_BOND_DEF_STEREO_COUNT>  (1) 
0

>  <PUBCHEM_BOND_UDEF_STEREO_COUNT>  (1) 
0

>  <PUBCHEM_ISOTOPIC_ATOM_COUNT>  (1) 
0

>  <PUBCHEM_COMPONENT_COUNT>  (1) 
1

>  <PUBCHEM_CACTVS_TAUTO_COUNT>  (1) 
1

>  <PUBCHEM_CONFORMER_ID>  (1) 
00009E5800000001

>  <PUBCHEM_MMFF94_ENERGY>  (1) 
60.8009

>  <PUBCHEM_FEATURE_SELFOVERLAP>  (1) 
15.223

>  <PUBCHEM_SHAPE_FINGERPRINT>  (1) 
10042902 136 17774450364861232862
11578080 2 17987213578528632657
116883 192 18189892007247778301
12363563 72 18189335662933056562
12553582 1 18196944274865457926
13083527 12 18336535024612132050
13134695 92 18411128130496171645
13140716 1 17979350081830211968
13533116 47 18411421735341539787
13544653 18 18265049133491840874
13583140 156 18199472250314297155
13681431 1 18336275548077966854
14178342 30 18196087978587028771
14181834 199 18410856559930069990
14863182 85 18340208587233586182
15852999 172 18044926016040782480
16945 1 18263371437255527508
17357779 13 18122327000604104694
17818456 19 17842852031698065457
1813 80 18269000777881323166
20361792 2 18337393712485237943
20559304 39 18130790066088368131
20645477 70 18409724076102340495
20671657 53 18188491255050697483
21054139 6 17839730801364422415
21421861 104 18130799940212959217
21452121 199 18261389993143498816
21731516 1 18195819470211789838
22112679 90 17913515474618660368
2255824 54 18269843188455832372
23114952 82 17603595139711885868
23419403 2 18047718591451252908
23526113 38 17676490531587527691
23557571 272 16154569725433755369
23559900 14 18040715892051220635
23598291 2 18200047144149821003
238 59 18190471638927867699
2748010 2 18188476974342408692
3060560 45 18117003397278334580
312423 11 18341346530502760675
474 4 17911798282269710449
5281201 14 18113333116296334653
6443956 14 18268429044856385615
7364860 26 18343020021011503634
7970288 3 18266740169190726459
81228 2 17616538359056194754
8272917 22 18410859893141118343

>  <PUBCHEM_SHAPE_MULTIPOLES>  (1) 
387.9
7.38
3.11
1.41
10.54
1.19
-0.15
4.21
-0.02
-4.74
-0.04
-0.04
-0.21
-0.44

>  <PUBCHEM_SHAPE_SELFOVERLAP>  (1) 
810.056

>  <PUBCHEM_SHAPE_VOLUME>  (1) 
224

>  <PUBCHEM_COORDINATE_TYPE>  (1) 
2
5
10

$$$$
