40538
     RDKit          3D

 18 20  0  0  1  0  0  0  0  0999 V2000
    2.7377   -1.8285    0.0281 N   0  0  0  0  0  0  0  0  0  0  0  0
    1.9382    0.9424   -0.5960 C   0  0  0  0  0  0  0  0  0  0  0  0
   -0.1746    2.0360    0.4651 C   0  0  0  0  0  0  0  0  0  0  0  0
    0.9581   -0.1660   -0.1288 C   0  0  0  0  0  0  0  0  0  0  0  0
   -0.2357    0.4896    0.6307 C   0  0  0  0  0  0  0  0  0  0  0  0
    2.3398    1.8548    0.5784 C   0  0  0  0  0  0  0  0  0  0  0  0
    1.2034    1.8077   -1.6382 C   0  0  0  0  0  0  0  0  0  0  0  0
    1.0995    2.5256    1.1853 C   0  0  0  0  0  0  0  0  0  0  0  0
   -0.0475    2.4407   -1.0153 C   0  0  0  0  0  0  0  0  0  0  0  0
    1.6466   -1.2293    0.7325 C   0  0  0  0  0  0  0  0  0  0  0  0
   -1.6105   -0.0779    0.3106 C   0  0  0  0  0  0  0  0  0  0  0  0
   -2.5615   -0.1990    1.3202 C   0  0  0  0  0  0  0  0  0  0  0  0
   -1.9107   -0.4727   -0.9903 C   0  0  0  0  0  0  0  0  0  0  0  0
    2.2886   -2.4828   -1.2141 C   0  0  0  0  0  0  0  0  0  0  0  0
    3.4490   -2.8126    0.8637 C   0  0  0  0  0  0  0  0  0  0  0  0
   -3.8221   -0.7191    1.0268 C   0  0  0  0  0  0  0  0  0  0  0  0
   -3.1714   -0.9928   -1.2837 C   0  0  0  0  0  0  0  0  0  0  0  0
   -4.1270   -1.1159   -0.2751 C   0  0  0  0  0  0  0  0  0  0  0  0
  1 10  1  0
  1 14  1  0
  1 15  1  0
  2  4  1  0
  2  6  1  0
  2  7  1  0
  3  5  1  0
  3  8  1  0
  3  9  1  0
  4  5  1  0
  4 10  1  0
  5 11  1  0
  6  8  1  0
  7  9  1  0
 11 12  2  0
 11 13  1  0
 12 16  1  0
 13 17  2  0
 16 18  2  0
 17 18  1  0
M  END
>  <PUBCHEM_COMPOUND_CID>  (1) 
40538

>  <PUBCHEM_CONFORMER_RMSD>  (1) 
0.6

>  <PUBCHEM_CONFORMER_DIVERSEORDER>  (1) 
1
3
2
4

>  <PUBCHEM_MMFF94_PARTIAL_CHARGES>  (1) 
16
1 -0.81
10 0.27
11 -0.14
12 -0.15
13 -0.15
14 0.27
15 0.27
16 -0.15
17 -0.15
18 -0.15
33 0.15
34 0.15
41 0.15
42 0.15
43 0.15
5 0.14

>  <PUBCHEM_EFFECTIVE_ROTOR_COUNT>  (1) 
4.2

>  <PUBCHEM_PHARMACOPHORE_FEATURES>  (1) 
3
1 1 cation
6 11 12 13 16 17 18 rings
8 2 3 4 5 6 7 8 9 rings

>  <PUBCHEM_HEAVY_ATOM_COUNT>  (1) 
18

>  <PUBCHEM_ATOM_DEF_STEREO_COUNT>  (1) 
0

>  <PUBCHEM_ATOM_UDEF_STEREO_COUNT>  (1) 
1

>  <PUBCHEM_BOND_DEF_STEREO_COUNT>  (1) 
0

>  <PUBCHEM_BOND_UDEF_STEREO_COUNT>  (1) 
0

>  <PUBCHEM_ISOTOPIC_ATOM_COUNT>  (1) 
0

>  <PUBCHEM_COMPONENT_COUNT>  (1) 
1

>  <PUBCHEM_CACTVS_TAUTO_COUNT>  (1) 
1

>  <PUBCHEM_CONFORMER_ID>  (1) 
00009E5A00000001

>  <PUBCHEM_MMFF94_ENERGY>  (1) 
60.0422

>  <PUBCHEM_FEATURE_SELFOVERLAP>  (1) 
15.223

>  <PUBCHEM_SHAPE_FINGERPRINT>  (1) 
10989021 7 18341330007072801170
11322862 65 17189266993361213678
11578080 2 17915999340179617345
116883 192 18263354794478763021
12202030 40 17677348215488235475
12363563 72 18261954033628788514
12403259 327 15625935388013307883
12553582 1 18269844129069793438
12841375 7 18200318706110235462
13083527 12 18337652166948782834
13134695 92 18339912784013964981
13140716 1 18267305322287219265
13149001 5 17759213246945323588
13533116 47 18338524148864359427
13544653 18 18338228259381011858
13681431 1 18408328774002311950
14178342 30 18052254291447656371
14181834 199 18411132571555464366
14817 1 13301697373035612492
15375462 189 18271815639227356344
15534591 1 8501782900958553178
15852999 172 17901647586589503187
16945 1 18265616665658447681
17357779 13 18194665000071692238
1813 80 18268441147905960150
19786989 88 17534351320863445469
20361792 2 18337391543669243271
20559304 39 18202007659128556059
20645477 70 18338786905951321503
20671657 53 18114465556679148658
21041028 32 18339932506572223705
21296965 67 18336263423163951914
21421861 104 18200328670302357009
21452121 199 18260823774603940184
21731516 1 18339932493455381966
22112679 90 17985853478249274960
2255824 54 18125728026107549789
22802520 49 18188197724417330781
23114952 82 17530972418266978677
23419403 2 18048841218434799388
23526113 38 17676490570432254531
23557571 272 17909259183978193458
23728640 28 16823043820787602803
257057 1 18265890268191797602
2748010 2 18261658295102240789
3060560 45 17900265508894895332
4175511 335 18264210390323289797
474 4 17768246070091094545
6049 1 17603587443795174727
7364860 26 18271245022826000314
77492 1 17845941835328176235
81228 2 17832990446982502370

>  <PUBCHEM_SHAPE_MULTIPOLES>  (1) 
365.45
5.85
3.17
1.45
4.82
0.14
-0.22
4.52
0.51
-3.68
-0.04
0.15
-0.15
-0.28

>  <PUBCHEM_SHAPE_SELFOVERLAP>  (1) 
771.119

>  <PUBCHEM_SHAPE_VOLUME>  (1) 
202.5

>  <PUBCHEM_COORDINATE_TYPE>  (1) 
2
5
10

$$$$
