40545
     RDKit          3D

 19 22  0  0  0  0  0  0  0  0999 V2000
    1.9102   -2.7161   -0.5402 S   0  0  0  0  0  0  0  0  0  0  0  0
    3.8842    2.7978    0.3455 F   0  0  0  0  0  0  0  0  0  0  0  0
   -0.7235    0.8527   -0.1101 N   0  0  0  0  0  0  0  0  0  0  0  0
   -0.4574   -1.5157    0.2442 C   0  0  0  0  0  0  0  0  0  0  0  0
    0.0714   -0.2380    0.0595 C   0  0  0  0  0  0  0  0  0  0  0  0
    1.5291    0.0089    0.0125 C   0  0  0  0  0  0  0  0  0  0  0  0
    0.4166   -2.7099    0.4872 C   0  0  0  0  0  0  0  0  0  0  0  0
    2.4481   -1.0307   -0.2520 C   0  0  0  0  0  0  0  0  0  0  0  0
   -1.8477   -1.6465    0.2770 C   0  0  0  0  0  0  0  0  0  0  0  0
   -2.6755   -0.5322    0.1032 C   0  0  0  0  0  0  0  0  0  0  0  0
   -2.0621    0.7166   -0.0913 C   0  0  0  0  0  0  0  0  0  0  0  0
    2.0514    1.3025    0.2143 C   0  0  0  0  0  0  0  0  0  0  0  0
    3.8249   -0.7676   -0.3294 C   0  0  0  0  0  0  0  0  0  0  0  0
   -4.0767   -0.6410    0.1229 C   0  0  0  0  0  0  0  0  0  0  0  0
   -2.8801    1.8297   -0.2645 C   0  0  0  0  0  0  0  0  0  0  0  0
    3.4236    1.5559    0.1478 C   0  0  0  0  0  0  0  0  0  0  0  0
    4.3094    0.5217   -0.1268 C   0  0  0  0  0  0  0  0  0  0  0  0
   -4.8729    0.4871   -0.0526 C   0  0  0  0  0  0  0  0  0  0  0  0
   -4.2730    1.7247   -0.2471 C   0  0  0  0  0  0  0  0  0  0  0  0
  1  7  1  0
  1  8  1  0
  2 16  1  0
  3  5  2  0
  3 11  1  0
  4  5  1  0
  4  7  1  0
  4  9  2  0
  5  6  1  0
  6  8  2  0
  6 12  1  0
  8 13  1  0
  9 10  1  0
 10 11  2  0
 10 14  1  0
 11 15  1  0
 12 16  2  0
 13 17  2  0
 14 18  2  0
 15 19  2  0
 16 17  1  0
 18 19  1  0
M  END
>  <PUBCHEM_COMPOUND_CID>  (1) 
40545

>  <PUBCHEM_CONFORMER_RMSD>  (1) 
0.6

>  <PUBCHEM_CONFORMER_DIVERSEORDER>  (1) 
1

>  <PUBCHEM_MMFF94_PARTIAL_CHARGES>  (1) 
25
1 -0.33
11 0.31
12 -0.15
13 -0.15
14 -0.15
15 -0.15
16 0.19
17 -0.15
18 -0.15
19 -0.15
2 -0.19
22 0.15
23 0.15
24 0.15
25 0.15
26 0.15
27 0.15
28 0.15
29 0.15
3 -0.62
4 -0.14
5 0.31
7 0.37
8 0.1
9 -0.15

>  <PUBCHEM_EFFECTIVE_ROTOR_COUNT>  (1) 
0.4

>  <PUBCHEM_PHARMACOPHORE_FEATURES>  (1) 
5
1 3 acceptor
6 1 4 5 6 7 8 rings
6 10 11 14 15 18 19 rings
6 3 4 5 9 10 11 rings
6 6 8 12 13 16 17 rings

>  <PUBCHEM_HEAVY_ATOM_COUNT>  (1) 
19

>  <PUBCHEM_ATOM_DEF_STEREO_COUNT>  (1) 
0

>  <PUBCHEM_ATOM_UDEF_STEREO_COUNT>  (1) 
0

>  <PUBCHEM_BOND_DEF_STEREO_COUNT>  (1) 
0

>  <PUBCHEM_BOND_UDEF_STEREO_COUNT>  (1) 
0

>  <PUBCHEM_ISOTOPIC_ATOM_COUNT>  (1) 
0

>  <PUBCHEM_COMPONENT_COUNT>  (1) 
1

>  <PUBCHEM_CACTVS_TAUTO_COUNT>  (1) 
1

>  <PUBCHEM_CONFORMER_ID>  (1) 
00009E6100000001

>  <PUBCHEM_MMFF94_ENERGY>  (1) 
56.176

>  <PUBCHEM_FEATURE_SELFOVERLAP>  (1) 
25.441

>  <PUBCHEM_SHAPE_FINGERPRINT>  (1) 
10411042 1 17401485944937638267
10498660 4 18334288739304619053
10608611 8 18410012126125023772
10616163 171 18411420652355757279
10646746 165 18335140881863246124
10967382 1 18410293579732464418
1100329 8 17041761989652108816
11370993 70 18410570716902930488
11471102 20 18340768148199302550
12173636 292 18337669844590886222
12403259 226 18045216038208244246
12403259 415 18410016550010235208
12403260 363 18338223960023653410
12592029 89 18335702710851686010
12644460 14 18116718413249825243
12730499 353 18410020918340089635
13140716 1 18408036321242258074
13380535 76 18410012156475040738
138480 1 17834113048334057482
14787075 74 18270960266958323713
15196674 1 18410012139178841127
15219456 202 18410858745899657431
15375358 24 18409730676918110379
15442244 35 17980201885403141586
15536298 74 18340769221925438695
16945 1 18339645512267307210
18186145 218 18272380741049063648
200 152 17775002375574420771
20510252 161 18268715072487861505
20645477 56 18333734602639588437
20645477 70 18129945576575796383
21267235 1 18411146804998130727
21524375 3 18335421261713356842
221490 88 18337963281115456003
23227448 37 18341611563780569231
23366157 5 17896323510659431858
23402539 116 18412536634934622110
23402655 69 18272651229394020660
23558518 356 18044094781230068482
23559900 14 18341892927309805742
238 59 17758357869631965237
25 1 18410854339447873614
2748010 2 18336840769895332566
3004659 81 18116162082854343878
335352 9 18410293563059270678
350125 39 18408324359081997068
3545911 37 18409452470722891333
4214541 1 18410575067720859405
474 4 18410573985156881912
495365 180 17917419952362606378
5104073 3 18334861572066998707
543358 83 18197221338746582179
58051976 378 18341047428252331839
6138700 20 18266744576549267558
6333272 397 18408885143891749376
633830 44 18341890779525068605
69090 78 18341611542268796167
7364860 26 18268147565521858918
77779 3 18411983550726983141
7808743 9 18049440650141451128
8272917 22 18271530784153835207
9709674 26 18411424985919808135
9981440 41 18265044907048784962

>  <PUBCHEM_SHAPE_MULTIPOLES>  (1) 
382.61
8.91
2.78
0.68
3.26
0.44
-0.01
-4.34
-0.49
-1.71
0.11
-0.06
0.09
0.69

>  <PUBCHEM_SHAPE_SELFOVERLAP>  (1) 
854.804

>  <PUBCHEM_SHAPE_VOLUME>  (1) 
206.7

>  <PUBCHEM_COORDINATE_TYPE>  (1) 
2
5
10

$$$$
