40542
     RDKit          3D

 13 13  0  0  0  0  0  0  0  0999 V2000
   -5.0090   -0.8673   -0.0004 Cl  0  0  0  0  0  0  0  0  0  0  0  0
    4.9725    0.1643   -0.0001 O   0  0  0  0  0  0  0  0  0  0  0  0
    3.5231   -1.5007    0.0024 O   0  0  0  0  0  0  0  0  0  0  0  0
    0.6091    1.0020   -0.0011 N   0  0  0  0  0  0  0  0  0  0  0  0
    1.6221    0.1195   -0.0002 N   0  0  0  0  0  0  0  0  0  0  0  0
    3.8280   -0.3016    0.0000 N   0  0  0  0  0  0  0  0  0  0  0  0
   -0.7289    0.5565    0.0001 C   0  0  0  0  0  0  0  0  0  0  0  0
   -1.7723    1.4824    0.0012 C   0  0  0  0  0  0  0  0  0  0  0  0
   -1.0092   -0.8100   -0.0010 C   0  0  0  0  0  0  0  0  0  0  0  0
   -3.0957    1.0419    0.0015 C   0  0  0  0  0  0  0  0  0  0  0  0
   -2.3327   -1.2504   -0.0011 C   0  0  0  0  0  0  0  0  0  0  0  0
   -3.3760   -0.3245    0.0003 C   0  0  0  0  0  0  0  0  0  0  0  0
    2.7690    0.6879   -0.0016 C   0  0  0  0  0  0  0  0  0  0  0  0
  1 12  1  0
  2  6  1  0
  3  6  2  0
  4  5  1  0
  4  7  1  0
  5 13  2  0
  6 13  1  0
  7  8  2  0
  7  9  1  0
  8 10  1  0
  9 11  2  0
 10 12  2  0
 11 12  1  0
M  CHG  2   2  -1   6   1
M  END
>  <PUBCHEM_COMPOUND_CID>  (1) 
40542

>  <PUBCHEM_CONFORMER_RMSD>  (1) 
0.6

>  <PUBCHEM_CONFORMER_DIVERSEORDER>  (1) 
1
3
4
2

>  <PUBCHEM_MMFF94_PARTIAL_CHARGES>  (1) 
19
1 -0.18
10 -0.15
11 -0.15
12 0.18
13 0.56
14 0.15
15 0.15
16 0.15
17 0.15
18 0.4
19 0.06
2 -0.52
3 -0.52
4 -0.46
5 -0.49
6 0.87
7 0.1
8 -0.15
9 -0.15

>  <PUBCHEM_EFFECTIVE_ROTOR_COUNT>  (1) 
3

>  <PUBCHEM_PHARMACOPHORE_FEATURES>  (1) 
5
1 2 acceptor
1 3 acceptor
1 4 donor
3 5 6 13 cation
6 7 8 9 10 11 12 rings

>  <PUBCHEM_HEAVY_ATOM_COUNT>  (1) 
13

>  <PUBCHEM_ATOM_DEF_STEREO_COUNT>  (1) 
0

>  <PUBCHEM_ATOM_UDEF_STEREO_COUNT>  (1) 
0

>  <PUBCHEM_BOND_DEF_STEREO_COUNT>  (1) 
0

>  <PUBCHEM_BOND_UDEF_STEREO_COUNT>  (1) 
1

>  <PUBCHEM_ISOTOPIC_ATOM_COUNT>  (1) 
0

>  <PUBCHEM_COMPONENT_COUNT>  (1) 
1

>  <PUBCHEM_CACTVS_TAUTO_COUNT>  (1) 
2

>  <PUBCHEM_CONFORMER_ID>  (1) 
00009E5E00000001

>  <PUBCHEM_MMFF94_ENERGY>  (1) 
36.6835

>  <PUBCHEM_FEATURE_SELFOVERLAP>  (1) 
25.449

>  <PUBCHEM_SHAPE_FINGERPRINT>  (1) 
10968037 39 18335986453692090540
12032990 46 18335986471404755067
12670543 26 18335124381558965311
13288520 33 18412546513596818533
13690532 89 18408322207292611349
14123238 8 18342176678323368430
14252887 29 17632305562167922830
14325111 11 18410573968087847360
15196674 1 18338797814740848674
17834072 33 18335703892278740092
1986462 14 18336265660889314565
200 152 18060695100743818341
20645477 70 18339924814592147798
21267235 1 18410020943745870310
22485316 2 18411134727834560690
2297311 6 18130239198184224036
23402539 116 18202839968509847141
23463225 33 18409450258714422718
23559900 14 18339356495481148600
42 15 18411139134138710019
5104073 3 18339922619483467498
69090 78 18201434800691117511
7364860 26 18267022954232078436
77779 3 18410857646646466504
9709674 26 18411144619076282334

>  <PUBCHEM_SHAPE_MULTIPOLES>  (1) 
242.72
9.45
1.4
0.58
6.03
0.01
0
-2.48
0
-0.46
0
-0.13
0
0

>  <PUBCHEM_SHAPE_SELFOVERLAP>  (1) 
492.756

>  <PUBCHEM_SHAPE_VOLUME>  (1) 
142.2

>  <PUBCHEM_COORDINATE_TYPE>  (1) 
2
5
10

$$$$
