40540
     RDKit          3D

 13 13  0  0  1  0  0  0  0  0999 V2000
    3.6671   -0.5285    0.0552 O   0  0  0  0  0  0  0  0  0  0  0  0
    0.0725   -1.0829   -0.2645 O   0  0  0  0  0  0  0  0  0  0  0  0
   -2.5898   -0.3810    0.2374 O   0  0  0  0  0  0  0  0  0  0  0  0
   -3.2232    2.2980   -0.1557 O   0  0  0  0  0  0  0  0  0  0  0  0
    2.3267   -0.3059   -0.4138 C   0  0  0  0  0  0  0  0  0  0  0  0
    1.9724    1.1183   -0.0220 C   0  0  0  0  0  0  0  0  0  0  0  0
    3.3086    1.8060   -0.1491 C   0  0  0  0  0  0  0  0  0  0  0  0
    4.2574    0.7432    0.3631 C   0  0  0  0  0  0  0  0  0  0  0  0
    1.3949   -1.3456    0.1777 C   0  0  0  0  0  0  0  0  0  0  0  0
   -0.8525   -2.0279    0.2584 C   0  0  0  0  0  0  0  0  0  0  0  0
   -2.2454   -1.6795   -0.2300 C   0  0  0  0  0  0  0  0  0  0  0  0
   -3.8897   -0.0011   -0.1920 C   0  0  0  0  0  0  0  0  0  0  0  0
   -4.1990    1.3869    0.3352 C   0  0  0  0  0  0  0  0  0  0  0  0
  1  5  1  0
  1  8  1  0
  2  9  1  0
  2 10  1  0
  3 11  1  0
  3 12  1  0
  4 13  1  0
  5  6  1  0
  5  9  1  0
  6  7  1  0
  7  8  1  0
 10 11  1  0
 12 13  1  0
M  END
>  <PUBCHEM_COMPOUND_CID>  (1) 
40540

>  <PUBCHEM_CONFORMER_RMSD>  (1) 
0.8

>  <PUBCHEM_CONFORMER_DIVERSEORDER>  (1) 
2
112
42
97
9
92
83
47
94
73
25
54
13
116
48
49
78
38
24
5
33
64
34
69
100
80
107
45
79
10
37
50
101
98
22
36
57
11
86
15
8
52
111
63
117
12
93
99
46
96
102
40
61
103
32
109
6
62
53
88
16
71
90
65
76
55
4
70
110
19
114
59
105
60
35
7
43
81
18
91
41
56
66
31
67
89
21
104
95
44
17
68
84
39
3
108
14
82
27
113
23
85
26
51
30
72
20
87
77
28
58
106
75
74
1
29
115

>  <PUBCHEM_MMFF94_PARTIAL_CHARGES>  (1) 
12
1 -0.56
10 0.28
11 0.28
12 0.28
13 0.28
2 -0.56
3 -0.56
31 0.4
4 -0.68
5 0.28
8 0.28
9 0.28

>  <PUBCHEM_EFFECTIVE_ROTOR_COUNT>  (1) 
8

>  <PUBCHEM_PHARMACOPHORE_FEATURES>  (1) 
6
1 1 acceptor
1 2 acceptor
1 3 acceptor
1 4 acceptor
1 4 donor
5 1 5 6 7 8 rings

>  <PUBCHEM_HEAVY_ATOM_COUNT>  (1) 
13

>  <PUBCHEM_ATOM_DEF_STEREO_COUNT>  (1) 
0

>  <PUBCHEM_ATOM_UDEF_STEREO_COUNT>  (1) 
1

>  <PUBCHEM_BOND_DEF_STEREO_COUNT>  (1) 
0

>  <PUBCHEM_BOND_UDEF_STEREO_COUNT>  (1) 
0

>  <PUBCHEM_ISOTOPIC_ATOM_COUNT>  (1) 
0

>  <PUBCHEM_COMPONENT_COUNT>  (1) 
1

>  <PUBCHEM_CACTVS_TAUTO_COUNT>  (1) 
1

>  <PUBCHEM_CONFORMER_ID>  (1) 
00009E5C00000002

>  <PUBCHEM_MMFF94_ENERGY>  (1) 
23.1948

>  <PUBCHEM_FEATURE_SELFOVERLAP>  (1) 
30.456

>  <PUBCHEM_SHAPE_FINGERPRINT>  (1) 
10608611 8 18340769355016404466
122479 349 18408608075746903555
13081056 2 18412831278576558583
13618510 140 18411136896893486337
14123255 352 18407755945534685925
14123255 52 18410011009787123627
14252887 29 13695581144772155642
14576447 43 10159701300542476216
15775835 57 18409450284484180931
1741750 31 18413109472135289507
17834072 32 18339079260096062317
18186145 218 18130805441976692938
18915474 69 10375869697130537144
20645477 56 18201164346558407147
20645477 70 16988579982685789118
20767249 271 18411414016456769881
21524375 3 18411698781679453847
21652331 79 18409731768446562489
22182937 141 18340497720263346075
23402655 69 18273217516948468060
27216 239 18333737922897078915
6430166 295 18410571786376154482
8199 26 18410295843148665397

>  <PUBCHEM_SHAPE_MULTIPOLES>  (1) 
244.06
9.08
2.33
0.65
1.58
0.34
0
4.91
-0.42
1.3
-0.02
-0.03
-0.01
-0.12

>  <PUBCHEM_SHAPE_SELFOVERLAP>  (1) 
465.122

>  <PUBCHEM_SHAPE_VOLUME>  (1) 
151.4

>  <PUBCHEM_COORDINATE_TYPE>  (1) 
2
5
10

$$$$
