40558
     RDKit          3D

 16 15  0  0  1  0  0  0  0  0999 V2000
    1.0402   -0.9880    1.5904 O   0  0  0  0  0  0  0  0  0  0  0  0
   -1.0470    0.9685    1.5986 O   0  0  0  0  0  0  0  0  0  0  0  0
    1.4187    1.8177   -0.7292 O   0  0  0  0  0  0  0  0  0  0  0  0
   -1.4154   -1.8158   -0.7493 O   0  0  0  0  0  0  0  0  0  0  0  0
    3.5020   -0.0435   -0.6607 N   0  0  0  0  0  0  0  0  0  0  0  0
   -3.5015    0.0510   -0.6641 N   0  0  0  0  0  0  0  0  0  0  0  0
    4.7005   -0.3527   -0.7660 N   0  0  0  0  0  0  0  0  0  0  0  0
   -4.6987    0.3675   -0.7619 N   0  0  0  0  0  0  0  0  0  0  0  0
    5.7986   -0.6423   -0.8723 N   0  0  0  0  0  0  0  0  0  0  0  0
   -5.7957    0.6639   -0.8613 N   0  0  0  0  0  0  0  0  0  0  0  0
    0.7509   -0.1677    0.4589 C   0  0  0  0  0  0  0  0  0  0  0  0
   -0.7522    0.1601    0.4599 C   0  0  0  0  0  0  0  0  0  0  0  0
    1.6601    1.0797    0.4749 C   0  0  0  0  0  0  0  0  0  0  0  0
   -1.6600   -1.0884    0.4607 C   0  0  0  0  0  0  0  0  0  0  0  0
    3.1545    0.7602    0.5182 C   0  0  0  0  0  0  0  0  0  0  0  0
   -3.1549   -0.7701    0.5032 C   0  0  0  0  0  0  0  0  0  0  0  0
  1 11  1  0
  2 12  1  0
  3 13  1  0
  4 14  1  0
  5  7  2  0
  5 15  1  0
  6  8  2  0
  6 16  1  0
  7  9  2  0
  8 10  2  0
 11 12  1  0
 11 13  1  0
 12 14  1  0
 13 15  1  0
 14 16  1  0
M  CHG  4   7   1   8   1   9  -1  10  -1
M  END
>  <PUBCHEM_COMPOUND_CID>  (1) 
40558

>  <PUBCHEM_CONFORMER_RMSD>  (1) 
0.8

>  <PUBCHEM_CONFORMER_DIVERSEORDER>  (1) 
3
98
99
1
48
94
11
129
93
127
5
114
70
154
148
110
95
4
20
78
43
134
6
24
111
150
133
28
77
31
122
103
151
83
113
33
142
85
18
30
141
130
107
132
88
119
75
146
118
66
131
116
35
56
10
108
61
144
46
123
53
152
136
50
67
137
51
49
149
36
138
109
87
8
41
143
73
79
21
52
117
13
91
42
147
32
76
140
80
63
38
104
97
101
153
86
47
2
69
59
124
37
58
19
9
57
34
112
92
115
12
100
72
39
125
89
106
26
44
139
128
22
55
54
126
17
96
135
90
120
29
7
60
145
81
71
27
82
40
68
16
14
102
64
25
65
121
23
84
45
62
74
15
105

>  <PUBCHEM_MMFF94_PARTIAL_CHARGES>  (1) 
20
1 -0.68
10 -0.37
11 0.28
12 0.28
13 0.28
14 0.28
15 0.25
16 0.25
2 -0.68
25 0.4
26 0.4
27 0.4
28 0.4
3 -0.68
4 -0.68
5 -0.56
6 -0.56
7 0.69
8 0.69
9 -0.37

>  <PUBCHEM_EFFECTIVE_ROTOR_COUNT>  (1) 
7

>  <PUBCHEM_PHARMACOPHORE_FEATURES>  (1) 
8
1 1 acceptor
1 1 donor
1 2 acceptor
1 2 donor
1 3 acceptor
1 3 donor
1 4 acceptor
1 4 donor

>  <PUBCHEM_HEAVY_ATOM_COUNT>  (1) 
16

>  <PUBCHEM_ATOM_DEF_STEREO_COUNT>  (1) 
4

>  <PUBCHEM_ATOM_UDEF_STEREO_COUNT>  (1) 
0

>  <PUBCHEM_BOND_DEF_STEREO_COUNT>  (1) 
0

>  <PUBCHEM_BOND_UDEF_STEREO_COUNT>  (1) 
0

>  <PUBCHEM_ISOTOPIC_ATOM_COUNT>  (1) 
0

>  <PUBCHEM_COMPONENT_COUNT>  (1) 
1

>  <PUBCHEM_CACTVS_TAUTO_COUNT>  (1) 
1

>  <PUBCHEM_CONFORMER_ID>  (1) 
00009E6E00000003

>  <PUBCHEM_MMFF94_ENERGY>  (1) 
25.5126

>  <PUBCHEM_FEATURE_SELFOVERLAP>  (1) 
40.604

>  <PUBCHEM_SHAPE_FINGERPRINT>  (1) 
100836 57 16443066088456421133
10354089 29 13695871424088795470
106641 1 12607392296476795982
11031198 65 17167856461194762522
12555020 224 17917712400575102871
12670543 26 18410856516690116844
14251752 14 17822007571894279326
14787075 74 9150876274569415527
14911166 2 18410855464423129128
14993402 34 18410855451538227354
15048467 5 15719393927559707309
15207287 21 15698005153644934174
17834072 8 18411136939399846484
18186145 218 17895748624922790408
187816 3 18060699485778813915
200 152 16845855676285935817
20645476 183 18334850658555728819
20645477 70 17988370351113442310
21119208 17 18410856576819658768
212847 35 17095231510503832689
21501925 9 11887956574913393779
22079108 93 8934992655919693892
22224240 67 12396303647619177697
23402539 116 17131557154382697329
23559900 14 17845931944145211440
25 1 17458337546275376683
32948 21 18259985968181436228
347723 3 18410856542459920472
458136 41 14924212811879611425
633830 44 17822568438398191494
76465 3 15913329078559486134

>  <PUBCHEM_SHAPE_MULTIPOLES>  (1) 
275.91
10.55
1.34
1.19
0.02
0
-0.25
-0.05
5.53
-0.02
0.05
0.01
0
0.53

>  <PUBCHEM_SHAPE_SELFOVERLAP>  (1) 
530.241

>  <PUBCHEM_SHAPE_VOLUME>  (1) 
165.8

>  <PUBCHEM_COORDINATE_TYPE>  (1) 
2
5
10

$$$$
