40557
     RDKit          3D

 14 13  0  0  1  0  0  0  0  0999 V2000
    3.4999    1.3605   -0.2790 S   0  0  0  0  0  0  0  0  0  0  0  0
    2.0627   -0.0356    0.3649 P   0  0  0  0  0  0  0  0  0  0  0  0
    2.2175   -1.4191   -0.4764 O   0  0  0  0  0  0  0  0  0  0  0  0
   -2.9800   -0.1656    0.1381 O   0  0  0  0  0  0  0  0  0  0  0  0
    2.2298   -0.2797    1.8437 O   0  0  0  0  0  0  0  0  0  0  0  0
   -0.7338   -1.2321    0.7934 O   0  0  0  0  0  0  0  0  0  0  0  0
   -1.8731    1.6809   -0.7082 O   0  0  0  0  0  0  0  0  0  0  0  0
    0.4998    0.5666   -0.0214 N   0  0  0  0  0  0  0  0  0  0  0  0
   -0.6510   -0.1377    0.2583 C   0  0  0  0  0  0  0  0  0  0  0  0
   -4.2472    0.3977   -0.2140 C   0  0  0  0  0  0  0  0  0  0  0  0
   -1.9070    0.5898   -0.1719 C   0  0  0  0  0  0  0  0  0  0  0  0
    5.0930    0.6424    0.1682 C   0  0  0  0  0  0  0  0  0  0  0  0
    2.1336   -1.4061   -1.8909 C   0  0  0  0  0  0  0  0  0  0  0  0
   -5.3443   -0.5619    0.1953 C   0  0  0  0  0  0  0  0  0  0  0  0
  1  2  1  0
  1 12  1  0
  2  3  1  0
  2  5  2  0
  2  8  1  0
  3 13  1  0
  4 10  1  0
  4 11  1  0
  6  9  2  0
  7 11  2  0
  8  9  1  0
  9 11  1  0
 10 14  1  0
M  END
>  <PUBCHEM_COMPOUND_CID>  (1) 
40557

>  <PUBCHEM_CONFORMER_RMSD>  (1) 
1

>  <PUBCHEM_CONFORMER_DIVERSEORDER>  (1) 
2
195
58
51
313
398
175
10
347
42
441
379
179
274
465
9
76
152
444
47
271
66
173
397
128
122
114
239
225
559
129
341
153
280
72
369
297
550
5
503
294
125
154
510
126
366
496
361
64
101
69
86
434
231
111
18
3
278
136
403
354
497
367
391
44
29
90
62
393
509
386
518
293
232
146
98
254
165
185
408
378
23
32
53
63
542
8
283
158
383
440
150
339
15
489
172
286
4
210
284
511
304
45
316
97
14
27
315
16
68
193
67
514
134
345
7
33
6
319
38
1

>  <PUBCHEM_MMFF94_PARTIAL_CHARGES>  (1) 
14
1 -0.48
10 0.28
11 0.72
12 0.23
13 0.28
15 0.37
2 1.48
3 -0.55
4 -0.43
5 -0.7
6 -0.57
7 -0.57
8 -0.69
9 0.63

>  <PUBCHEM_EFFECTIVE_ROTOR_COUNT>  (1) 
7

>  <PUBCHEM_PHARMACOPHORE_FEATURES>  (1) 
3
1 6 acceptor
1 7 acceptor
1 8 donor

>  <PUBCHEM_HEAVY_ATOM_COUNT>  (1) 
14

>  <PUBCHEM_ATOM_DEF_STEREO_COUNT>  (1) 
0

>  <PUBCHEM_ATOM_UDEF_STEREO_COUNT>  (1) 
1

>  <PUBCHEM_BOND_DEF_STEREO_COUNT>  (1) 
0

>  <PUBCHEM_BOND_UDEF_STEREO_COUNT>  (1) 
0

>  <PUBCHEM_ISOTOPIC_ATOM_COUNT>  (1) 
0

>  <PUBCHEM_COMPONENT_COUNT>  (1) 
1

>  <PUBCHEM_CACTVS_TAUTO_COUNT>  (1) 
3

>  <PUBCHEM_CONFORMER_ID>  (1) 
00009E6D00000002

>  <PUBCHEM_MMFF94_ENERGY>  (1) 
8.5949

>  <PUBCHEM_FEATURE_SELFOVERLAP>  (1) 
15.223

>  <PUBCHEM_SHAPE_FINGERPRINT>  (1) 
11031198 65 17846498132224255716
12616999 72 17917996074780407206
12815109 37 8862947173563102240
12932764 1 16343691102277985897
13760787 19 16487253275155330335
13922767 16 11818994088811715484
14115302 16 16298394590594283146
14123238 8 18409165532616234961
14252887 29 18411146835273547689
18186145 218 18337958861704423565
20279233 1 18187374232999283971
20645477 70 18060143085323933087
20671657 53 17841732724655504518
21618674 57 8646777702541939589
23402539 116 18260821639619987911
23557571 272 18113336384007278916
58051976 378 18342458153247325348
9999458 23 17095802222270298940

>  <PUBCHEM_SHAPE_MULTIPOLES>  (1) 
261.48
9.81
1.4
1.17
5.75
0.32
0.09
-1.33
-0.05
-0.92
-0.55
-0.73
0.28
0.66

>  <PUBCHEM_SHAPE_SELFOVERLAP>  (1) 
466.008

>  <PUBCHEM_SHAPE_VOLUME>  (1) 
170.6

>  <PUBCHEM_COORDINATE_TYPE>  (1) 
2
5
10

$$$$
