40556
     RDKit          3D

 13 13  0  0  1  0  0  0  0  0999 V2000
    2.0447   -3.5096   -0.0907 Br  0  0  0  0  0  0  0  0  0  0  0  0
    1.5398   -0.3824   -0.2538 O   0  0  0  0  0  0  0  0  0  0  0  0
    0.4557   -1.1439    0.2957 C   0  0  0  0  0  0  0  0  0  0  0  0
   -0.8108   -0.3744    0.1269 C   0  0  0  0  0  0  0  0  0  0  0  0
    1.6689    0.8660    0.4030 C   0  0  0  0  0  0  0  0  0  0  0  0
    0.3957   -2.5083   -0.3986 C   0  0  0  0  0  0  0  0  0  0  0  0
    2.8290    1.6299   -0.2167 C   0  0  0  0  0  0  0  0  0  0  0  0
   -0.9670    0.4807   -0.9641 C   0  0  0  0  0  0  0  0  0  0  0  0
   -1.8390   -0.5101    1.0596 C   0  0  0  0  0  0  0  0  0  0  0  0
    3.0378    2.9779    0.4496 C   0  0  0  0  0  0  0  0  0  0  0  0
   -2.1514    1.2002   -1.1223 C   0  0  0  0  0  0  0  0  0  0  0  0
   -3.0235    0.2095    0.9012 C   0  0  0  0  0  0  0  0  0  0  0  0
   -3.1797    1.0646   -0.1897 C   0  0  0  0  0  0  0  0  0  0  0  0
  1  6  1  0
  2  3  1  0
  2  5  1  0
  3  4  1  0
  3  6  1  0
  4  8  2  0
  4  9  1  0
  5  7  1  0
  7 10  1  0
  8 11  1  0
  9 12  2  0
 11 13  2  0
 12 13  1  0
M  END
>  <PUBCHEM_COMPOUND_CID>  (1) 
40556

>  <PUBCHEM_CONFORMER_RMSD>  (1) 
0.6

>  <PUBCHEM_CONFORMER_DIVERSEORDER>  (1) 
1
24
35
3
31
13
26
18
9
7
23
36
2
19
32
22
12
30
29
34
8
6
17
11
20
33
5
14
21
10
15
25
27
16
28
4

>  <PUBCHEM_MMFF94_PARTIAL_CHARGES>  (1) 
16
1 -0.23
11 -0.15
12 -0.15
13 -0.15
2 -0.56
21 0.15
22 0.15
26 0.15
27 0.15
28 0.15
3 0.42
4 -0.14
5 0.28
6 0.23
8 -0.15
9 -0.15

>  <PUBCHEM_EFFECTIVE_ROTOR_COUNT>  (1) 
5

>  <PUBCHEM_PHARMACOPHORE_FEATURES>  (1) 
4
1 1 hydrophobe
1 10 hydrophobe
1 2 acceptor
6 4 8 9 11 12 13 rings

>  <PUBCHEM_HEAVY_ATOM_COUNT>  (1) 
13

>  <PUBCHEM_ATOM_DEF_STEREO_COUNT>  (1) 
0

>  <PUBCHEM_ATOM_UDEF_STEREO_COUNT>  (1) 
1

>  <PUBCHEM_BOND_DEF_STEREO_COUNT>  (1) 
0

>  <PUBCHEM_BOND_UDEF_STEREO_COUNT>  (1) 
0

>  <PUBCHEM_ISOTOPIC_ATOM_COUNT>  (1) 
0

>  <PUBCHEM_COMPONENT_COUNT>  (1) 
1

>  <PUBCHEM_CACTVS_TAUTO_COUNT>  (1) 
1

>  <PUBCHEM_CONFORMER_ID>  (1) 
00009E6C00000001

>  <PUBCHEM_MMFF94_ENERGY>  (1) 
32.1017

>  <PUBCHEM_FEATURE_SELFOVERLAP>  (1) 
20.297

>  <PUBCHEM_SHAPE_FINGERPRINT>  (1) 
1 1 18411138030648749638
10465860 250 17610900089109800546
10857977 72 17240777185220247353
11127187 94 11383293940357099297
12138202 78 18264769852805211247
14648413 74 18263923228915205105
15219456 202 18188778223485576499
15309172 13 18338238296292230169
15490181 7 18339085989961668718
16945 1 18339643313402105767
17841504 4 18121786027945517595
18186145 218 18201449120254623880
18380122 1 18114473335265491187
18785283 64 18335151873032774816
20645477 56 18052263087852440816
20671657 1 18341052925947763638
20671657 53 17838055905457439150
20711985 344 17477469272317020290
20871998 184 17973734858867400427
21041028 32 17764034566567158872
21061003 4 17905617605223857611
21524375 3 18264484151812744498
23175994 123 17833839265543177039
23211744 41 18113616793990043707
23557571 272 17530975674495701717
27216 239 17973439102972034608
2748010 2 18261681453444302172
305870 269 18411416232870826216
31174 14 18265065647519586347
3250762 1 18334583416805225219
458136 41 18265638587229126552
4663303 62 18337110047080279767
58734987 86 18124035620257081290
7364860 26 18338517422101067454
81228 2 17474669932829268162

>  <PUBCHEM_SHAPE_MULTIPOLES>  (1) 
267.61
4.97
3.61
1
1.62
0.76
-0.02
-2.03
0.32
-5.62
0.02
0.55
-0.07
0.75

>  <PUBCHEM_SHAPE_SELFOVERLAP>  (1) 
520.851

>  <PUBCHEM_SHAPE_VOLUME>  (1) 
165.9

>  <PUBCHEM_COORDINATE_TYPE>  (1) 
2
5
10

$$$$
