4056
     RDKit          2D

 33 34  0  0  0  0  0  0  0  0999 V2000
    0.0000    0.0000    0.0000 O   0  0  0  0  0  0  0  0  0  0  0  0
    0.0000    0.0000    0.0000 O   0  0  0  0  0  0  0  0  0  0  0  0
    0.0000    0.0000    0.0000 C   0  0  0  0  0  0  0  0  0  0  0  0
    0.0000    0.0000    0.0000 C   0  0  0  0  0  0  0  0  0  0  0  0
    0.0000    0.0000    0.0000 C   0  0  0  0  0  0  0  0  0  0  0  0
    0.0000    0.0000    0.0000 C   0  0  0  0  0  0  0  0  0  0  0  0
    0.0000    0.0000    0.0000 C   0  0  0  0  0  0  0  0  0  0  0  0
    0.0000    0.0000    0.0000 C   0  0  0  0  0  0  0  0  0  0  0  0
    0.0000    0.0000    0.0000 C   0  0  0  0  0  0  0  0  0  0  0  0
    0.0000    0.0000    0.0000 C   0  0  0  0  0  0  0  0  0  0  0  0
    0.0000    0.0000    0.0000 C   0  0  0  0  0  0  0  0  0  0  0  0
    0.0000    0.0000    0.0000 C   0  0  0  0  0  0  0  0  0  0  0  0
    0.0000    0.0000    0.0000 C   0  0  0  0  0  0  0  0  0  0  0  0
    0.0000    0.0000    0.0000 C   0  0  0  0  0  0  0  0  0  0  0  0
    0.0000    0.0000    0.0000 C   0  0  0  0  0  0  0  0  0  0  0  0
    0.0000    0.0000    0.0000 C   0  0  0  0  0  0  0  0  0  0  0  0
    0.0000    0.0000    0.0000 C   0  0  0  0  0  0  0  0  0  0  0  0
    0.0000    0.0000    0.0000 C   0  0  0  0  0  0  0  0  0  0  0  0
    0.0000    0.0000    0.0000 C   0  0  0  0  0  0  0  0  0  0  0  0
    0.0000    0.0000    0.0000 C   0  0  0  0  0  0  0  0  0  0  0  0
    0.0000    0.0000    0.0000 C   0  0  0  0  0  0  0  0  0  0  0  0
    0.0000    0.0000    0.0000 C   0  0  0  0  0  0  0  0  0  0  0  0
    0.0000    0.0000    0.0000 C   0  0  0  0  0  0  0  0  0  0  0  0
    0.0000    0.0000    0.0000 C   0  0  0  0  0  0  0  0  0  0  0  0
    0.0000    0.0000    0.0000 C   0  0  0  0  0  0  0  0  0  0  0  0
    0.0000    0.0000    0.0000 C   0  0  0  0  0  0  0  0  0  0  0  0
    0.0000    0.0000    0.0000 C   0  0  0  0  0  0  0  0  0  0  0  0
    0.0000    0.0000    0.0000 C   0  0  0  0  0  0  0  0  0  0  0  0
    0.0000    0.0000    0.0000 C   0  0  0  0  0  0  0  0  0  0  0  0
    0.0000    0.0000    0.0000 C   0  0  0  0  0  0  0  0  0  0  0  0
    0.0000    0.0000    0.0000 C   0  0  0  0  0  0  0  0  0  0  0  0
    0.0000    0.0000    0.0000 C   0  0  0  0  0  0  0  0  0  0  0  0
    0.0000    0.0000    0.0000 C   0  0  0  0  0  0  0  0  0  0  0  0
  1 15  2  0
  2 20  2  0
  3  4  1  0
  3  8  1  0
  4 12  1  0
  5  7  1  0
  5 11  2  0
  5 15  1  0
  6  9  1  0
  6 10  1  0
  7 13  1  0
  8 13  2  3
  8 21  1  0
  9 12  2  3
  9 23  1  0
 10 18  1  0
 11 20  1  0
 11 24  1  0
 14 15  1  0
 14 16  2  0
 14 25  1  0
 16 20  1  0
 16 26  1  0
 17 18  2  3
 17 19  1  0
 17 27  1  0
 19 22  1  0
 22 28  1  0
 25 29  2  0
 26 30  2  0
 28 31  2  3
 29 30  1  0
 31 32  1  0
 31 33  1  0
M  END
>  <PUBCHEM_COMPOUND_CID>  (1) 
4056

>  <PUBCHEM_CONFORMER_RMSD>  (1) 
1.4

>  <PUBCHEM_CONFORMER_DIVERSEORDER>  (1) 
25
253
178
130
177
222
41
45
109
17
100
141
197
12
182
227
214
173
196
24
187
150
179
246
114
180
281
81
128
276
142
169
64
240
191
69
103
215
171
10
272
27
218
35
106
36
48
250
134
78
175
122
28
89
254
54
61
220
221
1
231
201
93
223
110
129
65
107
117
71
84
234
203
225
200
210
55
217
258
237
135
67
80
249
184
18
176
174
263
31
44
72
172
198
33
239
21
165
37
154
82
247
6
213
127
244
58
232
164
88
204
265
40
149
216
144
62
98
230
83
170
181
273
118
274
126
32
124
266
50
212
242
49
111
90
60
51
95
193
125
167
85
207
155
139
158
146
145
211
76
30
277
252
156
279
74
57
233
256
226
278
157
224
26
151
73
238
115
255
147
208
2
86
183
42
20
113
13
283
269
153
195
138
219
228
105
96
39
185
229
94
190
131
119
133
245
194
148
161
102
205
248
251
282
189
52
192
53
91
143
22
46
209
75
199
259
280
162
137
112
260
66
268
206
132
261
123
166
43
63
257
116
59
108
140
163
34
70
56
186
15
159
202
243
101
3
79
29
235
121
23
152
47
68
4
38
97
120
11
188
275
5
160
236
262
14
87
264
8
136
92
9
16
19
7
267
241
270
99
168
271
104
77

>  <PUBCHEM_MMFF94_PARTIAL_CHARGES>  (1) 
41
1 -0.57
10 0.14
11 -0.12
12 -0.29
13 -0.29
14 0.09
15 0.47
16 0.09
17 -0.28
18 -0.29
19 0.14
2 -0.57
20 0.47
21 0.14
22 0.14
23 0.14
24 0.14
25 -0.15
26 -0.15
27 0.14
28 -0.29
29 -0.15
3 0.14
30 -0.15
31 -0.28
32 0.14
33 0.14
4 0.14
44 0.15
45 0.15
46 0.15
5 -0.12
6 0.14
60 0.15
61 0.15
65 0.15
66 0.15
67 0.15
7 0.28
8 -0.28
9 -0.28

>  <PUBCHEM_EFFECTIVE_ROTOR_COUNT>  (1) 
11

>  <PUBCHEM_PHARMACOPHORE_FEATURES>  (1) 
11
1 1 acceptor
1 2 acceptor
1 21 hydrophobe
1 23 hydrophobe
1 27 hydrophobe
3 31 32 33 hydrophobe
4 17 19 22 28 hydrophobe
4 3 4 8 12 hydrophobe
4 6 9 10 18 hydrophobe
6 14 16 25 26 29 30 rings
6 5 11 14 15 16 20 rings

>  <PUBCHEM_HEAVY_ATOM_COUNT>  (1) 
33

>  <PUBCHEM_ATOM_DEF_STEREO_COUNT>  (1) 
0

>  <PUBCHEM_ATOM_UDEF_STEREO_COUNT>  (1) 
0

>  <PUBCHEM_BOND_DEF_STEREO_COUNT>  (1) 
0

>  <PUBCHEM_BOND_UDEF_STEREO_COUNT>  (1) 
3

>  <PUBCHEM_ISOTOPIC_ATOM_COUNT>  (1) 
0

>  <PUBCHEM_COMPONENT_COUNT>  (1) 
1

>  <PUBCHEM_CACTVS_TAUTO_COUNT>  (1) 
5

$$$$
