40574
     RDKit          3D

 22 24  0  0  1  0  0  0  0  0999 V2000
   -2.1459    1.9615   -0.3001 O   0  0  0  0  0  0  0  0  0  0  0  0
    3.5285   -0.8187   -0.3805 O   0  0  0  0  0  0  0  0  0  0  0  0
    3.1974   -0.8285    1.8817 O   0  0  0  0  0  0  0  0  0  0  0  0
    1.4672   -0.2025    0.4546 N   0  0  0  0  0  0  0  0  0  0  0  0
   -1.2423    0.8692   -0.0612 C   0  0  0  0  0  0  0  0  0  0  0  0
   -0.1375    0.8918   -1.1584 C   0  0  0  0  0  0  0  0  0  0  0  0
   -0.4904    1.1481    1.2731 C   0  0  0  0  0  0  0  0  0  0  0  0
    0.5240    2.2889   -1.2465 C   0  0  0  0  0  0  0  0  0  0  0  0
    0.1768    2.5442    1.2585 C   0  0  0  0  0  0  0  0  0  0  0  0
    0.9233   -0.2011   -0.9097 C   0  0  0  0  0  0  0  0  0  0  0  0
    0.5351    0.0365    1.5580 C   0  0  0  0  0  0  0  0  0  0  0  0
    1.1080    2.7833    0.0735 C   0  0  0  0  0  0  0  0  0  0  0  0
   -2.1470   -0.3705   -0.0275 C   0  0  0  0  0  0  0  0  0  0  0  0
    2.7701   -0.6327    0.7452 C   0  0  0  0  0  0  0  0  0  0  0  0
   -3.1949   -0.4398    0.8879 C   0  0  0  0  0  0  0  0  0  0  0  0
   -1.9174   -1.4215   -0.9125 C   0  0  0  0  0  0  0  0  0  0  0  0
   -2.8416    1.8014   -1.5282 C   0  0  0  0  0  0  0  0  0  0  0  0
   -4.0172   -1.5660    0.9186 C   0  0  0  0  0  0  0  0  0  0  0  0
   -2.7399   -2.5477   -0.8818 C   0  0  0  0  0  0  0  0  0  0  0  0
   -3.7898   -2.6199    0.0338 C   0  0  0  0  0  0  0  0  0  0  0  0
    4.8737   -1.2621   -0.1688 C   0  0  0  0  0  0  0  0  0  0  0  0
    5.5597   -1.4138   -1.5098 C   0  0  0  0  0  0  0  0  0  0  0  0
  1  5  1  0
  1 17  1  0
  2 14  1  0
  2 21  1  0
  3 14  2  0
  4 10  1  0
  4 11  1  0
  4 14  1  0
  5  6  1  0
  5  7  1  0
  5 13  1  0
  6  8  1  0
  6 10  1  0
  7  9  1  0
  7 11  1  0
  8 12  1  0
  9 12  1  0
 13 15  2  0
 13 16  1  0
 15 18  1  0
 16 19  2  0
 18 20  2  0
 19 20  1  0
 21 22  1  0
M  END
>  <PUBCHEM_COMPOUND_CID>  (1) 
40574

>  <PUBCHEM_CONFORMER_RMSD>  (1) 
0.8

>  <PUBCHEM_CONFORMER_DIVERSEORDER>  (1) 
1
9
7
12
5
13
4
11
10
2
8
3
6

>  <PUBCHEM_MMFF94_PARTIAL_CHARGES>  (1) 
21
1 -0.56
10 0.3
11 0.3
13 -0.14
14 0.78
15 -0.15
16 -0.15
17 0.28
18 -0.15
19 -0.15
2 -0.43
20 -0.15
21 0.28
3 -0.57
35 0.15
36 0.15
4 -0.66
40 0.15
41 0.15
42 0.15
5 0.42

>  <PUBCHEM_EFFECTIVE_ROTOR_COUNT>  (1) 
6.4

>  <PUBCHEM_PHARMACOPHORE_FEATURES>  (1) 
5
1 1 acceptor
1 3 acceptor
6 13 15 16 18 19 20 rings
6 4 5 6 7 10 11 rings
6 5 6 7 8 9 12 rings

>  <PUBCHEM_HEAVY_ATOM_COUNT>  (1) 
22

>  <PUBCHEM_ATOM_DEF_STEREO_COUNT>  (1) 
0

>  <PUBCHEM_ATOM_UDEF_STEREO_COUNT>  (1) 
2

>  <PUBCHEM_BOND_DEF_STEREO_COUNT>  (1) 
0

>  <PUBCHEM_BOND_UDEF_STEREO_COUNT>  (1) 
0

>  <PUBCHEM_ISOTOPIC_ATOM_COUNT>  (1) 
0

>  <PUBCHEM_COMPONENT_COUNT>  (1) 
1

>  <PUBCHEM_CACTVS_TAUTO_COUNT>  (1) 
1

>  <PUBCHEM_CONFORMER_ID>  (1) 
00009E7E00000001

>  <PUBCHEM_MMFF94_ENERGY>  (1) 
72.2695

>  <PUBCHEM_FEATURE_SELFOVERLAP>  (1) 
26.993

>  <PUBCHEM_SHAPE_FINGERPRINT>  (1) 
10042902 136 18128540551087346502
10764073 3 15837931047984997098
11578080 2 18262222422014501101
12011746 2 18342451492375476463
121448 382 11674888813562797937
12553582 1 18334288794785974003
12633257 1 14979955865802113990
12714826 92 18408599240893505163
13009979 54 18127427832978005931
13149001 5 18120057694651888221
13533116 47 17910673491081783611
13544653 18 18271801362930358442
14251764 30 18262249918189538243
14787075 74 18191306181576088528
15061688 2 9006788570110963195
15534591 1 8934999243908915424
16945 1 18265603286930363649
1813 80 18408884070487710830
18186145 218 12036012314058214626
18981168 100 10806827768184178189
200 152 17385730171191956746
20600515 1 18059027089532709168
20871999 31 18260265218011750551
21403212 168 11455344830230224270
21452121 199 18191294082241648417
21452121 71 18261683661273757092
21731516 1 18262790882473584315
22182313 1 18266156474433644608
23402539 116 17676490493745478030
23419403 2 18198319909893065025
23557571 272 18341622460529278582
23559900 14 18270109103530628458
23566358 27 18119258504121644909
238078 22 18410016503166125410
70251023 43 18264200482345758963
7970288 3 18336266824953143674

>  <PUBCHEM_SHAPE_MULTIPOLES>  (1) 
430.16
7.9
3.06
1.59
8.09
0.92
0.13
-7.94
-1.17
-1.22
-0.5
0.41
0.23
0.68

>  <PUBCHEM_SHAPE_SELFOVERLAP>  (1) 
908.51

>  <PUBCHEM_SHAPE_VOLUME>  (1) 
236.5

>  <PUBCHEM_COORDINATE_TYPE>  (1) 
2
5
10

$$$$
