40576
     RDKit          3D

 18 20  0  0  0  0  0  0  0  0999 V2000
   -3.8292   -2.3635    0.4215 O   0  0  0  0  0  0  0  0  0  0  0  0
    1.8345    1.4459    0.2453 N   0  0  0  0  0  0  0  0  0  0  0  0
   -4.2907   -0.0742    0.4057 N   0  0  0  0  0  0  0  0  0  0  0  0
    0.1895    0.0260   -0.2551 C   0  0  0  0  0  0  0  0  0  0  0  0
    0.4814    1.3632    0.0156 C   0  0  0  0  0  0  0  0  0  0  0  0
    1.4189   -0.7030   -0.1808 C   0  0  0  0  0  0  0  0  0  0  0  0
    2.4260    0.2097    0.1334 C   0  0  0  0  0  0  0  0  0  0  0  0
   -1.1478   -0.3305   -0.5279 C   0  0  0  0  0  0  0  0  0  0  0  0
   -2.1372    0.6592   -0.5191 C   0  0  0  0  0  0  0  0  0  0  0  0
   -0.4967    2.3641    0.0275 C   0  0  0  0  0  0  0  0  0  0  0  0
    1.7673   -2.0593   -0.3525 C   0  0  0  0  0  0  0  0  0  0  0  0
   -1.8141    1.9861   -0.2451 C   0  0  0  0  0  0  0  0  0  0  0  0
    3.7661   -0.1643    0.2853 C   0  0  0  0  0  0  0  0  0  0  0  0
    2.5419    2.6704    0.5637 C   0  0  0  0  0  0  0  0  0  0  0  0
   -3.5538    0.2862   -0.8062 C   0  0  0  0  0  0  0  0  0  0  0  0
    3.1034   -2.4486   -0.2040 C   0  0  0  0  0  0  0  0  0  0  0  0
    4.0863   -1.5134    0.1104 C   0  0  0  0  0  0  0  0  0  0  0  0
   -4.3460   -1.3539    0.8825 C   0  0  0  0  0  0  0  0  0  0  0  0
  1 18  2  0
  2  5  1  0
  2  7  1  0
  2 14  1  0
  3 15  1  0
  3 18  1  0
  4  5  2  0
  4  6  1  0
  4  8  1  0
  5 10  1  0
  6  7  2  0
  6 11  1  0
  7 13  1  0
  8  9  2  0
  9 12  1  0
  9 15  1  0
 10 12  2  0
 11 16  2  0
 13 17  2  0
 16 17  1  0
M  END
>  <PUBCHEM_COMPOUND_CID>  (1) 
40576

>  <PUBCHEM_CONFORMER_RMSD>  (1) 
0.6

>  <PUBCHEM_CONFORMER_DIVERSEORDER>  (1) 
1
6
9
7
3
4
8
2
10
5

>  <PUBCHEM_MMFF94_PARTIAL_CHARGES>  (1) 
25
1 -0.57
10 -0.15
11 -0.15
12 -0.15
13 -0.15
14 0.26
15 0.44
16 -0.15
17 -0.15
18 0.57
19 0.15
2 0.05
20 0.15
21 0.15
22 0.15
23 0.15
29 0.15
3 -0.73
30 0.15
31 0.37
32 0.06
5 -0.15
7 -0.15
8 -0.15
9 -0.14

>  <PUBCHEM_EFFECTIVE_ROTOR_COUNT>  (1) 
3

>  <PUBCHEM_PHARMACOPHORE_FEATURES>  (1) 
6
1 1 acceptor
1 2 cation
1 3 donor
5 2 4 5 6 7 rings
6 4 5 8 9 10 12 rings
6 6 7 11 13 16 17 rings

>  <PUBCHEM_HEAVY_ATOM_COUNT>  (1) 
18

>  <PUBCHEM_ATOM_DEF_STEREO_COUNT>  (1) 
0

>  <PUBCHEM_ATOM_UDEF_STEREO_COUNT>  (1) 
0

>  <PUBCHEM_BOND_DEF_STEREO_COUNT>  (1) 
0

>  <PUBCHEM_BOND_UDEF_STEREO_COUNT>  (1) 
0

>  <PUBCHEM_ISOTOPIC_ATOM_COUNT>  (1) 
0

>  <PUBCHEM_COMPONENT_COUNT>  (1) 
1

>  <PUBCHEM_CACTVS_TAUTO_COUNT>  (1) 
2

>  <PUBCHEM_CONFORMER_ID>  (1) 
00009E8000000001

>  <PUBCHEM_MMFF94_ENERGY>  (1) 
36.6626

>  <PUBCHEM_FEATURE_SELFOVERLAP>  (1) 
30.625

>  <PUBCHEM_SHAPE_FINGERPRINT>  (1) 
10967382 1 18341041991335678284
11543360 7 16588318163034197166
11552529 35 17915745477922159283
11806522 49 18335702715462800118
12032990 46 18409730633973718757
12506688 2 18411421734734436483
12553582 1 18343012272959294630
13140716 1 18197206165107199434
13533116 47 18200874089127638483
13740256 8 18409452462249209082
14223421 5 18409725158022557965
14252887 29 17775004536280860478
14787075 74 18187933919057290898
14790565 3 17544484509998484733
15196674 1 18268706109212932732
15352361 1 18409167727540150291
15375462 189 18060134357860411009
15475509 84 17987816111428064425
16945 1 18342163458704428708
17834074 16 18408603647704193071
1813 80 17385448743422768581
18785283 64 18264485264568593840
19141452 34 18411141338390927811
19591789 44 17545044165711515780
200 152 17988344989321094525
20261772 1 18059851774750892647
20281475 54 18408893931795854525
20645477 70 18339061770793574013
20681677 274 18408881836882989115
21267235 1 18269840822435202678
221490 88 18409730651385676948
2334 1 17980468285493010244
23559900 14 18335695027313357484
26918003 58 18335695001548620591
2748010 2 18339062878721530500
5104073 3 18197772211768913106
7364860 26 18343011208176819352
8809292 202 18333452023708758579
9709674 26 18268709398646601046

>  <PUBCHEM_SHAPE_MULTIPOLES>  (1) 
354.6
7.92
2.9
0.78
4.34
0.36
-0.01
-4.67
-1.25
-0.85
-0.33
0.36
-0.05
1.03

>  <PUBCHEM_SHAPE_SELFOVERLAP>  (1) 
783.26

>  <PUBCHEM_SHAPE_VOLUME>  (1) 
192.9

>  <PUBCHEM_COORDINATE_TYPE>  (1) 
2
5
10

$$$$
