40582
     RDKit          3D

 18 21  0  0  0  0  0  0  0  0999 V2000
   -0.3546   -0.5479    0.3189 N   0  0  0  0  0  0  0  0  0  0  0  0
    1.5457    0.2039   -1.1284 C   0  0  0  0  0  0  0  0  0  0  0  0
    1.9910   -0.9740    1.0570 C   0  0  0  0  0  0  0  0  0  0  0  0
    3.9073   -0.4359   -0.4989 C   0  0  0  0  0  0  0  0  0  0  0  0
    2.7347    1.4193    0.7398 C   0  0  0  0  0  0  0  0  0  0  0  0
    1.0057   -0.8489   -0.1304 C   0  0  0  0  0  0  0  0  0  0  0  0
    2.9099   -0.2798   -1.6604 C   0  0  0  0  0  0  0  0  0  0  0  0
    1.7457    1.5649   -0.4299 C   0  0  0  0  0  0  0  0  0  0  0  0
    3.3531   -1.4523    0.5149 C   0  0  0  0  0  0  0  0  0  0  0  0
    2.1892    0.3917    1.7468 C   0  0  0  0  0  0  0  0  0  0  0  0
    4.0865    0.9238    0.1975 C   0  0  0  0  0  0  0  0  0  0  0  0
   -1.2697   -0.5013   -0.8101 C   0  0  0  0  0  0  0  0  0  0  0  0
   -2.6755   -0.1942   -0.3815 C   0  0  0  0  0  0  0  0  0  0  0  0
   -3.5383   -1.2345   -0.0570 C   0  0  0  0  0  0  0  0  0  0  0  0
   -3.1006    1.1275   -0.3139 C   0  0  0  0  0  0  0  0  0  0  0  0
   -4.8446   -0.9493    0.3407 C   0  0  0  0  0  0  0  0  0  0  0  0
   -4.4067    1.4128    0.0838 C   0  0  0  0  0  0  0  0  0  0  0  0
   -5.2786    0.3744    0.4111 C   0  0  0  0  0  0  0  0  0  0  0  0
  1  6  1  0
  1 12  1  0
  2  6  1  0
  2  7  1  0
  2  8  1  0
  3  6  1  0
  3  9  1  0
  3 10  1  0
  4  7  1  0
  4  9  1  0
  4 11  1  0
  5  8  1  0
  5 10  1  0
  5 11  1  0
 12 13  1  0
 13 14  2  0
 13 15  1  0
 14 16  1  0
 15 17  2  0
 16 18  2  0
 17 18  1  0
M  END
>  <PUBCHEM_COMPOUND_CID>  (1) 
40582

>  <PUBCHEM_CONFORMER_RMSD>  (1) 
0.6

>  <PUBCHEM_CONFORMER_DIVERSEORDER>  (1) 
1
3
4
2

>  <PUBCHEM_MMFF94_PARTIAL_CHARGES>  (1) 
15
1 -0.9
12 0.41
13 -0.14
14 -0.15
15 -0.15
16 -0.15
17 -0.15
18 -0.15
34 0.36
37 0.15
38 0.15
39 0.15
40 0.15
41 0.15
6 0.27

>  <PUBCHEM_EFFECTIVE_ROTOR_COUNT>  (1) 
4.2

>  <PUBCHEM_PHARMACOPHORE_FEATURES>  (1) 
7
1 1 cation
1 1 donor
6 13 14 15 16 17 18 rings
6 2 3 4 6 7 9 rings
6 2 3 5 6 8 10 rings
6 2 4 5 7 8 11 rings
6 3 4 5 9 10 11 rings

>  <PUBCHEM_HEAVY_ATOM_COUNT>  (1) 
18

>  <PUBCHEM_ATOM_DEF_STEREO_COUNT>  (1) 
0

>  <PUBCHEM_ATOM_UDEF_STEREO_COUNT>  (1) 
0

>  <PUBCHEM_BOND_DEF_STEREO_COUNT>  (1) 
0

>  <PUBCHEM_BOND_UDEF_STEREO_COUNT>  (1) 
0

>  <PUBCHEM_ISOTOPIC_ATOM_COUNT>  (1) 
0

>  <PUBCHEM_COMPONENT_COUNT>  (1) 
1

>  <PUBCHEM_CACTVS_TAUTO_COUNT>  (1) 
1

>  <PUBCHEM_CONFORMER_ID>  (1) 
00009E8600000001

>  <PUBCHEM_MMFF94_ENERGY>  (1) 
40.2619

>  <PUBCHEM_FEATURE_SELFOVERLAP>  (1) 
48.014

>  <PUBCHEM_SHAPE_FINGERPRINT>  (1) 
10366900 7 16660648474853280889
10646746 165 18342457015076009253
11552529 35 16701175455915556063
12107183 9 17613430052717034897
12236239 1 17894632547584976807
128620 24 17821728351464143095
13134695 92 16200430226579357752
13224815 77 17530960293911937607
13464513 79 16153429454503108134
13533116 47 18113611245541559683
13675066 3 18130785676774222815
14252887 29 16153422831552702786
14289901 80 18337952397915851643
14341114 176 18408610253511282217
15239154 128 18409167701717287129
15375358 24 8574709096434782661
15788980 27 17418091009967763567
18186145 218 18412822482404369703
19050596 39 18113616790032686323
19862831 5 12031790288096947895
200 152 8214142954261650775
20645477 70 16486984972247458302
21033648 29 17632285749373185849
212847 35 17989205936425794688
21503847 285 18407762546978573468
22646028 1 16225763026001760243
22854114 111 18335417971736473699
22854114 59 17748825220067859607
23402655 69 17060340738226676268
23557571 272 17988360481183572347
23559900 14 18201444640255425575
3545911 37 18409731751192677925
4047638 21 17988926690948456638
42 15 18261109656032460631
4214541 1 18410012122447202441
474 4 17677900230228288684
5104073 3 18408603652178191011
5281201 14 17561091280262852453
542803 24 17703793617656461761
633830 44 18131067126123613367
7495541 125 17059772342392062099
77779 3 18409730660139232819

>  <PUBCHEM_SHAPE_MULTIPOLES>  (1) 
365.45
10.53
1.51
1.22
11.55
0.22
-0.02
0.6
-0.87
-0.03
-0.14
-1.11
-0.01
0.11

>  <PUBCHEM_SHAPE_SELFOVERLAP>  (1) 
794.489

>  <PUBCHEM_SHAPE_VOLUME>  (1) 
191.8

>  <PUBCHEM_COORDINATE_TYPE>  (1) 
2
5
10

$$$$
