40587
     RDKit          3D

 23 25  0  0  1  0  0  0  0  0999 V2000
   -2.1644    0.8295    0.2902 O   0  0  0  0  0  0  0  0  0  0  0  0
   -0.3841    2.1606   -1.5522 O   0  0  0  0  0  0  0  0  0  0  0  0
    2.0573    2.3966   -0.5683 O   0  0  0  0  0  0  0  0  0  0  0  0
    0.1568   -2.5762   -0.9998 O   0  0  0  0  0  0  0  0  0  0  0  0
    4.0484    1.6010    0.8531 O   0  0  0  0  0  0  0  0  0  0  0  0
   -5.8656   -0.0405    0.6382 O   0  0  0  0  0  0  0  0  0  0  0  0
   -4.1629   -0.7945    1.9470 O   0  0  0  0  0  0  0  0  0  0  0  0
    0.0436    1.0683   -0.7348 C   0  0  0  0  0  0  0  0  0  0  0  0
   -0.1684   -0.2367   -1.5131 C   0  0  0  0  0  0  0  0  0  0  0  0
   -0.7814    1.0900    0.5719 C   0  0  0  0  0  0  0  0  0  0  0  0
   -1.6706   -0.5273   -1.6585 C   0  0  0  0  0  0  0  0  0  0  0  0
   -2.3819   -0.4501   -0.3056 C   0  0  0  0  0  0  0  0  0  0  0  0
    1.5221    1.2975   -0.4546 C   0  0  0  0  0  0  0  0  0  0  0  0
    0.5627   -1.4221   -0.8887 C   0  0  0  0  0  0  0  0  0  0  0  0
    2.3144    0.1363   -0.0015 C   0  0  0  0  0  0  0  0  0  0  0  0
    1.8428   -1.1643   -0.1886 C   0  0  0  0  0  0  0  0  0  0  0  0
   -0.7423    2.4341    1.2987 C   0  0  0  0  0  0  0  0  0  0  0  0
   -3.8847   -0.6341   -0.4691 C   0  0  0  0  0  0  0  0  0  0  0  0
    3.5455    0.3535    0.6291 C   0  0  0  0  0  0  0  0  0  0  0  0
    2.6013   -2.2482    0.2723 C   0  0  0  0  0  0  0  0  0  0  0  0
   -4.6102   -0.5148    0.8450 C   0  0  0  0  0  0  0  0  0  0  0  0
    4.2971   -0.7301    1.0825 C   0  0  0  0  0  0  0  0  0  0  0  0
    3.8246   -2.0284    0.9069 C   0  0  0  0  0  0  0  0  0  0  0  0
  1 10  1  0
  1 12  1  0
  2  8  1  0
  3 13  2  0
  4 14  2  0
  5 19  1  0
  6 21  1  0
  7 21  2  0
  8  9  1  0
  8 10  1  0
  8 13  1  0
  9 11  1  0
  9 14  1  0
 10 17  1  0
 11 12  1  0
 12 18  1  0
 13 15  1  0
 14 16  1  0
 15 16  2  0
 15 19  1  0
 16 20  1  0
 18 21  1  0
 19 22  2  0
 20 23  2  0
 22 23  1  0
M  END
>  <PUBCHEM_COMPOUND_CID>  (1) 
40587

>  <PUBCHEM_CONFORMER_RMSD>  (1) 
0.6

>  <PUBCHEM_CONFORMER_DIVERSEORDER>  (1) 
1
9
5
13
10
4
15
6
8
3
7
16
12
2
17
11
14

>  <PUBCHEM_MMFF94_PARTIAL_CHARGES>  (1) 
27
1 -0.56
10 0.28
12 0.28
13 0.42
14 0.42
15 0.09
16 0.09
18 0.06
19 0.08
2 -0.68
20 -0.15
21 0.66
22 -0.15
23 -0.15
3 -0.57
34 0.4
35 0.15
36 0.15
37 0.15
38 0.45
39 0.5
4 -0.57
5 -0.53
6 -0.65
7 -0.57
8 0.34
9 0.06

>  <PUBCHEM_EFFECTIVE_ROTOR_COUNT>  (1) 
2.8

>  <PUBCHEM_PHARMACOPHORE_FEATURES>  (1) 
12
1 1 acceptor
1 2 acceptor
1 2 donor
1 3 acceptor
1 4 acceptor
1 5 donor
1 6 acceptor
1 7 acceptor
3 6 7 21 anion
6 1 8 9 10 11 12 rings
6 15 16 19 20 22 23 rings
6 8 9 13 14 15 16 rings

>  <PUBCHEM_HEAVY_ATOM_COUNT>  (1) 
23

>  <PUBCHEM_ATOM_DEF_STEREO_COUNT>  (1) 
2

>  <PUBCHEM_ATOM_UDEF_STEREO_COUNT>  (1) 
2

>  <PUBCHEM_BOND_DEF_STEREO_COUNT>  (1) 
0

>  <PUBCHEM_BOND_UDEF_STEREO_COUNT>  (1) 
0

>  <PUBCHEM_ISOTOPIC_ATOM_COUNT>  (1) 
0

>  <PUBCHEM_COMPONENT_COUNT>  (1) 
1

>  <PUBCHEM_CACTVS_TAUTO_COUNT>  (1) 
10

>  <PUBCHEM_CONFORMER_ID>  (1) 
00009E8B00000001

>  <PUBCHEM_MMFF94_ENERGY>  (1) 
58.5308

>  <PUBCHEM_FEATURE_SELFOVERLAP>  (1) 
61.057

>  <PUBCHEM_SHAPE_FINGERPRINT>  (1) 
10948715 1 12319728172327354959
1100329 8 18053659459024442176
11680986 33 17840873971176175325
11796584 16 16588022411966165379
12236239 1 17846493768711718983
12251169 10 18411697690340854023
12596602 18 17846216717361614219
12633257 1 18335706065606382739
12644460 14 18262525895839360604
12670546 177 8574707992807399569
13140716 1 18122332747671019664
13544653 18 18408038503122469955
13965767 371 16770174002409092667
14178342 30 18054230925523120760
14223421 5 18126848187937740774
14341114 328 17775565359687198731
14787075 74 18200868599209829403
14790565 3 17684376439852871956
15375462 189 18271800254686293472
15375462 478 18343579616495168607
15422964 175 18113897109362630894
16945 1 18191564510847102988
1813 80 16877946022754420525
19862831 5 11169918277132228843
20261772 1 18272646844396227462
20739085 24 18411708664214196076
20775438 99 13411054117114442569
21421861 104 18268172906134627025
22112679 90 17631715192552440597
22182313 1 18056476141056872830
231179 274 12175622871340242770
23184049 59 18412261748453847007
23227448 37 11815309651095814515
2334 1 18268129991032167966
23559900 14 16805605862939641654
26918003 58 18260546710600892667
2748010 2 18123165937014172022
350125 39 18342454795231765592
392239 28 17773003502559218688
394222 165 18051436220279044873
4072396 5 18060703871188492313
427121 178 16271941397497793183
465052 167 18260835903212055275
5104073 3 18193820558721197466
6442390 28 13398625052784915221
7064713 232 17774999085703740971

>  <PUBCHEM_SHAPE_MULTIPOLES>  (1) 
432.24
8.44
2.45
1.46
6.48
0.44
0.03
-2.55
-4.78
-1.66
0.03
0.75
0.03
-0.25

>  <PUBCHEM_SHAPE_SELFOVERLAP>  (1) 
947.11

>  <PUBCHEM_SHAPE_VOLUME>  (1) 
228.9

>  <PUBCHEM_COORDINATE_TYPE>  (1) 
2
5
10

$$$$
