40589
     RDKit          3D

 26 28  0  0  0  0  0  0  0  0999 V2000
    7.5534   -1.6939   -1.2788 Cl  0  0  0  0  0  0  0  0  0  0  0  0
   -5.3136    1.8868   -0.0068 O   0  0  0  0  0  0  0  0  0  0  0  0
    0.2210    0.8227   -0.7526 N   0  0  0  0  0  0  0  0  0  0  0  0
    2.9737    0.3605   -0.1459 N   0  0  0  0  0  0  0  0  0  0  0  0
   -3.2295    0.8589    0.3651 N   0  0  0  0  0  0  0  0  0  0  0  0
   -5.0092   -0.4300    0.1545 N   0  0  0  0  0  0  0  0  0  0  0  0
   -2.8008   -0.4359    0.4954 N   0  0  0  0  0  0  0  0  0  0  0  0
    0.9478   -0.2793   -1.3952 C   0  0  0  0  0  0  0  0  0  0  0  0
    1.1301    1.9512   -0.5189 C   0  0  0  0  0  0  0  0  0  0  0  0
    2.1025   -0.7624   -0.5148 C   0  0  0  0  0  0  0  0  0  0  0  0
    2.2921    1.5426    0.3901 C   0  0  0  0  0  0  0  0  0  0  0  0
   -0.9125    1.2393   -1.5775 C   0  0  0  0  0  0  0  0  0  0  0  0
   -1.7308    2.3473   -0.9081 C   0  0  0  0  0  0  0  0  0  0  0  0
   -2.3169    1.9661    0.4499 C   0  0  0  0  0  0  0  0  0  0  0  0
    4.2829    0.0727    0.2554 C   0  0  0  0  0  0  0  0  0  0  0  0
   -4.6157    0.8950    0.1500 C   0  0  0  0  0  0  0  0  0  0  0  0
   -3.8840   -1.1448    0.3661 C   0  0  0  0  0  0  0  0  0  0  0  0
    5.1772   -0.5935   -0.6063 C   0  0  0  0  0  0  0  0  0  0  0  0
    4.7469    0.4417    1.5339 C   0  0  0  0  0  0  0  0  0  0  0  0
   -6.3626   -0.9177   -0.0328 C   0  0  0  0  0  0  0  0  0  0  0  0
   -3.9077   -2.6346    0.4337 C   0  0  0  0  0  0  0  0  0  0  0  0
    6.4825   -0.8791   -0.2058 C   0  0  0  0  0  0  0  0  0  0  0  0
    6.0522    0.1560    1.9344 C   0  0  0  0  0  0  0  0  0  0  0  0
    6.9199   -0.5044    1.0645 C   0  0  0  0  0  0  0  0  0  0  0  0
   -7.0933   -1.0326    1.2942 C   0  0  0  0  0  0  0  0  0  0  0  0
   -3.7054   -3.2324   -0.9436 C   0  0  0  0  0  0  0  0  0  0  0  0
  1 22  1  0
  2 16  2  0
  3  8  1  0
  3  9  1  0
  3 12  1  0
  4 10  1  0
  4 11  1  0
  4 15  1  0
  5  7  1  0
  5 14  1  0
  5 16  1  0
  6 16  1  0
  6 17  1  0
  6 20  1  0
  7 17  2  0
  8 10  1  0
  9 11  1  0
 12 13  1  0
 13 14  1  0
 15 18  2  0
 15 19  1  0
 17 21  1  0
 18 22  1  0
 19 23  2  0
 20 25  1  0
 21 26  1  0
 22 24  2  0
 23 24  1  0
M  END
>  <PUBCHEM_COMPOUND_CID>  (1) 
40589

>  <PUBCHEM_CONFORMER_RMSD>  (1) 
1.2

>  <PUBCHEM_CONFORMER_DIVERSEORDER>  (1) 
1
83
101
18
27
33
102
49
90
99
50
19
60
72
78
100
29
44
8
87
21
98
36
81
34
64
46
77
96
38
71
26
48
32
79
45
14
82
22
73
62
23
91
43
17
86
20
67
35
57
58
42
28
51
88
84
39
11
2
13
37
52
68
66
40
70
75
10
76
80
63
12
54
85
30
16
4
41
55
24
94
97
31
47
6
25
7
103
15
3
5
89
53
74
59
9
69
61
93
95
92
56
65

>  <PUBCHEM_MMFF94_PARTIAL_CHARGES>  (1) 
27
1 -0.18
10 0.37
11 0.37
12 0.27
14 0.3
15 0.1
16 0.69
17 0.45
18 -0.15
19 -0.15
2 -0.57
20 0.3
21 0.06
22 0.18
23 -0.15
24 -0.15
3 -0.81
4 -0.84
41 0.15
42 0.15
47 0.15
48 0.15
5 -0.3
6 -0.42
7 -0.51
8 0.27
9 0.27

>  <PUBCHEM_EFFECTIVE_ROTOR_COUNT>  (1) 
8.2

>  <PUBCHEM_PHARMACOPHORE_FEATURES>  (1) 
7
1 2 acceptor
1 26 hydrophobe
1 3 cation
1 4 cation
5 5 6 7 16 17 rings
6 15 18 19 22 23 24 rings
6 3 4 8 9 10 11 rings

>  <PUBCHEM_HEAVY_ATOM_COUNT>  (1) 
26

>  <PUBCHEM_ATOM_DEF_STEREO_COUNT>  (1) 
0

>  <PUBCHEM_ATOM_UDEF_STEREO_COUNT>  (1) 
0

>  <PUBCHEM_BOND_DEF_STEREO_COUNT>  (1) 
0

>  <PUBCHEM_BOND_UDEF_STEREO_COUNT>  (1) 
0

>  <PUBCHEM_ISOTOPIC_ATOM_COUNT>  (1) 
0

>  <PUBCHEM_COMPONENT_COUNT>  (1) 
1

>  <PUBCHEM_CACTVS_TAUTO_COUNT>  (1) 
1

>  <PUBCHEM_CONFORMER_ID>  (1) 
00009E8D00000001

>  <PUBCHEM_MMFF94_ENERGY>  (1) 
59.252

>  <PUBCHEM_FEATURE_SELFOVERLAP>  (1) 
35.523

>  <PUBCHEM_SHAPE_FINGERPRINT>  (1) 
10 15 18060128865319939304
11045977 3 18202278104450149464
11524674 6 17704351061288217807
11823591 26 12679465257607177957
11963148 33 18260542295507258314
12166972 35 16733269053235867943
12422481 6 18060418049557322302
12596602 18 18272645766860323976
13668630 136 15791731905710792139
14068700 675 17821729441985514340
14117953 113 18408319978410346295
14251764 30 18411136893120505220
14341114 176 18272370884310427816
14556957 393 15357987707269926742
14840074 17 16443064980581926682
14955137 171 18130787859119334248
15183329 4 11169902875506235892
15348495 7 18059286664808229432
15352257 5 18339927013826471478
15537594 2 17749385932206248138
17492 89 17901673983954805027
17857418 61 17676202460116212768
17913733 40 16773798086928390086
18222031 100 17749108890116126908
18335252 98 18411421701271522830
18608769 82 18413107239596282038
18927931 339 18260550021983650431
20028762 73 18409165536964651306
20281389 69 14261346943187673978
21033648 29 17274240765698180896
21150785 3 14851608795275688322
21267235 1 18187373151237036169
21304304 249 18410295843618411055
21424621 283 11167938061518263420
21623969 137 17632297840085854230
22061861 79 13695865901103724744
22224240 67 17060336331890891951
2303208 19 18202284663724676836
23522609 53 17532962444415359396
23559900 14 18338794641166705689
23569914 152 12039608829683320570
2838139 119 13470398955368324378
3004659 81 17894353293333477900
3009799 131 11746943079502016924
3383291 50 18335425703464409283
351380 3 17458340844731158152
397830 11 18272077345182124032
5104073 3 18339931527383367329
559249 180 18187081746438602137
5718773 13 18339077224487363927
59755656 215 18339925922604019870
8863177 126 18272087198032234046
9953998 17 18201994451951140322

>  <PUBCHEM_SHAPE_MULTIPOLES>  (1) 
506.16
20.63
2.54
1.38
11.13
0.71
-0.14
10.42
-5.4
-3.38
0.64
1.49
0.04
1.28

>  <PUBCHEM_SHAPE_SELFOVERLAP>  (1) 
1039.258

>  <PUBCHEM_SHAPE_VOLUME>  (1) 
294.4

>  <PUBCHEM_COORDINATE_TYPE>  (1) 
2
5
10

$$$$
