40599
     RDKit          3D

 13 14  0  0  0  0  0  0  0  0999 V2000
    1.5380    2.3411    0.3838 S   0  0  0  0  0  0  0  0  0  0  0  0
   -3.9217   -0.4867   -0.2193 N   0  0  0  0  0  0  0  0  0  0  0  0
   -1.6976    0.3768   -0.8907 C   0  0  0  0  0  0  0  0  0  0  0  0
   -0.3624    0.8279   -0.4236 C   0  0  0  0  0  0  0  0  0  0  0  0
    0.7601   -0.0461   -0.2337 C   0  0  0  0  0  0  0  0  0  0  0  0
   -2.6269   -0.0220    0.2664 C   0  0  0  0  0  0  0  0  0  0  0  0
    1.8816    0.6601    0.2121 C   0  0  0  0  0  0  0  0  0  0  0  0
   -0.0760    2.1391   -0.1258 C   0  0  0  0  0  0  0  0  0  0  0  0
    0.8816   -1.4438   -0.4244 C   0  0  0  0  0  0  0  0  0  0  0  0
    3.1061    0.0124    0.4683 C   0  0  0  0  0  0  0  0  0  0  0  0
    2.0947   -2.0895   -0.1707 C   0  0  0  0  0  0  0  0  0  0  0  0
    3.1940   -1.3669    0.2704 C   0  0  0  0  0  0  0  0  0  0  0  0
   -4.7716   -0.9022    0.8872 C   0  0  0  0  0  0  0  0  0  0  0  0
  1  7  1  0
  1  8  1  0
  2  6  1  0
  2 13  1  0
  3  4  1  0
  3  6  1  0
  4  5  1  0
  4  8  2  0
  5  7  2  0
  5  9  1  0
  7 10  1  0
  9 11  2  0
 10 12  2  0
 11 12  1  0
M  END
>  <PUBCHEM_COMPOUND_CID>  (1) 
40599

>  <PUBCHEM_CONFORMER_RMSD>  (1) 
0.6

>  <PUBCHEM_CONFORMER_DIVERSEORDER>  (1) 
1
8
4
3
6
10
5
7
11
9
2

>  <PUBCHEM_MMFF94_PARTIAL_CHARGES>  (1) 
18
1 -0.08
10 -0.15
11 -0.15
12 -0.15
13 0.27
18 0.15
19 0.15
2 -0.9
20 0.36
21 0.15
22 0.15
23 0.15
3 0.18
4 -0.18
6 0.27
7 0.04
8 -0.11
9 -0.15

>  <PUBCHEM_EFFECTIVE_ROTOR_COUNT>  (1) 
3

>  <PUBCHEM_PHARMACOPHORE_FEATURES>  (1) 
4
1 2 cation
1 2 donor
5 1 4 5 7 8 rings
6 5 7 9 10 11 12 rings

>  <PUBCHEM_HEAVY_ATOM_COUNT>  (1) 
13

>  <PUBCHEM_ATOM_DEF_STEREO_COUNT>  (1) 
0

>  <PUBCHEM_ATOM_UDEF_STEREO_COUNT>  (1) 
0

>  <PUBCHEM_BOND_DEF_STEREO_COUNT>  (1) 
0

>  <PUBCHEM_BOND_UDEF_STEREO_COUNT>  (1) 
0

>  <PUBCHEM_ISOTOPIC_ATOM_COUNT>  (1) 
0

>  <PUBCHEM_COMPONENT_COUNT>  (1) 
1

>  <PUBCHEM_CACTVS_TAUTO_COUNT>  (1) 
1

>  <PUBCHEM_CONFORMER_ID>  (1) 
00009E9700000001

>  <PUBCHEM_MMFF94_ENERGY>  (1) 
19.3366

>  <PUBCHEM_FEATURE_SELFOVERLAP>  (1) 
20.357

>  <PUBCHEM_SHAPE_FINGERPRINT>  (1) 
10219947 1 18413385449268589292
108231 29 18337388249539902314
11471102 22 18411140250972618985
12032990 46 18339642222712625214
12251169 10 18272932739099767167
12346645 6 18339080513614485693
13140716 1 18124020489303172896
14251717 144 18411976996749424791
14252887 29 18201725020047253830
15375462 189 18411976962057370447
15501101 241 18335700567800064069
16945 1 18270100384361973660
193761 8 17763169642285266972
20201158 50 18333731303825273251
20559304 39 18271812340756120753
20645477 70 18336251440795903623
20708731 107 18334300910935863932
20871998 22 18199192801771132334
21501925 9 18411132533000829409
25610 137 18409729526283736540
2748010 2 18054771898413679612
33824 294 18337106886190117267
54173680 148 17691405205324280070
81228 2 17693365643030852056
8809292 202 17976820878737241222

>  <PUBCHEM_SHAPE_MULTIPOLES>  (1) 
266.4
6.5
2.29
0.82
8.85
0.63
-0.01
-3.31
-1.88
-1.63
-0.07
0.29
-0.01
0.46

>  <PUBCHEM_SHAPE_SELFOVERLAP>  (1) 
548.629

>  <PUBCHEM_SHAPE_VOLUME>  (1) 
156.3

>  <PUBCHEM_COORDINATE_TYPE>  (1) 
2
5
10

$$$$
