40592
     RDKit          3D

 15 15  0  0  1  0  0  0  0  0999 V2000
    1.5000   -2.4595   -0.0364 O   0  0  0  0  0  0  0  0  0  0  0  0
   -0.1547    1.5338   -1.8708 O   0  0  0  0  0  0  0  0  0  0  0  0
    3.1558    1.6040    1.3060 O   0  0  0  0  0  0  0  0  0  0  0  0
    2.2564   -0.4243    0.7039 N   0  0  0  0  0  0  0  0  0  0  0  0
    1.4294    1.5706   -0.2119 N   0  0  0  0  0  0  0  0  0  0  0  0
    0.1807   -0.5051   -0.6016 C   0  0  0  0  0  0  0  0  0  0  0  0
   -0.9314   -0.4774    0.4621 C   0  0  0  0  0  0  0  0  0  0  0  0
   -2.2039    0.2344   -0.0333 C   0  0  0  0  0  0  0  0  0  0  0  0
   -0.3147   -1.2762   -1.8337 C   0  0  0  0  0  0  0  0  0  0  0  0
   -1.2736   -1.9073    0.8883 C   0  0  0  0  0  0  0  0  0  0  0  0
    1.3693   -1.2368    0.0138 C   0  0  0  0  0  0  0  0  0  0  0  0
    0.4659    0.9430   -0.9873 C   0  0  0  0  0  0  0  0  0  0  0  0
   -3.3008    0.3325    1.0296 C   0  0  0  0  0  0  0  0  0  0  0  0
   -4.5053    1.1052    0.5134 C   0  0  0  0  0  0  0  0  0  0  0  0
    2.3268    0.9629    0.6580 C   0  0  0  0  0  0  0  0  0  0  0  0
  1 11  2  0
  2 12  2  0
  3 15  2  0
  4 11  1  0
  4 15  1  0
  5 12  1  0
  5 15  1  0
  6  7  1  0
  6  9  1  0
  6 11  1  0
  6 12  1  0
  7  8  1  0
  7 10  1  0
  8 13  1  0
 13 14  1  0
M  END
>  <PUBCHEM_COMPOUND_CID>  (1) 
40592

>  <PUBCHEM_CONFORMER_RMSD>  (1) 
0.6

>  <PUBCHEM_CONFORMER_DIVERSEORDER>  (1) 
1
4
2
7
8
5
3
9
6

>  <PUBCHEM_MMFF94_PARTIAL_CHARGES>  (1) 
11
1 -0.57
11 0.57
12 0.57
15 0.69
2 -0.57
27 0.37
28 0.37
3 -0.57
4 -0.49
5 -0.49
6 0.12

>  <PUBCHEM_EFFECTIVE_ROTOR_COUNT>  (1) 
3.6

>  <PUBCHEM_PHARMACOPHORE_FEATURES>  (1) 
8
1 1 acceptor
1 10 hydrophobe
1 14 hydrophobe
1 2 acceptor
1 3 acceptor
1 4 donor
1 5 donor
6 4 5 6 11 12 15 rings

>  <PUBCHEM_HEAVY_ATOM_COUNT>  (1) 
15

>  <PUBCHEM_ATOM_DEF_STEREO_COUNT>  (1) 
0

>  <PUBCHEM_ATOM_UDEF_STEREO_COUNT>  (1) 
1

>  <PUBCHEM_BOND_DEF_STEREO_COUNT>  (1) 
0

>  <PUBCHEM_BOND_UDEF_STEREO_COUNT>  (1) 
0

>  <PUBCHEM_ISOTOPIC_ATOM_COUNT>  (1) 
0

>  <PUBCHEM_COMPONENT_COUNT>  (1) 
1

>  <PUBCHEM_CACTVS_TAUTO_COUNT>  (1) 
5

>  <PUBCHEM_CONFORMER_ID>  (1) 
00009E9000000001

>  <PUBCHEM_MMFF94_ENERGY>  (1) 
43.189

>  <PUBCHEM_FEATURE_SELFOVERLAP>  (1) 
40.636

>  <PUBCHEM_SHAPE_FINGERPRINT>  (1) 
11086676 242 17022618680300198705
12138202 97 15697437870064424781
12251169 10 18113896121314444192
12382932 28 18114740537723141905
12423570 1 10586627453213013758
12491281 212 18059847415543131413
12725867 57 17970085365042070199
12897270 3 11887678368396232825
13024252 1 14420899291460035846
13571099 52 18060423559604652025
13922767 16 18264212413790735401
14178342 30 18188211021588665011
14817 1 9000918062697149334
15061688 2 17060051596712536144
15501101 241 18263930951224114343
15775835 57 17917991715204102529
16945 1 18409164402659982511
18186145 218 18269292179175697225
20231682 184 17132116836008508833
20511035 2 18339379542286136959
22892500 29 18271807869758261337
230 275 18267326312214329137
23382010 3 12823013178960231232
23419403 2 18048587127963502356
2748010 2 17825092727858528613

>  <PUBCHEM_SHAPE_MULTIPOLES>  (1) 
281.12
4.98
2.07
1.43
5.05
0.58
-0.59
-2.64
2.47
-0.92
0.03
-0.16
-0.13
0.34

>  <PUBCHEM_SHAPE_SELFOVERLAP>  (1) 
572.07

>  <PUBCHEM_SHAPE_VOLUME>  (1) 
161.4

>  <PUBCHEM_COORDINATE_TYPE>  (1) 
2
5
10

$$$$
