40598
     RDKit          3D

 22 24  0  0  0  0  0  0  0  0999 V2000
    3.4754    2.1337    0.6674 O   0  0  0  0  0  0  0  0  0  0  0  0
   -1.8519    0.9428   -0.5513 N   0  0  0  0  0  0  0  0  0  0  0  0
    1.6580    0.7006    0.5244 N   0  0  0  0  0  0  0  0  0  0  0  0
    0.6422    1.6879    0.8139 C   0  0  0  0  0  0  0  0  0  0  0  0
   -0.5448    1.0596    1.5478 C   0  0  0  0  0  0  0  0  0  0  0  0
    0.1631    2.3786   -0.4650 C   0  0  0  0  0  0  0  0  0  0  0  0
   -1.3980    0.1858    0.6230 C   0  0  0  0  0  0  0  0  0  0  0  0
   -0.7142    1.4611   -1.3226 C   0  0  0  0  0  0  0  0  0  0  0  0
   -2.7078    0.1112   -1.3971 C   0  0  0  0  0  0  0  0  0  0  0  0
   -3.9303   -0.3671   -0.6600 C   0  0  0  0  0  0  0  0  0  0  0  0
    3.0074    1.0146    0.4756 C   0  0  0  0  0  0  0  0  0  0  0  0
   -3.8835   -1.5681    0.0340 C   0  0  0  0  0  0  0  0  0  0  0  0
   -5.0868    0.4000   -0.6843 C   0  0  0  0  0  0  0  0  0  0  0  0
    3.9221   -0.1067    0.1392 C   0  0  0  0  0  0  0  0  0  0  0  0
   -5.0160   -2.0112    0.7173 C   0  0  0  0  0  0  0  0  0  0  0  0
   -6.2193   -0.0432   -0.0009 C   0  0  0  0  0  0  0  0  0  0  0  0
   -6.1838   -1.2489    0.6998 C   0  0  0  0  0  0  0  0  0  0  0  0
    5.1279    0.1768   -0.4677 C   0  0  0  0  0  0  0  0  0  0  0  0
    3.5366   -1.3954    0.4450 C   0  0  0  0  0  0  0  0  0  0  0  0
    5.9870   -0.8758   -0.7834 C   0  0  0  0  0  0  0  0  0  0  0  0
    4.3958   -2.4480    0.1295 C   0  0  0  0  0  0  0  0  0  0  0  0
    5.6210   -2.1881   -0.4847 C   0  0  0  0  0  0  0  0  0  0  0  0
  1 11  2  0
  2  7  1  0
  2  8  1  0
  2  9  1  0
  3  4  1  0
  3 11  1  0
  4  5  1  0
  4  6  1  0
  5  7  1  0
  6  8  1  0
  9 10  1  0
 10 12  2  0
 10 13  1  0
 11 14  1  0
 12 15  1  0
 13 16  2  0
 14 18  2  0
 14 19  1  0
 15 17  2  0
 16 17  1  0
 18 20  1  0
 19 21  2  0
 20 22  2  0
 21 22  1  0
M  END
>  <PUBCHEM_COMPOUND_CID>  (1) 
40598

>  <PUBCHEM_CONFORMER_RMSD>  (1) 
0.8

>  <PUBCHEM_CONFORMER_DIVERSEORDER>  (1) 
1
36
19
33
4
23
14
35
12
24
18
31
7
32
16
39
34
13
3
29
9
30
38
25
17
26
11
27
37
5
10
22
28
8
15
21
2
6
20

>  <PUBCHEM_MMFF94_PARTIAL_CHARGES>  (1) 
31
1 -0.57
10 -0.14
11 0.54
12 -0.15
13 -0.15
14 0.09
15 -0.15
16 -0.15
17 -0.15
18 -0.15
19 -0.15
2 -0.81
20 -0.15
21 -0.15
22 -0.15
3 -0.73
34 0.37
35 0.15
36 0.15
37 0.15
38 0.15
39 0.15
4 0.3
40 0.15
41 0.15
42 0.15
43 0.15
44 0.15
7 0.27
8 0.27
9 0.41

>  <PUBCHEM_EFFECTIVE_ROTOR_COUNT>  (1) 
6.2

>  <PUBCHEM_PHARMACOPHORE_FEATURES>  (1) 
6
1 1 acceptor
1 2 cation
1 3 donor
6 10 12 13 15 16 17 rings
6 14 18 19 20 21 22 rings
6 2 4 5 6 7 8 rings

>  <PUBCHEM_HEAVY_ATOM_COUNT>  (1) 
22

>  <PUBCHEM_ATOM_DEF_STEREO_COUNT>  (1) 
0

>  <PUBCHEM_ATOM_UDEF_STEREO_COUNT>  (1) 
0

>  <PUBCHEM_BOND_DEF_STEREO_COUNT>  (1) 
0

>  <PUBCHEM_BOND_UDEF_STEREO_COUNT>  (1) 
0

>  <PUBCHEM_ISOTOPIC_ATOM_COUNT>  (1) 
0

>  <PUBCHEM_COMPONENT_COUNT>  (1) 
1

>  <PUBCHEM_CACTVS_TAUTO_COUNT>  (1) 
2

>  <PUBCHEM_CONFORMER_ID>  (1) 
00009E9600000001

>  <PUBCHEM_MMFF94_ENERGY>  (1) 
51.8457

>  <PUBCHEM_FEATURE_SELFOVERLAP>  (1) 
30.446

>  <PUBCHEM_SHAPE_FINGERPRINT>  (1) 
10670039 82 12757705362768483982
11128504 68 15574429929555653255
11961588 58 14562820979803591292
12107183 9 18200604575339799481
12592606 108 18201718466734294839
12596602 18 15554153869972282823
12633257 1 16200429203939356373
12760667 363 18131067108853982071
13103583 49 17060341855102906535
13402501 40 18407761434466408483
13533116 47 18202001070606850992
13685833 64 18411702092697968226
13914758 101 17561360657297839485
13955234 65 18129373981470789648
14123256 34 18272941488101344606
14251732 14 16732706068975468595
14251751 18 18335144215027354687
14251764 30 18409729586397597239
14341114 176 18411139182074589761
14420673 8 18408889525476316123
14617045 38 18335141989928489302
14767858 380 14201115730451196675
15183329 4 18409165485603645131
15238133 3 11815887990660966386
15475509 8 17822011965535495381
15537594 2 18130783490810157478
17844677 252 18410578405137646017
1813 80 18272101490987342636
193927 3 18131074809761992446
19784866 240 18411426106863691005
20157964 124 8286207153574456888
20567600 234 10879701113760724459
20567600 254 10591765363575052107
20621476 21 18041289867338983875
20832881 197 18273213092979198809
21033650 10 16733542702418636212
21267235 1 18201723912852851582
212916 134 14045745945564172741
21315759 148 18264207079483617121
21682296 61 18412266138580570311
2215653 11 18409437090745561615
22950370 63 18408324393241320829
23016692 55 18411707577597935436
23559900 14 18338510940863789633
239999 70 18187077403915494800
2767999 5 11458426842726883446
2838139 119 8502373304237721203
2871803 45 18261110747423639458
3004659 81 18259984873133626154
3089732 80 18335421274598453611
312425 54 14404896977854956966
33382 64 18411983567732629826
3421961 26 18341609356320541560
345986 75 17774999038242635186
3472631 163 12974183882144856210
34797466 226 17168148982843221909
351380 3 18060698386045913070
4072396 5 16200437978974526805
4107672 100 17677331598402133933
439807 62 18187364277381493514
46194498 28 17822009848079604676
465052 167 18201722847199717974
474 4 8214145161801267124
5104073 3 17988074496681138328
5207 217 13118006608480073505
56616090 284 17894631426841294208
59682541 35 18201144509164485010
59755656 520 18050565145562768229
7970288 3 18199468771207054462
8863177 126 18338799030306478787
9981440 41 12535633799703155845

>  <PUBCHEM_SHAPE_MULTIPOLES>  (1) 
436.92
16.26
2.44
1.15
2.64
0.27
-0.03
10.94
-1.34
-1.68
0.2
0.39
-0.27
1.24

>  <PUBCHEM_SHAPE_SELFOVERLAP>  (1) 
930.183

>  <PUBCHEM_SHAPE_VOLUME>  (1) 
241.8

>  <PUBCHEM_COORDINATE_TYPE>  (1) 
2
5
10

$$$$
