40594
     RDKit          3D

 17 18  0  0  1  0  0  0  0  0999 V2000
    0.2746    2.0313    0.1845 O   0  0  0  0  0  0  0  0  0  0  0  0
   -1.8429   -0.5477    0.8060 N   0  0  0  0  0  0  0  0  0  0  0  0
   -0.9215   -0.2220   -1.2507 N   0  0  0  0  0  0  0  0  0  0  0  0
   -2.8181   -1.2076   -0.0248 C   0  0  0  0  0  0  0  0  0  0  0  0
   -2.1954   -0.9913   -1.4291 C   0  0  0  0  0  0  0  0  0  0  0  0
   -0.8378   -0.0370    0.0418 C   0  0  0  0  0  0  0  0  0  0  0  0
   -2.9022   -2.6849    0.3461 C   0  0  0  0  0  0  0  0  0  0  0  0
   -4.1720   -0.5189    0.1158 C   0  0  0  0  0  0  0  0  0  0  0  0
    0.3053    0.6963    0.6628 C   0  0  0  0  0  0  0  0  0  0  0  0
    1.6243    0.0487    0.3263 C   0  0  0  0  0  0  0  0  0  0  0  0
    2.1307   -0.9386    1.1586 C   0  0  0  0  0  0  0  0  0  0  0  0
    2.3104    0.4499   -0.8104 C   0  0  0  0  0  0  0  0  0  0  0  0
   -0.9599    2.6690    0.4878 C   0  0  0  0  0  0  0  0  0  0  0  0
    3.3511   -1.5382    0.8473 C   0  0  0  0  0  0  0  0  0  0  0  0
    3.5307   -0.1498   -1.1217 C   0  0  0  0  0  0  0  0  0  0  0  0
   -0.9283    4.0847   -0.0474 C   0  0  0  0  0  0  0  0  0  0  0  0
    4.0510   -1.1439   -0.2928 C   0  0  0  0  0  0  0  0  0  0  0  0
  1  9  1  0
  1 13  1  0
  2  4  1  0
  2  6  1  0
  3  5  1  0
  3  6  2  0
  4  5  1  0
  4  7  1  0
  4  8  1  0
  6  9  1  0
  9 10  1  0
 10 11  2  0
 10 12  1  0
 11 14  1  0
 12 15  2  0
 13 16  1  0
 14 17  2  0
 15 17  1  0
M  END
>  <PUBCHEM_COMPOUND_CID>  (1) 
40594

>  <PUBCHEM_CONFORMER_RMSD>  (1) 
0.6

>  <PUBCHEM_CONFORMER_DIVERSEORDER>  (1) 
1
18
23
38
31
32
33
28
3
17
37
4
40
19
41
39
14
2
30
29
13
36
34
25
21
22
35
20
12
15
24
11
7
6
16
8
5
9
10
26
27

>  <PUBCHEM_MMFF94_PARTIAL_CHARGES>  (1) 
20
1 -0.56
10 -0.14
11 -0.15
12 -0.15
13 0.28
14 -0.15
15 -0.15
17 -0.15
2 -0.82
20 0.4
28 0.15
29 0.15
3 -0.7
32 0.15
33 0.15
37 0.15
4 0.37
5 0.25
6 0.44
9 0.48

>  <PUBCHEM_EFFECTIVE_ROTOR_COUNT>  (1) 
4.6

>  <PUBCHEM_PHARMACOPHORE_FEATURES>  (1) 
6
1 1 acceptor
1 2 donor
3 2 3 6 cation
3 4 7 8 hydrophobe
5 2 3 4 5 6 rings
6 10 11 12 14 15 17 rings

>  <PUBCHEM_HEAVY_ATOM_COUNT>  (1) 
17

>  <PUBCHEM_ATOM_DEF_STEREO_COUNT>  (1) 
0

>  <PUBCHEM_ATOM_UDEF_STEREO_COUNT>  (1) 
1

>  <PUBCHEM_BOND_DEF_STEREO_COUNT>  (1) 
0

>  <PUBCHEM_BOND_UDEF_STEREO_COUNT>  (1) 
0

>  <PUBCHEM_ISOTOPIC_ATOM_COUNT>  (1) 
0

>  <PUBCHEM_COMPONENT_COUNT>  (1) 
1

>  <PUBCHEM_CACTVS_TAUTO_COUNT>  (1) 
2

>  <PUBCHEM_CONFORMER_ID>  (1) 
00009E9200000001

>  <PUBCHEM_MMFF94_ENERGY>  (1) 
49.3809

>  <PUBCHEM_FEATURE_SELFOVERLAP>  (1) 
30.446

>  <PUBCHEM_SHAPE_FINGERPRINT>  (1) 
104564 63 18268427940891515527
10618630 7 18411698785874064418
11357001 24 18267019462233249713
11578080 2 18042383829494824460
12119455 92 11455896819247732235
12251169 10 12967129423698359270
12553582 1 18411134757625492995
12707595 3 18337949124876660223
12714826 92 17988365867024906914
12788726 201 18337114453679834888
13296908 3 18341889752959585531
13538477 17 18190460454891064072
13583140 156 13686290271021706087
13681431 1 18125424556719497229
14178342 30 18046611323260181922
14863182 85 16169765229364716435
15309172 13 9511468848198114007
15375462 189 18259989309381513331
15852999 172 17410770268382153572
15885798 251 18412826884856578947
15906896 17 18124307203770972701
16752209 62 18194669385412519249
16945 1 18268147556757649728
19784866 135 18338792295554880146
200 152 18113620084241129178
20097449 115 18341328989139249681
20339313 130 18199191856941442057
20361792 2 18272080647299584142
20645476 183 17832992650443344692
20645477 70 17908132532373128471
20711985 344 18268983207069550425
21285901 2 17916594124662231973
21296965 67 18413386557428297353
21524375 3 17477755789105645585
21731516 1 18271516593671559926
2255824 54 17836083742537394637
23419403 2 13571341823642991401
23557571 272 18130222654312915856
23559900 14 18339913828265673584
238078 22 18335713792120575118
2748010 2 18198602484349644465
3084891 72 18267293245461434431
3091708 16 8920476950211914889
314173 41 18338524169531924555
4175511 71 18340775948165958137
458136 41 17111583731358622225
465052 167 18270409428940141839
7164475 11 18336266717741289756
7364860 26 17836368516175816465
74978 22 18196368337262918007
7615 1 17896038750717963760
81228 2 18270676463708919009

>  <PUBCHEM_SHAPE_MULTIPOLES>  (1) 
334.02
6.58
3.2
1.14
1.77
4.13
-0.21
-4.81
-0.51
-2.32
0.44
0.29
-0.25
-0.39

>  <PUBCHEM_SHAPE_SELFOVERLAP>  (1) 
694.848

>  <PUBCHEM_SHAPE_VOLUME>  (1) 
192.9

>  <PUBCHEM_COORDINATE_TYPE>  (1) 
2
5
10

$$$$
