40593
     RDKit          3D

 17 17  0  0  1  0  0  0  0  0999 V2000
    1.5550   -0.8935    2.0097 O   0  0  0  0  0  0  0  0  0  0  0  0
   -0.1745   -0.0767   -2.2789 O   0  0  0  0  0  0  0  0  0  0  0  0
    2.6942    2.9063   -0.2966 O   0  0  0  0  0  0  0  0  0  0  0  0
    2.0450    1.0512    0.8960 N   0  0  0  0  0  0  0  0  0  0  0  0
    1.1806    1.4596   -1.2461 N   0  0  0  0  0  0  0  0  0  0  0  0
    0.1631   -0.3133    0.1107 C   0  0  0  0  0  0  0  0  0  0  0  0
   -1.0724    0.3580    0.7370 C   0  0  0  0  0  0  0  0  0  0  0  0
   -0.1095   -1.8143   -0.0652 C   0  0  0  0  0  0  0  0  0  0  0  0
   -2.3260    0.2285   -0.1478 C   0  0  0  0  0  0  0  0  0  0  0  0
    1.3203   -0.1162    1.0848 C   0  0  0  0  0  0  0  0  0  0  0  0
    0.3762    0.3298   -1.2560 C   0  0  0  0  0  0  0  0  0  0  0  0
   -1.3484   -0.2511    2.1140 C   0  0  0  0  0  0  0  0  0  0  0  0
    1.1292   -2.5326   -0.5767 C   0  0  0  0  0  0  0  0  0  0  0  0
   -3.5521    0.9451    0.4232 C   0  0  0  0  0  0  0  0  0  0  0  0
    0.8524   -4.0145   -0.7729 C   0  0  0  0  0  0  0  0  0  0  0  0
    2.0078    1.8863   -0.2142 C   0  0  0  0  0  0  0  0  0  0  0  0
   -4.7408    0.8474   -0.5212 C   0  0  0  0  0  0  0  0  0  0  0  0
  1 10  2  0
  2 11  2  0
  3 16  2  0
  4 10  1  0
  4 16  1  0
  5 11  1  0
  5 16  1  0
  6  7  1  0
  6  8  1  0
  6 10  1  0
  6 11  1  0
  7  9  1  0
  7 12  1  0
  8 13  1  0
  9 14  1  0
 13 15  1  0
 14 17  1  0
M  END
>  <PUBCHEM_COMPOUND_CID>  (1) 
40593

>  <PUBCHEM_CONFORMER_RMSD>  (1) 
0.8

>  <PUBCHEM_CONFORMER_DIVERSEORDER>  (1) 
1
10
8
12
5
11
7
2
3
4
6
9

>  <PUBCHEM_MMFF94_PARTIAL_CHARGES>  (1) 
11
1 -0.57
10 0.57
11 0.57
16 0.69
2 -0.57
3 -0.57
30 0.37
31 0.37
4 -0.49
5 -0.49
6 0.12

>  <PUBCHEM_EFFECTIVE_ROTOR_COUNT>  (1) 
5.6

>  <PUBCHEM_PHARMACOPHORE_FEATURES>  (1) 
9
1 1 acceptor
1 12 hydrophobe
1 15 hydrophobe
1 17 hydrophobe
1 2 acceptor
1 3 acceptor
1 4 donor
1 5 donor
6 4 5 6 10 11 16 rings

>  <PUBCHEM_HEAVY_ATOM_COUNT>  (1) 
17

>  <PUBCHEM_ATOM_DEF_STEREO_COUNT>  (1) 
0

>  <PUBCHEM_ATOM_UDEF_STEREO_COUNT>  (1) 
1

>  <PUBCHEM_BOND_DEF_STEREO_COUNT>  (1) 
0

>  <PUBCHEM_BOND_UDEF_STEREO_COUNT>  (1) 
0

>  <PUBCHEM_ISOTOPIC_ATOM_COUNT>  (1) 
0

>  <PUBCHEM_COMPONENT_COUNT>  (1) 
1

>  <PUBCHEM_CACTVS_TAUTO_COUNT>  (1) 
5

>  <PUBCHEM_CONFORMER_ID>  (1) 
00009E9100000001

>  <PUBCHEM_MMFF94_ENERGY>  (1) 
44.1294

>  <PUBCHEM_FEATURE_SELFOVERLAP>  (1) 
45.712

>  <PUBCHEM_SHAPE_FINGERPRINT>  (1) 
12138202 97 17912662485497320804
12423570 1 12901848093947233162
12725867 57 18051134696273151159
13134695 92 18049168765541213447
13380537 58 18051427449849877004
14004458 79 17330851625466519303
14142880 1 17466208043802189564
14617773 55 17469020612078726992
14817 1 8355496087265769722
15852999 172 18187376458061173923
15906896 17 17683812377201681714
16945 1 18196963013865220898
19765921 60 17917154999988147577
20473742 2 18408889503621217054
20511035 2 17822865302000098168
20671657 53 17838619955486711575
21524375 3 18116715316420414953
23419403 2 16525887837180229114
23526113 38 17826813446613875699
23557571 272 17605016817738647217
3060560 45 18411698764198508398
7364860 26 18339084783085920757
81228 2 17044605867924372570

>  <PUBCHEM_SHAPE_MULTIPOLES>  (1) 
322.28
4.6
3.15
1.71
8.01
1.98
0.29
-1.61
-0.31
-3.97
-1.06
-0.17
0.05
0.09

>  <PUBCHEM_SHAPE_SELFOVERLAP>  (1) 
651.393

>  <PUBCHEM_SHAPE_VOLUME>  (1) 
186.4

>  <PUBCHEM_COORDINATE_TYPE>  (1) 
2
5
10

$$$$
