40602
     RDKit          3D

 21 22  0  0  0  0  0  0  0  0999 V2000
   -1.2823    0.0111    2.2568 O   0  0  0  0  0  0  0  0  0  0  0  0
    5.8385   -0.7052   -1.6047 O   0  0  0  0  0  0  0  0  0  0  0  0
   -0.9714    0.0262    0.8533 C   0  0  0  0  0  0  0  0  0  0  0  0
   -1.5043   -1.2594    0.2061 C   0  0  0  0  0  0  0  0  0  0  0  0
   -1.6350    1.2555    0.2143 C   0  0  0  0  0  0  0  0  0  0  0  0
   -1.2156   -1.4945   -1.1162 C   0  0  0  0  0  0  0  0  0  0  0  0
   -0.8280    2.2276   -0.3235 C   0  0  0  0  0  0  0  0  0  0  0  0
   -2.2477   -2.1200    0.9766 C   0  0  0  0  0  0  0  0  0  0  0  0
   -3.0061    1.3285    0.2094 C   0  0  0  0  0  0  0  0  0  0  0  0
    0.5121    0.0674    0.7952 C   0  0  0  0  0  0  0  0  0  0  0  0
   -1.7003   -2.6627   -1.7047 C   0  0  0  0  0  0  0  0  0  0  0  0
   -1.4306    3.3441   -0.9033 C   0  0  0  0  0  0  0  0  0  0  0  0
   -2.7324   -3.2883    0.3883 C   0  0  0  0  0  0  0  0  0  0  0  0
   -3.6088    2.4448   -0.3706 C   0  0  0  0  0  0  0  0  0  0  0  0
   -2.4587   -3.5595   -0.9523 C   0  0  0  0  0  0  0  0  0  0  0  0
   -2.8209    3.4526   -0.9268 C   0  0  0  0  0  0  0  0  0  0  0  0
    1.7126    0.0944    0.7615 C   0  0  0  0  0  0  0  0  0  0  0  0
    3.0832    0.1245    0.7188 C   0  0  0  0  0  0  0  0  0  0  0  0
    5.7525    0.1810    0.6319 C   0  0  0  0  0  0  0  0  0  0  0  0
    6.2605    0.3812   -0.7893 C   0  0  0  0  0  0  0  0  0  0  0  0
    4.2828    0.1507    0.6791 C   0  0  0  0  0  0  0  0  0  0  0  0
  1  3  1  0
  2 20  1  0
  3  4  1  0
  3  5  1  0
  3 10  1  0
  4  6  2  0
  4  8  1  0
  5  7  2  0
  5  9  1  0
  6 11  1  0
  7 12  1  0
  8 13  2  0
  9 14  2  0
 10 17  3  0
 11 15  2  0
 12 16  2  0
 13 15  1  0
 14 16  1  0
 17 18  1  0
 18 21  3  0
 19 20  1  0
 19 21  1  0
M  END
>  <PUBCHEM_COMPOUND_CID>  (1) 
40602

>  <PUBCHEM_CONFORMER_RMSD>  (1) 
0.6

>  <PUBCHEM_CONFORMER_DIVERSEORDER>  (1) 
1
6
3
5
2
4

>  <PUBCHEM_MMFF94_PARTIAL_CHARGES>  (1) 
31
1 -0.68
10 -0.2
11 -0.15
12 -0.15
13 -0.15
14 -0.15
15 -0.15
16 -0.15
19 0.2
2 -0.68
20 0.28
21 -0.2
22 0.15
23 0.15
24 0.15
25 0.15
26 0.4
27 0.15
28 0.15
29 0.15
3 0.77
30 0.15
31 0.15
32 0.15
37 0.4
4 -0.14
5 -0.14
6 -0.15
7 -0.15
8 -0.15
9 -0.15

>  <PUBCHEM_EFFECTIVE_ROTOR_COUNT>  (1) 
3

>  <PUBCHEM_PHARMACOPHORE_FEATURES>  (1) 
6
1 1 acceptor
1 1 donor
1 2 acceptor
1 2 donor
6 4 6 8 11 13 15 rings
6 5 7 9 12 14 16 rings

>  <PUBCHEM_HEAVY_ATOM_COUNT>  (1) 
21

>  <PUBCHEM_ATOM_DEF_STEREO_COUNT>  (1) 
0

>  <PUBCHEM_ATOM_UDEF_STEREO_COUNT>  (1) 
0

>  <PUBCHEM_BOND_DEF_STEREO_COUNT>  (1) 
0

>  <PUBCHEM_BOND_UDEF_STEREO_COUNT>  (1) 
0

>  <PUBCHEM_ISOTOPIC_ATOM_COUNT>  (1) 
0

>  <PUBCHEM_COMPONENT_COUNT>  (1) 
1

>  <PUBCHEM_CACTVS_TAUTO_COUNT>  (1) 
1

>  <PUBCHEM_CONFORMER_ID>  (1) 
00009E9A00000001

>  <PUBCHEM_MMFF94_ENERGY>  (1) 
51.8156

>  <PUBCHEM_FEATURE_SELFOVERLAP>  (1) 
30.446

>  <PUBCHEM_SHAPE_FINGERPRINT>  (1) 
105312 117 18340204073064761260
107951 10 18263088738282001666
11045515 52 17898557933013682541
11101153 10 18045779259499732444
12643181 29 18200319789444580182
12714826 92 18201433731265301626
12788726 201 18261938713696461963
13257819 37 18337383830240088165
13681431 1 17400051554840557803
14508225 48 18194948867619213893
15131766 46 15286512940546766708
15163728 17 17979359650907051645
15842332 3 17677870393480393194
17492 54 18118097252956317133
17539 30 18267849731172570727
17980427 23 17169000980381497821
1813 80 17981333592132512534
20101258 96 18190468340202905265
22620623 9 18270951431804543874
23227448 37 18408319995321787124
23419403 2 16986002856199796401
23557571 272 18342739632993997064
23559900 14 17988636373309304360
23598288 3 18042707111455664765
255183 451 17691402332150272567
3057174 1 17834652930054263517
3729539 64 17769943368172829862
44062 13 18412826868119970734
497634 4 17845387694468983872
531348 171 18336830789214315042
58260988 587 17692543213029403857
59755656 520 17916878906420823505
6786 2 18051412868694324349
81228 2 18050816048966417153

>  <PUBCHEM_SHAPE_MULTIPOLES>  (1) 
420.43
9.93
4.37
1.47
27.43
0.11
0.03
-0.56
2.38
-8.06
1.9
0.16
0.53
0.45

>  <PUBCHEM_SHAPE_SELFOVERLAP>  (1) 
894.789

>  <PUBCHEM_SHAPE_VOLUME>  (1) 
229.8

>  <PUBCHEM_COORDINATE_TYPE>  (1) 
2
5
10

$$$$
