40604
     RDKit          3D

 17 18  0  0  1  0  0  0  0  0999 V2000
    1.7139   -0.8926   -1.8058 O   0  0  0  0  0  0  0  0  0  0  0  0
    0.9706   -1.9102    1.6472 O   0  0  0  0  0  0  0  0  0  0  0  0
   -2.9552   -1.1921   -0.2724 O   0  0  0  0  0  0  0  0  0  0  0  0
    2.8377    1.1562    0.3160 O   0  0  0  0  0  0  0  0  0  0  0  0
    1.3062    3.3450   -0.1708 O   0  0  0  0  0  0  0  0  0  0  0  0
    1.8888   -0.9437   -0.3904 C   0  0  0  0  0  0  0  0  0  0  0  0
    0.7520   -1.7468    0.2461 C   0  0  0  0  0  0  0  0  0  0  0  0
   -0.5722   -1.0619    0.0678 C   0  0  0  0  0  0  0  0  0  0  0  0
    1.8206    0.5060    0.0732 C   0  0  0  0  0  0  0  0  0  0  0  0
   -0.6553    0.4085    0.1261 C   0  0  0  0  0  0  0  0  0  0  0  0
    0.4685    1.1641    0.1761 C   0  0  0  0  0  0  0  0  0  0  0  0
    3.2644   -1.5511   -0.1098 C   0  0  0  0  0  0  0  0  0  0  0  0
   -1.7028   -1.7557   -0.1487 C   0  0  0  0  0  0  0  0  0  0  0  0
   -2.0100    0.9767    0.1305 C   0  0  0  0  0  0  0  0  0  0  0  0
   -3.0763    0.1801   -0.0740 C   0  0  0  0  0  0  0  0  0  0  0  0
    0.4331    2.6373    0.2974 C   0  0  0  0  0  0  0  0  0  0  0  0
   -4.4838    0.6804   -0.1086 C   0  0  0  0  0  0  0  0  0  0  0  0
  1  6  1  0
  2  7  1  0
  3 13  1  0
  3 15  1  0
  4  9  2  0
  5 16  2  0
  6  7  1  0
  6  9  1  0
  6 12  1  0
  7  8  1  0
  8 10  1  0
  8 13  2  0
  9 11  1  0
 10 11  2  0
 10 14  1  0
 11 16  1  0
 14 15  2  0
 15 17  1  0
M  END
>  <PUBCHEM_COMPOUND_CID>  (1) 
40604

>  <PUBCHEM_CONFORMER_RMSD>  (1) 
0.6

>  <PUBCHEM_CONFORMER_DIVERSEORDER>  (1) 
1
2

>  <PUBCHEM_MMFF94_PARTIAL_CHARGES>  (1) 
20
1 -0.68
11 0.03
13 -0.07
14 -0.15
15 -0.06
16 0.5
17 0.14
2 -0.68
22 0.15
23 0.15
24 0.4
25 0.4
26 0.06
3 -0.15
4 -0.57
5 -0.57
6 0.34
7 0.42
8 -0.14
9 0.49

>  <PUBCHEM_EFFECTIVE_ROTOR_COUNT>  (1) 
1.6

>  <PUBCHEM_PHARMACOPHORE_FEATURES>  (1) 
10
1 1 acceptor
1 1 donor
1 11 anion
1 2 acceptor
1 2 donor
1 3 acceptor
1 4 acceptor
1 5 acceptor
6 3 8 10 13 14 15 rings
6 6 7 8 9 10 11 rings

>  <PUBCHEM_HEAVY_ATOM_COUNT>  (1) 
17

>  <PUBCHEM_ATOM_DEF_STEREO_COUNT>  (1) 
2

>  <PUBCHEM_ATOM_UDEF_STEREO_COUNT>  (1) 
0

>  <PUBCHEM_BOND_DEF_STEREO_COUNT>  (1) 
0

>  <PUBCHEM_BOND_UDEF_STEREO_COUNT>  (1) 
0

>  <PUBCHEM_ISOTOPIC_ATOM_COUNT>  (1) 
0

>  <PUBCHEM_COMPONENT_COUNT>  (1) 
1

>  <PUBCHEM_CACTVS_TAUTO_COUNT>  (1) 
1

>  <PUBCHEM_CONFORMER_ID>  (1) 
00009E9C00000001

>  <PUBCHEM_MMFF94_ENERGY>  (1) 
45.0168

>  <PUBCHEM_FEATURE_SELFOVERLAP>  (1) 
50.779

>  <PUBCHEM_SHAPE_FINGERPRINT>  (1) 
10967382 1 18411136917993620569
11471102 20 18410851054045688629
12654215 9 18334849477080519725
13140716 1 18411136905256607058
13380535 76 17905885130078056680
13464514 151 18265345069370197116
13897977 150 18338794649576649029
14115302 16 17968673621960979606
14648413 74 18338518672005083545
15375462 189 18115590318609490875
15490181 8 17903914800851006865
15536298 74 18272649051840255258
15775835 57 18261114062695338623
16945 1 18124032600773506046
17990270 104 18341894142379102367
18186145 218 18340485578517504461
193761 8 18050850214766735074
19591789 44 16469824593931034361
20233049 118 18189614939023090117
20511035 2 17985819569751316146
20645477 70 18341608270215620039
21267235 1 18340213989965074595
21501502 16 18196089069703874469
21524375 3 17765148762656484344
221490 88 18337114591630731427
2334 1 18411702114346858466
23402539 116 18128806456801782038
23419403 2 16255516952978953623
23552423 10 18338231695349209943
23558518 356 17829042457309606131
23559900 14 18411423900115605910
241688 4 18339931402802421960
25 1 18264771128400247460
2748010 2 18412824664015614942
3060560 45 18271801273073727375
3071541 12 18339364183324863209
34934 24 18413100658635148444
53812653 166 18412257371918998257
5939293 188 18412537730141161609
63268167 104 18411987982985396913
7364860 26 18271524311643492129
74978 22 18411699907081970847
7832392 63 18413386523443066383
81228 2 17982750574973626744

>  <PUBCHEM_SHAPE_MULTIPOLES>  (1) 
320.51
5.2
2.76
0.9
4.2
1.96
0.05
-0.66
0.5
-1.22
-0.22
-0.42
-0.35
-0.03

>  <PUBCHEM_SHAPE_SELFOVERLAP>  (1) 
690.633

>  <PUBCHEM_SHAPE_VOLUME>  (1) 
175.4

>  <PUBCHEM_COORDINATE_TYPE>  (1) 
2
5
10

$$$$
