4060
     RDKit          3D

 16 17  0  0  1  0  0  0  0  0999 V2000
    0.9049    0.1455   -2.2647 O   0  0  0  0  0  0  0  0  0  0  0  0
    3.0337   -0.8952    1.6832 O   0  0  0  0  0  0  0  0  0  0  0  0
    1.0466    0.2277    1.2068 N   0  0  0  0  0  0  0  0  0  0  0  0
    2.2759   -0.5168   -0.4970 N   0  0  0  0  0  0  0  0  0  0  0  0
    0.2861    0.6562    0.0439 C   0  0  0  0  0  0  0  0  0  0  0  0
    0.3596    2.1846   -0.0654 C   0  0  0  0  0  0  0  0  0  0  0  0
    1.1687    0.0727   -1.0705 C   0  0  0  0  0  0  0  0  0  0  0  0
   -1.1068    0.0422    0.0404 C   0  0  0  0  0  0  0  0  0  0  0  0
    2.2243   -0.4479    0.8810 C   0  0  0  0  0  0  0  0  0  0  0  0
   -0.3326    2.8626    1.1041 C   0  0  0  0  0  0  0  0  0  0  0  0
   -1.3667   -1.1045    0.7920 C   0  0  0  0  0  0  0  0  0  0  0  0
   -2.1253    0.6251   -0.7148 C   0  0  0  0  0  0  0  0  0  0  0  0
    3.3368   -1.1637   -1.2428 C   0  0  0  0  0  0  0  0  0  0  0  0
   -2.6430   -1.6672    0.7884 C   0  0  0  0  0  0  0  0  0  0  0  0
   -3.4017    0.0624   -0.7181 C   0  0  0  0  0  0  0  0  0  0  0  0
   -3.6606   -1.0836    0.0336 C   0  0  0  0  0  0  0  0  0  0  0  0
  1  7  2  0
  2  9  2  0
  3  5  1  0
  3  9  1  0
  4  7  1  0
  4  9  1  0
  4 13  1  0
  5  6  1  0
  5  7  1  0
  5  8  1  0
  6 10  1  0
  8 11  2  0
  8 12  1  0
 11 14  1  0
 12 15  2  0
 14 16  2  0
 15 16  1  0
M  END
>  <PUBCHEM_COMPOUND_CID>  (1) 
4060

>  <PUBCHEM_CONFORMER_RMSD>  (1) 
0.6

>  <PUBCHEM_CONFORMER_DIVERSEORDER>  (1) 
1
3
5
6
2
4

>  <PUBCHEM_MMFF94_PARTIAL_CHARGES>  (1) 
20
1 -0.57
11 -0.15
12 -0.15
13 0.3
14 -0.15
15 -0.15
16 -0.15
19 0.37
2 -0.57
23 0.15
24 0.15
28 0.15
29 0.15
3 -0.73
30 0.15
4 -0.42
5 0.5
7 0.57
8 -0.14
9 0.69

>  <PUBCHEM_EFFECTIVE_ROTOR_COUNT>  (1) 
2.6

>  <PUBCHEM_PHARMACOPHORE_FEATURES>  (1) 
6
1 1 acceptor
1 10 hydrophobe
1 2 acceptor
1 3 donor
5 3 4 5 7 9 rings
6 8 11 12 14 15 16 rings

>  <PUBCHEM_HEAVY_ATOM_COUNT>  (1) 
16

>  <PUBCHEM_ATOM_DEF_STEREO_COUNT>  (1) 
0

>  <PUBCHEM_ATOM_UDEF_STEREO_COUNT>  (1) 
1

>  <PUBCHEM_BOND_DEF_STEREO_COUNT>  (1) 
0

>  <PUBCHEM_BOND_UDEF_STEREO_COUNT>  (1) 
0

>  <PUBCHEM_ISOTOPIC_ATOM_COUNT>  (1) 
0

>  <PUBCHEM_COMPONENT_COUNT>  (1) 
1

>  <PUBCHEM_CACTVS_TAUTO_COUNT>  (1) 
2

>  <PUBCHEM_CONFORMER_ID>  (1) 
00000FDC00000001

>  <PUBCHEM_MMFF94_ENERGY>  (1) 
36.3611

>  <PUBCHEM_FEATURE_SELFOVERLAP>  (1) 
30.446

>  <PUBCHEM_SHAPE_FINGERPRINT>  (1) 
10130415 120 18335421270587816353
10465860 250 18335966619506737608
10465860 71 18040445373166914582
11471102 22 17561073722320248432
11578080 2 17315321857180382676
12251169 10 13901917673777258023
12326174 3 17913501404200433209
12725867 57 18202290229142728368
13296908 3 18273214187990208503
14115302 16 17967530168949643775
14128692 85 17748826323499947218
16945 1 17968651623217207813
20233049 118 18041823022898277565
20361792 2 18131361816508867909
20645476 183 17167870785211901059
20645477 70 18123185968810868063
20711985 344 18126576621408572424
21524375 3 17045980283229169337
232386 152 18187070780506270554
23419403 2 17829002733184017748
23559900 14 18337387137612825398
25 1 13695589940305976222
2748010 2 17826226578346051643
3082319 5 16588026813827627879
31174 14 18051983811903701947
3286 77 18263633117397604727
528886 8 16008750229425007830
68419 9 17900289444953305220
7364860 26 18125724740552462001
74978 22 18337959008055039107
77492 1 17531531966606372416
81228 2 18127132974371673369

>  <PUBCHEM_SHAPE_MULTIPOLES>  (1) 
307.57
5.21
2.02
1.53
1.22
1.73
0.23
-3.21
0.28
0.19
-0.61
-0.92
-0.18
0.43

>  <PUBCHEM_SHAPE_SELFOVERLAP>  (1) 
656.396

>  <PUBCHEM_SHAPE_VOLUME>  (1) 
172.9

>  <PUBCHEM_COORDINATE_TYPE>  (1) 
2
5
10

$$$$
