40609
     RDKit          3D

 28 30  0  0  0  0  0  0  0  0999 V2000
   -3.9523    0.3577   -2.4657 Cl  0  0  0  0  0  0  0  0  0  0  0  0
    1.1830   -2.5012    1.4358 S   0  0  0  0  0  0  0  0  0  0  0  0
    4.8391   -2.4949    0.2354 O   0  0  0  0  0  0  0  0  0  0  0  0
    1.1151    2.3038    2.1395 O   0  0  0  0  0  0  0  0  0  0  0  0
   -0.6261    3.5344    0.3573 O   0  0  0  0  0  0  0  0  0  0  0  0
    2.7377   -1.7549   -0.4758 N   0  0  0  0  0  0  0  0  0  0  0  0
    0.4313   -1.2343   -0.7651 N   0  0  0  0  0  0  0  0  0  0  0  0
   -0.7583   -1.4085   -0.0667 N   0  0  0  0  0  0  0  0  0  0  0  0
    3.1859   -1.1584   -1.7266 C   0  0  0  0  0  0  0  0  0  0  0  0
    3.5838    0.3070   -1.5675 C   0  0  0  0  0  0  0  0  0  0  0  0
    2.4590    1.1694   -1.0497 C   0  0  0  0  0  0  0  0  0  0  0  0
    3.6284   -2.3678    0.3962 C   0  0  0  0  0  0  0  0  0  0  0  0
    1.4173   -1.7366   -0.1056 C   0  0  0  0  0  0  0  0  0  0  0  0
    2.9345   -2.8899    1.6278 C   0  0  0  0  0  0  0  0  0  0  0  0
    2.3065    1.3385    0.3176 C   0  0  0  0  0  0  0  0  0  0  0  0
    1.5981    1.7767   -1.9504 C   0  0  0  0  0  0  0  0  0  0  0  0
    1.2664    2.1354    0.7963 C   0  0  0  0  0  0  0  0  0  0  0  0
    0.5582    2.5735   -1.4717 C   0  0  0  0  0  0  0  0  0  0  0  0
    0.3924    2.7529   -0.0984 C   0  0  0  0  0  0  0  0  0  0  0  0
    1.8041    3.4004    2.7370 C   0  0  0  0  0  0  0  0  0  0  0  0
   -1.8718    2.8898    0.6160 C   0  0  0  0  0  0  0  0  0  0  0  0
   -1.7516   -0.9056   -0.7249 C   0  0  0  0  0  0  0  0  0  0  0  0
   -3.1324   -0.9494   -0.2149 C   0  0  0  0  0  0  0  0  0  0  0  0
   -4.1867   -0.4055   -0.9340 C   0  0  0  0  0  0  0  0  0  0  0  0
   -3.3432   -1.5579    1.0146 C   0  0  0  0  0  0  0  0  0  0  0  0
   -5.4792   -0.4712   -0.4133 C   0  0  0  0  0  0  0  0  0  0  0  0
   -4.6356   -1.6234    1.5353 C   0  0  0  0  0  0  0  0  0  0  0  0
   -5.7035   -1.0800    0.8214 C   0  0  0  0  0  0  0  0  0  0  0  0
  1 24  1  0
  2 13  1  0
  2 14  1  0
  3 12  2  0
  4 17  1  0
  4 20  1  0
  5 19  1  0
  5 21  1  0
  6  9  1  0
  6 12  1  0
  6 13  1  0
  7  8  1  0
  7 13  2  0
  8 22  2  0
  9 10  1  0
 10 11  1  0
 11 15  2  0
 11 16  1  0
 12 14  1  0
 15 17  1  0
 16 18  2  0
 17 19  2  0
 18 19  1  0
 22 23  1  0
 23 24  2  0
 23 25  1  0
 24 26  1  0
 25 27  2  0
 26 28  2  0
 27 28  1  0
M  END
>  <PUBCHEM_COMPOUND_CID>  (1) 
40609

>  <PUBCHEM_CONFORMER_RMSD>  (1) 
1

>  <PUBCHEM_CONFORMER_DIVERSEORDER>  (1) 
2
22
28
67
10
41
9
88
18
82
55
66
93
73
84
99
29
94
42
92
90
25
87
30
51
97
38
81
43
91
31
15
96
64
86
1
11
47
74
61
78
69
17
12
13
5
8
24
76
77
50
80
16
32
53
71
23
89
3
83
45
68
26
57
14
48
7
65
44
75
95
59
33
79
34
21
20
54
98
36
39
58
72
37
85
56
62
19
6
35
63
27
40
46
4
52
70
49
60

>  <PUBCHEM_MMFF94_PARTIAL_CHARGES>  (1) 
36
1 -0.18
10 0.14
11 -0.14
12 0.57
13 0.65
14 0.29
15 -0.15
16 -0.15
17 0.08
18 -0.15
19 0.08
2 -0.37
20 0.28
21 0.28
22 0.3
23 0.09
24 0.18
25 -0.15
26 -0.15
27 -0.15
28 -0.15
3 -0.57
35 0.15
36 0.15
37 0.15
4 -0.36
44 0.06
45 0.15
46 0.15
47 0.15
48 0.15
5 -0.36
6 -0.42
7 -0.45
8 -0.45
9 0.3

>  <PUBCHEM_EFFECTIVE_ROTOR_COUNT>  (1) 
7.6

>  <PUBCHEM_PHARMACOPHORE_FEATURES>  (1) 
7
1 3 acceptor
1 4 acceptor
1 5 acceptor
1 8 acceptor
5 2 6 12 13 14 rings
6 11 15 16 17 18 19 rings
6 23 24 25 26 27 28 rings

>  <PUBCHEM_HEAVY_ATOM_COUNT>  (1) 
28

>  <PUBCHEM_ATOM_DEF_STEREO_COUNT>  (1) 
0

>  <PUBCHEM_ATOM_UDEF_STEREO_COUNT>  (1) 
0

>  <PUBCHEM_BOND_DEF_STEREO_COUNT>  (1) 
0

>  <PUBCHEM_BOND_UDEF_STEREO_COUNT>  (1) 
2

>  <PUBCHEM_ISOTOPIC_ATOM_COUNT>  (1) 
0

>  <PUBCHEM_COMPONENT_COUNT>  (1) 
1

>  <PUBCHEM_CACTVS_TAUTO_COUNT>  (1) 
1

>  <PUBCHEM_CONFORMER_ID>  (1) 
00009EA100000002

>  <PUBCHEM_MMFF94_ENERGY>  (1) 
85.8584

>  <PUBCHEM_FEATURE_SELFOVERLAP>  (1) 
35.528

>  <PUBCHEM_SHAPE_FINGERPRINT>  (1) 
1100329 8 18048315544634532173
12156800 1 16593607789090310952
12788726 201 18269570363928098654
13134695 92 18343577447536697294
13140716 1 18266743476156197424
14251757 17 17894628145702375989
15420108 30 17415261000503614142
20775530 9 18262230028353355631
21041028 32 18411137996056876735
21860390 5 14979948207422206314
23419403 2 17905844229526529316
23559900 14 17603583045822874183
35225 105 8926085580499627731
376196 1 16625174028989360568
469060 322 17460317642885850214
508706 21 17677314062403832405
57527573 199 17909270518212505208
5895379 119 15983728613526630841
6823239 73 17676199182787088371
7471813 234 18338223878224375646

>  <PUBCHEM_SHAPE_MULTIPOLES>  (1) 
549.4
9.51
4.4
2.2
12.54
2.05
-0.32
-6.48
0.67
-3.85
-2.37
-0.49
1.22
0.74

>  <PUBCHEM_SHAPE_SELFOVERLAP>  (1) 
1150.456

>  <PUBCHEM_SHAPE_VOLUME>  (1) 
314.6

>  <PUBCHEM_COORDINATE_TYPE>  (1) 
2
5
10

$$$$
