40618
     RDKit          3D

 19 20  0  0  0  0  0  0  0  0999 V2000
    1.2710   -3.1067   -0.4234 Cl  0  0  0  0  0  0  0  0  0  0  0  0
   -1.8374   -2.6481    0.1352 Cl  0  0  0  0  0  0  0  0  0  0  0  0
    3.6348   -1.3123   -0.4803 O   0  0  0  0  0  0  0  0  0  0  0  0
   -2.5203    0.1669    0.7214 O   0  0  0  0  0  0  0  0  0  0  0  0
   -5.3051    1.5591   -1.0576 O   0  0  0  0  0  0  0  0  0  0  0  0
   -5.1754   -0.2676    0.2967 O   0  0  0  0  0  0  0  0  0  0  0  0
    3.3960    1.0765   -0.0452 C   0  0  0  0  0  0  0  0  0  0  0  0
    2.1068    1.8757    0.3000 C   0  0  0  0  0  0  0  0  0  0  0  0
    1.0196    0.8467    0.2907 C   0  0  0  0  0  0  0  0  0  0  0  0
    2.9187   -0.3637   -0.2105 C   0  0  0  0  0  0  0  0  0  0  0  0
    1.4812   -0.4302    0.0012 C   0  0  0  0  0  0  0  0  0  0  0  0
    4.0141    1.5618   -1.3581 C   0  0  0  0  0  0  0  0  0  0  0  0
    4.4156    1.1495    1.0927 C   0  0  0  0  0  0  0  0  0  0  0  0
   -0.3292    1.0506    0.5346 C   0  0  0  0  0  0  0  0  0  0  0  0
    0.6519   -1.5350   -0.0595 C   0  0  0  0  0  0  0  0  0  0  0  0
   -1.1938   -0.0477    0.4804 C   0  0  0  0  0  0  0  0  0  0  0  0
   -0.7059   -1.3316    0.1853 C   0  0  0  0  0  0  0  0  0  0  0  0
   -3.1964    1.0697   -0.1495 C   0  0  0  0  0  0  0  0  0  0  0  0
   -4.6464    0.6863   -0.2541 C   0  0  0  0  0  0  0  0  0  0  0  0
  1 15  1  0
  2 17  1  0
  3 10  2  0
  4 16  1  0
  4 18  1  0
  5 19  1  0
  6 19  2  0
  7  8  1  0
  7 10  1  0
  7 12  1  0
  7 13  1  0
  8  9  1  0
  9 11  2  0
  9 14  1  0
 10 11  1  0
 11 15  1  0
 14 16  2  0
 15 17  2  0
 16 17  1  0
 18 19  1  0
M  END
>  <PUBCHEM_COMPOUND_CID>  (1) 
40618

>  <PUBCHEM_CONFORMER_RMSD>  (1) 
0.6

>  <PUBCHEM_CONFORMER_DIVERSEORDER>  (1) 
1
7
19
16
18
15
13
9
5
12
3
11
17
14
6
8
10
4
2

>  <PUBCHEM_MMFF94_PARTIAL_CHARGES>  (1) 
19
1 -0.18
10 0.42
11 0.09
14 -0.15
15 0.18
16 0.08
17 0.18
18 0.34
19 0.66
2 -0.18
28 0.15
3 -0.57
31 0.5
4 -0.36
5 -0.65
6 -0.57
7 0.06
8 0.14
9 -0.14

>  <PUBCHEM_EFFECTIVE_ROTOR_COUNT>  (1) 
3.4

>  <PUBCHEM_PHARMACOPHORE_FEATURES>  (1) 
8
1 3 acceptor
1 4 acceptor
1 5 acceptor
1 6 acceptor
3 5 6 19 anion
3 7 12 13 hydrophobe
5 7 8 9 10 11 rings
6 9 11 14 15 16 17 rings

>  <PUBCHEM_HEAVY_ATOM_COUNT>  (1) 
19

>  <PUBCHEM_ATOM_DEF_STEREO_COUNT>  (1) 
0

>  <PUBCHEM_ATOM_UDEF_STEREO_COUNT>  (1) 
0

>  <PUBCHEM_BOND_DEF_STEREO_COUNT>  (1) 
0

>  <PUBCHEM_BOND_UDEF_STEREO_COUNT>  (1) 
0

>  <PUBCHEM_ISOTOPIC_ATOM_COUNT>  (1) 
0

>  <PUBCHEM_COMPONENT_COUNT>  (1) 
1

>  <PUBCHEM_CACTVS_TAUTO_COUNT>  (1) 
1

>  <PUBCHEM_CONFORMER_ID>  (1) 
00009EAA00000001

>  <PUBCHEM_MMFF94_ENERGY>  (1) 
56.3967

>  <PUBCHEM_FEATURE_SELFOVERLAP>  (1) 
40.737

>  <PUBCHEM_SHAPE_FINGERPRINT>  (1) 
10411042 1 17691408503469695791
10498660 4 18339937029347112836
10693767 8 17844246224868428526
10967382 1 18412831257085956402
11471102 20 18413108338110663064
11543360 7 15267342946120265520
12236239 1 17417813912180055481
12730499 353 18336552634062344147
13140716 1 18412829084101887562
13380535 76 18411138043306967131
14897335 6 18412825802176803634
14911166 2 18341338807676912598
15196674 1 18411982485543594643
15885798 251 9871749100748143775
16752209 62 18196930200368190810
16945 1 18269852929773787346
18186145 218 18059309745930855304
200 152 17846778490699549025
20602899 9 16056891255247235599
20645477 56 18336263543475861689
20645477 70 18340492174864824838
21524375 3 18408039615176166939
22182313 1 18198363890268570366
22289505 5 18265325106531127493
231179 274 17967527948314544473
23227448 37 18336828705648358807
2334 1 18269563895776123810
23402539 116 18339631317748534165
23402655 69 18272086076692270509
23559900 14 18202007664056675352
25 1 18410852157509327311
2748010 2 18269571566513854870
3060560 45 18341612603273138748
3071541 37 18410015403338200862
335352 9 18411138000800477446
33824 294 18412262805158174554
34934 24 18411694426719376208
3545911 37 18341335577861557912
3759504 43 17967819396073629883
4072396 5 18336812114158045960
495365 180 17632006533628140592
5104073 3 18410577275555603123
58051976 378 18341327817077239125
59755656 215 18340770352129429334
633830 44 17313386768338915330
69090 78 18412543227941607795
7364860 26 18270681953020014386
81539 233 18335421248786146471
8272917 22 18198346165423232311

>  <PUBCHEM_SHAPE_MULTIPOLES>  (1) 
371.27
9.25
2.68
0.91
8.34
2.2
-0.1
-5.41
-1.46
-0.31
-0.35
-0.42
-0.28
0.61

>  <PUBCHEM_SHAPE_SELFOVERLAP>  (1) 
779.875

>  <PUBCHEM_SHAPE_VOLUME>  (1) 
213.5

>  <PUBCHEM_COORDINATE_TYPE>  (1) 
2
5
10

$$$$
