40616
     RDKit          3D

  7  7  0  0  0  0  0  0  0  0999 V2000
    2.6888    0.5223    0.0003 Cl  0  0  0  0  0  0  0  0  0  0  0  0
   -2.3046    0.7079    0.0003 O   0  0  0  0  0  0  0  0  0  0  0  0
    0.6257   -1.3146    0.0002 C   0  0  0  0  0  0  0  0  0  0  0  0
   -0.8989   -1.2620   -0.0002 C   0  0  0  0  0  0  0  0  0  0  0  0
    1.0312    0.1193   -0.0003 C   0  0  0  0  0  0  0  0  0  0  0  0
   -1.1872    0.2135    0.0000 C   0  0  0  0  0  0  0  0  0  0  0  0
    0.0450    1.0137   -0.0004 C   0  0  0  0  0  0  0  0  0  0  0  0
  1  5  1  0
  2  6  2  0
  3  4  1  0
  3  5  1  0
  4  6  1  0
  5  7  2  0
  6  7  1  0
M  END
>  <PUBCHEM_COMPOUND_CID>  (1) 
40616

>  <PUBCHEM_CONFORMER_RMSD>  (1) 
0.4

>  <PUBCHEM_CONFORMER_DIVERSEORDER>  (1) 
1

>  <PUBCHEM_MMFF94_PARTIAL_CHARGES>  (1) 
7
1 -0.14
12 0.15
2 -0.57
3 0.14
4 0.06
6 0.49
7 -0.14

>  <PUBCHEM_EFFECTIVE_ROTOR_COUNT>  (1) 
0.4

>  <PUBCHEM_PHARMACOPHORE_FEATURES>  (1) 
2
1 2 acceptor
5 3 4 5 6 7 rings

>  <PUBCHEM_HEAVY_ATOM_COUNT>  (1) 
7

>  <PUBCHEM_ATOM_DEF_STEREO_COUNT>  (1) 
0

>  <PUBCHEM_ATOM_UDEF_STEREO_COUNT>  (1) 
0

>  <PUBCHEM_BOND_DEF_STEREO_COUNT>  (1) 
0

>  <PUBCHEM_BOND_UDEF_STEREO_COUNT>  (1) 
0

>  <PUBCHEM_ISOTOPIC_ATOM_COUNT>  (1) 
0

>  <PUBCHEM_COMPONENT_COUNT>  (1) 
1

>  <PUBCHEM_CACTVS_TAUTO_COUNT>  (1) 
5

>  <PUBCHEM_CONFORMER_ID>  (1) 
00009EA800000001

>  <PUBCHEM_MMFF94_ENERGY>  (1) 
3.9989

>  <PUBCHEM_FEATURE_SELFOVERLAP>  (1) 
10.148

>  <PUBCHEM_SHAPE_FINGERPRINT>  (1) 
16714656 1 18409168839603961332
20096714 4 18410856546760168946
21040471 1 18410856546802379936
23552423 10 18260550060817892566
29004967 10 17822302244646192105

>  <PUBCHEM_SHAPE_MULTIPOLES>  (1) 
140.06
2.85
1.35
0.61
1.07
0.35
0
-0.78
0
-0.22
0
0.05
0.01
0

>  <PUBCHEM_SHAPE_SELFOVERLAP>  (1) 
276.354

>  <PUBCHEM_SHAPE_VOLUME>  (1) 
85.2

>  <PUBCHEM_COORDINATE_TYPE>  (1) 
2
5
10

$$$$
