4062
     RDKit          3D

 18 19  0  0  1  0  0  0  0  0999 V2000
   -0.4782    0.3485    1.5770 O   0  0  0  0  0  0  0  0  0  0  0  0
   -2.8530    0.8984    0.4377 N   0  0  0  0  0  0  0  0  0  0  0  0
    0.4549   -0.0892   -0.5383 N   0  0  0  0  0  0  0  0  0  0  0  0
   -1.9120    0.0247   -0.2874 C   0  0  0  0  0  0  0  0  0  0  0  0
   -2.3428   -1.4477   -0.2403 C   0  0  0  0  0  0  0  0  0  0  0  0
   -3.7660   -1.6334   -0.7478 C   0  0  0  0  0  0  0  0  0  0  0  0
   -4.7100   -0.6993   -0.0048 C   0  0  0  0  0  0  0  0  0  0  0  0
   -4.2234    0.7468   -0.0837 C   0  0  0  0  0  0  0  0  0  0  0  0
   -0.5705    0.1157    0.3761 C   0  0  0  0  0  0  0  0  0  0  0  0
   -2.4656    2.3124    0.3543 C   0  0  0  0  0  0  0  0  0  0  0  0
    1.8476   -0.0793   -0.2870 C   0  0  0  0  0  0  0  0  0  0  0  0
    2.5510    1.1114   -0.3939 C   0  0  0  0  0  0  0  0  0  0  0  0
    2.4858   -1.2604    0.0613 C   0  0  0  0  0  0  0  0  0  0  0  0
    3.9238    1.1211   -0.1473 C   0  0  0  0  0  0  0  0  0  0  0  0
    3.8587   -1.2506    0.3080 C   0  0  0  0  0  0  0  0  0  0  0  0
    1.8790    2.3927   -0.7689 C   0  0  0  0  0  0  0  0  0  0  0  0
    1.7432   -2.5518    0.1811 C   0  0  0  0  0  0  0  0  0  0  0  0
    4.5776   -0.0598    0.2037 C   0  0  0  0  0  0  0  0  0  0  0  0
  1  9  2  0
  2  4  1  0
  2  8  1  0
  2 10  1  0
  3  9  1  0
  3 11  1  0
  4  5  1  0
  4  9  1  0
  5  6  1  0
  6  7  1  0
  7  8  1  0
 11 12  2  0
 11 13  1  0
 12 14  1  0
 12 16  1  0
 13 15  2  0
 13 17  1  0
 14 18  2  0
 15 18  1  0
M  END
>  <PUBCHEM_COMPOUND_CID>  (1) 
4062

>  <PUBCHEM_CONFORMER_RMSD>  (1) 
0.6

>  <PUBCHEM_CONFORMER_DIVERSEORDER>  (1) 
2
26
6
22
21
27
3
25
18
28
9
17
5
23
4
8
14
24
19
11
7
10
13
20
1
12
15
16

>  <PUBCHEM_MMFF94_PARTIAL_CHARGES>  (1) 
19
1 -0.57
10 0.27
11 0.12
12 -0.14
13 -0.14
14 -0.15
15 -0.15
16 0.14
17 0.14
18 -0.15
2 -0.81
3 -0.55
31 0.37
32 0.15
33 0.15
4 0.33
40 0.15
8 0.27
9 0.57

>  <PUBCHEM_EFFECTIVE_ROTOR_COUNT>  (1) 
4.2

>  <PUBCHEM_PHARMACOPHORE_FEATURES>  (1) 
5
1 1 acceptor
1 2 cation
1 3 donor
6 11 12 13 14 15 18 rings
6 2 4 5 6 7 8 rings

>  <PUBCHEM_HEAVY_ATOM_COUNT>  (1) 
18

>  <PUBCHEM_ATOM_DEF_STEREO_COUNT>  (1) 
0

>  <PUBCHEM_ATOM_UDEF_STEREO_COUNT>  (1) 
1

>  <PUBCHEM_BOND_DEF_STEREO_COUNT>  (1) 
0

>  <PUBCHEM_BOND_UDEF_STEREO_COUNT>  (1) 
0

>  <PUBCHEM_ISOTOPIC_ATOM_COUNT>  (1) 
0

>  <PUBCHEM_COMPONENT_COUNT>  (1) 
1

>  <PUBCHEM_CACTVS_TAUTO_COUNT>  (1) 
2

>  <PUBCHEM_CONFORMER_ID>  (1) 
00000FDE00000002

>  <PUBCHEM_MMFF94_ENERGY>  (1) 
60.3317

>  <PUBCHEM_FEATURE_SELFOVERLAP>  (1) 
25.371

>  <PUBCHEM_SHAPE_FINGERPRINT>  (1) 
10616163 171 18341895237944494359
11370993 70 18408037429017136347
12107183 9 17690560788604138771
12236239 1 18202282511518871326
12251169 10 18410575067483229477
13167823 11 18411418405834406927
13760787 19 18343584044764894703
14178342 30 18267010657840378506
14251717 144 18334574659566985294
14289901 80 18411700967500855011
15196674 1 18410855455875431598
15442244 35 18266178318694840586
15536298 74 18341613694253126766
17349148 13 18113897182208068618
17492 89 18411702045696785031
18186145 218 17095517426814038637
18681886 176 18272365413007220498
19050596 39 18412265051462792143
200 152 18412260662006248175
20279233 1 16008750207902763714
20645477 70 18335420149374985910
21267235 1 18411428297218001142
21709351 56 18408036316915512628
221490 88 18262807392138121938
2255824 54 18261116304931797022
22646028 1 18412543223498875967
23402539 116 18411974767772012253
23402655 69 18335701611292474644
23557571 272 17632020762301358945
23559900 14 18341889684355887072
3082319 5 18410855477534845343
3545911 37 18410857650709331837
4214541 1 18411418375964639309
474 4 17968099784460485788
5104073 3 18411138026068777569
58051976 100 18409731738218300351
58051976 378 18413670218585774343
633830 44 17095525088983220141
67856867 119 18337949120787557636
69090 78 18260547831339508395
77779 3 18411138034753741295
7832392 63 18265616485406880316
9709674 26 18410581677612698695
9981440 41 17396985033664344288

>  <PUBCHEM_SHAPE_MULTIPOLES>  (1) 
354.6
9.32
2.33
0.84
2.33
0.16
-0.11
-0.79
0.28
-0.3
0.16
0.1
0.08
-0.91

>  <PUBCHEM_SHAPE_SELFOVERLAP>  (1) 
736.262

>  <PUBCHEM_SHAPE_VOLUME>  (1) 
203

>  <PUBCHEM_COORDINATE_TYPE>  (1) 
2
5
10

$$$$
