40626
     RDKit          3D

 16 17  0  0  0  0  0  0  0  0999 V2000
   -3.2669   -1.0767    1.4848 Cl  0  0  0  0  0  0  0  0  0  0  0  0
   -2.9249   -0.1618   -0.3114 S   0  0  0  0  0  0  0  0  0  0  0  0
    3.8979    0.2903    0.5457 S   0  0  0  0  0  0  0  0  0  0  0  0
   -2.8279   -1.2179   -1.2962 O   0  0  0  0  0  0  0  0  0  0  0  0
   -3.9103    0.8950   -0.3957 O   0  0  0  0  0  0  0  0  0  0  0  0
   -0.1643   -0.2461    0.0183 C   0  0  0  0  0  0  0  0  0  0  0  0
    1.0837    0.3933    0.2096 C   0  0  0  0  0  0  0  0  0  0  0  0
   -1.3288    0.5338   -0.0722 C   0  0  0  0  0  0  0  0  0  0  0  0
    2.2481   -0.3866    0.3001 C   0  0  0  0  0  0  0  0  0  0  0  0
   -0.2111   -1.6465   -0.0770 C   0  0  0  0  0  0  0  0  0  0  0  0
    1.1304    1.7937    0.3049 C   0  0  0  0  0  0  0  0  0  0  0  0
   -1.2638    1.9241    0.0246 C   0  0  0  0  0  0  0  0  0  0  0  0
   -0.0365    2.5527    0.2128 C   0  0  0  0  0  0  0  0  0  0  0  0
    2.1830   -1.7768    0.2034 C   0  0  0  0  0  0  0  0  0  0  0  0
    0.9558   -2.4056    0.0152 C   0  0  0  0  0  0  0  0  0  0  0  0
    4.4356    0.5349   -1.1668 C   0  0  0  0  0  0  0  0  0  0  0  0
  1  2  1  0
  2  4  2  0
  2  5  2  0
  2  8  1  0
  3  9  1  0
  3 16  1  0
  6  7  1  0
  6  8  2  0
  6 10  1  0
  7  9  1  0
  7 11  2  0
  8 12  1  0
  9 14  2  0
 10 15  2  0
 11 13  1  0
 12 13  2  0
 14 15  1  0
M  END
>  <PUBCHEM_COMPOUND_CID>  (1) 
40626

>  <PUBCHEM_CONFORMER_RMSD>  (1) 
0.6

>  <PUBCHEM_CONFORMER_DIVERSEORDER>  (1) 
3
5
2
6
1
4

>  <PUBCHEM_MMFF94_PARTIAL_CHARGES>  (1) 
20
1 -0.19
10 -0.15
11 -0.15
12 -0.15
13 -0.15
14 -0.15
15 -0.15
16 0.23
17 0.15
18 0.15
19 0.15
2 1.49
20 0.15
21 0.15
22 0.15
3 -0.33
4 -0.65
5 -0.65
8 -0.01
9 0.1

>  <PUBCHEM_EFFECTIVE_ROTOR_COUNT>  (1) 
2

>  <PUBCHEM_PHARMACOPHORE_FEATURES>  (1) 
3
1 16 hydrophobe
6 6 7 8 11 12 13 rings
6 6 7 9 10 14 15 rings

>  <PUBCHEM_HEAVY_ATOM_COUNT>  (1) 
16

>  <PUBCHEM_ATOM_DEF_STEREO_COUNT>  (1) 
0

>  <PUBCHEM_ATOM_UDEF_STEREO_COUNT>  (1) 
0

>  <PUBCHEM_BOND_DEF_STEREO_COUNT>  (1) 
0

>  <PUBCHEM_BOND_UDEF_STEREO_COUNT>  (1) 
0

>  <PUBCHEM_ISOTOPIC_ATOM_COUNT>  (1) 
0

>  <PUBCHEM_COMPONENT_COUNT>  (1) 
1

>  <PUBCHEM_CACTVS_TAUTO_COUNT>  (1) 
1

>  <PUBCHEM_CONFORMER_ID>  (1) 
00009EB200000003

>  <PUBCHEM_MMFF94_ENERGY>  (1) 
45.0467

>  <PUBCHEM_FEATURE_SELFOVERLAP>  (1) 
15.249

>  <PUBCHEM_SHAPE_FINGERPRINT>  (1) 
10967382 1 18411974737195440523
11132069 177 18201429298885159234
11471102 22 18336556005263622611
12553582 1 18412821399982927231
12596599 1 17560804372020559158
13132413 78 18413388739398498797
13140716 1 18122904497701278978
13221675 6 18412825780881224154
14614273 12 18116424839123544037
14787075 74 17824273797923266234
14790565 3 18338815505685384384
14993402 34 18342172297477858174
15309172 13 18343303677647192314
16945 1 18411696621025664650
18186145 218 17846780732424395346
193761 8 17907855102838242392
19591789 44 18121227738100262218
20028762 73 17841722004085791991
20645476 183 17750522943599751454
21501502 16 18123749751391352136
21634736 98 17840567520754018863
2334 1 17762613297643432778
23388829 49 18412820278827859277
23402539 116 18342728633719655494
23419403 2 16809580730486650136
23463225 33 18264480707359853266
23493267 7 17748821938385921649
23558518 356 17832704573822292945
23559900 14 18118396255478421146
25610 137 18335989691970811560
2748010 2 18196647402446146222
296302 2 17022625277490972916
3312278 4 18408605846695572881
34934 24 18340194198950615677
537710 114 18408324389062443588
81228 2 17977104565648665241
8809292 202 18188492350620727555

>  <PUBCHEM_SHAPE_MULTIPOLES>  (1) 
327.1
6.44
2.45
0.98
1.41
0.22
0.01
-0.12
-0.66
0.01
0.14
-0.28
-0.17
0.07

>  <PUBCHEM_SHAPE_SELFOVERLAP>  (1) 
669.111

>  <PUBCHEM_SHAPE_VOLUME>  (1) 
191.8

>  <PUBCHEM_COORDINATE_TYPE>  (1) 
2
5
10

$$$$
