40633
     RDKit          3D

 20 21  0  0  0  0  0  0  0  0999 V2000
    6.2668    1.5474    0.1923 Cl  0  0  0  0  0  0  0  0  0  0  0  0
   -1.1775   -3.5938    0.4439 O   0  0  0  0  0  0  0  0  0  0  0  0
   -4.4445    2.2776   -0.4421 O   0  0  0  0  0  0  0  0  0  0  0  0
   -3.0851    1.4499    1.2276 O   0  0  0  0  0  0  0  0  0  0  0  0
    0.6818   -0.4987   -0.1464 C   0  0  0  0  0  0  0  0  0  0  0  0
   -1.6545   -0.1320   -0.6403 C   0  0  0  0  0  0  0  0  0  0  0  0
   -0.3466    0.3468   -0.5621 C   0  0  0  0  0  0  0  0  0  0  0  0
    2.0381   -0.0016   -0.0637 C   0  0  0  0  0  0  0  0  0  0  0  0
   -2.7548    0.7712   -1.0854 C   0  0  0  0  0  0  0  0  0  0  0  0
    0.4029   -1.8230    0.1908 C   0  0  0  0  0  0  0  0  0  0  0  0
   -1.9337   -1.4564   -0.3030 C   0  0  0  0  0  0  0  0  0  0  0  0
   -0.9049   -2.3020    0.1127 C   0  0  0  0  0  0  0  0  0  0  0  0
    2.2717    1.3431    0.2237 C   0  0  0  0  0  0  0  0  0  0  0  0
    3.1120   -0.8671   -0.2721 C   0  0  0  0  0  0  0  0  0  0  0  0
   -3.4206    1.5197    0.0530 C   0  0  0  0  0  0  0  0  0  0  0  0
    3.5792    1.8224    0.3027 C   0  0  0  0  0  0  0  0  0  0  0  0
    4.4197   -0.3879   -0.1931 C   0  0  0  0  0  0  0  0  0  0  0  0
    4.6533    0.9570    0.0944 C   0  0  0  0  0  0  0  0  0  0  0  0
   -2.5360   -4.0176    0.3412 C   0  0  0  0  0  0  0  0  0  0  0  0
   -5.1673    3.0449    0.5262 C   0  0  0  0  0  0  0  0  0  0  0  0
  1 18  1  0
  2 12  1  0
  2 19  1  0
  3 15  1  0
  3 20  1  0
  4 15  2  0
  5  7  1  0
  5  8  1  0
  5 10  2  0
  6  7  2  0
  6  9  1  0
  6 11  1  0
  8 13  2  0
  8 14  1  0
  9 15  1  0
 10 12  1  0
 11 12  2  0
 13 16  1  0
 14 17  2  0
 16 18  2  0
 17 18  1  0
M  END
>  <PUBCHEM_COMPOUND_CID>  (1) 
40633

>  <PUBCHEM_CONFORMER_RMSD>  (1) 
0.8

>  <PUBCHEM_CONFORMER_DIVERSEORDER>  (1) 
1
15
19
10
13
7
16
8
11
17
2
12
14
18
3
9
5
4
6

>  <PUBCHEM_MMFF94_PARTIAL_CHARGES>  (1) 
25
1 -0.18
10 -0.15
11 -0.15
12 0.08
13 -0.15
14 -0.15
15 0.66
16 -0.15
17 -0.15
18 0.18
19 0.28
2 -0.36
20 0.28
21 0.15
24 0.15
25 0.15
26 0.15
27 0.15
28 0.15
29 0.15
3 -0.43
4 -0.57
6 -0.14
7 -0.15
9 0.2

>  <PUBCHEM_EFFECTIVE_ROTOR_COUNT>  (1) 
5

>  <PUBCHEM_PHARMACOPHORE_FEATURES>  (1) 
4
1 2 acceptor
1 4 acceptor
6 5 6 7 10 11 12 rings
6 8 13 14 16 17 18 rings

>  <PUBCHEM_HEAVY_ATOM_COUNT>  (1) 
20

>  <PUBCHEM_ATOM_DEF_STEREO_COUNT>  (1) 
0

>  <PUBCHEM_ATOM_UDEF_STEREO_COUNT>  (1) 
0

>  <PUBCHEM_BOND_DEF_STEREO_COUNT>  (1) 
0

>  <PUBCHEM_BOND_UDEF_STEREO_COUNT>  (1) 
0

>  <PUBCHEM_ISOTOPIC_ATOM_COUNT>  (1) 
0

>  <PUBCHEM_COMPONENT_COUNT>  (1) 
1

>  <PUBCHEM_CACTVS_TAUTO_COUNT>  (1) 
1

>  <PUBCHEM_CONFORMER_ID>  (1) 
00009EB900000001

>  <PUBCHEM_MMFF94_ENERGY>  (1) 
64.0337

>  <PUBCHEM_FEATURE_SELFOVERLAP>  (1) 
20.297

>  <PUBCHEM_SHAPE_FINGERPRINT>  (1) 
10411042 1 17761211420392826231
10493431 412 18409168788175331533
10608611 8 18267860769512866884
1100329 8 18192143794361652178
11405975 8 18409162230271856634
12107183 9 18262787455585561298
12293681 160 17846494773365210985
12390115 104 18341062851791361845
12500047 106 18411133662735457796
12532896 13 18410576150121423935
12788726 201 18267286811485127443
13073987 5 18264199396272427552
13140716 1 18190177884829847699
138480 1 17185312046110446423
13955234 65 17831868945797495299
14123255 52 18338515231778594245
14178342 30 18262508325397152146
14787075 74 18201717367243389105
14790565 3 18266744580105873388
15475509 35 16155404022372256787
15778101 99 18410014368921248988
15927050 60 18410855421511457847
1741750 31 18411696595324595002
17980427 26 18124020240053002807
18186145 218 18411132498809974356
19784866 34 18339921490181757545
204376 136 18337110060371363485
20510252 161 18194399124305606051
20645477 56 18335700559320827772
21033648 29 18263911181432668060
21049683 118 18264182795643580537
21065198 57 18338795732245842286
21426921 1 18265613371629495750
21524375 3 18200590285724694037
21756936 100 18342170081206323965
22182937 141 18412266168022400953
22224240 67 18410017598905363329
23402655 69 18202558476105652748
23419403 2 10275705777042061435
23557571 272 18270407216872864990
23558518 356 18116153466146971778
23559900 14 18049429633301812828
23845131 108 18262521373871872443
25 1 18341607062543754718
283562 15 18190735538856770323
293599 30 18410294675165747172
3091708 16 9412799723094741403
335352 9 18339360748152613822
3380486 145 17405980134201596423
350125 39 18193562400583872108
4214541 1 18336824307796967716
474 4 18269272353364299433
5104073 3 18335127740175970168
56616090 46 18411705348794784390
59124914 9 18198342849308215961
59755656 520 18335979800909204903
633830 44 18199463264736409573
77188 2 17473264757148591247
7808743 9 18408320012485799464
7970288 3 9006761095147953777
81228 2 17897445223041576603
9709674 26 18342177804053713062
9981440 41 16911114036552373448

>  <PUBCHEM_SHAPE_MULTIPOLES>  (1) 
395.85
10.89
3.9
0.82
8.63
2.85
0.01
-10.27
-0.97
-6.26
-0.93
-0.45
-0.15
0.15

>  <PUBCHEM_SHAPE_SELFOVERLAP>  (1) 
835.596

>  <PUBCHEM_SHAPE_VOLUME>  (1) 
224.8

>  <PUBCHEM_COORDINATE_TYPE>  (1) 
2
5
10

$$$$
