40636
     RDKit          3D

 13 12  0  0  1  0  0  0  0  0999 V2000
    1.4019    0.4904   -0.4109 O   0  0  0  0  0  0  0  0  0  0  0  0
   -0.9150   -1.6951    2.1650 O   0  0  0  0  0  0  0  0  0  0  0  0
    1.0146    1.5129    1.6260 O   0  0  0  0  0  0  0  0  0  0  0  0
   -0.6423   -0.5595    0.4104 N   0  0  0  0  0  0  0  0  0  0  0  0
   -1.1833   -1.6292    0.9596 N   0  0  0  0  0  0  0  0  0  0  0  0
    0.7741   -0.7514    0.0079 C   0  0  0  0  0  0  0  0  0  0  0  0
   -1.4147   -0.0287   -0.7239 C   0  0  0  0  0  0  0  0  0  0  0  0
    0.9386   -1.7848   -1.1304 C   0  0  0  0  0  0  0  0  0  0  0  0
   -2.5657    0.8638   -0.2756 C   0  0  0  0  0  0  0  0  0  0  0  0
    2.3885   -2.0290   -1.5227 C   0  0  0  0  0  0  0  0  0  0  0  0
   -3.3835    1.3998   -1.4421 C   0  0  0  0  0  0  0  0  0  0  0  0
    1.4505    1.5182    0.4830 C   0  0  0  0  0  0  0  0  0  0  0  0
    2.1363    2.6926   -0.1464 C   0  0  0  0  0  0  0  0  0  0  0  0
  1  6  1  0
  1 12  1  0
  2  5  2  0
  3 12  2  0
  4  5  1  0
  4  6  1  0
  4  7  1  0
  6  8  1  0
  7  9  1  0
  8 10  1  0
  9 11  1  0
 12 13  1  0
M  END
>  <PUBCHEM_COMPOUND_CID>  (1) 
40636

>  <PUBCHEM_CONFORMER_RMSD>  (1) 
0.8

>  <PUBCHEM_CONFORMER_DIVERSEORDER>  (1) 
1
12
105
119
52
129
24
29
126
78
57
65
88
56
106
102
19
37
5
130
96
122
86
91
85
59
63
114
23
4
15
87
109
128
101
25
70
113
11
103
116
68
30
118
13
90
61
43
22
82
32
7
46
80
60
18
42
50
17
95
97
51
124
76
8
110
107
120
3
49
125
21
108
16
79
98
81
93
104
28
9
14
69
132
45
27
133
100
94
64
47
115
77
83
39
33
48
67
26
38
58
62
6
54
127
123
89
53
40
117
99
73
41
92
55
84
75
66
44
111
112
131
74
34
10
35
36
20
121
31
71
2
72

>  <PUBCHEM_MMFF94_PARTIAL_CHARGES>  (1) 
9
1 -0.43
12 0.66
13 0.06
2 -0.16
3 -0.57
4 -0.36
5 -0.01
6 0.55
7 0.27

>  <PUBCHEM_EFFECTIVE_ROTOR_COUNT>  (1) 
7

>  <PUBCHEM_PHARMACOPHORE_FEATURES>  (1) 
3
1 10 hydrophobe
1 11 hydrophobe
1 3 acceptor

>  <PUBCHEM_HEAVY_ATOM_COUNT>  (1) 
13

>  <PUBCHEM_ATOM_DEF_STEREO_COUNT>  (1) 
0

>  <PUBCHEM_ATOM_UDEF_STEREO_COUNT>  (1) 
1

>  <PUBCHEM_BOND_DEF_STEREO_COUNT>  (1) 
0

>  <PUBCHEM_BOND_UDEF_STEREO_COUNT>  (1) 
0

>  <PUBCHEM_ISOTOPIC_ATOM_COUNT>  (1) 
0

>  <PUBCHEM_COMPONENT_COUNT>  (1) 
1

>  <PUBCHEM_CACTVS_TAUTO_COUNT>  (1) 
1

>  <PUBCHEM_CONFORMER_ID>  (1) 
00009EBC00000001

>  <PUBCHEM_MMFF94_ENERGY>  (1) 
15.4796

>  <PUBCHEM_FEATURE_SELFOVERLAP>  (1) 
15.223

>  <PUBCHEM_SHAPE_FINGERPRINT>  (1) 
13294875 104 17897987063314705475
13839132 238 18115019813724056677
14120999 15 17907870504559479860
14648413 74 18336270127745090060
14817 1 17315635363737726123
16945 1 18195247719817417231
18380122 1 17975996562738611131
20379382 53 17695393412896934394
20511035 2 18193534874180761352
21524375 3 18120344761528136501
21947302 44 18337659867482343965
23211744 41 18262223525883502813
23526113 38 18264502697207754566
2748010 2 18196660807139700188
3250762 1 18336274538481480039
4369600 1 17978226058813482343
44249140 249 17978538603530689538
76951 1 17899407593493416227
81228 2 17679042610341143491

>  <PUBCHEM_SHAPE_MULTIPOLES>  (1) 
239.96
3.86
2.82
1.65
3.26
1.27
-0.64
0.79
2.39
-2.29
-0.12
0.25
-0.73
1.4

>  <PUBCHEM_SHAPE_SELFOVERLAP>  (1) 
446.89

>  <PUBCHEM_SHAPE_VOLUME>  (1) 
150.7

>  <PUBCHEM_COORDINATE_TYPE>  (1) 
2
5
10

$$$$
