40642
     RDKit          3D

 26 27  0  0  0  0  0  0  0  0999 V2000
    1.6185    1.0184    0.8823 O   0  0  0  0  0  0  0  0  0  0  0  0
   -0.9224   -1.1376    0.5439 O   0  0  0  0  0  0  0  0  0  0  0  0
    0.1485   -1.5414    2.5412 O   0  0  0  0  0  0  0  0  0  0  0  0
   -1.1858    3.3268    0.2560 N   0  0  0  0  0  0  0  0  0  0  0  0
    4.0053    1.1568   -0.6495 C   0  0  0  0  0  0  0  0  0  0  0  0
    3.2577   -0.1171   -0.4300 C   0  0  0  0  0  0  0  0  0  0  0  0
    2.0904   -0.1427    0.3281 C   0  0  0  0  0  0  0  0  0  0  0  0
    1.4037   -1.3375    0.5242 C   0  0  0  0  0  0  0  0  0  0  0  0
    3.7420   -1.2961   -0.9967 C   0  0  0  0  0  0  0  0  0  0  0  0
    1.8881   -2.5165   -0.0423 C   0  0  0  0  0  0  0  0  0  0  0  0
    4.0676    1.5521   -2.1362 C   0  0  0  0  0  0  0  0  0  0  0  0
    5.4267    1.1124   -0.0590 C   0  0  0  0  0  0  0  0  0  0  0  0
    3.0573   -2.4959   -0.8027 C   0  0  0  0  0  0  0  0  0  0  0  0
    0.7143    1.7828    0.0955 C   0  0  0  0  0  0  0  0  0  0  0  0
   -0.2450    2.5113    1.0232 C   0  0  0  0  0  0  0  0  0  0  0  0
    1.1767   -3.8167    0.1482 C   0  0  0  0  0  0  0  0  0  0  0  0
    0.1810   -1.3550    1.3202 C   0  0  0  0  0  0  0  0  0  0  0  0
   -0.4666    4.2950   -0.5712 C   0  0  0  0  0  0  0  0  0  0  0  0
   -2.1171    4.0118    1.1517 C   0  0  0  0  0  0  0  0  0  0  0  0
   -2.1880   -1.1303    1.2131 C   0  0  0  0  0  0  0  0  0  0  0  0
   -3.2725   -0.8791    0.2069 C   0  0  0  0  0  0  0  0  0  0  0  0
   -3.6660    0.4255   -0.0702 C   0  0  0  0  0  0  0  0  0  0  0  0
   -3.8746   -1.9530   -0.4392 C   0  0  0  0  0  0  0  0  0  0  0  0
   -4.6743    0.6589   -1.0053 C   0  0  0  0  0  0  0  0  0  0  0  0
   -4.8828   -1.7195   -1.3745 C   0  0  0  0  0  0  0  0  0  0  0  0
   -5.2827   -0.4136   -1.6576 C   0  0  0  0  0  0  0  0  0  0  0  0
  1  7  1  0
  1 14  1  0
  2 17  1  0
  2 20  1  0
  3 17  2  0
  4 15  1  0
  4 18  1  0
  4 19  1  0
  5  6  1  0
  5 11  1  0
  5 12  1  0
  6  7  2  0
  6  9  1  0
  7  8  1  0
  8 10  2  0
  8 17  1  0
  9 13  2  0
 10 13  1  0
 10 16  1  0
 14 15  1  0
 20 21  1  0
 21 22  2  0
 21 23  1  0
 22 24  1  0
 23 25  2  0
 24 26  2  0
 25 26  1  0
M  END
>  <PUBCHEM_COMPOUND_CID>  (1) 
40642

>  <PUBCHEM_CONFORMER_RMSD>  (1) 
1

>  <PUBCHEM_CONFORMER_DIVERSEORDER>  (1) 
1
46
30
23
35
41
7
6
48
24
20
56
59
26
49
55
5
58
37
10
38
54
29
42
39
4
31
12
19
45
14
8
44
34
43
21
28
22
36
57
16
13
47
50
53
60
32
15
9
18
33
25
51
3
27
2
11
40
52
17

>  <PUBCHEM_MMFF94_PARTIAL_CHARGES>  (1) 
31
1 -0.36
10 -0.14
13 -0.15
14 0.28
15 0.27
16 0.14
17 0.63
18 0.27
19 0.27
2 -0.43
20 0.42
21 -0.14
22 -0.15
23 -0.15
24 -0.15
25 -0.15
26 -0.15
28 0.15
3 -0.57
35 0.15
4 -0.81
5 0.14
51 0.15
52 0.15
53 0.15
54 0.15
55 0.15
6 -0.14
7 0.08
8 0.09
9 -0.15

>  <PUBCHEM_EFFECTIVE_ROTOR_COUNT>  (1) 
9

>  <PUBCHEM_PHARMACOPHORE_FEATURES>  (1) 
6
1 1 acceptor
1 3 acceptor
1 4 cation
3 5 11 12 hydrophobe
6 21 22 23 24 25 26 rings
6 6 7 8 9 10 13 rings

>  <PUBCHEM_HEAVY_ATOM_COUNT>  (1) 
26

>  <PUBCHEM_ATOM_DEF_STEREO_COUNT>  (1) 
0

>  <PUBCHEM_ATOM_UDEF_STEREO_COUNT>  (1) 
0

>  <PUBCHEM_BOND_DEF_STEREO_COUNT>  (1) 
0

>  <PUBCHEM_BOND_UDEF_STEREO_COUNT>  (1) 
0

>  <PUBCHEM_ISOTOPIC_ATOM_COUNT>  (1) 
0

>  <PUBCHEM_COMPONENT_COUNT>  (1) 
1

>  <PUBCHEM_CACTVS_TAUTO_COUNT>  (1) 
1

>  <PUBCHEM_CONFORMER_ID>  (1) 
00009EC200000001

>  <PUBCHEM_MMFF94_ENERGY>  (1) 
82.9271

>  <PUBCHEM_FEATURE_SELFOVERLAP>  (1) 
30.446

>  <PUBCHEM_SHAPE_FINGERPRINT>  (1) 
10930396 42 17981012488605782320
12553582 1 18410856568773348897
12788726 201 18268142072691334329
13103583 49 9078852804231998479
13911987 19 18119263980421043620
14537116 161 18050533341883258885
14681490 219 18411694396802649013
14931854 50 18335412461800043781
15210252 30 18113335327519437021
17909252 39 18202282464137366790
20715895 44 17822005419546134156
21756936 100 12109233281720354046
221357 26 18410285948298207831
23558518 356 18189351073586522288
238 59 17976251662742968243
266924 87 18410862036140089724
3493558 16 16519641769099345574
5895379 119 17905596714481779274
6004065 56 17983001542681829509
7064713 232 8070028874356072077
7164475 11 18267302032690143966
7471813 234 18193544580733588282

>  <PUBCHEM_SHAPE_MULTIPOLES>  (1) 
512.48
9.99
4.73
1.58
4.04
3.72
-0.06
-1.35
6.15
0.43
-0.55
0.28
-0.05
-1.12

>  <PUBCHEM_SHAPE_SELFOVERLAP>  (1) 
1066.036

>  <PUBCHEM_SHAPE_VOLUME>  (1) 
294.2

>  <PUBCHEM_COORDINATE_TYPE>  (1) 
2
5
10

$$$$
