40645
     RDKit          3D

 29 30  0  0  0  0  0  0  0  0999 V2000
    1.4027   -1.8565    0.9857 O   0  0  0  0  0  0  0  0  0  0  0  0
   -1.7000   -1.1065   -0.6164 O   0  0  0  0  0  0  0  0  0  0  0  0
   -0.7754    1.9203    0.4875 O   0  0  0  0  0  0  0  0  0  0  0  0
    0.9078   -1.3433   -1.2098 O   0  0  0  0  0  0  0  0  0  0  0  0
   -1.1957    2.0353   -1.7728 O   0  0  0  0  0  0  0  0  0  0  0  0
    4.8617   -0.6697    0.5239 N   0  0  0  0  0  0  0  0  0  0  0  0
    5.0660   -1.0654   -0.8766 C   0  0  0  0  0  0  0  0  0  0  0  0
    5.5116    0.6164    0.8128 C   0  0  0  0  0  0  0  0  0  0  0  0
    6.5549   -1.1883   -1.2036 C   0  0  0  0  0  0  0  0  0  0  0  0
    7.0153    0.5484    0.5411 C   0  0  0  0  0  0  0  0  0  0  0  0
    7.3005    0.1036   -0.8888 C   0  0  0  0  0  0  0  0  0  0  0  0
    3.4338   -0.6024    0.8334 C   0  0  0  0  0  0  0  0  0  0  0  0
    2.7819   -1.9648    0.6588 C   0  0  0  0  0  0  0  0  0  0  0  0
   -4.0746   -2.5367   -0.0022 C   0  0  0  0  0  0  0  0  0  0  0  0
   -4.0062   -1.0451   -0.0033 C   0  0  0  0  0  0  0  0  0  0  0  0
   -2.8247   -0.3793   -0.3093 C   0  0  0  0  0  0  0  0  0  0  0  0
   -2.7726    1.0098   -0.3076 C   0  0  0  0  0  0  0  0  0  0  0  0
    0.5664   -1.5376   -0.0510 C   0  0  0  0  0  0  0  0  0  0  0  0
   -5.1510   -0.3117    0.3086 C   0  0  0  0  0  0  0  0  0  0  0  0
   -3.9174    1.7433    0.0043 C   0  0  0  0  0  0  0  0  0  0  0  0
   -5.0632   -3.0798   -1.0504 C   0  0  0  0  0  0  0  0  0  0  0  0
   -4.4170   -3.1077    1.3862 C   0  0  0  0  0  0  0  0  0  0  0  0
   -0.8496   -1.4608    0.4559 C   0  0  0  0  0  0  0  0  0  0  0  0
   -5.1066    1.0825    0.3123 C   0  0  0  0  0  0  0  0  0  0  0  0
   -1.5271    1.6972   -0.6316 C   0  0  0  0  0  0  0  0  0  0  0  0
   -3.9005    3.2373    0.0166 C   0  0  0  0  0  0  0  0  0  0  0  0
    0.4749    2.5919    0.2989 C   0  0  0  0  0  0  0  0  0  0  0  0
    0.2229    3.9479   -0.3425 C   0  0  0  0  0  0  0  0  0  0  0  0
    1.1811    2.7216    1.6399 C   0  0  0  0  0  0  0  0  0  0  0  0
  1 13  1  0
  1 18  1  0
  2 16  1  0
  2 23  1  0
  3 25  1  0
  3 27  1  0
  4 18  2  0
  5 25  2  0
  6  7  1  0
  6  8  1  0
  6 12  1  0
  7  9  1  0
  8 10  1  0
  9 11  1  0
 10 11  1  0
 12 13  1  0
 14 15  1  0
 14 21  1  0
 14 22  1  0
 15 16  2  0
 15 19  1  0
 16 17  1  0
 17 20  2  0
 17 25  1  0
 18 23  1  0
 19 24  2  0
 20 24  1  0
 20 26  1  0
 27 28  1  0
 27 29  1  0
M  END
>  <PUBCHEM_COMPOUND_CID>  (1) 
40645

>  <PUBCHEM_CONFORMER_RMSD>  (1) 
1

>  <PUBCHEM_CONFORMER_DIVERSEORDER>  (1) 
3
210
26
188
215
88
108
218
175
176
186
133
128
208
100
68
199
47
213
214
157
122
207
191
20
204
120
117
178
114
151
177
219
87
1
202
171
54
182
109
192
150
32
16
159
42
110
200
205
180
90
115
33
203
162
137
216
98
112
35
105
12
195
130
136
217
107
129
184
144
106
221
196
103
50
165
2
61
8
75
194
101
45
89
44
60
113
179
174
145
140
18
153
201
197
183
160
70
23
37
93
147
190
24
21
166
142
135
41
121
97
79
173
198
19
52
158
28
143
152
78
51
40
29
48
149
34
80
15
14
58
38
209
220
13
124
66
17
95
81
111
69
189
74
104
5
25
82
4
154
138
161
59
211
222
10
206
170
96
155
53
163
72
118
49
193
92
141
9
123
83
22
181
132
7
119
146
187
125
55
77
57
85
46
156
172
212
167
169
36
102
168
11
91
84
99
131
116
94
43
39
31
30
62
71
65
139
126
76
164
6
64
127
148
63
27
73
67
185
56
86
134

>  <PUBCHEM_MMFF94_PARTIAL_CHARGES>  (1) 
24
1 -0.43
12 0.27
13 0.28
14 0.14
15 -0.14
16 0.08
17 0.09
18 0.66
19 -0.15
2 -0.36
20 -0.14
23 0.34
24 -0.15
25 0.63
26 0.14
27 0.28
3 -0.43
4 -0.57
45 0.15
5 -0.57
54 0.15
6 -0.81
7 0.27
8 0.27

>  <PUBCHEM_EFFECTIVE_ROTOR_COUNT>  (1) 
12.2

>  <PUBCHEM_PHARMACOPHORE_FEATURES>  (1) 
8
1 2 acceptor
1 4 acceptor
1 5 acceptor
1 6 cation
3 14 21 22 hydrophobe
3 27 28 29 hydrophobe
6 15 16 17 19 20 24 rings
6 6 7 8 9 10 11 rings

>  <PUBCHEM_HEAVY_ATOM_COUNT>  (1) 
29

>  <PUBCHEM_ATOM_DEF_STEREO_COUNT>  (1) 
0

>  <PUBCHEM_ATOM_UDEF_STEREO_COUNT>  (1) 
0

>  <PUBCHEM_BOND_DEF_STEREO_COUNT>  (1) 
0

>  <PUBCHEM_BOND_UDEF_STEREO_COUNT>  (1) 
0

>  <PUBCHEM_ISOTOPIC_ATOM_COUNT>  (1) 
0

>  <PUBCHEM_COMPONENT_COUNT>  (1) 
1

>  <PUBCHEM_CACTVS_TAUTO_COUNT>  (1) 
1

>  <PUBCHEM_CONFORMER_ID>  (1) 
00009EC500000003

>  <PUBCHEM_MMFF94_ENERGY>  (1) 
67.7674

>  <PUBCHEM_FEATURE_SELFOVERLAP>  (1) 
40.603

>  <PUBCHEM_SHAPE_FINGERPRINT>  (1) 
10290309 65 18191865613735302287
10670039 82 18333733486512522670
10675989 125 16822479776055792989
10730089 173 18410576159238463190
10864689 126 18268987588384656744
11578080 2 13469584149123931921
12166972 35 17894916256762235932
13140716 1 18337398240493844811
13402501 40 18343300362575849008
14341114 328 18187078404326370226
14420673 8 18341615905923920377
14787075 74 18186799179938896338
14955137 171 17988645232861620928
15183329 4 12895068514256564526
15575132 122 18189054192599485988
18336668 15 18040438806045848757
18608769 82 18412261732070341864
20028762 73 16107562575479907271
20642791 178 18188220870017220397
21033648 29 17774707736555077882
23557571 272 18270968937938515102
23559900 14 18339631343872058177
2747138 104 18262806301142862107
335352 9 18410289208452874021
4015057 19 12180422304152558846
469060 322 17821731611587232588

>  <PUBCHEM_SHAPE_MULTIPOLES>  (1) 
562.48
16.19
4.17
1.21
25.96
2.05
-0.02
-6.1
-1.4
-5.01
0.21
0.53
-0.09
0.84

>  <PUBCHEM_SHAPE_SELFOVERLAP>  (1) 
1149.342

>  <PUBCHEM_SHAPE_VOLUME>  (1) 
326.7

>  <PUBCHEM_COORDINATE_TYPE>  (1) 
2
5
10

$$$$
