40647
     RDKit          3D

 23 23  0  0  1  0  0  0  0  0999 V2000
   -0.1479    0.6954   -0.2174 O   0  0  0  0  0  0  0  0  0  0  0  0
    0.3662    3.4236   -0.0625 O   0  0  0  0  0  0  0  0  0  0  0  0
   -3.3111    1.4003   -1.0638 O   0  0  0  0  0  0  0  0  0  0  0  0
   -3.0686    1.6382    1.2129 O   0  0  0  0  0  0  0  0  0  0  0  0
    3.3054    1.1992    0.2889 N   0  0  0  0  0  0  0  0  0  0  0  0
    1.1735   -1.8147   -0.3415 C   0  0  0  0  0  0  0  0  0  0  0  0
   -0.2993   -1.6853   -0.1314 C   0  0  0  0  0  0  0  0  0  0  0  0
   -0.9086   -0.4343   -0.0765 C   0  0  0  0  0  0  0  0  0  0  0  0
   -2.2834   -0.3299    0.1197 C   0  0  0  0  0  0  0  0  0  0  0  0
    1.2150    2.4901    0.6115 C   0  0  0  0  0  0  0  0  0  0  0  0
    0.3900    1.2577    0.9755 C   0  0  0  0  0  0  0  0  0  0  0  0
   -1.0697   -2.8393    0.0109 C   0  0  0  0  0  0  0  0  0  0  0  0
   -3.0538   -1.4838    0.2623 C   0  0  0  0  0  0  0  0  0  0  0  0
    1.5174   -2.5575   -1.6456 C   0  0  0  0  0  0  0  0  0  0  0  0
    1.8792   -2.4909    0.8483 C   0  0  0  0  0  0  0  0  0  0  0  0
   -2.4470   -2.7387    0.2080 C   0  0  0  0  0  0  0  0  0  0  0  0
    2.4018    2.1767   -0.3026 C   0  0  0  0  0  0  0  0  0  0  0  0
   -4.5308   -1.4076    0.4747 C   0  0  0  0  0  0  0  0  0  0  0  0
   -2.9143    0.9845    0.1759 C   0  0  0  0  0  0  0  0  0  0  0  0
    4.3941    0.8770   -0.6236 C   0  0  0  0  0  0  0  0  0  0  0  0
   -3.9453    2.6816   -1.1397 C   0  0  0  0  0  0  0  0  0  0  0  0
    5.2973   -0.1149   -0.0319 C   0  0  0  0  0  0  0  0  0  0  0  0
    6.0400   -0.9272    0.4478 C   0  0  0  0  0  0  0  0  0  0  0  0
  1  8  1  0
  1 11  1  0
  2 10  1  0
  3 19  1  0
  3 21  1  0
  4 19  2  0
  5 17  1  0
  5 20  1  0
  6  7  1  0
  6 14  1  0
  6 15  1  0
  7  8  2  0
  7 12  1  0
  8  9  1  0
  9 13  2  0
  9 19  1  0
 10 11  1  0
 10 17  1  0
 12 16  2  0
 13 16  1  0
 13 18  1  0
 20 22  1  0
 22 23  3  0
M  END
>  <PUBCHEM_COMPOUND_CID>  (1) 
40647

>  <PUBCHEM_CONFORMER_RMSD>  (1) 
0.8

>  <PUBCHEM_CONFORMER_DIVERSEORDER>  (1) 
1
66
72
84
81
97
41
87
28
108
39
64
94
3
104
86
9
54
106
89
20
40
74
102
93
31
46
62
98
42
107
47
91
45
92
60
95
29
2
35
82
105
51
71
99
16
100
90
70
78
58
44
96
22
88
23
57
69
7
101
77
27
19
83
26
85
65
24
38
50
68
18
48
34
43
80
103
13
21
33
79
53
67
10
5
63
11
75
32
61
73
17
30
15
4
25
49
59
37
55
8
12
52
14
36
6
76
56

>  <PUBCHEM_MMFF94_PARTIAL_CHARGES>  (1) 
26
1 -0.36
10 0.28
11 0.28
12 -0.15
13 -0.14
16 -0.15
17 0.27
18 0.14
19 0.63
2 -0.68
20 0.47
21 0.28
22 -0.2
23 -0.18
28 0.15
3 -0.43
35 0.15
4 -0.57
41 0.36
42 0.4
48 0.18
5 -0.9
6 0.14
7 -0.14
8 0.08
9 0.09

>  <PUBCHEM_EFFECTIVE_ROTOR_COUNT>  (1) 
9

>  <PUBCHEM_PHARMACOPHORE_FEATURES>  (1) 
9
1 1 acceptor
1 2 acceptor
1 2 donor
1 23 hydrophobe
1 4 acceptor
1 5 cation
1 5 donor
3 6 14 15 hydrophobe
6 7 8 9 12 13 16 rings

>  <PUBCHEM_HEAVY_ATOM_COUNT>  (1) 
23

>  <PUBCHEM_ATOM_DEF_STEREO_COUNT>  (1) 
0

>  <PUBCHEM_ATOM_UDEF_STEREO_COUNT>  (1) 
1

>  <PUBCHEM_BOND_DEF_STEREO_COUNT>  (1) 
0

>  <PUBCHEM_BOND_UDEF_STEREO_COUNT>  (1) 
0

>  <PUBCHEM_ISOTOPIC_ATOM_COUNT>  (1) 
0

>  <PUBCHEM_COMPONENT_COUNT>  (1) 
1

>  <PUBCHEM_CACTVS_TAUTO_COUNT>  (1) 
1

>  <PUBCHEM_CONFORMER_ID>  (1) 
00009EC700000001

>  <PUBCHEM_MMFF94_ENERGY>  (1) 
63.7604

>  <PUBCHEM_FEATURE_SELFOVERLAP>  (1) 
45.675

>  <PUBCHEM_SHAPE_FINGERPRINT>  (1) 
10693767 8 17482813955432938327
11578080 2 17168968003179383591
12403259 226 18124031497045804913
12403260 363 18270119157284105959
12592029 89 18336833086288504834
13140716 1 17907026419179846643
14251751 93 18262230122731846896
14790565 3 17836374747910275257
16945 1 18120354696014098643
19591789 44 18338517559597926370
20600515 1 17909260282872441826
20715895 44 17901097525785938676
20905425 154 18269843021479297478
21279426 13 18339645521548215206
2334 1 18411700967859752195
23559900 14 18196647625695145305
23566358 2 18342747286446357807
2748010 2 18340208488539047979
3004659 81 18260833726786872660
335352 9 18339927120730733207
350125 39 18410015446815232217
3680242 22 18337117765748733090
559249 180 18334570218718397034
59755656 215 18409448094404287983
6138700 20 18411705366312646606
81228 2 17335906686162742315

>  <PUBCHEM_SHAPE_MULTIPOLES>  (1) 
444.87
9.32
4.02
1.02
9.36
0.63
-0.18
0.59
0.11
-1.31
-0.36
-0.13
-0.01
0.74

>  <PUBCHEM_SHAPE_SELFOVERLAP>  (1) 
900.381

>  <PUBCHEM_SHAPE_VOLUME>  (1) 
260.3

>  <PUBCHEM_COORDINATE_TYPE>  (1) 
2
5
10

$$$$
