40655
     RDKit          3D

 23 23  0  0  0  0  0  0  0  0999 V2000
   -0.1010   -0.6181   -0.8577 O   0  0  0  0  0  0  0  0  0  0  0  0
    0.0828    2.4318    0.5195 O   0  0  0  0  0  0  0  0  0  0  0  0
    2.2566    0.0279   -1.7259 O   0  0  0  0  0  0  0  0  0  0  0  0
   -0.6518    2.6267   -1.6534 O   0  0  0  0  0  0  0  0  0  0  0  0
    3.4049   -0.4443    0.2362 N   0  0  0  0  0  0  0  0  0  0  0  0
   -1.8781   -2.7292   -0.1888 C   0  0  0  0  0  0  0  0  0  0  0  0
   -2.2290   -1.2888   -0.0092 C   0  0  0  0  0  0  0  0  0  0  0  0
   -1.3330   -0.2820   -0.3477 C   0  0  0  0  0  0  0  0  0  0  0  0
   -1.6696    1.0555   -0.1769 C   0  0  0  0  0  0  0  0  0  0  0  0
   -3.4803   -0.9532    0.5079 C   0  0  0  0  0  0  0  0  0  0  0  0
   -1.8582   -3.4993    1.1443 C   0  0  0  0  0  0  0  0  0  0  0  0
   -2.8074   -3.4393   -1.1903 C   0  0  0  0  0  0  0  0  0  0  0  0
   -2.9208    1.3911    0.3404 C   0  0  0  0  0  0  0  0  0  0  0  0
   -3.8262    0.3868    0.6830 C   0  0  0  0  0  0  0  0  0  0  0  0
    0.9497   -0.8050    0.0661 C   0  0  0  0  0  0  0  0  0  0  0  0
    2.2598   -0.3722   -0.5576 C   0  0  0  0  0  0  0  0  0  0  0  0
    4.6880   -0.0299   -0.3179 C   0  0  0  0  0  0  0  0  0  0  0  0
    3.4458   -0.8971    1.6244 C   0  0  0  0  0  0  0  0  0  0  0  0
   -3.3195    2.8173    0.5394 C   0  0  0  0  0  0  0  0  0  0  0  0
   -0.7199    2.1031   -0.5363 C   0  0  0  0  0  0  0  0  0  0  0  0
    5.4064   -1.1876   -0.9798 C   0  0  0  0  0  0  0  0  0  0  0  0
    3.2412    0.2526    2.5893 C   0  0  0  0  0  0  0  0  0  0  0  0
    1.0596    3.4533    0.2909 C   0  0  0  0  0  0  0  0  0  0  0  0
  1  8  1  0
  1 15  1  0
  2 20  1  0
  2 23  1  0
  3 16  2  0
  4 20  2  0
  5 16  1  0
  5 17  1  0
  5 18  1  0
  6  7  1  0
  6 11  1  0
  6 12  1  0
  7  8  2  0
  7 10  1  0
  8  9  1  0
  9 13  2  0
  9 20  1  0
 10 14  2  0
 13 14  1  0
 13 19  1  0
 15 16  1  0
 17 21  1  0
 18 22  1  0
M  END
>  <PUBCHEM_COMPOUND_CID>  (1) 
40655

>  <PUBCHEM_CONFORMER_RMSD>  (1) 
1

>  <PUBCHEM_CONFORMER_DIVERSEORDER>  (1) 
1
18
20
33
9
30
7
27
26
25
28
17
15
22
5
8
19
10
21
31
11
3
23
16
2
12
29
24
4
6
13
14
32

>  <PUBCHEM_MMFF94_PARTIAL_CHARGES>  (1) 
21
1 -0.36
10 -0.15
13 -0.14
14 -0.15
15 0.34
16 0.57
17 0.3
18 0.3
19 0.14
2 -0.43
20 0.63
23 0.28
25 0.15
3 -0.57
32 0.15
4 -0.57
5 -0.66
6 0.14
7 -0.14
8 0.08
9 0.09

>  <PUBCHEM_EFFECTIVE_ROTOR_COUNT>  (1) 
9

>  <PUBCHEM_PHARMACOPHORE_FEATURES>  (1) 
5
1 1 acceptor
1 3 acceptor
1 4 acceptor
3 6 11 12 hydrophobe
6 7 8 9 10 13 14 rings

>  <PUBCHEM_HEAVY_ATOM_COUNT>  (1) 
23

>  <PUBCHEM_ATOM_DEF_STEREO_COUNT>  (1) 
0

>  <PUBCHEM_ATOM_UDEF_STEREO_COUNT>  (1) 
0

>  <PUBCHEM_BOND_DEF_STEREO_COUNT>  (1) 
0

>  <PUBCHEM_BOND_UDEF_STEREO_COUNT>  (1) 
0

>  <PUBCHEM_ISOTOPIC_ATOM_COUNT>  (1) 
0

>  <PUBCHEM_COMPONENT_COUNT>  (1) 
1

>  <PUBCHEM_CACTVS_TAUTO_COUNT>  (1) 
1

>  <PUBCHEM_CONFORMER_ID>  (1) 
00009ECF00000001

>  <PUBCHEM_MMFF94_ENERGY>  (1) 
66.4902

>  <PUBCHEM_FEATURE_SELFOVERLAP>  (1) 
25.384

>  <PUBCHEM_SHAPE_FINGERPRINT>  (1) 
10366900 7 17916860223560823366
10369192 42 17127312151227658216
1100329 8 18339084890924339891
11552529 35 17917992827622127206
12011746 2 18340765949487419861
12236239 1 17749116564726546158
12403814 3 17676775266735079757
12553582 1 18261668272158580866
12633257 1 18342452642830801553
13083527 12 17693915785238556055
13140716 1 18123202448510445723
14081887 123 18271513252091999914
14787075 74 17971474259272484564
15042514 8 18338529637584662987
16945 1 18342461452330776205
20510252 161 18196376913848384420
20600515 1 18337972124458127540
20691752 17 17751067218497526904
20905425 154 17909280409152481357
21033648 29 17988639641009523969
21421861 104 17831020491855730347
21452121 199 17906725161499237907
2297311 6 18340504270093896718
23184049 29 18194686097161903471
2334 1 17763193831578235271
23366157 5 17899134102871750749
23419403 2 17335288030799905493
23557571 272 18272662225037721806
23559900 14 18271241737096774078
23598294 1 18334852771299259050
2748010 2 18051433789886432519
58807428 26 18120664530728163947
81228 2 18410852187764463631
90316 7 18115018602475090581

>  <PUBCHEM_SHAPE_MULTIPOLES>  (1) 
444.87
8.21
4.03
1.52
9.3
0.12
0.53
-2.49
0.65
-4.07
-0.18
1.42
-0.17
-0.06

>  <PUBCHEM_SHAPE_SELFOVERLAP>  (1) 
901.984

>  <PUBCHEM_SHAPE_VOLUME>  (1) 
261.7

>  <PUBCHEM_COORDINATE_TYPE>  (1) 
2
5
10

$$$$
