40651
     RDKit          3D

 26 27  0  0  1  0  0  0  0  0999 V2000
    0.7542   -0.6194   -0.3860 O   0  0  0  0  0  0  0  0  0  0  0  0
    0.0756   -3.3157   -0.3660 O   0  0  0  0  0  0  0  0  0  0  0  0
    3.9496   -1.4889   -0.8886 O   0  0  0  0  0  0  0  0  0  0  0  0
    3.4353   -1.7607    1.3387 O   0  0  0  0  0  0  0  0  0  0  0  0
   -2.7600   -0.9287   -0.2858 N   0  0  0  0  0  0  0  0  0  0  0  0
   -5.3896    0.0867    0.3563 N   0  0  0  0  0  0  0  0  0  0  0  0
   -3.6786   -0.4736   -1.3366 C   0  0  0  0  0  0  0  0  0  0  0  0
   -3.5127   -1.4371    0.8674 C   0  0  0  0  0  0  0  0  0  0  0  0
   -4.6378    0.5936   -0.7983 C   0  0  0  0  0  0  0  0  0  0  0  0
   -4.4709   -0.3693    1.4065 C   0  0  0  0  0  0  0  0  0  0  0  0
   -1.8471   -1.9477   -0.8000 C   0  0  0  0  0  0  0  0  0  0  0  0
   -0.7918   -2.3490    0.2335 C   0  0  0  0  0  0  0  0  0  0  0  0
    0.0531   -1.1746    0.7224 C   0  0  0  0  0  0  0  0  0  0  0  0
   -6.3009    1.1070    0.8708 C   0  0  0  0  0  0  0  0  0  0  0  0
    1.5551    0.4610   -0.1287 C   0  0  0  0  0  0  0  0  0  0  0  0
    1.0263    1.7462   -0.2173 C   0  0  0  0  0  0  0  0  0  0  0  0
   -0.4034    1.9654   -0.5889 C   0  0  0  0  0  0  0  0  0  0  0  0
    2.8905    0.2726    0.2189 C   0  0  0  0  0  0  0  0  0  0  0  0
    1.8381    2.8502    0.0433 C   0  0  0  0  0  0  0  0  0  0  0  0
    3.7023    1.3765    0.4797 C   0  0  0  0  0  0  0  0  0  0  0  0
   -0.5540    2.7545   -1.9024 C   0  0  0  0  0  0  0  0  0  0  0  0
   -1.2020    2.6559    0.5319 C   0  0  0  0  0  0  0  0  0  0  0  0
    3.1760    2.6653    0.3920 C   0  0  0  0  0  0  0  0  0  0  0  0
    3.4372   -1.0772    0.3094 C   0  0  0  0  0  0  0  0  0  0  0  0
    5.1388    1.2100    0.8555 C   0  0  0  0  0  0  0  0  0  0  0  0
    4.5164   -2.8029   -0.9278 C   0  0  0  0  0  0  0  0  0  0  0  0
  1 13  1  0
  1 15  1  0
  2 12  1  0
  3 24  1  0
  3 26  1  0
  4 24  2  0
  5  7  1  0
  5  8  1  0
  5 11  1  0
  6  9  1  0
  6 10  1  0
  6 14  1  0
  7  9  1  0
  8 10  1  0
 11 12  1  0
 12 13  1  0
 15 16  2  0
 15 18  1  0
 16 17  1  0
 16 19  1  0
 17 21  1  0
 17 22  1  0
 18 20  2  0
 18 24  1  0
 19 23  2  0
 20 23  1  0
 20 25  1  0
M  END
>  <PUBCHEM_COMPOUND_CID>  (1) 
40651

>  <PUBCHEM_CONFORMER_RMSD>  (1) 
1

>  <PUBCHEM_CONFORMER_DIVERSEORDER>  (1) 
1
27
50
7
71
49
32
69
48
59
26
44
14
57
54
40
15
29
53
46
19
6
56
62
67
66
51
33
30
68
4
55
16
10
43
5
58
75
61
47
22
9
3
20
74
31
45
42
37
2
35
64
38
8
41
17
28
18
52
13
60
73
72
39
11
25
21
36
23
63
24
34
65
12
70

>  <PUBCHEM_MMFF94_PARTIAL_CHARGES>  (1) 
27
1 -0.36
10 0.27
11 0.27
12 0.28
13 0.28
14 0.27
15 0.08
16 -0.14
17 0.14
18 0.09
19 -0.15
2 -0.68
20 -0.14
23 -0.15
24 0.63
25 0.14
26 0.28
3 -0.43
4 -0.57
44 0.4
45 0.15
5 -0.81
52 0.15
6 -0.81
7 0.27
8 0.27
9 0.27

>  <PUBCHEM_EFFECTIVE_ROTOR_COUNT>  (1) 
9.2

>  <PUBCHEM_PHARMACOPHORE_FEATURES>  (1) 
9
1 1 acceptor
1 2 acceptor
1 2 donor
1 4 acceptor
1 5 cation
1 6 cation
3 17 21 22 hydrophobe
6 15 16 18 19 20 23 rings
6 5 6 7 8 9 10 rings

>  <PUBCHEM_HEAVY_ATOM_COUNT>  (1) 
26

>  <PUBCHEM_ATOM_DEF_STEREO_COUNT>  (1) 
0

>  <PUBCHEM_ATOM_UDEF_STEREO_COUNT>  (1) 
1

>  <PUBCHEM_BOND_DEF_STEREO_COUNT>  (1) 
0

>  <PUBCHEM_BOND_UDEF_STEREO_COUNT>  (1) 
0

>  <PUBCHEM_ISOTOPIC_ATOM_COUNT>  (1) 
0

>  <PUBCHEM_COMPONENT_COUNT>  (1) 
1

>  <PUBCHEM_CACTVS_TAUTO_COUNT>  (1) 
1

>  <PUBCHEM_CONFORMER_ID>  (1) 
00009ECB00000001

>  <PUBCHEM_MMFF94_ENERGY>  (1) 
76.9673

>  <PUBCHEM_FEATURE_SELFOVERLAP>  (1) 
45.676

>  <PUBCHEM_SHAPE_FINGERPRINT>  (1) 
10906281 52 18188776196878412288
11135609 12 18334006165238072344
11513181 2 18131355240771877422
11578080 2 13768793311776650668
116883 192 18341330016195310326
12236239 1 17846498128430480755
12422481 6 18266468611730410705
12633257 1 18339348786135892200
12788726 201 17846232050163109889
13140716 1 18336825389543807147
13402501 40 18187921747441773237
14022347 108 17967255295295462698
14178342 30 17761765569920451586
15081414 286 18409731785294395212
15196674 1 18411138069598704889
15420108 30 17912348021477955882
1601671 61 18338236093570073788
17818456 19 17775012253946506435
1813 80 17167861980375808069
19591789 44 18194683670468334606
20028762 73 18130504133131303103
20511986 3 17917136299674349073
20739085 24 18334307456645494413
21033648 29 18199743807673536289
21279426 13 18264765468007923989
21421861 104 18041543794495087322
22182313 1 18262784195341522884
23184049 59 18409731789525805539
23559900 14 18272651285919600938
23566358 2 18337657643163999588
335352 9 18338794619786158804
34934 24 18339355392053926306
350125 39 18410575055242113408
3680242 22 18337110073203511905
5104073 3 18335695104454036067
57724786 102 18335989748127620589
59755656 215 18341897411825154356

>  <PUBCHEM_SHAPE_MULTIPOLES>  (1) 
501.63
11.2
3.73
1.24
8.41
0.12
-0.19
0.32
2.55
-2.67
-0.66
0.56
-0.13
0.72

>  <PUBCHEM_SHAPE_SELFOVERLAP>  (1) 
1026.494

>  <PUBCHEM_SHAPE_VOLUME>  (1) 
293.1

>  <PUBCHEM_COORDINATE_TYPE>  (1) 
2
5
10

$$$$
