40656
     RDKit          3D

 24 24  0  0  0  0  0  0  0  0999 V2000
   -0.5868   -0.3809   -0.5401 O   0  0  0  0  0  0  0  0  0  0  0  0
   -1.0271    2.3447   -1.2909 O   0  0  0  0  0  0  0  0  0  0  0  0
   -1.2380    2.9988    0.9062 O   0  0  0  0  0  0  0  0  0  0  0  0
    1.9722   -0.7094   -1.3086 O   0  0  0  0  0  0  0  0  0  0  0  0
    6.2748   -0.0660    0.3251 N   0  0  0  0  0  0  0  0  0  0  0  0
    2.7071   -0.9686    0.8842 N   0  0  0  0  0  0  0  0  0  0  0  0
   -2.2241   -2.6955   -0.3138 C   0  0  0  0  0  0  0  0  0  0  0  0
   -2.7320   -1.3196   -0.0327 C   0  0  0  0  0  0  0  0  0  0  0  0
   -1.8956   -0.2100   -0.1554 C   0  0  0  0  0  0  0  0  0  0  0  0
   -2.3882    1.0675    0.1114 C   0  0  0  0  0  0  0  0  0  0  0  0
   -4.0608   -1.1517    0.3568 C   0  0  0  0  0  0  0  0  0  0  0  0
   -2.9593   -3.3634   -1.4904 C   0  0  0  0  0  0  0  0  0  0  0  0
   -2.2816   -3.6072    0.9255 C   0  0  0  0  0  0  0  0  0  0  0  0
   -3.7170    1.2354    0.5011 C   0  0  0  0  0  0  0  0  0  0  0  0
   -4.5534    0.1257    0.6238 C   0  0  0  0  0  0  0  0  0  0  0  0
    4.8533    0.1587    0.5860 C   0  0  0  0  0  0  0  0  0  0  0  0
    4.1028   -1.1649    0.6013 C   0  0  0  0  0  0  0  0  0  0  0  0
    0.3649   -0.5820    0.4832 C   0  0  0  0  0  0  0  0  0  0  0  0
   -4.2728    2.5910    0.7939 C   0  0  0  0  0  0  0  0  0  0  0  0
   -1.5103    2.2255   -0.0183 C   0  0  0  0  0  0  0  0  0  0  0  0
    1.7503   -0.7555   -0.1016 C   0  0  0  0  0  0  0  0  0  0  0  0
    7.0669    1.0679    0.8002 C   0  0  0  0  0  0  0  0  0  0  0  0
    6.5038   -0.2873   -1.1021 C   0  0  0  0  0  0  0  0  0  0  0  0
   -0.1493    3.4469   -1.5446 C   0  0  0  0  0  0  0  0  0  0  0  0
  1  9  1  0
  1 18  1  0
  2 20  1  0
  2 24  1  0
  3 20  2  0
  4 21  2  0
  5 16  1  0
  5 22  1  0
  5 23  1  0
  6 17  1  0
  6 21  1  0
  7  8  1  0
  7 12  1  0
  7 13  1  0
  8  9  2  0
  8 11  1  0
  9 10  1  0
 10 14  2  0
 10 20  1  0
 11 15  2  0
 14 15  1  0
 14 19  1  0
 16 17  1  0
 18 21  1  0
M  END
>  <PUBCHEM_COMPOUND_CID>  (1) 
40656

>  <PUBCHEM_CONFORMER_RMSD>  (1) 
1

>  <PUBCHEM_CONFORMER_DIVERSEORDER>  (1) 
1
66
8
49
51
40
48
45
46
71
16
26
23
58
53
6
43
63
36
59
33
64
61
68
52
70
13
50
34
12
15
69
54
37
55
57
5
67
7
14
25
62
56
9
4
41
39
24
19
35
65
22
42
29
60
28
3
20
2
10
11
32
21
17
38
18
47
31
30
44
27

>  <PUBCHEM_MMFF94_PARTIAL_CHARGES>  (1) 
25
1 -0.36
10 0.09
11 -0.15
14 -0.14
15 -0.15
16 0.27
17 0.3
18 0.34
19 0.14
2 -0.43
20 0.63
21 0.57
22 0.27
23 0.27
24 0.28
26 0.15
3 -0.57
33 0.15
4 -0.57
43 0.37
5 -0.81
6 -0.73
7 0.14
8 -0.14
9 0.08

>  <PUBCHEM_EFFECTIVE_ROTOR_COUNT>  (1) 
10

>  <PUBCHEM_PHARMACOPHORE_FEATURES>  (1) 
7
1 1 acceptor
1 3 acceptor
1 4 acceptor
1 5 cation
1 6 donor
3 7 12 13 hydrophobe
6 8 9 10 11 14 15 rings

>  <PUBCHEM_HEAVY_ATOM_COUNT>  (1) 
24

>  <PUBCHEM_ATOM_DEF_STEREO_COUNT>  (1) 
0

>  <PUBCHEM_ATOM_UDEF_STEREO_COUNT>  (1) 
0

>  <PUBCHEM_BOND_DEF_STEREO_COUNT>  (1) 
0

>  <PUBCHEM_BOND_UDEF_STEREO_COUNT>  (1) 
0

>  <PUBCHEM_ISOTOPIC_ATOM_COUNT>  (1) 
0

>  <PUBCHEM_COMPONENT_COUNT>  (1) 
1

>  <PUBCHEM_CACTVS_TAUTO_COUNT>  (1) 
2

>  <PUBCHEM_CONFORMER_ID>  (1) 
00009ED000000001

>  <PUBCHEM_MMFF94_ENERGY>  (1) 
68.4264

>  <PUBCHEM_FEATURE_SELFOVERLAP>  (1) 
35.527

>  <PUBCHEM_SHAPE_FINGERPRINT>  (1) 
10366900 7 17916851461458417378
10411042 1 17981040031856939199
1100329 8 18337393859421422579
11578080 2 13109863535561212593
11595378 159 17895460441819132592
12107183 9 17615116695201791018
12390115 104 18057896757398601833
12616971 3 17240486922998957734
13140716 1 18123476231443523859
14341114 176 18411421683585180090
14844126 61 18337391668324119803
15183329 4 10879999060464613760
17844677 252 18272655692756565282
19377110 9 17967801744480437986
20600515 1 18339374010594924941
2297311 6 18342464746296632422
23402539 116 18335979856786243846
23557571 272 18343589542486355958
23559900 14 18271234036230949288
2748010 2 17471877814004408425
4073 2 18335143120591721394
43471831 8 17400647516044803009

>  <PUBCHEM_SHAPE_MULTIPOLES>  (1) 
460.47
13.25
3.99
1.2
31.72
0.19
-0.36
0.24
2.44
-5.55
-0.77
0.17
0.1
-0.65

>  <PUBCHEM_SHAPE_SELFOVERLAP>  (1) 
930.621

>  <PUBCHEM_SHAPE_VOLUME>  (1) 
271.4

>  <PUBCHEM_COORDINATE_TYPE>  (1) 
2
5
10

$$$$
