40657
     RDKit          3D

 26 26  0  0  0  0  0  0  0  0999 V2000
   -1.3594   -0.8551   -0.6704 O   0  0  0  0  0  0  0  0  0  0  0  0
   -0.5563    2.2181    0.4001 O   0  0  0  0  0  0  0  0  0  0  0  0
    1.2175   -0.9193   -1.4464 O   0  0  0  0  0  0  0  0  0  0  0  0
   -1.1660    2.3244   -1.8172 O   0  0  0  0  0  0  0  0  0  0  0  0
    5.4642   -0.3015    0.3253 N   0  0  0  0  0  0  0  0  0  0  0  0
    1.9485   -1.4746    0.6909 N   0  0  0  0  0  0  0  0  0  0  0  0
   -3.5732   -2.4517    0.1120 C   0  0  0  0  0  0  0  0  0  0  0  0
   -3.6069   -0.9588    0.1274 C   0  0  0  0  0  0  0  0  0  0  0  0
    4.0364   -0.1989    0.5978 C   0  0  0  0  0  0  0  0  0  0  0  0
   -2.5030   -0.2099   -0.2627 C   0  0  0  0  0  0  0  0  0  0  0  0
    3.3616   -1.5480    0.3982 C   0  0  0  0  0  0  0  0  0  0  0  0
    6.1268    0.9844    0.5522 C   0  0  0  0  0  0  0  0  0  0  0  0
    5.6966   -0.7562   -1.0470 C   0  0  0  0  0  0  0  0  0  0  0  0
   -2.5450    1.1790   -0.2449 C   0  0  0  0  0  0  0  0  0  0  0  0
   -4.7699   -0.3092    0.5413 C   0  0  0  0  0  0  0  0  0  0  0  0
   -4.6045   -3.0520   -0.8610 C   0  0  0  0  0  0  0  0  0  0  0  0
   -3.7618   -3.0577    1.5148 C   0  0  0  0  0  0  0  0  0  0  0  0
   -3.7079    1.8287    0.1690 C   0  0  0  0  0  0  0  0  0  0  0  0
   -4.8204    1.0845    0.5620 C   0  0  0  0  0  0  0  0  0  0  0  0
   -0.4027   -1.1600    0.3220 C   0  0  0  0  0  0  0  0  0  0  0  0
    5.9041    1.4817    1.9655 C   0  0  0  0  0  0  0  0  0  0  0  0
    7.1742   -0.9334   -1.3300 C   0  0  0  0  0  0  0  0  0  0  0  0
    0.9930   -1.1644   -0.2641 C   0  0  0  0  0  0  0  0  0  0  0  0
   -3.7919    3.3202    0.2019 C   0  0  0  0  0  0  0  0  0  0  0  0
   -1.3797    1.9538   -0.6580 C   0  0  0  0  0  0  0  0  0  0  0  0
    0.6257    2.9760    0.1212 C   0  0  0  0  0  0  0  0  0  0  0  0
  1 10  1  0
  1 20  1  0
  2 25  1  0
  2 26  1  0
  3 23  2  0
  4 25  2  0
  5  9  1  0
  5 12  1  0
  5 13  1  0
  6 11  1  0
  6 23  1  0
  7  8  1  0
  7 16  1  0
  7 17  1  0
  8 10  2  0
  8 15  1  0
  9 11  1  0
 10 14  1  0
 12 21  1  0
 13 22  1  0
 14 18  2  0
 14 25  1  0
 15 19  2  0
 18 19  1  0
 18 24  1  0
 20 23  1  0
M  END
>  <PUBCHEM_COMPOUND_CID>  (1) 
40657

>  <PUBCHEM_CONFORMER_RMSD>  (1) 
1

>  <PUBCHEM_CONFORMER_DIVERSEORDER>  (1) 
1
79
103
50
49
7
10
45
94
23
66
29
88
60
71
95
52
74
51
59
92
5
35
64
4
69
34
67
105
65
96
11
32
56
25
84
53
2
106
80
98
61
14
63
91
15
86
46
42
104
82
62
85
73
81
54
17
44
24
47
78
6
22
93
101
20
68
76
100
16
70
90
18
13
38
41
87
72
28
9
31
30
77
58
99
19
97
83
57
48
8
40
37
43
55
102
39
12
75
89
21
3
33
36
26
27

>  <PUBCHEM_MMFF94_PARTIAL_CHARGES>  (1) 
25
1 -0.36
10 0.08
11 0.3
12 0.27
13 0.27
14 0.09
15 -0.15
18 -0.14
19 -0.15
2 -0.43
20 0.34
23 0.57
24 0.14
25 0.63
26 0.28
3 -0.57
36 0.15
4 -0.57
43 0.15
44 0.37
5 -0.81
6 -0.73
7 0.14
8 -0.14
9 0.27

>  <PUBCHEM_EFFECTIVE_ROTOR_COUNT>  (1) 
12

>  <PUBCHEM_PHARMACOPHORE_FEATURES>  (1) 
7
1 1 acceptor
1 3 acceptor
1 4 acceptor
1 5 cation
1 6 donor
3 7 16 17 hydrophobe
6 8 10 14 15 18 19 rings

>  <PUBCHEM_HEAVY_ATOM_COUNT>  (1) 
26

>  <PUBCHEM_ATOM_DEF_STEREO_COUNT>  (1) 
0

>  <PUBCHEM_ATOM_UDEF_STEREO_COUNT>  (1) 
0

>  <PUBCHEM_BOND_DEF_STEREO_COUNT>  (1) 
0

>  <PUBCHEM_BOND_UDEF_STEREO_COUNT>  (1) 
0

>  <PUBCHEM_ISOTOPIC_ATOM_COUNT>  (1) 
0

>  <PUBCHEM_COMPONENT_COUNT>  (1) 
1

>  <PUBCHEM_CACTVS_TAUTO_COUNT>  (1) 
2

>  <PUBCHEM_CONFORMER_ID>  (1) 
00009ED100000001

>  <PUBCHEM_MMFF94_ENERGY>  (1) 
67.9824

>  <PUBCHEM_FEATURE_SELFOVERLAP>  (1) 
35.528

>  <PUBCHEM_SHAPE_FINGERPRINT>  (1) 
10290309 65 18118401744172312079
10411042 1 18194406821868623851
10670039 82 18260269638577583790
10864689 126 18267582408303387616
11578080 2 13397811337250842641
13140716 1 18337402651330227859
13402501 40 18342454838160606088
13782708 43 18131918165647032782
14341114 328 18113898226270204570
14787075 74 18114180869446500994
15021287 119 14117800215366407770
15183329 4 11455892460182772888
17349148 13 16877948243595643814
17844677 252 18272374191751808738
18608769 82 18411419514906348268
18927931 339 18410299129094565927
19377110 9 17748818605997806330
21033648 29 17846203480383093498
21304303 282 13552844671025873367
23557571 272 18342465798373690110
2747138 104 18263370350560418915
392239 28 18408603694906408568
469060 322 17458336442917148612
5104073 3 18335976476884372522

>  <PUBCHEM_SHAPE_MULTIPOLES>  (1) 
501.63
15.54
3.68
1.28
27.56
0.91
0.02
-2.76
1.25
-5.19
0.16
1.18
-0.06
1.59

>  <PUBCHEM_SHAPE_SELFOVERLAP>  (1) 
1009.494

>  <PUBCHEM_SHAPE_VOLUME>  (1) 
296.8

>  <PUBCHEM_COORDINATE_TYPE>  (1) 
2
5
10

$$$$
