40660
     RDKit          3D

 17 17  0  0  0  0  0  0  0  0999 V2000
    1.0768   -0.5895    0.6399 O   0  0  0  0  0  0  0  0  0  0  0  0
   -1.6947   -2.2502    1.5364 O   0  0  0  0  0  0  0  0  0  0  0  0
   -1.1723   -2.8042   -0.6053 O   0  0  0  0  0  0  0  0  0  0  0  0
    1.4043    2.2048    0.2575 C   0  0  0  0  0  0  0  0  0  0  0  0
    0.1006    1.5073    0.0484 C   0  0  0  0  0  0  0  0  0  0  0  0
   -0.0137    0.1313    0.2470 C   0  0  0  0  0  0  0  0  0  0  0  0
   -1.2397   -0.5030    0.0457 C   0  0  0  0  0  0  0  0  0  0  0  0
   -1.0110    2.2491   -0.3513 C   0  0  0  0  0  0  0  0  0  0  0  0
    1.3348    3.2544    1.3818 C   0  0  0  0  0  0  0  0  0  0  0  0
    1.9364    2.8541   -1.0333 C   0  0  0  0  0  0  0  0  0  0  0  0
   -2.3513    0.2389   -0.3541 C   0  0  0  0  0  0  0  0  0  0  0  0
   -2.2368    1.6149   -0.5526 C   0  0  0  0  0  0  0  0  0  0  0  0
    1.8971   -1.1327   -0.3910 C   0  0  0  0  0  0  0  0  0  0  0  0
    3.0372   -1.9117    0.2470 C   0  0  0  0  0  0  0  0  0  0  0  0
   -3.6777   -0.4119   -0.5773 C   0  0  0  0  0  0  0  0  0  0  0  0
   -1.3555   -1.9421    0.2564 C   0  0  0  0  0  0  0  0  0  0  0  0
    3.9653   -2.5095   -0.7951 C   0  0  0  0  0  0  0  0  0  0  0  0
  1  6  1  0
  1 13  1  0
  2 16  1  0
  3 16  2  0
  4  5  1  0
  4  9  1  0
  4 10  1  0
  5  6  2  0
  5  8  1  0
  6  7  1  0
  7 11  2  0
  7 16  1  0
  8 12  2  0
 11 12  1  0
 11 15  1  0
 13 14  1  0
 14 17  1  0
M  END
>  <PUBCHEM_COMPOUND_CID>  (1) 
40660

>  <PUBCHEM_CONFORMER_RMSD>  (1) 
0.6

>  <PUBCHEM_CONFORMER_DIVERSEORDER>  (1) 
1
11
6
12
5
3
8
9
7
10
2
4

>  <PUBCHEM_MMFF94_PARTIAL_CHARGES>  (1) 
16
1 -0.36
11 -0.14
12 -0.15
13 0.28
15 0.14
16 0.63
19 0.15
2 -0.65
26 0.15
3 -0.57
37 0.5
4 0.14
5 -0.14
6 0.08
7 0.09
8 -0.15

>  <PUBCHEM_EFFECTIVE_ROTOR_COUNT>  (1) 
5

>  <PUBCHEM_PHARMACOPHORE_FEATURES>  (1) 
7
1 1 acceptor
1 17 hydrophobe
1 2 acceptor
1 3 acceptor
3 2 3 16 anion
3 4 9 10 hydrophobe
6 5 6 7 8 11 12 rings

>  <PUBCHEM_HEAVY_ATOM_COUNT>  (1) 
17

>  <PUBCHEM_ATOM_DEF_STEREO_COUNT>  (1) 
0

>  <PUBCHEM_ATOM_UDEF_STEREO_COUNT>  (1) 
0

>  <PUBCHEM_BOND_DEF_STEREO_COUNT>  (1) 
0

>  <PUBCHEM_BOND_UDEF_STEREO_COUNT>  (1) 
0

>  <PUBCHEM_ISOTOPIC_ATOM_COUNT>  (1) 
0

>  <PUBCHEM_COMPONENT_COUNT>  (1) 
1

>  <PUBCHEM_CACTVS_TAUTO_COUNT>  (1) 
1

>  <PUBCHEM_CONFORMER_ID>  (1) 
00009ED400000001

>  <PUBCHEM_MMFF94_ENERGY>  (1) 
53.8549

>  <PUBCHEM_FEATURE_SELFOVERLAP>  (1) 
35.578

>  <PUBCHEM_SHAPE_FINGERPRINT>  (1) 
108231 29 18268143167322016336
10967382 1 18337949107596336909
11680986 33 18335702814299931915
12524768 44 18264478658633994737
13140716 1 18121209046207528544
13380535 21 18191594266232881601
13380535 76 17974831072208063377
14178342 30 17908140233011645753
14790565 3 17763472716384601144
16945 1 18121775303771239429
193761 8 18337668740821233485
20028762 73 16109258013783112774
20510252 161 17980477859017343602
20588541 1 18118958342106388517
20600515 1 18191282919916980728
20871999 31 18264770948137981502
21029758 11 18269265785895015164
21029758 27 18189910720298525653
21501502 16 18193267718487735239
22182313 1 18115847699252408573
22802520 49 18263367052146191739
2334 1 17760081117864228856
23402539 116 18051684456725235878
23419403 2 18051657054755013124
23557571 272 18270403764152058838
23559900 14 17838042720841672986
2748010 2 18261656122302690565
3071541 250 18411703170745490933
3250762 1 18337387261496795091
353137 74 17328862097772696092
43471831 8 17832979821365189800
589210 1 18338234997830946430
7364860 26 18342169024834312192
81228 2 17979646641153851346

>  <PUBCHEM_SHAPE_MULTIPOLES>  (1) 
332.24
4.86
4.19
1.04
3.15
2.09
0.2
-3.6
-1.45
1.22
0.49
0.11
0.21
0.52

>  <PUBCHEM_SHAPE_SELFOVERLAP>  (1) 
678.714

>  <PUBCHEM_SHAPE_VOLUME>  (1) 
194.1

>  <PUBCHEM_COORDINATE_TYPE>  (1) 
2
5
10

$$$$
