40664
     RDKit          3D

 15 15  0  0  1  0  0  0  0  0999 V2000
   -0.1073    1.4205    1.6474 O   0  0  0  0  0  0  0  0  0  0  0  0
    3.3390   -0.6092    0.0157 N   0  0  0  0  0  0  0  0  0  0  0  0
    1.0778    0.4051   -0.1979 C   0  0  0  0  0  0  0  0  0  0  0  0
    2.0992   -0.2964    0.7178 C   0  0  0  0  0  0  0  0  0  0  0  0
    1.6391    1.7076   -0.7982 C   0  0  0  0  0  0  0  0  0  0  0  0
   -0.1610    0.7031    0.6496 C   0  0  0  0  0  0  0  0  0  0  0  0
    0.6334    2.4297   -1.6859 C   0  0  0  0  0  0  0  0  0  0  0  0
   -1.4582    0.0732    0.2950 C   0  0  0  0  0  0  0  0  0  0  0  0
    3.0839   -1.5281   -1.0948 C   0  0  0  0  0  0  0  0  0  0  0  0
    4.3209   -1.1847    0.9360 C   0  0  0  0  0  0  0  0  0  0  0  0
   -1.4535   -1.1645   -0.3148 C   0  0  0  0  0  0  0  0  0  0  0  0
   -2.6275    0.7451    0.5870 C   0  0  0  0  0  0  0  0  0  0  0  0
   -2.6720   -1.7564   -0.6477 C   0  0  0  0  0  0  0  0  0  0  0  0
   -3.8459    0.1530    0.2541 C   0  0  0  0  0  0  0  0  0  0  0  0
   -3.8680   -1.0978   -0.3632 C   0  0  0  0  0  0  0  0  0  0  0  0
  1  6  2  0
  2  4  1  0
  2  9  1  0
  2 10  1  0
  3  4  1  0
  3  5  1  0
  3  6  1  0
  5  7  1  0
  6  8  1  0
  8 11  2  0
  8 12  1  0
 11 13  1  0
 12 14  2  0
 13 15  2  0
 14 15  1  0
M  END
>  <PUBCHEM_COMPOUND_CID>  (1) 
40664

>  <PUBCHEM_CONFORMER_RMSD>  (1) 
0.6

>  <PUBCHEM_CONFORMER_DIVERSEORDER>  (1) 
2
42
33
9
45
27
51
47
37
31
50
39
11
43
5
3
46
16
18
32
7
41
35
36
24
6
40
52
14
30
28
44
12
29
22
49
13
26
48
4
25
8
38
23
1
34
19
10
21
20
15
17

>  <PUBCHEM_MMFF94_PARTIAL_CHARGES>  (1) 
18
1 -0.57
10 0.27
11 -0.15
12 -0.15
13 -0.15
14 -0.15
15 -0.15
2 -0.81
3 0.06
30 0.15
31 0.15
32 0.15
33 0.15
34 0.15
4 0.27
6 0.42
8 0.09
9 0.27

>  <PUBCHEM_EFFECTIVE_ROTOR_COUNT>  (1) 
5

>  <PUBCHEM_PHARMACOPHORE_FEATURES>  (1) 
4
1 1 acceptor
1 2 cation
1 7 hydrophobe
6 8 11 12 13 14 15 rings

>  <PUBCHEM_HEAVY_ATOM_COUNT>  (1) 
15

>  <PUBCHEM_ATOM_DEF_STEREO_COUNT>  (1) 
0

>  <PUBCHEM_ATOM_UDEF_STEREO_COUNT>  (1) 
1

>  <PUBCHEM_BOND_DEF_STEREO_COUNT>  (1) 
0

>  <PUBCHEM_BOND_UDEF_STEREO_COUNT>  (1) 
0

>  <PUBCHEM_ISOTOPIC_ATOM_COUNT>  (1) 
0

>  <PUBCHEM_COMPONENT_COUNT>  (1) 
1

>  <PUBCHEM_CACTVS_TAUTO_COUNT>  (1) 
2

>  <PUBCHEM_CONFORMER_ID>  (1) 
00009ED800000002

>  <PUBCHEM_MMFF94_ENERGY>  (1) 
38.2788

>  <PUBCHEM_FEATURE_SELFOVERLAP>  (1) 
20.297

>  <PUBCHEM_SHAPE_FINGERPRINT>  (1) 
10062212 137 18343861126296276415
10130415 120 18273218616328175179
10465860 250 17846491526205832779
10465860 71 18337406971281201254
10618630 7 18130791135567159134
10922523 26 18411136935463588285
11578080 2 18266434590931059560
11769659 78 18413103978608009922
12119455 92 14189286024481133192
12251169 10 15913318113624173578
12932764 1 15792279518847559067
14115302 16 18343024415026681009
14181834 199 18263368134731456964
14350558 41 18201725067275790470
16945 1 18270964527075472385
17834072 14 17774999072586327675
1813 80 18334303028565536086
18186145 218 16225764146692955297
18511873 20 18411140225398071811
19422 9 18337114587414632051
20279233 1 16200157607851435805
20339313 130 18260552255108278957
20361792 2 18113900442320302758
204376 136 12535336926683086544
20626108 58 18335968870138633466
20645476 183 18194413418257265975
20671657 53 18186800283608074862
20711985 327 18333729113602773316
21501925 9 18131627906759886210
2255824 54 18114748247437260390
232386 152 17988925612637358895
23402539 116 18040990692733084378
23419403 2 18053629634465778376
23463225 33 18343868822513459671
23557571 272 18336545998448648044
23559900 14 17775006722550855250
23598291 2 18335996314963668261
449060 23 18340209596471844258
6992083 37 18337685100468228289
7364860 26 18269274749655578056
74978 22 18041283282731774611
81228 2 17897735249683236952
9981440 41 17397827259555286233

>  <PUBCHEM_SHAPE_MULTIPOLES>  (1) 
297.84
7.05
2.08
1.27
0.57
0.79
-0.03
-4.12
0.3
0.66
-0.88
0.49
0.41
-0.82

>  <PUBCHEM_SHAPE_SELFOVERLAP>  (1) 
600.093

>  <PUBCHEM_SHAPE_VOLUME>  (1) 
176.3

>  <PUBCHEM_COORDINATE_TYPE>  (1) 
2
5
10

$$$$
