4066
     RDKit          3D

 23 27  0  0  1  0  0  0  0  0999 V2000
    2.9770   -0.1951   -1.4325 S   0  0  0  0  0  0  0  0  0  0  0  0
   -3.1863    0.7000   -1.4349 N   0  0  0  0  0  0  0  0  0  0  0  0
    0.6434    0.0070    0.6115 N   0  0  0  0  0  0  0  0  0  0  0  0
   -3.1751   -0.3908    0.9259 C   0  0  0  0  0  0  0  0  0  0  0  0
   -1.7640   -0.4238    0.2951 C   0  0  0  0  0  0  0  0  0  0  0  0
   -1.8033    0.3361   -1.0503 C   0  0  0  0  0  0  0  0  0  0  0  0
   -3.6838    1.0591    0.9868 C   0  0  0  0  0  0  0  0  0  0  0  0
   -4.1108   -1.1505   -0.0321 C   0  0  0  0  0  0  0  0  0  0  0  0
   -3.7146    1.6503   -0.4317 C   0  0  0  0  0  0  0  0  0  0  0  0
   -4.0274   -0.5164   -1.4306 C   0  0  0  0  0  0  0  0  0  0  0  0
   -0.6909    0.1225    1.2141 C   0  0  0  0  0  0  0  0  0  0  0  0
    1.3588    1.2080    0.3743 C   0  0  0  0  0  0  0  0  0  0  0  0
    1.1416   -1.2991    0.3742 C   0  0  0  0  0  0  0  0  0  0  0  0
    2.4527    1.2383   -0.5133 C   0  0  0  0  0  0  0  0  0  0  0  0
    2.2138   -1.5170   -0.5137 C   0  0  0  0  0  0  0  0  0  0  0  0
    1.0372    2.4133    1.0360 C   0  0  0  0  0  0  0  0  0  0  0  0
    0.6178   -2.4310    1.0363 C   0  0  0  0  0  0  0  0  0  0  0  0
    3.1637    2.4304   -0.7391 C   0  0  0  0  0  0  0  0  0  0  0  0
    2.7088   -2.8136   -0.7399 C   0  0  0  0  0  0  0  0  0  0  0  0
    1.7502    3.5942    0.8116 C   0  0  0  0  0  0  0  0  0  0  0  0
    1.1171   -3.7169    0.8116 C   0  0  0  0  0  0  0  0  0  0  0  0
    2.8126    3.6035   -0.0793 C   0  0  0  0  0  0  0  0  0  0  0  0
    2.1614   -3.9088   -0.0800 C   0  0  0  0  0  0  0  0  0  0  0  0
  1 14  1  0
  1 15  1  0
  2  6  1  0
  2  9  1  0
  2 10  1  0
  3 11  1  0
  3 12  1  0
  3 13  1  0
  4  5  1  0
  4  7  1  0
  4  8  1  0
  5  6  1  0
  5 11  1  0
  7  9  1  0
  8 10  1  0
 12 14  2  0
 12 16  1  0
 13 15  2  0
 13 17  1  0
 14 18  1  0
 15 19  1  0
 16 20  2  0
 17 21  2  0
 18 22  2  0
 19 23  2  0
 20 22  1  0
 21 23  1  0
M  END
>  <PUBCHEM_COMPOUND_CID>  (1) 
4066

>  <PUBCHEM_CONFORMER_RMSD>  (1) 
0.6

>  <PUBCHEM_CONFORMER_DIVERSEORDER>  (1) 
1
2
3

>  <PUBCHEM_MMFF94_PARTIAL_CHARGES>  (1) 
27
1 -0.2
10 0.27
11 0.37
12 0.1
13 0.1
14 0.1
15 0.1
16 -0.15
17 -0.15
18 -0.15
19 -0.15
2 -0.81
20 -0.15
21 -0.15
22 -0.15
23 -0.15
3 -0.57
38 0.15
39 0.15
40 0.15
41 0.15
42 0.15
43 0.15
44 0.15
45 0.15
6 0.27
9 0.27

>  <PUBCHEM_EFFECTIVE_ROTOR_COUNT>  (1) 
3.6

>  <PUBCHEM_PHARMACOPHORE_FEATURES>  (1) 
6
1 2 cation
1 3 cation
6 1 3 12 13 14 15 rings
6 12 14 16 18 20 22 rings
6 13 15 17 19 21 23 rings
8 2 4 5 6 7 8 9 10 rings

>  <PUBCHEM_HEAVY_ATOM_COUNT>  (1) 
23

>  <PUBCHEM_ATOM_DEF_STEREO_COUNT>  (1) 
0

>  <PUBCHEM_ATOM_UDEF_STEREO_COUNT>  (1) 
1

>  <PUBCHEM_BOND_DEF_STEREO_COUNT>  (1) 
0

>  <PUBCHEM_BOND_UDEF_STEREO_COUNT>  (1) 
0

>  <PUBCHEM_ISOTOPIC_ATOM_COUNT>  (1) 
0

>  <PUBCHEM_COMPONENT_COUNT>  (1) 
1

>  <PUBCHEM_CACTVS_TAUTO_COUNT>  (1) 
1

>  <PUBCHEM_CONFORMER_ID>  (1) 
00000FE200000001

>  <PUBCHEM_MMFF94_ENERGY>  (1) 
88.9246

>  <PUBCHEM_FEATURE_SELFOVERLAP>  (1) 
30.479

>  <PUBCHEM_SHAPE_FINGERPRINT>  (1) 
10165383 225 17901703597131688812
104564 63 17331960521497759179
105312 117 17975706296544614460
10764073 3 16815115418997417424
1100329 8 17545043697650017616
11265709 11 17977950081743232698
11370993 70 18193837269684675244
11578080 2 17485059931043460888
116883 192 17477204925295437182
121448 382 17767104776730727605
12553582 1 18051416158465771443
12730499 353 18335989782734980099
12788726 201 17328300243041457050
13004483 165 17617085911272752762
13009979 54 17488189192517404155
13134695 92 18193268598929852438
13149001 5 18053410913561541998
13533116 47 18411978053959888439
13681431 1 18266446621070190674
13911987 19 18190204325028382422
14713325 29 17401210470256547760
15502722 9 18410855477339705511
1813 80 17842283562062867375
18335252 114 17761195628547217789
19930381 70 18338239374745726913
20567600 347 18193264406878266874
20775438 99 17687692352595295405
21304303 282 16974436070942631388
21524375 3 18117835731896237240
22112679 90 17768828471818848394
2255824 54 18413387635449433286
22907989 373 17112138993152194716
23114952 82 18334288743388472861
23419403 2 17319346056820992402
23557571 272 17313961838996144251
23559900 14 18339344285442780099
238 59 18338508741972246903
25 1 18339932626799886520
312423 11 18202280287005510263
350125 39 18192438691026117058
4409770 3 17186990437767451702
621550 34 18262525926310170915
6287921 2 18115325486831239453
633830 44 18200328726316493701
6438718 38 16977011766961258668
6442390 28 18049449437137538931
6443956 14 18265053535890912584
7164475 11 17401489247756562574
7364860 26 18410571764664032114
7399639 24 18189903204590963521
7471813 234 18122341268728373166
81228 2 17400915302522749114
84936 182 18341334469623144448
9981440 41 18194673993638368905

>  <PUBCHEM_SHAPE_MULTIPOLES>  (1) 
467.22
7.03
4.75
1.33
7.45
1.1
-0.19
-1.58
-2.2
-6.25
0.97
0.41
-0.03
0.19

>  <PUBCHEM_SHAPE_SELFOVERLAP>  (1) 
1017.46

>  <PUBCHEM_SHAPE_VOLUME>  (1) 
254.3

>  <PUBCHEM_COORDINATE_TYPE>  (1) 
2
5
10

$$$$
