40677
     RDKit          3D

  5  4  0  0  0  0  0  0  0  0999 V2000
    0.0907    0.0106    0.0070 S   0  0  0  0  0  0  0  0  0  0  0  0
    0.6538   -1.3523    0.6722 O   0  0  0  0  0  0  0  0  0  0  0  0
    0.3056    1.3108    0.9455 O   0  0  0  0  0  0  0  0  0  0  0  0
    0.6119    0.2348   -1.5082 O   0  0  0  0  0  0  0  0  0  0  0  0
   -1.6619   -0.2039   -0.1166 C   0  0  0  0  0  0  0  0  0  0  0  0
  1  2  1  0
  1  3  1  0
  1  4  1  0
  1  5  1  0
M  END
>  <PUBCHEM_COMPOUND_CID>  (1) 
40677

>  <PUBCHEM_CONFORMER_RMSD>  (1) 
0.4

>  <PUBCHEM_CONFORMER_DIVERSEORDER>  (1) 
1

>  <PUBCHEM_MMFF94_PARTIAL_CHARGES>  (1) 
8
1 0.45
10 0.5
11 0.5
2 -0.68
3 -0.68
4 -0.68
5 0.11
9 0.5

>  <PUBCHEM_EFFECTIVE_ROTOR_COUNT>  (1) 
0

>  <PUBCHEM_PHARMACOPHORE_FEATURES>  (1) 
4
1 2 acceptor
1 3 acceptor
1 4 acceptor
4 1 2 3 4 anion

>  <PUBCHEM_HEAVY_ATOM_COUNT>  (1) 
5

>  <PUBCHEM_ATOM_DEF_STEREO_COUNT>  (1) 
0

>  <PUBCHEM_ATOM_UDEF_STEREO_COUNT>  (1) 
0

>  <PUBCHEM_BOND_DEF_STEREO_COUNT>  (1) 
0

>  <PUBCHEM_BOND_UDEF_STEREO_COUNT>  (1) 
0

>  <PUBCHEM_ISOTOPIC_ATOM_COUNT>  (1) 
0

>  <PUBCHEM_COMPONENT_COUNT>  (1) 
1

>  <PUBCHEM_CACTVS_TAUTO_COUNT>  (1) 
1

>  <PUBCHEM_CONFORMER_ID>  (1) 
00009EE500000001

>  <PUBCHEM_MMFF94_ENERGY>  (1) 
16.161

>  <PUBCHEM_FEATURE_SELFOVERLAP>  (1) 
20.318

>  <PUBCHEM_SHAPE_FINGERPRINT>  (1) 
139733 1 10183747774123234425
20096714 4 11778766768077333339
21015797 1 13282204569293860029
5943 1 11073146526360563335

>  <PUBCHEM_SHAPE_MULTIPOLES>  (1) 
89.14
1.36
1.18
1.18
0.89
0.1
-0.45
0
0
-0.34
0.46
-0.34
-0.11
0

>  <PUBCHEM_SHAPE_SELFOVERLAP>  (1) 
138.923

>  <PUBCHEM_SHAPE_VOLUME>  (1) 
64.9

>  <PUBCHEM_COORDINATE_TYPE>  (1) 
2
5
10

$$$$
