40670
     RDKit          3D

 16 16  0  0  0  0  0  0  0  0999 V2000
   -0.2123    0.5153   -0.0354 N   0  0  0  0  0  0  0  0  0  0  0  0
    2.2523    0.5399    0.3603 C   0  0  0  0  0  0  0  0  0  0  0  0
    2.2387   -0.9461    0.7914 C   0  0  0  0  0  0  0  0  0  0  0  0
    3.5794    0.9855   -0.2960 C   0  0  0  0  0  0  0  0  0  0  0  0
    1.0831    0.9092   -0.5791 C   0  0  0  0  0  0  0  0  0  0  0  0
    2.3927   -1.9555   -0.3494 C   0  0  0  0  0  0  0  0  0  0  0  0
    4.8107    0.7698    0.5871 C   0  0  0  0  0  0  0  0  0  0  0  0
   -1.2866    0.8572   -0.9564 C   0  0  0  0  0  0  0  0  0  0  0  0
    2.2941   -3.3852    0.1635 C   0  0  0  0  0  0  0  0  0  0  0  0
    6.0835    1.2110   -0.1201 C   0  0  0  0  0  0  0  0  0  0  0  0
   -2.6345    0.4539   -0.4203 C   0  0  0  0  0  0  0  0  0  0  0  0
   -3.1343   -0.8086   -0.7076 C   0  0  0  0  0  0  0  0  0  0  0  0
   -3.3581    1.3501    0.3539 C   0  0  0  0  0  0  0  0  0  0  0  0
   -4.3829   -1.1825   -0.2108 C   0  0  0  0  0  0  0  0  0  0  0  0
   -4.6067    0.9762    0.8507 C   0  0  0  0  0  0  0  0  0  0  0  0
   -5.1191   -0.2902    0.5683 C   0  0  0  0  0  0  0  0  0  0  0  0
  1  5  1  0
  1  8  1  0
  2  3  1  0
  2  4  1  0
  2  5  1  0
  3  6  1  0
  4  7  1  0
  6  9  1  0
  7 10  1  0
  8 11  1  0
 11 12  2  0
 11 13  1  0
 12 14  1  0
 13 15  2  0
 14 16  2  0
 15 16  1  0
M  END
>  <PUBCHEM_COMPOUND_CID>  (1) 
40670

>  <PUBCHEM_CONFORMER_RMSD>  (1) 
0.8

>  <PUBCHEM_CONFORMER_DIVERSEORDER>  (1) 
1
55
39
70
6
52
68
58
69
10
46
60
37
25
63
16
48
29
4
50
11
26
5
67
49
14
66
20
59
51
8
40
45
64
65
19
13
2
56
38
28
32
43
34
44
9
24
41
62
54
18
22
31
12
23
61
42
47
7
17
35
36
15
30
53
27
57
3
33
21

>  <PUBCHEM_MMFF94_PARTIAL_CHARGES>  (1) 
15
1 -0.9
11 -0.14
12 -0.15
13 -0.15
14 -0.15
15 -0.15
16 -0.15
28 0.36
37 0.15
38 0.15
39 0.15
40 0.15
41 0.15
5 0.27
8 0.41

>  <PUBCHEM_EFFECTIVE_ROTOR_COUNT>  (1) 
8

>  <PUBCHEM_PHARMACOPHORE_FEATURES>  (1) 
6
1 1 cation
1 1 donor
1 10 hydrophobe
1 9 hydrophobe
5 2 3 4 6 7 hydrophobe
6 11 12 13 14 15 16 rings

>  <PUBCHEM_HEAVY_ATOM_COUNT>  (1) 
16

>  <PUBCHEM_ATOM_DEF_STEREO_COUNT>  (1) 
0

>  <PUBCHEM_ATOM_UDEF_STEREO_COUNT>  (1) 
0

>  <PUBCHEM_BOND_DEF_STEREO_COUNT>  (1) 
0

>  <PUBCHEM_BOND_UDEF_STEREO_COUNT>  (1) 
0

>  <PUBCHEM_ISOTOPIC_ATOM_COUNT>  (1) 
0

>  <PUBCHEM_COMPONENT_COUNT>  (1) 
1

>  <PUBCHEM_CACTVS_TAUTO_COUNT>  (1) 
1

>  <PUBCHEM_CONFORMER_ID>  (1) 
00009EDE00000001

>  <PUBCHEM_MMFF94_ENERGY>  (1) 
20.1712

>  <PUBCHEM_FEATURE_SELFOVERLAP>  (1) 
30.446

>  <PUBCHEM_SHAPE_FINGERPRINT>  (1) 
10366900 7 18201145650723607707
10616163 171 18339924934650856439
11545043 162 13542174034947222941
12107183 9 17694228764058729481
12596602 18 17632300090047317611
13533116 47 18272080562233824183
13583140 156 18200863033396892277
13631057 29 18199463453857895143
13760787 19 18131630084408402165
13911882 115 18335713757644935466
1420 363 16950281814973035256
14252887 29 18187087221725287120
14863182 85 18260274040618511742
1813 80 17313396586697471029
192875 21 7925913698817082054
20279233 1 16298386855432230953
20645477 70 18190162521573262775
21054139 6 18340198717172120766
21065198 48 18272933787272059169
21065199 12 18338519642941953465
21618674 57 12967134917066753564
21673915 165 18410009966094623175
22224240 67 18338792424862600608
23402539 116 16878215424499291340
23557571 272 14635134712194202023
300161 21 18410851049724561861
33824 294 18335701620425870994
3421961 26 18265895744481367530
351380 180 9151172047613684067
474229 33 18261388996837602090
5104073 3 18338242548905582601

>  <PUBCHEM_SHAPE_MULTIPOLES>  (1) 
324.29
12.77
2.29
0.9
1.59
2.57
0
-3.11
-1.94
2.13
-0.04
-0.28
-0.06
-0.45

>  <PUBCHEM_SHAPE_SELFOVERLAP>  (1) 
630.663

>  <PUBCHEM_SHAPE_VOLUME>  (1) 
195.9

>  <PUBCHEM_COORDINATE_TYPE>  (1) 
2
5
10

$$$$
