40679
     RDKit          3D

 32 35  0  0  0  0  0  0  0  0999 V2000
   -5.9410    1.6832   -0.0728 S   0  0  0  0  0  0  0  0  0  0  0  0
   -6.9641    2.6763    0.1969 O   0  0  0  0  0  0  0  0  0  0  0  0
   -5.9533    0.9303   -1.3113 O   0  0  0  0  0  0  0  0  0  0  0  0
    5.4998    3.8639   -0.0185 O   0  0  0  0  0  0  0  0  0  0  0  0
    0.1761   -0.4029   -1.4971 N   0  0  0  0  0  0  0  0  0  0  0  0
    3.2257   -2.3584    0.6112 N   0  0  0  0  0  0  0  0  0  0  0  0
   -4.3995    2.4030    0.1949 N   0  0  0  0  0  0  0  0  0  0  0  0
    5.8212    1.6658    0.7711 N   0  0  0  0  0  0  0  0  0  0  0  0
    1.2100   -1.0660   -0.7818 C   0  0  0  0  0  0  0  0  0  0  0  0
    2.3557   -0.3583   -0.4045 C   0  0  0  0  0  0  0  0  0  0  0  0
    1.0732   -2.4206   -0.4619 C   0  0  0  0  0  0  0  0  0  0  0  0
    3.3524   -1.0537    0.3006 C   0  0  0  0  0  0  0  0  0  0  0  0
    2.1201   -3.0354    0.2454 C   0  0  0  0  0  0  0  0  0  0  0  0
   -5.9829    0.5207    1.2730 C   0  0  0  0  0  0  0  0  0  0  0  0
   -0.9636    0.2950   -1.0764 C   0  0  0  0  0  0  0  0  0  0  0  0
    2.5197    1.0034   -0.7128 C   0  0  0  0  0  0  0  0  0  0  0  0
    4.4956   -0.3545    0.6790 C   0  0  0  0  0  0  0  0  0  0  0  0
   -3.2389    1.6915   -0.2352 C   0  0  0  0  0  0  0  0  0  0  0  0
   -7.2770   -0.2761    1.2761 C   0  0  0  0  0  0  0  0  0  0  0  0
   -0.0672   -3.1565   -0.8286 C   0  0  0  0  0  0  0  0  0  0  0  0
    4.6618    0.9987    0.3743 C   0  0  0  0  0  0  0  0  0  0  0  0
    3.6720    1.6795   -0.3231 C   0  0  0  0  0  0  0  0  0  0  0  0
    1.9898   -4.3838    0.5669 C   0  0  0  0  0  0  0  0  0  0  0  0
   -1.2440    0.4327    0.2879 C   0  0  0  0  0  0  0  0  0  0  0  0
   -1.8319    0.8624   -2.0158 C   0  0  0  0  0  0  0  0  0  0  0  0
   -2.3779    1.1287    0.7071 C   0  0  0  0  0  0  0  0  0  0  0  0
   -2.9657    1.5585   -1.5966 C   0  0  0  0  0  0  0  0  0  0  0  0
   -0.1729   -4.5034   -0.4951 C   0  0  0  0  0  0  0  0  0  0  0  0
    0.8579   -5.1180    0.2042 C   0  0  0  0  0  0  0  0  0  0  0  0
   -7.3239   -1.2561    2.4364 C   0  0  0  0  0  0  0  0  0  0  0  0
    6.1624    3.0082    0.5592 C   0  0  0  0  0  0  0  0  0  0  0  0
    7.5104    3.3421    1.1472 C   0  0  0  0  0  0  0  0  0  0  0  0
  1  2  2  0
  1  3  2  0
  1  7  1  0
  1 14  1  0
  4 31  2  0
  5  9  1  0
  5 15  1  0
  6 12  2  0
  6 13  1  0
  7 18  1  0
  8 21  1  0
  8 31  1  0
  9 10  2  0
  9 11  1  0
 10 12  1  0
 10 16  1  0
 11 13  2  0
 11 20  1  0
 12 17  1  0
 13 23  1  0
 14 19  1  0
 15 24  2  0
 15 25  1  0
 16 22  2  0
 17 21  2  0
 18 26  2  0
 18 27  1  0
 19 30  1  0
 20 28  2  0
 21 22  1  0
 23 29  2  0
 24 26  1  0
 25 27  2  0
 28 29  1  0
 31 32  1  0
M  END
>  <PUBCHEM_COMPOUND_CID>  (1) 
40679

>  <PUBCHEM_CONFORMER_RMSD>  (1) 
1

>  <PUBCHEM_CONFORMER_DIVERSEORDER>  (1) 
2
39
55
41
73
25
66
61
49
84
88
79
52
44
68
82
29
62
34
36
81
86
30
53
22
93
56
50
70
40
96
63
69
83
76
15
37
6
45
89
32
31
16
33
28
95
94
90
80
12
58
27
47
57
74
38
77
85
71
48
75
13
72
7
43
9
59
14
65
24
87
42
11
64
51
54
21
92
5
19
91
4
46
10
20
78
8
67
26
3
1
17
60
23
35
18

>  <PUBCHEM_MMFF94_PARTIAL_CHARGES>  (1) 
42
1 1.33
12 0.31
13 0.31
14 0.11
15 0.1
16 -0.15
17 -0.15
18 0.2
2 -0.65
20 -0.15
21 0.12
22 -0.15
23 -0.15
24 -0.15
25 -0.15
26 -0.15
27 -0.15
28 -0.15
29 -0.15
3 -0.65
31 0.57
32 0.06
33 0.4
36 0.15
39 0.15
4 -0.57
40 0.15
41 0.42
42 0.15
43 0.15
44 0.15
45 0.15
46 0.15
47 0.15
48 0.15
49 0.15
5 -0.6
53 0.37
6 -0.62
7 -0.76
8 -0.55
9 0.1

>  <PUBCHEM_EFFECTIVE_ROTOR_COUNT>  (1) 
8

>  <PUBCHEM_PHARMACOPHORE_FEATURES>  (1) 
13
1 2 acceptor
1 3 acceptor
1 30 hydrophobe
1 4 acceptor
1 5 cation
1 5 donor
1 6 acceptor
1 7 donor
1 8 donor
6 10 12 16 17 21 22 rings
6 11 13 20 23 28 29 rings
6 15 18 24 25 26 27 rings
6 6 9 10 11 12 13 rings

>  <PUBCHEM_HEAVY_ATOM_COUNT>  (1) 
32

>  <PUBCHEM_ATOM_DEF_STEREO_COUNT>  (1) 
0

>  <PUBCHEM_ATOM_UDEF_STEREO_COUNT>  (1) 
0

>  <PUBCHEM_BOND_DEF_STEREO_COUNT>  (1) 
0

>  <PUBCHEM_BOND_UDEF_STEREO_COUNT>  (1) 
0

>  <PUBCHEM_ISOTOPIC_ATOM_COUNT>  (1) 
0

>  <PUBCHEM_COMPONENT_COUNT>  (1) 
1

>  <PUBCHEM_CACTVS_TAUTO_COUNT>  (1) 
13

>  <PUBCHEM_CONFORMER_ID>  (1) 
00009EE700000002

>  <PUBCHEM_MMFF94_ENERGY>  (1) 
113.5682

>  <PUBCHEM_FEATURE_SELFOVERLAP>  (1) 
66.05

>  <PUBCHEM_SHAPE_FINGERPRINT>  (1) 
10169797 241 18194987179008199127
10258939 38 17821727213325041065
10835480 77 18263922134585352773
11135609 201 18272366524786877288
12788726 201 17907271580466993630
13140716 1 18335973200125200046
13955234 65 18192990422445963178
14294032 229 18197779010475730450
14400156 413 18122610675032462533
14565420 104 18411978040289184768
14849402 71 18268144254729821122
15183329 4 9079118848007924949
15274700 208 17201643474511871715
15320294 125 14201115730499320121
15347590 135 18342468066718063241
15439362 3 18342454830071714500
15475509 35 16516799244538326338
15475509 8 13686304577874384697
16126227 98 18268428113160309968
16992610 120 18263657298644308836
18393751 57 18334855064801823548
19319366 153 18272079475026583348
19377110 9 18059572443780000593
1979834 28 18187090507338696628
20505436 4 17988635298755149364
21033648 29 18269263733724107272
21049683 271 17901395498481347126
21197605 99 18334586750116857891
22149856 69 18191612812603455401
23559900 14 17976819779610735267
23572383 38 17968389957574276115
23845131 108 18408318908494529698
283562 15 17903901594681789558
3178227 256 18265328414109651826
32027 91 17682679520228950539
397830 11 18333735715242151745
4073 2 18409452454207868505
4144715 1 18045509612757414525
4339292 15 11170451541443683216
4340502 62 18412832360987490511
4403749 210 18264201581535314953
4408954 87 18267316494183867955
5104073 3 18194693566743222793
6523845 18 18336277769045596854
6695519 79 18269578125023745539
6697151 62 17325460239183135487
7399639 24 18260825947636054261

>  <PUBCHEM_SHAPE_MULTIPOLES>  (1) 
624.86
18.05
5.81
1.48
16.21
6.94
0.02
-21.07
10.43
-7.02
0.55
2.11
-0.13
2.21

>  <PUBCHEM_SHAPE_SELFOVERLAP>  (1) 
1349.193

>  <PUBCHEM_SHAPE_VOLUME>  (1) 
342.9

>  <PUBCHEM_COORDINATE_TYPE>  (1) 
2
5
10

$$$$
