40683
     RDKit          3D

 34 37  0  0  0  0  0  0  0  0999 V2000
    5.3373   -1.5684   -0.4694 S   0  0  0  0  0  0  0  0  0  0  0  0
    6.6383   -2.1594   -0.2168 O   0  0  0  0  0  0  0  0  0  0  0  0
    4.9946   -1.0779   -1.7896 O   0  0  0  0  0  0  0  0  0  0  0  0
   -1.7647    5.3324   -1.2763 O   0  0  0  0  0  0  0  0  0  0  0  0
    4.1276   -2.6424    0.1215 N   0  0  0  0  0  0  0  0  0  0  0  0
   -1.2254   -1.6278   -1.2501 N   0  0  0  0  0  0  0  0  0  0  0  0
   -4.5057   -0.2917    0.9912 N   0  0  0  0  0  0  0  0  0  0  0  0
   -3.4525    4.2724   -0.0168 N   0  0  0  0  0  0  0  0  0  0  0  0
    6.1313    0.9008    0.3756 C   0  0  0  0  0  0  0  0  0  0  0  0
    5.1503   -0.2224    0.6784 C   0  0  0  0  0  0  0  0  0  0  0  0
    6.0312    2.0726    1.3547 C   0  0  0  0  0  0  0  0  0  0  0  0
    6.9621    3.2345    1.0059 C   0  0  0  0  0  0  0  0  0  0  0  0
   -2.3380   -1.1748   -0.4903 C   0  0  0  0  0  0  0  0  0  0  0  0
   -2.5952    0.1960   -0.3874 C   0  0  0  0  0  0  0  0  0  0  0  0
   -3.1658   -2.1037    0.1483 C   0  0  0  0  0  0  0  0  0  0  0  0
   -3.7052    0.5988    0.3740 C   0  0  0  0  0  0  0  0  0  0  0  0
    2.7676   -2.3847   -0.2282 C   0  0  0  0  0  0  0  0  0  0  0  0
   -4.2536   -1.6110    0.8890 C   0  0  0  0  0  0  0  0  0  0  0  0
    0.1096   -1.8799   -0.9086 C   0  0  0  0  0  0  0  0  0  0  0  0
    6.7762    4.4008    1.9646 C   0  0  0  0  0  0  0  0  0  0  0  0
   -1.7799    1.1517   -1.0188 C   0  0  0  0  0  0  0  0  0  0  0  0
    2.3339   -2.5814   -1.5394 C   0  0  0  0  0  0  0  0  0  0  0  0
    1.8724   -1.9356    0.7426 C   0  0  0  0  0  0  0  0  0  0  0  0
   -3.9664    1.9622    0.4803 C   0  0  0  0  0  0  0  0  0  0  0  0
    1.0049   -2.3291   -1.8795 C   0  0  0  0  0  0  0  0  0  0  0  0
    0.5435   -1.6831    0.4024 C   0  0  0  0  0  0  0  0  0  0  0  0
   -2.9310   -3.4870    0.0620 C   0  0  0  0  0  0  0  0  0  0  0  0
   -3.1584    2.9146   -0.1456 C   0  0  0  0  0  0  0  0  0  0  0  0
   -2.0628    2.5088   -0.8969 C   0  0  0  0  0  0  0  0  0  0  0  0
   -5.0814   -2.5308    1.5271 C   0  0  0  0  0  0  0  0  0  0  0  0
   -3.7737   -4.3857    0.7094 C   0  0  0  0  0  0  0  0  0  0  0  0
   -4.8510   -3.9062    1.4434 C   0  0  0  0  0  0  0  0  0  0  0  0
   -2.7649    5.3625   -0.5667 C   0  0  0  0  0  0  0  0  0  0  0  0
   -3.4054    6.6749   -0.1902 C   0  0  0  0  0  0  0  0  0  0  0  0
  1  2  2  0
  1  3  2  0
  1  5  1  0
  1 10  1  0
  4 33  2  0
  5 17  1  0
  6 13  1  0
  6 19  1  0
  7 16  2  0
  7 18  1  0
  8 28  1  0
  8 33  1  0
  9 10  1  0
  9 11  1  0
 11 12  1  0
 12 20  1  0
 13 14  2  0
 13 15  1  0
 14 16  1  0
 14 21  1  0
 15 18  2  0
 15 27  1  0
 16 24  1  0
 17 22  2  0
 17 23  1  0
 18 30  1  0
 19 25  2  0
 19 26  1  0
 21 29  2  0
 22 25  1  0
 23 26  2  0
 24 28  2  0
 27 31  2  0
 28 29  1  0
 30 32  2  0
 31 32  1  0
 33 34  1  0
M  END
>  <PUBCHEM_COMPOUND_CID>  (1) 
40683

>  <PUBCHEM_CONFORMER_RMSD>  (1) 
1

>  <PUBCHEM_CONFORMER_DIVERSEORDER>  (1) 
1
209
148
245
218
141
30
42
165
52
7
252
174
219
57
133
157
35
235
206
217
82
255
182
19
67
64
117
51
247
73
79
241
204
127
180
261
184
259
86
22
140
101
21
5
91
179
220
50
77
131
202
8
246
18
112
142
63
272
201
173
99
88
84
55
97
244
279
62
208
229
195
270
162
177
253
95
230
106
163
199
3
176
149
56
159
243
78
251
53
225
66
89
278
123
85
58
11
237
280
93
23
80
25
151
136
175
44
110
20
160
234
124
17
83
187
172
72
120
236
183
191
116
188
170
92
232
130
155
258
126
9
65
40
87
168
156
48
113
169
240
150
154
102
190
222
145
210
193
238
96
115
233
46
178
125
257
161
276
143
250
81
134
275
269
90
71
98
213
94
203
254
256
264
114
152
100
60
138
105
107
212
70
39
75
281
132
108
265
128
221
211
104
271
228
49
194
153
214
76
268
119
273
68
158
171
226
207
231
43
197
198
109
31
146
216
196
189
129
164
36
239
135
263
45
38
121
192
224
137
166
205
16
111
215
167
33
267
248
266
200
262
274
69
28
103
185
147
54
144
186
122
249
277
59
34
181
12
29
118
4
74
223
37
47
227
24
15
26
61
6
139
10
2
14
32
41
27
260
13
242

>  <PUBCHEM_MMFF94_PARTIAL_CHARGES>  (1) 
42
1 1.33
10 0.11
13 0.1
16 0.31
17 0.2
18 0.31
19 0.1
2 -0.65
21 -0.15
22 -0.15
23 -0.15
24 -0.15
25 -0.15
26 -0.15
27 -0.15
28 0.12
29 -0.15
3 -0.65
30 -0.15
31 -0.15
32 -0.15
33 0.57
34 0.06
4 -0.57
43 0.42
44 0.4
48 0.15
49 0.15
5 -0.76
50 0.15
51 0.15
52 0.15
53 0.15
54 0.15
55 0.15
56 0.15
57 0.15
58 0.15
59 0.37
6 -0.6
7 -0.62
8 -0.55

>  <PUBCHEM_EFFECTIVE_ROTOR_COUNT>  (1) 
10

>  <PUBCHEM_PHARMACOPHORE_FEATURES>  (1) 
13
1 2 acceptor
1 20 hydrophobe
1 3 acceptor
1 4 acceptor
1 5 donor
1 6 cation
1 6 donor
1 7 acceptor
1 8 donor
6 14 16 21 24 28 29 rings
6 15 18 27 30 31 32 rings
6 17 19 22 23 25 26 rings
6 7 13 14 15 16 18 rings

>  <PUBCHEM_HEAVY_ATOM_COUNT>  (1) 
34

>  <PUBCHEM_ATOM_DEF_STEREO_COUNT>  (1) 
0

>  <PUBCHEM_ATOM_UDEF_STEREO_COUNT>  (1) 
0

>  <PUBCHEM_BOND_DEF_STEREO_COUNT>  (1) 
0

>  <PUBCHEM_BOND_UDEF_STEREO_COUNT>  (1) 
0

>  <PUBCHEM_ISOTOPIC_ATOM_COUNT>  (1) 
0

>  <PUBCHEM_COMPONENT_COUNT>  (1) 
1

>  <PUBCHEM_CACTVS_TAUTO_COUNT>  (1) 
13

>  <PUBCHEM_CONFORMER_ID>  (1) 
00009EEB00000001

>  <PUBCHEM_MMFF94_ENERGY>  (1) 
113.5058

>  <PUBCHEM_FEATURE_SELFOVERLAP>  (1) 
66.05

>  <PUBCHEM_SHAPE_FINGERPRINT>  (1) 
10319926 262 18337106744905505322
10369192 42 17273707657261706606
10675989 125 16970269536143373913
12107183 9 17538279536544588074
12788726 201 17971224528341575431
12925494 130 18266175024503216020
14068700 686 18413108372766067054
14415360 78 17902499403270154589
14739800 52 18262511473487107890
15419008 145 18263910173275286472
15513586 35 18272367615560526720
15968369 153 18268434718919822644
16992779 147 16611683584363765009
20505436 4 12823022967771649447
21033648 29 17759819039339408109
21133410 52 17192345042115736406
22956985 138 16817712877848150099
23522609 53 17316231089563212334
24771293 8 18198922331777104891
2747138 104 18116726290336455698
3418910 222 18119261785798444924
376196 1 17620756086056411447
4144715 1 18264217911360294034
437795 171 18340755002038678512
437795 96 18338228259402695484
50677037 204 17478590761366679808
5104073 3 18335697231191276178
5364581 5 18341050817182352522
550186 72 18266455584593448044
6371380 46 17400089573591551359
6673363 416 18119836817953644398
9849439 229 17686908215915458909
9896288 288 18044111063836502283

>  <PUBCHEM_SHAPE_MULTIPOLES>  (1) 
666.02
16.54
8.82
1.5
33.23
16.87
-0.06
3.85
8.14
-7.97
-0.26
0.79
-0.23
6.23

>  <PUBCHEM_SHAPE_SELFOVERLAP>  (1) 
1424.927

>  <PUBCHEM_SHAPE_VOLUME>  (1) 
368.6

>  <PUBCHEM_COORDINATE_TYPE>  (1) 
2
5
10

$$$$
