40684
     RDKit          3D

 35 38  0  0  0  0  0  0  0  0999 V2000
    4.8198   -2.4224   -0.5826 S   0  0  0  0  0  0  0  0  0  0  0  0
    6.0341   -3.1792   -0.3407 O   0  0  0  0  0  0  0  0  0  0  0  0
    4.5127   -1.9266   -1.9096 O   0  0  0  0  0  0  0  0  0  0  0  0
   -1.2921    5.3628   -1.4467 O   0  0  0  0  0  0  0  0  0  0  0  0
    3.4907   -3.3032    0.0683 N   0  0  0  0  0  0  0  0  0  0  0  0
   -1.7078   -1.6021   -1.2149 N   0  0  0  0  0  0  0  0  0  0  0  0
   -4.7148    0.2337    1.0559 N   0  0  0  0  0  0  0  0  0  0  0  0
   -3.0751    4.5800   -0.1174 N   0  0  0  0  0  0  0  0  0  0  0  0
    5.9641   -0.0616    0.1694 C   0  0  0  0  0  0  0  0  0  0  0  0
    6.0005    1.1221    1.1357 C   0  0  0  0  0  0  0  0  0  0  0  0
    4.8486   -1.0320    0.5264 C   0  0  0  0  0  0  0  0  0  0  0  0
    7.0971    2.1180    0.7546 C   0  0  0  0  0  0  0  0  0  0  0  0
    7.1117    3.3180    1.7011 C   0  0  0  0  0  0  0  0  0  0  0  0
   -2.7277   -0.9796   -0.4452 C   0  0  0  0  0  0  0  0  0  0  0  0
   -2.7926    0.4159   -0.3795 C   0  0  0  0  0  0  0  0  0  0  0  0
   -3.6575   -1.7679    0.2404 C   0  0  0  0  0  0  0  0  0  0  0  0
    2.1699   -2.8712   -0.2590 C   0  0  0  0  0  0  0  0  0  0  0  0
    8.2221    4.2939    1.3460 C   0  0  0  0  0  0  0  0  0  0  0  0
   -3.8168    0.9882    0.3935 C   0  0  0  0  0  0  0  0  0  0  0  0
   -0.4112   -2.0255   -0.8955 C   0  0  0  0  0  0  0  0  0  0  0  0
   -4.6480   -1.1100    0.9893 C   0  0  0  0  0  0  0  0  0  0  0  0
    1.3703   -2.2765    0.7171 C   0  0  0  0  0  0  0  0  0  0  0  0
    1.6791   -3.0430   -1.5533 C   0  0  0  0  0  0  0  0  0  0  0  0
   -1.8713    1.2325   -1.0583 C   0  0  0  0  0  0  0  0  0  0  0  0
    0.0798   -1.8536    0.3987 C   0  0  0  0  0  0  0  0  0  0  0  0
    0.3885   -2.6203   -1.8715 C   0  0  0  0  0  0  0  0  0  0  0  0
   -3.8864    2.3771    0.4630 C   0  0  0  0  0  0  0  0  0  0  0  0
   -3.6162   -3.1722    0.1923 C   0  0  0  0  0  0  0  0  0  0  0  0
   -2.9726    3.1916   -0.2103 C   0  0  0  0  0  0  0  0  0  0  0  0
   -1.9629    2.6185   -0.9727 C   0  0  0  0  0  0  0  0  0  0  0  0
   -5.5766   -1.8893    1.6742 C   0  0  0  0  0  0  0  0  0  0  0  0
   -4.5563   -3.9283    0.8860 C   0  0  0  0  0  0  0  0  0  0  0  0
   -5.5385   -3.2851    1.6284 C   0  0  0  0  0  0  0  0  0  0  0  0
   -2.2598    5.5496   -0.7163 C   0  0  0  0  0  0  0  0  0  0  0  0
   -2.7049    6.9476   -0.3668 C   0  0  0  0  0  0  0  0  0  0  0  0
  1  2  2  0
  1  3  2  0
  1  5  1  0
  1 11  1  0
  4 34  2  0
  5 17  1  0
  6 14  1  0
  6 20  1  0
  7 19  2  0
  7 21  1  0
  8 29  1  0
  8 34  1  0
  9 10  1  0
  9 11  1  0
 10 12  1  0
 12 13  1  0
 13 18  1  0
 14 15  2  0
 14 16  1  0
 15 19  1  0
 15 24  1  0
 16 21  2  0
 16 28  1  0
 17 22  2  0
 17 23  1  0
 19 27  1  0
 20 25  2  0
 20 26  1  0
 21 31  1  0
 22 25  1  0
 23 26  2  0
 24 30  2  0
 27 29  2  0
 28 32  2  0
 29 30  1  0
 31 33  2  0
 32 33  1  0
 34 35  1  0
M  END
>  <PUBCHEM_COMPOUND_CID>  (1) 
40684

>  <PUBCHEM_CONFORMER_RMSD>  (1) 
1.2

>  <PUBCHEM_CONFORMER_DIVERSEORDER>  (1) 
1
129
120
38
66
89
15
77
118
30
82
50
42
14
104
100
76
18
32
99
67
53
55
79
90
34
97
51
143
13
43
23
150
96
115
46
47
131
58
132
20
106
102
124
17
75
41
111
121
69
68
31
107
56
113
25
117
72
70
61
140
112
83
108
52
26
44
128
85
119
80
37
63
93
125
60
28
29
126
147
86
122
98
74
105
39
116
62
148
65
71
142
136
109
84
103
59
110
19
145
130
141
4
48
138
81
144
149
78
135
134
123
40
24
27
49
127
64
101
12
88
133
45
54
95
87
146
114
139
73
5
91
35
11
92
94
6
57
2
7
22
3
33
16
8
21
10
9
36
137

>  <PUBCHEM_MMFF94_PARTIAL_CHARGES>  (1) 
42
1 1.33
11 0.11
14 0.1
17 0.2
19 0.31
2 -0.65
20 0.1
21 0.31
22 -0.15
23 -0.15
24 -0.15
25 -0.15
26 -0.15
27 -0.15
28 -0.15
29 0.12
3 -0.65
30 -0.15
31 -0.15
32 -0.15
33 -0.15
34 0.57
35 0.06
4 -0.57
46 0.42
5 -0.76
50 0.4
51 0.15
52 0.15
53 0.15
54 0.15
55 0.15
56 0.15
57 0.15
58 0.15
59 0.15
6 -0.6
60 0.15
61 0.15
62 0.37
7 -0.62
8 -0.55

>  <PUBCHEM_EFFECTIVE_ROTOR_COUNT>  (1) 
11

>  <PUBCHEM_PHARMACOPHORE_FEATURES>  (1) 
14
1 18 hydrophobe
1 2 acceptor
1 3 acceptor
1 4 acceptor
1 5 donor
1 6 cation
1 6 donor
1 7 acceptor
1 8 donor
4 9 10 12 13 hydrophobe
6 15 19 24 27 29 30 rings
6 16 21 28 31 32 33 rings
6 17 20 22 23 25 26 rings
6 7 14 15 16 19 21 rings

>  <PUBCHEM_HEAVY_ATOM_COUNT>  (1) 
35

>  <PUBCHEM_ATOM_DEF_STEREO_COUNT>  (1) 
0

>  <PUBCHEM_ATOM_UDEF_STEREO_COUNT>  (1) 
0

>  <PUBCHEM_BOND_DEF_STEREO_COUNT>  (1) 
0

>  <PUBCHEM_BOND_UDEF_STEREO_COUNT>  (1) 
0

>  <PUBCHEM_ISOTOPIC_ATOM_COUNT>  (1) 
0

>  <PUBCHEM_COMPONENT_COUNT>  (1) 
1

>  <PUBCHEM_CACTVS_TAUTO_COUNT>  (1) 
13

>  <PUBCHEM_CONFORMER_ID>  (1) 
00009EEC00000001

>  <PUBCHEM_MMFF94_ENERGY>  (1) 
113.0292

>  <PUBCHEM_FEATURE_SELFOVERLAP>  (1) 
71.125

>  <PUBCHEM_SHAPE_FINGERPRINT>  (1) 
10369192 42 17345481551366470670
11621639 148 18194687192801272107
12107183 9 17249489478603703115
12925494 130 18121216476596266228
14068700 686 18412263917681499702
14415360 78 17685765835898076229
14739800 52 18117835499952705178
15513586 35 18343581845604301089
15684970 41 17899435352421653771
15968369 153 18339648957437305252
16992779 147 16179055415572538313
21133410 52 17408798173703331215
23516275 100 18339072804771428620
23522609 53 17172121368833219646
3418910 222 18191322639589722692
376196 1 17404020319750748279
4144715 1 18119540838250914634
42767 46 17897182423421472732
437795 171 18339911642276117080
50677037 204 17693919092785874080
5364581 5 18412826893130476954
550186 72 18410008883425118204
6371380 46 17111297312933732775
6673363 416 18119838978211794806
9849439 229 17398117054547709093
9896288 288 17899717665117290803
9961470 85 18265332807176017476
9981440 41 17251759966847766857

>  <PUBCHEM_SHAPE_MULTIPOLES>  (1) 
686.6
18.07
9.17
1.55
38.91
17.84
-0.09
4.9
10.95
-3.33
-1.8
0.28
-0.36
6.37

>  <PUBCHEM_SHAPE_SELFOVERLAP>  (1) 
1463.276

>  <PUBCHEM_SHAPE_VOLUME>  (1) 
381.5

>  <PUBCHEM_COORDINATE_TYPE>  (1) 
2
5
10

$$$$
