40691
     RDKit          3D

  8  8  0  0  1  0  0  0  0  0999 V2000
   -2.4137    0.5792    0.0016 O   0  0  0  0  0  0  0  0  0  0  0  0
   -1.1048    0.3515    0.4867 C   0  0  0  0  0  0  0  0  0  0  0  0
   -0.3625   -0.7363   -0.2909 C   0  0  0  0  0  0  0  0  0  0  0  0
   -1.4485    1.6228   -0.1822 C   0  0  0  0  0  0  0  0  0  0  0  0
    1.1427   -0.7699    0.0330 C   0  0  0  0  0  0  0  0  0  0  0  0
   -0.9849   -2.1021    0.0101 C   0  0  0  0  0  0  0  0  0  0  0  0
    1.8530    0.5600   -0.2305 C   0  0  0  0  0  0  0  0  0  0  0  0
    3.3186    0.4948    0.1722 C   0  0  0  0  0  0  0  0  0  0  0  0
  1  2  1  0
  1  4  1  0
  2  3  1  0
  2  4  1  0
  3  5  1  0
  3  6  1  0
  5  7  1  0
  7  8  1  0
M  END
>  <PUBCHEM_COMPOUND_CID>  (1) 
40691

>  <PUBCHEM_CONFORMER_RMSD>  (1) 
0.6

>  <PUBCHEM_CONFORMER_DIVERSEORDER>  (1) 
4
10
19
34
36
18
35
33
29
26
1
6
24
32
8
2
37
30
12
3
25
17
20
14
7
28
23
15
31
5
22
13
27
21
9
11
16

>  <PUBCHEM_MMFF94_PARTIAL_CHARGES>  (1) 
7
1 -0.3
11 0.1
12 0.1
2 -0.05
3 0.09
4 -0.05
9 0.1

>  <PUBCHEM_EFFECTIVE_ROTOR_COUNT>  (1) 
3.6

>  <PUBCHEM_PHARMACOPHORE_FEATURES>  (1) 
3
1 1 acceptor
1 6 hydrophobe
1 8 hydrophobe

>  <PUBCHEM_HEAVY_ATOM_COUNT>  (1) 
8

>  <PUBCHEM_ATOM_DEF_STEREO_COUNT>  (1) 
0

>  <PUBCHEM_ATOM_UDEF_STEREO_COUNT>  (1) 
2

>  <PUBCHEM_BOND_DEF_STEREO_COUNT>  (1) 
0

>  <PUBCHEM_BOND_UDEF_STEREO_COUNT>  (1) 
0

>  <PUBCHEM_ISOTOPIC_ATOM_COUNT>  (1) 
0

>  <PUBCHEM_COMPONENT_COUNT>  (1) 
1

>  <PUBCHEM_CACTVS_TAUTO_COUNT>  (1) 
1

>  <PUBCHEM_CONFORMER_ID>  (1) 
00009EF300000004

>  <PUBCHEM_MMFF94_ENERGY>  (1) 
5.6085

>  <PUBCHEM_FEATURE_SELFOVERLAP>  (1) 
15.223

>  <PUBCHEM_SHAPE_FINGERPRINT>  (1) 
100427 49 17621039097897768209
14325111 11 18339361868384632136
14390081 3 18343018865712949136
15310529 11 15123514666101917588
16714656 1 18411703213779332441
20096714 4 18338519612360152686
20871998 184 18200038489406058910
21040471 1 18410858720171908798
23235685 24 18343017766043072304
23552423 10 18116713126334733958
23552449 1 18268430320366720488
29004967 10 9510585901685114455
5084963 1 18057882442061451323
54338 74 18044365265205587758

>  <PUBCHEM_SHAPE_MULTIPOLES>  (1) 
158.77
3.75
1.78
0.66
3.11
0.56
-0.01
-1.27
-0.17
-1.07
0.07
0.01
-0.01
0.02

>  <PUBCHEM_SHAPE_SELFOVERLAP>  (1) 
291.868

>  <PUBCHEM_SHAPE_VOLUME>  (1) 
102.2

>  <PUBCHEM_COORDINATE_TYPE>  (1) 
2
5
10

$$$$
