40696
     RDKit          3D

 25 25  0  0  1  0  0  0  0  0999 V2000
   -0.3158    0.4268    0.8901 O   0  0  0  0  0  0  0  0  0  0  0  0
    1.7392    1.6247    2.3732 O   0  0  0  0  0  0  0  0  0  0  0  0
   -0.9860   -2.3510    0.7674 O   0  0  0  0  0  0  0  0  0  0  0  0
   -0.4896   -2.4511   -1.4782 O   0  0  0  0  0  0  0  0  0  0  0  0
    3.7822    0.1620   -0.3465 N   0  0  0  0  0  0  0  0  0  0  0  0
   -1.7756    2.8613    0.7603 C   0  0  0  0  0  0  0  0  0  0  0  0
   -2.1765    1.6384    0.0028 C   0  0  0  0  0  0  0  0  0  0  0  0
   -1.4301    0.4636    0.0953 C   0  0  0  0  0  0  0  0  0  0  0  0
    2.0305    0.6999    1.3215 C   0  0  0  0  0  0  0  0  0  0  0  0
    3.4152    1.0335    0.7614 C   0  0  0  0  0  0  0  0  0  0  0  0
    0.9191    0.7850    0.2777 C   0  0  0  0  0  0  0  0  0  0  0  0
   -1.8204   -0.6688   -0.6198 C   0  0  0  0  0  0  0  0  0  0  0  0
    5.0777    0.5368   -0.8968 C   0  0  0  0  0  0  0  0  0  0  0  0
   -2.9567   -0.6261   -1.4277 C   0  0  0  0  0  0  0  0  0  0  0  0
   -3.3128    1.6809   -0.8051 C   0  0  0  0  0  0  0  0  0  0  0  0
   -2.8432    3.2952    1.7815 C   0  0  0  0  0  0  0  0  0  0  0  0
   -1.4291    4.0398   -0.1680 C   0  0  0  0  0  0  0  0  0  0  0  0
   -3.7029    0.5487   -1.5204 C   0  0  0  0  0  0  0  0  0  0  0  0
   -1.0373   -1.8957   -0.5200 C   0  0  0  0  0  0  0  0  0  0  0  0
    5.6787   -0.6539   -1.6370 C   0  0  0  0  0  0  0  0  0  0  0  0
    4.9308    1.7407   -1.8230 C   0  0  0  0  0  0  0  0  0  0  0  0
   -3.3990   -1.8227   -2.2057 C   0  0  0  0  0  0  0  0  0  0  0  0
   -0.2422   -3.5529    0.9951 C   0  0  0  0  0  0  0  0  0  0  0  0
   -0.8673   -4.3172    2.1522 C   0  0  0  0  0  0  0  0  0  0  0  0
    1.2111   -3.1978    1.2697 C   0  0  0  0  0  0  0  0  0  0  0  0
  1  8  1  0
  1 11  1  0
  2  9  1  0
  3 19  1  0
  3 23  1  0
  4 19  2  0
  5 10  1  0
  5 13  1  0
  6  7  1  0
  6 16  1  0
  6 17  1  0
  7  8  2  0
  7 15  1  0
  8 12  1  0
  9 10  1  0
  9 11  1  0
 12 14  2  0
 12 19  1  0
 13 20  1  0
 13 21  1  0
 14 18  1  0
 14 22  1  0
 15 18  2  0
 23 24  1  0
 23 25  1  0
M  END
>  <PUBCHEM_COMPOUND_CID>  (1) 
40696

>  <PUBCHEM_CONFORMER_RMSD>  (1) 
1

>  <PUBCHEM_CONFORMER_DIVERSEORDER>  (1) 
2
3
35
46
45
12
41
55
28
27
54
43
42
15
25
51
33
44
32
17
47
53
5
58
39
56
57
4
36
29
18
22
52
16
1
48
23
6
10
34
9
7
14
11
37
38
24
50
26
40
30
8
19
49
21
20
31
13

>  <PUBCHEM_MMFF94_PARTIAL_CHARGES>  (1) 
23
1 -0.36
10 0.27
11 0.28
12 0.09
13 0.27
14 -0.14
15 -0.15
18 -0.15
19 0.63
2 -0.68
22 0.14
23 0.28
3 -0.43
33 0.15
34 0.36
4 -0.57
41 0.15
5 -0.9
51 0.4
6 0.14
7 -0.14
8 0.08
9 0.28

>  <PUBCHEM_EFFECTIVE_ROTOR_COUNT>  (1) 
10

>  <PUBCHEM_PHARMACOPHORE_FEATURES>  (1) 
10
1 1 acceptor
1 2 acceptor
1 2 donor
1 4 acceptor
1 5 cation
1 5 donor
3 13 20 21 hydrophobe
3 23 24 25 hydrophobe
3 6 16 17 hydrophobe
6 7 8 12 14 15 18 rings

>  <PUBCHEM_HEAVY_ATOM_COUNT>  (1) 
25

>  <PUBCHEM_ATOM_DEF_STEREO_COUNT>  (1) 
0

>  <PUBCHEM_ATOM_UDEF_STEREO_COUNT>  (1) 
1

>  <PUBCHEM_BOND_DEF_STEREO_COUNT>  (1) 
0

>  <PUBCHEM_BOND_UDEF_STEREO_COUNT>  (1) 
0

>  <PUBCHEM_ISOTOPIC_ATOM_COUNT>  (1) 
0

>  <PUBCHEM_COMPONENT_COUNT>  (1) 
1

>  <PUBCHEM_CACTVS_TAUTO_COUNT>  (1) 
1

>  <PUBCHEM_CONFORMER_ID>  (1) 
00009EF800000002

>  <PUBCHEM_MMFF94_ENERGY>  (1) 
60.6739

>  <PUBCHEM_FEATURE_SELFOVERLAP>  (1) 
50.749

>  <PUBCHEM_SHAPE_FINGERPRINT>  (1) 
10369192 42 13624119508070903782
10764073 3 17408582403077655939
107951 10 18265916682367593510
12363563 72 16845301548939450988
12788726 201 18338227288412246570
13149001 5 17686873413584235415
133893 2 17756411674121458859
13583140 156 16961272271448565129
13941206 138 18260552178062930026
14022347 108 18121481699416001547
14251740 79 18343308041787457268
14251757 17 17060050411739125988
14251757 5 18117002289234508078
14955137 171 18057605572223254639
15163728 17 17315331675506698615
15463212 79 18336830797398249672
15475509 35 13396066639603378885
15475509 8 17917137416982700245
20600515 1 17979604013303368857
20642791 178 17833826067055487513
20693207 138 17632291311403806608
20739085 24 16400568551193876121
22907989 373 18192445275326766614
23366157 5 17684359564830692587
23419403 2 17118945661564881299
23557571 272 18124584543116586432
23559900 14 17917415558485156912
2748010 2 16175914802509878181
394222 165 17621059567733033153
484985 159 16414102723609746270
4921388 177 18261403307652925230
5282940 2 18050003294608388282
59755656 215 18201430381454490207
81228 2 18198891694710181329
9709674 26 17987223624730787660

>  <PUBCHEM_SHAPE_MULTIPOLES>  (1) 
486.03
8.42
5.12
2.18
14.37
2.84
-0.08
-4.4
6.08
-3.25
-3.06
-0.05
0.61
-1.51

>  <PUBCHEM_SHAPE_SELFOVERLAP>  (1) 
974.951

>  <PUBCHEM_SHAPE_VOLUME>  (1) 
289.3

>  <PUBCHEM_COORDINATE_TYPE>  (1) 
2
5
10

$$$$
