40702
     RDKit          3D

 20 21  0  0  1  0  0  0  0  0999 V2000
   -1.2444    0.0623    0.5235 O   0  0  0  0  0  0  0  0  0  0  0  0
   -4.8579    0.0479   -0.2594 N   0  0  0  0  0  0  0  0  0  0  0  0
    3.6335   -0.1679    0.8960 C   0  0  0  0  0  0  0  0  0  0  0  0
    4.9595   -0.5639    0.1812 C   0  0  0  0  0  0  0  0  0  0  0  0
    4.9853    0.9150   -0.2983 C   0  0  0  0  0  0  0  0  0  0  0  0
    4.3081    1.2315    1.0730 C   0  0  0  0  0  0  0  0  0  0  0  0
    2.4448   -0.1986   -0.0823 C   0  0  0  0  0  0  0  0  0  0  0  0
    4.0881    1.1233   -1.5232 C   0  0  0  0  0  0  0  0  0  0  0  0
    2.6185    0.9024   -1.1458 C   0  0  0  0  0  0  0  0  0  0  0  0
    6.0908   -0.9189    1.1378 C   0  0  0  0  0  0  0  0  0  0  0  0
    4.9035   -1.6457   -0.8774 C   0  0  0  0  0  0  0  0  0  0  0  0
    1.1347   -0.0190    0.6789 C   0  0  0  0  0  0  0  0  0  0  0  0
   -0.0646   -0.1309   -0.2441 C   0  0  0  0  0  0  0  0  0  0  0  0
   -2.4121   -0.0298   -0.2816 C   0  0  0  0  0  0  0  0  0  0  0  0
   -3.6410    0.1827    0.5804 C   0  0  0  0  0  0  0  0  0  0  0  0
   -4.9140   -1.3372   -0.9179 C   0  0  0  0  0  0  0  0  0  0  0  0
   -6.1259    0.2263    0.5865 C   0  0  0  0  0  0  0  0  0  0  0  0
   -4.8726    1.1061   -1.3709 C   0  0  0  0  0  0  0  0  0  0  0  0
   -4.9007   -2.4013    0.1578 C   0  0  0  0  0  0  0  0  0  0  0  0
   -6.1337    1.6156    1.1859 C   0  0  0  0  0  0  0  0  0  0  0  0
  1 13  1  0
  1 14  1  0
  2 15  1  0
  2 16  1  0
  2 17  1  0
  2 18  1  0
  3  4  1  0
  3  6  1  0
  3  7  1  0
  4  5  1  0
  4 10  1  0
  4 11  1  0
  5  6  1  0
  5  8  1  0
  7  9  1  0
  7 12  1  0
  8  9  1  0
 12 13  1  0
 14 15  1  0
 16 19  1  0
 17 20  1  0
M  CHG  1   2   1
M  END
>  <PUBCHEM_COMPOUND_CID>  (1) 
40702

>  <PUBCHEM_CONFORMER_RMSD>  (1) 
0.8

>  <PUBCHEM_CONFORMER_DIVERSEORDER>  (1) 
1
274
183
49
306
164
144
268
192
52
286
111
32
318
267
158
55
172
5
113
320
3
20
330
80
10
195
176
68
328
149
315
29
46
251
27
23
134
177
137
174
33
44
173
16
181
229
67
71
104
316
242
197
7
279
319
194
129
178
196
275
214
106
202
273
224
285
241
209
165
41
88
14
133
290
295
116
256
95
207
184
171
19
249
269
152
247
38
233
323
288
287
237
161
24
260
180
48
154
204
89
220
13
331
230
136
261
141
143
69
56
270
142
94
206
213
112
300
90
291
145
43
314
110
309
310
122
193
147
211
325
281
73
198
302
123
148
329
282
126
160
135
34
157
124
222
166
60
262
74
170
243
168
232
201
107
108
150
304
155
228
185
301
140
278
53
205
117
236
36
235
238
25
203
12
322
223
187
276
100
70
54
93
254
83
61
297
31
66
186
138
298
105
163
265
266
28
39
324
167
283
264
210
188
96
312
51
118
65
244
303
4
139
102
293
9
219
294
257
72
57
82
115
87
128
86
103
190
8
77
146
252
240
313
17
169
91
255
271
98
45
78
308
259
101
199
81
132
263
253
120
30
92
121
225
305
221
50
131
189
289
296
119
11
114
272
22
6
280
245
231
200
40
317
292
179
62
182
159
258
239
15
156
215
84
299
246
125
217
250
130
75
99
307
63
109
218
59
234
85
153
175
2
248
151
26
21
284
311
226
326
191
58
97
35
327
216
277
64
79
47
162
321
42
18
37
208
127
212
76
227

>  <PUBCHEM_MMFF94_PARTIAL_CHARGES>  (1) 
8
1 -0.56
13 0.28
14 0.28
15 0.5
16 0.5
17 0.5
18 0.5
2 -1.01

>  <PUBCHEM_EFFECTIVE_ROTOR_COUNT>  (1) 
9

>  <PUBCHEM_PHARMACOPHORE_FEATURES>  (1) 
4
1 1 acceptor
1 2 cation
3 4 10 11 hydrophobe
7 3 4 5 6 7 8 9 rings

>  <PUBCHEM_HEAVY_ATOM_COUNT>  (1) 
20

>  <PUBCHEM_ATOM_DEF_STEREO_COUNT>  (1) 
0

>  <PUBCHEM_ATOM_UDEF_STEREO_COUNT>  (1) 
3

>  <PUBCHEM_BOND_DEF_STEREO_COUNT>  (1) 
0

>  <PUBCHEM_BOND_UDEF_STEREO_COUNT>  (1) 
0

>  <PUBCHEM_ISOTOPIC_ATOM_COUNT>  (1) 
0

>  <PUBCHEM_COMPONENT_COUNT>  (1) 
1

>  <PUBCHEM_CACTVS_TAUTO_COUNT>  (1) 
1

>  <PUBCHEM_CONFORMER_ID>  (1) 
00009EFE00000001

>  <PUBCHEM_MMFF94_ENERGY>  (1) 
76.6531

>  <PUBCHEM_FEATURE_SELFOVERLAP>  (1) 
20.297

>  <PUBCHEM_SHAPE_FINGERPRINT>  (1) 
10912923 1 18187082888345807121
11287383 113 17774720956247616842
11315181 36 18272646879478223513
12091667 2 17385439912869715865
12166972 35 17967254199937014220
12236239 1 18408885152481612410
12596602 18 18343581879858511913
12616971 3 17894917347388705141
12730499 353 15574717984854986472
13167372 99 18260551078277151541
13533116 47 18272652308132691658
1420 363 16008753506938852369
14341114 176 16660370285236473117
14528608 73 17531245088629453150
15183329 4 18040713671168156087
15348495 7 18201154450942857275
15788980 27 18113336418603977959
17093844 174 17561357384084263403
17834072 33 18040715887318208487
17844677 252 17749109980483912853
19489759 90 18410289212241205001
20281389 69 18342176648876243897
220451 1 18334017189680642811
22061861 79 18130788944959576807
23035841 295 18410573985853194827
23081809 10 18409167735744527855
23402539 116 18260260854709859399
23536379 177 18343865506814349643
23559900 14 18272365390767415322
29717793 49 18335423452531403598
300161 21 17203609255515798765
3004659 81 18410577275819398254
4073 2 18410859892587789306
5104073 3 18334577996403030121
542803 24 18411136943795118325
7495541 125 18201153359963232616

>  <PUBCHEM_SHAPE_MULTIPOLES>  (1) 
400.74
19
1.63
1.3
11.62
0.58
-0.16
0.57
1.86
1.14
-0.1
-0.36
-0.31
-0.79

>  <PUBCHEM_SHAPE_SELFOVERLAP>  (1) 
795.611

>  <PUBCHEM_SHAPE_VOLUME>  (1) 
242.9

>  <PUBCHEM_COORDINATE_TYPE>  (1) 
2
5
10

$$$$
