4070
     RDKit          3D

  7  6  0  0  0  0  0  0  0  0999 V2000
    2.7593   -0.8939    0.5657 S   0  0  0  0  0  0  0  0  0  0  0  0
   -0.1101   -0.2582   -0.3094 N   0  0  0  0  0  0  0  0  0  0  0  0
   -2.2583   -1.1352   -0.1942 N   0  0  0  0  0  0  0  0  0  0  0  0
   -1.9786    1.0192    0.4951 N   0  0  0  0  0  0  0  0  0  0  0  0
    0.7668    0.8840   -0.0856 C   0  0  0  0  0  0  0  0  0  0  0  0
    2.1868    0.4892   -0.4595 C   0  0  0  0  0  0  0  0  0  0  0  0
   -1.3660   -0.1051   -0.0122 C   0  0  0  0  0  0  0  0  0  0  0  0
  1  6  1  0
  2  5  1  0
  2  7  2  3
  3  7  1  0
  4  7  1  0
  5  6  1  0
M  END
>  <PUBCHEM_COMPOUND_CID>  (1) 
4070

>  <PUBCHEM_CONFORMER_RMSD>  (1) 
0.4

>  <PUBCHEM_CONFORMER_DIVERSEORDER>  (1) 
2
6
4
5
9
8
3
7
1

>  <PUBCHEM_MMFF94_PARTIAL_CHARGES>  (1) 
12
1 -0.41
12 0.4
13 0.4
14 0.4
15 0.4
16 0.18
2 -0.7
3 -0.85
4 -0.85
5 0.25
6 0.23
7 0.55

>  <PUBCHEM_EFFECTIVE_ROTOR_COUNT>  (1) 
2

>  <PUBCHEM_PHARMACOPHORE_FEATURES>  (1) 
3
1 3 donor
1 4 donor
4 2 3 4 7 cation

>  <PUBCHEM_HEAVY_ATOM_COUNT>  (1) 
7

>  <PUBCHEM_ATOM_DEF_STEREO_COUNT>  (1) 
0

>  <PUBCHEM_ATOM_UDEF_STEREO_COUNT>  (1) 
0

>  <PUBCHEM_BOND_DEF_STEREO_COUNT>  (1) 
0

>  <PUBCHEM_BOND_UDEF_STEREO_COUNT>  (1) 
0

>  <PUBCHEM_ISOTOPIC_ATOM_COUNT>  (1) 
0

>  <PUBCHEM_COMPONENT_COUNT>  (1) 
1

>  <PUBCHEM_CACTVS_TAUTO_COUNT>  (1) 
2

>  <PUBCHEM_CONFORMER_ID>  (1) 
00000FE600000002

>  <PUBCHEM_MMFF94_ENERGY>  (1) 
15.8562

>  <PUBCHEM_FEATURE_SELFOVERLAP>  (1) 
15.279

>  <PUBCHEM_SHAPE_FINGERPRINT>  (1) 
10857977 72 17131549539220837475
14390081 3 9367339340922949750
21040471 1 18057338183948347809
23552423 10 18261116326069146700
23552449 11 18271235136053936512
29004967 10 16805327695224807700
5460574 1 8718558198306667436

>  <PUBCHEM_SHAPE_MULTIPOLES>  (1) 
132.96
4.12
1.18
0.73
0.72
0.08
-0.04
1.01
-0.4
-0.02
-0.04
0.12
-0.01
-0.5

>  <PUBCHEM_SHAPE_SELFOVERLAP>  (1) 
230.649

>  <PUBCHEM_SHAPE_VOLUME>  (1) 
89.4

>  <PUBCHEM_COORDINATE_TYPE>  (1) 
2
5
10

$$$$
