40705
     RDKit          3D

 14 15  0  0  0  0  0  0  0  0999 V2000
    2.0629   -0.4677    1.4239 S   0  0  0  0  0  0  0  0  0  0  0  0
    1.7506    2.4780   -0.0204 O   0  0  0  0  0  0  0  0  0  0  0  0
    0.3876    2.1671   -0.0053 N   0  0  0  0  0  0  0  0  0  0  0  0
   -1.1217    0.2503   -0.0123 C   0  0  0  0  0  0  0  0  0  0  0  0
    0.1968    0.8638   -0.0222 C   0  0  0  0  0  0  0  0  0  0  0  0
    1.4115    0.0029   -0.0549 C   0  0  0  0  0  0  0  0  0  0  0  0
   -1.2449   -1.1389   -0.0332 C   0  0  0  0  0  0  0  0  0  0  0  0
   -2.2632    1.0513    0.0181 C   0  0  0  0  0  0  0  0  0  0  0  0
    2.0494   -0.4432   -1.1451 C   0  0  0  0  0  0  0  0  0  0  0  0
   -2.5097   -1.7271   -0.0240 C   0  0  0  0  0  0  0  0  0  0  0  0
   -3.5279    0.4632    0.0273 C   0  0  0  0  0  0  0  0  0  0  0  0
   -3.6511   -0.9261    0.0063 C   0  0  0  0  0  0  0  0  0  0  0  0
    3.1678   -1.2389   -0.7633 C   0  0  0  0  0  0  0  0  0  0  0  0
    3.2918   -1.3347    0.6052 C   0  0  0  0  0  0  0  0  0  0  0  0
  1  6  1  0
  1 14  1  0
  2  3  1  0
  3  5  2  0
  4  5  1  0
  4  7  2  0
  4  8  1  0
  5  6  1  0
  6  9  2  0
  7 10  1  0
  8 11  2  0
  9 13  1  0
 10 12  2  0
 11 12  1  0
 13 14  2  0
M  END
>  <PUBCHEM_COMPOUND_CID>  (1) 
40705

>  <PUBCHEM_CONFORMER_RMSD>  (1) 
0.6

>  <PUBCHEM_CONFORMER_DIVERSEORDER>  (1) 
1
4
2
3

>  <PUBCHEM_MMFF94_PARTIAL_CHARGES>  (1) 
23
1 -0.08
10 -0.15
11 -0.15
12 -0.15
13 -0.15
14 -0.11
15 0.15
16 0.15
17 0.15
18 0.15
19 0.15
2 -0.34
20 0.15
21 0.15
22 0.15
23 0.4
3 -0.51
4 0.09
5 0.45
6 -0.05
7 -0.15
8 -0.15
9 -0.15

>  <PUBCHEM_EFFECTIVE_ROTOR_COUNT>  (1) 
2

>  <PUBCHEM_PHARMACOPHORE_FEATURES>  (1) 
4
1 2 anion
1 3 acceptor
5 1 6 9 13 14 rings
6 4 7 8 10 11 12 rings

>  <PUBCHEM_HEAVY_ATOM_COUNT>  (1) 
14

>  <PUBCHEM_ATOM_DEF_STEREO_COUNT>  (1) 
0

>  <PUBCHEM_ATOM_UDEF_STEREO_COUNT>  (1) 
0

>  <PUBCHEM_BOND_DEF_STEREO_COUNT>  (1) 
0

>  <PUBCHEM_BOND_UDEF_STEREO_COUNT>  (1) 
1

>  <PUBCHEM_ISOTOPIC_ATOM_COUNT>  (1) 
0

>  <PUBCHEM_COMPONENT_COUNT>  (1) 
1

>  <PUBCHEM_CACTVS_TAUTO_COUNT>  (1) 
2

>  <PUBCHEM_CONFORMER_ID>  (1) 
00009F0100000001

>  <PUBCHEM_MMFF94_ENERGY>  (1) 
45.1444

>  <PUBCHEM_FEATURE_SELFOVERLAP>  (1) 
20.297

>  <PUBCHEM_SHAPE_FINGERPRINT>  (1) 
10130415 120 18334860489228927995
10465860 71 18339378387008136126
10751810 167 18041007206539536999
11471102 22 16486966255207275514
11578080 2 17314763271187917340
12932764 1 17822005415514689589
13296908 3 18411978061521395571
14115302 16 17603875493744628538
14144814 61 18409449176456601579
14648413 74 18339647853108723633
15279308 51 18272082850929037031
15375462 189 18041280967575480490
15442244 35 18411984641643538081
15536298 74 18341612671750158520
16752209 62 18117548531833823637
16945 1 18410291368151257153
17804303 29 18410016516035300471
17990270 104 18341050825613712846
1813 80 13973422197299161628
18186145 218 17967245429940277879
18522853 295 18409737239944981091
19422 9 17895202073281274643
20201158 50 18272935981536591551
20233049 118 18115021896646006308
20281407 28 18200599098860682022
20361792 2 18333445434938568359
20645477 70 18338229500832347271
20871998 22 18341331106905967818
20871999 31 18336555910505115310
21501502 16 18269275823629127397
21501925 9 18341602759092083955
21524375 3 17617375521070723424
2255824 54 18041002894371000038
23184049 29 18338230600016823259
232386 152 18334573534037718302
23402539 116 18198892622201194142
23463225 33 18335984155732041431
23532345 42 18342730811051913530
23552423 10 18117280465723697797
23557571 272 18128538168213166956
23559900 14 18197213655878615478
2748010 2 18337103583523803397
57812782 119 17346593045873712235
5902787 121 18408880745993061330
7364860 26 18270682111622503024
74978 22 18408885165741164603
77492 1 17604155800737914154
81228 2 18054238630636596408
81539 233 18046059634378908892

>  <PUBCHEM_SHAPE_MULTIPOLES>  (1) 
281.11
6.07
1.99
0.95
1.75
0.96
-0.11
-2.43
-0.02
-0.22
0.03
-0.79
-0.19
-0.02

>  <PUBCHEM_SHAPE_SELFOVERLAP>  (1) 
595.54

>  <PUBCHEM_SHAPE_VOLUME>  (1) 
158.2

>  <PUBCHEM_COORDINATE_TYPE>  (1) 
2
5
10

$$$$
