40713
     RDKit          3D

 11 11  0  0  0  0  0  0  0  0999 V2000
    2.9827    1.4395    0.8819 Cl  0  0  0  0  0  0  0  0  0  0  0  0
    0.6588    0.1343   -0.6515 O   0  0  0  0  0  0  0  0  0  0  0  0
   -0.6623    0.0640   -0.3316 C   0  0  0  0  0  0  0  0  0  0  0  0
   -1.2092   -1.1397    0.1131 C   0  0  0  0  0  0  0  0  0  0  0  0
   -1.4695    1.1954   -0.4494 C   0  0  0  0  0  0  0  0  0  0  0  0
    1.5441   -0.7364    0.0513 C   0  0  0  0  0  0  0  0  0  0  0  0
   -2.5634   -1.2119    0.4400 C   0  0  0  0  0  0  0  0  0  0  0  0
   -2.8236    1.1232   -0.1225 C   0  0  0  0  0  0  0  0  0  0  0  0
   -3.3705   -0.0805    0.3222 C   0  0  0  0  0  0  0  0  0  0  0  0
    2.9024   -0.1159    0.1251 C   0  0  0  0  0  0  0  0  0  0  0  0
    4.0106   -0.6718   -0.3787 C   0  0  0  0  0  0  0  0  0  0  0  0
  1 10  1  0
  2  3  1  0
  2  6  1  0
  3  4  2  0
  3  5  1  0
  4  7  1  0
  5  8  2  0
  6 10  1  0
  7  9  2  0
  8  9  1  0
 10 11  2  0
M  END
>  <PUBCHEM_COMPOUND_CID>  (1) 
40713

>  <PUBCHEM_CONFORMER_RMSD>  (1) 
0.6

>  <PUBCHEM_CONFORMER_DIVERSEORDER>  (1) 
3
8
7
15
2
16
4
6
11
5
1
9
18
19
10
13
17
12
14

>  <PUBCHEM_MMFF94_PARTIAL_CHARGES>  (1) 
17
1 -0.14
11 -0.3
12 0.15
13 0.15
16 0.15
17 0.15
18 0.15
19 0.15
2 -0.36
20 0.15
3 0.08
4 -0.15
5 -0.15
6 0.42
7 -0.15
8 -0.15
9 -0.15

>  <PUBCHEM_EFFECTIVE_ROTOR_COUNT>  (1) 
3

>  <PUBCHEM_PHARMACOPHORE_FEATURES>  (1) 
2
1 2 acceptor
6 3 4 5 7 8 9 rings

>  <PUBCHEM_HEAVY_ATOM_COUNT>  (1) 
11

>  <PUBCHEM_ATOM_DEF_STEREO_COUNT>  (1) 
0

>  <PUBCHEM_ATOM_UDEF_STEREO_COUNT>  (1) 
0

>  <PUBCHEM_BOND_DEF_STEREO_COUNT>  (1) 
0

>  <PUBCHEM_BOND_UDEF_STEREO_COUNT>  (1) 
0

>  <PUBCHEM_ISOTOPIC_ATOM_COUNT>  (1) 
0

>  <PUBCHEM_COMPONENT_COUNT>  (1) 
1

>  <PUBCHEM_CACTVS_TAUTO_COUNT>  (1) 
1

>  <PUBCHEM_CONFORMER_ID>  (1) 
00009F0900000003

>  <PUBCHEM_MMFF94_ENERGY>  (1) 
29.3027

>  <PUBCHEM_FEATURE_SELFOVERLAP>  (1) 
10.148

>  <PUBCHEM_SHAPE_FINGERPRINT>  (1) 
10608611 8 18412539907858333736
10857977 72 18260264183061684689
11062470 55 13406796622790816550
12500047 106 18261105219183414495
12932764 1 17822282466564302520
13024252 1 13695872515379708055
14144814 61 18186799162605851266
14325111 11 18410292510369919334
15219456 202 18343299292786068512
15775835 57 18114745927875293906
18175812 5 18342176678339186470
18186145 218 17988928868460011026
20201158 50 18272089361925429494
20528008 55 18410568500752546773
20645464 45 18272657822464245103
20871998 184 18341619269231778239
23402539 116 18413383233988624487
3248919 1 17312822697130088730
369184 2 18341891892148431619
6333449 129 18409727348645568671
75552 356 18260552229433342719

>  <PUBCHEM_SHAPE_MULTIPOLES>  (1) 
222.38
6.8
1.42
0.79
3.49
0.23
0.05
0.09
0.59
-0.12
0.15
0.16
0.1
0.73

>  <PUBCHEM_SHAPE_SELFOVERLAP>  (1) 
443.652

>  <PUBCHEM_SHAPE_VOLUME>  (1) 
132.3

>  <PUBCHEM_COORDINATE_TYPE>  (1) 
2
5
10

$$$$
