40711
     RDKit          3D

 23 25  0  0  1  0  0  0  0  0999 V2000
    1.2562    2.1387    1.7875 Cl  0  0  0  0  0  0  0  0  0  0  0  0
    5.4314   -0.8316    0.0774 S   0  0  0  0  0  0  0  0  0  0  0  0
   -0.2258    2.7610   -0.8494 O   0  0  0  0  0  0  0  0  0  0  0  0
    5.9380   -0.4377    1.3845 O   0  0  0  0  0  0  0  0  0  0  0  0
    5.6061   -2.2021   -0.3831 O   0  0  0  0  0  0  0  0  0  0  0  0
   -2.5677    0.3029   -0.1600 N   0  0  0  0  0  0  0  0  0  0  0  0
   -0.3368    0.4928   -0.2063 N   0  0  0  0  0  0  0  0  0  0  0  0
    6.0668    0.2283   -1.1025 N   0  0  0  0  0  0  0  0  0  0  0  0
   -1.3931   -0.4622    0.0618 C   0  0  0  0  0  0  0  0  0  0  0  0
   -2.3576    1.6528   -0.5416 C   0  0  0  0  0  0  0  0  0  0  0  0
   -0.8502    1.7489   -0.5641 C   0  0  0  0  0  0  0  0  0  0  0  0
    1.0191    0.2004   -0.1196 C   0  0  0  0  0  0  0  0  0  0  0  0
   -3.8596   -0.2426   -0.0079 C   0  0  0  0  0  0  0  0  0  0  0  0
    1.8573    0.8884    0.7577 C   0  0  0  0  0  0  0  0  0  0  0  0
    1.5378   -0.8045   -0.9361 C   0  0  0  0  0  0  0  0  0  0  0  0
    3.7330   -0.4336    0.0021 C   0  0  0  0  0  0  0  0  0  0  0  0
   -4.9831    0.5522   -0.2349 C   0  0  0  0  0  0  0  0  0  0  0  0
   -4.0138   -1.5768    0.3685 C   0  0  0  0  0  0  0  0  0  0  0  0
    3.2143    0.5713    0.8187 C   0  0  0  0  0  0  0  0  0  0  0  0
    2.8948   -1.1215   -0.8751 C   0  0  0  0  0  0  0  0  0  0  0  0
   -6.2608    0.0128   -0.0857 C   0  0  0  0  0  0  0  0  0  0  0  0
   -5.2914   -2.1162    0.5177 C   0  0  0  0  0  0  0  0  0  0  0  0
   -6.4149   -1.3214    0.2906 C   0  0  0  0  0  0  0  0  0  0  0  0
  1 14  1  0
  2  4  2  0
  2  5  2  0
  2  8  1  0
  2 16  1  0
  3 11  2  0
  6  9  1  0
  6 10  1  0
  6 13  1  0
  7  9  1  0
  7 11  1  0
  7 12  1  0
 10 11  1  0
 12 14  2  0
 12 15  1  0
 13 17  2  0
 13 18  1  0
 14 19  1  0
 15 20  2  0
 16 19  2  0
 16 20  1  0
 17 21  1  0
 18 22  2  0
 21 23  2  0
 22 23  1  0
M  END
>  <PUBCHEM_COMPOUND_CID>  (1) 
40711

>  <PUBCHEM_CONFORMER_RMSD>  (1) 
0.6

>  <PUBCHEM_CONFORMER_DIVERSEORDER>  (1) 
1
23
36
26
28
31
24
35
21
27
32
9
20
6
34
11
19
38
15
2
30
37
13
5
3
17
16
33
12
4
22
18
14
29
8
7
25
10

>  <PUBCHEM_MMFF94_PARTIAL_CHARGES>  (1) 
33
1 -0.18
10 0.43
11 0.57
12 0.12
13 0.1
14 0.18
15 -0.15
16 -0.01
17 -0.15
18 -0.15
19 -0.15
2 1.45
20 -0.15
21 -0.15
22 -0.15
23 -0.15
28 0.15
29 0.15
3 -0.57
30 0.15
31 0.15
32 0.15
33 0.15
34 0.15
35 0.15
36 0.42
37 0.42
4 -0.65
5 -0.65
6 -0.84
7 -0.48
8 -0.98
9 0.67

>  <PUBCHEM_EFFECTIVE_ROTOR_COUNT>  (1) 
3.8

>  <PUBCHEM_PHARMACOPHORE_FEATURES>  (1) 
8
1 3 acceptor
1 4 acceptor
1 5 acceptor
1 6 cation
1 8 donor
5 6 7 9 10 11 rings
6 12 14 15 16 19 20 rings
6 13 17 18 21 22 23 rings

>  <PUBCHEM_HEAVY_ATOM_COUNT>  (1) 
23

>  <PUBCHEM_ATOM_DEF_STEREO_COUNT>  (1) 
0

>  <PUBCHEM_ATOM_UDEF_STEREO_COUNT>  (1) 
0

>  <PUBCHEM_BOND_DEF_STEREO_COUNT>  (1) 
0

>  <PUBCHEM_BOND_UDEF_STEREO_COUNT>  (1) 
0

>  <PUBCHEM_ISOTOPIC_ATOM_COUNT>  (1) 
0

>  <PUBCHEM_COMPONENT_COUNT>  (1) 
1

>  <PUBCHEM_CACTVS_TAUTO_COUNT>  (1) 
1

>  <PUBCHEM_CONFORMER_ID>  (1) 
00009F0700000001

>  <PUBCHEM_MMFF94_ENERGY>  (1) 
71.3975

>  <PUBCHEM_FEATURE_SELFOVERLAP>  (1) 
40.614

>  <PUBCHEM_SHAPE_FINGERPRINT>  (1) 
10 15 18200863063819846650
10693767 8 14490735833619090856
11045977 3 18343016731483195459
11315181 36 18411986875585428465
11524674 6 17275103938144982671
11545043 162 18410008858419763993
11796584 16 18187361008642401706
12035758 1 17916850401282010146
12236239 1 16805321071989442532
12516196 113 18201720656323226577
12616971 3 16487251110344437953
12633257 1 16988561346542694127
12788726 201 15719657780892588829
13288520 33 18333732429744735359
13402501 40 18412265034241342103
13464513 79 18410574011137552288
13685833 64 18335706065795981315
13740256 8 18334016129208498263
13782708 43 18341889688519336255
13899415 154 17632302302335477928
1420 363 18342740714792986327
14251752 14 17313376799862200823
14294032 229 16951672599305416605
14341114 176 18060420252564256409
14386348 63 18410856564404385295
15183329 4 10737278031114661614
15475509 35 18115005430670108050
15527383 91 18131349730513322065
15927050 60 17621884614198493444
17492 89 18122623847812722886
1813 80 17676201407759691229
18222031 100 18187363250630920201
18335252 98 18411704288407594206
18785283 64 18057877138289089912
19141452 34 18130504223568137927
20028762 73 17774717675215350871
20374829 77 18334012791881850099
21033648 29 17845638305947836097
21049683 271 18340493373778508976
21150785 3 17386013866888461854
21267235 1 18187651345233532403
21521239 73 14129053712412474640
21623969 137 17918276432965725694
21792961 116 18129942270326262316
22224240 67 17346590889747648822
2297311 6 18408608032596660277
23035841 295 18040996237335345043
23198884 109 14707207708670557663
23402539 116 18187642496630198919
23522609 53 18193870130411664612
23557571 272 18338798909804626181
23559900 14 18335980969493899377
23622692 88 16558750126399586685
26918003 58 18131632292406759747
2838139 119 8430314597834808266
293599 30 10231756690845397927
29717793 49 16008747983547852874
3004659 81 17821730545796864134
329604 57 18411141325094523772
335352 9 18333730222516660989
3472631 163 11671771702503790194
4325135 7 18260271863112004924
4340502 62 15051737494794650111
465052 167 18343304769043593742
5104073 3 18058444305952669338
559249 180 18260827099578722059
5718773 13 18266738164231874167
59682541 35 18271795849089000586
59755656 215 18187925045486494115
7495541 125 18411699911218702088
8863177 126 18269837673860424659
9709674 26 17972886036629385131
999808 66 17386301977800693819

>  <PUBCHEM_SHAPE_MULTIPOLES>  (1) 
446.5
15.76
2.14
1.08
2.51
0.56
-0.22
-9.18
-1.11
0.32
-0.08
-0.92
0.35
1.25

>  <PUBCHEM_SHAPE_SELFOVERLAP>  (1) 
949.253

>  <PUBCHEM_SHAPE_VOLUME>  (1) 
251.2

>  <PUBCHEM_COORDINATE_TYPE>  (1) 
2
5
10

$$$$
