40714
     RDKit          3D

 12 11  0  0  0  0  0  0  0  0999 V2000
    3.7631    1.4897   -0.1248 O   0  0  0  0  0  0  0  0  0  0  0  0
   -1.6761    0.2425   -0.0253 N   0  0  0  0  0  0  0  0  0  0  0  0
   -0.8280   -0.1138   -1.1575 C   0  0  0  0  0  0  0  0  0  0  0  0
   -0.4036   -1.5811   -1.0584 C   0  0  0  0  0  0  0  0  0  0  0  0
   -2.8800   -0.5896   -0.0020 C   0  0  0  0  0  0  0  0  0  0  0  0
   -2.0388    1.6595   -0.0795 C   0  0  0  0  0  0  0  0  0  0  0  0
    0.3699   -1.8874    0.2260 C   0  0  0  0  0  0  0  0  0  0  0  0
   -3.7418   -0.2746    1.2089 C   0  0  0  0  0  0  0  0  0  0  0  0
   -0.8024    2.5422   -0.1045 C   0  0  0  0  0  0  0  0  0  0  0  0
    1.6364   -1.1465    0.3037 C   0  0  0  0  0  0  0  0  0  0  0  0
    2.6711   -0.5402    0.3682 C   0  0  0  0  0  0  0  0  0  0  0  0
    3.9303    0.1993    0.4451 C   0  0  0  0  0  0  0  0  0  0  0  0
  1 12  1  0
  2  3  1  0
  2  5  1  0
  2  6  1  0
  3  4  1  0
  4  7  1  0
  5  8  1  0
  6  9  1  0
  7 10  1  0
 10 11  3  0
 11 12  1  0
M  END
>  <PUBCHEM_COMPOUND_CID>  (1) 
40714

>  <PUBCHEM_CONFORMER_RMSD>  (1) 
0.6

>  <PUBCHEM_CONFORMER_DIVERSEORDER>  (1) 
3
17
32
24
23
34
2
11
28
7
35
10
9
33
22
4
18
19
14
29
5
21
25
1
12
20
13
30
27
26
31
8
6
16
15

>  <PUBCHEM_MMFF94_PARTIAL_CHARGES>  (1) 
10
1 -0.68
10 -0.2
11 -0.2
12 0.48
2 -0.81
3 0.27
31 0.4
5 0.27
6 0.27
7 0.2

>  <PUBCHEM_EFFECTIVE_ROTOR_COUNT>  (1) 
5

>  <PUBCHEM_PHARMACOPHORE_FEATURES>  (1) 
3
1 1 acceptor
1 1 donor
1 2 cation

>  <PUBCHEM_HEAVY_ATOM_COUNT>  (1) 
12

>  <PUBCHEM_ATOM_DEF_STEREO_COUNT>  (1) 
0

>  <PUBCHEM_ATOM_UDEF_STEREO_COUNT>  (1) 
0

>  <PUBCHEM_BOND_DEF_STEREO_COUNT>  (1) 
0

>  <PUBCHEM_BOND_UDEF_STEREO_COUNT>  (1) 
0

>  <PUBCHEM_ISOTOPIC_ATOM_COUNT>  (1) 
0

>  <PUBCHEM_COMPONENT_COUNT>  (1) 
1

>  <PUBCHEM_CACTVS_TAUTO_COUNT>  (1) 
1

>  <PUBCHEM_CONFORMER_ID>  (1) 
00009F0A00000003

>  <PUBCHEM_MMFF94_ENERGY>  (1) 
8.0725

>  <PUBCHEM_FEATURE_SELFOVERLAP>  (1) 
15.223

>  <PUBCHEM_SHAPE_FINGERPRINT>  (1) 
11132069 177 18343299279674417147
13549 16 10807941440029271131
13618510 140 18267858394264310852
13897977 13 18335420166391006509
14648413 74 17693657017743532823
14787075 74 17896607386612272083
15207287 21 12107783012464594170
15775835 57 18201999928081889242
17834072 14 14923948989403050851
18511873 20 10375869684045337507
19973954 147 18051691040503684511
20344682 10 18334021583653888659
20645477 56 18059849610851863474
20828058 19 11386363738330349474
20828058 43 18267302028042002166
21524375 3 18201148893371694582
21652331 79 18409728491217847016
22218785 32 10807933713815343177
22959321 28 18409726249028426338
22959321 45 18342177795004367882
23419403 2 17031617324244297947
3084891 8 10518894109695448499
81228 2 17626916988350191814
9882013 296 17676211290199656066

>  <PUBCHEM_SHAPE_MULTIPOLES>  (1) 
236.1
6.32
2.25
0.99
3.7
1.09
-0.06
1.31
2.11
-0.13
-0.21
-0.49
-0.23
0.03

>  <PUBCHEM_SHAPE_SELFOVERLAP>  (1) 
432.836

>  <PUBCHEM_SHAPE_VOLUME>  (1) 
150.2

>  <PUBCHEM_COORDINATE_TYPE>  (1) 
2
5
10

$$$$
