40729
     RDKit          3D

 11 11  0  0  1  0  0  0  0  0999 V2000
    2.0101    0.3777   -1.7052 O   0  0  0  0  0  0  0  0  0  0  0  0
   -2.4257   -1.9990   -0.3063 O   0  0  0  0  0  0  0  0  0  0  0  0
    3.0732   -1.0760    1.1750 N   0  0  0  0  0  0  0  0  0  0  0  0
    0.2354    0.5034   -0.1009 C   0  0  0  0  0  0  0  0  0  0  0  0
    1.7060    0.6102   -0.3232 C   0  0  0  0  0  0  0  0  0  0  0  0
   -0.4151   -0.7126   -0.3109 C   0  0  0  0  0  0  0  0  0  0  0  0
   -0.4896    1.6191    0.3177 C   0  0  0  0  0  0  0  0  0  0  0  0
   -1.7907   -0.8127   -0.1021 C   0  0  0  0  0  0  0  0  0  0  0  0
   -1.8651    1.5191    0.5264 C   0  0  0  0  0  0  0  0  0  0  0  0
   -2.5156    0.3032    0.3165 C   0  0  0  0  0  0  0  0  0  0  0  0
    2.4770   -0.3325    0.5128 C   0  0  0  0  0  0  0  0  0  0  0  0
  1  5  1  0
  2  8  1  0
  3 11  3  0
  4  5  1  0
  4  6  2  0
  4  7  1  0
  5 11  1  0
  6  8  1  0
  7  9  2  0
  8 10  2  0
  9 10  1  0
M  END
>  <PUBCHEM_COMPOUND_CID>  (1) 
40729

>  <PUBCHEM_CONFORMER_RMSD>  (1) 
0.4

>  <PUBCHEM_CONFORMER_DIVERSEORDER>  (1) 
1
9
7
6
10
3
2
8
4
5

>  <PUBCHEM_MMFF94_PARTIAL_CHARGES>  (1) 
17
1 -0.68
10 -0.15
11 0.36
13 0.15
14 0.15
15 0.15
16 0.15
17 0.4
18 0.45
2 -0.53
3 -0.56
4 -0.14
5 0.62
6 -0.15
7 -0.15
8 0.08
9 -0.15

>  <PUBCHEM_EFFECTIVE_ROTOR_COUNT>  (1) 
1

>  <PUBCHEM_PHARMACOPHORE_FEATURES>  (1) 
5
1 1 acceptor
1 1 donor
1 2 donor
1 3 acceptor
6 4 6 7 8 9 10 rings

>  <PUBCHEM_HEAVY_ATOM_COUNT>  (1) 
11

>  <PUBCHEM_ATOM_DEF_STEREO_COUNT>  (1) 
0

>  <PUBCHEM_ATOM_UDEF_STEREO_COUNT>  (1) 
1

>  <PUBCHEM_BOND_DEF_STEREO_COUNT>  (1) 
0

>  <PUBCHEM_BOND_UDEF_STEREO_COUNT>  (1) 
0

>  <PUBCHEM_ISOTOPIC_ATOM_COUNT>  (1) 
0

>  <PUBCHEM_COMPONENT_COUNT>  (1) 
1

>  <PUBCHEM_CACTVS_TAUTO_COUNT>  (1) 
3

>  <PUBCHEM_CONFORMER_ID>  (1) 
00009F1900000001

>  <PUBCHEM_MMFF94_ENERGY>  (1) 
21.4864

>  <PUBCHEM_FEATURE_SELFOVERLAP>  (1) 
25.371

>  <PUBCHEM_SHAPE_FINGERPRINT>  (1) 
10857977 72 17846499270074097473
12716758 59 17986684674774898605
12932764 1 18260840301353492476
14128692 85 18186513324100662370
15310529 11 17458641020206673317
16945 1 18271535208218043681
20361792 2 16950838086415659762
20645464 45 17417808392355659192
20871998 184 18060414737668012135
21040471 1 18126861399410370781
22445834 79 18188767232722308314
23402539 116 18058428942865440933
23552423 10 18118972635435692341
2748010 2 18127691754349374981
29004967 10 16272215184277127144
369184 2 18412819175031768425
5084963 1 17894624859588222612
8030462 33 18187373180663581660

>  <PUBCHEM_SHAPE_MULTIPOLES>  (1) 
209.66
4.2
1.64
1
1.62
0.17
0.2
1.12
-0.78
-1.09
-0.11
0.78
0
-0.68

>  <PUBCHEM_SHAPE_SELFOVERLAP>  (1) 
436.301

>  <PUBCHEM_SHAPE_VOLUME>  (1) 
117.4

>  <PUBCHEM_COORDINATE_TYPE>  (1) 
2
5
10

$$$$
