40720
     RDKit          3D

 20 20  0  0  1  0  0  0  0  0999 V2000
    3.4073   -2.0328   -1.3722 O   0  0  0  0  0  0  0  0  0  0  0  0
   -2.8559    0.4117   -0.0313 N   0  0  0  0  0  0  0  0  0  0  0  0
   -1.9071   -0.5466    0.5874 C   0  0  0  0  0  0  0  0  0  0  0  0
   -2.5113    0.6436   -1.5091 C   0  0  0  0  0  0  0  0  0  0  0  0
   -4.2943   -0.1189    0.0453 C   0  0  0  0  0  0  0  0  0  0  0  0
   -2.8089    1.7672    0.6875 C   0  0  0  0  0  0  0  0  0  0  0  0
   -1.9876   -1.8749   -0.1564 C   0  0  0  0  0  0  0  0  0  0  0  0
   -3.4745    1.6539   -2.0928 C   0  0  0  0  0  0  0  0  0  0  0  0
   -4.6612   -0.3568    1.4937 C   0  0  0  0  0  0  0  0  0  0  0  0
   -1.4192    2.3516    0.5585 C   0  0  0  0  0  0  0  0  0  0  0  0
   -1.0023   -2.9117    0.3860 C   0  0  0  0  0  0  0  0  0  0  0  0
    0.3940   -2.4871    0.2187 C   0  0  0  0  0  0  0  0  0  0  0  0
    1.5302   -2.1229    0.0814 C   0  0  0  0  0  0  0  0  0  0  0  0
    2.9133   -1.6554   -0.0876 C   0  0  0  0  0  0  0  0  0  0  0  0
    3.0179   -0.1552    0.0621 C   0  0  0  0  0  0  0  0  0  0  0  0
    2.8749    0.6491   -1.0566 C   0  0  0  0  0  0  0  0  0  0  0  0
    3.2541    0.3862    1.3150 C   0  0  0  0  0  0  0  0  0  0  0  0
    2.9712    2.0337   -0.9186 C   0  0  0  0  0  0  0  0  0  0  0  0
    3.3503    1.7709    1.4530 C   0  0  0  0  0  0  0  0  0  0  0  0
    3.2088    2.5946    0.3361 C   0  0  0  0  0  0  0  0  0  0  0  0
  1 14  1  0
  2  3  1  0
  2  4  1  0
  2  5  1  0
  2  6  1  0
  3  7  1  0
  4  8  1  0
  5  9  1  0
  6 10  1  0
  7 11  1  0
 11 12  1  0
 12 13  3  0
 13 14  1  0
 14 15  1  0
 15 16  2  0
 15 17  1  0
 16 18  1  0
 17 19  2  0
 18 20  2  0
 19 20  1  0
M  CHG  1   2   1
M  END
>  <PUBCHEM_COMPOUND_CID>  (1) 
40720

>  <PUBCHEM_CONFORMER_RMSD>  (1) 
0.8

>  <PUBCHEM_CONFORMER_DIVERSEORDER>  (1) 
1
35
11
56
24
15
41
60
8
38
55
5
12
10
16
7
22
25
50
30
37
51
19
13
14
4
39
52
20
2
27
28
17
6
9
3
44
26
54
49
42
34
43
59
23
33
40
18
45
32
21
58
48
47
31
36
57
46
29
53

>  <PUBCHEM_MMFF94_PARTIAL_CHARGES>  (1) 
22
1 -0.68
11 0.2
12 -0.2
13 -0.2
14 0.62
15 -0.14
16 -0.15
17 -0.15
18 -0.15
19 -0.15
2 -1.01
20 -0.15
3 0.5
4 0.5
43 0.15
44 0.15
45 0.4
46 0.15
47 0.15
48 0.15
5 0.5
6 0.5

>  <PUBCHEM_EFFECTIVE_ROTOR_COUNT>  (1) 
7

>  <PUBCHEM_PHARMACOPHORE_FEATURES>  (1) 
4
1 1 acceptor
1 1 donor
1 2 cation
6 15 16 17 18 19 20 rings

>  <PUBCHEM_HEAVY_ATOM_COUNT>  (1) 
20

>  <PUBCHEM_ATOM_DEF_STEREO_COUNT>  (1) 
0

>  <PUBCHEM_ATOM_UDEF_STEREO_COUNT>  (1) 
1

>  <PUBCHEM_BOND_DEF_STEREO_COUNT>  (1) 
0

>  <PUBCHEM_BOND_UDEF_STEREO_COUNT>  (1) 
0

>  <PUBCHEM_ISOTOPIC_ATOM_COUNT>  (1) 
0

>  <PUBCHEM_COMPONENT_COUNT>  (1) 
1

>  <PUBCHEM_CACTVS_TAUTO_COUNT>  (1) 
1

>  <PUBCHEM_CONFORMER_ID>  (1) 
00009F1000000001

>  <PUBCHEM_MMFF94_ENERGY>  (1) 
59.1298

>  <PUBCHEM_FEATURE_SELFOVERLAP>  (1) 
20.297

>  <PUBCHEM_SHAPE_FINGERPRINT>  (1) 
10498660 4 18267870668927051154
10670039 82 17974859676970090036
11370993 70 18335685148719823756
12173636 292 18272652338033601115
12539773 59 17561369444046826257
13122387 1 18339922731016018440
13583140 156 16950824956421061115
14468879 13 17822280246377810989
14957384 54 17896013543058953512
1798214 55 18339924912895834464
18186145 218 18339361864084598055
18219364 16 18261393287024712151
18981168 100 18409161130158952486
19930381 70 18411703188299672833
20715895 44 18044913728720103997
21623110 236 18339927129758563083
21864079 5 18199464381369877515
22749437 52 18337660984110452908
23503958 25 18041282071471746183
23559900 14 18342458127751931902
238 59 18194943180860974591
3187 122 17610899371849937427
3524813 1 18261112937292587974
44154327 71 18337117859572926761
49207404 50 18261120685577152747
7808743 9 17973453388549693068

>  <PUBCHEM_SHAPE_MULTIPOLES>  (1) 
400.74
8.87
3.45
1.51
2.41
0.89
-0.33
-2.98
0.6
-1.34
-0.05
0.48
-0.65
1.3

>  <PUBCHEM_SHAPE_SELFOVERLAP>  (1) 
795.587

>  <PUBCHEM_SHAPE_VOLUME>  (1) 
239.2

>  <PUBCHEM_COORDINATE_TYPE>  (1) 
2
5
10

$$$$
