40732
     RDKit          3D

 12 13  0  0  0  0  0  0  0  0999 V2000
   -3.4961    0.7400    0.0005 O   0  0  0  0  0  0  0  0  0  0  0  0
    2.8605    0.6888   -0.0003 N   0  0  0  0  0  0  0  0  0  0  0  0
    1.0765   -0.6508    0.0001 C   0  0  0  0  0  0  0  0  0  0  0  0
    1.4838    0.6850   -0.0001 C   0  0  0  0  0  0  0  0  0  0  0  0
   -1.2211    0.1167   -0.0001 C   0  0  0  0  0  0  0  0  0  0  0  0
   -0.3028   -0.9394    0.0000 C   0  0  0  0  0  0  0  0  0  0  0  0
    0.5771    1.7509   -0.0001 C   0  0  0  0  0  0  0  0  0  0  0  0
    2.2558   -1.4470    0.0005 C   0  0  0  0  0  0  0  0  0  0  0  0
   -0.7857    1.4404    0.0001 C   0  0  0  0  0  0  0  0  0  0  0  0
    3.3362   -0.5950    0.0000 C   0  0  0  0  0  0  0  0  0  0  0  0
   -2.6469   -0.1730   -0.0002 C   0  0  0  0  0  0  0  0  0  0  0  0
   -3.1373   -1.6166   -0.0004 C   0  0  0  0  0  0  0  0  0  0  0  0
  1 11  2  0
  2  4  1  0
  2 10  1  0
  3  4  2  0
  3  6  1  0
  3  8  1  0
  4  7  1  0
  5  6  2  0
  5  9  1  0
  5 11  1  0
  7  9  2  0
  8 10  2  0
 11 12  1  0
M  END
>  <PUBCHEM_COMPOUND_CID>  (1) 
40732

>  <PUBCHEM_CONFORMER_RMSD>  (1) 
0.4

>  <PUBCHEM_CONFORMER_DIVERSEORDER>  (1) 
1
3
2
4

>  <PUBCHEM_MMFF94_PARTIAL_CHARGES>  (1) 
17
1 -0.57
10 -0.3
11 0.42
12 0.06
13 0.15
14 0.15
15 0.15
16 0.27
17 0.15
18 0.15
2 0.03
4 -0.15
5 0.09
6 -0.15
7 -0.15
8 -0.15
9 -0.15

>  <PUBCHEM_EFFECTIVE_ROTOR_COUNT>  (1) 
1

>  <PUBCHEM_PHARMACOPHORE_FEATURES>  (1) 
5
1 1 acceptor
1 2 cation
1 2 donor
5 2 3 4 8 10 rings
6 3 4 5 6 7 9 rings

>  <PUBCHEM_HEAVY_ATOM_COUNT>  (1) 
12

>  <PUBCHEM_ATOM_DEF_STEREO_COUNT>  (1) 
0

>  <PUBCHEM_ATOM_UDEF_STEREO_COUNT>  (1) 
0

>  <PUBCHEM_BOND_DEF_STEREO_COUNT>  (1) 
0

>  <PUBCHEM_BOND_UDEF_STEREO_COUNT>  (1) 
0

>  <PUBCHEM_ISOTOPIC_ATOM_COUNT>  (1) 
0

>  <PUBCHEM_COMPONENT_COUNT>  (1) 
1

>  <PUBCHEM_CACTVS_TAUTO_COUNT>  (1) 
9

>  <PUBCHEM_CONFORMER_ID>  (1) 
00009F1C00000001

>  <PUBCHEM_MMFF94_ENERGY>  (1) 
24.3318

>  <PUBCHEM_FEATURE_SELFOVERLAP>  (1) 
25.463

>  <PUBCHEM_SHAPE_FINGERPRINT>  (1) 
10130415 120 18335980882940179145
10219947 1 18201721742870850679
11132069 177 18412258424180587514
11471102 20 18409443678740200733
11769659 78 18410005546298689659
12032990 46 18411987957294980510
12932764 1 17313375712961141991
14128692 85 18411140259515139125
14144814 61 18412545414016709939
14325111 11 18410574006673766881
16945 1 18410856525406775172
17844478 74 17967538960684518541
193761 8 17473826607257490694
20201158 50 18408603647503687579
20645477 70 18412258420202592735
20871998 22 18271253720251046742
21501502 16 18336551641529220741
21501925 9 18339069501370872003
23402539 116 18410001127215198598
23402655 69 18268132190288013085
23463225 33 18410012109066603838
23552423 10 18260832621872443079
23559900 14 18339637838046829634
2748010 2 18410852195963585957
3312278 4 18410858754536889531
528886 8 18411976953467221619
63268167 104 18411985771103736649
7364860 26 18198061593321946696
8809292 202 18260835894796213667

>  <PUBCHEM_SHAPE_MULTIPOLES>  (1) 
236.1
5.3
1.71
0.6
1.36
0.14
0
-1.42
0
0.15
0
-0.01
-0.01
0

>  <PUBCHEM_SHAPE_SELFOVERLAP>  (1) 
517.135

>  <PUBCHEM_SHAPE_VOLUME>  (1) 
129.8

>  <PUBCHEM_COORDINATE_TYPE>  (1) 
2
5
10

$$$$
