40734
     RDKit          3D

 21 21  0  0  0  0  0  0  0  0999 V2000
   -0.0933   -0.0630   -0.8334 O   0  0  0  0  0  0  0  0  0  0  0  0
    1.6380   -2.8964   -1.2999 O   0  0  0  0  0  0  0  0  0  0  0  0
    0.7008   -2.9459    0.7704 O   0  0  0  0  0  0  0  0  0  0  0  0
   -3.6089   -0.2604    0.2564 N   0  0  0  0  0  0  0  0  0  0  0  0
    0.9027    2.5845   -0.5888 C   0  0  0  0  0  0  0  0  0  0  0  0
    1.6926    1.3829   -0.1860 C   0  0  0  0  0  0  0  0  0  0  0  0
   -2.4732   -0.2347   -0.6646 C   0  0  0  0  0  0  0  0  0  0  0  0
    1.1671    0.1007   -0.3210 C   0  0  0  0  0  0  0  0  0  0  0  0
   -1.1682   -0.0653    0.0970 C   0  0  0  0  0  0  0  0  0  0  0  0
   -3.6682    0.9795    1.0295 C   0  0  0  0  0  0  0  0  0  0  0  0
   -4.8572   -0.4654   -0.4773 C   0  0  0  0  0  0  0  0  0  0  0  0
    1.9145   -1.0104    0.0598 C   0  0  0  0  0  0  0  0  0  0  0  0
    2.9757    1.5552    0.3332 C   0  0  0  0  0  0  0  0  0  0  0  0
    3.1975   -0.8379    0.5791 C   0  0  0  0  0  0  0  0  0  0  0  0
    1.5745    3.3738   -1.7273 C   0  0  0  0  0  0  0  0  0  0  0  0
    0.6130    3.5213    0.5984 C   0  0  0  0  0  0  0  0  0  0  0  0
    3.7280    0.4448    0.7159 C   0  0  0  0  0  0  0  0  0  0  0  0
   -4.8064    0.9455    2.0353 C   0  0  0  0  0  0  0  0  0  0  0  0
   -4.8135   -1.7503   -1.2870 C   0  0  0  0  0  0  0  0  0  0  0  0
    4.0278   -2.0078    0.9973 C   0  0  0  0  0  0  0  0  0  0  0  0
    1.3566   -2.3506   -0.0870 C   0  0  0  0  0  0  0  0  0  0  0  0
  1  8  1  0
  1  9  1  0
  2 21  1  0
  3 21  2  0
  4  7  1  0
  4 10  1  0
  4 11  1  0
  5  6  1  0
  5 15  1  0
  5 16  1  0
  6  8  2  0
  6 13  1  0
  7  9  1  0
  8 12  1  0
 10 18  1  0
 11 19  1  0
 12 14  2  0
 12 21  1  0
 13 17  2  0
 14 17  1  0
 14 20  1  0
M  END
>  <PUBCHEM_COMPOUND_CID>  (1) 
40734

>  <PUBCHEM_CONFORMER_RMSD>  (1) 
0.8

>  <PUBCHEM_CONFORMER_DIVERSEORDER>  (1) 
1
67
58
83
60
32
70
30
66
29
33
78
31
80
54
44
37
24
53
50
68
56
61
27
41
79
84
51
48
75
47
3
55
42
49
35
28
63
38
77
9
45
39
5
57
23
11
59
46
81
10
36
34
52
12
17
40
20
8
82
6
43
4
25
2
21
86
7
18
22
15
19
26
14
16
74
72
71
73
62
13
65
69
85
76
64

>  <PUBCHEM_MMFF94_PARTIAL_CHARGES>  (1) 
20
1 -0.36
10 0.27
11 0.27
12 0.09
13 -0.15
14 -0.14
17 -0.15
2 -0.65
20 0.14
21 0.63
3 -0.57
31 0.15
38 0.15
4 -0.81
48 0.5
5 0.14
6 -0.14
7 0.27
8 0.08
9 0.28

>  <PUBCHEM_EFFECTIVE_ROTOR_COUNT>  (1) 
8

>  <PUBCHEM_PHARMACOPHORE_FEATURES>  (1) 
7
1 1 acceptor
1 2 acceptor
1 3 acceptor
1 4 cation
3 2 3 21 anion
3 5 15 16 hydrophobe
6 6 8 12 13 14 17 rings

>  <PUBCHEM_HEAVY_ATOM_COUNT>  (1) 
21

>  <PUBCHEM_ATOM_DEF_STEREO_COUNT>  (1) 
0

>  <PUBCHEM_ATOM_UDEF_STEREO_COUNT>  (1) 
0

>  <PUBCHEM_BOND_DEF_STEREO_COUNT>  (1) 
0

>  <PUBCHEM_BOND_UDEF_STEREO_COUNT>  (1) 
0

>  <PUBCHEM_ISOTOPIC_ATOM_COUNT>  (1) 
0

>  <PUBCHEM_COMPONENT_COUNT>  (1) 
1

>  <PUBCHEM_CACTVS_TAUTO_COUNT>  (1) 
1

>  <PUBCHEM_CONFORMER_ID>  (1) 
00009F1E00000001

>  <PUBCHEM_MMFF94_ENERGY>  (1) 
63.0176

>  <PUBCHEM_FEATURE_SELFOVERLAP>  (1) 
35.579

>  <PUBCHEM_SHAPE_FINGERPRINT>  (1) 
1100329 8 18120931965726302760
12293681 160 16538190672162502670
12553582 1 18264499394609765719
12633257 1 18334014977978311427
12954195 1 17400666194731187900
13134695 92 18040989644397028460
13140716 1 18192711373951454713
13965767 371 17557162605184571897
14251757 5 16394380482368148974
14790565 3 18265619964911359876
14844126 61 16748732228034417363
19377110 9 18130234869310805611
20028762 73 18271791441567474582
20600515 1 17314246478867847094
20645477 70 17968931011240765381
20739085 24 18336272266881571880
21421861 104 17610058966956174554
22182313 1 17553185616256892310
2255824 54 18337115669245341381
23184049 59 18410566306177226330
23559900 14 18339066199210927771
3060560 45 18339642347298065894
312423 11 18270693072927220439
350125 39 17469605569487063164
474 4 18336828697021481137
6443956 14 18336540530074455308
7097593 13 18342183211496074853
7615 1 18272374209047598965
81228 2 17829899728481983312
9709674 26 18409732885175573895

>  <PUBCHEM_SHAPE_MULTIPOLES>  (1) 
409.58
8.92
3.79
1.38
12.36
1.31
-0.09
-2.47
-2.12
-3.15
0.78
1.02
0.35
-1.92

>  <PUBCHEM_SHAPE_SELFOVERLAP>  (1) 
827.667

>  <PUBCHEM_SHAPE_VOLUME>  (1) 
242.4

>  <PUBCHEM_COORDINATE_TYPE>  (1) 
2
5
10

$$$$
