40745
     RDKit          3D

 24 25  0  0  0  0  0  0  0  0999 V2000
    0.8670   -2.3996    0.1695 O   0  0  0  0  0  0  0  0  0  0  0  0
   -0.0936    2.2893    0.3271 O   0  0  0  0  0  0  0  0  0  0  0  0
    0.0691   -1.5403    2.1477 O   0  0  0  0  0  0  0  0  0  0  0  0
   -0.4627    1.0600    2.2352 O   0  0  0  0  0  0  0  0  0  0  0  0
   -2.0284   -0.0255   -0.5739 N   0  0  0  0  0  0  0  0  0  0  0  0
   -2.8249    0.4243   -1.7242 C   0  0  0  0  0  0  0  0  0  0  0  0
   -2.5781   -1.2607    0.0024 C   0  0  0  0  0  0  0  0  0  0  0  0
   -0.6320   -0.2200   -0.9636 C   0  0  0  0  0  0  0  0  0  0  0  0
   -4.2784    0.6797   -1.3225 C   0  0  0  0  0  0  0  0  0  0  0  0
   -4.0235   -1.0603    0.4606 C   0  0  0  0  0  0  0  0  0  0  0  0
    0.3887   -0.0535    0.2086 C   0  0  0  0  0  0  0  0  0  0  0  0
   -4.9010   -0.5539   -0.6784 C   0  0  0  0  0  0  0  0  0  0  0  0
    1.8324    0.2544   -0.2434 C   0  0  0  0  0  0  0  0  0  0  0  0
    0.4125   -1.3948    0.9815 C   0  0  0  0  0  0  0  0  0  0  0  0
   -0.1042    1.1369    1.0669 C   0  0  0  0  0  0  0  0  0  0  0  0
    2.6629    1.0363    0.5597 C   0  0  0  0  0  0  0  0  0  0  0  0
    2.3067   -0.2493   -1.4547 C   0  0  0  0  0  0  0  0  0  0  0  0
    3.9673    1.3144    0.1516 C   0  0  0  0  0  0  0  0  0  0  0  0
    3.6112    0.0288   -1.8627 C   0  0  0  0  0  0  0  0  0  0  0  0
    4.4415    0.8107   -1.0596 C   0  0  0  0  0  0  0  0  0  0  0  0
    0.9297   -3.6986    0.7663 C   0  0  0  0  0  0  0  0  0  0  0  0
   -0.5417    3.4663    1.0064 C   0  0  0  0  0  0  0  0  0  0  0  0
    1.4482   -4.6868   -0.2565 C   0  0  0  0  0  0  0  0  0  0  0  0
   -0.4685    4.6423    0.0559 C   0  0  0  0  0  0  0  0  0  0  0  0
  1 14  1  0
  1 21  1  0
  2 15  1  0
  2 22  1  0
  3 14  2  0
  4 15  2  0
  5  6  1  0
  5  7  1  0
  5  8  1  0
  6  9  1  0
  7 10  1  0
  8 11  1  0
  9 12  1  0
 10 12  1  0
 11 13  1  0
 11 14  1  0
 11 15  1  0
 13 16  2  0
 13 17  1  0
 16 18  1  0
 17 19  2  0
 18 20  2  0
 19 20  1  0
 21 23  1  0
 22 24  1  0
M  END
>  <PUBCHEM_COMPOUND_CID>  (1) 
40745

>  <PUBCHEM_CONFORMER_RMSD>  (1) 
1

>  <PUBCHEM_CONFORMER_DIVERSEORDER>  (1) 
1
29
23
15
41
31
21
13
42
38
2
37
14
7
9
16
34
10
17
30
24
20
22
19
6
27
33
35
18
39
3
28
12
11
8
25
4
36
32
26
5
40

>  <PUBCHEM_MMFF94_PARTIAL_CHARGES>  (1) 
24
1 -0.43
11 0.27
13 -0.14
14 0.66
15 0.66
16 -0.15
17 -0.15
18 -0.15
19 -0.15
2 -0.43
20 -0.15
21 0.28
22 0.28
3 -0.57
37 0.15
38 0.15
39 0.15
4 -0.57
40 0.15
41 0.15
5 -0.81
6 0.27
7 0.27
8 0.27

>  <PUBCHEM_EFFECTIVE_ROTOR_COUNT>  (1) 
10.2

>  <PUBCHEM_PHARMACOPHORE_FEATURES>  (1) 
5
1 3 acceptor
1 4 acceptor
1 5 cation
6 13 16 17 18 19 20 rings
6 5 6 7 9 10 12 rings

>  <PUBCHEM_HEAVY_ATOM_COUNT>  (1) 
24

>  <PUBCHEM_ATOM_DEF_STEREO_COUNT>  (1) 
0

>  <PUBCHEM_ATOM_UDEF_STEREO_COUNT>  (1) 
0

>  <PUBCHEM_BOND_DEF_STEREO_COUNT>  (1) 
0

>  <PUBCHEM_BOND_UDEF_STEREO_COUNT>  (1) 
0

>  <PUBCHEM_ISOTOPIC_ATOM_COUNT>  (1) 
0

>  <PUBCHEM_COMPONENT_COUNT>  (1) 
1

>  <PUBCHEM_CACTVS_TAUTO_COUNT>  (1) 
1

>  <PUBCHEM_CONFORMER_ID>  (1) 
00009F2900000001

>  <PUBCHEM_MMFF94_ENERGY>  (1) 
50.6014

>  <PUBCHEM_FEATURE_SELFOVERLAP>  (1) 
25.38

>  <PUBCHEM_SHAPE_FINGERPRINT>  (1) 
10366900 7 18114732846291081487
10756046 5 18048315535558775111
10906281 52 18055927721447980896
12035758 1 18050569835149006600
12035759 4 18268151950572217660
12173636 292 17614336239451086628
12592029 89 17240758480505746354
12788726 201 18411423916837039232
13149001 5 18050572042735906624
133893 2 17461173058399948378
13911987 19 18263097663339691556
14943834 7 17978794506361738536
15210252 30 18260825990707696069
15502722 9 18187925028121885351
16945 1 18412542085195392384
17357779 13 17917705808011533541
1813 80 17631473278709995061
18186145 218 18339644545989057036
20600515 1 18054769935539922288
21421861 104 18194968439421529307
21521721 280 18264218087289604489
22907989 373 17827962608321673516
229495 10 15005033234586818131
23402539 116 18272364334711914476
23419403 2 17319891607936049425
23558518 356 17904201430015261299
23559900 14 18120355576118741611
23566358 27 18048610221807441107
266924 87 18338242553000134668
283562 15 18341901766405372056
298252 57 17168141290672780380
3380486 77 18338225059777946456
394222 165 17676758829979153512
70251023 43 17986405390248022223
7164475 11 18195523692941229476
81228 2 18200052714812678912
9925002 15 17403457369327724134

>  <PUBCHEM_SHAPE_MULTIPOLES>  (1) 
465.45
7.03
4.58
1.68
3.33
0.8
0.1
-0.4
-3.88
-1.32
1.45
-0.09
-0.09
0.08

>  <PUBCHEM_SHAPE_SELFOVERLAP>  (1) 
955.234

>  <PUBCHEM_SHAPE_VOLUME>  (1) 
267.1

>  <PUBCHEM_COORDINATE_TYPE>  (1) 
2
5
10

$$$$
