40746
     RDKit          3D

 12 13  0  0  1  0  0  0  0  0999 V2000
   -1.7222   -0.8097    0.0072 N   0  0  0  0  0  0  0  0  0  0  0  0
   -1.4764    1.5494   -0.0765 N   0  0  0  0  0  0  0  0  0  0  0  0
   -0.9052    0.2761   -0.5632 C   0  0  0  0  0  0  0  0  0  0  0  0
   -3.0100   -0.1811    0.2964 C   0  0  0  0  0  0  0  0  0  0  0  0
   -2.5702    1.1710    0.8206 C   0  0  0  0  0  0  0  0  0  0  0  0
    0.5685    0.1286   -0.2359 C   0  0  0  0  0  0  0  0  0  0  0  0
   -1.8541   -1.9625   -0.8731 C   0  0  0  0  0  0  0  0  0  0  0  0
    1.5309    0.5893   -1.1337 C   0  0  0  0  0  0  0  0  0  0  0  0
    0.9596   -0.4677    0.9623 C   0  0  0  0  0  0  0  0  0  0  0  0
    2.8862    0.4533   -0.8329 C   0  0  0  0  0  0  0  0  0  0  0  0
    2.3148   -0.6035    1.2632 C   0  0  0  0  0  0  0  0  0  0  0  0
    3.2781   -0.1431    0.3655 C   0  0  0  0  0  0  0  0  0  0  0  0
  1  3  1  0
  1  4  1  0
  1  7  1  0
  2  3  1  0
  2  5  1  0
  3  6  1  0
  4  5  1  0
  6  8  2  0
  6  9  1  0
  8 10  1  0
  9 11  2  0
 10 12  2  0
 11 12  1  0
M  END
>  <PUBCHEM_COMPOUND_CID>  (1) 
40746

>  <PUBCHEM_CONFORMER_RMSD>  (1) 
0.6

>  <PUBCHEM_CONFORMER_DIVERSEORDER>  (1) 
1
2
5
4
3

>  <PUBCHEM_MMFF94_PARTIAL_CHARGES>  (1) 
18
1 -0.81
10 -0.15
11 -0.15
12 -0.15
18 0.36
2 -0.9
22 0.15
23 0.15
24 0.15
25 0.15
26 0.15
3 0.68
4 0.27
5 0.27
6 -0.14
7 0.27
8 -0.15
9 -0.15

>  <PUBCHEM_EFFECTIVE_ROTOR_COUNT>  (1) 
2

>  <PUBCHEM_PHARMACOPHORE_FEATURES>  (1) 
5
1 1 cation
1 2 cation
1 2 donor
5 1 2 3 4 5 rings
6 6 8 9 10 11 12 rings

>  <PUBCHEM_HEAVY_ATOM_COUNT>  (1) 
12

>  <PUBCHEM_ATOM_DEF_STEREO_COUNT>  (1) 
0

>  <PUBCHEM_ATOM_UDEF_STEREO_COUNT>  (1) 
1

>  <PUBCHEM_BOND_DEF_STEREO_COUNT>  (1) 
0

>  <PUBCHEM_BOND_UDEF_STEREO_COUNT>  (1) 
0

>  <PUBCHEM_ISOTOPIC_ATOM_COUNT>  (1) 
0

>  <PUBCHEM_COMPONENT_COUNT>  (1) 
1

>  <PUBCHEM_CACTVS_TAUTO_COUNT>  (1) 
1

>  <PUBCHEM_CONFORMER_ID>  (1) 
00009F2A00000001

>  <PUBCHEM_MMFF94_ENERGY>  (1) 
28.5878

>  <PUBCHEM_FEATURE_SELFOVERLAP>  (1) 
25.408

>  <PUBCHEM_SHAPE_FINGERPRINT>  (1) 
10857977 72 17846497079740977357
11031198 65 15339121251377826080
124424 183 16773514365741473870
12716758 59 17989214702469915374
12932764 1 18259982678178601588
13538477 17 18335983155252269575
13581323 91 18342738515890926547
14144814 61 18334296448343270472
15669948 3 18341333382922253775
15775835 57 18333739000259020000
16945 1 18343300361942716349
17844478 74 16415204502521318315
19049666 15 16844748412215836367
19422 9 18259993664478065418
20279233 1 16917349238239157046
20645464 45 17346594162359338035
20871998 184 18131073787612919999
21061003 4 15719401611314377932
21930827 45 17846501421942403031
22445834 79 18041276578092504058
23236772 104 18186805806862300985
23402539 116 17917700284867746085
276578 36 18057337097479643923
3248919 1 18131063835941261636
369184 2 17168143429629810249
5084963 1 17748819739578846076
63268167 104 17385437743695025012
77492 1 18187366540549170454
8030462 33 18113898290404563382

>  <PUBCHEM_SHAPE_MULTIPOLES>  (1) 
236.99
5.1
1.37
1.17
0.78
0.28
-0.06
-0.08
-0.54
-1.11
0.19
0.47
0.08
-0.83

>  <PUBCHEM_SHAPE_SELFOVERLAP>  (1) 
494.376

>  <PUBCHEM_SHAPE_VOLUME>  (1) 
135.7

>  <PUBCHEM_COORDINATE_TYPE>  (1) 
2
5
10

$$$$
