40751
     RDKit          3D

  9  8  0  0  1  0  0  0  0  0999 V2000
   -3.6013   -0.0177   -0.2782 O   0  0  0  0  0  0  0  0  0  0  0  0
    3.5983   -0.0194    0.2874 O   0  0  0  0  0  0  0  0  0  0  0  0
    0.0027    0.7137   -0.0045 N   0  0  0  0  0  0  0  0  0  0  0  0
   -1.1999   -0.1160   -0.0531 C   0  0  0  0  0  0  0  0  0  0  0  0
    1.1980   -0.1138    0.0492 C   0  0  0  0  0  0  0  0  0  0  0  0
   -2.4304    0.7833   -0.1769 C   0  0  0  0  0  0  0  0  0  0  0  0
    2.4291    0.7836    0.1809 C   0  0  0  0  0  0  0  0  0  0  0  0
   -1.2720   -1.0088    1.1861 C   0  0  0  0  0  0  0  0  0  0  0  0
    1.2755   -1.0048   -1.1909 C   0  0  0  0  0  0  0  0  0  0  0  0
  1  6  1  0
  2  7  1  0
  3  4  1  0
  3  5  1  0
  4  6  1  0
  4  8  1  0
  5  7  1  0
  5  9  1  0
M  END
>  <PUBCHEM_COMPOUND_CID>  (1) 
40751

>  <PUBCHEM_CONFORMER_RMSD>  (1) 
0.6

>  <PUBCHEM_CONFORMER_DIVERSEORDER>  (1) 
6
17
22
13
8
4
7
18
11
20
3
16
10
1
12
21
5
9
14
19
2
15

>  <PUBCHEM_MMFF94_PARTIAL_CHARGES>  (1) 
10
1 -0.68
12 0.36
2 -0.68
23 0.4
24 0.4
3 -0.9
4 0.27
5 0.27
6 0.28
7 0.28

>  <PUBCHEM_EFFECTIVE_ROTOR_COUNT>  (1) 
4

>  <PUBCHEM_PHARMACOPHORE_FEATURES>  (1) 
6
1 1 acceptor
1 1 donor
1 2 acceptor
1 2 donor
1 3 cation
1 3 donor

>  <PUBCHEM_HEAVY_ATOM_COUNT>  (1) 
9

>  <PUBCHEM_ATOM_DEF_STEREO_COUNT>  (1) 
0

>  <PUBCHEM_ATOM_UDEF_STEREO_COUNT>  (1) 
2

>  <PUBCHEM_BOND_DEF_STEREO_COUNT>  (1) 
0

>  <PUBCHEM_BOND_UDEF_STEREO_COUNT>  (1) 
0

>  <PUBCHEM_ISOTOPIC_ATOM_COUNT>  (1) 
0

>  <PUBCHEM_COMPONENT_COUNT>  (1) 
1

>  <PUBCHEM_CACTVS_TAUTO_COUNT>  (1) 
1

>  <PUBCHEM_CONFORMER_ID>  (1) 
00009F2F00000006

>  <PUBCHEM_MMFF94_ENERGY>  (1) 
6.8617

>  <PUBCHEM_FEATURE_SELFOVERLAP>  (1) 
30.447

>  <PUBCHEM_SHAPE_FINGERPRINT>  (1) 
10219947 1 18273496779964338612
11062470 55 18411134740434749377
12897270 3 17561080306515818493
12932741 1 18338817661705485430
14325111 11 18040994016721175817
14390081 3 18341894078112958889
15310529 11 17346597426851046149
20201158 50 18412827975430183827
20645464 45 18334864908908472795
21040471 1 17676494908423024275
21293036 1 15841546396656495129
23235685 24 18410849966865120129
23402539 116 18262223483007715645
23552333 60 16845291588145257598
23552423 10 14691472528534321517
29004967 10 18201450176431060690
3248919 1 18338813263548139425
5460574 1 7925912586457312917

>  <PUBCHEM_SHAPE_MULTIPOLES>  (1) 
168.5
5.04
1.03
0.95
0.01
0.09
0
-0.71
0.01
0
0
0
0.33
0.47

>  <PUBCHEM_SHAPE_SELFOVERLAP>  (1) 
303.64

>  <PUBCHEM_SHAPE_VOLUME>  (1) 
109.8

>  <PUBCHEM_COORDINATE_TYPE>  (1) 
2
5
10

$$$$
