40754
     RDKit          3D

 23 23  0  0  1  0  0  0  0  0999 V2000
   -4.7949   -1.4901    1.3541 Cl  0  0  0  0  0  0  0  0  0  0  0  0
   -1.8859    3.2307   -1.5139 Cl  0  0  0  0  0  0  0  0  0  0  0  0
   -4.7846    3.6566   -0.1403 Cl  0  0  0  0  0  0  0  0  0  0  0  0
    1.4382   -2.0553    0.1767 O   0  0  0  0  0  0  0  0  0  0  0  0
   -2.1112   -1.5891   -0.0025 O   0  0  0  0  0  0  0  0  0  0  0  0
   -0.0580   -2.3569   -1.5523 O   0  0  0  0  0  0  0  0  0  0  0  0
    3.5967   -0.1453   -0.2816 C   0  0  0  0  0  0  0  0  0  0  0  0
    3.7790   -1.6675   -0.2450 C   0  0  0  0  0  0  0  0  0  0  0  0
    4.8625    0.5743    0.1910 C   0  0  0  0  0  0  0  0  0  0  0  0
    2.5146   -2.4107   -0.6864 C   0  0  0  0  0  0  0  0  0  0  0  0
    4.7266    2.0995    0.2040 C   0  0  0  0  0  0  0  0  0  0  0  0
    5.9643    2.8156    0.7459 C   0  0  0  0  0  0  0  0  0  0  0  0
    2.7135   -3.9194   -0.6286 C   0  0  0  0  0  0  0  0  0  0  0  0
    5.7521    4.3207    0.8058 C   0  0  0  0  0  0  0  0  0  0  0  0
    0.1924   -2.0691   -0.3891 C   0  0  0  0  0  0  0  0  0  0  0  0
   -0.8429   -1.6429    0.6319 C   0  0  0  0  0  0  0  0  0  0  0  0
   -0.9306   -2.6341    1.7792 C   0  0  0  0  0  0  0  0  0  0  0  0
   -2.7395   -0.3702   -0.0307 C   0  0  0  0  0  0  0  0  0  0  0  0
   -3.9891   -0.1869    0.5613 C   0  0  0  0  0  0  0  0  0  0  0  0
   -2.1056    0.6970   -0.6669 C   0  0  0  0  0  0  0  0  0  0  0  0
   -2.7215    1.9479   -0.7108 C   0  0  0  0  0  0  0  0  0  0  0  0
   -4.6049    1.0639    0.5171 C   0  0  0  0  0  0  0  0  0  0  0  0
   -3.9711    2.1313   -0.1188 C   0  0  0  0  0  0  0  0  0  0  0  0
  1 19  1  0
  2 21  1  0
  3 23  1  0
  4 10  1  0
  4 15  1  0
  5 16  1  0
  5 18  1  0
  6 15  2  0
  7  8  1  0
  7  9  1  0
  8 10  1  0
  9 11  1  0
 10 13  1  0
 11 12  1  0
 12 14  1  0
 15 16  1  0
 16 17  1  0
 18 19  2  0
 18 20  1  0
 19 22  1  0
 20 21  2  0
 21 23  1  0
 22 23  2  0
M  END
>  <PUBCHEM_COMPOUND_CID>  (1) 
40754

>  <PUBCHEM_CONFORMER_RMSD>  (1) 
1.2

>  <PUBCHEM_CONFORMER_DIVERSEORDER>  (1) 
1
53
170
41
237
154
162
78
57
60
50
120
67
262
94
152
77
130
79
257
15
228
108
195
194
40
175
231
16
185
110
214
213
31
39
76
199
244
96
242
157
70
21
155
184
146
62
86
72
112
197
215
221
117
205
24
172
32
102
247
48
181
118
128
173
208
47
95
124
74
36
232
145
99
250
126
27
8
200
218
42
92
46
87
167
111
234
133
263
211
82
4
132
89
75
58
123
202
73
35
44
23
220
230
125
18
258
22
256
225
84
127
6
156
182
17
66
49
210
43
113
255
69
52
97
192
249
239
136
80
207
163
219
3
251
20
233
100
56
222
30
104
64
259
169
51
246
206
38
177
25
193
243
103
160
144
148
217
241
159
55
165
260
19
54
98
129
198
188
149
150
183
135
33
209
81
171
26
158
45
223
190
5
179
240
14
12
37
106
59
180
10
68
174
107
236
191
9
65
212
166
116
119
83
245
63
216
109
235
261
7
29
238
2
143
226
141
201
122
85
114
131
203
189
115
224
178
138
253
176
187
13
93
140
153
137
168
105
186
71
252
227
121
134
34
147
90
88
204
142
101
164
254
28
139
248
151
91
229
196
11
61
161

>  <PUBCHEM_MMFF94_PARTIAL_CHARGES>  (1) 
17
1 -0.18
10 0.28
15 0.66
16 0.34
18 0.08
19 0.18
2 -0.18
20 -0.15
21 0.18
22 -0.15
23 0.18
3 -0.18
4 -0.43
45 0.15
46 0.15
5 -0.36
6 -0.57

>  <PUBCHEM_EFFECTIVE_ROTOR_COUNT>  (1) 
10

>  <PUBCHEM_PHARMACOPHORE_FEATURES>  (1) 
5
1 14 hydrophobe
1 5 acceptor
1 6 acceptor
5 7 8 9 11 12 hydrophobe
6 18 19 20 21 22 23 rings

>  <PUBCHEM_HEAVY_ATOM_COUNT>  (1) 
23

>  <PUBCHEM_ATOM_DEF_STEREO_COUNT>  (1) 
0

>  <PUBCHEM_ATOM_UDEF_STEREO_COUNT>  (1) 
2

>  <PUBCHEM_BOND_DEF_STEREO_COUNT>  (1) 
0

>  <PUBCHEM_BOND_UDEF_STEREO_COUNT>  (1) 
0

>  <PUBCHEM_ISOTOPIC_ATOM_COUNT>  (1) 
0

>  <PUBCHEM_COMPONENT_COUNT>  (1) 
1

>  <PUBCHEM_CACTVS_TAUTO_COUNT>  (1) 
1

>  <PUBCHEM_CONFORMER_ID>  (1) 
00009F3200000001

>  <PUBCHEM_MMFF94_ENERGY>  (1) 
39.2898

>  <PUBCHEM_FEATURE_SELFOVERLAP>  (1) 
25.379

>  <PUBCHEM_SHAPE_FINGERPRINT>  (1) 
10693767 8 8140072094900972193
12549972 3 17824003176809344266
12769317 202 18273491265563850066
12925494 130 18192434074295710321
133061 13 18115286905162106252
13402501 40 18411419553028713400
14251764 38 18268148652238099968
14251764 75 18272660073133051816
14739800 52 18041833996138734411
1768 85 18267311941085296225
18393751 57 18192151714175500202
21049683 118 17386569029728241161
21302155 148 18263647432471498036
21315764 268 18118963594508182063
21388113 180 18341613754715140588
23559900 14 18122907521163888050
2838139 119 18341890814454642374
3459 39 18057021705790002776
4371632 12 17972851719208253317
474144 1 17170692248160734732
4742675 86 18189873431719640300
5047190 48 18262800804186356668
5104073 3 18188496752856763315
5219985 13 18198624518269883686
633830 44 18192426377460803159
7808743 9 18197210567707121234
9981440 41 18336827614769383482

>  <PUBCHEM_SHAPE_MULTIPOLES>  (1) 
461.33
13.46
5.8
1.22
11.34
2.66
0.06
14.63
3.66
4.7
-0.15
-0.42
-0.25
3.68

>  <PUBCHEM_SHAPE_SELFOVERLAP>  (1) 
895.33

>  <PUBCHEM_SHAPE_VOLUME>  (1) 
281.7

>  <PUBCHEM_COORDINATE_TYPE>  (1) 
2
5
10

$$$$
