40758
     RDKit          3D

 13 12  0  0  1  0  0  0  0  0999 V2000
    1.2979   -3.3962    0.2121 O   0  0  0  0  0  0  0  0  0  0  0  0
    2.0214    2.9981   -0.1319 O   0  0  0  0  0  0  0  0  0  0  0  0
   -3.7218    0.3105   -0.4574 O   0  0  0  0  0  0  0  0  0  0  0  0
   -0.0496   -0.0342   -0.4772 N   0  0  0  0  0  0  0  0  0  0  0  0
    0.8722   -1.0240    0.0776 C   0  0  0  0  0  0  0  0  0  0  0  0
    0.3018    1.3081   -0.0148 C   0  0  0  0  0  0  0  0  0  0  0  0
   -1.4282   -0.3565   -0.1095 C   0  0  0  0  0  0  0  0  0  0  0  0
    0.4333   -2.4220   -0.3594 C   0  0  0  0  0  0  0  0  0  0  0  0
    1.6934    1.6734   -0.5327 C   0  0  0  0  0  0  0  0  0  0  0  0
   -2.3753    0.6481   -0.7667 C   0  0  0  0  0  0  0  0  0  0  0  0
    2.3030   -0.7138   -0.3633 C   0  0  0  0  0  0  0  0  0  0  0  0
    0.2291    1.3733    1.5110 C   0  0  0  0  0  0  0  0  0  0  0  0
   -1.5771   -0.3648    1.4122 C   0  0  0  0  0  0  0  0  0  0  0  0
  1  8  1  0
  2  9  1  0
  3 10  1  0
  4  5  1  0
  4  6  1  0
  4  7  1  0
  5  8  1  0
  5 11  1  0
  6  9  1  0
  6 12  1  0
  7 10  1  0
  7 13  1  0
M  END
>  <PUBCHEM_COMPOUND_CID>  (1) 
40758

>  <PUBCHEM_CONFORMER_RMSD>  (1) 
0.6

>  <PUBCHEM_CONFORMER_DIVERSEORDER>  (1) 
11
8
3
1
9
5
7
10
4
6
2

>  <PUBCHEM_MMFF94_PARTIAL_CHARGES>  (1) 
13
1 -0.68
10 0.28
2 -0.68
3 -0.68
32 0.4
33 0.4
34 0.4
4 -0.81
5 0.27
6 0.27
7 0.27
8 0.28
9 0.28

>  <PUBCHEM_EFFECTIVE_ROTOR_COUNT>  (1) 
6

>  <PUBCHEM_PHARMACOPHORE_FEATURES>  (1) 
7
1 1 acceptor
1 1 donor
1 2 acceptor
1 2 donor
1 3 acceptor
1 3 donor
1 4 cation

>  <PUBCHEM_HEAVY_ATOM_COUNT>  (1) 
13

>  <PUBCHEM_ATOM_DEF_STEREO_COUNT>  (1) 
0

>  <PUBCHEM_ATOM_UDEF_STEREO_COUNT>  (1) 
3

>  <PUBCHEM_BOND_DEF_STEREO_COUNT>  (1) 
0

>  <PUBCHEM_BOND_UDEF_STEREO_COUNT>  (1) 
0

>  <PUBCHEM_ISOTOPIC_ATOM_COUNT>  (1) 
0

>  <PUBCHEM_COMPONENT_COUNT>  (1) 
1

>  <PUBCHEM_CACTVS_TAUTO_COUNT>  (1) 
1

>  <PUBCHEM_CONFORMER_ID>  (1) 
00009F360000000B

>  <PUBCHEM_MMFF94_ENERGY>  (1) 
92.1505

>  <PUBCHEM_FEATURE_SELFOVERLAP>  (1) 
35.522

>  <PUBCHEM_SHAPE_FINGERPRINT>  (1) 
1 1 18409445916323067141
12423570 1 17395314849667897960
13024252 1 9001070010008195738
13380536 305 18410856585520467340
14648413 74 18261110760018598677
14817 1 8642612812699286963
15219456 202 18188216510756945753
15490181 7 17975421522668256428
16945 1 18337398140659485819
193761 8 18050567649290486942
20201158 50 18261676948213856791
20711985 344 17182492898001455867
20820808 20 18340768247015426201
20871998 184 17468767732762164433
21040471 1 18051684739823694980
21524375 3 17898274259188406573
21930827 45 17622437668077493248
22112679 90 17059792026343140241
23211744 25 17770486848933574309
23526113 38 17970066652107230603
23526114 1 18338517563723997757
23552423 10 18341611490955827573
23595355 12 18268985552469632792
241688 4 17545319683494292266
257057 1 17761762979765313855
2748010 2 18191318266927984334
5084963 1 17624703744531229821
5255222 1 17693105475164811746
81228 2 17257938091585545979

>  <PUBCHEM_SHAPE_MULTIPOLES>  (1) 
244.94
3.4
3.04
1.07
2.77
0.96
0.42
-0.51
-0.86
-2.78
0.02
0.36
-0.23
0.01

>  <PUBCHEM_SHAPE_SELFOVERLAP>  (1) 
467.576

>  <PUBCHEM_SHAPE_VOLUME>  (1) 
152.4

>  <PUBCHEM_COORDINATE_TYPE>  (1) 
2
5
10

$$$$
