40769
     RDKit          3D

 16 16  0  0  1  0  0  0  0  0999 V2000
    0.5574    0.7427   -0.8773 O   0  0  0  0  0  0  0  0  0  0  0  0
    2.4707   -1.0230    0.2144 O   0  0  0  0  0  0  0  0  0  0  0  0
    5.1001   -0.1679    0.4228 O   0  0  0  0  0  0  0  0  0  0  0  0
   -1.7854   -2.2992    0.5441 O   0  0  0  0  0  0  0  0  0  0  0  0
   -0.3546   -1.8218   -1.1948 O   0  0  0  0  0  0  0  0  0  0  0  0
    2.8394    0.2804   -0.2427 C   0  0  0  0  0  0  0  0  0  0  0  0
    1.6427    1.2113   -0.0837 C   0  0  0  0  0  0  0  0  0  0  0  0
    4.0257    0.7516    0.5883 C   0  0  0  0  0  0  0  0  0  0  0  0
   -0.7033    0.9817   -0.3989 C   0  0  0  0  0  0  0  0  0  0  0  0
   -1.5689   -0.0723   -0.1225 C   0  0  0  0  0  0  0  0  0  0  0  0
   -1.1056    2.2979   -0.1918 C   0  0  0  0  0  0  0  0  0  0  0  0
   -2.8485    0.1923    0.3657 C   0  0  0  0  0  0  0  0  0  0  0  0
   -2.3852    2.5623    0.2964 C   0  0  0  0  0  0  0  0  0  0  0  0
   -3.2565    1.5096    0.5751 C   0  0  0  0  0  0  0  0  0  0  0  0
   -1.1624   -1.4549   -0.3328 C   0  0  0  0  0  0  0  0  0  0  0  0
   -1.4656   -3.6907    0.4376 C   0  0  0  0  0  0  0  0  0  0  0  0
  1  7  1  0
  1  9  1  0
  2  6  1  0
  3  8  1  0
  4 15  1  0
  4 16  1  0
  5 15  2  0
  6  7  1  0
  6  8  1  0
  9 10  2  0
  9 11  1  0
 10 12  1  0
 10 15  1  0
 11 13  2  0
 12 14  2  0
 13 14  1  0
M  END
>  <PUBCHEM_COMPOUND_CID>  (1) 
40769

>  <PUBCHEM_CONFORMER_RMSD>  (1) 
0.8

>  <PUBCHEM_CONFORMER_DIVERSEORDER>  (1) 
1
41
68
97
98
69
54
10
77
28
81
94
39
40
87
59
90
22
61
89
43
83
9
96
52
58
13
42
15
79
92
49
63
71
86
36
82
25
45
12
35
11
8
62
51
19
20
29
88
66
91
31
46
64
21
37
2
85
48
7
33
99
72
80
74
55
5
93
50
75
47
6
44
23
76
18
53
14
95
60
56
17
26
67
65
3
34
4
78
24
27
73
70
84
38
16
30
57
32

>  <PUBCHEM_MMFF94_PARTIAL_CHARGES>  (1) 
22
1 -0.36
10 0.09
11 -0.15
12 -0.15
13 -0.15
14 -0.15
15 0.63
16 0.28
2 -0.68
22 0.15
23 0.15
24 0.15
25 0.15
26 0.4
27 0.4
3 -0.68
4 -0.43
5 -0.57
6 0.28
7 0.28
8 0.28
9 0.08

>  <PUBCHEM_EFFECTIVE_ROTOR_COUNT>  (1) 
6

>  <PUBCHEM_PHARMACOPHORE_FEATURES>  (1) 
7
1 1 acceptor
1 2 acceptor
1 2 donor
1 3 acceptor
1 3 donor
1 5 acceptor
6 9 10 11 12 13 14 rings

>  <PUBCHEM_HEAVY_ATOM_COUNT>  (1) 
16

>  <PUBCHEM_ATOM_DEF_STEREO_COUNT>  (1) 
0

>  <PUBCHEM_ATOM_UDEF_STEREO_COUNT>  (1) 
1

>  <PUBCHEM_BOND_DEF_STEREO_COUNT>  (1) 
0

>  <PUBCHEM_BOND_UDEF_STEREO_COUNT>  (1) 
0

>  <PUBCHEM_ISOTOPIC_ATOM_COUNT>  (1) 
0

>  <PUBCHEM_COMPONENT_COUNT>  (1) 
1

>  <PUBCHEM_CACTVS_TAUTO_COUNT>  (1) 
1

>  <PUBCHEM_CONFORMER_ID>  (1) 
00009F4100000001

>  <PUBCHEM_MMFF94_ENERGY>  (1) 
50.8567

>  <PUBCHEM_FEATURE_SELFOVERLAP>  (1) 
35.539

>  <PUBCHEM_SHAPE_FINGERPRINT>  (1) 
10616163 171 18410294752812716526
11265709 11 17979074108870312863
11357001 24 18337112383727267643
12251169 10 18409168805292040012
12382932 28 18341615944763086408
12500047 106 18411974733296508496
12553582 1 17762630885366276622
13004483 165 17341503591222113510
13140716 1 18195814191570285113
13380535 76 18342176626815461645
14178342 30 18336253635481993882
14965852 173 18410852205081359416
15042514 8 18337115669583003339
15309172 13 18337676291395241745
16945 1 18337121136870597357
20510252 161 18272373014503696913
20871998 184 18200600314167349263
21524375 3 18200028426571633501
21650355 55 18338232785981025737
21731228 192 18269000799471807881
23402539 116 18343293799902594909
23419403 2 13323996903613802759
23500284 5 18046347701766214019
23559900 14 18272091561850648356
23728640 28 18409728469305284474
257057 1 17835238226902055135
2748010 2 18049184197575031205
43471831 8 18191872223678869179
54173680 148 18265898136455884715
5706482 22 18412825751001251321
58807428 26 18265907852014793625
69090 78 18412539886204058185
7097593 13 18261101947082960314
7364860 26 17547014031387422519
81228 2 18268133430858080921
9709674 26 18343586243999179526

>  <PUBCHEM_SHAPE_MULTIPOLES>  (1) 
299.93
6.38
3.34
0.82
9.58
2.87
0.07
-1.71
-1.85
-3.28
-0.37
-0.02
0.1
-0.03

>  <PUBCHEM_SHAPE_SELFOVERLAP>  (1) 
613.676

>  <PUBCHEM_SHAPE_VOLUME>  (1) 
174.1

>  <PUBCHEM_COORDINATE_TYPE>  (1) 
2
5
10

$$$$
