40766
     RDKit          3D

 21 20  0  0  0  0  0  0  0  0999 V2000
    5.3370   -0.1945    0.5566 N   0  0  0  0  0  0  0  0  0  0  0  0
    0.6626   -1.5177   -0.7781 C   0  0  0  0  0  0  0  0  0  0  0  0
   -0.5060   -2.4783   -0.5431 C   0  0  0  0  0  0  0  0  0  0  0  0
    1.8343   -1.7391    0.1852 C   0  0  0  0  0  0  0  0  0  0  0  0
   -1.7001   -2.2145   -1.4671 C   0  0  0  0  0  0  0  0  0  0  0  0
    3.0175   -0.8000   -0.0730 C   0  0  0  0  0  0  0  0  0  0  0  0
   -2.8985   -3.1265   -1.1824 C   0  0  0  0  0  0  0  0  0  0  0  0
    4.2101   -1.0726    0.8468 C   0  0  0  0  0  0  0  0  0  0  0  0
   -3.4449   -2.9663    0.2405 C   0  0  0  0  0  0  0  0  0  0  0  0
   -3.8931   -1.5650    0.5404 C   0  0  0  0  0  0  0  0  0  0  0  0
   -0.9154    3.6948   -0.5936 C   0  0  0  0  0  0  0  0  0  0  0  0
   -0.3906    2.3599   -1.1322 C   0  0  0  0  0  0  0  0  0  0  0  0
    6.5872   -0.7824    1.0413 C   0  0  0  0  0  0  0  0  0  0  0  0
    5.1307    1.1249    1.1566 C   0  0  0  0  0  0  0  0  0  0  0  0
   -1.5038    3.5826    0.8164 C   0  0  0  0  0  0  0  0  0  0  0  0
   -3.3730   -0.8089    1.5187 C   0  0  0  0  0  0  0  0  0  0  0  0
    0.2121    2.5248   -2.5277 C   0  0  0  0  0  0  0  0  0  0  0  0
   -3.8175    0.5934    1.8158 C   0  0  0  0  0  0  0  0  0  0  0  0
   -2.6460    2.6115    0.8973 C   0  0  0  0  0  0  0  0  0  0  0  0
   -2.6747    1.5623    1.7326 C   0  0  0  0  0  0  0  0  0  0  0  0
    0.7720    1.2116   -3.0510 C   0  0  0  0  0  0  0  0  0  0  0  0
  1  8  1  0
  1 13  1  0
  1 14  1  0
  2  3  1  0
  2  4  1  0
  3  5  1  0
  4  6  1  0
  5  7  1  0
  6  8  1  0
  7  9  1  0
  9 10  1  0
 10 16  2  0
 11 12  1  0
 11 15  1  0
 12 17  1  0
 15 19  1  0
 16 18  1  0
 17 21  1  0
 18 20  1  0
 19 20  2  0
M  END
>  <PUBCHEM_COMPOUND_CID>  (1) 
40766

>  <PUBCHEM_CONFORMER_RMSD>  (1) 
1.6

>  <PUBCHEM_CONFORMER_DIVERSEORDER>  (1) 
1
2
51
33
22
57
31
56
25
20
4
43
15
23
8
52
38
14
9
11
46
41
27
10
50
39
42
24
36
6
40
26
34
32
55
19
7
17
28
49
21
53
48
13
35
58
54
37
30
44
5
45
16
47
3
12
18
29

>  <PUBCHEM_MMFF94_PARTIAL_CHARGES>  (1) 
15
1 -0.81
10 -0.29
13 0.27
14 0.27
15 0.14
16 -0.29
18 0.28
19 -0.29
20 -0.29
38 0.15
53 0.15
56 0.15
57 0.15
8 0.27
9 0.14

>  <PUBCHEM_EFFECTIVE_ROTOR_COUNT>  (1) 
15

>  <PUBCHEM_PHARMACOPHORE_FEATURES>  (1) 
3
1 1 cation
1 21 hydrophobe
5 11 12 15 17 19 hydrophobe

>  <PUBCHEM_HEAVY_ATOM_COUNT>  (1) 
21

>  <PUBCHEM_ATOM_DEF_STEREO_COUNT>  (1) 
0

>  <PUBCHEM_ATOM_UDEF_STEREO_COUNT>  (1) 
0

>  <PUBCHEM_BOND_DEF_STEREO_COUNT>  (1) 
0

>  <PUBCHEM_BOND_UDEF_STEREO_COUNT>  (1) 
2

>  <PUBCHEM_ISOTOPIC_ATOM_COUNT>  (1) 
0

>  <PUBCHEM_COMPONENT_COUNT>  (1) 
1

>  <PUBCHEM_CACTVS_TAUTO_COUNT>  (1) 
1

>  <PUBCHEM_CONFORMER_ID>  (1) 
00009F3E00000001

>  <PUBCHEM_MMFF94_ENERGY>  (1) 
5.5729

>  <PUBCHEM_FEATURE_SELFOVERLAP>  (1) 
15.223

>  <PUBCHEM_SHAPE_FINGERPRINT>  (1) 
10087517 78 18200305649868526562
10816530 145 18115857671976714866
11595378 159 18335687335280314226
12100795 323 18050007688333486755
12166972 35 18049988181056824207
14251757 17 8862356710054561456
18336668 15 18263359347217514335
20465049 17 10015285894400569921
20765182 5 18341054124333407376
21202864 24 18272088262392618354
23428019 142 10447918456743049004
445580 44 17895462662069278272
469060 322 17822283587835668388
474144 1 17972343929593004285
57091435 65 17764315333253710393
58250162 1 18053983698863515973
7064713 232 18198643054700335113
9925002 15 18270408324853179207

>  <PUBCHEM_SHAPE_MULTIPOLES>  (1) 
427.19
10.46
5.01
2.33
19.95
2.54
-1.53
-4.52
7.88
-5.24
-1.4
-0.52
1.4
-1.62

>  <PUBCHEM_SHAPE_SELFOVERLAP>  (1) 
781.624

>  <PUBCHEM_SHAPE_VOLUME>  (1) 
271.1

>  <PUBCHEM_COORDINATE_TYPE>  (1) 
2
5
10

$$$$
