40761
     RDKit          3D

 14 13  0  0  0  0  0  0  0  0999 V2000
    8.2102    0.3291   -0.1156 N   0  0  0  0  0  0  0  0  0  0  0  0
   -0.6550   -0.4336   -0.0229 C   0  0  0  0  0  0  0  0  0  0  0  0
    0.6436    0.3774    0.0456 C   0  0  0  0  0  0  0  0  0  0  0  0
   -1.9146    0.4348    0.0231 C   0  0  0  0  0  0  0  0  0  0  0  0
    1.9399   -0.4390    0.0597 C   0  0  0  0  0  0  0  0  0  0  0  0
   -3.2119   -0.3764   -0.0529 C   0  0  0  0  0  0  0  0  0  0  0  0
    3.2046    0.4235    0.0438 C   0  0  0  0  0  0  0  0  0  0  0  0
   -4.4716    0.4926   -0.0312 C   0  0  0  0  0  0  0  0  0  0  0  0
    4.4652   -0.4439    0.0910 C   0  0  0  0  0  0  0  0  0  0  0  0
   -5.7377   -0.3671   -0.0349 C   0  0  0  0  0  0  0  0  0  0  0  0
    5.7636    0.3649    0.0057 C   0  0  0  0  0  0  0  0  0  0  0  0
   -6.9970    0.4973    0.0255 C   0  0  0  0  0  0  0  0  0  0  0  0
    7.0182   -0.5076   -0.0249 C   0  0  0  0  0  0  0  0  0  0  0  0
   -8.2575   -0.3519   -0.0119 C   0  0  0  0  0  0  0  0  0  0  0  0
  1 13  1  0
  2  3  1  0
  2  4  1  0
  3  5  1  0
  4  6  1  0
  5  7  1  0
  6  8  1  0
  7  9  1  0
  8 10  1  0
  9 11  1  0
 10 12  1  0
 11 13  1  0
 12 14  1  0
M  END
>  <PUBCHEM_COMPOUND_CID>  (1) 
40761

>  <PUBCHEM_CONFORMER_RMSD>  (1) 
1.2

>  <PUBCHEM_CONFORMER_DIVERSEORDER>  (1) 
1
33
24
7
31
45
3
55
32
8
28
50
47
16
37
2
15
46
49
19
38
22
42
30
20
21
14
23
11
44
52
6
5
18
51
54
36
4
29
26
12
34
25
40
48
17
27
13
53
35
39
56
43
10
9
41

>  <PUBCHEM_MMFF94_PARTIAL_CHARGES>  (1) 
4
1 -0.99
13 0.27
42 0.36
43 0.36

>  <PUBCHEM_EFFECTIVE_ROTOR_COUNT>  (1) 
11

>  <PUBCHEM_PHARMACOPHORE_FEATURES>  (1) 
3
1 1 cation
1 1 donor
1 14 hydrophobe

>  <PUBCHEM_HEAVY_ATOM_COUNT>  (1) 
14

>  <PUBCHEM_ATOM_DEF_STEREO_COUNT>  (1) 
0

>  <PUBCHEM_ATOM_UDEF_STEREO_COUNT>  (1) 
0

>  <PUBCHEM_BOND_DEF_STEREO_COUNT>  (1) 
0

>  <PUBCHEM_BOND_UDEF_STEREO_COUNT>  (1) 
0

>  <PUBCHEM_ISOTOPIC_ATOM_COUNT>  (1) 
0

>  <PUBCHEM_COMPONENT_COUNT>  (1) 
1

>  <PUBCHEM_CACTVS_TAUTO_COUNT>  (1) 
1

>  <PUBCHEM_CONFORMER_ID>  (1) 
00009F3900000001

>  <PUBCHEM_MMFF94_ENERGY>  (1) 
-7.0128

>  <PUBCHEM_FEATURE_SELFOVERLAP>  (1) 
15.223

>  <PUBCHEM_SHAPE_FINGERPRINT>  (1) 
11315181 36 18202568397553537395
12091667 2 18408604760849425721
13533116 47 17749379326995057034
14123256 10 18410575080368111627
14251764 18 18410011018070940851
14251764 46 18410575084663098402
17834076 25 18410292510174740483
18006028 8 17847061082051427529
20621476 8 18410011018034043606
22224240 67 15285359535363508688
23521765 1 18341894090844607083
33684 2 18408602556544876250
42788 4 18411136935505851056
59567204 34 17749662984401372821
67123 10 18410575106137915405
8209 1 18410573985162007149

>  <PUBCHEM_SHAPE_MULTIPOLES>  (1) 
283.13
26.21
0.79
0.61
0.9
0
0
0.33
0.5
-0.05
0
-0.04
0
-0.04

>  <PUBCHEM_SHAPE_SELFOVERLAP>  (1) 
500.152

>  <PUBCHEM_SHAPE_VOLUME>  (1) 
184.3

>  <PUBCHEM_COORDINATE_TYPE>  (1) 
2
5
10

$$$$
