40771
     RDKit          3D

 27 29  0  0  0  0  0  0  0  0999 V2000
    2.3996   -1.4908   -0.3230 O   0  0  0  0  0  0  0  0  0  0  0  0
    0.0442    2.3104    0.8748 O   0  0  0  0  0  0  0  0  0  0  0  0
   -2.0188   -1.4183   -1.0526 O   0  0  0  0  0  0  0  0  0  0  0  0
    1.2390    0.4884    0.0903 N   0  0  0  0  0  0  0  0  0  0  0  0
   -1.1478    0.4933   -0.0117 N   0  0  0  0  0  0  0  0  0  0  0  0
    2.4662    1.2472    0.1118 C   0  0  0  0  0  0  0  0  0  0  0  0
    3.3494    0.8161    1.2857 C   0  0  0  0  0  0  0  0  0  0  0  0
    3.2055    1.1095   -1.2213 C   0  0  0  0  0  0  0  0  0  0  0  0
    4.6775    1.5685    1.2959 C   0  0  0  0  0  0  0  0  0  0  0  0
    4.5346    1.8602   -1.2078 C   0  0  0  0  0  0  0  0  0  0  0  0
    0.0447   -1.6452    0.1693 C   0  0  0  0  0  0  0  0  0  0  0  0
    5.4117    1.4316   -0.0349 C   0  0  0  0  0  0  0  0  0  0  0  0
    1.3470   -0.9005   -0.0788 C   0  0  0  0  0  0  0  0  0  0  0  0
    0.0365    1.1951    0.3435 C   0  0  0  0  0  0  0  0  0  0  0  0
   -1.1550   -0.8712   -0.3653 C   0  0  0  0  0  0  0  0  0  0  0  0
   -0.1291   -1.8390    1.6863 C   0  0  0  0  0  0  0  0  0  0  0  0
    0.1112   -3.0317   -0.4951 C   0  0  0  0  0  0  0  0  0  0  0  0
   -2.3991    1.2188   -0.0751 C   0  0  0  0  0  0  0  0  0  0  0  0
   -1.3379   -2.6639    1.9801 C   0  0  0  0  0  0  0  0  0  0  0  0
    0.3223   -2.9044   -1.9673 C   0  0  0  0  0  0  0  0  0  0  0  0
   -3.5946    0.5462    0.1473 C   0  0  0  0  0  0  0  0  0  0  0  0
   -2.3906    2.5794   -0.3570 C   0  0  0  0  0  0  0  0  0  0  0  0
   -1.2968   -3.8411    2.6140 C   0  0  0  0  0  0  0  0  0  0  0  0
   -0.5219   -3.3928   -2.8828 C   0  0  0  0  0  0  0  0  0  0  0  0
   -4.8002    1.2451    0.0867 C   0  0  0  0  0  0  0  0  0  0  0  0
   -3.5963    3.2782   -0.4175 C   0  0  0  0  0  0  0  0  0  0  0  0
   -4.8011    2.6110   -0.1957 C   0  0  0  0  0  0  0  0  0  0  0  0
  1 13  2  0
  2 14  2  0
  3 15  2  0
  4  6  1  0
  4 13  1  0
  4 14  1  0
  5 14  1  0
  5 15  1  0
  5 18  1  0
  6  7  1  0
  6  8  1  0
  7  9  1  0
  8 10  1  0
  9 12  1  0
 10 12  1  0
 11 13  1  0
 11 15  1  0
 11 16  1  0
 11 17  1  0
 16 19  1  0
 17 20  1  0
 18 21  2  0
 18 22  1  0
 19 23  2  0
 20 24  2  0
 21 25  1  0
 22 26  2  0
 25 27  2  0
 26 27  1  0
M  END
>  <PUBCHEM_COMPOUND_CID>  (1) 
40771

>  <PUBCHEM_CONFORMER_RMSD>  (1) 
0.8

>  <PUBCHEM_CONFORMER_DIVERSEORDER>  (1) 
1
22
13
23
10
16
19
24
20
21
15
6
5
8
2
11
14
9
18
3
25
12
4
17
7

>  <PUBCHEM_MMFF94_PARTIAL_CHARGES>  (1) 
33
1 -0.57
11 0.12
13 0.57
14 0.69
15 0.57
16 0.14
17 0.14
18 0.12
19 -0.29
2 -0.57
20 -0.29
21 -0.15
22 -0.15
23 -0.3
24 -0.3
25 -0.15
26 -0.15
27 -0.15
3 -0.57
4 -0.42
43 0.15
44 0.15
45 0.15
46 0.15
47 0.15
48 0.15
49 0.15
5 -0.24
50 0.15
51 0.15
52 0.15
53 0.15
6 0.3

>  <PUBCHEM_EFFECTIVE_ROTOR_COUNT>  (1) 
7.8

>  <PUBCHEM_PHARMACOPHORE_FEATURES>  (1) 
8
1 1 acceptor
1 2 acceptor
1 23 hydrophobe
1 24 hydrophobe
1 3 acceptor
6 18 21 22 25 26 27 rings
6 4 5 11 13 14 15 rings
6 6 7 8 9 10 12 rings

>  <PUBCHEM_HEAVY_ATOM_COUNT>  (1) 
27

>  <PUBCHEM_ATOM_DEF_STEREO_COUNT>  (1) 
0

>  <PUBCHEM_ATOM_UDEF_STEREO_COUNT>  (1) 
0

>  <PUBCHEM_BOND_DEF_STEREO_COUNT>  (1) 
0

>  <PUBCHEM_BOND_UDEF_STEREO_COUNT>  (1) 
0

>  <PUBCHEM_ISOTOPIC_ATOM_COUNT>  (1) 
0

>  <PUBCHEM_COMPONENT_COUNT>  (1) 
1

>  <PUBCHEM_CACTVS_TAUTO_COUNT>  (1) 
1

>  <PUBCHEM_CONFORMER_ID>  (1) 
00009F4300000001

>  <PUBCHEM_MMFF94_ENERGY>  (1) 
85.4549

>  <PUBCHEM_FEATURE_SELFOVERLAP>  (1) 
40.597

>  <PUBCHEM_SHAPE_FINGERPRINT>  (1) 
10006869 2 17686077375850586265
10411042 1 17403729442595052950
107951 10 18260840288684913778
11488393 25 18056497053416757911
12160290 23 18269566107304323936
12293681 4 18045499978892516891
12788726 201 17462868784191519778
13140716 1 18190735332581548689
14713325 29 18117571823182857826
14790565 3 18272091547995952249
15131766 46 15720811327683349116
15664445 248 17404302893648242455
15878777 1 17187780797481158091
16752209 62 18268143339642824064
16945 1 18126273383895882862
17980427 26 18044080268567282439
1813 80 10159689226825262369
20101258 96 17760095411715895536
20567600 347 18339923718947751717
20602899 9 16917074377427972390
21344244 181 17560815324218709414
21524375 3 18410004416685270153
21756936 100 18261106422275579880
22182313 1 18198650854571928230
23366157 5 17756430361566790585
23419403 2 17407175028426080663
23558518 356 18334290976555455051
23559900 14 17552630354120487165
23598288 3 17973175198937847892
239999 70 18051131389802402439
2748010 2 18199208289676500086
298252 57 18271800233338161443
3380486 145 17699858620069849216
3411729 13 18266176120131047225
350125 39 18266458694677303932
3759504 43 18260269671914071881
376196 1 18340200778534746545
38695281 34 18129372726764604926
394222 165 18192423070245606977
4058900 60 18116725014398722681
4340502 62 18113623344305910545
474 4 18188209793059180329
497634 4 16880195774554611526
5104073 3 18191591840030651481
59755656 520 17894346688026886394
9841814 1 17543912300553697361
9981440 41 18340761624429089706
9999458 23 17970631774907843655

>  <PUBCHEM_SHAPE_MULTIPOLES>  (1) 
528.08
8.35
4.74
1.94
4.02
3.13
0.19
-10.84
-0.1
-3.21
0.14
0.21
2.83
0.89

>  <PUBCHEM_SHAPE_SELFOVERLAP>  (1) 
1125.417

>  <PUBCHEM_SHAPE_VOLUME>  (1) 
287.7

>  <PUBCHEM_COORDINATE_TYPE>  (1) 
2
5
10

$$$$
