40779
     RDKit          3D

 19 19  0  0  1  0  0  0  0  0999 V2000
   -2.6415    3.0873   -0.0003 Cl  0  0  0  0  0  0  0  0  0  0  0  0
   -2.5533   -3.1550   -0.0382 Cl  0  0  0  0  0  0  0  0  0  0  0  0
   -5.2690   -1.5368    0.6590 Cl  0  0  0  0  0  0  0  0  0  0  0  0
    3.0123    0.1949    0.2142 O   0  0  0  0  0  0  0  0  0  0  0  0
   -0.2862    1.3206   -0.6051 O   0  0  0  0  0  0  0  0  0  0  0  0
    5.7249    0.1852    0.8047 O   0  0  0  0  0  0  0  0  0  0  0  0
    1.8795    0.2692   -1.7933 O   0  0  0  0  0  0  0  0  0  0  0  0
    3.8369   -0.8972   -0.2050 C   0  0  0  0  0  0  0  0  0  0  0  0
    0.8251    1.0718    0.2417 C   0  0  0  0  0  0  0  0  0  0  0  0
    1.9388    0.4629   -0.5860 C   0  0  0  0  0  0  0  0  0  0  0  0
    4.9891   -1.0334    0.7821 C   0  0  0  0  0  0  0  0  0  0  0  0
    2.9922   -2.1615   -0.2523 C   0  0  0  0  0  0  0  0  0  0  0  0
    1.2521    2.3917    0.8598 C   0  0  0  0  0  0  0  0  0  0  0  0
   -1.4516    0.6608   -0.3091 C   0  0  0  0  0  0  0  0  0  0  0  0
   -2.6148    1.3622   -0.0105 C   0  0  0  0  0  0  0  0  0  0  0  0
   -1.4455   -0.7300   -0.3141 C   0  0  0  0  0  0  0  0  0  0  0  0
   -2.6165   -1.4274   -0.0172 C   0  0  0  0  0  0  0  0  0  0  0  0
   -3.7857    0.6649    0.2865 C   0  0  0  0  0  0  0  0  0  0  0  0
   -3.7867   -0.7300    0.2832 C   0  0  0  0  0  0  0  0  0  0  0  0
  1 15  1  0
  2 17  1  0
  3 19  1  0
  4  8  1  0
  4 10  1  0
  5  9  1  0
  5 14  1  0
  6 11  1  0
  7 10  2  0
  8 11  1  0
  8 12  1  0
  9 10  1  0
  9 13  1  0
 14 15  2  0
 14 16  1  0
 15 18  1  0
 16 17  2  0
 17 19  1  0
 18 19  2  0
M  END
>  <PUBCHEM_COMPOUND_CID>  (1) 
40779

>  <PUBCHEM_CONFORMER_RMSD>  (1) 
0.8

>  <PUBCHEM_CONFORMER_DIVERSEORDER>  (1) 
4
278
371
308
180
235
83
416
148
332
325
21
90
221
347
203
276
383
390
100
157
377
379
192
335
80
161
79
317
364
382
334
376
149
247
154
78
68
245
136
73
16
395
404
159
194
97
20
76
291
166
115
401
420
197
224
380
351
270
315
254
273
237
142
368
283
271
98
200
305
40
410
36
50
91
56
303
102
268
403
353
354
333
188
343
319
11
310
48
318
199
265
74
338
320
71
106
201
141
19
34
406
123
279
359
31
297
43
171
29
95
266
195
155
178
81
280
164
329
61
124
138
42
58
113
122
33
1
375
292
17
396
185
15
378
233
23
51
264
389
259
244
217
75
363
430
143
409
418
41
251
412
417
126
405
229
213
2
63
37
386
6
336
345
314
296
339
69
423
70
289
170
323
326
256
399
282
108
360
306
284
35
152
312
130
13
179
425
144
52
398
427
407
5
151
120
3
362
118
372
191
214
187
356
139
147
146
304
189
207
150
277
288
397
46
62
14
298
269
133
324
252
208
220
231
222
28
198
240
193
316
426
38
26
128
391
422
262
210
39
96
45
309
114
365
18
116
290
88
112
107
7
227
186
307
275
428
239
59
294
204
373
66
49
57
206
350
232
223
250
272
82
286
281
366
385
119
274
9
369
413
226
93
60
77
216
387
160
211
110
54
260
67
293
205
101
27
202
327
44
215
370
374
218
196
24
358
361
248
419
342
25
72
103
381
263
84
313
295
22
331
104
158
86
225
267
411
165
287
230
184
234
424
253
228
367
257
349
219
388
255
12
53
65
121
249
357
131
236
111
243
175
153
301
322
129
181
302
174
10
209
117
415
346
311
55
429
85
340
341
182
132
246
47
125
285
212
92
241
94
89
330
421
394
355
261
145
127
242
87
30
190
32
64
258
167
384
177
337
400
414
169
99
408
321
156
105
328
135
392
173
344
109
238
137
183
300
162
393
163
140
8
134
352
168
172
348
176
402
299

>  <PUBCHEM_MMFF94_PARTIAL_CHARGES>  (1) 
20
1 -0.18
10 0.66
11 0.28
14 0.08
15 0.18
16 -0.15
17 0.18
18 -0.15
19 0.18
2 -0.18
3 -0.18
30 0.15
31 0.15
32 0.4
4 -0.43
5 -0.36
6 -0.68
7 -0.57
8 0.28
9 0.34

>  <PUBCHEM_EFFECTIVE_ROTOR_COUNT>  (1) 
6

>  <PUBCHEM_PHARMACOPHORE_FEATURES>  (1) 
5
1 5 acceptor
1 6 acceptor
1 6 donor
1 7 acceptor
6 14 15 16 17 18 19 rings

>  <PUBCHEM_HEAVY_ATOM_COUNT>  (1) 
19

>  <PUBCHEM_ATOM_DEF_STEREO_COUNT>  (1) 
0

>  <PUBCHEM_ATOM_UDEF_STEREO_COUNT>  (1) 
2

>  <PUBCHEM_BOND_DEF_STEREO_COUNT>  (1) 
0

>  <PUBCHEM_BOND_UDEF_STEREO_COUNT>  (1) 
0

>  <PUBCHEM_ISOTOPIC_ATOM_COUNT>  (1) 
0

>  <PUBCHEM_COMPONENT_COUNT>  (1) 
1

>  <PUBCHEM_CACTVS_TAUTO_COUNT>  (1) 
1

>  <PUBCHEM_CONFORMER_ID>  (1) 
00009F4B00000004

>  <PUBCHEM_MMFF94_ENERGY>  (1) 
47.2752

>  <PUBCHEM_FEATURE_SELFOVERLAP>  (1) 
25.38

>  <PUBCHEM_SHAPE_FINGERPRINT>  (1) 
10616163 171 18410859875550325246
11045977 3 18201710727012946640
12500047 106 18338790096647714076
12553582 1 18340494459971984599
12633257 1 18059028275344148539
13140716 1 18197501929413944347
13583140 156 18059561473806110412
13862211 1 18339364188685564271
14252887 29 17632584820952051886
15042514 8 18336835273081031291
15196674 1 18338234852103102490
15375358 24 18058443214856765916
17804303 29 18412550911727881565
1813 80 17386010542151024334
18186145 218 11963680976106171148
19784866 135 18408322190075910241
20281475 54 18336548329724391796
20600515 1 18198349455115928548
20681677 274 18268988863715604737
21065199 12 18342454799231366226
21267235 1 18409176506010159114
21673915 165 18408602544035008026
23402539 116 18272366495512935671
23557571 272 18200883885541806822
23559900 14 18339633550936576617
23598291 2 17677349228768136620
23622692 118 17772456031156768039
4214541 1 18337670819680714064
5104073 3 18269549451932697626
559249 180 18041553633600783403
5924683 9 18059283361968322919
67856867 119 18115592685564109204
9709674 26 18342460296668504462

>  <PUBCHEM_SHAPE_MULTIPOLES>  (1) 
373.14
10.41
3.06
0.92
7.57
0.15
-0.14
-4.73
2.87
-2.47
0.21
0.49
0.08
0.34

>  <PUBCHEM_SHAPE_SELFOVERLAP>  (1) 
737.424

>  <PUBCHEM_SHAPE_VOLUME>  (1) 
225.4

>  <PUBCHEM_COORDINATE_TYPE>  (1) 
2
5
10

$$$$
