40775
     RDKit          3D

 17 17  0  0  1  0  0  0  0  0999 V2000
   -6.2058    0.8019    0.8420 Cl  0  0  0  0  0  0  0  0  0  0  0  0
   -3.6401    1.6155   -0.7007 O   0  0  0  0  0  0  0  0  0  0  0  0
   -1.2251   -2.0551   -0.4564 O   0  0  0  0  0  0  0  0  0  0  0  0
    5.4733   -0.3208   -0.0024 O   0  0  0  0  0  0  0  0  0  0  0  0
    4.8702    1.7900   -0.0027 O   0  0  0  0  0  0  0  0  0  0  0  0
   -1.7795   -0.0865    0.6125 N   0  0  0  0  0  0  0  0  0  0  0  0
    4.5869    0.5675    0.0016 N   0  0  0  0  0  0  0  0  0  0  0  0
   -3.9034    0.2191   -0.5690 C   0  0  0  0  0  0  0  0  0  0  0  0
   -3.1976   -0.3280    0.6704 C   0  0  0  0  0  0  0  0  0  0  0  0
   -5.4184    0.0171   -0.5521 C   0  0  0  0  0  0  0  0  0  0  0  0
    0.5537   -0.5853    0.0288 C   0  0  0  0  0  0  0  0  0  0  0  0
   -0.8586   -0.9892    0.0376 C   0  0  0  0  0  0  0  0  0  0  0  0
    1.5420   -1.5591    0.0241 C   0  0  0  0  0  0  0  0  0  0  0  0
    0.8781    0.7638    0.0246 C   0  0  0  0  0  0  0  0  0  0  0  0
    3.2218    0.1775    0.0109 C   0  0  0  0  0  0  0  0  0  0  0  0
    2.8832   -1.1758    0.0153 C   0  0  0  0  0  0  0  0  0  0  0  0
    2.2192    1.1473    0.0156 C   0  0  0  0  0  0  0  0  0  0  0  0
  1 10  1  0
  2  8  1  0
  3 12  2  0
  4  7  1  0
  5  7  2  0
  6  9  1  0
  6 12  1  0
  7 15  1  0
  8  9  1  0
  8 10  1  0
 11 12  1  0
 11 13  2  0
 11 14  1  0
 13 16  1  0
 14 17  2  0
 15 16  2  0
 15 17  1  0
M  CHG  2   4  -1   7   1
M  END
>  <PUBCHEM_COMPOUND_CID>  (1) 
40775

>  <PUBCHEM_CONFORMER_RMSD>  (1) 
0.8

>  <PUBCHEM_CONFORMER_DIVERSEORDER>  (1) 
2
18
5
4
20
1
21
19
13
14
6
8
11
15
3
7
17
10
12
9
16

>  <PUBCHEM_MMFF94_PARTIAL_CHARGES>  (1) 
23
1 -0.29
10 0.29
11 0.09
12 0.54
13 -0.15
14 -0.15
15 0.13
16 -0.15
17 -0.15
2 -0.68
21 0.37
24 0.15
25 0.15
26 0.15
27 0.15
28 0.4
3 -0.57
4 -0.52
5 -0.52
6 -0.73
7 0.91
8 0.28
9 0.3

>  <PUBCHEM_EFFECTIVE_ROTOR_COUNT>  (1) 
6

>  <PUBCHEM_PHARMACOPHORE_FEATURES>  (1) 
8
1 2 acceptor
1 2 donor
1 3 acceptor
1 4 acceptor
1 4 anion
1 5 acceptor
1 6 donor
6 11 13 14 15 16 17 rings

>  <PUBCHEM_HEAVY_ATOM_COUNT>  (1) 
17

>  <PUBCHEM_ATOM_DEF_STEREO_COUNT>  (1) 
0

>  <PUBCHEM_ATOM_UDEF_STEREO_COUNT>  (1) 
1

>  <PUBCHEM_BOND_DEF_STEREO_COUNT>  (1) 
0

>  <PUBCHEM_BOND_UDEF_STEREO_COUNT>  (1) 
0

>  <PUBCHEM_ISOTOPIC_ATOM_COUNT>  (1) 
0

>  <PUBCHEM_COMPONENT_COUNT>  (1) 
1

>  <PUBCHEM_CACTVS_TAUTO_COUNT>  (1) 
2

>  <PUBCHEM_CONFORMER_ID>  (1) 
00009F4700000002

>  <PUBCHEM_MMFF94_ENERGY>  (1) 
40.5663

>  <PUBCHEM_FEATURE_SELFOVERLAP>  (1) 
40.681

>  <PUBCHEM_SHAPE_FINGERPRINT>  (1) 
10014705 185 18338233872591693378
10354089 29 17822012012178384745
11089746 13 18060695113560226488
11471102 20 18411699881259289598
12236239 1 17775847908769587023
12916748 109 18187650180606240053
13675066 3 18187369869613100570
14252887 29 12396290435935408400
14897335 6 18413387652745418486
15048467 5 18261111915676083284
15188451 53 15285653144239996409
15196674 1 18336825278206706853
15501527 16 18409449202410950145
15527383 91 11314030175416285879
17834072 33 18130503119223206166
17834072 8 18342183263157093054
17834076 25 17988924466070975411
187816 3 17131834274468155067
200 152 17989766696526013691
20645477 56 18186519908644203711
20645477 70 18270120106678197894
212847 35 18343018887134837000
231179 274 18333167267350452078
23402539 116 17418092118169669393
23402655 69 18202843253700924943
23559900 14 17988925626429719712
2916195 48 18113334207028448097
293599 30 18410012165259725414
29717793 49 17274830134079426164
335352 9 18411138039845326398
34934 24 18411976992501891218
351380 180 18186800279687783781
3545911 37 18408325484157641795
4047638 21 18408605855253975782
4072396 5 18338223904621634642
4325135 7 18272086124406409439
4340502 62 17095244709075445075
5104073 3 18336260249336153762
542803 24 17775567529141438153
8272917 22 18343024341611921286

>  <PUBCHEM_SHAPE_MULTIPOLES>  (1) 
318.28
12.96
1.58
0.76
7.03
0.13
0.03
-4.85
0.48
-0.74
-0.13
0.75
-0.04
-0.05

>  <PUBCHEM_SHAPE_SELFOVERLAP>  (1) 
645.271

>  <PUBCHEM_SHAPE_VOLUME>  (1) 
186.3

>  <PUBCHEM_COORDINATE_TYPE>  (1) 
2
5
10

$$$$
