40774
     RDKit          3D

 12 12  0  0  0  0  0  0  0  0999 V2000
    2.6936   -1.0670   -0.2317 Cl  0  0  0  0  0  0  0  0  0  0  0  0
   -2.6968   -1.0578   -0.2317 Cl  0  0  0  0  0  0  0  0  0  0  0  0
   -2.6651    2.1341    0.1442 Cl  0  0  0  0  0  0  0  0  0  0  0  0
    2.6722    2.1257    0.1443 Cl  0  0  0  0  0  0  0  0  0  0  0  0
   -0.0038   -2.2250   -0.3688 O   0  0  0  0  0  0  0  0  0  0  0  0
   -0.0013   -0.8682   -0.2086 C   0  0  0  0  0  0  0  0  0  0  0  0
    1.2079   -0.1774   -0.1270 C   0  0  0  0  0  0  0  0  0  0  0  0
   -1.2082   -0.1734   -0.1272 C   0  0  0  0  0  0  0  0  0  0  0  0
   -1.2058    1.2120    0.0358 C   0  0  0  0  0  0  0  0  0  0  0  0
    1.2100    1.2080    0.0360 C   0  0  0  0  0  0  0  0  0  0  0  0
    0.0032    1.9027    0.1174 C   0  0  0  0  0  0  0  0  0  0  0  0
   -0.0058   -3.0136    0.8173 C   0  0  0  0  0  0  0  0  0  0  0  0
  1  7  1  0
  2  8  1  0
  3  9  1  0
  4 10  1  0
  5  6  1  0
  5 12  1  0
  6  7  2  0
  6  8  1  0
  7 10  1  0
  8  9  2  0
  9 11  1  0
 10 11  2  0
M  END
>  <PUBCHEM_COMPOUND_CID>  (1) 
40774

>  <PUBCHEM_CONFORMER_RMSD>  (1) 
0.4

>  <PUBCHEM_CONFORMER_DIVERSEORDER>  (1) 
1

>  <PUBCHEM_MMFF94_PARTIAL_CHARGES>  (1) 
13
1 -0.18
10 0.18
11 -0.15
12 0.28
13 0.15
2 -0.18
3 -0.18
4 -0.18
5 -0.36
6 0.08
7 0.18
8 0.18
9 0.18

>  <PUBCHEM_EFFECTIVE_ROTOR_COUNT>  (1) 
1

>  <PUBCHEM_PHARMACOPHORE_FEATURES>  (1) 
2
1 5 acceptor
6 6 7 8 9 10 11 rings

>  <PUBCHEM_HEAVY_ATOM_COUNT>  (1) 
12

>  <PUBCHEM_ATOM_DEF_STEREO_COUNT>  (1) 
0

>  <PUBCHEM_ATOM_UDEF_STEREO_COUNT>  (1) 
0

>  <PUBCHEM_BOND_DEF_STEREO_COUNT>  (1) 
0

>  <PUBCHEM_BOND_UDEF_STEREO_COUNT>  (1) 
0

>  <PUBCHEM_ISOTOPIC_ATOM_COUNT>  (1) 
0

>  <PUBCHEM_COMPONENT_COUNT>  (1) 
1

>  <PUBCHEM_CACTVS_TAUTO_COUNT>  (1) 
1

>  <PUBCHEM_CONFORMER_ID>  (1) 
00009F4600000001

>  <PUBCHEM_MMFF94_ENERGY>  (1) 
38.2582

>  <PUBCHEM_FEATURE_SELFOVERLAP>  (1) 
10.148

>  <PUBCHEM_SHAPE_FINGERPRINT>  (1) 
10967382 1 18051130590337280525
12423570 1 14296294520401574326
13140716 1 18411419466643993081
13380535 76 18123744515973917750
16945 1 18122066669545747908
193761 8 18411982459546768701
20588541 1 18051413169009738517
20645476 183 17970094217244123438
20871998 184 17622732337462593676
21040471 1 18339643446535808788
21501502 16 18412545418122026436
22344851 341 18341045224939468353
2334 1 18411699919418428437
23526114 1 18410856542571151524
23552423 10 18337951190745100861
23559900 14 18199757934654838102
241688 4 18412263904458727929
2748010 2 18410575088984764429
5084963 1 18131069333277873827
5255222 1 18120089472771688381
53812653 166 18125717889989759296
81228 2 18051131689806957265

>  <PUBCHEM_SHAPE_MULTIPOLES>  (1) 
248.56
3.7
3.3
0.71
0
1.07
-0.04
-1.41
0.15
0
-0.59
0
0.17
0

>  <PUBCHEM_SHAPE_SELFOVERLAP>  (1) 
481.935

>  <PUBCHEM_SHAPE_VOLUME>  (1) 
155

>  <PUBCHEM_COORDINATE_TYPE>  (1) 
2
5
10

$$$$
