40785
     RDKit          3D

 19 20  0  0  1  0  0  0  0  0999 V2000
   -2.8101    2.4339    1.5868 Cl  0  0  0  0  0  0  0  0  0  0  0  0
   -2.2470   -2.9091   -1.5784 Cl  0  0  0  0  0  0  0  0  0  0  0  0
    0.9419    1.6537   -2.6533 S   0  0  0  0  0  0  0  0  0  0  0  0
    1.0384    1.3426   -0.7177 P   0  0  0  0  0  0  0  0  0  0  0  0
   -0.4011    1.5368    0.0272 O   0  0  0  0  0  0  0  0  0  0  0  0
    1.8647    2.5260    0.0540 O   0  0  0  0  0  0  0  0  0  0  0  0
    1.7142   -0.1439    0.0004 C   0  0  0  0  0  0  0  0  0  0  0  0
    1.3885   -0.4777    1.3059 C   0  0  0  0  0  0  0  0  0  0  0  0
    2.5547   -0.9437   -0.7580 C   0  0  0  0  0  0  0  0  0  0  0  0
   -1.4535    0.6703    0.0218 C   0  0  0  0  0  0  0  0  0  0  0  0
    1.9168   -1.6402    1.8670 C   0  0  0  0  0  0  0  0  0  0  0  0
    3.0828   -2.1064   -0.1970 C   0  0  0  0  0  0  0  0  0  0  0  0
   -2.6343    0.9617    0.7049 C   0  0  0  0  0  0  0  0  0  0  0  0
   -1.3336   -0.5267   -0.6843 C   0  0  0  0  0  0  0  0  0  0  0  0
    2.7638   -2.4546    1.1156 C   0  0  0  0  0  0  0  0  0  0  0  0
   -2.3944   -1.4323   -0.7071 C   0  0  0  0  0  0  0  0  0  0  0  0
   -3.6950    0.0561    0.6819 C   0  0  0  0  0  0  0  0  0  0  0  0
   -3.5750   -1.1409   -0.0242 C   0  0  0  0  0  0  0  0  0  0  0  0
    3.2780    2.5943   -0.0455 C   0  0  0  0  0  0  0  0  0  0  0  0
  1 13  1  0
  2 16  1  0
  3  4  2  0
  4  5  1  0
  4  6  1  0
  4  7  1  0
  5 10  1  0
  6 19  1  0
  7  8  2  0
  7  9  1  0
  8 11  1  0
  9 12  2  0
 10 13  2  0
 10 14  1  0
 11 15  2  0
 12 15  1  0
 13 17  1  0
 14 16  2  0
 16 18  1  0
 17 18  2  0
M  END
>  <PUBCHEM_COMPOUND_CID>  (1) 
40785

>  <PUBCHEM_CONFORMER_RMSD>  (1) 
0.6

>  <PUBCHEM_CONFORMER_DIVERSEORDER>  (1) 
2
29
24
42
23
36
43
18
12
16
10
8
6
21
5
4
31
34
7
9
11
3
14
39
19
20
30
17
37
40
27
35
1
32
22
28
33
25
41
38
13
15
26

>  <PUBCHEM_MMFF94_PARTIAL_CHARGES>  (1) 
27
1 -0.18
10 0.08
11 -0.15
12 -0.15
13 0.18
14 -0.15
15 -0.15
16 0.18
17 -0.15
18 -0.15
19 0.28
2 -0.18
20 0.15
21 0.15
22 0.15
23 0.15
24 0.15
25 0.15
26 0.15
27 0.15
3 -0.68
4 1.36
5 -0.35
6 -0.55
7 -0.14
8 -0.15
9 -0.15

>  <PUBCHEM_EFFECTIVE_ROTOR_COUNT>  (1) 
4

>  <PUBCHEM_PHARMACOPHORE_FEATURES>  (1) 
2
6 10 13 14 16 17 18 rings
6 7 8 9 11 12 15 rings

>  <PUBCHEM_HEAVY_ATOM_COUNT>  (1) 
19

>  <PUBCHEM_ATOM_DEF_STEREO_COUNT>  (1) 
0

>  <PUBCHEM_ATOM_UDEF_STEREO_COUNT>  (1) 
1

>  <PUBCHEM_BOND_DEF_STEREO_COUNT>  (1) 
0

>  <PUBCHEM_BOND_UDEF_STEREO_COUNT>  (1) 
0

>  <PUBCHEM_ISOTOPIC_ATOM_COUNT>  (1) 
0

>  <PUBCHEM_COMPONENT_COUNT>  (1) 
1

>  <PUBCHEM_CACTVS_TAUTO_COUNT>  (1) 
1

>  <PUBCHEM_CONFORMER_ID>  (1) 
00009F5100000002

>  <PUBCHEM_MMFF94_ENERGY>  (1) 
42.6432

>  <PUBCHEM_FEATURE_SELFOVERLAP>  (1) 
10.149

>  <PUBCHEM_SHAPE_FINGERPRINT>  (1) 
11578080 2 18041547045353632212
12553582 1 18190738626927284386
13083527 12 17681794627667900312
14787075 74 17117185746959765044
15375462 189 18043261140993939288
16752209 62 18201155460771770415
16945 1 18195804059647377701
18981168 100 11887100141070072796
20291156 8 18116434743465892922
20361792 2 17895468124888020055
20442098 301 18343579655229274763
20600515 1 17700423468552256976
20645477 70 18335410305631508679
21330990 113 17190679874535226134
21421861 104 18338800116943325753
21634736 98 18410575102117670538
21731516 1 18115863014572808362
22445834 79 18409171008530758313
2255824 54 18041292048759792062
23419403 2 16828326222655125691
23559900 14 17703518704994303245
23598291 2 18262250918995071189
34934 24 18056199305051094541
465052 167 18117296787068902003
474 4 18042973266516392676
6992083 37 18267303119169202875
7097593 13 18341331097978436280
7364860 26 18411420635222906024
74978 22 18411695448631461597

>  <PUBCHEM_SHAPE_MULTIPOLES>  (1) 
390.71
6.15
3.43
1.85
2.01
0.1
0.59
-1.13
-1.29
-1.21
0.24
-0.2
0.14
-2.38

>  <PUBCHEM_SHAPE_SELFOVERLAP>  (1) 
780.788

>  <PUBCHEM_SHAPE_VOLUME>  (1) 
233.1

>  <PUBCHEM_COORDINATE_TYPE>  (1) 
2
5
10

$$$$
