40786
     RDKit          3D

 14 14  0  0  0  0  0  0  0  0999 V2000
    1.4753    0.0004   -0.0008 C   0  0  0  0  0  0  0  0  0  0  0  0
    0.3087    0.0073   -1.0546 C   0  0  0  0  0  0  0  0  0  0  0  0
    1.4091    1.2569    0.9280 C   0  0  0  0  0  0  0  0  0  0  0  0
    2.8083   -0.0119   -0.8199 C   0  0  0  0  0  0  0  0  0  0  0  0
    1.3894   -1.2508    0.9336 C   0  0  0  0  0  0  0  0  0  0  0  0
   -1.1168    0.0050   -0.5436 C   0  0  0  0  0  0  0  0  0  0  0  0
    1.5123    2.6142    0.2399 C   0  0  0  0  0  0  0  0  0  0  0  0
    4.0967   -0.0203   -0.0039 C   0  0  0  0  0  0  0  0  0  0  0  0
    1.4712   -2.6125    0.2516 C   0  0  0  0  0  0  0  0  0  0  0  0
   -1.7523   -1.2041   -0.3227 C   0  0  0  0  0  0  0  0  0  0  0  0
   -1.7513    1.2120   -0.3088 C   0  0  0  0  0  0  0  0  0  0  0  0
   -3.0652   -1.2063    0.1483 C   0  0  0  0  0  0  0  0  0  0  0  0
   -3.0642    1.2096    0.1622 C   0  0  0  0  0  0  0  0  0  0  0  0
   -3.7212    0.0005    0.3907 C   0  0  0  0  0  0  0  0  0  0  0  0
  1  2  1  0
  1  3  1  0
  1  4  1  0
  1  5  1  0
  2  6  1  0
  3  7  1  0
  4  8  1  0
  5  9  1  0
  6 10  2  0
  6 11  1  0
 10 12  1  0
 11 13  2  0
 12 14  2  0
 13 14  1  0
M  END
>  <PUBCHEM_COMPOUND_CID>  (1) 
40786

>  <PUBCHEM_CONFORMER_RMSD>  (1) 
0.6

>  <PUBCHEM_CONFORMER_DIVERSEORDER>  (1) 
1
2
3

>  <PUBCHEM_MMFF94_PARTIAL_CHARGES>  (1) 
12
10 -0.15
11 -0.15
12 -0.15
13 -0.15
14 -0.15
2 0.14
32 0.15
33 0.15
34 0.15
35 0.15
36 0.15
6 -0.14

>  <PUBCHEM_EFFECTIVE_ROTOR_COUNT>  (1) 
5

>  <PUBCHEM_PHARMACOPHORE_FEATURES>  (1) 
5
1 7 hydrophobe
1 8 hydrophobe
1 9 hydrophobe
5 1 2 3 4 5 hydrophobe
6 6 10 11 12 13 14 rings

>  <PUBCHEM_HEAVY_ATOM_COUNT>  (1) 
14

>  <PUBCHEM_ATOM_DEF_STEREO_COUNT>  (1) 
0

>  <PUBCHEM_ATOM_UDEF_STEREO_COUNT>  (1) 
0

>  <PUBCHEM_BOND_DEF_STEREO_COUNT>  (1) 
0

>  <PUBCHEM_BOND_UDEF_STEREO_COUNT>  (1) 
0

>  <PUBCHEM_ISOTOPIC_ATOM_COUNT>  (1) 
0

>  <PUBCHEM_COMPONENT_COUNT>  (1) 
1

>  <PUBCHEM_CACTVS_TAUTO_COUNT>  (1) 
1

>  <PUBCHEM_CONFORMER_ID>  (1) 
00009F5200000001

>  <PUBCHEM_MMFF94_ENERGY>  (1) 
37.7171

>  <PUBCHEM_FEATURE_SELFOVERLAP>  (1) 
25.403

>  <PUBCHEM_SHAPE_FINGERPRINT>  (1) 
10980938 120 18337954489253662386
12251169 10 18413673508936612385
12346645 44 18335421279040730662
12382932 28 18265603291272479034
12500047 106 18187920652029725901
12696612 119 18340764931163458621
12932764 1 18410289212072400013
13221675 6 18411981355771711671
13380535 21 18336271136967432991
14144814 61 18411698742892431179
15375462 189 18334295335999482202
15775835 57 18408891702623269515
16945 1 18410562990177591781
18186145 218 18407759248997403020
201361 129 18336551525401534506
20559304 39 18410571751910934139
21501502 16 18336261232952267883
21524375 3 17696460059609281576
22445834 79 18408603643562128723
23402539 116 18343577444011928174
23552423 10 18338231673826978757
2748010 2 17902795498087913719
3286 77 18262794189571846446
53812653 166 18412260631904495392
7364860 26 18412262809316050190
74978 22 18342450439802527205

>  <PUBCHEM_SHAPE_MULTIPOLES>  (1) 
288.11
6
2.23
0.93
1.07
0.01
0.02
0
-0.27
-0.77
-0.42
-0.25
0
0

>  <PUBCHEM_SHAPE_SELFOVERLAP>  (1) 
570.652

>  <PUBCHEM_SHAPE_VOLUME>  (1) 
169.6

>  <PUBCHEM_COORDINATE_TYPE>  (1) 
2
5
10

$$$$
