40788
     RDKit          3D

 19 20  0  0  1  0  0  0  0  0999 V2000
    0.4152    0.3607   -0.7359 O   0  0  0  0  0  0  0  0  0  0  0  0
    1.5298   -2.1636   -0.4017 O   0  0  0  0  0  0  0  0  0  0  0  0
   -1.8753    3.0176    0.1202 O   0  0  0  0  0  0  0  0  0  0  0  0
   -0.5488    2.6902   -1.6878 O   0  0  0  0  0  0  0  0  0  0  0  0
   -0.6083    0.9743    0.0438 C   0  0  0  0  0  0  0  0  0  0  0  0
   -1.7558    0.0362    0.2101 C   0  0  0  0  0  0  0  0  0  0  0  0
    1.6376    0.2135   -0.1381 C   0  0  0  0  0  0  0  0  0  0  0  0
   -2.5253    0.0748    1.3729 C   0  0  0  0  0  0  0  0  0  0  0  0
   -2.0600   -0.8794   -0.7974 C   0  0  0  0  0  0  0  0  0  0  0  0
    2.1909   -1.0527    0.0276 C   0  0  0  0  0  0  0  0  0  0  0  0
   -0.9941    2.2938   -0.6186 C   0  0  0  0  0  0  0  0  0  0  0  0
    2.3191    1.3443    0.3021 C   0  0  0  0  0  0  0  0  0  0  0  0
   -3.5986   -0.8023    1.5285 C   0  0  0  0  0  0  0  0  0  0  0  0
   -3.1335   -1.7563   -0.6417 C   0  0  0  0  0  0  0  0  0  0  0  0
    3.4373   -1.1892    0.6387 C   0  0  0  0  0  0  0  0  0  0  0  0
   -3.9028   -1.7178    0.5212 C   0  0  0  0  0  0  0  0  0  0  0  0
    3.5656    1.2076    0.9131 C   0  0  0  0  0  0  0  0  0  0  0  0
    4.1246   -0.0590    1.0815 C   0  0  0  0  0  0  0  0  0  0  0  0
    1.7826   -2.5925   -1.7383 C   0  0  0  0  0  0  0  0  0  0  0  0
  1  5  1  0
  1  7  1  0
  2 10  1  0
  2 19  1  0
  3 11  1  0
  4 11  2  0
  5  6  1  0
  5 11  1  0
  6  8  2  0
  6  9  1  0
  7 10  2  0
  7 12  1  0
  8 13  1  0
  9 14  2  0
 10 15  1  0
 12 17  2  0
 13 16  2  0
 14 16  1  0
 15 18  2  0
 17 18  1  0
M  END
>  <PUBCHEM_COMPOUND_CID>  (1) 
40788

>  <PUBCHEM_CONFORMER_RMSD>  (1) 
0.6

>  <PUBCHEM_CONFORMER_DIVERSEORDER>  (1) 
1
44
9
60
85
12
47
48
53
57
34
46
70
26
71
51
19
45
78
64
54
82
65
76
41
75
56
83
40
24
21
13
67
61
22
66
80
50
68
15
73
39
59
63
87
43
25
16
29
23
14
35
32
62
27
49
58
18
74
11
3
55
4
77
81
31
28
69
42
33
30
7
86
17
20
79
10
36
8
84
37
72
2
5
6
52
38

>  <PUBCHEM_MMFF94_PARTIAL_CHARGES>  (1) 
29
1 -0.36
10 0.08
11 0.66
12 -0.15
13 -0.15
14 -0.15
15 -0.15
16 -0.15
17 -0.15
18 -0.15
19 0.28
2 -0.36
21 0.15
22 0.15
23 0.15
24 0.15
25 0.15
26 0.15
27 0.15
28 0.15
29 0.15
3 -0.65
30 0.5
4 -0.57
5 0.48
6 -0.14
7 0.08
8 -0.15
9 -0.15

>  <PUBCHEM_EFFECTIVE_ROTOR_COUNT>  (1) 
5

>  <PUBCHEM_PHARMACOPHORE_FEATURES>  (1) 
7
1 1 acceptor
1 2 acceptor
1 3 acceptor
1 4 acceptor
3 3 4 11 anion
6 6 8 9 13 14 16 rings
6 7 10 12 15 17 18 rings

>  <PUBCHEM_HEAVY_ATOM_COUNT>  (1) 
19

>  <PUBCHEM_ATOM_DEF_STEREO_COUNT>  (1) 
0

>  <PUBCHEM_ATOM_UDEF_STEREO_COUNT>  (1) 
1

>  <PUBCHEM_BOND_DEF_STEREO_COUNT>  (1) 
0

>  <PUBCHEM_BOND_UDEF_STEREO_COUNT>  (1) 
0

>  <PUBCHEM_ISOTOPIC_ATOM_COUNT>  (1) 
0

>  <PUBCHEM_COMPONENT_COUNT>  (1) 
1

>  <PUBCHEM_CACTVS_TAUTO_COUNT>  (1) 
1

>  <PUBCHEM_CONFORMER_ID>  (1) 
00009F5400000001

>  <PUBCHEM_MMFF94_ENERGY>  (1) 
67.4154

>  <PUBCHEM_FEATURE_SELFOVERLAP>  (1) 
35.593

>  <PUBCHEM_SHAPE_FINGERPRINT>  (1) 
10618630 7 18260831518166087875
1100329 8 17401203872976050828
11132069 177 18201148944831882162
12251169 10 18060424633304180691
12363563 72 17822014241424634859
12553582 1 18264503925884581087
12633257 1 18200035023404127794
13140716 1 17761199317548896304
13544653 18 18040992998608100857
13693222 15 18409160030636554418
14178342 30 18266452114623714096
14223421 5 18342740667711746318
14341114 328 17131276894739196538
15422964 175 18261688033709200771
16945 1 18272374178228369565
1813 80 18040731280818594549
19049666 15 17979919306825460120
20600515 1 17313106396868112885
20671657 53 16153699963990475236
21069387 34 13840257074903341360
21304303 282 16739403078014752765
21756936 100 16271069592678521192
2255824 54 17832439961356691269
23388829 49 18266745860116332341
23402539 116 18187918508355677186
23419403 2 14070133147796444921
23557571 272 18334295340320751557
23559900 14 18262786377195257088
25 1 9583254849910475224
2748010 2 18126001555716328182
5283173 99 18042664162331591421
6049 1 18199194979641233254
81228 2 18115596933054409037
9709674 26 18196927782005749583
9981440 41 17338945916822761856

>  <PUBCHEM_SHAPE_MULTIPOLES>  (1) 
367.53
7.05
2.9
1.38
0.59
0.92
-0.12
-2.64
3.23
-0.35
-1.4
-0.26
-0.12
0.73

>  <PUBCHEM_SHAPE_SELFOVERLAP>  (1) 
784.443

>  <PUBCHEM_SHAPE_VOLUME>  (1) 
203.5

>  <PUBCHEM_COORDINATE_TYPE>  (1) 
2
5
10

$$$$
