40792
     RDKit          3D

 21 22  0  0  0  0  0  0  0  0999 V2000
   -5.0877    1.8885    0.7054 O   0  0  0  0  0  0  0  0  0  0  0  0
   -4.8357   -0.3273   -0.0670 N   0  0  0  0  0  0  0  0  0  0  0  0
    0.7263   -0.3065   -0.5580 N   0  0  0  0  0  0  0  0  0  0  0  0
    6.8298   -0.0179    0.0623 N   0  0  0  0  0  0  0  0  0  0  0  0
    1.2520   -0.0347    0.5470 N   0  0  0  0  0  0  0  0  0  0  0  0
   -3.4460   -0.3220   -0.1906 C   0  0  0  0  0  0  0  0  0  0  0  0
   -2.7799    0.8563   -0.5279 C   0  0  0  0  0  0  0  0  0  0  0  0
   -2.7225   -1.4951    0.0242 C   0  0  0  0  0  0  0  0  0  0  0  0
   -0.6737   -0.3114   -0.4354 C   0  0  0  0  0  0  0  0  0  0  0  0
   -1.3905    0.8615   -0.6508 C   0  0  0  0  0  0  0  0  0  0  0  0
   -1.3330   -1.4898   -0.0985 C   0  0  0  0  0  0  0  0  0  0  0  0
   -5.5821   -1.5578   -0.4751 C   0  0  0  0  0  0  0  0  0  0  0  0
   -5.5938    0.8216    0.3483 C   0  0  0  0  0  0  0  0  0  0  0  0
    5.4246   -0.0218    0.1842 C   0  0  0  0  0  0  0  0  0  0  0  0
    2.6453   -0.0299    0.4255 C   0  0  0  0  0  0  0  0  0  0  0  0
    4.7022    1.1518   -0.0315 C   0  0  0  0  0  0  0  0  0  0  0  0
    4.7571   -1.1997    0.5206 C   0  0  0  0  0  0  0  0  0  0  0  0
    3.3126    1.1478    0.0893 C   0  0  0  0  0  0  0  0  0  0  0  0
    3.3675   -1.2036    0.6412 C   0  0  0  0  0  0  0  0  0  0  0  0
   -7.1023    0.7324    0.3127 C   0  0  0  0  0  0  0  0  0  0  0  0
    7.5298    0.8575   -0.8260 C   0  0  0  0  0  0  0  0  0  0  0  0
  1 13  2  0
  2  6  1  0
  2 12  1  0
  2 13  1  0
  3  5  2  0
  3  9  1  0
  4 14  1  0
  4 21  1  0
  5 15  1  0
  6  7  2  0
  6  8  1  0
  7 10  1  0
  8 11  2  0
  9 10  2  0
  9 11  1  0
 13 20  1  0
 14 16  2  0
 14 17  1  0
 15 18  2  0
 15 19  1  0
 16 18  1  0
 17 19  2  0
M  END
>  <PUBCHEM_COMPOUND_CID>  (1) 
40792

>  <PUBCHEM_CONFORMER_RMSD>  (1) 
0.8

>  <PUBCHEM_CONFORMER_DIVERSEORDER>  (1) 
1
7
5
4
6
2
3

>  <PUBCHEM_MMFF94_PARTIAL_CHARGES>  (1) 
30
1 -0.57
10 -0.15
11 -0.15
12 0.3
13 0.57
14 0.1
15 0.18
16 -0.15
17 -0.15
18 -0.15
19 -0.15
2 -0.48
20 0.06
21 0.37
22 0.15
23 0.15
24 0.15
25 0.15
29 0.15
3 -0.18
30 0.15
31 0.15
32 0.15
36 0.4
4 -0.87
5 -0.18
6 0.12
7 -0.15
8 -0.15
9 0.18

>  <PUBCHEM_EFFECTIVE_ROTOR_COUNT>  (1) 
5

>  <PUBCHEM_PHARMACOPHORE_FEATURES>  (1) 
5
1 1 acceptor
1 4 cation
1 4 donor
6 14 15 16 17 18 19 rings
6 6 7 8 9 10 11 rings

>  <PUBCHEM_HEAVY_ATOM_COUNT>  (1) 
21

>  <PUBCHEM_ATOM_DEF_STEREO_COUNT>  (1) 
0

>  <PUBCHEM_ATOM_UDEF_STEREO_COUNT>  (1) 
0

>  <PUBCHEM_BOND_DEF_STEREO_COUNT>  (1) 
0

>  <PUBCHEM_BOND_UDEF_STEREO_COUNT>  (1) 
0

>  <PUBCHEM_ISOTOPIC_ATOM_COUNT>  (1) 
0

>  <PUBCHEM_COMPONENT_COUNT>  (1) 
1

>  <PUBCHEM_CACTVS_TAUTO_COUNT>  (1) 
2

>  <PUBCHEM_CONFORMER_ID>  (1) 
00009F5800000001

>  <PUBCHEM_MMFF94_ENERGY>  (1) 
85.7778

>  <PUBCHEM_FEATURE_SELFOVERLAP>  (1) 
25.371

>  <PUBCHEM_SHAPE_FINGERPRINT>  (1) 
10299344 5 18407760335239019698
10354089 29 18335419063191007896
106641 1 18040443200746685361
10968037 39 17967812768970584535
11315181 36 18334013921901295607
11524674 6 16845290574691589535
12091667 2 18130787880377496751
12107183 9 17688866441159414291
12236239 1 18409728465379231122
13073987 5 14851873721669619468
13533116 47 18201153248626814474
13785724 45 17765434240960245218
13914758 101 13686026362313530067
1420 363 16008750190749222784
14251752 14 17203610359164190232
14251764 18 18409164419871708059
14341114 176 18260830371699944140
14617045 38 18334296461766469882
14933364 13 18411420613626841156
15048467 5 18410012139284277768
15183329 4 18272370858255540777
15461852 350 17917704717885828261
15716309 27 17967249780251505947
17834072 8 14333406748543025641
19489759 90 15554731075301623531
20281389 69 18409727352661370441
21236236 1 18412822513144672839
21267235 1 18335423495043330430
220451 1 18333728022607532482
22224240 67 15791734117787767584
23035841 295 18186517705215243674
23402539 116 18201431489650822207
23522609 53 18189920684918824836
23536379 177 18413106151872121850
23559900 14 18337665420906550384
29717793 49 17775010094363952892
3004659 81 18412261744760188544
335352 9 18411695496693838213
3545911 37 18334855026547414220
4073 2 18040721415490277882
4214541 1 18410289220229791755
4325135 7 17967814955683652566
4340502 62 15213298621801092938
4463277 17 18408322185448704628
5104073 3 18334850662364900066
542803 24 18272647948028417839
5758199 1 18113337527153887936
59682541 35 16950572111654420481
59755656 215 15913335663145368980
59755656 520 18411975871615985351

>  <PUBCHEM_SHAPE_MULTIPOLES>  (1) 
406.38
19.71
1.54
0.79
6.76
0.12
0.02
-4.23
-0.25
-0.97
-0.07
0.09
-0.04
-1.12

>  <PUBCHEM_SHAPE_SELFOVERLAP>  (1) 
857.757

>  <PUBCHEM_SHAPE_VOLUME>  (1) 
228.9

>  <PUBCHEM_COORDINATE_TYPE>  (1) 
2
5
10

$$$$
