40791
     RDKit          3D

 18 19  0  0  0  0  0  0  0  0999 V2000
    0.7947   -1.1351    0.0785 O   0  0  0  0  0  0  0  0  0  0  0  0
    4.4465   -1.3509    0.4106 N   0  0  0  0  0  0  0  0  0  0  0  0
   -0.2221   -0.2685    0.6116 C   0  0  0  0  0  0  0  0  0  0  0  0
    0.0223    1.1482    0.2145 C   0  0  0  0  0  0  0  0  0  0  0  0
   -1.6132   -0.7767    0.2457 C   0  0  0  0  0  0  0  0  0  0  0  0
    2.0746   -0.7631    0.5535 C   0  0  0  0  0  0  0  0  0  0  0  0
    3.1089   -1.7075   -0.0381 C   0  0  0  0  0  0  0  0  0  0  0  0
   -0.3892    2.1873    1.0493 C   0  0  0  0  0  0  0  0  0  0  0  0
   -2.6605   -0.5185    1.1036 C   0  0  0  0  0  0  0  0  0  0  0  0
    0.6628    1.4342   -0.9912 C   0  0  0  0  0  0  0  0  0  0  0  0
   -1.7760   -1.4764   -0.9305 C   0  0  0  0  0  0  0  0  0  0  0  0
   -0.1606    3.5123    0.6782 C   0  0  0  0  0  0  0  0  0  0  0  0
   -3.9325   -0.9828    0.7691 C   0  0  0  0  0  0  0  0  0  0  0  0
    0.8915    2.7593   -1.3621 C   0  0  0  0  0  0  0  0  0  0  0  0
   -3.0481   -1.9406   -1.2650 C   0  0  0  0  0  0  0  0  0  0  0  0
    0.4798    3.7984   -0.5274 C   0  0  0  0  0  0  0  0  0  0  0  0
   -4.1264   -1.6937   -0.4151 C   0  0  0  0  0  0  0  0  0  0  0  0
    5.4476   -2.2260   -0.1853 C   0  0  0  0  0  0  0  0  0  0  0  0
  1  3  1  0
  1  6  1  0
  2  7  1  0
  2 18  1  0
  3  4  1  0
  3  5  1  0
  4  8  2  0
  4 10  1  0
  5  9  2  0
  5 11  1  0
  6  7  1  0
  8 12  1  0
  9 13  1  0
 10 14  2  0
 11 15  2  0
 12 16  2  0
 13 17  2  0
 14 16  1  0
 15 17  1  0
M  END
>  <PUBCHEM_COMPOUND_CID>  (1) 
40791

>  <PUBCHEM_CONFORMER_RMSD>  (1) 
0.8

>  <PUBCHEM_CONFORMER_DIVERSEORDER>  (1) 
1
8
14
7
15
4
5
9
13
6
10
11
3
12
2

>  <PUBCHEM_MMFF94_PARTIAL_CHARGES>  (1) 
29
1 -0.56
10 -0.15
11 -0.15
12 -0.15
13 -0.15
14 -0.15
15 -0.15
16 -0.15
17 -0.15
18 0.27
2 -0.9
24 0.15
25 0.15
26 0.15
27 0.15
28 0.15
29 0.15
3 0.57
30 0.15
31 0.15
32 0.36
33 0.15
34 0.15
4 -0.14
5 -0.14
6 0.28
7 0.27
8 -0.15
9 -0.15

>  <PUBCHEM_EFFECTIVE_ROTOR_COUNT>  (1) 
6

>  <PUBCHEM_PHARMACOPHORE_FEATURES>  (1) 
5
1 1 acceptor
1 2 cation
1 2 donor
6 4 8 10 12 14 16 rings
6 5 9 11 13 15 17 rings

>  <PUBCHEM_HEAVY_ATOM_COUNT>  (1) 
18

>  <PUBCHEM_ATOM_DEF_STEREO_COUNT>  (1) 
0

>  <PUBCHEM_ATOM_UDEF_STEREO_COUNT>  (1) 
0

>  <PUBCHEM_BOND_DEF_STEREO_COUNT>  (1) 
0

>  <PUBCHEM_BOND_UDEF_STEREO_COUNT>  (1) 
0

>  <PUBCHEM_ISOTOPIC_ATOM_COUNT>  (1) 
0

>  <PUBCHEM_COMPONENT_COUNT>  (1) 
1

>  <PUBCHEM_CACTVS_TAUTO_COUNT>  (1) 
1

>  <PUBCHEM_CONFORMER_ID>  (1) 
00009F5700000001

>  <PUBCHEM_MMFF94_ENERGY>  (1) 
48.5803

>  <PUBCHEM_FEATURE_SELFOVERLAP>  (1) 
25.371

>  <PUBCHEM_SHAPE_FINGERPRINT>  (1) 
10989021 7 18335707143742919776
11045515 52 18260545610883426158
11101153 10 18334584534498360020
11265709 11 18409736140311800162
12643181 29 17044296369046886878
12730499 353 8480266571533132278
13004483 165 18338505336058081698
13009979 54 17988092187393214179
13134695 92 18340199808056643701
13149001 5 17823703151346434546
13294875 104 17696474352949251833
13681431 1 18262511619193963008
14347332 77 18265897944021899606
14508225 48 18338226081811253588
14910302 57 17773047350002390214
15842332 3 17843695606298505635
16945 1 18119250811856329601
17539 30 18193828258885492932
17980427 23 17346880070243458201
1813 80 18341343231456668238
18186145 218 17547023274078494037
204376 136 10231753400863863682
20671657 1 18124315175451787575
21041028 32 18336558157015889857
21202864 24 17981616965579700864
21304303 282 16889712829028855636
21339142 126 18269272365969821330
21426921 1 18194964037797436306
22112679 90 18267328476598349400
2255824 54 18195246852207883375
23175994 123 18259988175731673459
23402539 116 18336546019486232250
23419403 2 18128226004909636752
23557571 272 18339644421889030638
23559900 14 18196079157326310371
23566358 27 18048883197550976751
25 1 17620495918048465333
283562 15 18262515871628707514
458136 41 17614294681073080419
6786 2 17118046123429894464
68521 5 18336827468465681578
6992083 37 18201731626070770379
7364860 26 18123184864412890001
7399639 24 18201421564314301618
7471813 234 18200587111822963997
81228 2 18191870015712160410

>  <PUBCHEM_SHAPE_MULTIPOLES>  (1) 
359.58
7.21
4.27
1.18
4.96
5.01
-0.17
-10.27
0.03
2.42
-0.68
-0.51
0.3
-0.93

>  <PUBCHEM_SHAPE_SELFOVERLAP>  (1) 
753.18

>  <PUBCHEM_SHAPE_VOLUME>  (1) 
203.2

>  <PUBCHEM_COORDINATE_TYPE>  (1) 
2
5
10

$$$$
