40795
     RDKit          3D

  9  9  0  0  1  0  0  0  0  0999 V2000
    1.1655   -0.5057   -0.0196 N   0  0  0  0  0  0  0  0  0  0  0  0
   -0.6276    1.0920   -0.1415 N   0  0  0  0  0  0  0  0  0  0  0  0
   -1.1060   -1.2872    0.3567 C   0  0  0  0  0  0  0  0  0  0  0  0
   -1.5678   -0.0177   -0.3580 C   0  0  0  0  0  0  0  0  0  0  0  0
    0.2856   -1.6651   -0.1327 C   0  0  0  0  0  0  0  0  0  0  0  0
    0.6243    0.7802   -0.0142 C   0  0  0  0  0  0  0  0  0  0  0  0
   -2.9371    0.4225    0.1481 C   0  0  0  0  0  0  0  0  0  0  0  0
    2.5963   -0.7746   -0.0035 C   0  0  0  0  0  0  0  0  0  0  0  0
    1.5667    1.9556    0.1648 C   0  0  0  0  0  0  0  0  0  0  0  0
  1  5  1  0
  1  6  1  0
  1  8  1  0
  2  4  1  0
  2  6  2  0
  3  4  1  0
  3  5  1  0
  4  7  1  0
  6  9  1  0
M  END
>  <PUBCHEM_COMPOUND_CID>  (1) 
40795

>  <PUBCHEM_CONFORMER_RMSD>  (1) 
0.4

>  <PUBCHEM_CONFORMER_DIVERSEORDER>  (1) 
1

>  <PUBCHEM_MMFF94_PARTIAL_CHARGES>  (1) 
7
1 -0.79
2 -0.7
4 0.25
5 0.37
6 0.44
8 0.37
9 0.06

>  <PUBCHEM_EFFECTIVE_ROTOR_COUNT>  (1) 
0.8

>  <PUBCHEM_PHARMACOPHORE_FEATURES>  (1) 
2
3 1 2 6 cation
6 1 2 3 4 5 6 rings

>  <PUBCHEM_HEAVY_ATOM_COUNT>  (1) 
9

>  <PUBCHEM_ATOM_DEF_STEREO_COUNT>  (1) 
0

>  <PUBCHEM_ATOM_UDEF_STEREO_COUNT>  (1) 
1

>  <PUBCHEM_BOND_DEF_STEREO_COUNT>  (1) 
0

>  <PUBCHEM_BOND_UDEF_STEREO_COUNT>  (1) 
0

>  <PUBCHEM_ISOTOPIC_ATOM_COUNT>  (1) 
0

>  <PUBCHEM_COMPONENT_COUNT>  (1) 
1

>  <PUBCHEM_CACTVS_TAUTO_COUNT>  (1) 
1

>  <PUBCHEM_CONFORMER_ID>  (1) 
00009F5B00000001

>  <PUBCHEM_MMFF94_ENERGY>  (1) 
17.2559

>  <PUBCHEM_FEATURE_SELFOVERLAP>  (1) 
10.148

>  <PUBCHEM_SHAPE_FINGERPRINT>  (1) 
15310529 11 16443345330108257398
16945 1 18338795619933244295
18185500 45 18123185706147384655
193761 8 18122343750834166294
21040471 1 18194120943568525397
23235685 24 18410570652299085939
23402655 69 17978209588484763253
23552423 10 18116432733521080806
241688 4 17691693281296433858
2748010 2 18265334091264775519
29004967 10 18338239241295636219
5084963 1 18201714046510898363

>  <PUBCHEM_SHAPE_MULTIPOLES>  (1) 
175.25
3.33
1.86
0.64
0.8
0.19
0
0.28
-0.13
-0.72
-0.08
0.05
-0.02
0.11

>  <PUBCHEM_SHAPE_SELFOVERLAP>  (1) 
338.403

>  <PUBCHEM_SHAPE_VOLUME>  (1) 
105.6

>  <PUBCHEM_COORDINATE_TYPE>  (1) 
2
5
10

$$$$
