40807
     RDKit          3D

 28 29  0  0  0  0  0  0  0  0999 V2000
    4.2505   -0.6099   -0.3530 S   0  0  0  0  0  0  0  0  0  0  0  0
   -3.4387   -1.7673   -0.3467 S   0  0  0  0  0  0  0  0  0  0  0  0
    5.3876   -0.0865    0.3790 O   0  0  0  0  0  0  0  0  0  0  0  0
    4.4053   -1.0752   -1.7181 O   0  0  0  0  0  0  0  0  0  0  0  0
    0.1114    3.6217   -0.3286 O   0  0  0  0  0  0  0  0  0  0  0  0
   -3.3754   -2.4421    0.9355 O   0  0  0  0  0  0  0  0  0  0  0  0
   -4.5568   -1.9983   -1.2414 O   0  0  0  0  0  0  0  0  0  0  0  0
    1.0449   -1.6537    2.0016 O   0  0  0  0  0  0  0  0  0  0  0  0
   -0.4658   -3.8067    0.4523 O   0  0  0  0  0  0  0  0  0  0  0  0
    3.5072   -1.8414    0.5655 N   0  0  0  0  0  0  0  0  0  0  0  0
   -1.9848   -2.0377   -1.1953 N   0  0  0  0  0  0  0  0  0  0  0  0
    2.2255   -2.3132    0.0902 N   0  0  0  0  0  0  0  0  0  0  0  0
   -0.7593   -1.6929   -0.5109 N   0  0  0  0  0  0  0  0  0  0  0  0
    3.0133    0.6538   -0.3454 C   0  0  0  0  0  0  0  0  0  0  0  0
   -3.3553   -0.0312   -0.0188 C   0  0  0  0  0  0  0  0  0  0  0  0
    2.0473    0.6903   -1.3510 C   0  0  0  0  0  0  0  0  0  0  0  0
    3.0044    1.6146    0.6657 C   0  0  0  0  0  0  0  0  0  0  0  0
    1.0635    2.6489   -0.3345 C   0  0  0  0  0  0  0  0  0  0  0  0
    1.0724    1.6878   -1.3455 C   0  0  0  0  0  0  0  0  0  0  0  0
    2.0295    2.6122    0.6711 C   0  0  0  0  0  0  0  0  0  0  0  0
   -3.8895    0.8775   -0.9324 C   0  0  0  0  0  0  0  0  0  0  0  0
   -2.7542    0.4295    1.1525 C   0  0  0  0  0  0  0  0  0  0  0  0
   -3.8225    2.2468   -0.6748 C   0  0  0  0  0  0  0  0  0  0  0  0
   -2.6873    1.7987    1.4103 C   0  0  0  0  0  0  0  0  0  0  0  0
   -3.2215    2.7074    0.4966 C   0  0  0  0  0  0  0  0  0  0  0  0
    1.1232   -2.1554    0.8915 C   0  0  0  0  0  0  0  0  0  0  0  0
   -0.1353   -2.6490    0.2494 C   0  0  0  0  0  0  0  0  0  0  0  0
    0.1602    4.5714    0.7350 C   0  0  0  0  0  0  0  0  0  0  0  0
  1  3  2  0
  1  4  2  0
  1 10  1  0
  1 14  1  0
  2  6  2  0
  2  7  2  0
  2 11  1  0
  2 15  1  0
  5 18  1  0
  5 28  1  0
  8 26  2  0
  9 27  2  0
 10 12  1  0
 11 13  1  0
 12 26  1  0
 13 27  1  0
 14 16  2  0
 14 17  1  0
 15 21  2  0
 15 22  1  0
 16 19  1  0
 17 20  2  0
 18 19  2  0
 18 20  1  0
 21 23  1  0
 22 24  2  0
 23 25  2  0
 24 25  1  0
 26 27  1  0
M  END
>  <PUBCHEM_COMPOUND_CID>  (1) 
40807

>  <PUBCHEM_CONFORMER_RMSD>  (1) 
1.2

>  <PUBCHEM_CONFORMER_DIVERSEORDER>  (1) 
1
155
75
6
113
10
22
118
3
175
114
149
79
12
142
8
120
140
76
150
66
121
160
145
180
156
29
33
83
2
109
5
92
171
162
7
141
187
183
37
164
9
186
128
182
81
133
101
107
173
136
91
93
157
144
98
73
143
25
27
163
71
78
23
161
148
116
112
153
94
179
166
57
30
115
108
4
172
102
154
158
99
31
70
89
131
15
72
53
86
124
19
13
117
147
178
80
165
159
17
39
127
134
24
11
40
110
34
125
28
106
185
103
26
146
32
129
87
51
126
167
122
84
45
130
152
46
69
18
54
177
88
135
176
174
151
74
119
21
104
16
20
169
43
97
42
170
137
139
50
59
132
55
111
82
100
49
63
60
58
67
95
123
14
138
41
68
188
96
44
38
61
184
65
62
64
181
85
52
47
168
77
56
35
48
90
36
105

>  <PUBCHEM_MMFF94_PARTIAL_CHARGES>  (1) 
41
1 1.45
10 -0.64
11 -0.64
12 -0.35
13 -0.35
14 -0.01
15 -0.01
16 -0.15
17 -0.15
18 0.08
19 -0.15
2 1.45
20 -0.15
21 -0.15
22 -0.15
23 -0.15
24 -0.15
25 -0.15
26 0.63
27 0.63
28 0.28
29 0.15
3 -0.65
30 0.15
31 0.42
32 0.15
33 0.15
34 0.42
35 0.15
36 0.15
37 0.37
38 0.15
39 0.15
4 -0.65
40 0.37
41 0.15
5 -0.36
6 -0.65
7 -0.65
8 -0.57
9 -0.57

>  <PUBCHEM_EFFECTIVE_ROTOR_COUNT>  (1) 
10

>  <PUBCHEM_PHARMACOPHORE_FEATURES>  (1) 
13
1 10 donor
1 11 donor
1 12 donor
1 13 donor
1 3 acceptor
1 4 acceptor
1 5 acceptor
1 6 acceptor
1 7 acceptor
1 8 acceptor
1 9 acceptor
6 14 16 17 18 19 20 rings
6 15 21 22 23 24 25 rings

>  <PUBCHEM_HEAVY_ATOM_COUNT>  (1) 
28

>  <PUBCHEM_ATOM_DEF_STEREO_COUNT>  (1) 
0

>  <PUBCHEM_ATOM_UDEF_STEREO_COUNT>  (1) 
0

>  <PUBCHEM_BOND_DEF_STEREO_COUNT>  (1) 
0

>  <PUBCHEM_BOND_UDEF_STEREO_COUNT>  (1) 
0

>  <PUBCHEM_ISOTOPIC_ATOM_COUNT>  (1) 
0

>  <PUBCHEM_COMPONENT_COUNT>  (1) 
1

>  <PUBCHEM_CACTVS_TAUTO_COUNT>  (1) 
4

>  <PUBCHEM_CONFORMER_ID>  (1) 
00009F6700000001

>  <PUBCHEM_MMFF94_ENERGY>  (1) 
37.5275

>  <PUBCHEM_FEATURE_SELFOVERLAP>  (1) 
68.521

>  <PUBCHEM_SHAPE_FINGERPRINT>  (1) 
10708813 3 18411135814192436657
11513181 2 17408238071633889287
12038231 1 18410572898688567449
12156800 1 15444029869352566833
12422481 6 17972298648143283970
12553582 1 18266745675169254425
12596599 1 18059303049834098086
13122387 1 17689153409742226113
13140716 1 18337108956153409339
14117953 113 17475223601231632621
14251751 93 18411986849272455019
14765038 42 18200049343105226032
15297060 5 17916303831606095915
19930381 70 17473264752616058979
20600515 1 18271539602017840164
21857420 4 15330339658207798607
22749437 52 18263078967278154883
3052486 1 18408317796556533328
350125 39 18408892853890990523
35225 105 17827946209957201951
463206 1 18409450263263000433
508706 21 18186235143416693375
9981440 41 17043440415737574032

>  <PUBCHEM_SHAPE_MULTIPOLES>  (1) 
522.92
8.72
5.09
1.37
1.49
1.9
0.01
-1.54
-1.41
-1.4
0.93
-0.03
-0.11
-0.49

>  <PUBCHEM_SHAPE_SELFOVERLAP>  (1) 
1071.214

>  <PUBCHEM_SHAPE_VOLUME>  (1) 
299.8

>  <PUBCHEM_COORDINATE_TYPE>  (1) 
2
5
10

$$$$
