40800
     RDKit          3D

 22 24  0  0  1  0  0  0  0  0999 V2000
    0.8046    2.0713    1.9019 O   0  0  0  0  0  0  0  0  0  0  0  0
    5.6560   -1.0612   -0.7028 O   0  0  0  0  0  0  0  0  0  0  0  0
   -3.6216   -1.9677    0.8870 N   0  0  0  0  0  0  0  0  0  0  0  0
   -0.3299    0.8558    0.3026 N   0  0  0  0  0  0  0  0  0  0  0  0
   -2.7565    0.3002    0.3810 C   0  0  0  0  0  0  0  0  0  0  0  0
   -2.9861    0.0670   -1.1255 C   0  0  0  0  0  0  0  0  0  0  0  0
   -1.6485    1.3435    0.6384 C   0  0  0  0  0  0  0  0  0  0  0  0
   -3.2981    1.3854   -1.8415 C   0  0  0  0  0  0  0  0  0  0  0  0
   -4.1089   -0.9573   -1.3217 C   0  0  0  0  0  0  0  0  0  0  0  0
   -2.5020   -1.0369    1.1014 C   0  0  0  0  0  0  0  0  0  0  0  0
   -1.9437    2.6477   -0.1134 C   0  0  0  0  0  0  0  0  0  0  0  0
   -2.2035    2.4235   -1.6034 C   0  0  0  0  0  0  0  0  0  0  0  0
   -3.8227   -2.2430   -0.5422 C   0  0  0  0  0  0  0  0  0  0  0  0
   -3.3996   -3.2130    1.6216 C   0  0  0  0  0  0  0  0  0  0  0  0
    0.8394    1.2630    0.9746 C   0  0  0  0  0  0  0  0  0  0  0  0
    2.1019    0.6538    0.5355 C   0  0  0  0  0  0  0  0  0  0  0  0
    3.2907    1.3489    0.7047 C   0  0  0  0  0  0  0  0  0  0  0  0
    2.0864   -0.6079   -0.0421 C   0  0  0  0  0  0  0  0  0  0  0  0
    4.4893    0.7704    0.2873 C   0  0  0  0  0  0  0  0  0  0  0  0
    3.2851   -1.1865   -0.4593 C   0  0  0  0  0  0  0  0  0  0  0  0
    4.4867   -0.4974   -0.2946 C   0  0  0  0  0  0  0  0  0  0  0  0
    5.5811   -2.3596   -1.2895 C   0  0  0  0  0  0  0  0  0  0  0  0
  1 15  2  0
  2 21  1  0
  2 22  1  0
  3 10  1  0
  3 13  1  0
  3 14  1  0
  4  7  1  0
  4 15  1  0
  5  6  1  0
  5  7  1  0
  5 10  1  0
  6  8  1  0
  6  9  1  0
  7 11  1  0
  8 12  1  0
  9 13  1  0
 11 12  1  0
 15 16  1  0
 16 17  2  0
 16 18  1  0
 17 19  1  0
 18 20  2  0
 19 21  2  0
 20 21  1  0
M  END
>  <PUBCHEM_COMPOUND_CID>  (1) 
40800

>  <PUBCHEM_CONFORMER_RMSD>  (1) 
0.8

>  <PUBCHEM_CONFORMER_DIVERSEORDER>  (1) 
1
8
2
5
6
4
3
7

>  <PUBCHEM_MMFF94_PARTIAL_CHARGES>  (1) 
21
1 -0.57
10 0.27
13 0.27
14 0.27
15 0.54
16 0.09
17 -0.15
18 -0.15
19 -0.15
2 -0.36
20 -0.15
21 0.08
22 0.28
3 -0.81
38 0.37
4 -0.73
42 0.15
43 0.15
44 0.15
45 0.15
7 0.3

>  <PUBCHEM_EFFECTIVE_ROTOR_COUNT>  (1) 
5.6

>  <PUBCHEM_PHARMACOPHORE_FEATURES>  (1) 
7
1 1 acceptor
1 2 acceptor
1 3 cation
1 4 donor
6 16 17 18 19 20 21 rings
6 3 5 6 9 10 13 rings
6 5 6 7 8 11 12 rings

>  <PUBCHEM_HEAVY_ATOM_COUNT>  (1) 
22

>  <PUBCHEM_ATOM_DEF_STEREO_COUNT>  (1) 
2

>  <PUBCHEM_ATOM_UDEF_STEREO_COUNT>  (1) 
1

>  <PUBCHEM_BOND_DEF_STEREO_COUNT>  (1) 
0

>  <PUBCHEM_BOND_UDEF_STEREO_COUNT>  (1) 
0

>  <PUBCHEM_ISOTOPIC_ATOM_COUNT>  (1) 
0

>  <PUBCHEM_COMPONENT_COUNT>  (1) 
1

>  <PUBCHEM_CACTVS_TAUTO_COUNT>  (1) 
2

>  <PUBCHEM_CONFORMER_ID>  (1) 
00009F6000000001

>  <PUBCHEM_MMFF94_ENERGY>  (1) 
54.0228

>  <PUBCHEM_FEATURE_SELFOVERLAP>  (1) 
35.537

>  <PUBCHEM_SHAPE_FINGERPRINT>  (1) 
10730089 88 18334850619821284909
107951 10 18191299378389784773
10928967 22 17560805446216187998
121448 382 17675921014613449496
12422481 6 14979128951580262012
12596602 18 15266774537163313831
12633257 1 16844738654271790135
13103583 49 16558203707849316187
13257819 37 17750501889976048229
13402501 40 18411981399080743367
13544653 18 18201723989233757040
13941219 33 18059306382866143059
14251740 79 18335986363329271163
14251764 30 17024606696935830171
15163728 17 16736898326697983101
15475509 8 18334564777553788143
17357779 13 18265039405316672543
1768 210 14346942922551287486
17870717 6 18259702298466050183
18927931 339 17631741452583829430
19377110 9 14907884012704904578
20603629 256 17130976736633668656
20693207 138 18338786892581155301
20871999 31 18114176432602982765
21307412 95 18335697300053262151
21713013 43 18407759231337466124
221490 88 18342741827901536096
22393880 68 18261669273492212818
22849339 104 18040430006222478039
23379529 103 18190750914707496314
23557571 272 18189040036139299585
23559900 14 18409438202709989952
2838139 119 8069215214340374603
2871803 45 18409160039041996058
3117164 225 10807393849374850972
312425 83 17314232168369230798
314194 84 17917711353008913146
3268164 11 17530679909472077757
437815 12 18264209278897470299
44062 13 18338235955793256862
484985 159 17846779573110422551
4921388 177 18261109651869550629
5104073 3 17988362577465100450
5365585 94 18412271622731658666
5486654 36 18200888321936939065
59755656 520 18194406585217953401
633830 44 14563092451711811944
6431902 208 18130509639696146830
9709674 26 18410849979839783784

>  <PUBCHEM_SHAPE_MULTIPOLES>  (1) 
431.05
11.29
3.15
1.6
13.34
0.91
0.1
7.29
3.82
-2.61
-0.3
-0.99
-0.04
2.97

>  <PUBCHEM_SHAPE_SELFOVERLAP>  (1) 
902.744

>  <PUBCHEM_SHAPE_VOLUME>  (1) 
242.2

>  <PUBCHEM_COORDINATE_TYPE>  (1) 
2
5
10

$$$$
