40812
     RDKit          3D

 24 28  0  0  0  0  0  0  0  0999 V2000
   -2.2708   -1.8018    0.6444 O   0  0  0  0  0  0  0  0  0  0  0  0
   -2.4197   -2.1012   -1.6727 O   0  0  0  0  0  0  0  0  0  0  0  0
    0.7669    0.2014    0.1136 C   0  0  0  0  0  0  0  0  0  0  0  0
    2.1723   -0.0116    0.0367 C   0  0  0  0  0  0  0  0  0  0  0  0
    0.2148    1.5016   -0.0362 C   0  0  0  0  0  0  0  0  0  0  0  0
   -0.0780   -0.9060    0.3427 C   0  0  0  0  0  0  0  0  0  0  0  0
   -1.2099    1.6802    0.0473 C   0  0  0  0  0  0  0  0  0  0  0  0
    3.0440    1.0749   -0.1914 C   0  0  0  0  0  0  0  0  0  0  0  0
    2.7117   -1.3124    0.1877 C   0  0  0  0  0  0  0  0  0  0  0  0
   -2.0343    0.5510    0.2780 C   0  0  0  0  0  0  0  0  0  0  0  0
   -1.4604   -0.7165    0.4212 C   0  0  0  0  0  0  0  0  0  0  0  0
    1.1261    2.5584   -0.2629 C   0  0  0  0  0  0  0  0  0  0  0  0
    0.4719   -2.1867    0.4901 C   0  0  0  0  0  0  0  0  0  0  0  0
    2.5061    2.3529   -0.3390 C   0  0  0  0  0  0  0  0  0  0  0  0
    1.8486   -2.3882    0.4136 C   0  0  0  0  0  0  0  0  0  0  0  0
    4.4278    0.8562   -0.2658 C   0  0  0  0  0  0  0  0  0  0  0  0
    4.0989   -1.5037    0.1090 C   0  0  0  0  0  0  0  0  0  0  0  0
   -1.8667    2.9300   -0.0867 C   0  0  0  0  0  0  0  0  0  0  0  0
   -3.4306    0.6908    0.3652 C   0  0  0  0  0  0  0  0  0  0  0  0
    4.9508   -0.4255   -0.1164 C   0  0  0  0  0  0  0  0  0  0  0  0
   -3.2556    3.0556    0.0022 C   0  0  0  0  0  0  0  0  0  0  0  0
   -4.0383    1.9348    0.2283 C   0  0  0  0  0  0  0  0  0  0  0  0
   -2.7002   -2.4334   -0.5287 C   0  0  0  0  0  0  0  0  0  0  0  0
   -3.5753   -3.6007   -0.1801 C   0  0  0  0  0  0  0  0  0  0  0  0
  1 11  1  0
  1 23  1  0
  2 23  2  0
  3  4  2  0
  3  5  1  0
  3  6  1  0
  4  8  1  0
  4  9  1  0
  5  7  1  0
  5 12  2  0
  6 11  2  0
  6 13  1  0
  7 10  2  0
  7 18  1  0
  8 14  2  0
  8 16  1  0
  9 15  1  0
  9 17  2  0
 10 11  1  0
 10 19  1  0
 12 14  1  0
 13 15  2  0
 16 20  2  0
 17 20  1  0
 18 21  2  0
 19 22  2  0
 21 22  1  0
 23 24  1  0
M  END
>  <PUBCHEM_COMPOUND_CID>  (1) 
40812

>  <PUBCHEM_CONFORMER_RMSD>  (1) 
0.6

>  <PUBCHEM_CONFORMER_DIVERSEORDER>  (1) 
1
3
6
5
4
2

>  <PUBCHEM_MMFF94_PARTIAL_CHARGES>  (1) 
27
1 -0.23
11 0.08
12 -0.15
13 -0.15
14 -0.15
15 -0.15
16 -0.15
17 -0.15
18 -0.15
19 -0.15
2 -0.57
20 -0.15
21 -0.15
22 -0.15
23 0.66
24 0.06
25 0.15
26 0.15
27 0.15
28 0.15
29 0.15
30 0.15
31 0.15
32 0.15
33 0.15
34 0.15
35 0.15

>  <PUBCHEM_EFFECTIVE_ROTOR_COUNT>  (1) 
2

>  <PUBCHEM_PHARMACOPHORE_FEATURES>  (1) 
6
1 2 acceptor
6 3 4 5 8 12 14 rings
6 3 4 6 9 13 15 rings
6 3 5 6 7 10 11 rings
6 4 8 9 16 17 20 rings
6 7 10 18 19 21 22 rings

>  <PUBCHEM_HEAVY_ATOM_COUNT>  (1) 
24

>  <PUBCHEM_ATOM_DEF_STEREO_COUNT>  (1) 
0

>  <PUBCHEM_ATOM_UDEF_STEREO_COUNT>  (1) 
0

>  <PUBCHEM_BOND_DEF_STEREO_COUNT>  (1) 
0

>  <PUBCHEM_BOND_UDEF_STEREO_COUNT>  (1) 
0

>  <PUBCHEM_ISOTOPIC_ATOM_COUNT>  (1) 
0

>  <PUBCHEM_COMPONENT_COUNT>  (1) 
1

>  <PUBCHEM_CACTVS_TAUTO_COUNT>  (1) 
1

>  <PUBCHEM_CONFORMER_ID>  (1) 
00009F6C00000001

>  <PUBCHEM_MMFF94_ENERGY>  (1) 
91.4146

>  <PUBCHEM_FEATURE_SELFOVERLAP>  (1) 
30.6

>  <PUBCHEM_SHAPE_FINGERPRINT>  (1) 
10062212 137 18335135388922029498
10411042 1 18194122051865877355
10616163 171 18411984667207529102
10967382 1 18192151490921161328
1100329 8 18410573950976641176
11578080 2 17560224959568334313
12035759 4 18339059558975152279
12403259 226 18269554017061114952
12403260 363 18263356057536290122
12422481 6 18056788553242659691
12838862 33 18191569883772692088
13140716 1 18339085989813891449
138480 1 16753250108643460075
14178342 30 18338498812149991320
14790565 3 18050856515600511016
15042514 8 18410862083679843425
15131766 46 15866074349604806622
15196674 1 18264210218756764792
16087824 20 18410575073192161389
16728300 4 16235321891925376226
16945 1 18337388249286714105
17492 89 18411702123143333446
19591789 44 17976823086170907906
19930381 70 17472981082847554995
20028762 73 18056469566258442951
20691752 17 17530958112184667384
20775438 99 17550898932634011453
20905425 154 18269843175570560412
21267235 1 18264501585074501376
21307412 95 17627249870286237358
21478907 32 18266740367180110803
22393880 68 18340778108771781268
23227448 37 18411420574877164231
2334 1 18193279821563287113
23558518 356 18188494695524989656
23559900 14 18270962329001633162
238 59 16467223746631479831
25147074 1 18186799167607784754
266924 87 18193551405251693589
2748010 2 18192433184619561128
335352 9 18192432966119249358
34934 24 18263924350044133274
350125 39 18410018762245258649
5104073 3 18335705979691037808
7164475 11 18339922743847705239
7832392 63 18338233769649680394
9709674 26 18341618066345165966

>  <PUBCHEM_SHAPE_MULTIPOLES>  (1) 
482.17
7.95
4.1
0.78
3.74
0.86
0.13
0.09
0.37
-3.87
0.41
-0.26
0.27
-0.88

>  <PUBCHEM_SHAPE_SELFOVERLAP>  (1) 
1121.606

>  <PUBCHEM_SHAPE_VOLUME>  (1) 
245.9

>  <PUBCHEM_COORDINATE_TYPE>  (1) 
2
5
10

$$$$
