40826
     RDKit          3D

 24 24  0  0  1  0  0  0  0  0999 V2000
   -1.8158   -0.4819   -1.7153 S   0  0  0  0  0  0  0  0  0  0  0  0
    3.6278    0.1201    0.5739 O   0  0  0  0  0  0  0  0  0  0  0  0
   -4.6945   -2.4279    0.0437 O   0  0  0  0  0  0  0  0  0  0  0  0
   -4.8114   -0.8126   -1.5404 O   0  0  0  0  0  0  0  0  0  0  0  0
    2.3786    2.4289   -0.5171 C   0  0  0  0  0  0  0  0  0  0  0  0
    2.4336   -2.4587    0.6372 C   0  0  0  0  0  0  0  0  0  0  0  0
    1.7243    1.0866   -0.4989 C   0  0  0  0  0  0  0  0  0  0  0  0
    1.7507   -1.2645    0.0564 C   0  0  0  0  0  0  0  0  0  0  0  0
    2.3770   -0.0181    0.0477 C   0  0  0  0  0  0  0  0  0  0  0  0
    0.4451    0.9451   -1.0370 C   0  0  0  0  0  0  0  0  0  0  0  0
    0.4716   -1.4060   -0.4817 C   0  0  0  0  0  0  0  0  0  0  0  0
    1.4542    3.4978   -1.1765 C   0  0  0  0  0  0  0  0  0  0  0  0
    3.7122    2.3953   -1.3250 C   0  0  0  0  0  0  0  0  0  0  0  0
    2.7545    3.0094    0.8856 C   0  0  0  0  0  0  0  0  0  0  0  0
    3.7903   -2.8479   -0.0366 C   0  0  0  0  0  0  0  0  0  0  0  0
    2.7651   -2.2409    2.1456 C   0  0  0  0  0  0  0  0  0  0  0  0
    1.5357   -3.7293    0.5302 C   0  0  0  0  0  0  0  0  0  0  0  0
   -0.1758   -0.3006   -1.0261 C   0  0  0  0  0  0  0  0  0  0  0  0
   -2.7481   -1.0680   -0.2641 C   0  0  0  0  0  0  0  0  0  0  0  0
   -2.6852   -0.1079    0.9389 C   0  0  0  0  0  0  0  0  0  0  0  0
   -3.2775    1.2939    0.7274 C   0  0  0  0  0  0  0  0  0  0  0  0
   -3.1213    2.2024    1.9515 C   0  0  0  0  0  0  0  0  0  0  0  0
   -4.1703   -1.4028   -0.6808 C   0  0  0  0  0  0  0  0  0  0  0  0
   -3.7208    3.5875    1.7615 C   0  0  0  0  0  0  0  0  0  0  0  0
  1 18  1  0
  1 19  1  0
  2  9  1  0
  3 23  1  0
  4 23  2  0
  5  7  1  0
  5 12  1  0
  5 13  1  0
  5 14  1  0
  6  8  1  0
  6 15  1  0
  6 16  1  0
  6 17  1  0
  7  9  2  0
  7 10  1  0
  8  9  1  0
  8 11  2  0
 10 18  2  0
 11 18  1  0
 19 20  1  0
 19 23  1  0
 20 21  1  0
 21 22  1  0
 22 24  1  0
M  END
>  <PUBCHEM_COMPOUND_CID>  (1) 
40826

>  <PUBCHEM_CONFORMER_RMSD>  (1) 
0.8

>  <PUBCHEM_CONFORMER_DIVERSEORDER>  (1) 
2
92
17
232
154
132
177
224
59
182
187
145
190
95
103
37
181
178
102
194
88
210
139
143
231
209
44
61
206
174
156
196
39
233
169
58
236
199
91
214
148
65
159
147
69
80
110
116
171
129
205
99
186
221
207
213
75
240
150
153
36
57
179
242
81
235
137
176
94
216
146
117
138
160
208
45
16
222
223
55
227
155
101
72
218
42
195
151
229
107
131
82
52
215
234
76
79
192
141
119
198
125
114
230
100
166
53
168
78
105
118
193
56
112
46
108
93
54
104
202
70
189
49
64
165
89
27
130
85
239
60
124
35
106
211
225
43
185
115
135
48
219
173
126
226
191
158
144
67
38
121
34
86
172
83
26
98
120
7
217
73
238
77
203
97
127
212
66
14
123
96
87
47
21
12
1
241
32
29
201
68
8
15
41
170
122
71
109
13
128
23
183
25
30
200
40
152
113
142
22
167
220
63
84
11
24
197
19
188
228
20
9
74
33
157
204
163
10
51
28
18
111
50
31
62
136
90
162
149
161
180
164
140
5
4
175
6
3
237
184
133
134

>  <PUBCHEM_MMFF94_PARTIAL_CHARGES>  (1) 
18
1 -0.33
10 -0.15
11 -0.15
18 0.1
19 0.29
2 -0.53
23 0.66
25 0.15
26 0.15
3 -0.65
4 -0.57
5 0.14
50 0.45
56 0.5
6 0.14
7 -0.14
8 -0.14
9 0.08

>  <PUBCHEM_EFFECTIVE_ROTOR_COUNT>  (1) 
8

>  <PUBCHEM_PHARMACOPHORE_FEATURES>  (1) 
9
1 2 donor
1 24 hydrophobe
1 3 acceptor
1 4 acceptor
3 3 4 23 anion
4 5 12 13 14 hydrophobe
4 6 15 16 17 hydrophobe
5 1 19 20 21 22 hydrophobe
6 7 8 9 10 11 18 rings

>  <PUBCHEM_HEAVY_ATOM_COUNT>  (1) 
24

>  <PUBCHEM_ATOM_DEF_STEREO_COUNT>  (1) 
0

>  <PUBCHEM_ATOM_UDEF_STEREO_COUNT>  (1) 
1

>  <PUBCHEM_BOND_DEF_STEREO_COUNT>  (1) 
0

>  <PUBCHEM_BOND_UDEF_STEREO_COUNT>  (1) 
0

>  <PUBCHEM_ISOTOPIC_ATOM_COUNT>  (1) 
0

>  <PUBCHEM_COMPONENT_COUNT>  (1) 
1

>  <PUBCHEM_CACTVS_TAUTO_COUNT>  (1) 
2

>  <PUBCHEM_CONFORMER_ID>  (1) 
00009F7A00000002

>  <PUBCHEM_MMFF94_ENERGY>  (1) 
86.495

>  <PUBCHEM_FEATURE_SELFOVERLAP>  (1) 
45.731

>  <PUBCHEM_SHAPE_FINGERPRINT>  (1) 
10090160 65 17975406129669089143
10366900 7 17822012038053768182
12160290 23 16889515341995284246
12553582 1 18045499703724257882
12633257 1 18122915230940901065
12788726 201 18060144250071933537
13004483 165 17542227857034558250
13009979 54 18130230350097816258
13140716 1 17904176171750508114
133893 2 18186525401364004532
13533116 47 18408885166063210423
13583140 156 18115327583107953129
14787075 74 17619631719268166575
14790565 3 18263379100247752548
17492 89 18411983559649974127
17818456 19 17986671468183207593
17974551 9 17463731660623091097
17980427 23 17773020974154199805
1813 80 18270681944551633542
19078846 21 18268997483762349670
20510252 161 17038669634916158564
20600515 1 17842561734441322536
20645477 70 18113887299536215743
20715895 44 18125999374585520365
20739085 24 18336543799214538698
21033648 29 16915075340724373379
2132832 1 18270666594311571561
21427221 339 18269847414671814841
21524375 3 18125447655153524068
21792964 463 18043555948304478965
2255824 54 18335701663169893726
23558518 356 18411991239093223483
23559900 14 18337657664370089671
23598288 3 17917425394297257935
23598291 2 18341619178657130669
2748010 2 17975943533473596982
312423 11 18341901783458322359
35225 105 17032190174081090976
352729 6 17686909723211297606
392239 28 17837219542597192579
4409770 3 17252861659501212684
474 4 18190457366556195508
57527573 199 17266642302705506248
5895379 119 17845382041738088521
7097593 13 18267028254157703769
7615 1 18343585118738651825
81228 2 17327427261479974150

>  <PUBCHEM_SHAPE_MULTIPOLES>  (1) 
480.15
8.49
4.85
1.74
7.66
1.61
-0.39
-1.05
-1.2
-2.32
-1.08
0.81
0.56
-3.63

>  <PUBCHEM_SHAPE_SELFOVERLAP>  (1) 
957.398

>  <PUBCHEM_SHAPE_VOLUME>  (1) 
289.4

>  <PUBCHEM_COORDINATE_TYPE>  (1) 
2
5
10

$$$$
