40820
     RDKit          3D

 31 35  0  0  1  0  0  0  0  0999 V2000
    0.4491   -0.5366   -0.1155 C   0  0  0  0  0  0  0  0  0  0  0  0
   -1.0597   -0.5183    0.5262 C   0  0  0  0  0  0  0  0  0  0  0  0
    1.1280    0.8613    0.2075 C   0  0  0  0  0  0  0  0  0  0  0  0
   -1.8618    0.6901   -0.1138 C   0  0  0  0  0  0  0  0  0  0  0  0
    2.6622    0.9377   -0.0813 C   0  0  0  0  0  0  0  0  0  0  0  0
   -3.4326    0.7264    0.1674 C   0  0  0  0  0  0  0  0  0  0  0  0
    3.3164   -0.2360    0.6834 C   0  0  0  0  0  0  0  0  0  0  0  0
   -4.0085   -0.6824   -0.2401 C   0  0  0  0  0  0  0  0  0  0  0  0
    1.3217   -1.7122    0.4563 C   0  0  0  0  0  0  0  0  0  0  0  0
    0.3188    2.0392   -0.3578 C   0  0  0  0  0  0  0  0  0  0  0  0
   -1.1364    2.0385    0.1208 C   0  0  0  0  0  0  0  0  0  0  0  0
   -1.8139   -1.8508    0.2473 C   0  0  0  0  0  0  0  0  0  0  0  0
    2.8395   -1.5962    0.2029 C   0  0  0  0  0  0  0  0  0  0  0  0
    4.8119    0.0889    0.7728 C   0  0  0  0  0  0  0  0  0  0  0  0
    3.3839    2.1070    0.6285 C   0  0  0  0  0  0  0  0  0  0  0  0
   -3.3180   -1.8173    0.5400 C   0  0  0  0  0  0  0  0  0  0  0  0
   -5.5729   -0.7971   -0.3143 C   0  0  0  0  0  0  0  0  0  0  0  0
    0.3833   -0.7837   -1.6563 C   0  0  0  0  0  0  0  0  0  0  0  0
   -0.9897   -0.3822    2.0799 C   0  0  0  0  0  0  0  0  0  0  0  0
   -4.0885    1.7927   -0.7665 C   0  0  0  0  0  0  0  0  0  0  0  0
    4.8473    1.6346    0.7594 C   0  0  0  0  0  0  0  0  0  0  0  0
    3.0183    1.0217   -1.5849 C   0  0  0  0  0  0  0  0  0  0  0  0
   -3.7504    1.1313    1.6275 C   0  0  0  0  0  0  0  0  0  0  0  0
   -6.1170    0.3422   -1.2107 C   0  0  0  0  0  0  0  0  0  0  0  0
   -5.6149    1.7270   -0.8299 C   0  0  0  0  0  0  0  0  0  0  0  0
    5.7003   -0.5434   -0.2910 C   0  0  0  0  0  0  0  0  0  0  0  0
   -6.2740   -0.7819    1.0560 C   0  0  0  0  0  0  0  0  0  0  0  0
   -5.9791   -2.1286   -0.9997 C   0  0  0  0  0  0  0  0  0  0  0  0
    7.1598   -0.0860   -0.1022 C   0  0  0  0  0  0  0  0  0  0  0  0
    5.5638   -2.0685   -0.2489 C   0  0  0  0  0  0  0  0  0  0  0  0
    8.1130   -0.6173   -1.1631 C   0  0  0  0  0  0  0  0  0  0  0  0
  1  2  1  0
  1  3  1  0
  1  9  1  0
  1 18  1  0
  2  4  1  0
  2 12  1  0
  2 19  1  0
  3  5  1  0
  3 10  1  0
  4  6  1  0
  4 11  1  0
  5  7  1  0
  5 15  1  0
  5 22  1  0
  6  8  1  0
  6 20  1  0
  6 23  1  0
  7 13  1  0
  7 14  1  0
  8 16  1  0
  8 17  1  0
  9 13  1  0
 10 11  1  0
 12 16  1  0
 14 21  1  0
 14 26  1  0
 15 21  1  0
 17 24  1  0
 17 27  1  0
 17 28  1  0
 20 25  1  0
 24 25  1  0
 26 29  1  0
 26 30  1  0
 29 31  1  0
M  END
>  <PUBCHEM_COMPOUND_CID>  (1) 
40820

>  <PUBCHEM_CONFORMER_RMSD>  (1) 
0.8

>  <PUBCHEM_CONFORMER_DIVERSEORDER>  (1) 
1

>  <PUBCHEM_MMFF94_PARTIAL_CHARGES>  (1) 
0

>  <PUBCHEM_EFFECTIVE_ROTOR_COUNT>  (1) 
4.6

>  <PUBCHEM_PHARMACOPHORE_FEATURES>  (1) 
8
1 30 hydrophobe
1 31 hydrophobe
3 17 27 28 hydrophobe
5 5 7 14 15 21 rings
6 1 2 3 4 10 11 rings
6 1 3 5 7 9 13 rings
6 2 4 6 8 12 16 rings
6 6 8 17 20 24 25 rings

>  <PUBCHEM_HEAVY_ATOM_COUNT>  (1) 
31

>  <PUBCHEM_ATOM_DEF_STEREO_COUNT>  (1) 
9

>  <PUBCHEM_ATOM_UDEF_STEREO_COUNT>  (1) 
1

>  <PUBCHEM_BOND_DEF_STEREO_COUNT>  (1) 
0

>  <PUBCHEM_BOND_UDEF_STEREO_COUNT>  (1) 
0

>  <PUBCHEM_ISOTOPIC_ATOM_COUNT>  (1) 
0

>  <PUBCHEM_COMPONENT_COUNT>  (1) 
1

>  <PUBCHEM_CACTVS_TAUTO_COUNT>  (1) 
1

>  <PUBCHEM_CONFORMER_ID>  (1) 
00009F7400000001

>  <PUBCHEM_MMFF94_ENERGY>  (1) 
166.7457

>  <PUBCHEM_FEATURE_SELFOVERLAP>  (1) 
40.693

>  <PUBCHEM_SHAPE_FINGERPRINT>  (1) 
10076449 9 18343026597160445068
11315181 36 18202565081548920185
11578080 2 13335609885207361348
11963148 33 18410566301603951118
12011746 2 18334858303623265832
12166972 35 18411701014719777448
12236239 1 17989487450226028979
12516196 113 18413387644376978136
12616971 3 15051726521116532097
13224815 77 17917997182998000945
13402501 40 18409445881931666912
13533116 47 18202001045237525602
13782708 43 17489586761985293926
13811026 1 18410283731367439856
14251764 18 18113614591209877866
14856354 85 14923950054834658539
15064986 266 18334580174964207339
15183329 4 18408881823908468322
15196674 1 18409444787063328521
15788980 27 18186521003491735489
15849732 13 18272369776725473270
17349148 13 18131639988782484249
17980427 23 17703802422434910265
18608769 82 18410289229632044694
18681886 176 18411412943010228248
19377110 9 13686303460971572606
20028762 73 18272929427780800206
20511986 3 18188751925611780763
21033648 29 17822279172314402429
21150785 3 15285362842229980347
21236236 1 18410290307632088113
21267235 1 18409453608831222043
21279426 13 18336822005056382157
221357 26 18341894078819671832
23402539 116 18411130338594431053
23522609 53 18194996013840251624
23559900 14 18409443704647427416
23569917 315 18412550937166434974
23569943 247 18053106117113919866
23576562 1 17896612867538954190
3004659 81 18113614599478253812
335352 9 18408321081853171461
350125 39 18335419041626552652
3545911 37 18408885139697028378
4017518 198 17561086900124809630
404807 14 17335915486393353294
4073 2 18041000699991242162
4325135 7 18413386545255513159
437815 12 18202567267988110080
484989 97 18338801229160812522
5104073 3 18409164389933408553
5283173 99 18261947458471552173
59755656 215 18408322164459398782
59755656 520 16732980933776290059
6086070 43 17846493716660727257
6328613 192 17749116612430213724

>  <PUBCHEM_SHAPE_MULTIPOLES>  (1) 
637.97
17.79
2.28
1.32
10.13
0.12
0.08
-3.44
-3.84
-0.67
-0.08
-0.49
0.04
0.57

>  <PUBCHEM_SHAPE_SELFOVERLAP>  (1) 
1333.468

>  <PUBCHEM_SHAPE_VOLUME>  (1) 
360.3

>  <PUBCHEM_COORDINATE_TYPE>  (1) 
2
5
10

$$$$
