40823
     RDKit          3D

 16 15  0  0  1  0  0  0  0  0999 V2000
    0.1871    0.1115   -0.5204 O   0  0  0  0  0  0  0  0  0  0  0  0
   -2.4982   -0.4257    0.2002 N   0  0  0  0  0  0  0  0  0  0  0  0
    3.8310   -0.3420    0.1448 N   0  0  0  0  0  0  0  0  0  0  0  0
   -2.1286    0.7167   -0.6722 C   0  0  0  0  0  0  0  0  0  0  0  0
   -3.9423   -0.8714   -0.0676 C   0  0  0  0  0  0  0  0  0  0  0  0
   -2.3851   -0.0390    1.6813 C   0  0  0  0  0  0  0  0  0  0  0  0
   -0.7138    1.2006   -0.3722 C   0  0  0  0  0  0  0  0  0  0  0  0
   -1.5743   -1.6252   -0.0516 C   0  0  0  0  0  0  0  0  0  0  0  0
    2.4284   -0.7210   -0.3082 C   0  0  0  0  0  0  0  0  0  0  0  0
    1.5069    0.4699   -0.1328 C   0  0  0  0  0  0  0  0  0  0  0  0
   -4.0630   -1.3335   -1.5032 C   0  0  0  0  0  0  0  0  0  0  0  0
   -3.2876    1.1434    1.9579 C   0  0  0  0  0  0  0  0  0  0  0  0
   -0.2559    2.3628   -1.2436 C   0  0  0  0  0  0  0  0  0  0  0  0
    4.3498    0.8019   -0.7144 C   0  0  0  0  0  0  0  0  0  0  0  0
    3.7924    0.0950    1.6021 C   0  0  0  0  0  0  0  0  0  0  0  0
    4.7532   -1.5440   -0.0001 C   0  0  0  0  0  0  0  0  0  0  0  0
  1  7  1  0
  1 10  1  0
  2  4  1  0
  2  5  1  0
  2  6  1  0
  2  8  1  0
  3  9  1  0
  3 14  1  0
  3 15  1  0
  3 16  1  0
  4  7  1  0
  5 11  1  0
  6 12  1  0
  7 13  1  0
  9 10  1  0
M  CHG  2   2   1   3   1
M  END
>  <PUBCHEM_COMPOUND_CID>  (1) 
40823

>  <PUBCHEM_CONFORMER_RMSD>  (1) 
0.8

>  <PUBCHEM_CONFORMER_DIVERSEORDER>  (1) 
3
18
10
17
16
8
1
9
12
19
21
13
4
14
5
11
7
2
20
6
15

>  <PUBCHEM_MMFF94_PARTIAL_CHARGES>  (1) 
13
1 -0.56
10 0.28
14 0.5
15 0.5
16 0.5
2 -1.01
3 -1.01
4 0.5
5 0.5
6 0.5
7 0.28
8 0.5
9 0.5

>  <PUBCHEM_EFFECTIVE_ROTOR_COUNT>  (1) 
8

>  <PUBCHEM_PHARMACOPHORE_FEATURES>  (1) 
3
1 1 acceptor
1 2 cation
1 3 cation

>  <PUBCHEM_HEAVY_ATOM_COUNT>  (1) 
16

>  <PUBCHEM_ATOM_DEF_STEREO_COUNT>  (1) 
0

>  <PUBCHEM_ATOM_UDEF_STEREO_COUNT>  (1) 
1

>  <PUBCHEM_BOND_DEF_STEREO_COUNT>  (1) 
0

>  <PUBCHEM_BOND_UDEF_STEREO_COUNT>  (1) 
0

>  <PUBCHEM_ISOTOPIC_ATOM_COUNT>  (1) 
0

>  <PUBCHEM_COMPONENT_COUNT>  (1) 
1

>  <PUBCHEM_CACTVS_TAUTO_COUNT>  (1) 
1

>  <PUBCHEM_CONFORMER_ID>  (1) 
00009F7700000003

>  <PUBCHEM_MMFF94_ENERGY>  (1) 
71.0173

>  <PUBCHEM_FEATURE_SELFOVERLAP>  (1) 
15.223

>  <PUBCHEM_SHAPE_FINGERPRINT>  (1) 
10366900 7 18410011065890529242
11132069 177 18410287008791119810
11543360 7 13479428183673869374
12553582 1 18113909259893449112
12633257 1 17988933219109096496
13296908 3 17167867486560479352
13296909 8 17703795808174432265
13583140 156 15841549635088184214
15375358 24 17240477031014015546
15375462 478 16558750148090746473
16752209 62 17749938977906951698
17834072 14 18261661662377557069
18222031 100 18341045310970611710
200 152 17894624851240965758
20281475 54 18413390930084656980
20645477 70 17749105612750027254
20671657 53 18334855077992265085
20871999 31 17385712578657772837
21061003 4 18040446494243062289
21524375 3 11600009838128064685
22854114 59 17917705829522591570
2306618 200 18271240513363787545
23175994 123 17385731304910225357
23380061 127 17418374684047013211
23402539 116 18410003330369735479
23402655 69 12251899278994232182
3086196 2 17489588991574213731
3286 77 17774714342245894466
4921388 177 12613041595388237809
5283173 99 17458886176839962989
57100710 210 16845567651942911629
81228 2 17823419288272935580
9882013 296 18131069359337756566

>  <PUBCHEM_SHAPE_MULTIPOLES>  (1) 
313.44
9.53
1.78
1.55
7.29
0.34
0.65
-3.41
0.75
-0.43
-0.57
-1.12
0.41
-1

>  <PUBCHEM_SHAPE_SELFOVERLAP>  (1) 
577.487

>  <PUBCHEM_SHAPE_VOLUME>  (1) 
203.2

>  <PUBCHEM_COORDINATE_TYPE>  (1) 
2
5
10

$$$$
