4083
     RDKit          3D

 25 27  0  0  1  0  0  0  0  0999 V2000
    2.5773    0.8055    1.7986 S   0  0  0  0  0  0  0  0  0  0  0  0
    2.0525    1.4395   -2.5046 O   0  0  0  0  0  0  0  0  0  0  0  0
    3.0369   -2.3179    0.8069 O   0  0  0  0  0  0  0  0  0  0  0  0
    4.3299   -2.5362   -1.0679 O   0  0  0  0  0  0  0  0  0  0  0  0
   -1.5166    1.6847    1.4677 O   0  0  0  0  0  0  0  0  0  0  0  0
    2.1822   -0.0197   -0.6562 N   0  0  0  0  0  0  0  0  0  0  0  0
   -0.6652    1.2325   -0.6420 N   0  0  0  0  0  0  0  0  0  0  0  0
   -3.9885    2.0591    0.3788 N   0  0  0  0  0  0  0  0  0  0  0  0
    1.3702    0.2999    0.5167 C   0  0  0  0  0  0  0  0  0  0  0  0
    4.0644    0.4559    0.7341 C   0  0  0  0  0  0  0  0  0  0  0  0
    3.5652   -0.4015   -0.4551 C   0  0  0  0  0  0  0  0  0  0  0  0
    0.7476    1.4377   -0.3100 C   0  0  0  0  0  0  0  0  0  0  0  0
    1.7171    1.0034   -1.4270 C   0  0  0  0  0  0  0  0  0  0  0  0
    4.6101    1.8095    0.2474 C   0  0  0  0  0  0  0  0  0  0  0  0
    5.1352   -0.2273    1.5925 C   0  0  0  0  0  0  0  0  0  0  0  0
    3.6516   -1.9001   -0.2133 C   0  0  0  0  0  0  0  0  0  0  0  0
   -1.6936    1.3759    0.2906 C   0  0  0  0  0  0  0  0  0  0  0  0
   -3.0736    1.1287   -0.2987 C   0  0  0  0  0  0  0  0  0  0  0  0
   -3.4840   -0.3164   -0.1341 C   0  0  0  0  0  0  0  0  0  0  0  0
   -3.1659   -1.2286   -1.1267 C   0  0  0  0  0  0  0  0  0  0  0  0
   -4.1708   -0.7002    1.0059 C   0  0  0  0  0  0  0  0  0  0  0  0
   -3.5451   -2.5624   -0.9750 C   0  0  0  0  0  0  0  0  0  0  0  0
   -4.5498   -2.0339    1.1577 C   0  0  0  0  0  0  0  0  0  0  0  0
   -4.9497    2.4768   -0.3532 C   0  0  0  0  0  0  0  0  0  0  0  0
   -4.2371   -2.9651    0.1672 C   0  0  0  0  0  0  0  0  0  0  0  0
  1  9  1  0
  1 10  1  0
  2 13  2  0
  3 16  1  0
  4 16  2  0
  5 17  2  0
  6  9  1  0
  6 11  1  0
  6 13  1  0
  7 12  1  0
  7 17  1  0
  8 18  1  0
  8 24  2  0
  9 12  1  0
 10 11  1  0
 10 14  1  0
 10 15  1  0
 11 16  1  0
 12 13  1  0
 17 18  1  0
 18 19  1  0
 19 20  2  0
 19 21  1  0
 20 22  1  0
 21 23  2  0
 22 25  2  0
 23 25  1  0
M  CHG  1   3  -1
M  END
>  <PUBCHEM_COMPOUND_CID>  (1) 
4083

>  <PUBCHEM_CONFORMER_RMSD>  (1) 
0.8

>  <PUBCHEM_CONFORMER_DIVERSEORDER>  (1) 
1
251
271
207
203
176
60
274
307
181
48
264
83
256
76
243
30
227
234
216
87
147
152
294
90
184
135
182
164
197
26
46
241
280
160
284
174
115
47
191
292
199
136
228
291
116
244
72
298
165
120
189
5
242
18
168
226
129
7
287
106
253
117
201
285
204
180
240
299
215
196
9
96
217
10
58
63
112
33
225
246
122
37
185
257
74
250
210
245
163
304
289
295
8
57
223
248
151
262
300
155
186
279
194
143
101
52
22
34
66
272
293
308
249
273
140
97
290
195
159
232
16
231
268
266
111
172
35
38
36
68
39
259
98
261
123
128
179
110
70
82
61
27
114
282
236
258
56
270
254
40
205
17
118
124
107
188
269
32
187
105
103
296
221
208
51
190
200
113
306
84
11
229
144
170
177
230
126
265
69
91
237
150
137
55
233
99
104
198
158
193
45
153
21
73
171
283
134
102
14
173
19
224
23
81
141
166
301
139
183
24
138
192
6
78
92
43
13
95
79
75
202
219
67
252
235
212
77
278
132
100
93
71
277
275
154
88
131
94
127
167
148
149
161
28
239
297
125
178
121
211
3
213
157
65
31
109
108
145
15
288
20
260
267
238
130
62
50
276
133
146
305
247
169
156
142
86
119
54
59
263
222
175
220
255
303
44
4
209
85
41
286
49
218
214
53
89
42
302
162
2
12
64
80
29
25
206
281

>  <PUBCHEM_MMFF94_PARTIAL_CHARGES>  (1) 
31
1 -0.45
10 0.23
11 0.19
12 0.28
13 0.58
16 0.91
17 0.57
18 0.45
19 -0.14
2 -0.57
20 -0.15
21 -0.15
22 -0.15
23 -0.15
24 0.33
25 -0.15
3 -0.9
35 0.37
37 0.15
38 0.15
39 0.15
4 -0.9
40 0.15
41 0.06
42 0.06
43 0.15
5 -0.57
6 -0.59
7 -0.65
8 -0.7
9 0.44

>  <PUBCHEM_EFFECTIVE_ROTOR_COUNT>  (1) 
6.8

>  <PUBCHEM_PHARMACOPHORE_FEATURES>  (1) 
11
1 2 acceptor
1 3 acceptor
1 4 acceptor
1 5 acceptor
1 7 donor
1 8 acceptor
3 10 14 15 hydrophobe
3 3 4 16 anion
4 6 9 12 13 rings
6 19 20 21 22 23 25 rings
7 1 6 9 10 11 12 13 rings

>  <PUBCHEM_HEAVY_ATOM_COUNT>  (1) 
25

>  <PUBCHEM_ATOM_DEF_STEREO_COUNT>  (1) 
0

>  <PUBCHEM_ATOM_UDEF_STEREO_COUNT>  (1) 
4

>  <PUBCHEM_BOND_DEF_STEREO_COUNT>  (1) 
0

>  <PUBCHEM_BOND_UDEF_STEREO_COUNT>  (1) 
0

>  <PUBCHEM_ISOTOPIC_ATOM_COUNT>  (1) 
0

>  <PUBCHEM_COMPONENT_COUNT>  (1) 
1

>  <PUBCHEM_CACTVS_TAUTO_COUNT>  (1) 
2

>  <PUBCHEM_CONFORMER_ID>  (1) 
00000FF300000001

>  <PUBCHEM_MMFF94_ENERGY>  (1) 
71.0643

>  <PUBCHEM_FEATURE_SELFOVERLAP>  (1) 
59.854

>  <PUBCHEM_SHAPE_FINGERPRINT>  (1) 
11045977 3 17988635255916329824
11370993 144 17632304445260128691
11405975 8 18342175514287258145
11552529 35 16629670911509224535
11796584 16 18339359652408386978
12553582 1 18124605425405302447
12616971 3 17095243592410392556
12633257 1 16343985822997205935
13224815 77 18410012173596588971
13544653 18 18271520987480898449
13583140 156 17845922004926405784
13911882 115 18339930415176624354
17349148 13 17968375740488344456
17492 89 18410298029298036279
1813 80 17458067057851389725
19141452 34 18262798463133215677
193927 3 18114751528903284851
20626108 58 17894903070622286880
21065198 57 18342455915606800449
21315759 227 17749953400513374195
21424621 283 17985831433174714329
21673915 165 18412259571026948466
22907989 373 11530765938149362699
23559900 14 18272367525819997632
312423 11 17822865289532064221
338550 245 18260836998745109855
339767 52 18335407011212244327
4015057 19 17844786192942400041
44062 13 18261678082433155335
46194498 28 11675458279276766224
497634 4 12829784955633884565
5104073 3 18342455919874920434
5924683 9 18201712999082489567
633830 44 16950578665579322133

>  <PUBCHEM_SHAPE_MULTIPOLES>  (1) 
479.92
12.26
3.09
1.56
0.77
1.27
-0.17
3.37
2.14
2.73
-0.3
-0.94
-0.15
0.29

>  <PUBCHEM_SHAPE_SELFOVERLAP>  (1) 
1008.98

>  <PUBCHEM_SHAPE_VOLUME>  (1) 
272.1

>  <PUBCHEM_COORDINATE_TYPE>  (1) 
2
5
10

$$$$
