40833
     RDKit          3D

 22 23  0  0  1  0  0  0  0  0999 V2000
    0.2334    1.0191   -1.0421 O   0  0  0  0  0  0  0  0  0  0  0  0
   -3.1171   -1.5881    0.8080 O   0  0  0  0  0  0  0  0  0  0  0  0
    1.2575   -2.5612    1.7360 O   0  0  0  0  0  0  0  0  0  0  0  0
   -1.9104   -1.1746   -2.0079 O   0  0  0  0  0  0  0  0  0  0  0  0
    0.8188   -0.6425    0.4797 N   0  0  0  0  0  0  0  0  0  0  0  0
   -0.9196   -2.0121    1.3118 N   0  0  0  0  0  0  0  0  0  0  0  0
    2.2254   -0.4517    0.2198 C   0  0  0  0  0  0  0  0  0  0  0  0
    2.5336   -0.6504   -1.2666 C   0  0  0  0  0  0  0  0  0  0  0  0
    2.6777    0.9285    0.7027 C   0  0  0  0  0  0  0  0  0  0  0  0
    4.0078   -0.4000   -1.5733 C   0  0  0  0  0  0  0  0  0  0  0  0
    4.1514    1.1780    0.3923 C   0  0  0  0  0  0  0  0  0  0  0  0
   -1.5055    0.1756    0.4041 C   0  0  0  0  0  0  0  0  0  0  0  0
    4.4571    0.9757   -1.0890 C   0  0  0  0  0  0  0  0  0  0  0  0
   -0.0837    0.2283   -0.1519 C   0  0  0  0  0  0  0  0  0  0  0  0
   -2.4926    0.7290   -0.6357 C   0  0  0  0  0  0  0  0  0  0  0  0
   -1.5416    1.0699    1.6566 C   0  0  0  0  0  0  0  0  0  0  0  0
   -1.9445   -1.2168    0.8265 C   0  0  0  0  0  0  0  0  0  0  0  0
    0.4512   -1.7786    1.2260 C   0  0  0  0  0  0  0  0  0  0  0  0
   -2.5685   -0.1452   -1.8649 C   0  0  0  0  0  0  0  0  0  0  0  0
   -1.1920    2.4791    1.3108 C   0  0  0  0  0  0  0  0  0  0  0  0
   -3.5192    0.3236   -2.9355 C   0  0  0  0  0  0  0  0  0  0  0  0
   -2.0193    3.5145    1.4926 C   0  0  0  0  0  0  0  0  0  0  0  0
  1 14  2  0
  2 17  2  0
  3 18  2  0
  4 19  2  0
  5  7  1  0
  5 14  1  0
  5 18  1  0
  6 17  1  0
  6 18  1  0
  7  8  1  0
  7  9  1  0
  8 10  1  0
  9 11  1  0
 10 13  1  0
 11 13  1  0
 12 14  1  0
 12 15  1  0
 12 16  1  0
 12 17  1  0
 15 19  1  0
 16 20  1  0
 19 21  1  0
 20 22  2  0
M  END
>  <PUBCHEM_COMPOUND_CID>  (1) 
40833

>  <PUBCHEM_CONFORMER_RMSD>  (1) 
0.8

>  <PUBCHEM_CONFORMER_DIVERSEORDER>  (1) 
1
46
38
11
44
9
40
27
34
26
16
41
25
6
49
39
22
32
18
30
7
33
14
23
19
43
24
37
29
17
20
21
15
12
47
13
10
28
45
3
31
36
35
42
4
50
2
5
48
8

>  <PUBCHEM_MMFF94_PARTIAL_CHARGES>  (1) 
21
1 -0.57
12 0.12
14 0.57
15 0.06
16 0.14
17 0.57
18 0.69
19 0.45
2 -0.57
20 -0.29
21 0.06
22 -0.3
3 -0.57
38 0.37
39 0.15
4 -0.57
43 0.15
44 0.15
5 -0.42
6 -0.49
7 0.3

>  <PUBCHEM_EFFECTIVE_ROTOR_COUNT>  (1) 
6.8

>  <PUBCHEM_PHARMACOPHORE_FEATURES>  (1) 
8
1 1 acceptor
1 2 acceptor
1 22 hydrophobe
1 3 acceptor
1 4 acceptor
1 6 donor
6 5 6 12 14 17 18 rings
6 7 8 9 10 11 13 rings

>  <PUBCHEM_HEAVY_ATOM_COUNT>  (1) 
22

>  <PUBCHEM_ATOM_DEF_STEREO_COUNT>  (1) 
0

>  <PUBCHEM_ATOM_UDEF_STEREO_COUNT>  (1) 
1

>  <PUBCHEM_BOND_DEF_STEREO_COUNT>  (1) 
0

>  <PUBCHEM_BOND_UDEF_STEREO_COUNT>  (1) 
0

>  <PUBCHEM_ISOTOPIC_ATOM_COUNT>  (1) 
0

>  <PUBCHEM_COMPONENT_COUNT>  (1) 
1

>  <PUBCHEM_CACTVS_TAUTO_COUNT>  (1) 
9

>  <PUBCHEM_CONFORMER_ID>  (1) 
00009F8100000001

>  <PUBCHEM_MMFF94_ENERGY>  (1) 
50.6322

>  <PUBCHEM_FEATURE_SELFOVERLAP>  (1) 
40.597

>  <PUBCHEM_SHAPE_FINGERPRINT>  (1) 
10498660 4 17822012029912252860
12173636 292 18339097998510412488
12403814 3 17203343207697644441
12788726 201 18058998481325087329
133893 2 17606958395747781378
14142880 1 18114198418493215169
14614273 12 17676494968357764483
14787075 74 18121785203132305979
14817 1 11907279139131113473
15309172 13 17749972002153200784
15534591 1 18197796404850458833
15664445 248 17271972593263252465
16752209 62 17486473928998672701
16945 1 18202561817320858714
17980427 23 17907834246762318954
18186145 218 18187941555756874822
18981168 100 17314806095905495862
192875 21 18267280111293330992
19930381 70 16126666366414994192
20510252 161 18262530311023432856
21339142 36 18267865167248187291
21524375 3 17624428484325081337
2306618 200 17822299027652357873
23402539 116 18342738546477930584
23419403 2 17762890370436855739
23558518 356 18339376201054677960
23559900 14 18260270746811014782
266924 78 17609773102844503567
2748010 2 17103692501909796259
298252 57 17341266869524726969
469060 322 17313683649410744217
57527585 21 18128552641731540596
5845 1 10231465260213902658
59755656 520 18190480284717782744
633830 44 18265350434185036148
70251023 43 17775559866434466085
81228 2 17536059957812362586

>  <PUBCHEM_SHAPE_MULTIPOLES>  (1) 
419.31
6.62
2.61
2.29
6.27
2.72
-0.48
0.34
-3.81
-1.85
0.86
-1.4
-1.44
-0.7

>  <PUBCHEM_SHAPE_SELFOVERLAP>  (1) 
874.707

>  <PUBCHEM_SHAPE_VOLUME>  (1) 
232.8

>  <PUBCHEM_COORDINATE_TYPE>  (1) 
2
5
10

$$$$
