40835
     RDKit          3D

  9  9  0  0  0  0  0  0  0  0999 V2000
   -1.8356    1.3762    0.2943 S   0  0  0  0  0  0  0  0  0  0  0  0
    4.0988   -0.4558    0.5562 N   0  0  0  0  0  0  0  0  0  0  0  0
    1.7004   -0.1386    0.1625 C   0  0  0  0  0  0  0  0  0  0  0  0
    0.6519    0.6354   -0.6426 C   0  0  0  0  0  0  0  0  0  0  0  0
    3.1162    0.2765   -0.2342 C   0  0  0  0  0  0  0  0  0  0  0  0
   -0.7487    0.2064   -0.2843 C   0  0  0  0  0  0  0  0  0  0  0  0
   -1.2786   -1.0435   -0.3655 C   0  0  0  0  0  0  0  0  0  0  0  0
   -2.6372   -1.0536    0.0637 C   0  0  0  0  0  0  0  0  0  0  0  0
   -3.0672    0.1969    0.4498 C   0  0  0  0  0  0  0  0  0  0  0  0
  1  6  1  0
  1  9  1  0
  2  5  1  0
  3  4  1  0
  3  5  1  0
  4  6  1  0
  6  7  2  0
  7  8  1  0
  8  9  2  0
M  END
>  <PUBCHEM_COMPOUND_CID>  (1) 
40835

>  <PUBCHEM_CONFORMER_RMSD>  (1) 
0.6

>  <PUBCHEM_CONFORMER_DIVERSEORDER>  (1) 
1
9
3
7
10
8
5
6
4
2

>  <PUBCHEM_MMFF94_PARTIAL_CHARGES>  (1) 
13
1 -0.08
16 0.15
17 0.15
18 0.36
19 0.36
2 -0.99
20 0.15
4 0.18
5 0.27
6 -0.14
7 -0.15
8 -0.15
9 -0.11

>  <PUBCHEM_EFFECTIVE_ROTOR_COUNT>  (1) 
3

>  <PUBCHEM_PHARMACOPHORE_FEATURES>  (1) 
3
1 2 cation
1 2 donor
5 1 6 7 8 9 rings

>  <PUBCHEM_HEAVY_ATOM_COUNT>  (1) 
9

>  <PUBCHEM_ATOM_DEF_STEREO_COUNT>  (1) 
0

>  <PUBCHEM_ATOM_UDEF_STEREO_COUNT>  (1) 
0

>  <PUBCHEM_BOND_DEF_STEREO_COUNT>  (1) 
0

>  <PUBCHEM_BOND_UDEF_STEREO_COUNT>  (1) 
0

>  <PUBCHEM_ISOTOPIC_ATOM_COUNT>  (1) 
0

>  <PUBCHEM_COMPONENT_COUNT>  (1) 
1

>  <PUBCHEM_CACTVS_TAUTO_COUNT>  (1) 
1

>  <PUBCHEM_CONFORMER_ID>  (1) 
00009F8300000001

>  <PUBCHEM_MMFF94_ENERGY>  (1) 
1.8042

>  <PUBCHEM_FEATURE_SELFOVERLAP>  (1) 
15.223

>  <PUBCHEM_SHAPE_FINGERPRINT>  (1) 
10857977 72 18131068272642484761
11062470 55 14779545694709794438
12932764 1 17822004307439624460
13024252 1 14562529566240779117
14325111 11 18411420609447743068
190213 19 18113617889370097736
20645464 45 17561086899311561103
20871998 184 17988368190539385215
21061003 4 14996294595141675453
21293036 1 8935001443311907603
23402539 116 18131343108259230005
23552423 10 17901956562394985701
29004967 10 16081090398162400797
3248919 1 18272934916558496212
369184 2 18060420226868090877
75552 356 18413110567172257457

>  <PUBCHEM_SHAPE_MULTIPOLES>  (1) 
184.08
6
1.2
0.76
5.62
0.1
-0.01
-0.69
1.26
-0.82
0.01
0.06
0.03
-0.28

>  <PUBCHEM_SHAPE_SELFOVERLAP>  (1) 
351.079

>  <PUBCHEM_SHAPE_VOLUME>  (1) 
114.1

>  <PUBCHEM_COORDINATE_TYPE>  (1) 
2
5
10

$$$$
