40843
     RDKit          3D

 14 14  0  0  0  0  0  0  0  0999 V2000
    3.6683   -0.1367    0.2140 N   0  0  0  0  0  0  0  0  0  0  0  0
   -3.9885   -0.0924    0.3202 N   0  0  0  0  0  0  0  0  0  0  0  0
   -1.8372    0.3846   -0.6568 N   0  0  0  0  0  0  0  0  0  0  0  0
    2.2818   -0.0042   -0.0067 C   0  0  0  0  0  0  0  0  0  0  0  0
    1.5820   -1.0123   -0.6700 C   0  0  0  0  0  0  0  0  0  0  0  0
    1.6098    1.1335    0.4398 C   0  0  0  0  0  0  0  0  0  0  0  0
   -0.4550    0.2547   -0.4394 C   0  0  0  0  0  0  0  0  0  0  0  0
    0.2103   -0.8824   -0.8869 C   0  0  0  0  0  0  0  0  0  0  0  0
    0.2380    1.2634    0.2230 C   0  0  0  0  0  0  0  0  0  0  0  0
    4.2636   -1.4480    0.3789 C   0  0  0  0  0  0  0  0  0  0  0  0
    4.5188    1.0360    0.2648 C   0  0  0  0  0  0  0  0  0  0  0  0
   -2.6060   -0.0867    0.2744 C   0  0  0  0  0  0  0  0  0  0  0  0
   -4.7784    0.4749   -0.7635 C   0  0  0  0  0  0  0  0  0  0  0  0
   -4.7074   -0.8843    1.3084 C   0  0  0  0  0  0  0  0  0  0  0  0
  1  4  1  0
  1 10  1  0
  1 11  1  0
  2 12  1  0
  2 13  1  0
  2 14  1  0
  3  7  1  0
  3 12  2  0
  4  5  2  0
  4  6  1  0
  5  8  1  0
  6  9  2  0
  7  8  2  0
  7  9  1  0
M  END
>  <PUBCHEM_COMPOUND_CID>  (1) 
40843

>  <PUBCHEM_CONFORMER_RMSD>  (1) 
0.6

>  <PUBCHEM_CONFORMER_DIVERSEORDER>  (1) 
1
4
3
2

>  <PUBCHEM_MMFF94_PARTIAL_CHARGES>  (1) 
19
1 -0.84
10 0.37
11 0.37
12 0.44
13 0.37
14 0.37
15 0.15
16 0.15
17 0.15
18 0.15
2 -0.79
25 0.06
3 -0.63
4 0.1
5 -0.15
6 -0.15
7 0.18
8 -0.15
9 -0.15

>  <PUBCHEM_EFFECTIVE_ROTOR_COUNT>  (1) 
3

>  <PUBCHEM_PHARMACOPHORE_FEATURES>  (1) 
3
1 1 cation
3 2 3 12 cation
6 4 5 6 7 8 9 rings

>  <PUBCHEM_HEAVY_ATOM_COUNT>  (1) 
14

>  <PUBCHEM_ATOM_DEF_STEREO_COUNT>  (1) 
0

>  <PUBCHEM_ATOM_UDEF_STEREO_COUNT>  (1) 
0

>  <PUBCHEM_BOND_DEF_STEREO_COUNT>  (1) 
0

>  <PUBCHEM_BOND_UDEF_STEREO_COUNT>  (1) 
0

>  <PUBCHEM_ISOTOPIC_ATOM_COUNT>  (1) 
0

>  <PUBCHEM_COMPONENT_COUNT>  (1) 
1

>  <PUBCHEM_CACTVS_TAUTO_COUNT>  (1) 
1

>  <PUBCHEM_CONFORMER_ID>  (1) 
00009F8B00000001

>  <PUBCHEM_MMFF94_ENERGY>  (1) 
51.8651

>  <PUBCHEM_FEATURE_SELFOVERLAP>  (1) 
15.223

>  <PUBCHEM_SHAPE_FINGERPRINT>  (1) 
10219947 1 18273214196585320372
11471102 20 18272928323736243404
11796584 16 17603862256771571339
12032990 46 18410294666675675550
12236239 1 16845851291762591349
12251169 10 18201441402113639727
124424 183 18335135384901290629
13675066 3 18334573551048464157
13760787 5 18272360975931405604
14252887 29 18201166472445756478
17834072 33 17489296534081316941
19026448 4 17676760998879621892
200 152 17917983980632582149
20279233 1 18335143085909573215
20645477 70 18271517590146294471
20871998 22 17987246529664744526
21119208 17 13479133505925466963
22485316 2 17967248698030556083
23402539 116 15502367937624305527
23402655 69 17846492596301880069
23557571 272 17677328295023631093
23559900 14 17822010900346195202
26918003 58 18333727996578915179
2748010 2 17627793016039330972
4047638 21 12463569586703827382
42 15 18260548904917659075
5104073 3 18339640036437200232

>  <PUBCHEM_SHAPE_MULTIPOLES>  (1) 
273.17
10.07
1.28
0.95
5.37
0.05
0.06
1.1
2.21
-0.99
0.1
0.75
0.16
0.62

>  <PUBCHEM_SHAPE_SELFOVERLAP>  (1) 
549

>  <PUBCHEM_SHAPE_VOLUME>  (1) 
162.3

>  <PUBCHEM_COORDINATE_TYPE>  (1) 
2
5
10

$$$$
