40849
     RDKit          3D

 14 15  0  0  1  0  0  0  0  0999 V2000
    0.7444   -2.0636   -0.1541 N   0  0  0  0  0  0  0  0  0  0  0  0
   -1.7227    2.0216   -0.7077 N   0  0  0  0  0  0  0  0  0  0  0  0
   -3.9350   -0.9499   -0.1922 N   0  0  0  0  0  0  0  0  0  0  0  0
   -1.6018    0.4050    1.1627 C   0  0  0  0  0  0  0  0  0  0  0  0
   -2.5072    1.0655    0.0836 C   0  0  0  0  0  0  0  0  0  0  0  0
   -0.4695   -0.3767    0.6254 C   0  0  0  0  0  0  0  0  0  0  0  0
    0.8367    0.1101    0.3395 C   0  0  0  0  0  0  0  0  0  0  0  0
    1.5783   -0.9682   -0.1482 C   0  0  0  0  0  0  0  0  0  0  0  0
   -3.1262    0.0461   -0.8891 C   0  0  0  0  0  0  0  0  0  0  0  0
   -0.4952   -1.7161    0.3116 C   0  0  0  0  0  0  0  0  0  0  0  0
    1.4613    1.3684    0.4492 C   0  0  0  0  0  0  0  0  0  0  0  0
    2.9186   -0.8505   -0.5330 C   0  0  0  0  0  0  0  0  0  0  0  0
    2.8014    1.5010    0.0678 C   0  0  0  0  0  0  0  0  0  0  0  0
    3.5169    0.4073   -0.4155 C   0  0  0  0  0  0  0  0  0  0  0  0
  1  8  1  0
  1 10  1  0
  2  5  1  0
  3  9  1  0
  4  5  1  0
  4  6  1  0
  5  9  1  0
  6  7  1  0
  6 10  2  0
  7  8  2  0
  7 11  1  0
  8 12  1  0
 11 13  2  0
 12 14  2  0
 13 14  1  0
M  END
>  <PUBCHEM_COMPOUND_CID>  (1) 
40849

>  <PUBCHEM_CONFORMER_RMSD>  (1) 
0.6

>  <PUBCHEM_CONFORMER_DIVERSEORDER>  (1) 
5
16
23
11
21
17
19
24
22
18
13
26
20
14
4
1
2
3
7
9
8
12
10
6
15
25

>  <PUBCHEM_MMFF94_PARTIAL_CHARGES>  (1) 
23
1 0.03
10 -0.3
11 -0.15
12 -0.15
13 -0.15
14 -0.15
2 -0.99
20 0.15
21 0.27
22 0.15
23 0.36
24 0.36
25 0.15
26 0.15
27 0.15
28 0.36
29 0.36
3 -0.99
4 0.18
5 0.27
6 -0.18
8 -0.15
9 0.27

>  <PUBCHEM_EFFECTIVE_ROTOR_COUNT>  (1) 
3

>  <PUBCHEM_PHARMACOPHORE_FEATURES>  (1) 
8
1 1 cation
1 1 donor
1 2 cation
1 2 donor
1 3 cation
1 3 donor
5 1 6 7 8 10 rings
6 7 8 11 12 13 14 rings

>  <PUBCHEM_HEAVY_ATOM_COUNT>  (1) 
14

>  <PUBCHEM_ATOM_DEF_STEREO_COUNT>  (1) 
0

>  <PUBCHEM_ATOM_UDEF_STEREO_COUNT>  (1) 
1

>  <PUBCHEM_BOND_DEF_STEREO_COUNT>  (1) 
0

>  <PUBCHEM_BOND_UDEF_STEREO_COUNT>  (1) 
0

>  <PUBCHEM_ISOTOPIC_ATOM_COUNT>  (1) 
0

>  <PUBCHEM_COMPONENT_COUNT>  (1) 
1

>  <PUBCHEM_CACTVS_TAUTO_COUNT>  (1) 
1

>  <PUBCHEM_CONFORMER_ID>  (1) 
00009F9100000005

>  <PUBCHEM_MMFF94_ENERGY>  (1) 
13.6071

>  <PUBCHEM_FEATURE_SELFOVERLAP>  (1) 
40.689

>  <PUBCHEM_SHAPE_FINGERPRINT>  (1) 
11206711 2 18410863122407879309
124424 183 17967253074997765810
12897270 3 18410003317616611125
13299463 15 18342172241812159713
13380535 76 18411699924145860514
13705890 14 17703791392810687510
14325111 11 18411420600541459808
15775835 57 18340773650047147021
15852999 172 15936408918801600731
16945 1 18336838510974383770
17844478 74 18115890575504463201
18186145 218 18343025449792169412
19422 9 17632300081731559215
200 152 17846780715012404355
20281407 28 11383835973687387409
20361792 2 15338825465723079129
21028194 46 18408042918090361384
21501502 16 18190458264288665249
21524375 3 18409448107094251346
23402539 116 18336532915097244557
23402655 69 18343301440201333141
23559900 14 18200896045401467228
25 1 18265339412713398440
2748010 2 18124326161999093426
2871803 45 18410565198297359767
353137 74 18412256251201494195
5084963 1 18273213088425703321
63268167 104 18270122301295105672
7832392 63 18054793879634723057
81228 2 17834114525749748498

>  <PUBCHEM_SHAPE_MULTIPOLES>  (1) 
273.17
5.68
1.91
0.89
1.41
0.09
0.05
-0.68
-1.4
-0.14
-0.1
0.31
-0.09
0.24

>  <PUBCHEM_SHAPE_SELFOVERLAP>  (1) 
581.568

>  <PUBCHEM_SHAPE_VOLUME>  (1) 
152.4

>  <PUBCHEM_COORDINATE_TYPE>  (1) 
2
5
10

$$$$
