40840
     RDKit          3D

 13 13  0  0  0  0  0  0  0  0999 V2000
   -4.0774   -0.2487    0.2196 O   0  0  0  0  0  0  0  0  0  0  0  0
    4.7230   -1.5177    0.4512 O   0  0  0  0  0  0  0  0  0  0  0  0
    3.6998    0.4932   -0.1809 N   0  0  0  0  0  0  0  0  0  0  0  0
   -0.0451    0.6580   -0.1626 C   0  0  0  0  0  0  0  0  0  0  0  0
   -2.7552    0.0481    0.0944 C   0  0  0  0  0  0  0  0  0  0  0  0
   -0.9545    1.6564    0.1859 C   0  0  0  0  0  0  0  0  0  0  0  0
   -0.4905   -0.6455   -0.3827 C   0  0  0  0  0  0  0  0  0  0  0  0
   -2.3095    1.3515    0.3144 C   0  0  0  0  0  0  0  0  0  0  0  0
   -1.8456   -0.9505   -0.2542 C   0  0  0  0  0  0  0  0  0  0  0  0
    1.3681    0.9750   -0.2971 C   0  0  0  0  0  0  0  0  0  0  0  0
    2.3933    0.1338   -0.0428 C   0  0  0  0  0  0  0  0  0  0  0  0
   -4.4650   -1.6009   -0.0196 C   0  0  0  0  0  0  0  0  0  0  0  0
    4.7588   -0.3528    0.0745 C   0  0  0  0  0  0  0  0  0  0  0  0
  1  5  1  0
  1 12  1  0
  2 13  2  0
  3 11  1  0
  3 13  1  0
  4  6  2  0
  4  7  1  0
  4 10  1  0
  5  8  2  0
  5  9  1  0
  6  8  1  0
  7  9  2  0
 10 11  2  0
M  END
>  <PUBCHEM_COMPOUND_CID>  (1) 
40840

>  <PUBCHEM_CONFORMER_RMSD>  (1) 
0.6

>  <PUBCHEM_CONFORMER_DIVERSEORDER>  (1) 
1
7
3
5
4
6
2

>  <PUBCHEM_MMFF94_PARTIAL_CHARGES>  (1) 
21
1 -0.36
10 -0.18
11 -0.04
12 0.28
13 0.57
14 0.15
15 0.15
16 0.15
17 0.15
18 0.15
19 0.15
2 -0.57
23 0.37
24 0.06
3 -0.54
4 0.03
5 0.08
6 -0.15
7 -0.15
8 -0.15
9 -0.15

>  <PUBCHEM_EFFECTIVE_ROTOR_COUNT>  (1) 
4

>  <PUBCHEM_PHARMACOPHORE_FEATURES>  (1) 
4
1 1 acceptor
1 2 acceptor
1 3 donor
6 4 5 6 7 8 9 rings

>  <PUBCHEM_HEAVY_ATOM_COUNT>  (1) 
13

>  <PUBCHEM_ATOM_DEF_STEREO_COUNT>  (1) 
0

>  <PUBCHEM_ATOM_UDEF_STEREO_COUNT>  (1) 
0

>  <PUBCHEM_BOND_DEF_STEREO_COUNT>  (1) 
0

>  <PUBCHEM_BOND_UDEF_STEREO_COUNT>  (1) 
1

>  <PUBCHEM_ISOTOPIC_ATOM_COUNT>  (1) 
0

>  <PUBCHEM_COMPONENT_COUNT>  (1) 
1

>  <PUBCHEM_CACTVS_TAUTO_COUNT>  (1) 
2

>  <PUBCHEM_CONFORMER_ID>  (1) 
00009F8800000001

>  <PUBCHEM_MMFF94_ENERGY>  (1) 
39.1494

>  <PUBCHEM_FEATURE_SELFOVERLAP>  (1) 
20.297

>  <PUBCHEM_SHAPE_FINGERPRINT>  (1) 
10465860 250 17918273142904530968
12032990 46 18338801216592038121
13288520 33 18411703166719315124
13690532 89 18335421287424748591
13862211 1 18342736364629672439
14911166 2 11602818029917485559
17804303 29 18343867718691033712
17834072 33 18334017228846921692
17862501 102 18412262843707294179
19422 9 18334299751611061924
200 152 18335136509808104351
20645477 56 9727637215058968506
22079108 93 13686293608311424839
22485316 2 18335417963542158500
2297311 6 17988657276635864132
23402539 116 18131063844958496773
23463225 33 18409450259036111196
23559900 14 18411695530452468976
42 15 18412265025766847886
43471831 8 18337391534952980946
5104073 3 18342177773603612696
573450 72 18337387141443556312
76465 3 18200024179044410119

>  <PUBCHEM_SHAPE_MULTIPOLES>  (1) 
250.81
9.28
1.57
0.65
6.91
0.02
-0.01
-4.75
1.02
-0.65
0.1
0.02
0
-0.41

>  <PUBCHEM_SHAPE_SELFOVERLAP>  (1) 
514.671

>  <PUBCHEM_SHAPE_VOLUME>  (1) 
144

>  <PUBCHEM_COORDINATE_TYPE>  (1) 
2
5
10

$$$$
