40846
     RDKit          3D

 34 34  0  0  1  0  0  0  0  0999 V2000
    5.4011   -1.0946    0.1170 O   0  0  0  0  0  0  0  0  0  0  0  0
    2.7427    1.3351    0.8284 O   0  0  0  0  0  0  0  0  0  0  0  0
    3.8315   -0.3631   -2.2081 O   0  0  0  0  0  0  0  0  0  0  0  0
    4.7494   -0.5909    2.3422 O   0  0  0  0  0  0  0  0  0  0  0  0
    7.7100    0.5424   -0.7273 O   0  0  0  0  0  0  0  0  0  0  0  0
    0.2972   -2.1054    0.4976 O   0  0  0  0  0  0  0  0  0  0  0  0
    0.1867    1.5174    1.8031 O   0  0  0  0  0  0  0  0  0  0  0  0
   -1.7058    0.4787   -1.5488 O   0  0  0  0  0  0  0  0  0  0  0  0
   -2.6227   -1.7435    1.6174 O   0  0  0  0  0  0  0  0  0  0  0  0
   -8.4057    1.0294   -0.8118 O   0  0  0  0  0  0  0  0  0  0  0  0
   -8.1436   -0.6871    0.6519 O   0  0  0  0  0  0  0  0  0  0  0  0
    2.5412   -2.1801   -0.1171 N   0  0  0  0  0  0  0  0  0  0  0  0
   -0.4573    2.5191   -0.1888 N   0  0  0  0  0  0  0  0  0  0  0  0
   -3.3212    0.4119    0.1160 N   0  0  0  0  0  0  0  0  0  0  0  0
   -2.9019   -3.0705   -0.2366 N   0  0  0  0  0  0  0  0  0  0  0  0
    2.8450    0.2497   -0.0933 C   0  0  0  0  0  0  0  0  0  0  0  0
    3.0030   -1.0665    0.6842 C   0  0  0  0  0  0  0  0  0  0  0  0
    3.9936    0.4945   -1.0789 C   0  0  0  0  0  0  0  0  0  0  0  0
    5.3600    0.2240   -0.4339 C   0  0  0  0  0  0  0  0  0  0  0  0
    4.4446   -1.3189    1.1542 C   0  0  0  0  0  0  0  0  0  0  0  0
    6.5040    0.3293   -1.4380 C   0  0  0  0  0  0  0  0  0  0  0  0
    1.9018    2.3599    0.3243 C   0  0  0  0  0  0  0  0  0  0  0  0
    1.2230   -2.6020   -0.1386 C   0  0  0  0  0  0  0  0  0  0  0  0
    2.3900    3.6903    0.8751 C   0  0  0  0  0  0  0  0  0  0  0  0
    0.4664    2.0834    0.7485 C   0  0  0  0  0  0  0  0  0  0  0  0
    1.0114   -3.7622   -1.0739 C   0  0  0  0  0  0  0  0  0  0  0  0
   -1.8802    2.3463   -0.0140 C   0  0  0  0  0  0  0  0  0  0  0  0
   -2.2605    0.9821   -0.5741 C   0  0  0  0  0  0  0  0  0  0  0  0
   -3.8947   -0.8621   -0.2501 C   0  0  0  0  0  0  0  0  0  0  0  0
   -2.6610    3.4541   -0.7040 C   0  0  0  0  0  0  0  0  0  0  0  0
   -5.3776   -0.9215    0.1270 C   0  0  0  0  0  0  0  0  0  0  0  0
   -6.2148    0.1469   -0.5785 C   0  0  0  0  0  0  0  0  0  0  0  0
   -3.0879   -1.9164    0.4929 C   0  0  0  0  0  0  0  0  0  0  0  0
   -7.6677    0.0901   -0.1638 C   0  0  0  0  0  0  0  0  0  0  0  0
  1 19  1  0
  1 20  1  0
  2 16  1  0
  2 22  1  0
  3 18  1  0
  4 20  1  0
  5 21  1  0
  6 23  2  0
  7 25  2  0
  8 28  2  0
  9 33  2  0
 10 34  1  0
 11 34  2  0
 12 17  1  0
 12 23  1  0
 13 25  1  0
 13 27  1  0
 14 28  1  0
 14 29  1  0
 15 33  1  0
 16 17  1  0
 16 18  1  0
 17 20  1  0
 18 19  1  0
 19 21  1  0
 22 24  1  0
 22 25  1  0
 23 26  1  0
 27 28  1  0
 27 30  1  0
 29 31  1  0
 29 33  1  0
 31 32  1  0
 32 34  1  0
M  END
>  <PUBCHEM_COMPOUND_CID>  (1) 
40846

>  <PUBCHEM_CONFORMER_RMSD>  (1) 
1.4

>  <PUBCHEM_CONFORMER_DIVERSEORDER>  (1) 
4
11
44
9
95
63
87
40
102
48
28
101
79
54
100
76
15
6
56
75
14
69
22
65
91
71
3
82
25
19
7
94
74
8
49
72
97
16
58
52
30
51
104
55
96
57
68
73
92
32
43
67
81
53
21
59
18
93
61
20
83
13
12
105
36
17
60
38
90
33
88
29
70
23
27
62
66
42
98
1
5
37
84
39
46
35
78
41
85
10
86
47
34
103
89
80
31
45
64
99
77
26
24
50
2

>  <PUBCHEM_MMFF94_PARTIAL_CHARGES>  (1) 
40
1 -0.56
10 -0.65
11 -0.57
12 -0.73
13 -0.73
14 -0.73
15 -0.8
16 0.28
17 0.3
18 0.28
19 0.28
2 -0.56
20 0.56
21 0.28
22 0.34
23 0.57
25 0.57
26 0.06
27 0.36
28 0.57
29 0.36
3 -0.68
32 0.06
33 0.57
34 0.66
4 -0.68
42 0.37
44 0.4
45 0.4
49 0.4
5 -0.68
50 0.37
59 0.37
6 -0.57
64 0.37
65 0.37
66 0.5
7 -0.57
8 -0.57
9 -0.57

>  <PUBCHEM_EFFECTIVE_ROTOR_COUNT>  (1) 
16.2

>  <PUBCHEM_PHARMACOPHORE_FEATURES>  (1) 
20
1 1 acceptor
1 10 acceptor
1 11 acceptor
1 12 donor
1 13 donor
1 14 donor
1 15 donor
1 2 acceptor
1 3 acceptor
1 3 donor
1 4 acceptor
1 4 donor
1 5 acceptor
1 5 donor
1 6 acceptor
1 7 acceptor
1 8 acceptor
1 9 acceptor
3 10 11 34 anion
6 1 16 17 18 19 20 rings

>  <PUBCHEM_HEAVY_ATOM_COUNT>  (1) 
34

>  <PUBCHEM_ATOM_DEF_STEREO_COUNT>  (1) 
5

>  <PUBCHEM_ATOM_UDEF_STEREO_COUNT>  (1) 
3

>  <PUBCHEM_BOND_DEF_STEREO_COUNT>  (1) 
0

>  <PUBCHEM_BOND_UDEF_STEREO_COUNT>  (1) 
0

>  <PUBCHEM_ISOTOPIC_ATOM_COUNT>  (1) 
0

>  <PUBCHEM_COMPONENT_COUNT>  (1) 
1

>  <PUBCHEM_CACTVS_TAUTO_COUNT>  (1) 
16

>  <PUBCHEM_CONFORMER_ID>  (1) 
00009F8E00000004

>  <PUBCHEM_MMFF94_ENERGY>  (1) 
68.8561

>  <PUBCHEM_FEATURE_SELFOVERLAP>  (1) 
101.622

>  <PUBCHEM_SHAPE_FINGERPRINT>  (1) 
12788726 201 18334014960677071137
12838862 33 18339346535377739813
13402501 40 18408885148508684395
14117953 113 18343018865760675655
14617045 38 18409169913577906943
14725015 67 18263067856187360715
14931854 50 18409732820222940063
15183329 4 18412262827265994529
15274700 259 17823677713525745573
15890870 6 18335423469300524262
19319366 153 17822284652751026355
20642791 35 18410004472968036867
23559900 14 18337386162550143897
3004659 81 18334574672161964217
350125 39 18407758148789416805
437815 12 18060703901148229761
439807 62 18259983747403944577
59755656 215 18408884023617428733

>  <PUBCHEM_SHAPE_MULTIPOLES>  (1) 
615.22
18.06
3.85
1.39
20.04
0.39
-0.13
-1.05
3.26
-0.06
-0.11
-1.55
-0.06
0.71

>  <PUBCHEM_SHAPE_SELFOVERLAP>  (1) 
1234.377

>  <PUBCHEM_SHAPE_VOLUME>  (1) 
355.6

>  <PUBCHEM_COORDINATE_TYPE>  (1) 
2
5
10

$$$$
