40859
     RDKit          3D

 14 15  0  0  0  0  0  0  0  0999 V2000
   -3.4093   -1.5961    0.0011 S   0  0  0  0  0  0  0  0  0  0  0  0
    1.1282   -0.5085   -0.0002 O   0  0  0  0  0  0  0  0  0  0  0  0
    4.5419    0.2504   -0.0004 O   0  0  0  0  0  0  0  0  0  0  0  0
    3.4738   -1.6674   -0.0007 O   0  0  0  0  0  0  0  0  0  0  0  0
   -2.3943    0.7814    0.0001 N   0  0  0  0  0  0  0  0  0  0  0  0
    3.4559   -0.4011   -0.0005 N   0  0  0  0  0  0  0  0  0  0  0  0
    0.0573    0.3282    0.0003 C   0  0  0  0  0  0  0  0  0  0  0  0
   -1.3475   -0.1198    0.0005 C   0  0  0  0  0  0  0  0  0  0  0  0
    0.4694    1.6404    0.0008 C   0  0  0  0  0  0  0  0  0  0  0  0
   -3.5279    0.1159    0.0001 C   0  0  0  0  0  0  0  0  0  0  0  0
    2.2360    0.2782    0.0000 C   0  0  0  0  0  0  0  0  0  0  0  0
   -1.7003   -1.4531    0.0002 C   0  0  0  0  0  0  0  0  0  0  0  0
    1.8842    1.6080    0.0006 C   0  0  0  0  0  0  0  0  0  0  0  0
   -4.8672    0.7437   -0.0020 C   0  0  0  0  0  0  0  0  0  0  0  0
  1 10  1  0
  1 12  1  0
  2  7  1  0
  2 11  1  0
  3  6  1  0
  4  6  2  0
  5  8  1  0
  5 10  2  0
  6 11  1  0
  7  8  1  0
  7  9  2  0
  8 12  2  0
  9 13  1  0
 10 14  1  0
 11 13  2  0
M  CHG  2   3  -1   6   1
M  END
>  <PUBCHEM_COMPOUND_CID>  (1) 
40859

>  <PUBCHEM_CONFORMER_RMSD>  (1) 
0.6

>  <PUBCHEM_CONFORMER_DIVERSEORDER>  (1) 
1
3
2
4

>  <PUBCHEM_MMFF94_PARTIAL_CHARGES>  (1) 
17
1 -0.08
10 0.2
11 0.22
12 -0.11
13 -0.15
14 0.18
15 0.15
16 0.15
17 0.15
2 -0.28
3 -0.52
4 -0.52
5 -0.57
6 0.96
7 0.14
8 0.23
9 -0.15

>  <PUBCHEM_EFFECTIVE_ROTOR_COUNT>  (1) 
2

>  <PUBCHEM_PHARMACOPHORE_FEATURES>  (1) 
7
1 2 acceptor
1 3 acceptor
1 3 anion
1 4 acceptor
1 5 acceptor
5 1 5 8 10 12 rings
5 2 7 9 11 13 rings

>  <PUBCHEM_HEAVY_ATOM_COUNT>  (1) 
14

>  <PUBCHEM_ATOM_DEF_STEREO_COUNT>  (1) 
0

>  <PUBCHEM_ATOM_UDEF_STEREO_COUNT>  (1) 
0

>  <PUBCHEM_BOND_DEF_STEREO_COUNT>  (1) 
0

>  <PUBCHEM_BOND_UDEF_STEREO_COUNT>  (1) 
0

>  <PUBCHEM_ISOTOPIC_ATOM_COUNT>  (1) 
0

>  <PUBCHEM_COMPONENT_COUNT>  (1) 
1

>  <PUBCHEM_CACTVS_TAUTO_COUNT>  (1) 
1

>  <PUBCHEM_CONFORMER_ID>  (1) 
00009F9B00000001

>  <PUBCHEM_MMFF94_ENERGY>  (1) 
14.3806

>  <PUBCHEM_FEATURE_SELFOVERLAP>  (1) 
35.615

>  <PUBCHEM_SHAPE_FINGERPRINT>  (1) 
10130415 120 18342458140357382537
10608611 8 18339076116021687673
11401426 45 18412539920553058705
11471102 20 18410289203065811892
12032990 46 18410015441839841234
124424 183 18272932734894451105
12932764 1 17559116699260804989
13296908 3 18337109080965741787
13380535 76 18342741802026458183
13690532 89 18411699868295181963
13922767 16 18201717370678682321
14004511 7 18273219694586460537
14115302 16 17968108520244429486
14144814 61 18412263947471626363
14252887 29 17989215845537910142
14325111 11 18338797926699914849
14965852 173 18411135883260040511
15196674 1 18410575127623346855
15242433 33 18408325475583563990
15375462 189 18040990713743743090
15442244 35 18411703175172417929
15536298 74 18342174530924382904
17804303 29 18411423933757711477
18186145 218 17385997416530377129
18511873 20 18411419514246919825
18522853 276 18343584036122310089
19422 9 18262805184709184279
200 152 17846492656452183327
20201158 50 18413110554261163759
20279233 1 15626230134543828301
20281475 54 18335137600708808982
20645477 70 18413670214190593295
20871998 22 18271531888450871782
21267235 1 18338526325758299539
21501502 16 18266743665451055285
21501925 9 18340480170757968432
221490 88 18191030212124855195
22485316 2 18410290315647009746
23402539 116 18060131021404272573
23402655 69 18410011039741216005
23463225 33 18411139134223275070
23557571 272 13254807819490829859
23559900 14 18343578573187686248
42 15 18408887343041559931
5104073 3 18338799021768857273
58051976 100 18411138077962085295
6430166 295 18409165481272027093
69090 78 18343015606175559015
7364860 26 18196371644166404256
77779 3 18336829783505782125
8809292 202 18333735749184944499
93112 12 18410011078437859717
9709674 26 18339084898823911951

>  <PUBCHEM_SHAPE_MULTIPOLES>  (1) 
264.39
8.39
1.67
0.59
0.02
0.18
0
0.84
0
-0.04
0
-0.1
0
0

>  <PUBCHEM_SHAPE_SELFOVERLAP>  (1) 
556.507

>  <PUBCHEM_SHAPE_VOLUME>  (1) 
152.1

>  <PUBCHEM_COORDINATE_TYPE>  (1) 
2
5
10

$$$$
