40851
     RDKit          3D

 18 19  0  0  1  0  0  0  0  0999 V2000
   -3.1756   -0.3859    0.1035 N   0  0  0  0  0  0  0  0  0  0  0  0
   -0.9637    2.2016   -1.4485 N   0  0  0  0  0  0  0  0  0  0  0  0
    3.0617    1.8246    0.2493 N   0  0  0  0  0  0  0  0  0  0  0  0
   -1.2573    0.9457   -0.7468 C   0  0  0  0  0  0  0  0  0  0  0  0
   -2.7790    0.8686   -0.5295 C   0  0  0  0  0  0  0  0  0  0  0  0
   -0.4504    0.8827    0.5818 C   0  0  0  0  0  0  0  0  0  0  0  0
    1.0144    0.9844    0.4210 C   0  0  0  0  0  0  0  0  0  0  0  0
    1.9235   -0.0940    0.2326 C   0  0  0  0  0  0  0  0  0  0  0  0
   -2.7401   -1.5275   -0.7018 C   0  0  0  0  0  0  0  0  0  0  0  0
   -4.6250   -0.4257    0.3012 C   0  0  0  0  0  0  0  0  0  0  0  0
    3.2010    0.4604    0.1278 C   0  0  0  0  0  0  0  0  0  0  0  0
    1.7440    2.1509    0.4268 C   0  0  0  0  0  0  0  0  0  0  0  0
    1.7816   -1.4929    0.1408 C   0  0  0  0  0  0  0  0  0  0  0  0
   -3.0892   -2.8420   -0.0246 C   0  0  0  0  0  0  0  0  0  0  0  0
   -5.0976    0.7525    1.1359 C   0  0  0  0  0  0  0  0  0  0  0  0
    4.3483   -0.3173   -0.0649 C   0  0  0  0  0  0  0  0  0  0  0  0
    2.9205   -2.2835   -0.0518 C   0  0  0  0  0  0  0  0  0  0  0  0
    4.1831   -1.7026   -0.1528 C   0  0  0  0  0  0  0  0  0  0  0  0
  1  5  1  0
  1  9  1  0
  1 10  1  0
  2  4  1  0
  3 11  1  0
  3 12  1  0
  4  5  1  0
  4  6  1  0
  6  7  1  0
  7  8  1  0
  7 12  2  0
  8 11  2  0
  8 13  1  0
  9 14  1  0
 10 15  1  0
 11 16  1  0
 13 17  2  0
 16 18  2  0
 17 18  1  0
M  END
>  <PUBCHEM_COMPOUND_CID>  (1) 
40851

>  <PUBCHEM_CONFORMER_RMSD>  (1) 
0.8

>  <PUBCHEM_CONFORMER_DIVERSEORDER>  (1) 
1
34
21
10
19
11
17
22
26
3
29
30
23
28
27
14
7
32
25
9
20
12
4
2
33
31
16
24
13
18
5
15
8
6

>  <PUBCHEM_MMFF94_PARTIAL_CHARGES>  (1) 
23
1 -0.81
10 0.27
11 -0.15
12 -0.3
13 -0.15
16 -0.15
17 -0.15
18 -0.15
2 -0.99
28 0.15
29 0.36
3 0.03
30 0.36
31 0.27
32 0.15
39 0.15
4 0.27
40 0.15
41 0.15
5 0.27
6 0.18
7 -0.18
9 0.27

>  <PUBCHEM_EFFECTIVE_ROTOR_COUNT>  (1) 
6

>  <PUBCHEM_PHARMACOPHORE_FEATURES>  (1) 
7
1 1 cation
1 2 cation
1 2 donor
1 3 cation
1 3 donor
5 3 7 8 11 12 rings
6 8 11 13 16 17 18 rings

>  <PUBCHEM_HEAVY_ATOM_COUNT>  (1) 
18

>  <PUBCHEM_ATOM_DEF_STEREO_COUNT>  (1) 
1

>  <PUBCHEM_ATOM_UDEF_STEREO_COUNT>  (1) 
0

>  <PUBCHEM_BOND_DEF_STEREO_COUNT>  (1) 
0

>  <PUBCHEM_BOND_UDEF_STEREO_COUNT>  (1) 
0

>  <PUBCHEM_ISOTOPIC_ATOM_COUNT>  (1) 
0

>  <PUBCHEM_COMPONENT_COUNT>  (1) 
1

>  <PUBCHEM_CACTVS_TAUTO_COUNT>  (1) 
1

>  <PUBCHEM_CONFORMER_ID>  (1) 
00009F9300000001

>  <PUBCHEM_MMFF94_ENERGY>  (1) 
23.5617

>  <PUBCHEM_FEATURE_SELFOVERLAP>  (1) 
35.614

>  <PUBCHEM_SHAPE_FINGERPRINT>  (1) 
10616163 171 18269837678192250239
11552529 35 17987232421019203167
12107183 9 17984151353283201601
12251169 10 18343585131549707125
12506688 2 18342454846243917504
12553582 1 18338787919004342890
12596599 1 17916887783907636350
12633257 1 18343019956698121199
13533116 47 18129093597684199231
14617045 38 18336838519327331159
14790565 3 17761778759860891836
15196674 1 18340486767564380635
15238133 3 16917078719819010153
15375462 189 18342172250254381770
15527383 91 18410862036119016897
17834074 16 18410290302630148175
1813 80 17458065984415696101
19141452 34 18411420622680947447
20281475 54 18411979199909236125
20645477 70 18338503205827714383
21267235 1 18341058402532466182
21673915 165 18267581493100716183
221490 88 18410014377205169946
23402539 116 16950557745278692716
23503953 91 18272927228482633963
23557571 272 17603861182887387437
23559900 14 18341606057574557832
23566358 27 18335429018303013420
2871803 45 18260257538726321743
314173 41 18341900671130182622
3323516 105 18335700529187328922
5104073 3 18341609368867561187
83771 10 18408886217749780229
8809292 202 18407760347818271890
9709674 26 18263925604132710523

>  <PUBCHEM_SHAPE_MULTIPOLES>  (1) 
355.49
9.61
2.69
0.9
4.72
0.93
-0.1
2.83
1.47
-0.31
-0.24
0.61
-0.31
0.09

>  <PUBCHEM_SHAPE_SELFOVERLAP>  (1) 
736.638

>  <PUBCHEM_SHAPE_VOLUME>  (1) 
206.1

>  <PUBCHEM_COORDINATE_TYPE>  (1) 
2
5
10

$$$$
