40853
     RDKit          3D

 22 23  0  0  1  0  0  0  0  0999 V2000
    0.3496   -0.2586   -1.7137 O   0  0  0  0  0  0  0  0  0  0  0  0
   -0.8826    1.6567   -2.1013 O   0  0  0  0  0  0  0  0  0  0  0  0
   -3.4406   -1.5403    0.3890 N   0  0  0  0  0  0  0  0  0  0  0  0
   -0.4938    0.8844    0.1587 C   0  0  0  0  0  0  0  0  0  0  0  0
    0.9018    0.9475    0.8563 C   0  0  0  0  0  0  0  0  0  0  0  0
   -1.2804   -0.3657    0.5985 C   0  0  0  0  0  0  0  0  0  0  0  0
   -1.3302    2.1348    0.5197 C   0  0  0  0  0  0  0  0  0  0  0  0
    1.6240    2.2918    0.6207 C   0  0  0  0  0  0  0  0  0  0  0  0
   -0.5887    3.4533    0.2998 C   0  0  0  0  0  0  0  0  0  0  0  0
    0.7509    3.4761    1.0227 C   0  0  0  0  0  0  0  0  0  0  0  0
   -0.3821    0.8323   -1.3483 C   0  0  0  0  0  0  0  0  0  0  0  0
   -2.6768   -0.3952   -0.0267 C   0  0  0  0  0  0  0  0  0  0  0  0
    1.8122   -0.2427    0.5734 C   0  0  0  0  0  0  0  0  0  0  0  0
   -1.3806   -0.4008    2.1215 C   0  0  0  0  0  0  0  0  0  0  0  0
    1.6290   -1.4328    1.2705 C   0  0  0  0  0  0  0  0  0  0  0  0
    2.8191   -0.1305   -0.3802 C   0  0  0  0  0  0  0  0  0  0  0  0
   -2.7616   -2.7956    0.0316 C   0  0  0  0  0  0  0  0  0  0  0  0
   -4.7890   -1.5272   -0.1993 C   0  0  0  0  0  0  0  0  0  0  0  0
    2.4615   -2.5217    1.0116 C   0  0  0  0  0  0  0  0  0  0  0  0
    3.6514   -1.2195   -0.6391 C   0  0  0  0  0  0  0  0  0  0  0  0
    0.5344   -0.4312   -3.1223 C   0  0  0  0  0  0  0  0  0  0  0  0
    3.4726   -2.4151    0.0569 C   0  0  0  0  0  0  0  0  0  0  0  0
  1 11  1  0
  1 21  1  0
  2 11  2  0
  3 12  1  0
  3 17  1  0
  3 18  1  0
  4  5  1  0
  4  6  1  0
  4  7  1  0
  4 11  1  0
  5  8  1  0
  5 13  1  0
  6 12  1  0
  6 14  1  0
  7  9  1  0
  8 10  1  0
  9 10  1  0
 13 15  2  0
 13 16  1  0
 15 19  1  0
 16 20  2  0
 19 22  2  0
 20 22  1  0
M  END
>  <PUBCHEM_COMPOUND_CID>  (1) 
40853

>  <PUBCHEM_CONFORMER_RMSD>  (1) 
0.8

>  <PUBCHEM_CONFORMER_DIVERSEORDER>  (1) 
1
10
33
42
11
26
5
25
40
27
34
38
12
4
28
2
8
41
18
30
31
35
36
24
23
7
20
19
13
15
17
37
3
32
39
14
29
9
21
16
6
22

>  <PUBCHEM_MMFF94_PARTIAL_CHARGES>  (1) 
21
1 -0.43
11 0.66
12 0.27
13 -0.14
15 -0.15
16 -0.15
17 0.27
18 0.27
19 -0.15
2 -0.57
20 -0.15
21 0.28
22 -0.15
3 -0.81
38 0.15
39 0.15
4 0.06
46 0.15
47 0.15
5 0.14
51 0.15

>  <PUBCHEM_EFFECTIVE_ROTOR_COUNT>  (1) 
7.2

>  <PUBCHEM_PHARMACOPHORE_FEATURES>  (1) 
5
1 14 hydrophobe
1 2 acceptor
1 3 cation
6 13 15 16 19 20 22 rings
6 4 5 7 8 9 10 rings

>  <PUBCHEM_HEAVY_ATOM_COUNT>  (1) 
22

>  <PUBCHEM_ATOM_DEF_STEREO_COUNT>  (1) 
0

>  <PUBCHEM_ATOM_UDEF_STEREO_COUNT>  (1) 
3

>  <PUBCHEM_BOND_DEF_STEREO_COUNT>  (1) 
0

>  <PUBCHEM_BOND_UDEF_STEREO_COUNT>  (1) 
0

>  <PUBCHEM_ISOTOPIC_ATOM_COUNT>  (1) 
0

>  <PUBCHEM_COMPONENT_COUNT>  (1) 
1

>  <PUBCHEM_CACTVS_TAUTO_COUNT>  (1) 
1

>  <PUBCHEM_CONFORMER_ID>  (1) 
00009F9500000001

>  <PUBCHEM_MMFF94_ENERGY>  (1) 
79.1314

>  <PUBCHEM_FEATURE_SELFOVERLAP>  (1) 
25.371

>  <PUBCHEM_SHAPE_FINGERPRINT>  (1) 
107951 10 17047682872831952374
10863032 1 18337671889195980148
11370993 70 17329698229421673115
11578080 2 17895739738852227180
12173636 292 17689994531937511632
12506688 2 18408318904051681002
12553582 1 18410859841111426963
12633257 1 17987246529727937851
12788726 201 18052528877159680433
13004483 165 18339351977254765499
13533116 47 18196090165591104091
13538477 17 17976821982918285432
14178342 30 17903620905441241786
14787075 74 18264215875697867284
14863182 85 17468480764538567699
15422964 175 18341599422023775536
15881359 60 17202747207781034925
15906896 17 17695615260821556028
16945 1 18053950828956787432
17980427 23 16016608684406354957
19765921 60 12179843917906541105
20600515 1 18059872648666016635
20602899 9 17394427131614992421
20645476 183 17544201480591194432
20645477 70 18196082468624477275
21421861 104 17771093715313219723
21452121 71 18337963375583332275
229495 10 18055891411519829117
23419403 2 17392429572443270976
23493267 7 17624991430478692734
23557571 272 18265879290619730890
23559900 14 18268985569559838097
23728640 28 17546440081717256482
25222932 49 16618979454131686023
394222 165 17484808460665808817
6443956 14 18264489657945058665
7364860 26 18123752216855444035
8272917 22 18051975011310107537

>  <PUBCHEM_SHAPE_MULTIPOLES>  (1) 
436.03
5.47
3.75
1.92
2.35
2.32
1.47
-5.99
-0.22
0.07
-1.04
-0.17
-0.07
0.06

>  <PUBCHEM_SHAPE_SELFOVERLAP>  (1) 
905.263

>  <PUBCHEM_SHAPE_VOLUME>  (1) 
247.6

>  <PUBCHEM_COORDINATE_TYPE>  (1) 
2
5
10

$$$$
