40863
     RDKit          3D

 16 18  0  0  1  0  0  0  0  0999 V2000
   -2.8967    0.1494    0.3231 N   0  0  0  0  0  0  0  0  0  0  0  0
   -0.8526   -0.9736   -0.5995 C   0  0  0  0  0  0  0  0  0  0  0  0
    0.5121   -1.6636   -0.2308 C   0  0  0  0  0  0  0  0  0  0  0  0
   -0.4479    0.3674   -1.2736 C   0  0  0  0  0  0  0  0  0  0  0  0
   -1.7733   -0.7458    0.6278 C   0  0  0  0  0  0  0  0  0  0  0  0
    1.3427   -0.4368    0.0966 C   0  0  0  0  0  0  0  0  0  0  0  0
    0.7797    0.7195   -0.4752 C   0  0  0  0  0  0  0  0  0  0  0  0
   -1.5812    1.3885   -1.3334 C   0  0  0  0  0  0  0  0  0  0  0  0
   -2.3939    1.4772   -0.0464 C   0  0  0  0  0  0  0  0  0  0  0  0
    1.1122   -2.3789   -1.4568 C   0  0  0  0  0  0  0  0  0  0  0  0
    0.4193   -2.6686    0.9244 C   0  0  0  0  0  0  0  0  0  0  0  0
    2.5129   -0.3616    0.8396 C   0  0  0  0  0  0  0  0  0  0  0  0
    1.3858    1.9566   -0.3183 C   0  0  0  0  0  0  0  0  0  0  0  0
   -3.7939    0.2500    1.4752 C   0  0  0  0  0  0  0  0  0  0  0  0
    3.1171    0.8850    1.0109 C   0  0  0  0  0  0  0  0  0  0  0  0
    2.5578    2.0352    0.4365 C   0  0  0  0  0  0  0  0  0  0  0  0
  1  5  1  0
  1  9  1  0
  1 14  1  0
  2  3  1  0
  2  4  1  0
  2  5  1  0
  3  6  1  0
  3 10  1  0
  3 11  1  0
  4  7  1  0
  4  8  1  0
  6  7  2  0
  6 12  1  0
  7 13  1  0
  8  9  1  0
 12 15  2  0
 13 16  2  0
 15 16  1  0
M  END
>  <PUBCHEM_COMPOUND_CID>  (1) 
40863

>  <PUBCHEM_CONFORMER_RMSD>  (1) 
0.6

>  <PUBCHEM_CONFORMER_DIVERSEORDER>  (1) 
3
4
1
2

>  <PUBCHEM_MMFF94_PARTIAL_CHARGES>  (1) 
16
1 -0.81
12 -0.15
13 -0.15
14 0.27
15 -0.15
16 -0.15
3 0.14
31 0.15
32 0.15
36 0.15
37 0.15
4 0.14
5 0.27
6 -0.14
7 -0.14
9 0.27

>  <PUBCHEM_EFFECTIVE_ROTOR_COUNT>  (1) 
1

>  <PUBCHEM_PHARMACOPHORE_FEATURES>  (1) 
5
1 1 cation
3 3 10 11 hydrophobe
5 2 3 4 6 7 rings
6 1 2 4 5 8 9 rings
6 6 7 12 13 15 16 rings

>  <PUBCHEM_HEAVY_ATOM_COUNT>  (1) 
16

>  <PUBCHEM_ATOM_DEF_STEREO_COUNT>  (1) 
0

>  <PUBCHEM_ATOM_UDEF_STEREO_COUNT>  (1) 
2

>  <PUBCHEM_BOND_DEF_STEREO_COUNT>  (1) 
0

>  <PUBCHEM_BOND_UDEF_STEREO_COUNT>  (1) 
0

>  <PUBCHEM_ISOTOPIC_ATOM_COUNT>  (1) 
0

>  <PUBCHEM_COMPONENT_COUNT>  (1) 
1

>  <PUBCHEM_CACTVS_TAUTO_COUNT>  (1) 
1

>  <PUBCHEM_CONFORMER_ID>  (1) 
00009F9F00000003

>  <PUBCHEM_MMFF94_ENERGY>  (1) 
49.1123

>  <PUBCHEM_FEATURE_SELFOVERLAP>  (1) 
25.608

>  <PUBCHEM_SHAPE_FINGERPRINT>  (1) 
11067466 332 17968676933396186127
11471102 22 18260266339014084672
11640471 11 16988270985273626593
12251169 10 18260265295400296257
12382932 28 18262525904539954809
12423570 1 10070026136644471470
12491281 212 16701729544812874832
12633257 1 18260830367241557793
12696612 119 18333731312262187996
13172582 1 18336252518489790192
14617773 55 17839439413291754758
14817 1 11159545785046487076
15076042 46 18048594021438765898
15309172 13 18336819883500864696
15502708 68 18411136926599431523
15775835 57 18200594820825296681
15852999 172 16373228314312095471
15906896 17 17841150266322567830
16945 1 18114452483056779246
19049666 15 17827633647975846501
21041028 32 17699297568386555448
21524375 3 18270675497298806290
21731228 192 18340766060755376712
22112679 90 16182162222719711238
2334 1 18264753510771394980
23388829 49 17688594183562568711
23419403 2 15223655792947679766
2748010 2 18048028580246005797
276578 36 18059867172176571265
31174 14 18265905657370849131
427121 178 17912681083016877811
430814 3 17917429851776985159
568465 68 18335415746917248992
576247 118 17337888027374735478
7364860 26 18129671789695858327
81228 2 17690262129737576270
84936 31 17488747761498805622

>  <PUBCHEM_SHAPE_MULTIPOLES>  (1) 
324.29
4.52
2.58
1.35
2.13
0.99
-0.11
-2.1
2.35
-1.15
-0.26
0.33
0.2
0.51

>  <PUBCHEM_SHAPE_SELFOVERLAP>  (1) 
697.003

>  <PUBCHEM_SHAPE_VOLUME>  (1) 
180.3

>  <PUBCHEM_COORDINATE_TYPE>  (1) 
2
5
10

$$$$
