40865
     RDKit          3D

 19 22  0  0  1  0  0  0  0  0999 V2000
   -0.7623    2.8180   -0.0680 O   0  0  0  0  0  0  0  0  0  0  0  0
    4.5336   -0.8081    0.2507 O   0  0  0  0  0  0  0  0  0  0  0  0
   -2.6896    0.0272    0.9132 N   0  0  0  0  0  0  0  0  0  0  0  0
   -2.6613    0.5065   -0.4795 C   0  0  0  0  0  0  0  0  0  0  0  0
   -1.1967    0.5644   -0.9397 C   0  0  0  0  0  0  0  0  0  0  0  0
   -2.4147   -1.4128    0.7666 C   0  0  0  0  0  0  0  0  0  0  0  0
   -0.3654   -0.7183   -0.6369 C   0  0  0  0  0  0  0  0  0  0  0  0
   -0.8973   -1.5395    0.5570 C   0  0  0  0  0  0  0  0  0  0  0  0
   -3.4198   -0.5678   -1.2670 C   0  0  0  0  0  0  0  0  0  0  0  0
   -3.2048   -1.8513   -0.4691 C   0  0  0  0  0  0  0  0  0  0  0  0
    1.0002   -0.1608   -0.3369 C   0  0  0  0  0  0  0  0  0  0  0  0
   -0.3863    1.6863   -0.3105 C   0  0  0  0  0  0  0  0  0  0  0  0
    0.9735    1.2105   -0.0954 C   0  0  0  0  0  0  0  0  0  0  0  0
   -3.9654    0.2890    1.5753 C   0  0  0  0  0  0  0  0  0  0  0  0
    2.1941   -0.8552   -0.2232 C   0  0  0  0  0  0  0  0  0  0  0  0
    2.0947    1.9340    0.2642 C   0  0  0  0  0  0  0  0  0  0  0  0
    3.3474   -0.1477    0.1322 C   0  0  0  0  0  0  0  0  0  0  0  0
    3.2970    1.2356    0.3763 C   0  0  0  0  0  0  0  0  0  0  0  0
    4.5232   -2.2101   -0.0092 C   0  0  0  0  0  0  0  0  0  0  0  0
  1 12  2  0
  2 17  1  0
  2 19  1  0
  3  4  1  0
  3  6  1  0
  3 14  1  0
  4  5  1  0
  4  9  1  0
  5  7  1  0
  5 12  1  0
  6  8  1  0
  6 10  1  0
  7  8  1  0
  7 11  1  0
  9 10  1  0
 11 13  2  0
 11 15  1  0
 12 13  1  0
 13 16  1  0
 15 17  2  0
 16 18  2  0
 17 18  1  0
M  END
>  <PUBCHEM_COMPOUND_CID>  (1) 
40865

>  <PUBCHEM_CONFORMER_RMSD>  (1) 
0.6

>  <PUBCHEM_CONFORMER_DIVERSEORDER>  (1) 
3
2
1
4

>  <PUBCHEM_MMFF94_PARTIAL_CHARGES>  (1) 
19
1 -0.57
11 -0.14
12 0.42
13 0.09
14 0.27
15 -0.15
16 -0.15
17 0.08
18 -0.15
19 0.28
2 -0.36
3 -0.81
33 0.15
34 0.15
35 0.15
4 0.27
5 0.06
6 0.27
7 0.14

>  <PUBCHEM_EFFECTIVE_ROTOR_COUNT>  (1) 
1.8

>  <PUBCHEM_PHARMACOPHORE_FEATURES>  (1) 
6
1 1 acceptor
1 2 acceptor
1 3 cation
5 5 7 11 12 13 rings
6 11 13 15 16 17 18 rings
8 3 4 5 6 7 8 9 10 rings

>  <PUBCHEM_HEAVY_ATOM_COUNT>  (1) 
19

>  <PUBCHEM_ATOM_DEF_STEREO_COUNT>  (1) 
2

>  <PUBCHEM_ATOM_UDEF_STEREO_COUNT>  (1) 
2

>  <PUBCHEM_BOND_DEF_STEREO_COUNT>  (1) 
0

>  <PUBCHEM_BOND_UDEF_STEREO_COUNT>  (1) 
0

>  <PUBCHEM_ISOTOPIC_ATOM_COUNT>  (1) 
0

>  <PUBCHEM_COMPONENT_COUNT>  (1) 
1

>  <PUBCHEM_CACTVS_TAUTO_COUNT>  (1) 
1

>  <PUBCHEM_CONFORMER_ID>  (1) 
00009FA100000003

>  <PUBCHEM_MMFF94_ENERGY>  (1) 
64.7486

>  <PUBCHEM_FEATURE_SELFOVERLAP>  (1) 
30.556

>  <PUBCHEM_SHAPE_FINGERPRINT>  (1) 
10062212 137 17989204867337828807
10618630 7 18408319999595194220
10967382 1 18194116541559200548
1100329 8 16822205992889820106
11132069 177 18410284839431812616
11578080 2 17058050455706895337
12032990 46 18408321111775407054
12236239 1 17988922289034363183
12251169 10 18272098179614451745
12553582 1 18335419028604689210
12633257 1 18201447938805957714
12714826 92 17313100852165554045
12892183 10 17916305107258602088
13140716 1 18411426136801744819
13296908 3 18187080697632924206
13533116 47 18200310051930553107
13571099 22 18262229018830228469
13583140 156 14261344726573404302
14115302 16 17894354371433456014
14790565 3 16468971364887722696
15196674 1 18410007766754317420
15209289 33 18261680289693151690
15309172 13 18272933838295052951
15375462 189 18186520986269727210
15375462 478 17846222223562090389
15442244 35 18413392046549424040
15848702 151 18059860532352693894
16752209 62 18042387063340563552
16945 1 18411140203611966653
17804303 29 18337397054291313862
1813 80 17603591837214357468
19591789 44 16899622611239425764
200 152 17988351685201404831
20281475 54 18409733988649158094
20645477 70 18335688477551547918
21267235 1 18410298029218713726
21501502 16 18341336707216332725
22721475 48 18409732867673275772
23175994 123 18113903753782403085
23184049 59 18341620338351086891
2334 1 18193277618171061870
23402539 116 18340759364822286439
23463225 33 18339080496640163044
23493267 7 16515677802269394149
23559900 14 18335410275777532564
2748010 2 18336818792431426820
3286 77 17274808203464722779
335352 9 18266736891929102637
5104073 3 18342174496617301890
6992083 37 18130790104890838591
8809292 202 18333169457736378234
9709674 26 18262232347588430458

>  <PUBCHEM_SHAPE_MULTIPOLES>  (1) 
374.29
7.61
2.29
1.04
4.06
0.46
0.11
-3.38
1.14
0.94
0.03
-1.11
-0.04
-0.02

>  <PUBCHEM_SHAPE_SELFOVERLAP>  (1) 
831.332

>  <PUBCHEM_SHAPE_VOLUME>  (1) 
202.8

>  <PUBCHEM_COORDINATE_TYPE>  (1) 
2
5
10

$$$$
