40860
     RDKit          3D

 18 19  0  0  0  0  0  0  0  0999 V2000
   -3.9352   -2.2381    0.0497 S   0  0  0  0  0  0  0  0  0  0  0  0
    2.5209   -0.2349   -0.0249 O   0  0  0  0  0  0  0  0  0  0  0  0
    6.0126   -0.0889   -0.0171 O   0  0  0  0  0  0  0  0  0  0  0  0
    4.6185   -1.7882   -0.0997 O   0  0  0  0  0  0  0  0  0  0  0  0
   -4.4281    2.4213   -0.0760 O   0  0  0  0  0  0  0  0  0  0  0  0
   -2.6463    0.0020   -0.0079 N   0  0  0  0  0  0  0  0  0  0  0  0
   -5.0522    0.1325   -0.0126 N   0  0  0  0  0  0  0  0  0  0  0  0
    4.8307   -0.5417   -0.0396 N   0  0  0  0  0  0  0  0  0  0  0  0
    1.6155    0.7772    0.0245 C   0  0  0  0  0  0  0  0  0  0  0  0
   -1.7455   -1.0239    0.0188 C   0  0  0  0  0  0  0  0  0  0  0  0
    0.2215    0.5401    0.0125 C   0  0  0  0  0  0  0  0  0  0  0  0
   -0.3389   -0.6954    0.0092 C   0  0  0  0  0  0  0  0  0  0  0  0
    2.2538    1.9941    0.0837 C   0  0  0  0  0  0  0  0  0  0  0  0
    3.7508    0.3421    0.0032 C   0  0  0  0  0  0  0  0  0  0  0  0
    3.6405    1.7115    0.0699 C   0  0  0  0  0  0  0  0  0  0  0  0
   -2.2212   -2.2982    0.0516 C   0  0  0  0  0  0  0  0  0  0  0  0
   -3.8507   -0.5247    0.0054 C   0  0  0  0  0  0  0  0  0  0  0  0
   -5.2468    1.5134   -0.0506 C   0  0  0  0  0  0  0  0  0  0  0  0
  1 16  1  0
  1 17  1  0
  2  9  1  0
  2 14  1  0
  3  8  1  0
  4  8  2  0
  5 18  2  0
  6 10  1  0
  6 17  2  0
  7 17  1  0
  7 18  1  0
  8 14  1  0
  9 11  1  0
  9 13  2  0
 10 12  1  0
 10 16  2  0
 11 12  2  0
 13 15  1  0
 14 15  2  0
M  CHG  2   3  -1   8   1
M  END
>  <PUBCHEM_COMPOUND_CID>  (1) 
40860

>  <PUBCHEM_CONFORMER_RMSD>  (1) 
0.6

>  <PUBCHEM_CONFORMER_DIVERSEORDER>  (1) 
1
11
20
2
15
9
5
6
23
26
19
4
7
22
10
18
21
24
8
14
25
16
3
27
17
13
12

>  <PUBCHEM_MMFF94_PARTIAL_CHARGES>  (1) 
25
1 -0.08
10 0.18
11 -0.11
12 -0.1
13 -0.15
14 0.22
15 -0.15
16 -0.11
17 0.44
18 0.57
19 0.15
2 -0.28
20 0.15
21 0.15
22 0.15
23 0.15
24 0.37
25 0.06
3 -0.52
4 -0.52
5 -0.57
6 -0.57
7 -0.49
8 0.96
9 0.09

>  <PUBCHEM_EFFECTIVE_ROTOR_COUNT>  (1) 
5

>  <PUBCHEM_PHARMACOPHORE_FEATURES>  (1) 
8
1 2 acceptor
1 3 acceptor
1 3 anion
1 4 acceptor
1 5 acceptor
1 7 donor
5 1 6 10 16 17 rings
5 2 9 13 14 15 rings

>  <PUBCHEM_HEAVY_ATOM_COUNT>  (1) 
18

>  <PUBCHEM_ATOM_DEF_STEREO_COUNT>  (1) 
0

>  <PUBCHEM_ATOM_UDEF_STEREO_COUNT>  (1) 
0

>  <PUBCHEM_BOND_DEF_STEREO_COUNT>  (1) 
0

>  <PUBCHEM_BOND_UDEF_STEREO_COUNT>  (1) 
1

>  <PUBCHEM_ISOTOPIC_ATOM_COUNT>  (1) 
0

>  <PUBCHEM_COMPONENT_COUNT>  (1) 
1

>  <PUBCHEM_CACTVS_TAUTO_COUNT>  (1) 
3

>  <PUBCHEM_CONFORMER_ID>  (1) 
00009F9C00000001

>  <PUBCHEM_MMFF94_ENERGY>  (1) 
25.4709

>  <PUBCHEM_FEATURE_SELFOVERLAP>  (1) 
40.688

>  <PUBCHEM_SHAPE_FINGERPRINT>  (1) 
11405975 8 18408602595199517200
12107183 9 18120087290954448811
13073987 5 18337107981174552330
13167823 11 18337951306582968011
13675066 3 18130503136476850290
14251731 8 18412265025555844876
14251732 17 18272090461637283991
15042514 8 18120097436617527403
15183329 4 18410292488699904003
15196674 1 18338799017141469184
15531645 54 18411700950226059501
17834072 8 18410572877139585757
17844677 252 18337117876890101785
18186145 218 17677039256730707234
200 152 17989487454394454067
20645477 56 18408888426064272119
20645477 70 18340771537366517982
20832881 197 18334011658263815490
21065198 57 18338797939109978667
21065199 12 18267584800114439763
21267235 1 18336553819183563643
21279426 13 18195529190309237263
2215653 11 18272934895104901854
2306618 200 18201730595732176819
23218964 4 18408884014404956244
23402539 116 18201995534678667581
23402655 69 18336828684147284660
23559900 14 18271522082950987760
3004659 81 18260833666557473910
32948 21 18409169917667204452
335352 9 18410855430068665908
3545911 37 18412546509533894795
4073 2 18041846233043944490
4214541 1 18410856585752549673
4463277 17 18410294731559296244
5104073 3 18338516446974531200
5207 123 18129107727868309542
532947 4 18128826248212185479
543358 83 18335420136764228378
559249 180 18411133628033373794
56616090 46 18337394838172806223
59124914 9 18266177241186064081
59755656 520 18259978276623353639
6328613 192 18334020510091672892
633830 44 17531526589291454706
6430166 295 18410854356717335537
77779 3 18337391659480054571
90127 26 18187933931551738073
9709674 26 18118969336800861658
9995097 60 18341891892137927604

>  <PUBCHEM_SHAPE_MULTIPOLES>  (1) 
335.86
13.2
2.4
0.59
4.33
0.13
0.01
0.94
-0.21
-2.06
0
-0.06
-0.01
0.21

>  <PUBCHEM_SHAPE_SELFOVERLAP>  (1) 
706.734

>  <PUBCHEM_SHAPE_VOLUME>  (1) 
190.6

>  <PUBCHEM_COORDINATE_TYPE>  (1) 
2
5
10

$$$$
