40875
     RDKit          3D

 18 21  0  0  1  0  0  0  0  0999 V2000
    4.9453    0.4069    0.5593 F   0  0  0  0  0  0  0  0  0  0  0  0
    0.1557    2.5812   -0.2340 O   0  0  0  0  0  0  0  0  0  0  0  0
   -2.3938    0.4289    0.9196 N   0  0  0  0  0  0  0  0  0  0  0  0
   -2.2764    0.8109   -0.4984 C   0  0  0  0  0  0  0  0  0  0  0  0
   -0.8557    0.4700   -0.9733 C   0  0  0  0  0  0  0  0  0  0  0  0
   -2.4967   -1.0393    0.8527 C   0  0  0  0  0  0  0  0  0  0  0  0
   -0.3704   -0.9642   -0.6052 C   0  0  0  0  0  0  0  0  0  0  0  0
   -1.0663   -1.5591    0.6375 C   0  0  0  0  0  0  0  0  0  0  0  0
   -3.3000   -0.0752   -1.2171 C   0  0  0  0  0  0  0  0  0  0  0  0
   -3.4000   -1.3269   -0.3492 C   0  0  0  0  0  0  0  0  0  0  0  0
    1.0983   -0.7578   -0.3487 C   0  0  0  0  0  0  0  0  0  0  0  0
    0.2268    1.3802   -0.4154 C   0  0  0  0  0  0  0  0  0  0  0  0
    1.4261    0.5860   -0.1852 C   0  0  0  0  0  0  0  0  0  0  0  0
   -3.5461    1.0413    1.5763 C   0  0  0  0  0  0  0  0  0  0  0  0
    2.0794   -1.7264   -0.2057 C   0  0  0  0  0  0  0  0  0  0  0  0
    2.7020    1.0180    0.1232 C   0  0  0  0  0  0  0  0  0  0  0  0
    3.3821   -1.3181    0.0991 C   0  0  0  0  0  0  0  0  0  0  0  0
    3.6898    0.0435    0.2646 C   0  0  0  0  0  0  0  0  0  0  0  0
  1 18  1  0
  2 12  2  0
  3  4  1  0
  3  6  1  0
  3 14  1  0
  4  5  1  0
  4  9  1  0
  5  7  1  0
  5 12  1  0
  6  8  1  0
  6 10  1  0
  7  8  1  0
  7 11  1  0
  9 10  1  0
 11 13  2  0
 11 15  1  0
 12 13  1  0
 13 16  1  0
 15 17  2  0
 16 18  2  0
 17 18  1  0
M  END
>  <PUBCHEM_COMPOUND_CID>  (1) 
40875

>  <PUBCHEM_CONFORMER_RMSD>  (1) 
0.6

>  <PUBCHEM_CONFORMER_DIVERSEORDER>  (1) 
2
1

>  <PUBCHEM_MMFF94_PARTIAL_CHARGES>  (1) 
18
1 -0.19
11 -0.14
12 0.42
13 0.09
14 0.27
15 -0.15
16 -0.15
17 -0.15
18 0.19
2 -0.57
3 -0.81
32 0.15
33 0.15
34 0.15
4 0.27
5 0.06
6 0.27
7 0.14

>  <PUBCHEM_EFFECTIVE_ROTOR_COUNT>  (1) 
0.8

>  <PUBCHEM_PHARMACOPHORE_FEATURES>  (1) 
5
1 2 acceptor
1 3 cation
5 5 7 11 12 13 rings
6 11 13 15 16 17 18 rings
8 3 4 5 6 7 8 9 10 rings

>  <PUBCHEM_HEAVY_ATOM_COUNT>  (1) 
18

>  <PUBCHEM_ATOM_DEF_STEREO_COUNT>  (1) 
2

>  <PUBCHEM_ATOM_UDEF_STEREO_COUNT>  (1) 
2

>  <PUBCHEM_BOND_DEF_STEREO_COUNT>  (1) 
0

>  <PUBCHEM_BOND_UDEF_STEREO_COUNT>  (1) 
0

>  <PUBCHEM_ISOTOPIC_ATOM_COUNT>  (1) 
0

>  <PUBCHEM_COMPONENT_COUNT>  (1) 
1

>  <PUBCHEM_CACTVS_TAUTO_COUNT>  (1) 
1

>  <PUBCHEM_CONFORMER_ID>  (1) 
00009FAB00000002

>  <PUBCHEM_MMFF94_ENERGY>  (1) 
50.4044

>  <PUBCHEM_FEATURE_SELFOVERLAP>  (1) 
25.481

>  <PUBCHEM_SHAPE_FINGERPRINT>  (1) 
10967382 1 18337106860504761486
11132069 177 18408038498627042654
11578080 2 17128414771794473497
12011746 2 18410007762564975366
12236239 1 17846776300244927679
12251169 10 18411429418415091811
12382932 28 18409168800880651482
124424 183 17894904152742730374
12491281 212 17989211421273033491
12553582 1 18334870406514370340
13140716 1 18264775535316294056
13172582 1 18335712628062696391
13214271 11 18411411821818094126
13296908 3 17676490535866774506
13583140 156 14476381687395400694
14144814 61 18411982459641779110
14178342 30 18340498828032975651
14289901 80 16558746814948211342
14790565 3 18265906941883432684
15196674 1 18409726244891812030
15209294 21 18060426784993268329
15219456 202 18336262362554917206
15309172 13 18342738520128125118
15375358 24 18260256434966998206
15375462 189 17894633634459635930
15375462 478 17989490744671549805
15653759 3 17240489104256573475
15848702 151 17846222094718853446
16945 1 18187374237193881613
17844478 74 17967818214872954508
18186145 218 18339929216579925446
19591789 44 17108486402734909164
19862831 5 11386362638681454822
200 152 18130496526970743855
20201158 50 18333446543119440238
20279233 1 18040149608712606158
21267235 1 18409736187535698782
21501502 16 18189909796980718869
21637258 2 14924235970754689073
22721475 48 18259991486918914966
22854114 59 18342171193892809058
23184049 59 18411708651176391123
2334 1 18409171029852802495
23402539 116 18201711890864889287
23463225 33 18408040727931288732
23493267 7 16226609559534046221
23557571 272 14692576537404241241
23559900 14 18189043219237378730
2748010 2 18119810201244868292
296302 2 18413108355390642154
3286 77 17489288794360403802
34934 24 18335974285949644039
5104073 3 18412823564931632698
568465 68 17459495332124881177
81228 2 18044665195699396356
8809292 202 18187368692644680202
9709674 26 18408040697835382294

>  <PUBCHEM_SHAPE_MULTIPOLES>  (1) 
352.31
6.94
1.87
1.08
3.65
0.28
0.13
-0.38
1.43
0.07
0.03
-1.01
0.1
-0.15

>  <PUBCHEM_SHAPE_SELFOVERLAP>  (1) 
789.795

>  <PUBCHEM_SHAPE_VOLUME>  (1) 
189.2

>  <PUBCHEM_COORDINATE_TYPE>  (1) 
2
5
10

$$$$
