40888
     RDKit          3D

 12 12  0  0  1  0  0  0  0  0999 V2000
   -1.9081    0.3306    0.2460 N   0  0  0  0  0  0  0  0  0  0  0  0
   -0.9601   -0.2683   -0.7829 C   0  0  0  0  0  0  0  0  0  0  0  0
   -1.6149    1.8158    0.4022 C   0  0  0  0  0  0  0  0  0  0  0  0
   -3.3451    0.1433   -0.2189 C   0  0  0  0  0  0  0  0  0  0  0  0
   -1.7125   -0.3684    1.5837 C   0  0  0  0  0  0  0  0  0  0  0  0
    0.4924   -0.1218   -0.3924 C   0  0  0  0  0  0  0  0  0  0  0  0
   -1.3644   -1.7226   -1.0104 C   0  0  0  0  0  0  0  0  0  0  0  0
    1.1760    1.0304   -0.7442 C   0  0  0  0  0  0  0  0  0  0  0  0
    1.1119   -1.1428    0.3092 C   0  0  0  0  0  0  0  0  0  0  0  0
    2.5169    1.1655   -0.3841 C   0  0  0  0  0  0  0  0  0  0  0  0
    2.4527   -1.0079    0.6693 C   0  0  0  0  0  0  0  0  0  0  0  0
    3.1552    0.1462    0.3226 C   0  0  0  0  0  0  0  0  0  0  0  0
  1  2  1  0
  1  3  1  0
  1  4  1  0
  1  5  1  0
  2  6  1  0
  2  7  1  0
  6  8  2  0
  6  9  1  0
  8 10  1  0
  9 11  2  0
 10 12  2  0
 11 12  1  0
M  CHG  1   1   1
M  END
>  <PUBCHEM_COMPOUND_CID>  (1) 
40888

>  <PUBCHEM_CONFORMER_RMSD>  (1) 
0.6

>  <PUBCHEM_CONFORMER_DIVERSEORDER>  (1) 
1

>  <PUBCHEM_MMFF94_PARTIAL_CHARGES>  (1) 
16
1 -1.01
10 -0.15
11 -0.15
12 -0.15
2 0.65
26 0.15
27 0.15
28 0.15
29 0.15
3 0.5
30 0.15
4 0.5
5 0.5
6 -0.14
8 -0.15
9 -0.15

>  <PUBCHEM_EFFECTIVE_ROTOR_COUNT>  (1) 
2

>  <PUBCHEM_PHARMACOPHORE_FEATURES>  (1) 
2
1 1 cation
6 6 8 9 10 11 12 rings

>  <PUBCHEM_HEAVY_ATOM_COUNT>  (1) 
12

>  <PUBCHEM_ATOM_DEF_STEREO_COUNT>  (1) 
0

>  <PUBCHEM_ATOM_UDEF_STEREO_COUNT>  (1) 
1

>  <PUBCHEM_BOND_DEF_STEREO_COUNT>  (1) 
0

>  <PUBCHEM_BOND_UDEF_STEREO_COUNT>  (1) 
0

>  <PUBCHEM_ISOTOPIC_ATOM_COUNT>  (1) 
0

>  <PUBCHEM_COMPONENT_COUNT>  (1) 
1

>  <PUBCHEM_CACTVS_TAUTO_COUNT>  (1) 
1

>  <PUBCHEM_CONFORMER_ID>  (1) 
00009FB800000001

>  <PUBCHEM_MMFF94_ENERGY>  (1) 
51.0281

>  <PUBCHEM_FEATURE_SELFOVERLAP>  (1) 
10.148

>  <PUBCHEM_SHAPE_FINGERPRINT>  (1) 
12696612 119 18187372034150095204
12932764 1 18343024423495432720
13024252 1 17603581945967925887
13538477 17 18342169011722518191
13764800 53 16773250577255751499
13839132 238 16199883760193479888
14993402 34 18342454833248174621
15076042 46 18339085890955394041
15775835 57 18272373096028577264
16945 1 18342744017722803876
20201158 50 17603302635364679858
21028194 46 17561081363003861878
22445834 79 18335414630394459322
22802520 49 14116978828260523432
23236772 104 18338791346425057962
23402539 116 17561070398237348013
23557571 272 16628548348854793238
2748010 2 17979919306704193188
29004967 10 17530683195469984740
3248919 1 17603585252945102764
369184 2 17749105599643260929
5084963 1 17488470684705352983
63268167 104 18261385650715304156
8030462 33 18334021587779797604

>  <PUBCHEM_SHAPE_MULTIPOLES>  (1) 
241.97
4.64
1.58
1.11
0.41
0.1
0.2
0.48
0.47
-0.13
-0.14
-0.37
-0.2
-0.57

>  <PUBCHEM_SHAPE_SELFOVERLAP>  (1) 
487.045

>  <PUBCHEM_SHAPE_VOLUME>  (1) 
144

>  <PUBCHEM_COORDINATE_TYPE>  (1) 
2
5
10

$$$$
