40895
     RDKit          3D

  7  6  0  0  1  0  0  0  0  0999 V2000
    0.6218    1.3911    0.2609 O   0  0  0  0  0  0  0  0  0  0  0  0
   -1.8978    0.2470   -0.3179 O   0  0  0  0  0  0  0  0  0  0  0  0
    0.5106    0.0729   -0.2752 C   0  0  0  0  0  0  0  0  0  0  0  0
    1.6956   -0.7611    0.2152 C   0  0  0  0  0  0  0  0  0  0  0  0
   -0.8149   -0.5306    0.1818 C   0  0  0  0  0  0  0  0  0  0  0  0
    3.0344   -0.1449   -0.1692 C   0  0  0  0  0  0  0  0  0  0  0  0
   -3.1497   -0.2744    0.1043 C   0  0  0  0  0  0  0  0  0  0  0  0
  1  3  1  0
  2  5  1  0
  2  7  1  0
  3  4  1  0
  3  5  1  0
  4  6  1  0
M  END
>  <PUBCHEM_COMPOUND_CID>  (1) 
40895

>  <PUBCHEM_CONFORMER_RMSD>  (1) 
0.4

>  <PUBCHEM_CONFORMER_DIVERSEORDER>  (1) 
1
29
27
23
28
7
31
19
14
26
10
11
9
25
18
21
30
17
24
6
3
4
5
15
2
20
12
22
13
8
16

>  <PUBCHEM_MMFF94_PARTIAL_CHARGES>  (1) 
6
1 -0.68
16 0.4
2 -0.56
3 0.28
5 0.28
7 0.28

>  <PUBCHEM_EFFECTIVE_ROTOR_COUNT>  (1) 
3

>  <PUBCHEM_PHARMACOPHORE_FEATURES>  (1) 
4
1 1 acceptor
1 1 donor
1 2 acceptor
1 6 hydrophobe

>  <PUBCHEM_HEAVY_ATOM_COUNT>  (1) 
7

>  <PUBCHEM_ATOM_DEF_STEREO_COUNT>  (1) 
0

>  <PUBCHEM_ATOM_UDEF_STEREO_COUNT>  (1) 
1

>  <PUBCHEM_BOND_DEF_STEREO_COUNT>  (1) 
0

>  <PUBCHEM_BOND_UDEF_STEREO_COUNT>  (1) 
0

>  <PUBCHEM_ISOTOPIC_ATOM_COUNT>  (1) 
0

>  <PUBCHEM_COMPONENT_COUNT>  (1) 
1

>  <PUBCHEM_CACTVS_TAUTO_COUNT>  (1) 
1

>  <PUBCHEM_CONFORMER_ID>  (1) 
00009FBF00000001

>  <PUBCHEM_MMFF94_ENERGY>  (1) 
9.5921

>  <PUBCHEM_FEATURE_SELFOVERLAP>  (1) 
20.3

>  <PUBCHEM_SHAPE_FINGERPRINT>  (1) 
11062470 55 17560801026235650203
16714656 1 18343301440206387006
29004967 10 18412265021324291586
5460574 1 10592042457585010855

>  <PUBCHEM_SHAPE_MULTIPOLES>  (1) 
132.32
4.6
0.96
0.64
1.17
0.2
0
-0.6
0.13
-0.2
-0.09
-0.02
-0.01
0.03

>  <PUBCHEM_SHAPE_SELFOVERLAP>  (1) 
230.583

>  <PUBCHEM_SHAPE_VOLUME>  (1) 
88.6

>  <PUBCHEM_COORDINATE_TYPE>  (1) 
2
5
10

$$$$
