40905
     RDKit          3D

 20 21  0  0  0  0  0  0  0  0999 V2000
    0.1605    0.8057    0.9351 O   0  0  0  0  0  0  0  0  0  0  0  0
   -2.8311   -1.2613   -0.9488 O   0  0  0  0  0  0  0  0  0  0  0  0
    3.5335   -0.0431   -0.2850 N   0  0  0  0  0  0  0  0  0  0  0  0
   -2.7707   -2.6414   -0.7975 N   0  0  0  0  0  0  0  0  0  0  0  0
    2.2586   -0.2162    0.4107 C   0  0  0  0  0  0  0  0  0  0  0  0
    4.3454   -1.2542   -0.1726 C   0  0  0  0  0  0  0  0  0  0  0  0
    4.2567    1.1088    0.2522 C   0  0  0  0  0  0  0  0  0  0  0  0
    1.3924    1.0242    0.2602 C   0  0  0  0  0  0  0  0  0  0  0  0
    3.6239   -2.4445   -0.7165 C   0  0  0  0  0  0  0  0  0  0  0  0
    5.5355    1.3395   -0.4854 C   0  0  0  0  0  0  0  0  0  0  0  0
   -0.9375    1.4637    0.4456 C   0  0  0  0  0  0  0  0  0  0  0  0
   -2.0497    0.7622   -0.0094 C   0  0  0  0  0  0  0  0  0  0  0  0
   -2.0837   -0.6818    0.0189 C   0  0  0  0  0  0  0  0  0  0  0  0
   -0.9186    2.8550    0.4125 C   0  0  0  0  0  0  0  0  0  0  0  0
   -3.1536    1.4583   -0.5020 C   0  0  0  0  0  0  0  0  0  0  0  0
   -2.0224    3.5511   -0.0800 C   0  0  0  0  0  0  0  0  0  0  0  0
   -3.1398    2.8528   -0.5373 C   0  0  0  0  0  0  0  0  0  0  0  0
   -1.5217   -1.6321    0.8174 C   0  0  0  0  0  0  0  0  0  0  0  0
   -1.9832   -2.8387    0.2635 C   0  0  0  0  0  0  0  0  0  0  0  0
   -1.6945   -4.2081    0.7184 C   0  0  0  0  0  0  0  0  0  0  0  0
  1  8  1  0
  1 11  1  0
  2  4  1  0
  2 13  1  0
  3  5  1  0
  3  6  1  0
  3  7  1  0
  4 19  2  0
  5  8  1  0
  6  9  1  0
  7 10  1  0
 11 12  2  0
 11 14  1  0
 12 13  1  0
 12 15  1  0
 13 18  2  0
 14 16  2  0
 15 17  2  0
 16 17  1  0
 18 19  1  0
 19 20  1  0
M  END
>  <PUBCHEM_COMPOUND_CID>  (1) 
40905

>  <PUBCHEM_CONFORMER_RMSD>  (1) 
0.8

>  <PUBCHEM_CONFORMER_DIVERSEORDER>  (1) 
1
125
157
35
89
44
123
29
81
17
70
146
90
113
74
164
114
16
95
100
91
103
2
112
65
155
68
133
98
51
117
43
145
19
83
56
136
31
107
105
132
18
159
137
11
80
48
122
59
130
53
10
86
151
104
37
27
63
25
61
165
28
147
64
71
148
77
134
40
124
92
30
54
24
129
15
111
23
162
82
126
131
97
21
75
58
106
120
141
5
42
72
142
7
36
109
41
32
66
99
158
9
78
139
79
84
115
12
34
118
85
163
119
88
116
108
102
94
87
76
127
62
128
13
93
8
33
50
38
101
161
4
150
69
60
96
149
73
47
121
26
110
22
138
14
3
160
6
45
166
20
46
49
67
39
143
154
152
156
55
144
140
135
52
153
167
57

>  <PUBCHEM_MMFF94_PARTIAL_CHARGES>  (1) 
23
1 -0.36
11 0.08
12 0.05
13 0.09
14 -0.15
15 -0.15
16 -0.15
17 -0.15
18 -0.15
19 0.11
2 -0.02
20 0.18
3 -0.81
35 0.15
36 0.15
37 0.15
38 0.15
39 0.15
4 -0.41
5 0.27
6 0.27
7 0.27
8 0.28

>  <PUBCHEM_EFFECTIVE_ROTOR_COUNT>  (1) 
7

>  <PUBCHEM_PHARMACOPHORE_FEATURES>  (1) 
5
1 1 acceptor
1 3 cation
1 4 acceptor
5 2 4 13 18 19 rings
6 11 12 14 15 16 17 rings

>  <PUBCHEM_HEAVY_ATOM_COUNT>  (1) 
20

>  <PUBCHEM_ATOM_DEF_STEREO_COUNT>  (1) 
0

>  <PUBCHEM_ATOM_UDEF_STEREO_COUNT>  (1) 
0

>  <PUBCHEM_BOND_DEF_STEREO_COUNT>  (1) 
0

>  <PUBCHEM_BOND_UDEF_STEREO_COUNT>  (1) 
0

>  <PUBCHEM_ISOTOPIC_ATOM_COUNT>  (1) 
0

>  <PUBCHEM_COMPONENT_COUNT>  (1) 
1

>  <PUBCHEM_CACTVS_TAUTO_COUNT>  (1) 
1

>  <PUBCHEM_CONFORMER_ID>  (1) 
00009FC900000001

>  <PUBCHEM_MMFF94_ENERGY>  (1) 
44.9627

>  <PUBCHEM_FEATURE_SELFOVERLAP>  (1) 
25.372

>  <PUBCHEM_SHAPE_FINGERPRINT>  (1) 
10616163 171 18412829109823874062
10693767 8 17986361539491767255
107951 10 18267590104605064839
11370993 70 18194961842657399270
12173636 292 18264764359516302709
12553582 1 18193549193411991115
12592029 89 17833273017439689385
12788726 201 18336254730276739227
13631057 29 18270684306846293092
138480 1 16680627361070306323
14251757 5 18409168852256670139
14363568 33 17183079470412155322
14790565 3 18196658393553319977
15463212 79 18114174203472719392
167882 2 17254833075428990501
17859628 97 17832144922520078874
19591789 44 18339078195086156233
20871999 31 18411409631516979669
21618674 54 18411138031102332724
21665056 4 18265616481153851195
22849339 104 18268170685425850510
23557571 272 18342746251449079028
23558518 356 18187374242074586770
23559900 14 18271800165335992728
23728640 28 18336827485593018043
3421961 26 17545887491409679515
5309563 4 17906174305878940146
532947 4 17475798649849782054
6138700 20 17259345466818018958
81228 2 18267290101503384041
9709674 26 18342177735339159998

>  <PUBCHEM_SHAPE_MULTIPOLES>  (1) 
389.89
8.63
4.88
0.86
14.29
2.71
0.01
-1.58
2.03
-4.8
-0.21
-0.15
0.19
0.54

>  <PUBCHEM_SHAPE_SELFOVERLAP>  (1) 
809.668

>  <PUBCHEM_SHAPE_VOLUME>  (1) 
226.1

>  <PUBCHEM_COORDINATE_TYPE>  (1) 
2
5
10

$$$$
