40916
     RDKit          3D

 29 32  0  0  0  0  0  0  0  0999 V2000
    2.7383   -0.8127    1.6936 S   0  0  0  0  0  0  0  0  0  0  0  0
   -2.7378   -0.8030   -1.6976 S   0  0  0  0  0  0  0  0  0  0  0  0
    0.0005    2.5010    0.0074 O   0  0  0  0  0  0  0  0  0  0  0  0
    3.0510   -2.2063    1.9915 O   0  0  0  0  0  0  0  0  0  0  0  0
    2.6002    0.1424    2.7863 O   0  0  0  0  0  0  0  0  0  0  0  0
   -3.0502   -2.1949   -2.0036 O   0  0  0  0  0  0  0  0  0  0  0  0
   -2.5992    0.1583   -2.7849 O   0  0  0  0  0  0  0  0  0  0  0  0
    0.9754    1.7238    0.6093 N   0  0  0  0  0  0  0  0  0  0  0  0
   -0.9745    1.7274   -0.5986 N   0  0  0  0  0  0  0  0  0  0  0  0
    1.2596   -0.7375    0.7788 C   0  0  0  0  0  0  0  0  0  0  0  0
   -1.2595   -0.7327   -0.7817 C   0  0  0  0  0  0  0  0  0  0  0  0
    0.6199    0.4524    0.3857 C   0  0  0  0  0  0  0  0  0  0  0  0
   -0.6194    0.4548   -0.3820 C   0  0  0  0  0  0  0  0  0  0  0  0
    0.6034   -1.9124    0.3691 C   0  0  0  0  0  0  0  0  0  0  0  0
   -0.6036   -1.9101   -0.3785 C   0  0  0  0  0  0  0  0  0  0  0  0
    4.0724   -0.2587    0.6629 C   0  0  0  0  0  0  0  0  0  0  0  0
   -4.0724   -0.2549   -0.6646 C   0  0  0  0  0  0  0  0  0  0  0  0
    4.3983    1.0831    0.6539 C   0  0  0  0  0  0  0  0  0  0  0  0
   -4.3984    1.0868   -0.6482 C   0  0  0  0  0  0  0  0  0  0  0  0
    4.7524   -1.1830   -0.1049 C   0  0  0  0  0  0  0  0  0  0  0  0
   -4.7528   -1.1836    0.0977 C   0  0  0  0  0  0  0  0  0  0  0  0
    6.1486    0.6029   -0.9405 C   0  0  0  0  0  0  0  0  0  0  0  0
   -6.1495    0.5974    0.9426 C   0  0  0  0  0  0  0  0  0  0  0  0
    5.4471    1.5184   -0.1562 C   0  0  0  0  0  0  0  0  0  0  0  0
   -5.4477    1.5174    0.1638 C   0  0  0  0  0  0  0  0  0  0  0  0
    5.8013   -0.7479   -0.9149 C   0  0  0  0  0  0  0  0  0  0  0  0
   -5.8021   -0.7532    0.9096 C   0  0  0  0  0  0  0  0  0  0  0  0
    7.2710    1.0677   -1.8056 C   0  0  0  0  0  0  0  0  0  0  0  0
   -7.2724    1.0573    1.8097 C   0  0  0  0  0  0  0  0  0  0  0  0
  1  4  2  0
  1  5  2  0
  1 10  1  0
  1 16  1  0
  2  6  2  0
  2  7  2  0
  2 11  1  0
  2 17  1  0
  3  8  1  0
  3  9  1  0
  8 12  2  0
  9 13  2  0
 10 12  1  0
 10 14  2  0
 11 13  1  0
 11 15  2  0
 12 13  1  0
 14 15  1  0
 16 18  2  0
 16 20  1  0
 17 19  2  0
 17 21  1  0
 18 24  1  0
 19 25  1  0
 20 26  2  0
 21 27  2  0
 22 24  2  0
 22 26  1  0
 22 28  1  0
 23 25  2  0
 23 27  1  0
 23 29  1  0
M  END
>  <PUBCHEM_COMPOUND_CID>  (1) 
40916

>  <PUBCHEM_CONFORMER_RMSD>  (1) 
0.8

>  <PUBCHEM_CONFORMER_DIVERSEORDER>  (1) 
1
5
4
2
3

>  <PUBCHEM_MMFF94_PARTIAL_CHARGES>  (1) 
39
1 1.32
10 -0.01
11 -0.01
12 0.29
13 0.29
14 -0.15
15 -0.15
16 -0.01
17 -0.01
18 -0.15
19 -0.15
2 1.32
20 -0.15
21 -0.15
22 -0.14
23 -0.14
24 -0.15
25 -0.15
26 -0.15
27 -0.15
28 0.14
29 0.14
3 0.24
30 0.15
31 0.15
32 0.15
33 0.15
34 0.15
35 0.15
36 0.15
37 0.15
38 0.15
39 0.15
4 -0.65
5 -0.65
6 -0.65
7 -0.65
8 -0.41
9 -0.41

>  <PUBCHEM_EFFECTIVE_ROTOR_COUNT>  (1) 
4

>  <PUBCHEM_PHARMACOPHORE_FEATURES>  (1) 
10
1 4 acceptor
1 5 acceptor
1 6 acceptor
1 7 acceptor
1 8 acceptor
1 9 acceptor
5 3 8 9 12 13 rings
6 10 11 12 13 14 15 rings
6 16 18 20 22 24 26 rings
6 17 19 21 23 25 27 rings

>  <PUBCHEM_HEAVY_ATOM_COUNT>  (1) 
29

>  <PUBCHEM_ATOM_DEF_STEREO_COUNT>  (1) 
0

>  <PUBCHEM_ATOM_UDEF_STEREO_COUNT>  (1) 
0

>  <PUBCHEM_BOND_DEF_STEREO_COUNT>  (1) 
0

>  <PUBCHEM_BOND_UDEF_STEREO_COUNT>  (1) 
0

>  <PUBCHEM_ISOTOPIC_ATOM_COUNT>  (1) 
0

>  <PUBCHEM_COMPONENT_COUNT>  (1) 
1

>  <PUBCHEM_CACTVS_TAUTO_COUNT>  (1) 
1

>  <PUBCHEM_CONFORMER_ID>  (1) 
00009FD400000001

>  <PUBCHEM_MMFF94_ENERGY>  (1) 
52.7547

>  <PUBCHEM_FEATURE_SELFOVERLAP>  (1) 
50.96

>  <PUBCHEM_SHAPE_FINGERPRINT>  (1) 
10674148 151 17988931063763247368
10930396 42 9510609992974817414
11135609 201 16516251863867855996
11545043 162 16199862989969292751
11796584 16 16128372709993286022
12166972 35 16845001429482873857
12616971 3 18188752990837770162
12730499 353 17312822659134896490
12788726 201 18271524200280427936
13782708 43 14057546909544617592
13914758 101 12319465363600486823
14251758 9 17060616702760203295
14787075 74 17603578638579559283
14790565 3 18410854360616878305
14840074 17 18409449172166948189
14856354 85 18409452526911180183
14955137 171 18410860979509641069
15142383 8 15482670161448933976
15183329 4 15841557357418328754
15188451 53 9079121038129879686
15475509 8 18060430105298568724
15537594 2 18408876339267029139
15685185 35 17388840835901323436
15788980 27 12679178357780518355
1601671 61 18272928323530508499
18470217 77 13955907414370411288
19319366 153 17749096795298714146
19377110 9 15719108058879061642
20567600 234 13479141215729561966
21033648 29 17275090752690160283
21315764 119 17131843070735134148
22149856 69 15430324560213236705
22950370 63 18410848867358910030
23559900 14 15697709411219759490
24180151 248 18126018061449551646
2838139 119 13038905513354137259
34797466 226 16009039366956008718
4258327 124 15720542978363882990
4325135 7 15791451534487947875
4340502 62 16153708713197573322
437795 51 17894639170588272792
437815 12 15267347318897769112
4938544 92 16950561031535622005
53794403 172 17532946119740409572
59682541 35 15575005004059618580
59755656 215 16415205533250165545
6328613 192 17846782931242189073
633830 44 17345169251150929238
6394761 36 15697726925663739132
6913067 236 8142094164585101786
7226269 152 17060625494985779905
8988823 20 9079106761822533666

>  <PUBCHEM_SHAPE_MULTIPOLES>  (1) 
565.2
17.79
2.07
1.97
0.01
0.06
0
-5.35
0.01
-0.01
0
0.01
0.36
-1.77

>  <PUBCHEM_SHAPE_SELFOVERLAP>  (1) 
1216.136

>  <PUBCHEM_SHAPE_VOLUME>  (1) 
311.7

>  <PUBCHEM_COORDINATE_TYPE>  (1) 
2
5
10

$$$$
