40914
     RDKit          3D

 24 25  0  0  1  0  0  0  0  0999 V2000
    1.1035    0.3397    2.0884 O   0  0  0  0  0  0  0  0  0  0  0  0
    4.8228   -1.3410    0.0112 O   0  0  0  0  0  0  0  0  0  0  0  0
   -4.1510   -0.5684   -1.0671 O   0  0  0  0  0  0  0  0  0  0  0  0
    2.9040   -0.5765    1.0217 N   0  0  0  0  0  0  0  0  0  0  0  0
   -0.2176    4.3303   -0.0711 N   0  0  0  0  0  0  0  0  0  0  0  0
    0.6862   -0.5747   -0.1372 C   0  0  0  0  0  0  0  0  0  0  0  0
    1.3186   -1.7814   -0.9523 C   0  0  0  0  0  0  0  0  0  0  0  0
    0.7576    0.7665   -0.9304 C   0  0  0  0  0  0  0  0  0  0  0  0
    2.8010   -1.4771   -1.2568 C   0  0  0  0  0  0  0  0  0  0  0  0
   -0.7759   -0.8773    0.2811 C   0  0  0  0  0  0  0  0  0  0  0  0
    1.5534   -0.2528    1.1041 C   0  0  0  0  0  0  0  0  0  0  0  0
    1.2509   -3.1306   -0.1886 C   0  0  0  0  0  0  0  0  0  0  0  0
    0.6186   -2.0152   -2.3137 C   0  0  0  0  0  0  0  0  0  0  0  0
    0.2178    1.9184   -0.0947 C   0  0  0  0  0  0  0  0  0  0  0  0
    3.6071   -1.1509   -0.0264 C   0  0  0  0  0  0  0  0  0  0  0  0
    0.3193    3.2328   -0.8668 C   0  0  0  0  0  0  0  0  0  0  0  0
   -1.8115   -0.5810   -0.5937 C   0  0  0  0  0  0  0  0  0  0  0  0
   -1.0278   -1.4407    1.5240 C   0  0  0  0  0  0  0  0  0  0  0  0
   -3.1268   -0.8539   -0.2176 C   0  0  0  0  0  0  0  0  0  0  0  0
   -2.3428   -1.7136    1.9000 C   0  0  0  0  0  0  0  0  0  0  0  0
   -3.3923   -1.4203    1.0293 C   0  0  0  0  0  0  0  0  0  0  0  0
   -0.1538    5.5878   -0.8181 C   0  0  0  0  0  0  0  0  0  0  0  0
    0.5093    4.4539    1.1936 C   0  0  0  0  0  0  0  0  0  0  0  0
   -5.4707   -0.8740   -0.6190 C   0  0  0  0  0  0  0  0  0  0  0  0
  1 11  2  0
  2 15  2  0
  3 19  1  0
  3 24  1  0
  4 11  1  0
  4 15  1  0
  5 16  1  0
  5 22  1  0
  5 23  1  0
  6  7  1  0
  6  8  1  0
  6 10  1  0
  6 11  1  0
  7  9  1  0
  7 12  1  0
  7 13  1  0
  8 14  1  0
  9 15  1  0
 10 17  2  0
 10 18  1  0
 14 16  1  0
 17 19  1  0
 18 20  2  0
 19 21  2  0
 20 21  1  0
M  END
>  <PUBCHEM_COMPOUND_CID>  (1) 
40914

>  <PUBCHEM_CONFORMER_RMSD>  (1) 
0.8

>  <PUBCHEM_CONFORMER_DIVERSEORDER>  (1) 
3
34
20
12
28
29
31
6
17
21
25
7
14
26
19
30
33
8
5
32
4
27
10
15
13
24
2
9
16
22
1
18
11
23

>  <PUBCHEM_MMFF94_PARTIAL_CHARGES>  (1) 
24
1 -0.57
10 -0.14
11 0.57
15 0.57
16 0.27
17 -0.15
18 -0.15
19 0.08
2 -0.57
20 -0.15
21 -0.15
22 0.27
23 0.27
24 0.28
3 -0.36
37 0.37
4 -0.49
40 0.15
41 0.15
42 0.15
43 0.15
5 -0.81
6 0.2
9 0.06

>  <PUBCHEM_EFFECTIVE_ROTOR_COUNT>  (1) 
6.8

>  <PUBCHEM_PHARMACOPHORE_FEATURES>  (1) 
8
1 1 acceptor
1 2 acceptor
1 3 acceptor
1 4 donor
1 5 cation
3 7 12 13 hydrophobe
6 10 17 18 19 20 21 rings
6 4 6 7 9 11 15 rings

>  <PUBCHEM_HEAVY_ATOM_COUNT>  (1) 
24

>  <PUBCHEM_ATOM_DEF_STEREO_COUNT>  (1) 
0

>  <PUBCHEM_ATOM_UDEF_STEREO_COUNT>  (1) 
1

>  <PUBCHEM_BOND_DEF_STEREO_COUNT>  (1) 
0

>  <PUBCHEM_BOND_UDEF_STEREO_COUNT>  (1) 
0

>  <PUBCHEM_ISOTOPIC_ATOM_COUNT>  (1) 
0

>  <PUBCHEM_COMPONENT_COUNT>  (1) 
1

>  <PUBCHEM_CACTVS_TAUTO_COUNT>  (1) 
3

>  <PUBCHEM_CONFORMER_ID>  (1) 
00009FD200000003

>  <PUBCHEM_MMFF94_ENERGY>  (1) 
96.1363

>  <PUBCHEM_FEATURE_SELFOVERLAP>  (1) 
40.596

>  <PUBCHEM_SHAPE_FINGERPRINT>  (1) 
10165383 225 17038709161532221797
10930396 42 18122592125463278978
11578080 2 17413336584577321668
12293681 4 18261680277108689555
12532896 13 17471016878349416268
12549972 3 17459760418028525977
12788726 201 18189611636045507464
13134695 92 18337106864451355044
13140716 1 18337121085389180912
13590594 115 18409454648799370433
13681431 1 18268446761380411693
13911987 19 18191047740340389814
14713325 29 18124594176927982978
14955137 171 18048894180013954704
15230672 131 17252594981511225220
16945 1 17632590352701695386
17357779 13 18272078353960965501
17980427 23 18059590108447824113
1813 80 18200896009886499358
20600515 1 18041858236976396263
21285901 2 17985830320223237701
21304303 282 17756131298487843740
21524375 3 17187865644427578689
21860390 5 18338504344310812541
229495 10 17487313985783476206
23557571 272 18264489490436260934
23558518 356 17830457176571606222
23559900 14 17532089591497101215
283562 15 18263645065732995002
3298306 158 17829624103430338332
3493558 16 17676497180598401188
394222 165 16244004177019744202
404807 78 17395593697059320161
44802255 64 15453199732004652015
5939293 188 18336258063171295589
6442390 28 17331973720080349185
81228 2 18046639909908278396
9981440 41 17474097083197918993

>  <PUBCHEM_SHAPE_MULTIPOLES>  (1) 
466.34
6.18
5.55
1.72
6.58
12.67
-0.19
-4.43
0.45
-3.89
0.89
0.18
-0.52
0.76

>  <PUBCHEM_SHAPE_SELFOVERLAP>  (1) 
971.635

>  <PUBCHEM_SHAPE_VOLUME>  (1) 
263.6

>  <PUBCHEM_COORDINATE_TYPE>  (1) 
2
5
10

$$$$
