40923
     RDKit          3D

  9  8  0  0  1  0  0  0  0  0999 V2000
    1.1407    2.0088    0.0985 O   0  0  0  0  0  0  0  0  0  0  0  0
    0.5443    0.7735   -0.3014 C   0  0  0  0  0  0  0  0  0  0  0  0
    1.4405   -0.3750    0.1790 C   0  0  0  0  0  0  0  0  0  0  0  0
   -0.8737    0.7186    0.2843 C   0  0  0  0  0  0  0  0  0  0  0  0
    2.8709   -0.2575   -0.3586 C   0  0  0  0  0  0  0  0  0  0  0  0
   -1.6607   -0.5270   -0.1270 C   0  0  0  0  0  0  0  0  0  0  0  0
    3.7566   -1.3753    0.1701 C   0  0  0  0  0  0  0  0  0  0  0  0
   -3.0613   -0.4839    0.4109 C   0  0  0  0  0  0  0  0  0  0  0  0
   -4.1573   -0.4823   -0.3559 C   0  0  0  0  0  0  0  0  0  0  0  0
  1  2  1  0
  2  3  1  0
  2  4  1  0
  3  5  1  0
  4  6  1  0
  5  7  1  0
  6  8  1  0
  8  9  2  0
M  END
>  <PUBCHEM_COMPOUND_CID>  (1) 
40923

>  <PUBCHEM_CONFORMER_RMSD>  (1) 
0.6

>  <PUBCHEM_CONFORMER_DIVERSEORDER>  (1) 
3
75
79
2
56
53
76
77
55
14
78
22
26
16
72
60
62
65
18
66
52
7
81
58
24
67
61
30
17
44
63
68
34
9
82
45
33
46
20
80
42
71
74
19
40
64
23
73
37
59
69
41
48
25
51
6
57
27
70
10
35
47
5
39
13
4
38
32
36
43
49
8
21
54
31
28
15
29
12
50
1
11

>  <PUBCHEM_MMFF94_PARTIAL_CHARGES>  (1) 
9
1 -0.68
2 0.28
22 0.4
23 0.15
24 0.15
25 0.15
6 0.14
8 -0.29
9 -0.3

>  <PUBCHEM_EFFECTIVE_ROTOR_COUNT>  (1) 
5

>  <PUBCHEM_PHARMACOPHORE_FEATURES>  (1) 
4
1 1 acceptor
1 1 donor
1 7 hydrophobe
1 9 hydrophobe

>  <PUBCHEM_HEAVY_ATOM_COUNT>  (1) 
9

>  <PUBCHEM_ATOM_DEF_STEREO_COUNT>  (1) 
0

>  <PUBCHEM_ATOM_UDEF_STEREO_COUNT>  (1) 
1

>  <PUBCHEM_BOND_DEF_STEREO_COUNT>  (1) 
0

>  <PUBCHEM_BOND_UDEF_STEREO_COUNT>  (1) 
0

>  <PUBCHEM_ISOTOPIC_ATOM_COUNT>  (1) 
0

>  <PUBCHEM_COMPONENT_COUNT>  (1) 
1

>  <PUBCHEM_CACTVS_TAUTO_COUNT>  (1) 
1

>  <PUBCHEM_CONFORMER_ID>  (1) 
00009FDB00000003

>  <PUBCHEM_MMFF94_ENERGY>  (1) 
4.3048

>  <PUBCHEM_FEATURE_SELFOVERLAP>  (1) 
20.297

>  <PUBCHEM_SHAPE_FINGERPRINT>  (1) 
10219947 1 18273498974449994878
13690532 89 18413106160868426543
14252887 29 18131077008838489102
14325111 11 18339080522873995407
177051 138 17918276467335759887
20201158 50 18334861605999968579
20211469 26 18272931587695149410
20281407 28 18261114075358622954
20645477 70 18409727400269890679
20671657 53 18409732850187607381
20711978 1 18411983567664363128
20711985 327 18202289091007978472
20871998 22 18129108835674375206
21119208 17 15936130750622880494
21293036 1 16877948243305311438
22485316 2 18409726266008082238
3248919 1 16988015993365689911

>  <PUBCHEM_SHAPE_MULTIPOLES>  (1) 
179.35
7.01
1.39
0.68
2.03
0.54
0.01
-3.56
0.31
-0.88
-0.07
0.08
-0.03
-0.12

>  <PUBCHEM_SHAPE_SELFOVERLAP>  (1) 
319.47

>  <PUBCHEM_SHAPE_VOLUME>  (1) 
116.7

>  <PUBCHEM_COORDINATE_TYPE>  (1) 
2
5
10

$$$$
