40930
     RDKit          3D

 27 30  0  0  1  0  0  0  0  0999 V2000
   -1.6017    2.3480    1.6106 O   0  0  0  0  0  0  0  0  0  0  0  0
    3.9284    1.4152    1.8684 O   0  0  0  0  0  0  0  0  0  0  0  0
    5.8023    0.4040    1.0731 O   0  0  0  0  0  0  0  0  0  0  0  0
    0.8506   -2.4796   -1.7975 N   0  0  0  0  0  0  0  0  0  0  0  0
   -1.0109   -0.0873    0.2380 C   0  0  0  0  0  0  0  0  0  0  0  0
   -0.0295   -0.9369   -0.4663 C   0  0  0  0  0  0  0  0  0  0  0  0
    1.3864   -0.8822   -0.3351 C   0  0  0  0  0  0  0  0  0  0  0  0
   -1.1966    1.2547   -0.4831 C   0  0  0  0  0  0  0  0  0  0  0  0
   -2.2672   -0.9160    0.5396 C   0  0  0  0  0  0  0  0  0  0  0  0
    1.9142   -1.8603   -1.1808 C   0  0  0  0  0  0  0  0  0  0  0  0
   -0.3282   -1.9284   -1.3721 C   0  0  0  0  0  0  0  0  0  0  0  0
    2.2722   -0.0922    0.4240 C   0  0  0  0  0  0  0  0  0  0  0  0
   -1.4791    2.3795    0.2541 C   0  0  0  0  0  0  0  0  0  0  0  0
   -1.0699    1.2688   -1.8522 C   0  0  0  0  0  0  0  0  0  0  0  0
    3.2893   -2.0887   -1.3056 C   0  0  0  0  0  0  0  0  0  0  0  0
   -2.3101   -1.6371    1.7081 C   0  0  0  0  0  0  0  0  0  0  0  0
   -3.2952   -0.9009   -0.3716 C   0  0  0  0  0  0  0  0  0  0  0  0
    3.6501   -0.3093    0.3092 C   0  0  0  0  0  0  0  0  0  0  0  0
    4.1486   -1.2927   -0.5428 C   0  0  0  0  0  0  0  0  0  0  0  0
   -1.6448    3.5910   -0.4173 C   0  0  0  0  0  0  0  0  0  0  0  0
   -1.2357    2.4804   -2.5233 C   0  0  0  0  0  0  0  0  0  0  0  0
   -3.4518   -2.3900    1.9824 C   0  0  0  0  0  0  0  0  0  0  0  0
   -4.4369   -1.6538   -0.0972 C   0  0  0  0  0  0  0  0  0  0  0  0
   -1.5232    3.6414   -1.8058 C   0  0  0  0  0  0  0  0  0  0  0  0
   -4.5151   -2.3984    1.0799 C   0  0  0  0  0  0  0  0  0  0  0  0
    4.5713    0.5025    1.0898 C   0  0  0  0  0  0  0  0  0  0  0  0
   -0.4170    2.5681    2.3735 C   0  0  0  0  0  0  0  0  0  0  0  0
  1 13  1  0
  1 27  1  0
  2 26  1  0
  3 26  2  0
  4 10  1  0
  4 11  1  0
  5  6  1  0
  5  8  1  0
  5  9  1  0
  6  7  1  0
  6 11  2  0
  7 10  2  0
  7 12  1  0
  8 13  2  0
  8 14  1  0
  9 16  2  0
  9 17  1  0
 10 15  1  0
 12 18  2  0
 13 20  1  0
 14 21  2  0
 15 19  2  0
 16 22  1  0
 17 23  2  0
 18 19  1  0
 18 26  1  0
 20 24  2  0
 21 24  1  0
 22 25  2  0
 23 25  1  0
M  END
>  <PUBCHEM_COMPOUND_CID>  (1) 
40930

>  <PUBCHEM_CONFORMER_RMSD>  (1) 
0.8

>  <PUBCHEM_CONFORMER_DIVERSEORDER>  (1) 
2
53
49
47
35
45
38
44
58
25
39
22
29
42
46
55
34
48
30
5
32
51
10
56
57
17
28
18
50
40
3
54
20
14
41
21
16
15
43
36
6
23
1
27
24
37
19
33
52
4
9
13
11
12
8
31
7
26

>  <PUBCHEM_MMFF94_PARTIAL_CHARGES>  (1) 
41
1 -0.36
10 -0.15
11 -0.3
12 -0.15
13 0.08
14 -0.15
15 -0.15
16 -0.15
17 -0.15
18 0.09
19 -0.15
2 -0.65
20 -0.15
21 -0.15
22 -0.15
23 -0.15
24 -0.15
25 -0.15
26 0.63
27 0.28
29 0.15
3 -0.57
30 0.27
31 0.15
32 0.15
33 0.15
34 0.15
35 0.15
36 0.15
37 0.15
38 0.15
39 0.15
4 0.03
40 0.15
41 0.15
42 0.15
46 0.5
5 0.47
6 -0.18
8 -0.14
9 -0.14

>  <PUBCHEM_EFFECTIVE_ROTOR_COUNT>  (1) 
5

>  <PUBCHEM_PHARMACOPHORE_FEATURES>  (1) 
10
1 1 acceptor
1 2 acceptor
1 3 acceptor
1 4 cation
1 4 donor
3 2 3 26 anion
5 4 6 7 10 11 rings
6 7 10 12 15 18 19 rings
6 8 13 14 20 21 24 rings
6 9 16 17 22 23 25 rings

>  <PUBCHEM_HEAVY_ATOM_COUNT>  (1) 
27

>  <PUBCHEM_ATOM_DEF_STEREO_COUNT>  (1) 
0

>  <PUBCHEM_ATOM_UDEF_STEREO_COUNT>  (1) 
1

>  <PUBCHEM_BOND_DEF_STEREO_COUNT>  (1) 
0

>  <PUBCHEM_BOND_UDEF_STEREO_COUNT>  (1) 
0

>  <PUBCHEM_ISOTOPIC_ATOM_COUNT>  (1) 
0

>  <PUBCHEM_COMPONENT_COUNT>  (1) 
1

>  <PUBCHEM_CACTVS_TAUTO_COUNT>  (1) 
2

>  <PUBCHEM_CONFORMER_ID>  (1) 
00009FE200000002

>  <PUBCHEM_MMFF94_ENERGY>  (1) 
96.3296

>  <PUBCHEM_FEATURE_SELFOVERLAP>  (1) 
50.896

>  <PUBCHEM_SHAPE_FINGERPRINT>  (1) 
10165383 225 17773885375419993106
10670039 82 18337692875144843012
10930396 42 17903320991942517704
11578080 2 17845110484099204145
12788726 201 17822019726108375622
13149001 5 17477218123772298631
133893 2 17318207113299171573
13583140 156 18263630780872520930
13681431 1 18046367459206307487
14081887 123 18260548887875160803
14840074 17 18050007993614171252
14955137 171 17763492872359165911
17357779 13 18411694392312204231
1813 80 18188789343440768547
20600515 1 18187942728003592683
20642791 13 18411986832720066955
21049683 118 17756408384298427625
21304303 282 17389349690355671991
21344244 78 18053134927785268219
22182313 1 18272367526099507878
229495 10 16916228750044127607
22956985 138 16886676407204225626
23419403 2 18266723861615660477
23557571 272 18261398814690008951
23559900 14 18115313267586810230
238 59 17415531274131926260
3187 122 18334007324109212796
3380486 145 18271802475685688575
3380486 77 17240773924865653811
350125 39 18201166468651897318
35225 105 17827376383645095681
3886686 26 17466482539736860322
469060 322 18113343006983934312
57527585 21 17916568861327583740
6442390 28 17541112969693218861
7399639 24 18342455950335777974
81228 2 18045808726895128383
9981440 41 17841397411889042466

>  <PUBCHEM_SHAPE_MULTIPOLES>  (1) 
533.06
8.18
4.15
2.23
8.01
3.39
0.2
-4.78
3.52
-3.93
-0.8
-0.06
0.88
2.76

>  <PUBCHEM_SHAPE_SELFOVERLAP>  (1) 
1193.176

>  <PUBCHEM_SHAPE_VOLUME>  (1) 
283.1

>  <PUBCHEM_COORDINATE_TYPE>  (1) 
2
5
10

$$$$
