40932
     RDKit          3D

 28 31  0  0  0  0  0  0  0  0999 V2000
   -4.6495   -4.4325   -0.3230 Cl  0  0  0  0  0  0  0  0  0  0  0  0
   -2.2470    5.4581   -1.7315 Cl  0  0  0  0  0  0  0  0  0  0  0  0
    4.1987   -2.0580   -3.1552 O   0  0  0  0  0  0  0  0  0  0  0  0
    3.2099   -0.0772   -2.6293 O   0  0  0  0  0  0  0  0  0  0  0  0
    2.1617   -1.1873   -0.2798 N   0  0  0  0  0  0  0  0  0  0  0  0
   -1.0162    0.1929    0.8740 C   0  0  0  0  0  0  0  0  0  0  0  0
    0.3808   -0.2127    0.6177 C   0  0  0  0  0  0  0  0  0  0  0  0
    1.5302    0.2042    1.3457 C   0  0  0  0  0  0  0  0  0  0  0  0
    2.6340   -0.4216    0.7623 C   0  0  0  0  0  0  0  0  0  0  0  0
    0.8012   -1.0674   -0.3751 C   0  0  0  0  0  0  0  0  0  0  0  0
   -1.9460   -0.9893    0.5683 C   0  0  0  0  0  0  0  0  0  0  0  0
   -1.3302    1.5395    0.2084 C   0  0  0  0  0  0  0  0  0  0  0  0
    2.9721   -2.0042   -1.1576 C   0  0  0  0  0  0  0  0  0  0  0  0
    1.7381    1.0563    2.4484 C   0  0  0  0  0  0  0  0  0  0  0  0
    3.9406   -0.2369    1.2283 C   0  0  0  0  0  0  0  0  0  0  0  0
   -2.2053   -1.8936    1.5694 C   0  0  0  0  0  0  0  0  0  0  0  0
   -2.2294    2.3783    0.8208 C   0  0  0  0  0  0  0  0  0  0  0  0
   -2.4785   -1.0934   -0.6938 C   0  0  0  0  0  0  0  0  0  0  0  0
   -0.6995    1.8486   -0.9724 C   0  0  0  0  0  0  0  0  0  0  0  0
    3.0395    1.2505    2.9254 C   0  0  0  0  0  0  0  0  0  0  0  0
    4.1224    0.6128    2.3233 C   0  0  0  0  0  0  0  0  0  0  0  0
   -3.0494   -2.9686    1.2911 C   0  0  0  0  0  0  0  0  0  0  0  0
   -2.5156    3.6017    0.2152 C   0  0  0  0  0  0  0  0  0  0  0  0
   -3.3228   -2.1684   -0.9721 C   0  0  0  0  0  0  0  0  0  0  0  0
   -0.9855    3.0722   -1.5780 C   0  0  0  0  0  0  0  0  0  0  0  0
    3.4479   -1.2466   -2.3666 C   0  0  0  0  0  0  0  0  0  0  0  0
   -3.6083   -3.1060    0.0205 C   0  0  0  0  0  0  0  0  0  0  0  0
   -1.8937    3.9489   -0.9842 C   0  0  0  0  0  0  0  0  0  0  0  0
  1 27  1  0
  2 28  1  0
  3 26  1  0
  4 26  2  0
  5  9  1  0
  5 10  1  0
  5 13  1  0
  6  7  1  0
  6 11  1  0
  6 12  1  0
  7  8  1  0
  7 10  2  0
  8  9  2  0
  8 14  1  0
  9 15  1  0
 11 16  2  0
 11 18  1  0
 12 17  2  0
 12 19  1  0
 13 26  1  0
 14 20  2  0
 15 21  2  0
 16 22  1  0
 17 23  1  0
 18 24  2  0
 19 25  2  0
 20 21  1  0
 22 27  2  0
 23 28  2  0
 24 27  1  0
 25 28  1  0
M  END
>  <PUBCHEM_COMPOUND_CID>  (1) 
40932

>  <PUBCHEM_CONFORMER_RMSD>  (1) 
0.8

>  <PUBCHEM_CONFORMER_DIVERSEORDER>  (1) 
1
3
4
16
15
6
23
19
18
21
13
9
8
14
24
7
20
11
22
5
12
17
2
10

>  <PUBCHEM_MMFF94_PARTIAL_CHARGES>  (1) 
41
1 -0.18
10 -0.3
11 -0.14
12 -0.14
13 0.32
14 -0.15
15 -0.15
16 -0.15
17 -0.15
18 -0.15
19 -0.15
2 -0.18
20 -0.15
21 -0.15
22 -0.15
23 -0.15
24 -0.15
25 -0.15
26 0.66
27 0.18
28 0.18
3 -0.65
30 0.15
33 0.15
34 0.15
35 0.15
36 0.15
37 0.15
38 0.15
39 0.15
4 -0.57
40 0.15
41 0.15
42 0.15
43 0.15
44 0.15
45 0.5
5 0.05
6 0.47
7 -0.18
9 -0.15

>  <PUBCHEM_EFFECTIVE_ROTOR_COUNT>  (1) 
5

>  <PUBCHEM_PHARMACOPHORE_FEATURES>  (1) 
8
1 3 acceptor
1 4 acceptor
1 5 cation
3 3 4 26 anion
5 5 7 8 9 10 rings
6 11 16 18 22 24 27 rings
6 12 17 19 23 25 28 rings
6 8 9 14 15 20 21 rings

>  <PUBCHEM_HEAVY_ATOM_COUNT>  (1) 
28

>  <PUBCHEM_ATOM_DEF_STEREO_COUNT>  (1) 
0

>  <PUBCHEM_ATOM_UDEF_STEREO_COUNT>  (1) 
0

>  <PUBCHEM_BOND_DEF_STEREO_COUNT>  (1) 
0

>  <PUBCHEM_BOND_UDEF_STEREO_COUNT>  (1) 
0

>  <PUBCHEM_ISOTOPIC_ATOM_COUNT>  (1) 
0

>  <PUBCHEM_COMPONENT_COUNT>  (1) 
1

>  <PUBCHEM_CACTVS_TAUTO_COUNT>  (1) 
1

>  <PUBCHEM_CONFORMER_ID>  (1) 
00009FE400000001

>  <PUBCHEM_MMFF94_ENERGY>  (1) 
73.7419

>  <PUBCHEM_FEATURE_SELFOVERLAP>  (1) 
40.745

>  <PUBCHEM_SHAPE_FINGERPRINT>  (1) 
10165383 225 17691432727269413545
10169797 241 16888651147315943539
10369192 42 17488182793834103176
10721379 63 17315635377118507205
11445158 3 15818552082673744774
11488393 25 16894020066746175162
11578080 2 18130240271968408488
11582403 64 16472824293479868736
11763715 3 17967805072462978728
12160290 23 18261396581628735873
12363563 72 18116702118228631539
12553582 1 18189633794046259331
12623949 98 17273433869802358926
12714826 92 18127435391730199262
12788726 201 18041286495630978197
13149001 5 17843117005024964544
133893 2 16893954096195896223
13681431 1 18047753994803045537
14022347 108 18261960742779012339
14068700 675 17242981753257428274
14863182 85 17269483423265516551
14955137 171 17472131155811415129
15219462 58 18049404190010776618
15664445 248 18048326835597028020
15775530 1 18272086067585209034
15840311 113 17560818649705752707
15876981 60 17894897517973533976
17980427 23 17189231220615794899
17980427 26 17042562494278580492
1813 80 18196380431811890699
19319366 153 16257605677100633280
20600515 1 17751338776420800003
20693207 138 18059298647550668206
20739085 24 17767114680825306491
21285901 2 18057297631188567951
21304303 282 17470393601385770469
21756936 100 16446484415016368244
22182313 1 17775000155524871162
2260408 40 17699028480365338307
23557571 272 18410282631829152527
238 59 17057770015985932020
25223398 141 17972314006566441349
27425 322 17908674281740626013
3493558 16 16157320694778891628
376196 1 17194262251144538720
3886686 26 17472650838417531546
44802255 64 17396461258223467142
57527306 92 17465088737282290620
59554788 248 17487870463621985794
59554788 62 17702369852724598254
6442390 28 18049997797551747225
7399639 24 18057303184586576208
81228 2 18408036299951960081
9658208 31 18196937669442795913
9841814 1 17827356901942901483
9981440 41 16623710364343216328

>  <PUBCHEM_SHAPE_MULTIPOLES>  (1) 
563.25
7.76
5.95
2.73
1.85
7.75
-0.89
-8.1
-0.04
-9.48
-3.18
4.34
-0.36
2.92

>  <PUBCHEM_SHAPE_SELFOVERLAP>  (1) 
1232.8

>  <PUBCHEM_SHAPE_VOLUME>  (1) 
308.6

>  <PUBCHEM_COORDINATE_TYPE>  (1) 
2
5
10

$$$$
