40936
     RDKit          3D

 27 31  0  0  0  0  0  0  0  0999 V2000
    3.4371    0.6191    0.4495 O   0  0  0  0  0  0  0  0  0  0  0  0
   -3.9275    1.8270    3.2302 O   0  0  0  0  0  0  0  0  0  0  0  0
   -3.0842    2.3616    1.1855 O   0  0  0  0  0  0  0  0  0  0  0  0
   -1.9475   -0.1887    0.9517 N   0  0  0  0  0  0  0  0  0  0  0  0
    1.1267   -0.4074   -1.0065 C   0  0  0  0  0  0  0  0  0  0  0  0
   -0.2387   -0.4348   -0.4425 C   0  0  0  0  0  0  0  0  0  0  0  0
    1.9427   -1.2479   -0.0601 C   0  0  0  0  0  0  0  0  0  0  0  0
    1.5107    1.0487   -0.9936 C   0  0  0  0  0  0  0  0  0  0  0  0
   -1.4115   -0.9167   -1.0878 C   0  0  0  0  0  0  0  0  0  0  0  0
   -2.4694   -0.7509   -0.1914 C   0  0  0  0  0  0  0  0  0  0  0  0
   -0.5998    0.0062    0.8094 C   0  0  0  0  0  0  0  0  0  0  0  0
    3.0423   -0.6898    0.6036 C   0  0  0  0  0  0  0  0  0  0  0  0
    2.6360    1.4711   -0.2751 C   0  0  0  0  0  0  0  0  0  0  0  0
   -1.6756   -1.4797   -2.3521 C   0  0  0  0  0  0  0  0  0  0  0  0
    1.6093   -2.5886    0.1898 C   0  0  0  0  0  0  0  0  0  0  0  0
    0.7448    2.0064   -1.6777 C   0  0  0  0  0  0  0  0  0  0  0  0
   -2.6995    0.1532    2.1400 C   0  0  0  0  0  0  0  0  0  0  0  0
   -3.7837   -1.1215   -0.4974 C   0  0  0  0  0  0  0  0  0  0  0  0
    3.8116   -1.4641    1.4767 C   0  0  0  0  0  0  0  0  0  0  0  0
    3.0065    2.8188   -0.2650 C   0  0  0  0  0  0  0  0  0  0  0  0
   -2.9855   -1.8549   -2.6721 C   0  0  0  0  0  0  0  0  0  0  0  0
   -4.0217   -1.6779   -1.7574 C   0  0  0  0  0  0  0  0  0  0  0  0
    2.3754   -3.3589    1.0653 C   0  0  0  0  0  0  0  0  0  0  0  0
    1.1131    3.3521   -1.6626 C   0  0  0  0  0  0  0  0  0  0  0  0
    3.4780   -2.7978    1.7054 C   0  0  0  0  0  0  0  0  0  0  0  0
    2.2454    3.7572   -0.9595 C   0  0  0  0  0  0  0  0  0  0  0  0
   -3.2348    1.5581    2.0937 C   0  0  0  0  0  0  0  0  0  0  0  0
  1 12  1  0
  1 13  1  0
  2 27  1  0
  3 27  2  0
  4 10  1  0
  4 11  1  0
  4 17  1  0
  5  6  1  0
  5  7  1  0
  5  8  1  0
  6  9  1  0
  6 11  2  0
  7 12  2  0
  7 15  1  0
  8 13  2  0
  8 16  1  0
  9 10  2  0
  9 14  1  0
 10 18  1  0
 12 19  1  0
 13 20  1  0
 14 21  2  0
 15 23  2  0
 16 24  2  0
 17 27  1  0
 18 22  2  0
 19 25  2  0
 20 26  2  0
 21 22  1  0
 23 25  1  0
 24 26  1  0
M  END
>  <PUBCHEM_COMPOUND_CID>  (1) 
40936

>  <PUBCHEM_CONFORMER_RMSD>  (1) 
0.8

>  <PUBCHEM_CONFORMER_DIVERSEORDER>  (1) 
2
3
6
5
4
1

>  <PUBCHEM_MMFF94_PARTIAL_CHARGES>  (1) 
40
1 -0.17
10 -0.15
11 -0.3
12 0.08
13 0.08
14 -0.15
15 -0.15
16 -0.15
17 0.32
18 -0.15
19 -0.15
2 -0.65
20 -0.15
21 -0.15
22 -0.15
23 -0.15
24 -0.15
25 -0.15
26 -0.15
27 0.66
29 0.15
3 -0.57
30 0.15
31 0.15
32 0.15
35 0.15
36 0.15
37 0.15
38 0.15
39 0.15
4 0.05
40 0.15
41 0.15
42 0.15
43 0.15
44 0.5
5 0.47
6 -0.18
7 -0.14
8 -0.14

>  <PUBCHEM_EFFECTIVE_ROTOR_COUNT>  (1) 
3.4

>  <PUBCHEM_PHARMACOPHORE_FEATURES>  (1) 
10
1 1 acceptor
1 2 acceptor
1 3 acceptor
1 4 cation
3 2 3 27 anion
5 4 6 9 10 11 rings
6 1 5 7 8 12 13 rings
6 7 12 15 19 23 25 rings
6 8 13 16 20 24 26 rings
6 9 10 14 18 21 22 rings

>  <PUBCHEM_HEAVY_ATOM_COUNT>  (1) 
27

>  <PUBCHEM_ATOM_DEF_STEREO_COUNT>  (1) 
0

>  <PUBCHEM_ATOM_UDEF_STEREO_COUNT>  (1) 
0

>  <PUBCHEM_BOND_DEF_STEREO_COUNT>  (1) 
0

>  <PUBCHEM_BOND_UDEF_STEREO_COUNT>  (1) 
0

>  <PUBCHEM_ISOTOPIC_ATOM_COUNT>  (1) 
0

>  <PUBCHEM_COMPONENT_COUNT>  (1) 
1

>  <PUBCHEM_CACTVS_TAUTO_COUNT>  (1) 
1

>  <PUBCHEM_CONFORMER_ID>  (1) 
00009FE800000002

>  <PUBCHEM_MMFF94_ENERGY>  (1) 
70.9976

>  <PUBCHEM_FEATURE_SELFOVERLAP>  (1) 
50.95

>  <PUBCHEM_SHAPE_FINGERPRINT>  (1) 
10165383 225 16882772994912206300
10258939 38 16086136250813433659
11049842 53 17345777195223974799
11421498 54 17984704673735770111
11578080 2 17697269102313895216
11640471 11 18200610196871558593
12156800 1 16388217766885603631
12160290 23 16960122186501621118
12293681 160 17552072226961853309
12403259 327 17609819385406720355
12549972 3 16877935019248947017
12553582 1 18115874005863825218
12788726 201 17845657079176176167
13009979 54 18129928096159466110
13134695 92 18041262319254898494
13140716 1 17755283906457749864
133893 2 18260547861467290710
13583140 156 18188791465275900017
13965767 371 17770222656731417170
14787075 74 17331972028005425655
14790565 3 18187940533798167812
14844126 61 17107588720279106290
15420108 30 18200316520230376556
15842332 3 18343869930667659099
17138139 8 16974464731296847910
17818456 19 17988640740615810561
17876694 64 18201140122926695735
17974551 9 17461758054251962081
17980427 23 18131061598052479041
1813 80 18340200792116305902
19319366 153 17835220621510142135
20715895 44 18199180686612993365
21033648 29 17270604547263172168
21133410 230 8990283956080464303
2132832 1 18270101479462459525
21756936 100 17692567762803965620
23419403 2 17408747355733497896
23557571 272 16343710932315889649
23598288 3 18131359622176497659
23598291 2 18342463642352777214
238918 7 16971395435897502217
25222932 49 17544809841661280883
283562 15 16025633562005137388
3380486 145 18047457946870437164
3383291 50 15888242281974752235
35225 105 16670792822449934032
4409770 3 16614213569087834470
474 4 18191299592621255924
57527295 17 16953623136173223887
6992083 37 18197210348104600311
7097593 13 18189355505702465747
7615 1 18343302578335712697
81228 2 17391897168676781198
9981440 41 17464798448589421125

>  <PUBCHEM_SHAPE_MULTIPOLES>  (1) 
533.06
7.25
4.12
2.58
2.88
1.75
-0.91
-1.41
-1.95
-4.31
0.12
3.69
0.46
-4.38

>  <PUBCHEM_SHAPE_SELFOVERLAP>  (1) 
1212.91

>  <PUBCHEM_SHAPE_VOLUME>  (1) 
277.8

>  <PUBCHEM_COORDINATE_TYPE>  (1) 
2
5
10

$$$$
