40937
     RDKit          3D

 41 48  0  0  0  0  0  0  0  0999 V2000
    2.6154   -2.6184    1.2681 O   0  0  0  0  0  0  0  0  0  0  0  0
   -3.7301   -0.6354    1.4500 O   0  0  0  0  0  0  0  0  0  0  0  0
    4.2629    2.8480   -1.9305 O   0  0  0  0  0  0  0  0  0  0  0  0
    2.4773    3.7993   -0.8889 O   0  0  0  0  0  0  0  0  0  0  0  0
    0.9592    1.5167   -1.7215 N   0  0  0  0  0  0  0  0  0  0  0  0
    0.8837    0.4812   -0.8291 C   0  0  0  0  0  0  0  0  0  0  0  0
   -0.4156    0.4003   -0.3827 C   0  0  0  0  0  0  0  0  0  0  0  0
    2.0620   -0.3420   -0.4817 C   0  0  0  0  0  0  0  0  0  0  0  0
   -0.9423   -0.5777    0.5917 C   0  0  0  0  0  0  0  0  0  0  0  0
   -1.1597    1.4268   -1.0293 C   0  0  0  0  0  0  0  0  0  0  0  0
   -0.2739    2.1123   -1.8634 C   0  0  0  0  0  0  0  0  0  0  0  0
    1.8535   -1.7785   -0.8981 C   0  0  0  0  0  0  0  0  0  0  0  0
    2.4019   -0.1994    0.9828 C   0  0  0  0  0  0  0  0  0  0  0  0
   -2.0193   -1.3155   -0.1590 C   0  0  0  0  0  0  0  0  0  0  0  0
   -1.4730    0.2648    1.7216 C   0  0  0  0  0  0  0  0  0  0  0  0
    2.1618    1.9279   -2.4169 C   0  0  0  0  0  0  0  0  0  0  0  0
   -2.5061    1.8398   -0.9845 C   0  0  0  0  0  0  0  0  0  0  0  0
    2.1472   -2.8203   -0.0097 C   0  0  0  0  0  0  0  0  0  0  0  0
    2.6635   -1.3345    1.7601 C   0  0  0  0  0  0  0  0  0  0  0  0
   -0.6688    3.1943   -2.6582 C   0  0  0  0  0  0  0  0  0  0  0  0
   -3.3377   -1.3032    0.3130 C   0  0  0  0  0  0  0  0  0  0  0  0
   -2.8235    0.1834    2.0827 C   0  0  0  0  0  0  0  0  0  0  0  0
    1.3544   -2.0946   -2.1717 C   0  0  0  0  0  0  0  0  0  0  0  0
    2.4511    1.0649    1.5916 C   0  0  0  0  0  0  0  0  0  0  0  0
   -1.7312   -2.0069   -1.3466 C   0  0  0  0  0  0  0  0  0  0  0  0
   -0.6383    1.1550    2.4159 C   0  0  0  0  0  0  0  0  0  0  0  0
   -2.9155    2.9205   -1.7741 C   0  0  0  0  0  0  0  0  0  0  0  0
   -2.0092    3.5859   -2.5972 C   0  0  0  0  0  0  0  0  0  0  0  0
    1.9740   -4.1524   -0.3963 C   0  0  0  0  0  0  0  0  0  0  0  0
    2.9975   -1.2073    3.1114 C   0  0  0  0  0  0  0  0  0  0  0  0
   -4.3426   -1.9927   -0.3714 C   0  0  0  0  0  0  0  0  0  0  0  0
   -3.3237    0.9536    3.1365 C   0  0  0  0  0  0  0  0  0  0  0  0
    2.9391    2.9639   -1.6519 C   0  0  0  0  0  0  0  0  0  0  0  0
    1.1774   -3.4246   -2.5545 C   0  0  0  0  0  0  0  0  0  0  0  0
    2.7797    1.1899    2.9420 C   0  0  0  0  0  0  0  0  0  0  0  0
   -2.7364   -2.6908   -2.0311 C   0  0  0  0  0  0  0  0  0  0  0  0
   -1.1401    1.9269    3.4644 C   0  0  0  0  0  0  0  0  0  0  0  0
    1.4906   -4.4526   -1.6685 C   0  0  0  0  0  0  0  0  0  0  0  0
    3.0563    0.0545    3.7001 C   0  0  0  0  0  0  0  0  0  0  0  0
   -4.0405   -2.6865   -1.5416 C   0  0  0  0  0  0  0  0  0  0  0  0
   -2.4811    1.8234    3.8265 C   0  0  0  0  0  0  0  0  0  0  0  0
  1 18  1  0
  1 19  1  0
  2 21  1  0
  2 22  1  0
  3 33  1  0
  4 33  2  0
  5  6  1  0
  5 11  1  0
  5 16  1  0
  6  7  2  0
  6  8  1  0
  7  9  1  0
  7 10  1  0
  8 12  1  0
  8 13  1  0
  9 14  1  0
  9 15  1  0
 10 11  2  0
 10 17  1  0
 11 20  1  0
 12 18  2  0
 12 23  1  0
 13 19  2  0
 13 24  1  0
 14 21  2  0
 14 25  1  0
 15 22  2  0
 15 26  1  0
 16 33  1  0
 17 27  2  0
 18 29  1  0
 19 30  1  0
 20 28  2  0
 21 31  1  0
 22 32  1  0
 23 34  2  0
 24 35  2  0
 25 36  2  0
 26 37  2  0
 27 28  1  0
 29 38  2  0
 30 39  2  0
 31 40  2  0
 32 41  2  0
 34 38  1  0
 35 39  1  0
 36 40  1  0
 37 41  1  0
M  END
>  <PUBCHEM_COMPOUND_CID>  (1) 
40937

>  <PUBCHEM_CONFORMER_RMSD>  (1) 
1

>  <PUBCHEM_CONFORMER_DIVERSEORDER>  (1) 
1
3
2

>  <PUBCHEM_MMFF94_PARTIAL_CHARGES>  (1) 
61
1 -0.17
11 -0.15
12 -0.14
13 -0.14
14 -0.14
15 -0.14
16 0.32
17 -0.15
18 0.08
19 0.08
2 -0.17
20 -0.15
21 0.08
22 0.08
23 -0.15
24 -0.15
25 -0.15
26 -0.15
27 -0.15
28 -0.15
29 -0.15
3 -0.65
30 -0.15
31 -0.15
32 -0.15
33 0.66
34 -0.15
35 -0.15
36 -0.15
37 -0.15
38 -0.15
39 -0.15
4 -0.57
40 -0.15
41 -0.15
46 0.15
47 0.15
48 0.15
49 0.15
5 0.05
50 0.15
51 0.15
52 0.15
53 0.15
54 0.15
55 0.15
56 0.15
57 0.15
58 0.15
59 0.15
6 -0.33
60 0.15
61 0.15
62 0.15
63 0.15
64 0.15
65 0.15
66 0.5
7 -0.18
8 0.47
9 0.47

>  <PUBCHEM_EFFECTIVE_ROTOR_COUNT>  (1) 
4.8

>  <PUBCHEM_PHARMACOPHORE_FEATURES>  (1) 
14
1 1 acceptor
1 2 acceptor
1 3 acceptor
1 4 acceptor
1 5 cation
3 3 4 33 anion
5 5 6 7 10 11 rings
6 1 8 12 13 18 19 rings
6 10 11 17 20 27 28 rings
6 12 18 23 29 34 38 rings
6 13 19 24 30 35 39 rings
6 14 21 25 31 36 40 rings
6 15 22 26 32 37 41 rings
6 2 9 14 15 21 22 rings

>  <PUBCHEM_HEAVY_ATOM_COUNT>  (1) 
41

>  <PUBCHEM_ATOM_DEF_STEREO_COUNT>  (1) 
0

>  <PUBCHEM_ATOM_UDEF_STEREO_COUNT>  (1) 
0

>  <PUBCHEM_BOND_DEF_STEREO_COUNT>  (1) 
0

>  <PUBCHEM_BOND_UDEF_STEREO_COUNT>  (1) 
0

>  <PUBCHEM_ISOTOPIC_ATOM_COUNT>  (1) 
0

>  <PUBCHEM_COMPONENT_COUNT>  (1) 
1

>  <PUBCHEM_CACTVS_TAUTO_COUNT>  (1) 
1

>  <PUBCHEM_CONFORMER_ID>  (1) 
00009FE900000001

>  <PUBCHEM_MMFF94_ENERGY>  (1) 
140.0545

>  <PUBCHEM_FEATURE_SELFOVERLAP>  (1) 
71.31

>  <PUBCHEM_SHAPE_FINGERPRINT>  (1) 
11421498 54 17767724833039159739
11578080 2 18270948073224904465
12156800 1 15884242589484696343
12160290 23 17101436960904932237
12422481 6 18193288395320265033
12788726 201 16229459446697991129
131258 38 17699300867275509787
13642711 20 14584877161312949063
15219462 58 17418088771978611175
15815584 197 17097230534322822208
17974551 9 16411809004362059267
20600515 1 17410198934299142460
22149856 69 16332505625615301713
3380486 145 18120380856622917006
3493558 16 16552233136230294248
469060 322 16891947320388219002
57527295 17 17095796746070912947
57527452 28 17977931707788653470
57527573 199 14525054236926966407

>  <PUBCHEM_SHAPE_MULTIPOLES>  (1) 
815.3
6.31
5.23
4.43
1.33
3.28
2.07
1.07
1.95
-1.02
-3.91
-0.14
-4.41
-0.49

>  <PUBCHEM_SHAPE_SELFOVERLAP>  (1) 
1883.901

>  <PUBCHEM_SHAPE_VOLUME>  (1) 
414.9

>  <PUBCHEM_COORDINATE_TYPE>  (1) 
2
5
10

$$$$
