40941
     RDKit          3D

 29 32  0  0  0  0  0  0  0  0999 V2000
   -2.4573    3.1984   -0.2809 O   0  0  0  0  0  0  0  0  0  0  0  0
   -2.4075    2.8178    1.9595 O   0  0  0  0  0  0  0  0  0  0  0  0
    7.3957   -1.3714    1.8550 O   0  0  0  0  0  0  0  0  0  0  0  0
    8.2410   -0.1639    0.1246 O   0  0  0  0  0  0  0  0  0  0  0  0
   -4.1086    0.4402    1.3103 N   0  0  0  0  0  0  0  0  0  0  0  0
   -3.0996    0.4094   -0.6666 C   0  0  0  0  0  0  0  0  0  0  0  0
   -3.8666   -0.7824   -0.5400 C   0  0  0  0  0  0  0  0  0  0  0  0
   -4.4896   -0.7382    0.7092 C   0  0  0  0  0  0  0  0  0  0  0  0
   -3.2687    1.1406    0.4866 C   0  0  0  0  0  0  0  0  0  0  0  0
   -2.2710    0.7898   -1.8308 C   0  0  0  0  0  0  0  0  0  0  0  0
   -0.8233    0.5763   -1.4408 C   0  0  0  0  0  0  0  0  0  0  0  0
   -4.0913   -1.8981   -1.3707 C   0  0  0  0  0  0  0  0  0  0  0  0
   -5.3295   -1.7579    1.1708 C   0  0  0  0  0  0  0  0  0  0  0  0
   -4.5355    0.8756    2.6244 C   0  0  0  0  0  0  0  0  0  0  0  0
   -2.6922    2.4101    0.8145 C   0  0  0  0  0  0  0  0  0  0  0  0
   -0.4657   -0.5884   -0.7851 C   0  0  0  0  0  0  0  0  0  0  0  0
    0.1087    1.5513   -1.7490 C   0  0  0  0  0  0  0  0  0  0  0  0
   -4.9290   -2.9258   -0.9220 C   0  0  0  0  0  0  0  0  0  0  0  0
   -5.5376   -2.8546    0.3295 C   0  0  0  0  0  0  0  0  0  0  0  0
    1.8215    0.1872   -0.7279 C   0  0  0  0  0  0  0  0  0  0  0  0
    0.8677   -0.7844   -0.4257 C   0  0  0  0  0  0  0  0  0  0  0  0
    1.4421    1.3550   -1.3896 C   0  0  0  0  0  0  0  0  0  0  0  0
    3.2049   -0.0163   -0.3559 C   0  0  0  0  0  0  0  0  0  0  0  0
    3.5202   -0.7735    0.7722 C   0  0  0  0  0  0  0  0  0  0  0  0
    4.2235    0.5450   -1.1260 C   0  0  0  0  0  0  0  0  0  0  0  0
    4.8540   -0.9696    1.1302 C   0  0  0  0  0  0  0  0  0  0  0  0
    5.5574    0.3489   -0.7683 C   0  0  0  0  0  0  0  0  0  0  0  0
    5.8727   -0.4085    0.3600 C   0  0  0  0  0  0  0  0  0  0  0  0
    7.2635   -0.6128    0.7325 C   0  0  0  0  0  0  0  0  0  0  0  0
  1 15  1  0
  2 15  2  0
  3 29  1  0
  4 29  2  0
  5  8  1  0
  5  9  1  0
  5 14  1  0
  6  7  1  0
  6  9  2  0
  6 10  1  0
  7  8  2  0
  7 12  1  0
  8 13  1  0
  9 15  1  0
 10 11  1  0
 11 16  2  0
 11 17  1  0
 12 18  2  0
 13 19  2  0
 16 21  1  0
 17 22  2  0
 18 19  1  0
 20 21  2  0
 20 22  1  0
 20 23  1  0
 23 24  2  0
 23 25  1  0
 24 26  1  0
 25 27  2  0
 26 28  2  0
 27 28  1  0
 28 29  1  0
M  END
>  <PUBCHEM_COMPOUND_CID>  (1) 
40941

>  <PUBCHEM_CONFORMER_RMSD>  (1) 
0.8

>  <PUBCHEM_CONFORMER_DIVERSEORDER>  (1) 
1
3
9
5
4
6
8
10
2
7

>  <PUBCHEM_MMFF94_PARTIAL_CHARGES>  (1) 
40
1 -0.65
10 0.32
11 -0.14
12 -0.15
13 -0.15
14 0.26
15 0.81
16 -0.15
17 -0.15
18 -0.15
19 -0.15
2 -0.57
21 -0.15
22 -0.15
24 -0.15
25 -0.15
26 -0.15
27 -0.15
28 0.09
29 0.63
3 -0.65
32 0.15
33 0.15
37 0.15
38 0.15
39 0.15
4 -0.57
40 0.15
41 0.15
42 0.15
43 0.15
44 0.15
45 0.5
46 0.15
47 0.15
48 0.5
5 0.05
6 -0.18
8 -0.15
9 -0.24

>  <PUBCHEM_EFFECTIVE_ROTOR_COUNT>  (1) 
5

>  <PUBCHEM_PHARMACOPHORE_FEATURES>  (1) 
11
1 1 acceptor
1 2 acceptor
1 3 acceptor
1 4 acceptor
1 5 cation
3 1 2 15 anion
3 3 4 29 anion
5 5 6 7 8 9 rings
6 11 16 17 20 21 22 rings
6 23 24 25 26 27 28 rings
6 7 8 12 13 18 19 rings

>  <PUBCHEM_HEAVY_ATOM_COUNT>  (1) 
29

>  <PUBCHEM_ATOM_DEF_STEREO_COUNT>  (1) 
0

>  <PUBCHEM_ATOM_UDEF_STEREO_COUNT>  (1) 
0

>  <PUBCHEM_BOND_DEF_STEREO_COUNT>  (1) 
0

>  <PUBCHEM_BOND_UDEF_STEREO_COUNT>  (1) 
0

>  <PUBCHEM_ISOTOPIC_ATOM_COUNT>  (1) 
0

>  <PUBCHEM_COMPONENT_COUNT>  (1) 
1

>  <PUBCHEM_CACTVS_TAUTO_COUNT>  (1) 
1

>  <PUBCHEM_CONFORMER_ID>  (1) 
00009FED00000001

>  <PUBCHEM_MMFF94_ENERGY>  (1) 
90.8464

>  <PUBCHEM_FEATURE_SELFOVERLAP>  (1) 
56.029

>  <PUBCHEM_SHAPE_FINGERPRINT>  (1) 
10 15 16271929328592153566
10319926 262 17703243839935344468
10369192 42 13182738190511660349
10554248 39 12463571773602174232
10674148 151 16008739226636648437
10930396 42 17989201530607033625
11007060 377 17603868940299430376
11135926 11 14273729608563989536
11200772 48 11458421336594374385
11315181 36 18186799179838611157
12166972 35 17896602963127915997
12596602 18 18410008862472410888
13583140 156 17560792195798655511
13782708 43 16660918882348168458
13862211 1 17894909650823342862
14068700 675 18336263552482163965
14705955 166 16845026658184737027
14844126 61 18342177778615984555
14849402 71 18198623427433613112
14856354 85 18202284744548808246
14950920 106 18201717392143002041
15064981 194 10015568546245844355
15163728 17 7997154356401263907
15188451 53 18411132580398717079
17349148 13 18114189665275720703
17627616 140 15068608388263163873
17780758 139 18412543202277214591
17913733 40 16415206671680861182
19377110 9 18410014368715397340
20028762 73 18336828692569284830
21033648 29 16487266442966137309
21130935 74 18262789676447948842
21315759 148 18060424586629493190
21814621 53 17059790914163193598
22393880 68 12540699274872209813
22956985 138 17552907839098804043
23389318 12 17240767328829628630
23522609 53 17824852000155187540
23559900 14 14418137373779734989
23569943 247 17681258968697275706
25025965 108 17314485116268672826
314194 84 17749111105981323054
328310 630 13038895677689216122
392239 28 18271535272537110569
4015057 19 16081377396335478397
4169191 19 12894482505094003234
469060 322 18058751163858993361
4938544 92 18340768131077884317
5104073 3 18272373117561773952
57527295 17 15647593633019163019
6431902 208 17312821563359040690
7226269 152 10663826294914053494
9953998 17 18131071528306810275

>  <PUBCHEM_SHAPE_MULTIPOLES>  (1) 
568.35
18.22
2.61
1.9
32.29
0.4
0.59
-10.9
7.32
-4.9
0.3
-1.34
0.54
-2.56

>  <PUBCHEM_SHAPE_SELFOVERLAP>  (1) 
1273.985

>  <PUBCHEM_SHAPE_VOLUME>  (1) 
302.9

>  <PUBCHEM_COORDINATE_TYPE>  (1) 
2
5
10

$$$$
