40959
     RDKit          3D

 17 19  0  0  1  0  0  0  0  0999 V2000
   -0.0001   -1.2920   -1.2840 S   0  0  0  0  0  0  0  0  0  0  0  0
    0.6307   -1.5856    1.3453 N   0  0  0  0  0  0  0  0  0  0  0  0
   -0.6304   -1.5858    1.3453 N   0  0  0  0  0  0  0  0  0  0  0  0
    4.1294    1.6626   -0.1721 N   0  0  0  0  0  0  0  0  0  0  0  0
   -4.1292    1.6631   -0.1724 N   0  0  0  0  0  0  0  0  0  0  0  0
    1.2543   -1.5119   -0.0027 C   0  0  0  0  0  0  0  0  0  0  0  0
   -1.2545   -1.5117   -0.0026 C   0  0  0  0  0  0  0  0  0  0  0  0
    2.2544   -0.4076   -0.0618 C   0  0  0  0  0  0  0  0  0  0  0  0
   -2.2542   -0.4080   -0.0615 C   0  0  0  0  0  0  0  0  0  0  0  0
    3.3730   -0.5219   -0.8798 C   0  0  0  0  0  0  0  0  0  0  0  0
   -3.3743   -0.5225   -0.8780 C   0  0  0  0  0  0  0  0  0  0  0  0
    2.0721    0.7405    0.7010 C   0  0  0  0  0  0  0  0  0  0  0  0
   -2.0711    0.7416    0.6995 C   0  0  0  0  0  0  0  0  0  0  0  0
    4.2726    0.5318   -0.8990 C   0  0  0  0  0  0  0  0  0  0  0  0
   -4.2737    0.5312   -0.8975 C   0  0  0  0  0  0  0  0  0  0  0  0
    3.0299    1.7376    0.6110 C   0  0  0  0  0  0  0  0  0  0  0  0
   -3.0288    1.7389    0.6094 C   0  0  0  0  0  0  0  0  0  0  0  0
  1  6  1  0
  1  7  1  0
  2  3  2  0
  2  6  1  0
  3  7  1  0
  4 14  2  0
  4 16  1  0
  5 15  2  0
  5 17  1  0
  6  8  1  0
  7  9  1  0
  8 10  2  0
  8 12  1  0
  9 11  2  0
  9 13  1  0
 10 14  1  0
 11 15  1  0
 12 16  2  0
 13 17  2  0
M  END
>  <PUBCHEM_COMPOUND_CID>  (1) 
40959

>  <PUBCHEM_CONFORMER_RMSD>  (1) 
0.6

>  <PUBCHEM_CONFORMER_DIVERSEORDER>  (1) 
1
4
2
9
10
7
11
12
3
6
5
8

>  <PUBCHEM_MMFF94_PARTIAL_CHARGES>  (1) 
25
1 -0.46
10 -0.15
11 -0.15
12 -0.15
13 -0.15
14 0.16
15 0.16
16 0.16
17 0.16
2 -0.25
20 0.15
21 0.15
22 0.15
23 0.15
24 0.15
25 0.15
26 0.15
27 0.15
3 -0.25
4 -0.62
5 -0.62
6 0.62
7 0.62
8 -0.14
9 -0.14

>  <PUBCHEM_EFFECTIVE_ROTOR_COUNT>  (1) 
2.6

>  <PUBCHEM_PHARMACOPHORE_FEATURES>  (1) 
5
1 4 acceptor
1 5 acceptor
5 1 2 3 6 7 rings
6 4 8 10 12 14 16 rings
6 5 9 11 13 15 17 rings

>  <PUBCHEM_HEAVY_ATOM_COUNT>  (1) 
17

>  <PUBCHEM_ATOM_DEF_STEREO_COUNT>  (1) 
0

>  <PUBCHEM_ATOM_UDEF_STEREO_COUNT>  (1) 
2

>  <PUBCHEM_BOND_DEF_STEREO_COUNT>  (1) 
0

>  <PUBCHEM_BOND_UDEF_STEREO_COUNT>  (1) 
0

>  <PUBCHEM_ISOTOPIC_ATOM_COUNT>  (1) 
0

>  <PUBCHEM_COMPONENT_COUNT>  (1) 
1

>  <PUBCHEM_CACTVS_TAUTO_COUNT>  (1) 
1

>  <PUBCHEM_CONFORMER_ID>  (1) 
00009FFF00000001

>  <PUBCHEM_MMFF94_ENERGY>  (1) 
47.6213

>  <PUBCHEM_FEATURE_SELFOVERLAP>  (1) 
25.373

>  <PUBCHEM_SHAPE_FINGERPRINT>  (1) 
10498660 4 18410287004301486949
11543360 7 17703504480099555175
11769659 78 9223227451260567007
12006461 19 9511454528929961181
122479 349 18334016133255636646
12363563 72 12391513096150695742
12382932 28 12612749107809145219
12506688 2 7781515910488118222
12670546 177 17131829914759657015
12788726 201 17828757683820079410
12892183 10 12973606633696303927
13464514 151 18339372850927361338
13544653 18 8502653688308192490
13764800 53 18041569146927691794
14350558 41 8934993797927482598
14787075 74 17972879439211634187
15775835 57 18335985281134428541
1813 80 17611169478307198434
18186145 218 18410294692023414604
193927 3 10663817520216291853
200 152 15123518007934464678
20291156 8 9727638310238868044
20361792 2 12751238116366049179
204376 136 17675928698473562571
20671657 1 18263636286435071114
20671657 53 13686293565114046147
21524375 3 18335979796414063098
21713013 43 15984812779341701061
221357 26 18060421313300060253
22182937 141 18336839674847191721
22646028 28 10663817481408455749
231179 274 18260827068606447012
23402655 69 18131354102832266532
23557571 272 18269000954307330599
23559900 14 18059289851648206158
25 1 18408608041587527834
2637199 183 18342745078495349406
26918003 58 11025782228584845918
3082319 5 17847059969512115543
351380 180 18342453742637788988
4028521 119 18411980277840610381
449060 23 11095884856346308383
474 4 18186804690218302853
633830 44 18408040684628311487
76465 3 11887686026681735028
83771 10 9727633903670961582
9981440 41 18337099189645919666

>  <PUBCHEM_SHAPE_MULTIPOLES>  (1) 
333.78
8.37
2.04
1.18
0
0.32
-0.1
4.74
2.61
0
-0.29
0
-0.35
0

>  <PUBCHEM_SHAPE_SELFOVERLAP>  (1) 
711.852

>  <PUBCHEM_SHAPE_VOLUME>  (1) 
186

>  <PUBCHEM_COORDINATE_TYPE>  (1) 
2
5
10

$$$$
