40954
     RDKit          3D

 16 18  0  0  0  0  0  0  0  0999 V2000
   -5.0738    0.8839   -0.0241 Br  0  0  0  0  0  0  0  0  0  0  0  0
    0.4456   -1.6055    0.0306 N   0  0  0  0  0  0  0  0  0  0  0  0
    0.1131    2.5761   -0.0358 N   0  0  0  0  0  0  0  0  0  0  0  0
    3.9947    0.6866    0.3333 C   0  0  0  0  0  0  0  0  0  0  0  0
    2.7192    1.4373   -0.0470 C   0  0  0  0  0  0  0  0  0  0  0  0
    4.0493   -0.6654   -0.3684 C   0  0  0  0  0  0  0  0  0  0  0  0
    1.4877    0.5757    0.0067 C   0  0  0  0  0  0  0  0  0  0  0  0
    2.8721   -1.5352    0.0665 C   0  0  0  0  0  0  0  0  0  0  0  0
    1.5500   -0.8156    0.0139 C   0  0  0  0  0  0  0  0  0  0  0  0
    0.2213    1.1604   -0.0142 C   0  0  0  0  0  0  0  0  0  0  0  0
   -0.9320    0.3663   -0.0040 C   0  0  0  0  0  0  0  0  0  0  0  0
   -0.7711   -1.0314    0.0194 C   0  0  0  0  0  0  0  0  0  0  0  0
   -2.2181    0.9330   -0.0182 C   0  0  0  0  0  0  0  0  0  0  0  0
   -1.9162   -1.8233    0.0306 C   0  0  0  0  0  0  0  0  0  0  0  0
   -3.3468    0.1188   -0.0070 C   0  0  0  0  0  0  0  0  0  0  0  0
   -3.1951   -1.2618    0.0178 C   0  0  0  0  0  0  0  0  0  0  0  0
  1 15  1  0
  2  9  2  0
  2 12  1  0
  3 10  1  0
  4  5  1  0
  4  6  1  0
  5  7  1  0
  6  8  1  0
  7  9  1  0
  7 10  2  0
  8  9  1  0
 10 11  1  0
 11 12  2  0
 11 13  1  0
 12 14  1  0
 13 15  2  0
 14 16  2  0
 15 16  1  0
M  END
>  <PUBCHEM_COMPOUND_CID>  (1) 
40954

>  <PUBCHEM_CONFORMER_RMSD>  (1) 
0.4

>  <PUBCHEM_CONFORMER_DIVERSEORDER>  (1) 
1

>  <PUBCHEM_MMFF94_PARTIAL_CHARGES>  (1) 
18
1 -0.11
10 0.1
12 0.31
13 -0.15
14 -0.15
15 0.11
16 -0.15
2 -0.62
25 0.15
26 0.15
27 0.4
28 0.4
29 0.15
3 -0.9
5 0.14
7 -0.14
8 0.14
9 0.17

>  <PUBCHEM_EFFECTIVE_ROTOR_COUNT>  (1) 
0.8

>  <PUBCHEM_PHARMACOPHORE_FEATURES>  (1) 
7
1 1 hydrophobe
1 2 acceptor
1 3 cation
1 3 donor
6 11 12 13 14 15 16 rings
6 2 7 9 10 11 12 rings
6 4 5 6 7 8 9 rings

>  <PUBCHEM_HEAVY_ATOM_COUNT>  (1) 
16

>  <PUBCHEM_ATOM_DEF_STEREO_COUNT>  (1) 
0

>  <PUBCHEM_ATOM_UDEF_STEREO_COUNT>  (1) 
0

>  <PUBCHEM_BOND_DEF_STEREO_COUNT>  (1) 
0

>  <PUBCHEM_BOND_UDEF_STEREO_COUNT>  (1) 
0

>  <PUBCHEM_ISOTOPIC_ATOM_COUNT>  (1) 
0

>  <PUBCHEM_COMPONENT_COUNT>  (1) 
1

>  <PUBCHEM_CACTVS_TAUTO_COUNT>  (1) 
8

>  <PUBCHEM_CONFORMER_ID>  (1) 
00009FFA00000001

>  <PUBCHEM_MMFF94_ENERGY>  (1) 
53.1096

>  <PUBCHEM_FEATURE_SELFOVERLAP>  (1) 
35.576

>  <PUBCHEM_SHAPE_FINGERPRINT>  (1) 
10062212 137 18338507633818040723
10411042 1 15888557821201139659
10608611 8 18410852195995461720
10967382 1 18410573955197631754
11132069 177 18411132554349065432
11401426 45 18341608226564313697
11471102 20 18411416198194550781
12032990 46 18410580603901983970
13140716 1 18410005555062697962
13221675 6 18409729564521730147
13380535 76 18411700989165933015
13675066 3 18259990392045145865
13862211 1 18410568462266905967
14115302 16 18187376432001291294
14144814 61 18410856572572326802
14911166 2 18410858728651138767
15099037 51 18409728439794037317
15196674 1 18410856594004835175
15219456 202 18411982485343004618
15375358 24 18413950585476610247
15442244 35 18267022748141719954
15536298 74 18343302582831146458
16945 1 18266175024439204242
17804303 29 18411704313269926181
18186145 218 17967245407948626134
193761 8 17689997834329453703
200 152 17917987296130946303
20510252 161 18200030629568486568
20645477 70 18343018857033513007
21029758 11 18343297063814404721
21267235 1 18410865347159091211
21501502 16 18265334091417632895
221490 88 18191875732292870003
2334 1 18338517546628745258
23402539 116 18272643549981920063
23402655 69 18342455945602493157
23463225 33 18409166623464036142
23559900 14 18413950590420222536
2748010 2 18411138064892436902
335352 9 18410856516700718518
34934 24 18410848876128140730
495365 180 17489291010674214104
5104073 3 18409729590365342419
528886 8 18411412925445392994
537710 114 18410298007896734564
53812653 166 18341890835354563376
69090 78 18342452643131539943
7364860 26 18125439958519635088
7832392 63 18340483460449858911
8809292 202 18261116300231063595
9709674 26 18339366360973665086

>  <PUBCHEM_SHAPE_MULTIPOLES>  (1) 
325.25
8.04
2.05
0.63
2.77
0.2
0
0.73
0.07
-0.1
-0.01
-0.02
0
0.11

>  <PUBCHEM_SHAPE_SELFOVERLAP>  (1) 
702.706

>  <PUBCHEM_SHAPE_VOLUME>  (1) 
183.1

>  <PUBCHEM_COORDINATE_TYPE>  (1) 
2
5
10

$$$$
