40953
     RDKit          3D

 14 14  0  0  0  0  0  0  0  0999 V2000
    2.2435   -0.1408   -0.5658 O   0  0  0  0  0  0  0  0  0  0  0  0
   -3.7826    1.4022    0.2459 O   0  0  0  0  0  0  0  0  0  0  0  0
   -3.9425   -0.7862    0.3137 O   0  0  0  0  0  0  0  0  0  0  0  0
    0.7155   -2.4891   -0.3013 N   0  0  0  0  0  0  0  0  0  0  0  0
   -3.2620    0.2615    0.1966 N   0  0  0  0  0  0  0  0  0  0  0  0
    3.0722    0.4779    0.4158 C   0  0  0  0  0  0  0  0  0  0  0  0
    0.8958   -0.0590   -0.3785 C   0  0  0  0  0  0  0  0  0  0  0  0
    0.1196   -1.2102   -0.2453 C   0  0  0  0  0  0  0  0  0  0  0  0
    3.9497   -0.5792    1.0686 C   0  0  0  0  0  0  0  0  0  0  0  0
    3.8981    1.5718   -0.2437 C   0  0  0  0  0  0  0  0  0  0  0  0
    0.2943    1.1982   -0.3215 C   0  0  0  0  0  0  0  0  0  0  0  0
   -1.2583   -1.1042   -0.0552 C   0  0  0  0  0  0  0  0  0  0  0  0
   -1.8597    0.1530    0.0019 C   0  0  0  0  0  0  0  0  0  0  0  0
   -1.0835    1.3042   -0.1312 C   0  0  0  0  0  0  0  0  0  0  0  0
  1  6  1  0
  1  7  1  0
  2  5  1  0
  3  5  2  0
  4  8  1  0
  5 13  1  0
  6  9  1  0
  6 10  1  0
  7  8  2  0
  7 11  1  0
  8 12  1  0
 11 14  2  0
 12 13  2  0
 13 14  1  0
M  CHG  2   2  -1   5   1
M  END
>  <PUBCHEM_COMPOUND_CID>  (1) 
40953

>  <PUBCHEM_CONFORMER_RMSD>  (1) 
0.6

>  <PUBCHEM_CONFORMER_DIVERSEORDER>  (1) 
2
5
3
4
1

>  <PUBCHEM_MMFF94_PARTIAL_CHARGES>  (1) 
17
1 -0.36
11 -0.15
12 -0.15
13 0.13
14 -0.15
2 -0.52
22 0.15
23 0.15
24 0.15
25 0.4
26 0.4
3 -0.52
4 -0.9
5 0.91
6 0.28
7 0.08
8 0.1

>  <PUBCHEM_EFFECTIVE_ROTOR_COUNT>  (1) 
3

>  <PUBCHEM_PHARMACOPHORE_FEATURES>  (1) 
8
1 1 acceptor
1 2 acceptor
1 2 anion
1 3 acceptor
1 4 cation
1 4 donor
3 6 9 10 hydrophobe
6 7 8 11 12 13 14 rings

>  <PUBCHEM_HEAVY_ATOM_COUNT>  (1) 
14

>  <PUBCHEM_ATOM_DEF_STEREO_COUNT>  (1) 
0

>  <PUBCHEM_ATOM_UDEF_STEREO_COUNT>  (1) 
0

>  <PUBCHEM_BOND_DEF_STEREO_COUNT>  (1) 
0

>  <PUBCHEM_BOND_UDEF_STEREO_COUNT>  (1) 
0

>  <PUBCHEM_ISOTOPIC_ATOM_COUNT>  (1) 
0

>  <PUBCHEM_COMPONENT_COUNT>  (1) 
1

>  <PUBCHEM_CACTVS_TAUTO_COUNT>  (1) 
1

>  <PUBCHEM_CONFORMER_ID>  (1) 
00009FF900000002

>  <PUBCHEM_MMFF94_ENERGY>  (1) 
55.2996

>  <PUBCHEM_FEATURE_SELFOVERLAP>  (1) 
40.676

>  <PUBCHEM_SHAPE_FINGERPRINT>  (1) 
10219947 1 18334577949079274420
11132069 177 18342171159195428056
11543360 7 14836113381889431917
12119455 92 17275097310904208628
12251169 10 18335693949766877912
12382932 28 18410860936522681265
13380535 76 18410011031140920067
14325111 11 18411139138454906284
15219456 202 18192144893719383077
15536298 74 18200596878088329038
15669948 3 18269270347683046702
15775835 57 18409166645144724520
16945 1 18409459067755578917
17846911 113 18343860013493266136
18186145 218 17774737375949858828
19026448 4 15482673506511129980
193761 8 17762620590234326212
20510252 161 18272656744190479928
20645476 183 17751378363419431590
23402539 116 18272640260058083316
23402655 69 18269824325967115429
23463225 33 18333728005448359474
23559900 14 18201167585543536372
2748010 2 18048602516915667869
4072396 5 18335688408889787939
42 15 18040431066957548338
449060 62 18271530805586259017
53812653 166 18272086080596763337
633830 44 18201442454164583740
7364860 26 18056480539124943582

>  <PUBCHEM_SHAPE_MULTIPOLES>  (1) 
260.54
6.93
1.8
0.75
0.27
0.51
-0.06
-1.79
-1.71
0.17
0.17
0.4
0.05
-0.31

>  <PUBCHEM_SHAPE_SELFOVERLAP>  (1) 
536.515

>  <PUBCHEM_SHAPE_VOLUME>  (1) 
151.6

>  <PUBCHEM_COORDINATE_TYPE>  (1) 
2
5
10

$$$$
