40975
     RDKit          3D

 11 11  0  0  0  0  0  0  0  0999 V2000
   -2.5746   -1.2749    0.1194 O   0  0  0  0  0  0  0  0  0  0  0  0
   -2.2952    2.0162   -0.7384 O   0  0  0  0  0  0  0  0  0  0  0  0
    3.3194    1.2284    0.0642 O   0  0  0  0  0  0  0  0  0  0  0  0
   -0.8628    0.3981    0.2546 C   0  0  0  0  0  0  0  0  0  0  0  0
    0.4897    0.7358    0.2036 C   0  0  0  0  0  0  0  0  0  0  0  0
   -1.2579   -0.9273    0.0728 C   0  0  0  0  0  0  0  0  0  0  0  0
    1.4469   -0.2517   -0.0292 C   0  0  0  0  0  0  0  0  0  0  0  0
   -1.8740    1.4680    0.5040 C   0  0  0  0  0  0  0  0  0  0  0  0
   -0.3005   -1.9148   -0.1600 C   0  0  0  0  0  0  0  0  0  0  0  0
    1.0519   -1.5770   -0.2110 C   0  0  0  0  0  0  0  0  0  0  0  0
    2.8572    0.0992   -0.0799 C   0  0  0  0  0  0  0  0  0  0  0  0
  1  6  1  0
  2  8  1  0
  3 11  2  0
  4  5  2  0
  4  6  1  0
  4  8  1  0
  5  7  1  0
  6  9  2  0
  7 10  2  0
  7 11  1  0
  9 10  1  0
M  END
>  <PUBCHEM_COMPOUND_CID>  (1) 
40975

>  <PUBCHEM_CONFORMER_RMSD>  (1) 
0.4

>  <PUBCHEM_CONFORMER_DIVERSEORDER>  (1) 
1
4
8
5
2
3
7
6

>  <PUBCHEM_MMFF94_PARTIAL_CHARGES>  (1) 
17
1 -0.53
10 -0.15
11 0.42
12 0.15
15 0.15
16 0.15
17 0.06
18 0.45
19 0.4
2 -0.68
3 -0.57
4 -0.14
5 -0.15
6 0.08
7 0.09
8 0.42
9 -0.15

>  <PUBCHEM_EFFECTIVE_ROTOR_COUNT>  (1) 
2

>  <PUBCHEM_PHARMACOPHORE_FEATURES>  (1) 
5
1 1 donor
1 2 acceptor
1 2 donor
1 3 acceptor
6 4 5 6 7 9 10 rings

>  <PUBCHEM_HEAVY_ATOM_COUNT>  (1) 
11

>  <PUBCHEM_ATOM_DEF_STEREO_COUNT>  (1) 
0

>  <PUBCHEM_ATOM_UDEF_STEREO_COUNT>  (1) 
0

>  <PUBCHEM_BOND_DEF_STEREO_COUNT>  (1) 
0

>  <PUBCHEM_BOND_UDEF_STEREO_COUNT>  (1) 
0

>  <PUBCHEM_ISOTOPIC_ATOM_COUNT>  (1) 
0

>  <PUBCHEM_COMPONENT_COUNT>  (1) 
1

>  <PUBCHEM_CACTVS_TAUTO_COUNT>  (1) 
5

>  <PUBCHEM_CONFORMER_ID>  (1) 
0000A00F00000001

>  <PUBCHEM_MMFF94_ENERGY>  (1) 
25.1126

>  <PUBCHEM_FEATURE_SELFOVERLAP>  (1) 
25.371

>  <PUBCHEM_SHAPE_FINGERPRINT>  (1) 
11206711 2 18341048605142020861
13380535 21 18268728128966985771
13380535 76 18339355241234335119
14325111 11 18411984659065811928
14614273 12 18408319977940938245
16945 1 18338237192606928314
193761 8 18267587913982034067
20871998 184 17985556777682331534
21040471 1 18339645512309238850
21501502 16 18339077086293802531
23402655 69 18270949160658355821
23552423 10 18336551508248552170
23559900 14 18129955477788749046
2748010 2 18340778035108581398
5084963 1 18130513027881537034
6333449 129 18413106164809842456

>  <PUBCHEM_SHAPE_MULTIPOLES>  (1) 
208.77
3.93
2.07
0.67
1.75
0.18
0.02
-1.67
0.13
-0.84
0.17
-0.14
-0.1
0.23

>  <PUBCHEM_SHAPE_SELFOVERLAP>  (1) 
436.24

>  <PUBCHEM_SHAPE_VOLUME>  (1) 
118.5

>  <PUBCHEM_COORDINATE_TYPE>  (1) 
2
5
10

$$$$
