40989
     RDKit          3D

 12 12  0  0  0  0  0  0  0  0999 V2000
    4.6007   -0.0133   -0.3943 Br  0  0  0  0  0  0  0  0  0  0  0  0
   -4.1816   -0.0316   -1.1242 Cl  0  0  0  0  0  0  0  0  0  0  0  0
   -1.7706    0.0122    0.4361 S   0  0  0  0  0  0  0  0  0  0  0  0
   -2.1609   -1.2389    1.0742 O   0  0  0  0  0  0  0  0  0  0  0  0
   -2.1301    1.2822    1.0533 O   0  0  0  0  0  0  0  0  0  0  0  0
   -0.0398    0.0053    0.2095 C   0  0  0  0  0  0  0  0  0  0  0  0
   -2.4180   -0.0078   -1.2231 C   0  0  0  0  0  0  0  0  0  0  0  0
    0.6546    1.2103    0.1034 C   0  0  0  0  0  0  0  0  0  0  0  0
    0.6490   -1.2055    0.1358 C   0  0  0  0  0  0  0  0  0  0  0  0
    2.0378    1.2046   -0.0765 C   0  0  0  0  0  0  0  0  0  0  0  0
    2.0323   -1.2113   -0.0440 C   0  0  0  0  0  0  0  0  0  0  0  0
    2.7267   -0.0061   -0.1502 C   0  0  0  0  0  0  0  0  0  0  0  0
  1 12  1  0
  2  7  1  0
  3  4  2  0
  3  5  2  0
  3  6  1  0
  3  7  1  0
  6  8  2  0
  6  9  1  0
  8 10  1  0
  9 11  2  0
 10 12  2  0
 11 12  1  0
M  END
>  <PUBCHEM_COMPOUND_CID>  (1) 
40989

>  <PUBCHEM_CONFORMER_RMSD>  (1) 
0.6

>  <PUBCHEM_CONFORMER_DIVERSEORDER>  (1) 
1
2
3

>  <PUBCHEM_MMFF94_PARTIAL_CHARGES>  (1) 
16
1 -0.11
10 -0.15
11 -0.15
12 0.11
15 0.15
16 0.15
17 0.15
18 0.15
2 -0.29
3 1.2
4 -0.65
5 -0.65
6 -0.01
7 0.4
8 -0.15
9 -0.15

>  <PUBCHEM_EFFECTIVE_ROTOR_COUNT>  (1) 
2

>  <PUBCHEM_PHARMACOPHORE_FEATURES>  (1) 
4
1 1 hydrophobe
1 4 acceptor
1 5 acceptor
6 6 8 9 10 11 12 rings

>  <PUBCHEM_HEAVY_ATOM_COUNT>  (1) 
12

>  <PUBCHEM_ATOM_DEF_STEREO_COUNT>  (1) 
0

>  <PUBCHEM_ATOM_UDEF_STEREO_COUNT>  (1) 
0

>  <PUBCHEM_BOND_DEF_STEREO_COUNT>  (1) 
0

>  <PUBCHEM_BOND_UDEF_STEREO_COUNT>  (1) 
0

>  <PUBCHEM_ISOTOPIC_ATOM_COUNT>  (1) 
0

>  <PUBCHEM_COMPONENT_COUNT>  (1) 
1

>  <PUBCHEM_CACTVS_TAUTO_COUNT>  (1) 
1

>  <PUBCHEM_CONFORMER_ID>  (1) 
0000A01D00000001

>  <PUBCHEM_MMFF94_ENERGY>  (1) 
16.4715

>  <PUBCHEM_FEATURE_SELFOVERLAP>  (1) 
20.315

>  <PUBCHEM_SHAPE_FINGERPRINT>  (1) 
11401426 45 18411973676913485916
12032990 46 18339094743526751090
12138202 97 17530957003830137595
124424 183 17749385953881433826
12500047 106 16877939460060378658
12932764 1 17203614769905738266
14325111 11 18411147947986672904
14576447 43 18130211740083800127
14911166 2 18409448094340965086
14943859 89 15936405628698259325
14993402 34 18202561782961153022
15775835 57 17023178323197153227
16945 1 18343026613970867314
18186145 218 18114194038100937228
19026448 4 15864079762829774536
19026448 5 15985112916188624234
200 152 18202559596838571439
20201158 50 18334011679121472946
20279233 1 17894351064160892650
20645477 56 16732983119787575015
20645477 70 18187641345727195650
21119208 17 18059848476484488981
21256008 61 17989199365421230860
21293036 1 18408599266631576230
23402539 116 17632856412723899445
23402655 69 18338224965251794453
23557571 272 16950576500941776007
23559900 14 18337682988351270348
25 1 18114733837932706703
2748010 2 18122069968528731848
3248919 1 18409733949846707410
5084963 1 17822581632273915720
528886 8 18410014316827357368
8030462 33 18343585131143544753

>  <PUBCHEM_SHAPE_MULTIPOLES>  (1) 
246.88
7.19
1.3
1.04
1.09
0.01
-0.07
-0.07
-2.38
0.21
0.23
-0.94
0
-0.02

>  <PUBCHEM_SHAPE_SELFOVERLAP>  (1) 
471.601

>  <PUBCHEM_SHAPE_VOLUME>  (1) 
156

>  <PUBCHEM_COORDINATE_TYPE>  (1) 
2
5
10

$$$$
