40987
     RDKit          3D

 23 25  0  0  1  0  0  0  0  0999 V2000
    3.3835   -3.3927   -0.7965 O   0  0  0  0  0  0  0  0  0  0  0  0
   -3.9412   -0.0645   -1.4866 O   0  0  0  0  0  0  0  0  0  0  0  0
    2.5824   -1.8738    0.7132 N   0  0  0  0  0  0  0  0  0  0  0  0
   -3.4907    0.0833    0.8175 N   0  0  0  0  0  0  0  0  0  0  0  0
   -6.5858    0.2645   -1.1510 N   0  0  0  0  0  0  0  0  0  0  0  0
    2.1678   -0.5288    1.1059 C   0  0  0  0  0  0  0  0  0  0  0  0
    2.9305    0.5497    0.3750 C   0  0  0  0  0  0  0  0  0  0  0  0
    3.5370    0.2646   -0.8563 C   0  0  0  0  0  0  0  0  0  0  0  0
    0.6604   -0.3653    1.0292 C   0  0  0  0  0  0  0  0  0  0  0  0
    3.4154   -1.1017   -1.4696 C   0  0  0  0  0  0  0  0  0  0  0  0
    3.1401   -2.2230   -0.4948 C   0  0  0  0  0  0  0  0  0  0  0  0
    3.0259    1.8429    0.9110 C   0  0  0  0  0  0  0  0  0  0  0  0
    4.2143    1.2810   -1.5442 C   0  0  0  0  0  0  0  0  0  0  0  0
   -0.0769   -0.1790    2.1956 C   0  0  0  0  0  0  0  0  0  0  0  0
    0.0215   -0.4028   -0.2078 C   0  0  0  0  0  0  0  0  0  0  0  0
    3.7134    2.8434    0.2253 C   0  0  0  0  0  0  0  0  0  0  0  0
    4.3059    2.5630   -1.0028 C   0  0  0  0  0  0  0  0  0  0  0  0
   -1.4620   -0.0294    2.1250 C   0  0  0  0  0  0  0  0  0  0  0  0
   -1.3636   -0.2531   -0.2786 C   0  0  0  0  0  0  0  0  0  0  0  0
   -2.1053   -0.0663    0.8878 C   0  0  0  0  0  0  0  0  0  0  0  0
   -4.3100    0.0747   -0.3248 C   0  0  0  0  0  0  0  0  0  0  0  0
   -5.7678    0.2722    0.0533 C   0  0  0  0  0  0  0  0  0  0  0  0
   -7.9948    0.4414   -0.8258 C   0  0  0  0  0  0  0  0  0  0  0  0
  1 11  2  0
  2 21  2  0
  3  6  1  0
  3 11  1  0
  4 20  1  0
  4 21  1  0
  5 22  1  0
  5 23  1  0
  6  7  1  0
  6  9  1  0
  7  8  2  0
  7 12  1  0
  8 10  1  0
  8 13  1  0
  9 14  2  0
  9 15  1  0
 10 11  1  0
 12 16  2  0
 13 17  2  0
 14 18  1  0
 15 19  2  0
 16 17  1  0
 18 20  2  0
 19 20  1  0
 21 22  1  0
M  END
>  <PUBCHEM_COMPOUND_CID>  (1) 
40987

>  <PUBCHEM_CONFORMER_RMSD>  (1) 
0.8

>  <PUBCHEM_CONFORMER_DIVERSEORDER>  (1) 
1
14
19
16
7
12
2
8
15
9
18
11
6
5
3
17
4
10
13

>  <PUBCHEM_MMFF94_PARTIAL_CHARGES>  (1) 
34
1 -0.57
10 0.2
11 0.57
12 -0.15
13 -0.15
14 -0.15
15 -0.15
16 -0.15
17 -0.15
18 -0.15
19 -0.15
2 -0.57
20 0.12
21 0.57
22 0.33
23 0.27
27 0.37
28 0.15
29 0.15
3 -0.73
30 0.15
31 0.15
32 0.15
33 0.15
34 0.15
35 0.15
36 0.37
39 0.36
4 -0.55
5 -0.9
6 0.59
7 -0.14
8 -0.14
9 -0.14

>  <PUBCHEM_EFFECTIVE_ROTOR_COUNT>  (1) 
5.6

>  <PUBCHEM_PHARMACOPHORE_FEATURES>  (1) 
9
1 1 acceptor
1 2 acceptor
1 3 donor
1 4 donor
1 5 cation
1 5 donor
6 3 6 7 8 10 11 rings
6 7 8 12 13 16 17 rings
6 9 14 15 18 19 20 rings

>  <PUBCHEM_HEAVY_ATOM_COUNT>  (1) 
23

>  <PUBCHEM_ATOM_DEF_STEREO_COUNT>  (1) 
0

>  <PUBCHEM_ATOM_UDEF_STEREO_COUNT>  (1) 
1

>  <PUBCHEM_BOND_DEF_STEREO_COUNT>  (1) 
0

>  <PUBCHEM_BOND_UDEF_STEREO_COUNT>  (1) 
0

>  <PUBCHEM_ISOTOPIC_ATOM_COUNT>  (1) 
0

>  <PUBCHEM_COMPONENT_COUNT>  (1) 
1

>  <PUBCHEM_CACTVS_TAUTO_COUNT>  (1) 
4

>  <PUBCHEM_CONFORMER_ID>  (1) 
0000A01B00000001

>  <PUBCHEM_MMFF94_ENERGY>  (1) 
64.6786

>  <PUBCHEM_FEATURE_SELFOVERLAP>  (1) 
45.693

>  <PUBCHEM_SHAPE_FINGERPRINT>  (1) 
10498660 4 18263654029198028936
10670039 82 15719957886978643327
10693767 8 17773333257543554262
11135609 127 18200299039371077929
11796584 16 16487246716819501167
12661589 4 15339111386043533565
12730499 353 18336839683358095882
13009979 54 17129883616582172314
13150687 139 17130998723621516932
13533116 47 18342739585717630495
13965767 371 13840551830188346038
14170010 4 18335978706309638402
14211702 104 12462703210829641709
14528608 73 18412261770377017853
15183329 4 17132119022827318697
15475509 35 12031797945723437540
15664445 248 16844716676977203128
15842332 3 17487361290537320514
16752209 62 16128388038072240378
17844677 252 18336546011217713189
18222031 100 14908180872048598035
18335252 98 18337396054202646699
20157964 124 18410573998426853677
20505436 4 11891920297505358194
20645477 70 18409455760668125906
21304303 282 17410472696448071182
21304303 94 17346888861920447982
21521239 73 17060075761179725396
22149856 69 15647619940089892581
22289505 5 18334296465813666916
23016692 55 15770062743994705193
23081809 10 17775286046128603089
23522609 53 17488765449202837601
23557571 272 17314251009963412298
23559900 14 16515691013589154498
238 59 18341065094112476114
3004659 81 17418094291238511599
3060560 45 18342748459510369748
312423 11 17988376870335597795
312425 54 10375867511720379013
341906 21 15936695946822812809
3472631 163 16878231986019545020
34797466 226 18333168367415838039
4072396 5 13912315781606746097
44317340 157 18333736823338192435
46194498 28 18337106770036083663
465052 167 12535353423695246689
495365 180 17967531276967011858
5104073 3 15141788507434958465
5281201 14 18337671906154225477
59682541 52 18341044134692872095
6025842 7 18413671305381344246
6327066 14 18048037656240837852
633830 44 18260831445536701041
70251023 43 18265897943219585154
7164475 11 17916027858582757240
7471813 234 18128263294527278946
960060 61 17847059995487673609
9658208 31 16732994123852698555

>  <PUBCHEM_SHAPE_MULTIPOLES>  (1) 
446.65
14.31
2.35
1.74
33.84
0.39
0.48
-5.09
-7.73
-5.61
-0.59
-0.03
0.06
0.5

>  <PUBCHEM_SHAPE_SELFOVERLAP>  (1) 
959.888

>  <PUBCHEM_SHAPE_VOLUME>  (1) 
244.4

>  <PUBCHEM_COORDINATE_TYPE>  (1) 
2
5
10

$$$$
