40996
     RDKit          3D

 20 22  0  0  0  0  0  0  0  0999 V2000
    0.2927   -0.7212    0.6765 O   0  0  0  0  0  0  0  0  0  0  0  0
   -3.2703   -0.0249   -0.0193 N   0  0  0  0  0  0  0  0  0  0  0  0
    1.7294    0.4191   -0.9327 C   0  0  0  0  0  0  0  0  0  0  0  0
    2.6668   -1.2155    0.7426 C   0  0  0  0  0  0  0  0  0  0  0  0
    3.1721    1.2461    0.9644 C   0  0  0  0  0  0  0  0  0  0  0  0
    4.2021   -0.0872   -0.9127 C   0  0  0  0  0  0  0  0  0  0  0  0
    1.4495   -0.8724   -0.1396 C   0  0  0  0  0  0  0  0  0  0  0  0
    1.9661    1.5690    0.0627 C   0  0  0  0  0  0  0  0  0  0  0  0
    2.9906    0.2422   -1.8019 C   0  0  0  0  0  0  0  0  0  0  0  0
    2.9003   -0.0604    1.7327 C   0  0  0  0  0  0  0  0  0  0  0  0
    3.9226   -1.3851   -0.1351 C   0  0  0  0  0  0  0  0  0  0  0  0
    4.4224    1.0625    0.0862 C   0  0  0  0  0  0  0  0  0  0  0  0
   -0.8588   -0.4319   -0.1033 C   0  0  0  0  0  0  0  0  0  0  0  0
   -2.0642   -0.2897    0.8049 C   0  0  0  0  0  0  0  0  0  0  0  0
   -3.1156    1.2836   -0.8062 C   0  0  0  0  0  0  0  0  0  0  0  0
   -3.5034   -1.1615   -1.0238 C   0  0  0  0  0  0  0  0  0  0  0  0
   -4.5189    0.0946    0.8650 C   0  0  0  0  0  0  0  0  0  0  0  0
   -4.3768    1.5385   -1.6021 C   0  0  0  0  0  0  0  0  0  0  0  0
   -3.6595   -2.4658   -0.2730 C   0  0  0  0  0  0  0  0  0  0  0  0
   -4.3472    1.2598    1.8147 C   0  0  0  0  0  0  0  0  0  0  0  0
  1  7  1  0
  1 13  1  0
  2 14  1  0
  2 15  1  0
  2 16  1  0
  2 17  1  0
  3  7  1  0
  3  8  1  0
  3  9  1  0
  4  7  1  0
  4 10  1  0
  4 11  1  0
  5  8  1  0
  5 10  1  0
  5 12  1  0
  6  9  1  0
  6 11  1  0
  6 12  1  0
 13 14  1  0
 15 18  1  0
 16 19  1  0
 17 20  1  0
M  CHG  1   2   1
M  END
>  <PUBCHEM_COMPOUND_CID>  (1) 
40996

>  <PUBCHEM_CONFORMER_RMSD>  (1) 
0.8

>  <PUBCHEM_CONFORMER_DIVERSEORDER>  (1) 
1
25
12
30
2
28
6
11
19
27
3
22
13
7
26
14
9
31
5
17
29
10
8
20
18
4
24
15
23
16
21

>  <PUBCHEM_MMFF94_PARTIAL_CHARGES>  (1) 
8
1 -0.56
13 0.28
14 0.5
15 0.5
16 0.5
17 0.5
2 -1.01
7 0.28

>  <PUBCHEM_EFFECTIVE_ROTOR_COUNT>  (1) 
8.2

>  <PUBCHEM_PHARMACOPHORE_FEATURES>  (1) 
6
1 1 acceptor
1 2 cation
6 3 4 5 7 8 10 rings
6 3 4 6 7 9 11 rings
6 3 5 6 8 9 12 rings
6 4 5 6 10 11 12 rings

>  <PUBCHEM_HEAVY_ATOM_COUNT>  (1) 
20

>  <PUBCHEM_ATOM_DEF_STEREO_COUNT>  (1) 
0

>  <PUBCHEM_ATOM_UDEF_STEREO_COUNT>  (1) 
0

>  <PUBCHEM_BOND_DEF_STEREO_COUNT>  (1) 
0

>  <PUBCHEM_BOND_UDEF_STEREO_COUNT>  (1) 
0

>  <PUBCHEM_ISOTOPIC_ATOM_COUNT>  (1) 
0

>  <PUBCHEM_COMPONENT_COUNT>  (1) 
1

>  <PUBCHEM_CACTVS_TAUTO_COUNT>  (1) 
1

>  <PUBCHEM_CONFORMER_ID>  (1) 
0000A02400000001

>  <PUBCHEM_MMFF94_ENERGY>  (1) 
72.8904

>  <PUBCHEM_FEATURE_SELFOVERLAP>  (1) 
42.983

>  <PUBCHEM_SHAPE_FINGERPRINT>  (1) 
10366900 7 17822295746582076675
10498660 4 18411130342467593469
10646746 165 18411415128979828692
11405975 8 18060422404179497139
11552529 35 17987511675360801983
12173636 292 17846504712567736353
128620 24 17346598624898930319
13134695 92 17489588948709229408
13167823 11 18273215326151591943
13224815 77 18409727382915564713
13296908 3 17846498166352047839
13583140 156 18200296810266603543
13675066 3 17967253074607485817
14004511 7 18343302548381750355
14289901 80 17603304864684853891
15239154 128 18408323276460133557
15788980 27 18259700086220126499
17349148 13 17385999615448313147
18186145 218 18272089396205929723
19862831 5 18411421700190166178
20645477 56 18408602527218544661
20645477 70 17632303367255317414
21033648 29 18113892754308315609
21503847 285 18130796659032323552
21864079 5 17530970197864091997
23402539 116 17132116827428837936
23402655 69 18334294236588087588
23557571 272 17988927816187677323
23559900 14 17988647376530537942
3268164 11 18335411413806774871
4921388 177 18131355241320483407
5104073 3 18342455958614392466
5281201 14 17346327019699102092
542803 24 17775290460426678833
633830 44 17561087994607407815
90127 26 17603872165266085541

>  <PUBCHEM_SHAPE_MULTIPOLES>  (1) 
400.74
11.04
1.8
1.58
5.08
0.41
0.01
-1.3
-0.23
1.16
-0.09
0.44
-0.44
-0.06

>  <PUBCHEM_SHAPE_SELFOVERLAP>  (1) 
823.783

>  <PUBCHEM_SHAPE_VOLUME>  (1) 
227.2

>  <PUBCHEM_COORDINATE_TYPE>  (1) 
2
5
10

$$$$
