40994
     RDKit          3D

 22 24  0  0  1  0  0  0  0  0999 V2000
   -1.3218   -0.6669    0.1704 O   0  0  0  0  0  0  0  0  0  0  0  0
   -0.3038   -2.7370    0.2121 O   0  0  0  0  0  0  0  0  0  0  0  0
   -3.9613    0.3922    0.2865 N   0  0  0  0  0  0  0  0  0  0  0  0
    1.7599   -0.2379    0.7169 C   0  0  0  0  0  0  0  0  0  0  0  0
    3.7170   -0.6933   -0.8283 C   0  0  0  0  0  0  0  0  0  0  0  0
    3.9004    1.1030    0.9298 C   0  0  0  0  0  0  0  0  0  0  0  0
    2.4023    1.4434   -1.0679 C   0  0  0  0  0  0  0  0  0  0  0  0
    2.5447   -1.3240   -0.0565 C   0  0  0  0  0  0  0  0  0  0  0  0
    2.7275    0.4674    1.6967 C   0  0  0  0  0  0  0  0  0  0  0  0
    1.2335    0.8067   -0.2957 C   0  0  0  0  0  0  0  0  0  0  0  0
    4.6595    0.0056    0.1656 C   0  0  0  0  0  0  0  0  0  0  0  0
    3.1689    0.3442   -1.8222 C   0  0  0  0  0  0  0  0  0  0  0  0
    3.3514    2.1315   -0.0729 C   0  0  0  0  0  0  0  0  0  0  0  0
    0.5946   -0.8690    1.4833 C   0  0  0  0  0  0  0  0  0  0  0  0
   -0.3681   -1.5653    0.5575 C   0  0  0  0  0  0  0  0  0  0  0  0
   -2.3212   -1.1745   -0.7196 C   0  0  0  0  0  0  0  0  0  0  0  0
   -3.3446   -0.0741   -0.9804 C   0  0  0  0  0  0  0  0  0  0  0  0
   -1.6557   -1.7200   -1.9764 C   0  0  0  0  0  0  0  0  0  0  0  0
   -4.9485    1.5376    0.0231 C   0  0  0  0  0  0  0  0  0  0  0  0
   -2.8889    0.9009    1.2596 C   0  0  0  0  0  0  0  0  0  0  0  0
   -4.7259   -0.7481    0.9728 C   0  0  0  0  0  0  0  0  0  0  0  0
   -4.2198    2.6776   -0.6542 C   0  0  0  0  0  0  0  0  0  0  0  0
  1 15  1  0
  1 16  1  0
  2 15  2  0
  3 17  1  0
  3 19  1  0
  3 20  1  0
  3 21  1  0
  4  8  1  0
  4  9  1  0
  4 10  1  0
  4 14  1  0
  5  8  1  0
  5 11  1  0
  5 12  1  0
  6  9  1  0
  6 11  1  0
  6 13  1  0
  7 10  1  0
  7 12  1  0
  7 13  1  0
 14 15  1  0
 16 17  1  0
 16 18  1  0
 19 22  1  0
M  CHG  1   3   1
M  END
>  <PUBCHEM_COMPOUND_CID>  (1) 
40994

>  <PUBCHEM_CONFORMER_RMSD>  (1) 
0.8

>  <PUBCHEM_CONFORMER_DIVERSEORDER>  (1) 
10
61
59
77
48
46
47
5
78
70
38
22
6
74
40
55
73
26
21
53
75
44
56
16
69
33
25
52
20
64
62
32
68
13
79
35
23
54
12
11
41
7
76
27
57
42
24
39
67
72
60
34
51
65
71
3
30
45
49
36
4
66
28
37
50
29
9
15
43
31
8
1
14
63
17
19
58
2
18

>  <PUBCHEM_MMFF94_PARTIAL_CHARGES>  (1) 
10
1 -0.43
14 0.06
15 0.66
16 0.28
17 0.5
19 0.5
2 -0.57
20 0.5
21 0.5
3 -1.01

>  <PUBCHEM_EFFECTIVE_ROTOR_COUNT>  (1) 
8.2

>  <PUBCHEM_PHARMACOPHORE_FEATURES>  (1) 
6
1 2 acceptor
1 3 cation
6 4 5 6 8 9 11 rings
6 4 5 7 8 10 12 rings
6 4 6 7 9 10 13 rings
6 5 6 7 11 12 13 rings

>  <PUBCHEM_HEAVY_ATOM_COUNT>  (1) 
22

>  <PUBCHEM_ATOM_DEF_STEREO_COUNT>  (1) 
0

>  <PUBCHEM_ATOM_UDEF_STEREO_COUNT>  (1) 
1

>  <PUBCHEM_BOND_DEF_STEREO_COUNT>  (1) 
0

>  <PUBCHEM_BOND_UDEF_STEREO_COUNT>  (1) 
0

>  <PUBCHEM_ISOTOPIC_ATOM_COUNT>  (1) 
0

>  <PUBCHEM_COMPONENT_COUNT>  (1) 
1

>  <PUBCHEM_CACTVS_TAUTO_COUNT>  (1) 
1

>  <PUBCHEM_CONFORMER_ID>  (1) 
0000A0220000000A

>  <PUBCHEM_MMFF94_ENERGY>  (1) 
74.4661

>  <PUBCHEM_FEATURE_SELFOVERLAP>  (1) 
42.962

>  <PUBCHEM_SHAPE_FINGERPRINT>  (1) 
10366900 7 14923944574049959745
10498660 4 18342734088170320537
10646746 165 18060416949786997120
11370993 144 14924212760709216161
11370993 70 17203609293748674262
12173636 292 18335701706119670519
12403259 118 18040149622114544041
12422481 6 17753302324184400016
12633257 1 15863793889527406729
12670545 47 15502662636757717899
12788726 201 14260812571377604115
12916748 109 18410576227499049627
13224815 77 17167859781352149277
13544653 18 10807940370450454491
13675066 3 18411139147181841577
14123255 52 18410007719884210489
14251751 93 18411982460121586847
14251764 38 17766264750132840328
14341114 176 13334736817082043062
14341114 328 16805611347765820101
14787075 74 8285898178333834126
15238133 3 17603588500130633476
15375358 24 15195565723447638326
15788980 27 17988924478802974310
1601671 61 17968380048382915628
17980427 23 18124858308853795480
1798214 20 10663820763148552753
18186145 218 18130793360243992075
19862831 5 17632863026857445347
200 152 12751242514343812786
20626108 58 13110669506936479503
20645477 56 17917148411407984755
20645477 70 16415489259064202374
21250096 35 9799692584699501851
21503847 285 18040720251216218236
21864079 5 18261387884014096949
22854114 59 16443063915487896875
23227448 37 18339360872384697325
23402539 116 18343293786785714008
23557571 272 17702657916238974531
23559900 14 17060620014829068938
251288 83 8502651502555032162
2637199 183 18041008318819950630
26918003 58 8502654788125820915
2838139 119 18118105993315413581
3009799 131 18200887214700617782
38570 142 16589459534046159028
4028521 119 18202279191382726489
439807 62 13901320669999409989
474 4 18334012778928454443
4921388 177 16271920563033050607
5161694 15 17632864126395213103
5281201 14 18273221906077906012
633830 44 18260264157165397422
6442390 28 16660940974816057250
7399639 24 16266270339675485875
7495541 125 12612749125695928660
7808743 9 18191589859486101344
7832392 63 18410571807771863316
960060 61 13901908916354700937

>  <PUBCHEM_SHAPE_MULTIPOLES>  (1) 
436.03
10.15
2.27
1.57
6.11
0.25
0.2
4.61
-0.04
1.26
0.38
-0.3
-0.18
0.04

>  <PUBCHEM_SHAPE_SELFOVERLAP>  (1) 
905.671

>  <PUBCHEM_SHAPE_VOLUME>  (1) 
244.8

>  <PUBCHEM_COORDINATE_TYPE>  (1) 
2
5
10

$$$$
