4099
     RDKit          3D

 14 14  0  0  0  0  0  0  0  0999 V2000
   -0.3257    1.9784   -0.9941 O   0  0  0  0  0  0  0  0  0  0  0  0
   -1.1882   -2.4363    0.1074 O   0  0  0  0  0  0  0  0  0  0  0  0
    3.1198   -0.8949    0.2146 O   0  0  0  0  0  0  0  0  0  0  0  0
    1.4277    0.6521   -0.2283 N   0  0  0  0  0  0  0  0  0  0  0  0
    0.9531   -1.6208    0.2184 N   0  0  0  0  0  0  0  0  0  0  0  0
   -0.8994   -0.0327    0.2117 C   0  0  0  0  0  0  0  0  0  0  0  0
   -1.0377    0.3412    1.6987 C   0  0  0  0  0  0  0  0  0  0  0  0
   -2.2751    0.0809   -0.4639 C   0  0  0  0  0  0  0  0  0  0  0  0
    0.0718    0.9632   -0.4196 C   0  0  0  0  0  0  0  0  0  0  0  0
   -0.4224   -1.4744    0.1475 C   0  0  0  0  0  0  0  0  0  0  0  0
   -1.5422    1.7580    1.8552 C   0  0  0  0  0  0  0  0  0  0  0  0
   -2.2118   -0.3738   -1.9054 C   0  0  0  0  0  0  0  0  0  0  0  0
    1.9214   -0.6268    0.0943 C   0  0  0  0  0  0  0  0  0  0  0  0
    2.4086    1.6860   -0.5365 C   0  0  0  0  0  0  0  0  0  0  0  0
  1  9  2  0
  2 10  2  0
  3 13  2  0
  4  9  1  0
  4 13  1  0
  4 14  1  0
  5 10  1  0
  5 13  1  0
  6  7  1  0
  6  8  1  0
  6  9  1  0
  6 10  1  0
  7 11  1  0
  8 12  1  0
M  END
>  <PUBCHEM_COMPOUND_CID>  (1) 
4099

>  <PUBCHEM_CONFORMER_RMSD>  (1) 
0.6

>  <PUBCHEM_CONFORMER_DIVERSEORDER>  (1) 
1
6
5
3
4
2

>  <PUBCHEM_MMFF94_PARTIAL_CHARGES>  (1) 
11
1 -0.57
10 0.57
13 0.69
14 0.3
2 -0.57
25 0.37
3 -0.57
4 -0.42
5 -0.49
6 0.12
9 0.57

>  <PUBCHEM_EFFECTIVE_ROTOR_COUNT>  (1) 
2.6

>  <PUBCHEM_PHARMACOPHORE_FEATURES>  (1) 
7
1 1 acceptor
1 11 hydrophobe
1 12 hydrophobe
1 2 acceptor
1 3 acceptor
1 5 donor
6 4 5 6 9 10 13 rings

>  <PUBCHEM_HEAVY_ATOM_COUNT>  (1) 
14

>  <PUBCHEM_ATOM_DEF_STEREO_COUNT>  (1) 
0

>  <PUBCHEM_ATOM_UDEF_STEREO_COUNT>  (1) 
0

>  <PUBCHEM_BOND_DEF_STEREO_COUNT>  (1) 
0

>  <PUBCHEM_BOND_UDEF_STEREO_COUNT>  (1) 
0

>  <PUBCHEM_ISOTOPIC_ATOM_COUNT>  (1) 
0

>  <PUBCHEM_COMPONENT_COUNT>  (1) 
1

>  <PUBCHEM_CACTVS_TAUTO_COUNT>  (1) 
3

>  <PUBCHEM_CONFORMER_ID>  (1) 
0000100300000001

>  <PUBCHEM_MMFF94_ENERGY>  (1) 
34.5821

>  <PUBCHEM_FEATURE_SELFOVERLAP>  (1) 
35.522

>  <PUBCHEM_SHAPE_FINGERPRINT>  (1) 
10702982 57 17629208108694226305
12423570 1 14188702247972830785
13024252 1 15213025920545950443
137420 1 10069742411410488929
14617773 55 18131634482291584344
14761567 1 18125717035233089076
14817 1 16900529046838487457
15906896 17 17845674580903780211
16945 1 18116412808946339526
23419403 2 17262955605524628307
241688 4 17688859844232240730
2748010 2 18190180272757466910
5084963 1 18270951345994842698
528886 8 18189879947216448605
63268167 104 18334860562517698096

>  <PUBCHEM_SHAPE_MULTIPOLES>  (1) 
260.54
3.29
2.14
1.49
1.87
0.16
-0.04
0.06
0.57
-0.09
-0.32
-1.07
-0.55
-0.85

>  <PUBCHEM_SHAPE_SELFOVERLAP>  (1) 
534.555

>  <PUBCHEM_SHAPE_VOLUME>  (1) 
149.3

>  <PUBCHEM_COORDINATE_TYPE>  (1) 
2
5
10

$$$$
