40999
     RDKit          3D

 25 25  0  0  1  0  0  0  0  0999 V2000
    0.7778   -2.5809   -3.0285 Cl  0  0  0  0  0  0  0  0  0  0  0  0
    1.1938    1.5488    0.4444 O   0  0  0  0  0  0  0  0  0  0  0  0
    0.0084    3.0589   -0.8259 O   0  0  0  0  0  0  0  0  0  0  0  0
   -1.8582   -1.9721    1.8286 O   0  0  0  0  0  0  0  0  0  0  0  0
   -4.6367    0.9445   -0.7618 O   0  0  0  0  0  0  0  0  0  0  0  0
   -4.3367   -1.3494    0.7609 O   0  0  0  0  0  0  0  0  0  0  0  0
    3.7260    0.2806    0.5057 N   0  0  0  0  0  0  0  0  0  0  0  0
    4.4844    0.3241   -0.7389 C   0  0  0  0  0  0  0  0  0  0  0  0
    4.2399   -0.9448   -1.5538 C   0  0  0  0  0  0  0  0  0  0  0  0
    3.5123    1.6320    1.0267 C   0  0  0  0  0  0  0  0  0  0  0  0
    4.4146   -0.5438    1.5003 C   0  0  0  0  0  0  0  0  0  0  0  0
    2.7553   -1.1125   -1.8852 C   0  0  0  0  0  0  0  0  0  0  0  0
    2.3773    2.3200    0.2851 C   0  0  0  0  0  0  0  0  0  0  0  0
    3.6350   -0.5980    2.8032 C   0  0  0  0  0  0  0  0  0  0  0  0
    2.5097   -2.3961   -2.6672 C   0  0  0  0  0  0  0  0  0  0  0  0
    0.0770    2.0341   -0.1652 C   0  0  0  0  0  0  0  0  0  0  0  0
   -1.0849    1.1421    0.0775 C   0  0  0  0  0  0  0  0  0  0  0  0
   -2.3319    1.4595   -0.4607 C   0  0  0  0  0  0  0  0  0  0  0  0
   -0.9301   -0.0118    0.8458 C   0  0  0  0  0  0  0  0  0  0  0  0
   -2.0223   -0.8482    1.0760 C   0  0  0  0  0  0  0  0  0  0  0  0
   -3.4242    0.6230   -0.2306 C   0  0  0  0  0  0  0  0  0  0  0  0
   -3.2694   -0.5308    0.5377 C   0  0  0  0  0  0  0  0  0  0  0  0
   -0.5513   -2.2234    2.3413 C   0  0  0  0  0  0  0  0  0  0  0  0
   -4.7092    2.1410   -1.5347 C   0  0  0  0  0  0  0  0  0  0  0  0
   -4.5566   -2.3970   -0.1808 C   0  0  0  0  0  0  0  0  0  0  0  0
  1 15  1  0
  2 13  1  0
  2 16  1  0
  3 16  2  0
  4 20  1  0
  4 23  1  0
  5 21  1  0
  5 24  1  0
  6 22  1  0
  6 25  1  0
  7  8  1  0
  7 10  1  0
  7 11  1  0
  8  9  1  0
  9 12  1  0
 10 13  1  0
 11 14  1  0
 12 15  1  0
 16 17  1  0
 17 18  2  0
 17 19  1  0
 18 21  1  0
 19 20  2  0
 20 22  1  0
 21 22  2  0
M  END
>  <PUBCHEM_COMPOUND_CID>  (1) 
40999

>  <PUBCHEM_CONFORMER_RMSD>  (1) 
1.2

>  <PUBCHEM_CONFORMER_DIVERSEORDER>  (1) 
12
44
52
2
14
3
19
53
58
21
16
40
9
36
50
10
47
15
35
29
18
1
49
45
28
4
6
48
33
24
43
42
34
32
46
39
17
51
11
22
31
60
59
61
54
23
30
25
56
13
26
8
20
7
57
5
41
55
37
27
38

>  <PUBCHEM_MMFF94_PARTIAL_CHARGES>  (1) 
24
1 -0.29
10 0.27
11 0.27
13 0.28
15 0.29
16 0.63
17 0.09
18 -0.15
19 -0.15
2 -0.43
20 0.08
21 0.08
22 0.08
23 0.28
24 0.28
25 0.28
3 -0.57
4 -0.36
43 0.15
44 0.15
5 -0.36
6 -0.36
7 -0.81
8 0.27

>  <PUBCHEM_EFFECTIVE_ROTOR_COUNT>  (1) 
13

>  <PUBCHEM_PHARMACOPHORE_FEATURES>  (1) 
6
1 3 acceptor
1 4 acceptor
1 5 acceptor
1 6 acceptor
1 7 cation
6 17 18 19 20 21 22 rings

>  <PUBCHEM_HEAVY_ATOM_COUNT>  (1) 
25

>  <PUBCHEM_ATOM_DEF_STEREO_COUNT>  (1) 
0

>  <PUBCHEM_ATOM_UDEF_STEREO_COUNT>  (1) 
0

>  <PUBCHEM_BOND_DEF_STEREO_COUNT>  (1) 
0

>  <PUBCHEM_BOND_UDEF_STEREO_COUNT>  (1) 
0

>  <PUBCHEM_ISOTOPIC_ATOM_COUNT>  (1) 
0

>  <PUBCHEM_COMPONENT_COUNT>  (1) 
1

>  <PUBCHEM_CACTVS_TAUTO_COUNT>  (1) 
1

>  <PUBCHEM_CONFORMER_ID>  (1) 
0000A0270000000C

>  <PUBCHEM_MMFF94_ENERGY>  (1) 
81.4594

>  <PUBCHEM_FEATURE_SELFOVERLAP>  (1) 
30.457

>  <PUBCHEM_SHAPE_FINGERPRINT>  (1) 
10366900 7 18127708049555348046
10693767 8 17833249198047807835
12156800 1 12761359967188139454
12422481 6 17913791650097013499
12596599 1 18341899567049300889
12788726 201 18263365802570100496
13402501 40 18342469114484159702
14251757 17 18341616958501852071
14790565 3 17899686861427330917
15635459 17 18340782510854815970
16752209 62 17894625993739346097
19315092 285 16271063909793300942
19734167 9 16986850554174913522
20600515 1 18186795859882255956
20645477 70 18271249429821505888
21285901 2 18268145366366949685
21781051 124 17023480758616803323
23559900 14 18263089833851408374
3004659 81 17458616775564498992
59755656 215 18409162213123402117
9709674 26 18117842320260317065

>  <PUBCHEM_SHAPE_MULTIPOLES>  (1) 
482.03
10.13
3.24
2.67
2.09
1.01
0.84
0.58
-0.41
-0.24
-2.07
-1.37
1.88
3.23

>  <PUBCHEM_SHAPE_SELFOVERLAP>  (1) 
955.934

>  <PUBCHEM_SHAPE_VOLUME>  (1) 
290.1

>  <PUBCHEM_COORDINATE_TYPE>  (1) 
2
5
10

$$$$
