41
     RDKit          3D

 14 13  0  0  0  0  0  0  0  0999 V2000
   -3.8521    1.9572    0.0057 S   0  0  0  0  0  0  0  0  0  0  0  0
    3.2068    0.9313   -0.0775 P   0  0  0  0  0  0  0  0  0  0  0  0
    2.3435   -0.4256   -0.0562 O   0  0  0  0  0  0  0  0  0  0  0  0
   -2.0823   -2.2611    0.0083 O   0  0  0  0  0  0  0  0  0  0  0  0
    0.6360   -2.8161   -0.0172 O   0  0  0  0  0  0  0  0  0  0  0  0
    4.7261    0.3944    0.0685 O   0  0  0  0  0  0  0  0  0  0  0  0
    2.9263    1.6057    1.3663 O   0  0  0  0  0  0  0  0  0  0  0  0
    2.9826    1.8418   -1.2494 O   0  0  0  0  0  0  0  0  0  0  0  0
   -1.7900    0.1340   -0.0148 C   0  0  0  0  0  0  0  0  0  0  0  0
   -3.3118    0.2245    0.0288 C   0  0  0  0  0  0  0  0  0  0  0  0
   -1.3039   -1.3093   -0.0083 C   0  0  0  0  0  0  0  0  0  0  0  0
    0.1813   -1.5172   -0.0236 C   0  0  0  0  0  0  0  0  0  0  0  0
    0.9751   -0.4356   -0.0417 C   0  0  0  0  0  0  0  0  0  0  0  0
   -5.6376    1.6758    0.0110 C   0  0  0  0  0  0  0  0  0  0  0  0
  1 10  1  0
  1 14  1  0
  2  3  1  0
  2  6  1  0
  2  7  1  0
  2  8  2  0
  3 13  1  0
  4 11  2  0
  5 12  1  0
  9 10  1  0
  9 11  1  0
 11 12  1  0
 12 13  2  0
M  END
>  <PUBCHEM_COMPOUND_CID>  (1) 
41

>  <PUBCHEM_CONFORMER_RMSD>  (1) 
0.6

>  <PUBCHEM_CONFORMER_DIVERSEORDER>  (1) 
1
380
468
3
401
364
353
72
375
75
460
110
295
387
119
131
264
31
221
61
355
18
454
35
231
453
74
447
312
322
4
444
17
388
450
52
145
176
480
10
426
9
479
297
396
278
458
190
233
227
205
2
6
19
276
338
427
306
69
22
142
471
216
409
451
112
8
265
446
12
39
391
456
470
467
90
179
423
442
317
81
218
32
137
192
381
82
481
25
127
342
242
138
140
198
469
425
66
97
300
16
117
448
214
62
274
164
291
382
173
397
311
191
195
26
347
53
250
55
298
38
476
319
42
433
372
202
419
215
212
418
417
148
463
373
475
384
147
258
109
464
182
114
44
455
156
51
208
40
378
422
257
172
245
180
350
27
472
47
63
188
435
441
318
320
84
474
329
367
308
210
102
107
334
440
54
345
169
394
200
163
34
361
133
304
430
41
211
403
410
178
105
171
189
461
77
199
50
268
309
477
58
71
255
158
209
181
478
389
159
219
24
473
251
14
7
439
130
301
392
262
194
236
362
116
266
337
143
349
421
449
407
348
273
33
128
263
165
67
46
234
415
100
83
436
240
230
197
420
299
277
377
438
332
5
13
465
336
398
405
118
88
222
374
305
368
93
414
154
432
259
168
108
95
261
135
293
226
129
80
113
314
279
315
445
412
462
335
121
123
64
346
399
244
106
104
404
402
15
282
343
136
393
333
307
237
153
288
452
162
160
20
220
275
152
146
196
92
316
126
122
43
267
125
400
204
253
115
358
385
344
151
357
45
175
68
239
79
331
379
91
30
166
459
36
285
177
223
144
366
354
252
443
207
21
359
201
302
269
86
103
111
340
406
56
184
78
249
413
29
287
254
23
326
98
150
37
351
327
324
186
431
48
238
428
28
271
225
281
232
183
325
141
11
203
434
235
229
321
213
466
120
437
323
187
370
76
313
243
270
99
228
411
60
167
157
310
330
280
124
101
65
365
341
73
248
284
161
429
132
457
70
89
292
134
87
217
174
224
294
360
369
170
96
339
94
241
286
59
408
290
390
296
139
185
303
206
383
256
386
149
247
363
283
57
424
395
85
416
246
193
356
371
328
260
352
155
376
289
49
272

>  <PUBCHEM_MMFF94_PARTIAL_CHARGES>  (1) 
18
1 -0.46
10 0.23
11 0.49
12 0.09
13 -0.07
14 0.23
19 0.15
2 1.51
23 0.45
24 0.5
25 0.5
3 -0.35
4 -0.57
5 -0.53
6 -0.77
7 -0.77
8 -0.7
9 0.06

>  <PUBCHEM_EFFECTIVE_ROTOR_COUNT>  (1) 
6

>  <PUBCHEM_PHARMACOPHORE_FEATURES>  (1) 
7
1 14 hydrophobe
1 4 acceptor
1 5 donor
1 6 acceptor
1 7 acceptor
1 8 acceptor
4 2 6 7 8 anion

>  <PUBCHEM_HEAVY_ATOM_COUNT>  (1) 
14

>  <PUBCHEM_ATOM_DEF_STEREO_COUNT>  (1) 
0

>  <PUBCHEM_ATOM_UDEF_STEREO_COUNT>  (1) 
0

>  <PUBCHEM_BOND_DEF_STEREO_COUNT>  (1) 
0

>  <PUBCHEM_BOND_UDEF_STEREO_COUNT>  (1) 
1

>  <PUBCHEM_ISOTOPIC_ATOM_COUNT>  (1) 
0

>  <PUBCHEM_COMPONENT_COUNT>  (1) 
1

>  <PUBCHEM_CACTVS_TAUTO_COUNT>  (1) 
4

>  <PUBCHEM_CONFORMER_ID>  (1) 
0000002900000001

>  <PUBCHEM_MMFF94_ENERGY>  (1) 
-10.6232

>  <PUBCHEM_FEATURE_SELFOVERLAP>  (1) 
35.559

>  <PUBCHEM_SHAPE_FINGERPRINT>  (1) 
122479 349 18334018298014138419
14123255 52 18411418389018333201
14252887 29 11241971456197191872
14897335 6 18411698764420294519
15342168 16 18334299738974281781
1741750 31 18413390934353399947
17834072 32 18336833086098873237
17834072 8 18272378529779236030
1798214 55 18411418401761167569
18186145 218 17774452692875242874
20621476 66 18408611379067592044
20645477 56 18411984667497406479
20671657 53 10592039146566119819
20711983 171 18335988678764757380
212847 35 18410855434712123840
21499 59 18339356358674736711
21524375 3 18411699868100211047
23500284 214 18408888429963646105
23590187 49 18411417293817568445
43658 37 18342170047331849817
44154327 71 18333456425876436725
449060 62 18340487760113055269
474 4 18333735693508657485
6430166 295 18410009940414041960
7364860 26 18197779899296681206
8199 26 18409733967121866373

>  <PUBCHEM_SHAPE_MULTIPOLES>  (1) 
260.6
9.55
2.66
0.78
5.08
1.16
0.03
-8.26
0.1
0.31
-0.05
-0.52
-0.38
-0.02

>  <PUBCHEM_SHAPE_SELFOVERLAP>  (1) 
471.115

>  <PUBCHEM_SHAPE_VOLUME>  (1) 
167.9

>  <PUBCHEM_COORDINATE_TYPE>  (1) 
2
5
10

$$$$
