4100
     RDKit          3D

 14 14  0  0  0  0  0  0  0  0999 V2000
   -2.7934    0.6293   -0.1077 S   0  0  0  0  0  0  0  0  0  0  0  0
    0.2471    0.9296   -0.0311 S   0  0  0  0  0  0  0  0  0  0  0  0
   -2.6352    1.9394   -0.7114 O   0  0  0  0  0  0  0  0  0  0  0  0
   -3.6322   -0.3921   -0.7075 O   0  0  0  0  0  0  0  0  0  0  0  0
    3.3301    1.3624    1.1114 O   0  0  0  0  0  0  0  0  0  0  0  0
    0.2728   -1.6285   -0.0108 N   0  0  0  0  0  0  0  0  0  0  0  0
   -1.0670   -1.3405   -0.0426 N   0  0  0  0  0  0  0  0  0  0  0  0
   -3.2028    0.8052    1.5400 N   0  0  0  0  0  0  0  0  0  0  0  0
    2.4442   -0.5434    0.0950 N   0  0  0  0  0  0  0  0  0  0  0  0
   -1.2012   -0.0519   -0.0603 C   0  0  0  0  0  0  0  0  0  0  0  0
    1.1590   -0.5752    0.0277 C   0  0  0  0  0  0  0  0  0  0  0  0
    0.6467   -3.0240    0.0445 C   0  0  0  0  0  0  0  0  0  0  0  0
    3.0531    0.6935    0.1174 C   0  0  0  0  0  0  0  0  0  0  0  0
    3.3789    1.1962   -1.2646 C   0  0  0  0  0  0  0  0  0  0  0  0
  1  3  2  0
  1  4  2  0
  1  8  1  0
  1 10  1  0
  2 10  1  0
  2 11  1  0
  5 13  2  0
  6  7  1  0
  6 11  1  0
  6 12  1  0
  7 10  2  0
  9 11  2  0
  9 13  1  0
 13 14  1  0
M  END
>  <PUBCHEM_COMPOUND_CID>  (1) 
4100

>  <PUBCHEM_CONFORMER_RMSD>  (1) 
0.6

>  <PUBCHEM_CONFORMER_DIVERSEORDER>  (1) 
1
6
3
4
5
2

>  <PUBCHEM_MMFF94_PARTIAL_CHARGES>  (1) 
16
1 1.41
10 0.61
11 0.64
12 0.37
13 0.72
14 0.06
18 0.42
19 0.42
2 -0.28
3 -0.65
4 -0.65
5 -0.57
6 -0.38
7 -0.49
8 -0.98
9 -0.66

>  <PUBCHEM_EFFECTIVE_ROTOR_COUNT>  (1) 
2

>  <PUBCHEM_PHARMACOPHORE_FEATURES>  (1) 
7
1 3 acceptor
1 4 acceptor
1 5 acceptor
1 7 acceptor
1 8 donor
1 9 donor
5 2 6 7 10 11 rings

>  <PUBCHEM_HEAVY_ATOM_COUNT>  (1) 
14

>  <PUBCHEM_ATOM_DEF_STEREO_COUNT>  (1) 
0

>  <PUBCHEM_ATOM_UDEF_STEREO_COUNT>  (1) 
0

>  <PUBCHEM_BOND_DEF_STEREO_COUNT>  (1) 
0

>  <PUBCHEM_BOND_UDEF_STEREO_COUNT>  (1) 
0

>  <PUBCHEM_ISOTOPIC_ATOM_COUNT>  (1) 
0

>  <PUBCHEM_COMPONENT_COUNT>  (1) 
1

>  <PUBCHEM_CACTVS_TAUTO_COUNT>  (1) 
1

>  <PUBCHEM_CONFORMER_ID>  (1) 
0000100400000001

>  <PUBCHEM_MMFF94_ENERGY>  (1) 
28.1822

>  <PUBCHEM_FEATURE_SELFOVERLAP>  (1) 
35.542

>  <PUBCHEM_SHAPE_FINGERPRINT>  (1) 
10980938 120 18409446947094118850
11132069 177 18334851740407010805
11543360 7 15697709415098034036
12932764 1 18267311932595094535
13380535 21 18339936955852620750
13380535 76 18335415781240213067
13705890 14 14979958081767855276
14325111 11 18410570669479013645
14648413 74 17830452782867288085
15309172 13 18408891758283835993
15775835 57 18343023272481205101
16945 1 18187369843410669565
1741750 31 18268715081436543896
18186145 218 18131073722972067448
19107657 9 18340217335723434216
201361 129 18129112116876207297
20510252 161 18126566962090401426
20645476 183 18114751550499356230
20645477 56 18266745856217003788
20671657 1 18271525291144091870
21028194 46 18410009922970311738
21499 59 18408881854031261831
21524375 3 18411978078923103094
23557571 272 17695909217437244604
25 1 18202010906202887984
2748010 2 18410304626531170918
305870 269 18335693906342633106
3071541 236 18190450761060303834
458136 41 18266200373273018202
633830 44 17989496211790845388
7364860 26 18125435315675818854
81228 2 17907015436711217242
81539 233 18259979345231329815

>  <PUBCHEM_SHAPE_MULTIPOLES>  (1) 
258.28
6.07
2.27
0.98
0.43
1.81
0.13
-3.41
-0.05
-0.41
-0.13
0
-0.4
-0.13

>  <PUBCHEM_SHAPE_SELFOVERLAP>  (1) 
501.221

>  <PUBCHEM_SHAPE_VOLUME>  (1) 
158.3

>  <PUBCHEM_COORDINATE_TYPE>  (1) 
2
5
10

$$$$
