41017
     RDKit          3D

 11 11  0  0  0  0  0  0  0  0999 V2000
    0.6673    2.5966   -0.0008 Cl  0  0  0  0  0  0  0  0  0  0  0  0
   -2.4060    1.7778    0.0007 Cl  0  0  0  0  0  0  0  0  0  0  0  0
   -3.1613   -1.3258   -0.0008 Cl  0  0  0  0  0  0  0  0  0  0  0  0
    2.4983    0.2743    0.0000 O   0  0  0  0  0  0  0  0  0  0  0  0
    1.1738   -0.0498    0.0002 C   0  0  0  0  0  0  0  0  0  0  0  0
    0.1812    0.9303    0.0002 C   0  0  0  0  0  0  0  0  0  0  0  0
    0.8215   -1.3995    0.0002 C   0  0  0  0  0  0  0  0  0  0  0  0
   -1.1639    0.5605    0.0002 C   0  0  0  0  0  0  0  0  0  0  0  0
   -0.5234   -1.7692    0.0001 C   0  0  0  0  0  0  0  0  0  0  0  0
   -1.5160   -0.7893    0.0001 C   0  0  0  0  0  0  0  0  0  0  0  0
    3.4285   -0.8059    0.0000 C   0  0  0  0  0  0  0  0  0  0  0  0
  1  6  1  0
  2  8  1  0
  3 10  1  0
  4  5  1  0
  4 11  1  0
  5  6  2  0
  5  7  1  0
  6  8  1  0
  7  9  2  0
  8 10  2  0
  9 10  1  0
M  END
>  <PUBCHEM_COMPOUND_CID>  (1) 
41017

>  <PUBCHEM_CONFORMER_RMSD>  (1) 
0.4

>  <PUBCHEM_CONFORMER_DIVERSEORDER>  (1) 
3
1
2

>  <PUBCHEM_MMFF94_PARTIAL_CHARGES>  (1) 
13
1 -0.18
10 0.18
11 0.28
12 0.15
13 0.15
2 -0.18
3 -0.18
4 -0.36
5 0.08
6 0.18
7 -0.15
8 0.18
9 -0.15

>  <PUBCHEM_EFFECTIVE_ROTOR_COUNT>  (1) 
1

>  <PUBCHEM_PHARMACOPHORE_FEATURES>  (1) 
2
1 4 acceptor
6 5 6 7 8 9 10 rings

>  <PUBCHEM_HEAVY_ATOM_COUNT>  (1) 
11

>  <PUBCHEM_ATOM_DEF_STEREO_COUNT>  (1) 
0

>  <PUBCHEM_ATOM_UDEF_STEREO_COUNT>  (1) 
0

>  <PUBCHEM_BOND_DEF_STEREO_COUNT>  (1) 
0

>  <PUBCHEM_BOND_UDEF_STEREO_COUNT>  (1) 
0

>  <PUBCHEM_ISOTOPIC_ATOM_COUNT>  (1) 
0

>  <PUBCHEM_COMPONENT_COUNT>  (1) 
1

>  <PUBCHEM_CACTVS_TAUTO_COUNT>  (1) 
1

>  <PUBCHEM_CONFORMER_ID>  (1) 
0000A03900000003

>  <PUBCHEM_MMFF94_ENERGY>  (1) 
35.7661

>  <PUBCHEM_FEATURE_SELFOVERLAP>  (1) 
10.148

>  <PUBCHEM_SHAPE_FINGERPRINT>  (1) 
11206711 2 18408884048991502933
12032990 46 18411425011594510350
12423570 1 10086268131025994455
13380535 220 18335423490732883357
13380535 76 18195522589166191903
14325111 11 18410855430416851074
161256 15 18194119844157228333
16945 1 18338517567977000679
193761 8 18122344846003178597
20588541 1 18196935465676030460
20871998 184 18273213075599012230
21040471 1 18266458698359990689
21501502 16 18338805623112809549
22802520 49 17842854230262163926
2334 1 18338516344011697507
23402539 116 18271512143964226094
23402655 69 18124297334785660877
23463225 33 18335701590128861338
23552423 10 17903636628804289166
23559900 14 18271243799841892054
241688 4 18410572864217916648
2748010 2 18268713818225840815
5084963 1 18130228262886031139
528886 8 18267297638569426057
53812653 166 18270676472198353929
6333449 129 18341327790843075173
7364860 26 18054230100952878600

>  <PUBCHEM_SHAPE_MULTIPOLES>  (1) 
226.11
4.24
2.47
0.62
0.96
1.23
0
-1.21
0
-0.6
0
-0.04
0.01
0

>  <PUBCHEM_SHAPE_SELFOVERLAP>  (1) 
442.911

>  <PUBCHEM_SHAPE_VOLUME>  (1) 
139.5

>  <PUBCHEM_COORDINATE_TYPE>  (1) 
2
5
10

$$$$
