41018
     RDKit          3D

 11 11  0  0  0  0  0  0  0  0999 V2000
   -2.0532   -1.7876   -0.2021 Cl  0  0  0  0  0  0  0  0  0  0  0  0
    0.8685   -3.0567    0.2218 Cl  0  0  0  0  0  0  0  0  0  0  0  0
    3.0083    1.8625    0.0573 Cl  0  0  0  0  0  0  0  0  0  0  0  0
   -2.6667    1.5545    0.8106 O   0  0  0  0  0  0  0  0  0  0  0  0
   -0.7717    0.5931   -0.2575 C   0  0  0  0  0  0  0  0  0  0  0  0
   -0.6359   -0.7893   -0.1293 C   0  0  0  0  0  0  0  0  0  0  0  0
    0.3553    1.4130   -0.2002 C   0  0  0  0  0  0  0  0  0  0  0  0
   -2.1037    1.2433   -0.4564 C   0  0  0  0  0  0  0  0  0  0  0  0
    0.6271   -1.3518    0.0564 C   0  0  0  0  0  0  0  0  0  0  0  0
    1.6181    0.8506   -0.0144 C   0  0  0  0  0  0  0  0  0  0  0  0
    1.7540   -0.5317    0.1139 C   0  0  0  0  0  0  0  0  0  0  0  0
  1  6  1  0
  2  9  1  0
  3 10  1  0
  4  8  1  0
  5  6  2  0
  5  7  1  0
  5  8  1  0
  6  9  1  0
  7 10  2  0
  9 11  2  0
 10 11  1  0
M  END
>  <PUBCHEM_COMPOUND_CID>  (1) 
41018

>  <PUBCHEM_CONFORMER_RMSD>  (1) 
0.4

>  <PUBCHEM_CONFORMER_DIVERSEORDER>  (1) 
1
4
3
2

>  <PUBCHEM_MMFF94_PARTIAL_CHARGES>  (1) 
14
1 -0.18
10 0.18
11 -0.15
12 0.15
15 0.15
16 0.4
2 -0.18
3 -0.18
4 -0.68
5 -0.14
6 0.18
7 -0.15
8 0.42
9 0.18

>  <PUBCHEM_EFFECTIVE_ROTOR_COUNT>  (1) 
1

>  <PUBCHEM_PHARMACOPHORE_FEATURES>  (1) 
3
1 4 acceptor
1 4 donor
6 5 6 7 9 10 11 rings

>  <PUBCHEM_HEAVY_ATOM_COUNT>  (1) 
11

>  <PUBCHEM_ATOM_DEF_STEREO_COUNT>  (1) 
0

>  <PUBCHEM_ATOM_UDEF_STEREO_COUNT>  (1) 
0

>  <PUBCHEM_BOND_DEF_STEREO_COUNT>  (1) 
0

>  <PUBCHEM_BOND_UDEF_STEREO_COUNT>  (1) 
0

>  <PUBCHEM_ISOTOPIC_ATOM_COUNT>  (1) 
0

>  <PUBCHEM_COMPONENT_COUNT>  (1) 
1

>  <PUBCHEM_CACTVS_TAUTO_COUNT>  (1) 
1

>  <PUBCHEM_CONFORMER_ID>  (1) 
0000A03A00000001

>  <PUBCHEM_MMFF94_ENERGY>  (1) 
25.4355

>  <PUBCHEM_FEATURE_SELFOVERLAP>  (1) 
15.223

>  <PUBCHEM_SHAPE_FINGERPRINT>  (1) 
12423570 1 8553719226070790611
13380535 21 18338812146888187172
13380535 76 18408875248292328591
14614273 12 18188475973762520645
16945 1 18193832648320768876
193761 8 18410289185875743951
20510252 161 18126848437220307272
20871998 184 17622453061693761510
21040471 1 18337670922849463612
21501502 16 18410852165946436938
22344851 341 18412832373619288794
2334 1 18337668728089260492
23402539 116 17981876759640330166
23552423 10 18337667529492984031
23559900 14 18270694057013289270
241688 4 17114095565419107898
2748010 2 18408885165614499302
5084963 1 18057611064695167930
5255222 1 18263645056768306316
528862 383 18191584146910098209
53812653 8 18046912850964333012
81228 2 17905046211480393648

>  <PUBCHEM_SHAPE_MULTIPOLES>  (1) 
226.11
3.58
2.98
0.7
1.78
1.64
-0.02
-1.61
-0.11
-1.13
-0.32
-0.13
-0.12
-0.23

>  <PUBCHEM_SHAPE_SELFOVERLAP>  (1) 
442.763

>  <PUBCHEM_SHAPE_VOLUME>  (1) 
139

>  <PUBCHEM_COORDINATE_TYPE>  (1) 
2
5
10

$$$$
