41013
     RDKit          3D

 11 12  0  0  0  0  0  0  0  0999 V2000
   -2.3586    0.9392    0.0012 O   0  0  0  0  0  0  0  0  0  0  0  0
   -2.7662   -1.3392   -0.0006 O   0  0  0  0  0  0  0  0  0  0  0  0
   -0.0782    0.8673   -0.0003 C   0  0  0  0  0  0  0  0  0  0  0  0
   -0.5587   -0.4262    0.0002 C   0  0  0  0  0  0  0  0  0  0  0  0
   -1.2047    1.8175   -0.0006 C   0  0  0  0  0  0  0  0  0  0  0  0
    1.2831    1.1095   -0.0010 C   0  0  0  0  0  0  0  0  0  0  0  0
    2.1505    0.0128   -0.0008 C   0  0  0  0  0  0  0  0  0  0  0  0
    0.2717   -1.5316    0.0001 C   0  0  0  0  0  0  0  0  0  0  0  0
   -2.0124   -0.3865    0.0007 C   0  0  0  0  0  0  0  0  0  0  0  0
    1.6475   -1.2995   -0.0004 C   0  0  0  0  0  0  0  0  0  0  0  0
    3.6259    0.2367    0.0015 C   0  0  0  0  0  0  0  0  0  0  0  0
  1  5  1  0
  1  9  1  0
  2  9  2  0
  3  4  2  0
  3  5  1  0
  3  6  1  0
  4  8  1  0
  4  9  1  0
  6  7  2  0
  7 10  1  0
  7 11  1  0
  8 10  2  0
M  END
>  <PUBCHEM_COMPOUND_CID>  (1) 
41013

>  <PUBCHEM_CONFORMER_RMSD>  (1) 
0.4

>  <PUBCHEM_CONFORMER_DIVERSEORDER>  (1) 
1

>  <PUBCHEM_MMFF94_PARTIAL_CHARGES>  (1) 
14
1 -0.43
10 -0.15
11 0.14
14 0.15
15 0.15
16 0.15
2 -0.57
3 -0.14
4 0.09
5 0.42
6 -0.15
7 -0.14
8 -0.15
9 0.63

>  <PUBCHEM_EFFECTIVE_ROTOR_COUNT>  (1) 
0.4

>  <PUBCHEM_PHARMACOPHORE_FEATURES>  (1) 
3
1 2 acceptor
5 1 3 4 5 9 rings
6 3 4 6 7 8 10 rings

>  <PUBCHEM_HEAVY_ATOM_COUNT>  (1) 
11

>  <PUBCHEM_ATOM_DEF_STEREO_COUNT>  (1) 
0

>  <PUBCHEM_ATOM_UDEF_STEREO_COUNT>  (1) 
0

>  <PUBCHEM_BOND_DEF_STEREO_COUNT>  (1) 
0

>  <PUBCHEM_BOND_UDEF_STEREO_COUNT>  (1) 
0

>  <PUBCHEM_ISOTOPIC_ATOM_COUNT>  (1) 
0

>  <PUBCHEM_COMPONENT_COUNT>  (1) 
1

>  <PUBCHEM_CACTVS_TAUTO_COUNT>  (1) 
1

>  <PUBCHEM_CONFORMER_ID>  (1) 
0000A03500000001

>  <PUBCHEM_MMFF94_ENERGY>  (1) 
26.7758

>  <PUBCHEM_FEATURE_SELFOVERLAP>  (1) 
15.314

>  <PUBCHEM_SHAPE_FINGERPRINT>  (1) 
10857977 72 18339633529318743778
11206711 2 18409165515061956284
12032990 46 18339088193190116654
12423570 1 13432361810056105461
12897270 3 18411416202489498580
13380535 21 18197230160572419808
13380535 76 18266734688869153783
14325111 11 18410855447723372768
16945 1 18410575101953724386
193761 8 17978510832293271910
19973954 147 18339364050291218108
20871998 184 18201721781615396271
21040471 1 18122344571135899104
21501502 16 18266456516490315090
23402655 69 18196637528960392229
23463225 33 18262233318683380746
23552423 10 18261116214384309038
2748010 2 18267305339598859582
369184 2 16298386842394276616
5084963 1 18273217529580084440
528886 8 18411131416103584729
53812653 166 18343577426262509272

>  <PUBCHEM_SHAPE_MULTIPOLES>  (1) 
214.64
4.17
1.71
0.6
1.48
0.04
0
-0.1
0
-0.52
0
0.05
0
0

>  <PUBCHEM_SHAPE_SELFOVERLAP>  (1) 
470.036

>  <PUBCHEM_SHAPE_VOLUME>  (1) 
119.8

>  <PUBCHEM_COORDINATE_TYPE>  (1) 
2
5
10

$$$$
