41011
     RDKit          3D

 18 19  0  0  0  0  0  0  0  0999 V2000
    1.2315    1.5736    0.2505 N   0  0  0  0  0  0  0  0  0  0  0  0
   -0.5892    0.0499   -0.0218 N   0  0  0  0  0  0  0  0  0  0  0  0
   -0.8840    2.3873    0.4093 N   0  0  0  0  0  0  0  0  0  0  0  0
    2.3628    0.7385    0.1299 C   0  0  0  0  0  0  0  0  0  0  0  0
    4.5978   -0.9125   -0.1096 C   0  0  0  0  0  0  0  0  0  0  0  0
    3.5581    1.2525   -0.3719 C   0  0  0  0  0  0  0  0  0  0  0  0
    2.2841   -0.6002    0.5120 C   0  0  0  0  0  0  0  0  0  0  0  0
    4.6759    0.4266   -0.4918 C   0  0  0  0  0  0  0  0  0  0  0  0
    3.4018   -1.4260    0.3922 C   0  0  0  0  0  0  0  0  0  0  0  0
   -4.7305   -0.5664   -0.1152 C   0  0  0  0  0  0  0  0  0  0  0  0
   -1.9720   -0.1553   -0.0529 C   0  0  0  0  0  0  0  0  0  0  0  0
   -4.0457   -0.2521   -1.2889 C   0  0  0  0  0  0  0  0  0  0  0  0
   -4.0362   -0.6752    1.0898 C   0  0  0  0  0  0  0  0  0  0  0  0
   -2.6664   -0.0466   -1.2578 C   0  0  0  0  0  0  0  0  0  0  0  0
   -2.6569   -0.4695    1.1209 C   0  0  0  0  0  0  0  0  0  0  0  0
   -0.1186    1.2553    0.1902 C   0  0  0  0  0  0  0  0  0  0  0  0
    5.7930   -1.7952   -0.2376 C   0  0  0  0  0  0  0  0  0  0  0  0
   -6.2054   -0.7847   -0.1474 C   0  0  0  0  0  0  0  0  0  0  0  0
  1  4  1  0
  1 16  1  0
  2 11  1  0
  2 16  2  0
  3 16  1  0
  4  6  2  0
  4  7  1  0
  5  8  2  0
  5  9  1  0
  5 17  1  0
  6  8  1  0
  7  9  2  0
 10 12  2  0
 10 13  1  0
 10 18  1  0
 11 14  2  0
 11 15  1  0
 12 14  1  0
 13 15  2  0
M  END
>  <PUBCHEM_COMPOUND_CID>  (1) 
41011

>  <PUBCHEM_CONFORMER_RMSD>  (1) 
0.6

>  <PUBCHEM_CONFORMER_DIVERSEORDER>  (1) 
1
3
7
6
5
2
4

>  <PUBCHEM_MMFF94_PARTIAL_CHARGES>  (1) 
29
1 -0.55
10 -0.14
11 0.18
12 -0.15
13 -0.15
14 -0.15
15 -0.15
16 0.55
17 0.14
18 0.14
19 0.15
2 -0.63
20 0.15
21 0.15
22 0.15
23 0.4
24 0.15
25 0.15
26 0.15
27 0.15
3 -0.85
34 0.4
35 0.4
4 0.1
5 -0.14
6 -0.15
7 -0.15
8 -0.15
9 -0.15

>  <PUBCHEM_EFFECTIVE_ROTOR_COUNT>  (1) 
3

>  <PUBCHEM_PHARMACOPHORE_FEATURES>  (1) 
5
1 1 donor
1 3 donor
4 1 2 3 16 cation
6 10 11 12 13 14 15 rings
6 4 5 6 7 8 9 rings

>  <PUBCHEM_HEAVY_ATOM_COUNT>  (1) 
18

>  <PUBCHEM_ATOM_DEF_STEREO_COUNT>  (1) 
0

>  <PUBCHEM_ATOM_UDEF_STEREO_COUNT>  (1) 
0

>  <PUBCHEM_BOND_DEF_STEREO_COUNT>  (1) 
0

>  <PUBCHEM_BOND_UDEF_STEREO_COUNT>  (1) 
0

>  <PUBCHEM_ISOTOPIC_ATOM_COUNT>  (1) 
0

>  <PUBCHEM_COMPONENT_COUNT>  (1) 
1

>  <PUBCHEM_CACTVS_TAUTO_COUNT>  (1) 
2

>  <PUBCHEM_CONFORMER_ID>  (1) 
0000A03300000001

>  <PUBCHEM_MMFF94_ENERGY>  (1) 
63.8141

>  <PUBCHEM_FEATURE_SELFOVERLAP>  (1) 
25.429

>  <PUBCHEM_SHAPE_FINGERPRINT>  (1) 
10447042 23 18409444787416717526
12236239 1 17775568667376382371
12516196 113 18272649073346948297
12553582 1 18272360980062809798
12596602 18 17060333063115194707
12633257 1 15769771381391349467
12760667 363 18412827949744919122
13533116 47 18202281441581475920
13551218 46 17703231719590766134
13668630 136 18341897393722593391
13685833 64 18409451405692464259
13760787 5 18341895211878687212
1420 369 18201158767696388286
14251752 14 18261950739699835853
14386348 63 18040718086473495355
14573314 32 17821442456987099767
14576447 43 18334576786071727426
15183329 4 18334288726793977501
15188451 53 15841253935686081661
15475509 35 15122963794498321508
15537594 2 18271809059706977726
15961568 22 15575283232652867772
17844677 252 18259989266558440997
17870717 6 17385445419044500963
1813 80 18130238106898754948
18186145 218 17458341939958562824
18222031 100 17704072918889454541
193927 3 18339371773101547182
19784866 140 18334010575420178361
200 152 18411979148316881016
20281475 54 18272930565550890276
20325693 3 16370724829631044587
20645477 70 18407758131968412486
20871999 31 17022902319993018405
21033650 10 14635710762304349710
21267235 1 18412550886163890558
212847 35 10809342256898456310
221357 26 18187358831410155829
2215653 11 18187356649925446047
22646028 1 17917711309552682090
22950370 63 18341614845267178989
2297311 6 17022624178596549863
23175994 123 18260831527257572149
23402539 116 18343582910629602417
23557571 272 16950277399403504269
23559900 14 17968095369144369600
239999 70 18114181952147570122
2767999 5 10953742218243514414
2871803 45 18186802461520503850
29717793 49 18342742896957866388
3004659 81 18113053822888891770
312423 11 18339938038764706044
3411729 13 15912185694452907264
3472631 163 11747231155543183898
34797466 226 16950290636461172407
351380 3 18272931617891964814
4047638 21 8862944983367054184
46194498 28 17240767340696302316
465052 167 18272938253532002351
5104073 3 18270957930797042768
5281201 14 17676487254780922716
573450 72 16845293860662699635
59682541 35 18272359915807797970
7970288 3 18343017787534389446
960060 61 18334012830198945996

>  <PUBCHEM_SHAPE_MULTIPOLES>  (1) 
355.49
13.64
1.66
1
1.18
0.51
0.08
-6.69
1.83
-1.63
-0.17
0.94
-0.08
0.05

>  <PUBCHEM_SHAPE_SELFOVERLAP>  (1) 
754.599

>  <PUBCHEM_SHAPE_VOLUME>  (1) 
195.7

>  <PUBCHEM_COORDINATE_TYPE>  (1) 
2
5
10

$$$$
