41019
     RDKit          3D

 11 11  0  0  0  0  0  0  0  0999 V2000
   -2.1246    2.4308    0.0014 Cl  0  0  0  0  0  0  0  0  0  0  0  0
   -0.8397   -2.9064    0.0004 Cl  0  0  0  0  0  0  0  0  0  0  0  0
   -3.0772   -0.6215    0.0018 Cl  0  0  0  0  0  0  0  0  0  0  0  0
    2.6486    0.7561    0.0005 O   0  0  0  0  0  0  0  0  0  0  0  0
    1.3254    0.4377   -0.0011 C   0  0  0  0  0  0  0  0  0  0  0  0
    0.9301   -0.8999   -0.0011 C   0  0  0  0  0  0  0  0  0  0  0  0
    0.3647    1.4490   -0.0011 C   0  0  0  0  0  0  0  0  0  0  0  0
   -0.9915    1.1227   -0.0010 C   0  0  0  0  0  0  0  0  0  0  0  0
   -0.4261   -1.2263   -0.0011 C   0  0  0  0  0  0  0  0  0  0  0  0
   -1.3869   -0.2150   -0.0010 C   0  0  0  0  0  0  0  0  0  0  0  0
    3.5773   -0.3271    0.0021 C   0  0  0  0  0  0  0  0  0  0  0  0
  1  8  1  0
  2  9  1  0
  3 10  1  0
  4  5  1  0
  4 11  1  0
  5  6  2  0
  5  7  1  0
  6  9  1  0
  7  8  2  0
  8 10  1  0
  9 10  2  0
M  END
>  <PUBCHEM_COMPOUND_CID>  (1) 
41019

>  <PUBCHEM_CONFORMER_RMSD>  (1) 
0.4

>  <PUBCHEM_CONFORMER_DIVERSEORDER>  (1) 
1

>  <PUBCHEM_MMFF94_PARTIAL_CHARGES>  (1) 
13
1 -0.18
10 0.18
11 0.28
12 0.15
13 0.15
2 -0.18
3 -0.18
4 -0.36
5 0.08
6 -0.15
7 -0.15
8 0.18
9 0.18

>  <PUBCHEM_EFFECTIVE_ROTOR_COUNT>  (1) 
1

>  <PUBCHEM_PHARMACOPHORE_FEATURES>  (1) 
2
1 4 acceptor
6 5 6 7 8 9 10 rings

>  <PUBCHEM_HEAVY_ATOM_COUNT>  (1) 
11

>  <PUBCHEM_ATOM_DEF_STEREO_COUNT>  (1) 
0

>  <PUBCHEM_ATOM_UDEF_STEREO_COUNT>  (1) 
0

>  <PUBCHEM_BOND_DEF_STEREO_COUNT>  (1) 
0

>  <PUBCHEM_BOND_UDEF_STEREO_COUNT>  (1) 
0

>  <PUBCHEM_ISOTOPIC_ATOM_COUNT>  (1) 
0

>  <PUBCHEM_COMPONENT_COUNT>  (1) 
1

>  <PUBCHEM_CACTVS_TAUTO_COUNT>  (1) 
1

>  <PUBCHEM_CONFORMER_ID>  (1) 
0000A03B00000001

>  <PUBCHEM_MMFF94_ENERGY>  (1) 
33.8185

>  <PUBCHEM_FEATURE_SELFOVERLAP>  (1) 
10.148

>  <PUBCHEM_SHAPE_FINGERPRINT>  (1) 
11206711 2 18410291402289800701
12032990 46 18337397165860574475
12716758 59 18413105052718995200
13380535 21 18123762949920850069
13380535 76 18192427464039438969
14325111 11 18338797819236224064
16945 1 18410856611200496134
193761 8 17978510828251525191
20510252 161 18272088288194369856
20588541 1 18342464784629636711
20645476 183 17969808322746194998
20871998 184 18200599231862282670
21040471 1 18410575037576902084
21501502 16 18121213186840513251
2334 1 17689999359032268298
23402539 116 18342727550944999719
23402655 69 18196353837933667597
23552423 10 18049721811189338575
2748010 2 18266464200218397775
5084963 1 18202565085463949345
54173680 148 18265335199324536075
6333449 129 18339921524061441556
7364860 26 17692530013987695639
81228 2 18338229500183072033

>  <PUBCHEM_SHAPE_MULTIPOLES>  (1) 
226.11
4.22
2.66
0.62
2.51
0.89
0
-0.64
0
-1.68
0
-0.04
0.01
0

>  <PUBCHEM_SHAPE_SELFOVERLAP>  (1) 
442.146

>  <PUBCHEM_SHAPE_VOLUME>  (1) 
140

>  <PUBCHEM_COORDINATE_TYPE>  (1) 
2
5
10

$$$$
