41026
     RDKit          3D

 11 12  0  0  1  0  0  0  0  0999 V2000
    1.7021    2.3281   -0.2850 O   0  0  0  0  0  0  0  0  0  0  0  0
    0.4082    2.0670    0.1726 N   0  0  0  0  0  0  0  0  0  0  0  0
   -1.2180    0.3569    0.5279 C   0  0  0  0  0  0  0  0  0  0  0  0
    1.0584   -0.2243   -0.4446 C   0  0  0  0  0  0  0  0  0  0  0  0
   -2.0788   -0.3892   -0.4391 C   0  0  0  0  0  0  0  0  0  0  0  0
    1.3851   -1.3960    0.4213 C   0  0  0  0  0  0  0  0  0  0  0  0
   -2.4249    1.0189   -0.0533 C   0  0  0  0  0  0  0  0  0  0  0  0
    2.4160   -0.3358    0.1666 C   0  0  0  0  0  0  0  0  0  0  0  0
    0.1248    0.8074    0.0814 C   0  0  0  0  0  0  0  0  0  0  0  0
   -2.9192   -1.5043    0.0631 C   0  0  0  0  0  0  0  0  0  0  0  0
    1.5464   -2.7287   -0.2109 C   0  0  0  0  0  0  0  0  0  0  0  0
  1  2  1  0
  2  9  2  3
  3  5  1  0
  3  7  1  0
  3  9  1  0
  4  6  1  0
  4  8  1  0
  4  9  1  0
  5  7  1  0
  5 10  1  0
  6  8  1  0
  6 11  1  0
M  END
>  <PUBCHEM_COMPOUND_CID>  (1) 
41026

>  <PUBCHEM_CONFORMER_RMSD>  (1) 
0.6

>  <PUBCHEM_CONFORMER_DIVERSEORDER>  (1) 
3
80
75
40
90
100
104
29
61
50
86
84
108
92
62
93
71
102
74
59
97
95
89
52
37
17
56
42
35
66
101
76
46
45
30
73
103
82
57
83
19
54
34
31
64
106
69
49
60
32
99
67
24
47
25
58
22
107
7
55
16
105
41
27
109
79
23
48
53
81
72
20
98
43
70
1
85
96
68
14
10
9
36
33
51
94
88
87
91
13
2
18
77
63
8
5
39
4
78
21
11
65
12
6
15
44
38
28
26

>  <PUBCHEM_MMFF94_PARTIAL_CHARGES>  (1) 
20
1 -0.34
10 0.09
11 0.09
12 0.1
13 0.1
14 0.1
15 0.1
16 0.1
17 0.1
18 0.1
19 0.1
2 -0.51
26 0.4
3 -0.1
4 -0.1
5 -0.19
6 -0.19
7 -0.2
8 -0.2
9 0.45

>  <PUBCHEM_EFFECTIVE_ROTOR_COUNT>  (1) 
3.2

>  <PUBCHEM_PHARMACOPHORE_FEATURES>  (1) 
2
1 1 anion
1 2 acceptor

>  <PUBCHEM_HEAVY_ATOM_COUNT>  (1) 
11

>  <PUBCHEM_ATOM_DEF_STEREO_COUNT>  (1) 
0

>  <PUBCHEM_ATOM_UDEF_STEREO_COUNT>  (1) 
4

>  <PUBCHEM_BOND_DEF_STEREO_COUNT>  (1) 
0

>  <PUBCHEM_BOND_UDEF_STEREO_COUNT>  (1) 
0

>  <PUBCHEM_ISOTOPIC_ATOM_COUNT>  (1) 
0

>  <PUBCHEM_COMPONENT_COUNT>  (1) 
1

>  <PUBCHEM_CACTVS_TAUTO_COUNT>  (1) 
2

>  <PUBCHEM_CONFORMER_ID>  (1) 
0000A04200000003

>  <PUBCHEM_MMFF94_ENERGY>  (1) 
23.2638

>  <PUBCHEM_FEATURE_SELFOVERLAP>  (1) 
10.148

>  <PUBCHEM_SHAPE_FINGERPRINT>  (1) 
12382932 28 18267858398095022218
12524768 44 18055352435841517911
12897270 3 18263924517642699373
14128692 85 18342460360802525485
14648413 74 18407755937256013513
16945 1 18338517443502050893
17990270 104 18410572868613357275
18185500 45 18339081475729195555
19021347 11 18193274315478478092
20201158 50 18408599279822848795
20645477 70 18266170807467661239
20653091 64 18411983584902105449
20711985 365 17688308988932851798
20871998 184 17186168565451933330
21501502 16 18409730703205086689
22082395 3 17977665308067653609
23526114 1 18337391646732679732
23530152 11 17906455776502167638
23552423 10 18410575115112978381
241688 4 18050288063745854938
2748010 2 17760374687474236699
29004967 10 18337671923307571496
528862 383 18192139619314888112
7364860 26 18413389855910322701
81228 2 17834107546475157208

>  <PUBCHEM_SHAPE_MULTIPOLES>  (1) 
215.52
3.83
2.57
0.7
1.46
0.05
-0.01
-1.49
0.04
-1.04
0.13
0.01
-0.05
-0.07

>  <PUBCHEM_SHAPE_SELFOVERLAP>  (1) 
431.495

>  <PUBCHEM_SHAPE_VOLUME>  (1) 
130.5

>  <PUBCHEM_COORDINATE_TYPE>  (1) 
2
5
10

$$$$
