4102
     RDKit          3D

 26 28  0  0  1  0  0  0  0  0999 V2000
    2.7686   -0.4136   -1.8942 S   0  0  0  0  0  0  0  0  0  0  0  0
    1.7370   -1.8065    2.1296 O   0  0  0  0  0  0  0  0  0  0  0  0
    3.7311    2.2678   -0.2108 O   0  0  0  0  0  0  0  0  0  0  0  0
    4.8636    1.8153    1.7250 O   0  0  0  0  0  0  0  0  0  0  0  0
   -1.4161   -0.4712   -1.9665 O   0  0  0  0  0  0  0  0  0  0  0  0
   -2.3399    2.3219   -0.3129 O   0  0  0  0  0  0  0  0  0  0  0  0
   -3.6817   -2.2871   -0.2929 O   0  0  0  0  0  0  0  0  0  0  0  0
    2.3164   -0.0541    0.6610 N   0  0  0  0  0  0  0  0  0  0  0  0
   -0.7059   -0.6521    0.2326 N   0  0  0  0  0  0  0  0  0  0  0  0
    1.5694    0.0547   -0.5909 C   0  0  0  0  0  0  0  0  0  0  0  0
    4.1907   -0.6124   -0.7091 C   0  0  0  0  0  0  0  0  0  0  0  0
    3.7597    0.0634    0.6161 C   0  0  0  0  0  0  0  0  0  0  0  0
    0.6648   -1.0744   -0.0691 C   0  0  0  0  0  0  0  0  0  0  0  0
    1.5930   -1.0951    1.1615 C   0  0  0  0  0  0  0  0  0  0  0  0
    4.4169   -2.1212   -0.5108 C   0  0  0  0  0  0  0  0  0  0  0  0
    5.4480   -0.0046   -1.3415 C   0  0  0  0  0  0  0  0  0  0  0  0
    4.1566    1.5276    0.7187 C   0  0  0  0  0  0  0  0  0  0  0  0
   -1.6456   -0.3819   -0.7631 C   0  0  0  0  0  0  0  0  0  0  0  0
   -3.0016    0.0148   -0.3062 C   0  0  0  0  0  0  0  0  0  0  0  0
   -3.2766    1.3539   -0.1038 C   0  0  0  0  0  0  0  0  0  0  0  0
   -3.9523   -0.9656   -0.0955 C   0  0  0  0  0  0  0  0  0  0  0  0
   -4.5506    1.7264    0.3252 C   0  0  0  0  0  0  0  0  0  0  0  0
   -5.2261   -0.5931    0.3337 C   0  0  0  0  0  0  0  0  0  0  0  0
   -5.5253    0.7530    0.5440 C   0  0  0  0  0  0  0  0  0  0  0  0
   -2.7125    3.6645   -0.0797 C   0  0  0  0  0  0  0  0  0  0  0  0
   -3.1817   -3.0304    0.7995 C   0  0  0  0  0  0  0  0  0  0  0  0
  1 10  1  0
  1 11  1  0
  2 14  2  0
  3 17  1  0
  4 17  2  0
  5 18  2  0
  6 20  1  0
  6 25  1  0
  7 21  1  0
  7 26  1  0
  8 10  1  0
  8 12  1  0
  8 14  1  0
  9 13  1  0
  9 18  1  0
 10 13  1  0
 11 12  1  0
 11 15  1  0
 11 16  1  0
 12 17  1  0
 13 14  1  0
 18 19  1  0
 19 20  2  0
 19 21  1  0
 20 22  1  0
 21 23  2  0
 22 24  2  0
 23 24  1  0
M  CHG  1   3  -1
M  END
>  <PUBCHEM_COMPOUND_CID>  (1) 
4102

>  <PUBCHEM_CONFORMER_RMSD>  (1) 
0.8

>  <PUBCHEM_CONFORMER_DIVERSEORDER>  (1) 
1
53
63
62
44
45
67
86
69
9
10
74
34
75
13
59
41
19
56
49
80
64
52
82
37
31
79
72
76
14
47
32
81
54
85
26
50
24
21
70
77
66
40
23
42
78
15
33
25
58
43
46
65
57
68
61
7
20
60
51
16
29
2
55
71
36
38
3
12
22
28
27
73
83
35
84
30
8
17
48
6
39
11
5
4
18

>  <PUBCHEM_MMFF94_PARTIAL_CHARGES>  (1) 
28
1 -0.45
10 0.44
11 0.23
12 0.19
13 0.28
14 0.58
17 0.91
18 0.54
19 0.09
2 -0.57
20 0.08
21 0.08
22 -0.15
23 -0.15
24 -0.15
25 0.28
26 0.28
3 -0.9
36 0.37
37 0.15
38 0.15
39 0.15
4 -0.9
5 -0.57
6 -0.36
7 -0.36
8 -0.59
9 -0.65

>  <PUBCHEM_EFFECTIVE_ROTOR_COUNT>  (1) 
6.8

>  <PUBCHEM_PHARMACOPHORE_FEATURES>  (1) 
12
1 2 acceptor
1 3 acceptor
1 4 acceptor
1 5 acceptor
1 6 acceptor
1 7 acceptor
1 9 donor
3 11 15 16 hydrophobe
3 3 4 17 anion
4 8 10 13 14 rings
6 19 20 21 22 23 24 rings
7 1 8 10 11 12 13 14 rings

>  <PUBCHEM_HEAVY_ATOM_COUNT>  (1) 
26

>  <PUBCHEM_ATOM_DEF_STEREO_COUNT>  (1) 
0

>  <PUBCHEM_ATOM_UDEF_STEREO_COUNT>  (1) 
3

>  <PUBCHEM_BOND_DEF_STEREO_COUNT>  (1) 
0

>  <PUBCHEM_BOND_UDEF_STEREO_COUNT>  (1) 
0

>  <PUBCHEM_ISOTOPIC_ATOM_COUNT>  (1) 
0

>  <PUBCHEM_COMPONENT_COUNT>  (1) 
1

>  <PUBCHEM_CACTVS_TAUTO_COUNT>  (1) 
2

>  <PUBCHEM_CONFORMER_ID>  (1) 
0000100600000001

>  <PUBCHEM_MMFF94_ENERGY>  (1) 
99.5872

>  <PUBCHEM_FEATURE_SELFOVERLAP>  (1) 
64.925

>  <PUBCHEM_SHAPE_FINGERPRINT>  (1) 
10366900 7 16805329880994052120
10498660 4 18411413973729000245
10646746 165 18412262809674720508
10670039 82 18260555485414660364
11405975 8 18343021068962704186
11595378 159 18114734954213110689
12107183 9 17396696489191628243
12173636 292 18336260129488311175
12236239 1 17894638028290450175
12553582 1 16660364783409727839
12788726 201 18336544920316885489
13224815 77 18334571339119266173
13533116 47 18041838398897171451
13583140 156 18202568367061998550
13782708 43 17346878966389995207
14341114 176 18410017623762400925
14341114 328 18261392294829491289
14849402 71 18187079590528985344
15788980 27 17203609281000961006
15961568 22 18265051504272207540
17349148 13 16298385781421374931
17844677 252 18343590645881494376
21033648 29 17203035297371313569
21503847 285 18410013226153863108
21864079 5 18268976622890155293
221357 26 18343584023153102884
23557571 272 18342185461594942013
23559900 14 18341898472043831454
23569914 2 17553995019259549409
392239 28 18188493613404267081
4073 2 18334863857027139874
46194498 28 17988934366345535868
474 4 17385734603186541870
5104073 3 18413388739245499074
5281201 14 18060142020472424956
633830 44 18342167886789415246
7097593 13 17393308928611564019
90127 26 18130792282254816350
960060 61 12607412130419523592

>  <PUBCHEM_SHAPE_MULTIPOLES>  (1) 
493.74
12.91
2.9
1.42
0.02
1.13
0.01
1.96
0.44
-2.13
0.6
1.59
-0.27
0.87

>  <PUBCHEM_SHAPE_SELFOVERLAP>  (1) 
1042.376

>  <PUBCHEM_SHAPE_VOLUME>  (1) 
280.2

>  <PUBCHEM_COORDINATE_TYPE>  (1) 
2
5
10

$$$$
