41029
     RDKit          3D

 21 22  0  0  1  0  0  0  0  0999 V2000
    0.5418   -3.3667   -0.3027 Cl  0  0  0  0  0  0  0  0  0  0  0  0
   -2.4725   -2.5798    0.3913 Cl  0  0  0  0  0  0  0  0  0  0  0  0
    3.0348   -1.8040   -0.6946 O   0  0  0  0  0  0  0  0  0  0  0  0
   -2.8789    0.3289    0.7194 O   0  0  0  0  0  0  0  0  0  0  0  0
   -5.6596    1.7793   -1.0185 O   0  0  0  0  0  0  0  0  0  0  0  0
   -5.5841    0.0915    0.5090 O   0  0  0  0  0  0  0  0  0  0  0  0
    3.0253    0.6278   -0.4952 C   0  0  0  0  0  0  0  0  0  0  0  0
    4.1182    0.7221    0.5711 C   0  0  0  0  0  0  0  0  0  0  0  0
    1.8319    1.5695   -0.1644 C   0  0  0  0  0  0  0  0  0  0  0  0
    2.4201   -0.7734   -0.4814 C   0  0  0  0  0  0  0  0  0  0  0  0
    0.6661    0.6453    0.0023 C   0  0  0  0  0  0  0  0  0  0  0  0
    3.5964    0.9227   -1.8835 C   0  0  0  0  0  0  0  0  0  0  0  0
    1.0001   -0.6902   -0.1776 C   0  0  0  0  0  0  0  0  0  0  0  0
    4.7635    2.1049    0.5535 C   0  0  0  0  0  0  0  0  0  0  0  0
    3.5461    0.4116    1.9514 C   0  0  0  0  0  0  0  0  0  0  0  0
   -0.6413    0.9917    0.3047 C   0  0  0  0  0  0  0  0  0  0  0  0
    0.0806   -1.7176   -0.0703 C   0  0  0  0  0  0  0  0  0  0  0  0
   -1.5947   -0.0254    0.4200 C   0  0  0  0  0  0  0  0  0  0  0  0
   -1.2356   -1.3707    0.2335 C   0  0  0  0  0  0  0  0  0  0  0  0
   -3.5390    1.1972   -0.1974 C   0  0  0  0  0  0  0  0  0  0  0  0
   -5.0193    0.9354   -0.1705 C   0  0  0  0  0  0  0  0  0  0  0  0
  1 17  1  0
  2 19  1  0
  3 10  2  0
  4 18  1  0
  4 20  1  0
  5 21  1  0
  6 21  2  0
  7  8  1  0
  7  9  1  0
  7 10  1  0
  7 12  1  0
  8 14  1  0
  8 15  1  0
  9 11  1  0
 10 13  1  0
 11 13  2  0
 11 16  1  0
 13 17  1  0
 16 18  2  0
 17 19  2  0
 18 19  1  0
 20 21  1  0
M  END
>  <PUBCHEM_COMPOUND_CID>  (1) 
41029

>  <PUBCHEM_CONFORMER_RMSD>  (1) 
0.6

>  <PUBCHEM_CONFORMER_DIVERSEORDER>  (1) 
1
13
28
20
12
21
24
26
27
16
5
25
15
9
10
18
14
23
22
17
6
4
11
7
3
19
8
2

>  <PUBCHEM_MMFF94_PARTIAL_CHARGES>  (1) 
19
1 -0.18
10 0.42
11 -0.14
13 0.09
16 -0.15
17 0.18
18 0.08
19 0.18
2 -0.18
20 0.34
21 0.66
3 -0.57
34 0.15
37 0.5
4 -0.36
5 -0.65
6 -0.57
7 0.06
9 0.14

>  <PUBCHEM_EFFECTIVE_ROTOR_COUNT>  (1) 
4.4

>  <PUBCHEM_PHARMACOPHORE_FEATURES>  (1) 
8
1 3 acceptor
1 4 acceptor
1 5 acceptor
1 6 acceptor
3 5 6 21 anion
3 8 14 15 hydrophobe
5 7 9 10 11 13 rings
6 11 13 16 17 18 19 rings

>  <PUBCHEM_HEAVY_ATOM_COUNT>  (1) 
21

>  <PUBCHEM_ATOM_DEF_STEREO_COUNT>  (1) 
0

>  <PUBCHEM_ATOM_UDEF_STEREO_COUNT>  (1) 
1

>  <PUBCHEM_BOND_DEF_STEREO_COUNT>  (1) 
0

>  <PUBCHEM_BOND_UDEF_STEREO_COUNT>  (1) 
0

>  <PUBCHEM_ISOTOPIC_ATOM_COUNT>  (1) 
0

>  <PUBCHEM_COMPONENT_COUNT>  (1) 
1

>  <PUBCHEM_CACTVS_TAUTO_COUNT>  (1) 
1

>  <PUBCHEM_CONFORMER_ID>  (1) 
0000A04500000001

>  <PUBCHEM_MMFF94_ENERGY>  (1) 
65.8689

>  <PUBCHEM_FEATURE_SELFOVERLAP>  (1) 
40.737

>  <PUBCHEM_SHAPE_FINGERPRINT>  (1) 
10366900 7 17275108357739858168
10411042 1 17474672750244165343
10498660 4 18270690864976796896
10967382 1 18339368469733665270
11471102 20 18339646642017428629
11543360 7 15410892968060583241
12236239 1 17821727273591083680
12403259 415 18340498832179879459
12670546 56 15647049361398711029
12730499 353 18336838494258777179
12788726 201 17463988108293026978
12969540 114 17704353294776322791
13140716 1 18411141307735670570
14341114 176 9006764424527232493
15196674 1 18411984688687783106
15238133 3 16588026770914975900
15375358 24 18342176682544580225
15885798 251 8862944970028439279
16752209 62 18267022949768130706
16945 1 18124603239061415070
17349148 13 18339912758032865721
173720 79 18114731707660810435
17980427 23 18043524126448080132
1813 80 11025796448963145659
18186145 218 18059873765156981954
18222031 100 7997966852148865601
20510252 161 18057898024477101770
20645477 56 18335702766976287157
20645477 70 18129949970575279439
20715895 44 18335132051743496573
212916 134 18270664450748234674
21421861 104 17604415307173190898
21618674 25 17917702531050992520
22149856 69 18266200400197785633
22182313 1 18269578146134974031
22950370 63 9439403566416769497
2334 1 18340498853876775150
23402539 116 18409719682345483133
23402655 69 18272087159155872013
23557571 272 17773880989578232822
23559900 14 18272658956768023948
2748010 2 18340788003886184342
335352 9 18411983551328266326
34934 24 18410852191921826184
350125 39 18337956680219557910
3545911 37 18412833498726464976
4072396 5 18261660489703824696
42630746 31 18342172228816462039
4340502 62 18412824681570043515
4371632 12 14832722655670272776
474 4 18413670205742966385
495365 180 17847056675631129382
5104073 3 18335709287137219275
53917941 68 18270384109875115407
59755656 215 18339082584405797230
633830 44 17560260045076981793
7364860 26 18198906911995711722

>  <PUBCHEM_SHAPE_MULTIPOLES>  (1) 
412.43
10.16
2.72
1.14
9.66
2.32
0.01
-7.28
-0.04
0.58
-0.28
-1.18
-0.25
0.89

>  <PUBCHEM_SHAPE_SELFOVERLAP>  (1) 
864.088

>  <PUBCHEM_SHAPE_VOLUME>  (1) 
237.8

>  <PUBCHEM_COORDINATE_TYPE>  (1) 
2
5
10

$$$$
