41031
     RDKit          3D

 17 18  0  0  0  0  0  0  0  0999 V2000
    1.0198    1.9310   -0.2024 O   0  0  0  0  0  0  0  0  0  0  0  0
    0.1643   -0.2445    0.0491 N   0  0  0  0  0  0  0  0  0  0  0  0
    5.1487   -0.7720    0.0415 N   0  0  0  0  0  0  0  0  0  0  0  0
   -3.4576   -0.9511    0.1202 C   0  0  0  0  0  0  0  0  0  0  0  0
   -3.9797    0.3335   -0.0311 C   0  0  0  0  0  0  0  0  0  0  0  0
   -1.2173   -0.0520    0.0230 C   0  0  0  0  0  0  0  0  0  0  0  0
   -2.0764   -1.1438    0.1473 C   0  0  0  0  0  0  0  0  0  0  0  0
   -3.1207    1.4254   -0.1553 C   0  0  0  0  0  0  0  0  0  0  0  0
   -1.7394    1.2325   -0.1284 C   0  0  0  0  0  0  0  0  0  0  0  0
   -4.3580   -2.1350    0.2549 C   0  0  0  0  0  0  0  0  0  0  0  0
   -5.4549    0.5647   -0.0633 C   0  0  0  0  0  0  0  0  0  0  0  0
    1.1723    0.7225   -0.0609 C   0  0  0  0  0  0  0  0  0  0  0  0
    2.5633    0.1998   -0.0252 C   0  0  0  0  0  0  0  0  0  0  0  0
    3.5702    1.0178    0.4288 C   0  0  0  0  0  0  0  0  0  0  0  0
    2.8019   -1.0863   -0.4471 C   0  0  0  0  0  0  0  0  0  0  0  0
    4.8486    0.4837    0.4428 C   0  0  0  0  0  0  0  0  0  0  0  0
    4.1148   -1.5263   -0.3940 C   0  0  0  0  0  0  0  0  0  0  0  0
  1 12  2  0
  2  6  1  0
  2 12  1  0
  3 16  2  0
  3 17  1  0
  4  5  2  0
  4  7  1  0
  4 10  1  0
  5  8  1  0
  5 11  1  0
  6  7  2  0
  6  9  1  0
  8  9  2  0
 12 13  1  0
 13 14  2  0
 13 15  1  0
 14 16  1  0
 15 17  2  0
M  END
>  <PUBCHEM_COMPOUND_CID>  (1) 
41031

>  <PUBCHEM_CONFORMER_RMSD>  (1) 
0.6

>  <PUBCHEM_CONFORMER_DIVERSEORDER>  (1) 
1
5
4
6
2
3

>  <PUBCHEM_MMFF94_PARTIAL_CHARGES>  (1) 
25
1 -0.57
10 0.14
11 0.14
12 0.54
13 0.09
14 -0.15
15 -0.15
16 0.16
17 0.16
18 0.15
19 0.15
2 -0.55
20 0.15
24 0.37
28 0.15
29 0.15
3 -0.62
30 0.15
31 0.15
4 -0.14
5 -0.14
6 0.12
7 -0.15
8 -0.15
9 -0.15

>  <PUBCHEM_EFFECTIVE_ROTOR_COUNT>  (1) 
3

>  <PUBCHEM_PHARMACOPHORE_FEATURES>  (1) 
5
1 1 acceptor
1 2 donor
1 3 acceptor
6 3 13 14 15 16 17 rings
6 4 5 6 7 8 9 rings

>  <PUBCHEM_HEAVY_ATOM_COUNT>  (1) 
17

>  <PUBCHEM_ATOM_DEF_STEREO_COUNT>  (1) 
0

>  <PUBCHEM_ATOM_UDEF_STEREO_COUNT>  (1) 
0

>  <PUBCHEM_BOND_DEF_STEREO_COUNT>  (1) 
0

>  <PUBCHEM_BOND_UDEF_STEREO_COUNT>  (1) 
0

>  <PUBCHEM_ISOTOPIC_ATOM_COUNT>  (1) 
0

>  <PUBCHEM_COMPONENT_COUNT>  (1) 
1

>  <PUBCHEM_CACTVS_TAUTO_COUNT>  (1) 
2

>  <PUBCHEM_CONFORMER_ID>  (1) 
0000A04700000001

>  <PUBCHEM_MMFF94_ENERGY>  (1) 
55.3902

>  <PUBCHEM_FEATURE_SELFOVERLAP>  (1) 
25.371

>  <PUBCHEM_SHAPE_FINGERPRINT>  (1) 
12107183 9 17691971457854208738
12236239 1 17167581574777011381
13167823 11 18411134740529915810
13288520 33 18409731759555798191
13675066 3 18343862242507270744
14252887 29 17775012267306259334
14341114 176 18412550907121697409
14386348 63 18412265016944869806
15042514 8 18263649618878604115
15196674 1 18410293635461492263
15352361 1 18410575101985418405
15375358 24 18413108355427838198
17804303 29 18410014355534966237
17834072 33 18334018328068470556
1813 80 17240486892385469868
18186145 218 16660361527935085485
18522853 276 18413389825909154041
19141452 34 18412545422954823687
1986462 14 18334295361932783583
200 152 17774999094509479085
20279233 1 18343308058540006574
20374829 77 18333729113196623939
20645477 70 18059857212606581966
21065198 57 18413107268563651105
21065199 12 18343017804866446744
21065201 7 18260259733480802088
21267235 1 18410019822732928379
221490 88 18263651821204569424
2215653 11 18342173332696826119
22485316 2 18409728452346727058
23175994 123 17560804324939624801
23402539 116 18343294869307415949
23557571 272 18340489958788495900
23559900 14 18412539937838656976
239999 70 18272375257199116998
26918003 58 18273494563423454512
3004659 81 18187649055747107030
335352 9 18409167702091885909
33824 294 18341330016417349958
3545911 37 18411700971732602869
42 15 18411139134302201366
4214541 1 18410856538323423041
4921388 177 16298960852120698427
5104073 3 18412545426711598131
542803 24 13695587732787653549
67856867 119 18116436023645962668
69090 78 18272085002470405167
77779 3 18411419509798991184
9709674 26 18335988682638075627

>  <PUBCHEM_SHAPE_MULTIPOLES>  (1) 
334.02
11.99
1.79
0.66
1.85
0.29
0
2.2
-0.54
-0.72
0.03
0.11
0.02
0.64

>  <PUBCHEM_SHAPE_SELFOVERLAP>  (1) 
717.58

>  <PUBCHEM_SHAPE_VOLUME>  (1) 
183.6

>  <PUBCHEM_COORDINATE_TYPE>  (1) 
2
5
10

$$$$
