41036
     RDKit          3D

 19 20  0  0  1  0  0  0  0  0999 V2000
   -2.3506   -3.8075   -0.1865 Cl  0  0  0  0  0  0  0  0  0  0  0  0
    1.5932    1.1253    0.5452 O   0  0  0  0  0  0  0  0  0  0  0  0
    3.7527   -0.4463   -0.3210 O   0  0  0  0  0  0  0  0  0  0  0  0
    0.3195   -2.9939    0.3190 O   0  0  0  0  0  0  0  0  0  0  0  0
    0.1104   -0.6345    0.2267 N   0  0  0  0  0  0  0  0  0  0  0  0
    1.4821   -0.2987    0.4892 C   0  0  0  0  0  0  0  0  0  0  0  0
    2.4060   -0.8419   -0.5932 C   0  0  0  0  0  0  0  0  0  0  0  0
   -0.8445    0.4539    0.0153 C   0  0  0  0  0  0  0  0  0  0  0  0
    2.9404    1.5187    0.8167 C   0  0  0  0  0  0  0  0  0  0  0  0
    3.8597    0.9780   -0.2657 C   0  0  0  0  0  0  0  0  0  0  0  0
   -1.4910    0.9509    1.1089 C   0  0  0  0  0  0  0  0  0  0  0  0
   -1.0255    0.8989   -1.2613 C   0  0  0  0  0  0  0  0  0  0  0  0
   -0.3678   -1.9821    0.1618 C   0  0  0  0  0  0  0  0  0  0  0  0
   -2.4020    1.9876    0.9073 C   0  0  0  0  0  0  0  0  0  0  0  0
   -1.9365    1.9358   -1.4628 C   0  0  0  0  0  0  0  0  0  0  0  0
   -1.2746    0.4441    2.4982 C   0  0  0  0  0  0  0  0  0  0  0  0
   -0.3035    0.3366   -2.4430 C   0  0  0  0  0  0  0  0  0  0  0  0
   -2.6247    2.4802   -0.3785 C   0  0  0  0  0  0  0  0  0  0  0  0
   -1.8435   -2.1052   -0.1763 C   0  0  0  0  0  0  0  0  0  0  0  0
  1 19  1  0
  2  6  1  0
  2  9  1  0
  3  7  1  0
  3 10  1  0
  4 13  2  0
  5  6  1  0
  5  8  1  0
  5 13  1  0
  6  7  1  0
  8 11  2  0
  8 12  1  0
  9 10  1  0
 11 14  1  0
 11 16  1  0
 12 15  2  0
 12 17  1  0
 13 19  1  0
 14 18  2  0
 15 18  1  0
M  END
>  <PUBCHEM_COMPOUND_CID>  (1) 
41036

>  <PUBCHEM_CONFORMER_RMSD>  (1) 
0.8

>  <PUBCHEM_CONFORMER_DIVERSEORDER>  (1) 
1
10
9
14
12
13
7
4
6
5
2
8
11
3

>  <PUBCHEM_MMFF94_PARTIAL_CHARGES>  (1) 
22
1 -0.29
10 0.28
11 -0.14
12 -0.14
13 0.57
14 -0.15
15 -0.15
16 0.14
17 0.14
18 -0.15
19 0.35
2 -0.56
27 0.15
28 0.15
3 -0.56
35 0.15
4 -0.57
5 -0.48
6 0.58
7 0.28
8 0.12
9 0.28

>  <PUBCHEM_EFFECTIVE_ROTOR_COUNT>  (1) 
5.2

>  <PUBCHEM_PHARMACOPHORE_FEATURES>  (1) 
5
1 2 acceptor
1 3 acceptor
1 4 acceptor
6 2 3 6 7 9 10 rings
6 8 11 12 14 15 18 rings

>  <PUBCHEM_HEAVY_ATOM_COUNT>  (1) 
19

>  <PUBCHEM_ATOM_DEF_STEREO_COUNT>  (1) 
0

>  <PUBCHEM_ATOM_UDEF_STEREO_COUNT>  (1) 
1

>  <PUBCHEM_BOND_DEF_STEREO_COUNT>  (1) 
0

>  <PUBCHEM_BOND_UDEF_STEREO_COUNT>  (1) 
0

>  <PUBCHEM_ISOTOPIC_ATOM_COUNT>  (1) 
0

>  <PUBCHEM_COMPONENT_COUNT>  (1) 
1

>  <PUBCHEM_CACTVS_TAUTO_COUNT>  (1) 
1

>  <PUBCHEM_CONFORMER_ID>  (1) 
0000A04C00000001

>  <PUBCHEM_MMFF94_ENERGY>  (1) 
81.265

>  <PUBCHEM_FEATURE_SELFOVERLAP>  (1) 
25.375

>  <PUBCHEM_SHAPE_FINGERPRINT>  (1) 
10165383 225 18191888737733527692
11582403 64 16446685590868067517
11725454 13 16662870450424716965
12173636 292 18411133619511946196
13004483 165 18122617512065814442
13132413 78 17765441237513711083
13681431 1 17253152432997846195
13911987 19 17327467921440598046
14787075 74 18060697304199529033
14817 1 16532776458006393569
15309172 13 18263367992665284960
15490181 7 18335705983685330426
16945 1 18337940268806914291
17357779 13 17981870149860046775
18219364 16 18266470823295494608
18981168 100 18201146733113544808
19765921 60 17914877773736091465
20473742 2 17685769125725959863
20510252 161 18196083563460914074
20600515 1 17692827290107169562
20645476 183 17771887356217565445
21524375 3 18042965376418376600
22112679 90 17758996935164389535
23419403 2 17414138429096199377
23557571 272 18121499317730740550
23598291 2 17052448194918524401
238 59 17611159599512308021
25 1 18196652887246250068
350125 39 18409168788138564202
3729539 64 17472733246414209158
4340502 62 18057906657947182697
495365 180 17830436302957058389
5845 1 17269234856502080451
74978 22 18412538787277798192
77492 1 17127028128590995769
81228 2 18190181384958752946
8272917 22 17693377737896147353

>  <PUBCHEM_SHAPE_MULTIPOLES>  (1) 
370.29
4.77
3.49
1.71
5.48
3.01
0.06
-0.92
0
-3.68
0.15
-0.76
-0.79
0.24

>  <PUBCHEM_SHAPE_SELFOVERLAP>  (1) 
766.031

>  <PUBCHEM_SHAPE_VOLUME>  (1) 
213.5

>  <PUBCHEM_COORDINATE_TYPE>  (1) 
2
5
10

$$$$
