41048
     RDKit          3D

 28 30  0  0  0  0  0  0  0  0999 V2000
    2.8072    0.1547    0.9915 O   0  0  0  0  0  0  0  0  0  0  0  0
   -4.3555   -0.0305   -0.0709 O   0  0  0  0  0  0  0  0  0  0  0  0
   -7.5729   -1.3949   -0.0853 O   0  0  0  0  0  0  0  0  0  0  0  0
   -6.8050    0.5516   -0.7630 O   0  0  0  0  0  0  0  0  0  0  0  0
    3.6195   -3.1574   -0.3952 N   0  0  0  0  0  0  0  0  0  0  0  0
    0.5202    1.4645    0.1948 N   0  0  0  0  0  0  0  0  0  0  0  0
   -6.6109   -0.5886   -0.2486 N   0  0  0  0  0  0  0  0  0  0  0  0
    2.8829   -2.1520    0.3563 C   0  0  0  0  0  0  0  0  0  0  0  0
    4.9879   -3.2842    0.1119 C   0  0  0  0  0  0  0  0  0  0  0  0
    2.9366   -4.4521   -0.3360 C   0  0  0  0  0  0  0  0  0  0  0  0
    3.5690   -0.7989    0.2582 C   0  0  0  0  0  0  0  0  0  0  0  0
    5.7874   -4.2815   -0.7093 C   0  0  0  0  0  0  0  0  0  0  0  0
    1.5134   -4.3466   -0.8573 C   0  0  0  0  0  0  0  0  0  0  0  0
    2.8644    1.4519    0.5632 C   0  0  0  0  0  0  0  0  0  0  0  0
    1.7030    2.1069    0.1626 C   0  0  0  0  0  0  0  0  0  0  0  0
    1.8119    3.4450   -0.2703 C   0  0  0  0  0  0  0  0  0  0  0  0
    4.1081    2.0878    0.5430 C   0  0  0  0  0  0  0  0  0  0  0  0
    3.0628    4.0849   -0.2909 C   0  0  0  0  0  0  0  0  0  0  0  0
    0.6432    4.1049   -0.6737 C   0  0  0  0  0  0  0  0  0  0  0  0
    4.2079    3.4058    0.1153 C   0  0  0  0  0  0  0  0  0  0  0  0
   -0.5841    2.1372   -0.2027 C   0  0  0  0  0  0  0  0  0  0  0  0
   -0.5771    3.4456   -0.6416 C   0  0  0  0  0  0  0  0  0  0  0  0
   -1.8335    1.3957   -0.1481 C   0  0  0  0  0  0  0  0  0  0  0  0
   -1.9625    0.1238    0.3019 C   0  0  0  0  0  0  0  0  0  0  0  0
   -3.2076   -0.5832    0.3717 C   0  0  0  0  0  0  0  0  0  0  0  0
   -3.4041   -1.8397    0.8638 C   0  0  0  0  0  0  0  0  0  0  0  0
   -5.3233   -0.9600    0.1428 C   0  0  0  0  0  0  0  0  0  0  0  0
   -4.7891   -2.0906    0.7159 C   0  0  0  0  0  0  0  0  0  0  0  0
  1 11  1  0
  1 14  1  0
  2 25  1  0
  2 27  1  0
  3  7  1  0
  4  7  2  0
  5  8  1  0
  5  9  1  0
  5 10  1  0
  6 15  2  0
  6 21  1  0
  7 27  1  0
  8 11  1  0
  9 12  1  0
 10 13  1  0
 14 15  1  0
 14 17  2  0
 15 16  1  0
 16 18  1  0
 16 19  2  0
 17 20  1  0
 18 20  2  0
 19 22  1  0
 21 22  2  0
 21 23  1  0
 23 24  2  0
 24 25  1  0
 25 26  2  0
 26 28  1  0
 27 28  2  0
M  CHG  2   3  -1   7   1
M  END
>  <PUBCHEM_COMPOUND_CID>  (1) 
41048

>  <PUBCHEM_CONFORMER_RMSD>  (1) 
1

>  <PUBCHEM_CONFORMER_DIVERSEORDER>  (1) 
1
59
39
76
37
18
7
67
25
84
26
71
19
51
74
44
87
53
52
11
35
54
36
14
55
58
24
63
28
5
49
64
69
62
13
33
15
21
8
27
72
50
61
34
23
45
2
70
60
77
31
12
6
78
56
20
29
9
32
41
79
40
42
48
57
16
65
86
68
30
22
10
17
43
46
81
66
82
83
85
4
38
3
75
47
80
73

>  <PUBCHEM_MMFF94_PARTIAL_CHARGES>  (1) 
34
1 -0.36
10 0.27
11 0.28
14 0.08
15 0.31
17 -0.15
18 -0.15
19 -0.15
2 -0.28
20 -0.15
21 0.34
22 -0.15
23 -0.18
24 -0.11
25 0.09
26 -0.15
27 0.22
28 -0.15
3 -0.52
4 -0.52
43 0.15
44 0.15
45 0.15
46 0.15
47 0.15
48 0.15
49 0.15
5 -0.81
50 0.15
51 0.15
6 -0.62
7 0.96
8 0.27
9 0.27

>  <PUBCHEM_EFFECTIVE_ROTOR_COUNT>  (1) 
9

>  <PUBCHEM_PHARMACOPHORE_FEATURES>  (1) 
10
1 1 acceptor
1 2 acceptor
1 3 acceptor
1 3 anion
1 4 acceptor
1 5 cation
1 6 acceptor
5 2 25 26 27 28 rings
6 14 15 16 17 18 20 rings
6 6 15 16 19 21 22 rings

>  <PUBCHEM_HEAVY_ATOM_COUNT>  (1) 
28

>  <PUBCHEM_ATOM_DEF_STEREO_COUNT>  (1) 
0

>  <PUBCHEM_ATOM_UDEF_STEREO_COUNT>  (1) 
0

>  <PUBCHEM_BOND_DEF_STEREO_COUNT>  (1) 
0

>  <PUBCHEM_BOND_UDEF_STEREO_COUNT>  (1) 
1

>  <PUBCHEM_ISOTOPIC_ATOM_COUNT>  (1) 
0

>  <PUBCHEM_COMPONENT_COUNT>  (1) 
1

>  <PUBCHEM_CACTVS_TAUTO_COUNT>  (1) 
1

>  <PUBCHEM_CONFORMER_ID>  (1) 
0000A05800000001

>  <PUBCHEM_MMFF94_ENERGY>  (1) 
71.215

>  <PUBCHEM_FEATURE_SELFOVERLAP>  (1) 
50.875

>  <PUBCHEM_SHAPE_FINGERPRINT>  (1) 
10319688 140 18410298021203408710
10411042 1 18266458711756998322
11014199 57 18196374711105045000
11409948 41 18198322122872271079
11719270 70 18266735956233166240
11756154 67 18122068598012366196
12107183 9 18054239739213166401
12147406 95 18341620265684758030
12202916 173 18187353381455328146
13533116 47 18272087232127936393
1361 2 18339078314781251235
13631057 29 18122911928586141862
13785724 45 18339930311801529357
138480 1 18410577254096525034
13989917 61 18338800121492533179
14117953 113 18411133671351779294
14725015 67 18263634066063852762
14790565 3 17688874558911756428
14863182 85 18263369264582500100
14866123 147 17979074882280963617
15183329 4 18189329238474371377
15320467 1 17474109177314601786
15400415 2 17834397096328572321
15419008 42 18116687708971913301
15420108 30 17762039340185204744
15927050 60 18053385680423534334
17492 89 18411698755635337049
1979834 28 18340758351516083536
20028762 73 18053946431632618444
20765182 114 18411700984939238797
20775530 9 18267017259126095018
21133410 32 16229471657548710666
21133410 58 18336251410895598111
21279426 13 18188197716439215493
21285901 2 17749379403888184781
21344244 181 18051719895175979564
21344244 246 18340196514613949447
22849339 104 17187862917687699398
23559900 14 18409446994850722107
255183 451 18341898442169068582
3421961 26 18411418414682622616
38695281 34 18122063375273982136
404807 14 18051699833061810715
4073 2 17170672465620379785
4144715 1 18187370961141286595
4403749 210 17617654801366664632
5309563 4 18339361834167786430
6299153 45 18270691866495611241
70251023 43 18336829680373794192

>  <PUBCHEM_SHAPE_MULTIPOLES>  (1) 
537.81
14.59
7.46
0.83
26.52
2.03
0.01
12.87
-0.58
-13.53
-1.91
-0.06
0.12
1.68

>  <PUBCHEM_SHAPE_SELFOVERLAP>  (1) 
1149.147

>  <PUBCHEM_SHAPE_VOLUME>  (1) 
300.3

>  <PUBCHEM_COORDINATE_TYPE>  (1) 
2
5
10

$$$$
