41042
     RDKit          3D

 11 11  0  0  0  0  0  0  0  0999 V2000
    2.9731   -1.4836    0.6271 O   0  0  0  0  0  0  0  0  0  0  0  0
    1.0555    0.4722   -0.3548 C   0  0  0  0  0  0  0  0  0  0  0  0
   -1.7125    0.1486   -0.2286 C   0  0  0  0  0  0  0  0  0  0  0  0
    2.5350    0.6454   -0.4225 C   0  0  0  0  0  0  0  0  0  0  0  0
   -3.1920   -0.0248   -0.1606 C   0  0  0  0  0  0  0  0  0  0  0  0
    0.2812    1.3697    0.3803 C   0  0  0  0  0  0  0  0  0  0  0  0
    0.4458   -0.5871   -1.0269 C   0  0  0  0  0  0  0  0  0  0  0  0
   -1.1029    1.2079    0.4435 C   0  0  0  0  0  0  0  0  0  0  0  0
   -0.9382   -0.7490   -0.9639 C   0  0  0  0  0  0  0  0  0  0  0  0
    3.2756   -0.0958    0.6947 C   0  0  0  0  0  0  0  0  0  0  0  0
   -3.6206   -0.9036    1.0117 C   0  0  0  0  0  0  0  0  0  0  0  0
  1 10  1  0
  2  4  1  0
  2  6  2  0
  2  7  1  0
  3  5  1  0
  3  8  2  0
  3  9  1  0
  4 10  1  0
  5 11  1  0
  6  8  1  0
  7  9  2  0
M  END
>  <PUBCHEM_COMPOUND_CID>  (1) 
41042

>  <PUBCHEM_CONFORMER_RMSD>  (1) 
0.6

>  <PUBCHEM_CONFORMER_DIVERSEORDER>  (1) 
3
7
8
5
2
9
1
6
4

>  <PUBCHEM_MMFF94_PARTIAL_CHARGES>  (1) 
15
1 -0.68
10 0.28
16 0.15
17 0.15
18 0.15
19 0.15
2 -0.14
25 0.4
3 -0.14
4 0.14
5 0.14
6 -0.15
7 -0.15
8 -0.15
9 -0.15

>  <PUBCHEM_EFFECTIVE_ROTOR_COUNT>  (1) 
3

>  <PUBCHEM_PHARMACOPHORE_FEATURES>  (1) 
4
1 1 acceptor
1 1 donor
1 11 hydrophobe
6 2 3 6 7 8 9 rings

>  <PUBCHEM_HEAVY_ATOM_COUNT>  (1) 
11

>  <PUBCHEM_ATOM_DEF_STEREO_COUNT>  (1) 
0

>  <PUBCHEM_ATOM_UDEF_STEREO_COUNT>  (1) 
0

>  <PUBCHEM_BOND_DEF_STEREO_COUNT>  (1) 
0

>  <PUBCHEM_BOND_UDEF_STEREO_COUNT>  (1) 
0

>  <PUBCHEM_ISOTOPIC_ATOM_COUNT>  (1) 
0

>  <PUBCHEM_COMPONENT_COUNT>  (1) 
1

>  <PUBCHEM_CACTVS_TAUTO_COUNT>  (1) 
1

>  <PUBCHEM_CONFORMER_ID>  (1) 
0000A05200000003

>  <PUBCHEM_MMFF94_ENERGY>  (1) 
20.8071

>  <PUBCHEM_FEATURE_SELFOVERLAP>  (1) 
20.297

>  <PUBCHEM_SHAPE_FINGERPRINT>  (1) 
10130415 120 18343022215724039121
10219947 1 18060139851218463237
10857977 72 18060706091232897205
11769659 78 17676202494006491755
12251169 10 17989199374026944240
124424 183 18408315575968763877
12932764 1 18272081734111062700
13705890 14 17023186062712292256
14350558 41 17676215688093335899
15310529 11 18113616819570125292
16945 1 17775287174792684173
177051 138 18333733511280188282
18186145 218 9151176484309476674
19026448 4 17458057196759529957
20281407 28 18260832626431154521
20653085 51 11671769512028127914
23402655 69 11459241637516683139
23463225 33 18413670197158157108
23552423 10 18052808445076187100
2748010 2 17629215822429337293
369184 2 18130211701613456932
449060 23 15647050486611447259

>  <PUBCHEM_SHAPE_MULTIPOLES>  (1) 
220.51
5.57
1.29
1.02
0.56
0.09
-0.03
-1.49
-1.98
-0.23
-0.15
0.07
-0.23
-0.14

>  <PUBCHEM_SHAPE_SELFOVERLAP>  (1) 
444.376

>  <PUBCHEM_SHAPE_VOLUME>  (1) 
129.5

>  <PUBCHEM_COORDINATE_TYPE>  (1) 
2
5
10

$$$$
