41057
     RDKit          3D

 12 13  0  0  1  0  0  0  0  0999 V2000
   -1.8222    0.8832   -1.2579 O   0  0  0  0  0  0  0  0  0  0  0  0
    2.2592    1.5653    0.0089 O   0  0  0  0  0  0  0  0  0  0  0  0
    0.0122    0.6628    0.2609 C   0  0  0  0  0  0  0  0  0  0  0  0
   -0.8575   -0.6165    0.3324 C   0  0  0  0  0  0  0  0  0  0  0  0
    1.5314    0.3858    0.3493 C   0  0  0  0  0  0  0  0  0  0  0  0
   -0.2852   -1.7538   -0.5605 C   0  0  0  0  0  0  0  0  0  0  0  0
   -0.4378    1.2367   -1.0921 C   0  0  0  0  0  0  0  0  0  0  0  0
   -2.1693   -0.1232   -0.2917 C   0  0  0  0  0  0  0  0  0  0  0  0
    2.0140   -0.7617   -0.5360 C   0  0  0  0  0  0  0  0  0  0  0  0
    1.1945   -2.0225   -0.3161 C   0  0  0  0  0  0  0  0  0  0  0  0
   -0.3489    1.7034    1.3539 C   0  0  0  0  0  0  0  0  0  0  0  0
   -1.0903   -1.1595    1.7489 C   0  0  0  0  0  0  0  0  0  0  0  0
  1  7  1  0
  1  8  1  0
  2  5  1  0
  3  4  1  0
  3  5  1  0
  3  7  1  0
  3 11  1  0
  4  6  1  0
  4  8  1  0
  4 12  1  0
  5  9  1  0
  6 10  1  0
  9 10  1  0
M  END
>  <PUBCHEM_COMPOUND_CID>  (1) 
41057

>  <PUBCHEM_CONFORMER_RMSD>  (1) 
0.4

>  <PUBCHEM_CONFORMER_DIVERSEORDER>  (1) 
2
12
3
13
4
9
11
14
5
10
15
7
8
1
6

>  <PUBCHEM_MMFF94_PARTIAL_CHARGES>  (1) 
6
1 -0.56
2 -0.68
30 0.4
5 0.28
7 0.28
8 0.28

>  <PUBCHEM_EFFECTIVE_ROTOR_COUNT>  (1) 
1.4

>  <PUBCHEM_PHARMACOPHORE_FEATURES>  (1) 
5
1 1 acceptor
1 2 acceptor
1 2 donor
5 1 3 4 7 8 rings
6 3 4 5 6 9 10 rings

>  <PUBCHEM_HEAVY_ATOM_COUNT>  (1) 
12

>  <PUBCHEM_ATOM_DEF_STEREO_COUNT>  (1) 
0

>  <PUBCHEM_ATOM_UDEF_STEREO_COUNT>  (1) 
3

>  <PUBCHEM_BOND_DEF_STEREO_COUNT>  (1) 
0

>  <PUBCHEM_BOND_UDEF_STEREO_COUNT>  (1) 
0

>  <PUBCHEM_ISOTOPIC_ATOM_COUNT>  (1) 
0

>  <PUBCHEM_COMPONENT_COUNT>  (1) 
1

>  <PUBCHEM_CACTVS_TAUTO_COUNT>  (1) 
1

>  <PUBCHEM_CONFORMER_ID>  (1) 
0000A06100000002

>  <PUBCHEM_MMFF94_ENERGY>  (1) 
43.5294

>  <PUBCHEM_FEATURE_SELFOVERLAP>  (1) 
25.548

>  <PUBCHEM_SHAPE_FINGERPRINT>  (1) 
12423570 1 15177266138988246095
13024252 1 14707207764019842160
137420 1 12518370057769986209
14817 1 14475253515440159283
15557651 10 18191847119320795449
16945 1 18265321816295631959
18185500 45 17260461470813509366
23211744 25 17681272153217315839
241688 4 17403169301349107546
2748010 2 18339928245948874118
5084963 1 17897734162518187718
528886 8 18058155129746090359
54276843 12 17400416480631006878
68250623 7 17842852014227778993

>  <PUBCHEM_SHAPE_MULTIPOLES>  (1) 
235.22
2.44
2.06
1.32
0.52
0.07
-0.28
-0.03
0.41
0.5
-0.19
-0.62
-0.08
0.34

>  <PUBCHEM_SHAPE_SELFOVERLAP>  (1) 
486.666

>  <PUBCHEM_SHAPE_VOLUME>  (1) 
136.1

>  <PUBCHEM_COORDINATE_TYPE>  (1) 
2
5
10

$$$$
