41053
     RDKit          3D

 11 10  0  0  1  0  0  0  0  0999 V2000
   -0.3576    0.3357   -0.0830 O   0  0  0  0  0  0  0  0  0  0  0  0
   -2.2260   -1.6206    0.6012 O   0  0  0  0  0  0  0  0  0  0  0  0
    1.9366    0.7025   -0.6330 C   0  0  0  0  0  0  0  0  0  0  0  0
    2.4335   -0.7343   -0.3917 C   0  0  0  0  0  0  0  0  0  0  0  0
    0.7628    1.1618    0.2402 C   0  0  0  0  0  0  0  0  0  0  0  0
    2.8542   -0.9696    1.0591 C   0  0  0  0  0  0  0  0  0  0  0  0
    1.3386   -1.7317   -0.7809 C   0  0  0  0  0  0  0  0  0  0  0  0
    0.3724    2.6158    0.0126 C   0  0  0  0  0  0  0  0  0  0  0  0
   -1.4776    0.6477    0.7294 C   0  0  0  0  0  0  0  0  0  0  0  0
   -2.6313   -0.2746    0.3568 C   0  0  0  0  0  0  0  0  0  0  0  0
   -3.0058   -0.1326   -1.1107 C   0  0  0  0  0  0  0  0  0  0  0  0
  1  5  1  0
  1  9  1  0
  2 10  1  0
  3  4  1  0
  3  5  1  0
  4  6  1  0
  4  7  1  0
  5  8  1  0
  9 10  1  0
 10 11  1  0
M  END
>  <PUBCHEM_COMPOUND_CID>  (1) 
41053

>  <PUBCHEM_CONFORMER_RMSD>  (1) 
0.6

>  <PUBCHEM_CONFORMER_DIVERSEORDER>  (1) 
4
15
10
16
11
2
17
12
13
5
9
3
14
7
6
1
8

>  <PUBCHEM_MMFF94_PARTIAL_CHARGES>  (1) 
6
1 -0.56
10 0.28
2 -0.68
31 0.4
5 0.28
9 0.28

>  <PUBCHEM_EFFECTIVE_ROTOR_COUNT>  (1) 
5

>  <PUBCHEM_PHARMACOPHORE_FEATURES>  (1) 
4
1 1 acceptor
1 2 acceptor
1 2 donor
3 4 6 7 hydrophobe

>  <PUBCHEM_HEAVY_ATOM_COUNT>  (1) 
11

>  <PUBCHEM_ATOM_DEF_STEREO_COUNT>  (1) 
0

>  <PUBCHEM_ATOM_UDEF_STEREO_COUNT>  (1) 
2

>  <PUBCHEM_BOND_DEF_STEREO_COUNT>  (1) 
0

>  <PUBCHEM_BOND_UDEF_STEREO_COUNT>  (1) 
0

>  <PUBCHEM_ISOTOPIC_ATOM_COUNT>  (1) 
0

>  <PUBCHEM_COMPONENT_COUNT>  (1) 
1

>  <PUBCHEM_CACTVS_TAUTO_COUNT>  (1) 
1

>  <PUBCHEM_CONFORMER_ID>  (1) 
0000A05D00000004

>  <PUBCHEM_MMFF94_ENERGY>  (1) 
22.1205

>  <PUBCHEM_FEATURE_SELFOVERLAP>  (1) 
20.301

>  <PUBCHEM_SHAPE_FINGERPRINT>  (1) 
10130415 120 18334857182267731433
10857977 72 18272929384635253122
11987891 36 18339086006867088223
12932764 1 17676778633841285163
14390081 3 8358253713930870787
17834072 14 18266717143759119920
17990270 104 18340217378572763462
18619055 16 18186519899400096006
20201158 50 18409446960095442127
20645477 70 18267868479042798087
20653085 51 12974183834198297221
20653091 64 18339654450241891496
20711985 344 18050014285466556884
23552423 10 18194129739999203209
3248919 1 18341617001166714211
528862 383 18267864080542424320
6338986 31 18339912723657270519
81228 2 18123193394144580744

>  <PUBCHEM_SHAPE_MULTIPOLES>  (1) 
214.64
4.64
2.09
1.03
1.39
0.95
0.01
-2.05
-0.01
-0.45
0.03
0.01
-0.21
-0.04

>  <PUBCHEM_SHAPE_SELFOVERLAP>  (1) 
391.77

>  <PUBCHEM_SHAPE_VOLUME>  (1) 
138.2

>  <PUBCHEM_COORDINATE_TYPE>  (1) 
2
5
10

$$$$
