41054
     RDKit          3D

 13 14  0  0  1  0  0  0  0  0999 V2000
   -1.7167   -0.9997   -0.7402 O   0  0  0  0  0  0  0  0  0  0  0  0
    0.8693   -0.7096   -1.8941 O   0  0  0  0  0  0  0  0  0  0  0  0
   -2.1442    1.2276   -1.0452 O   0  0  0  0  0  0  0  0  0  0  0  0
    0.2853   -0.8539    0.5056 C   0  0  0  0  0  0  0  0  0  0  0  0
   -0.4667    0.5024    0.5892 C   0  0  0  0  0  0  0  0  0  0  0  0
    1.4146   -0.8172   -0.5756 C   0  0  0  0  0  0  0  0  0  0  0  0
   -0.8449   -1.7913    0.0787 C   0  0  0  0  0  0  0  0  0  0  0  0
    0.8967   -1.3247    1.8367 C   0  0  0  0  0  0  0  0  0  0  0  0
    2.3848    0.3512   -0.3633 C   0  0  0  0  0  0  0  0  0  0  0  0
    0.3894    1.7070    0.2896 C   0  0  0  0  0  0  0  0  0  0  0  0
   -1.5214    0.3335   -0.4923 C   0  0  0  0  0  0  0  0  0  0  0  0
   -1.2146    0.7339    1.9138 C   0  0  0  0  0  0  0  0  0  0  0  0
    1.6685    1.6408   -0.1028 C   0  0  0  0  0  0  0  0  0  0  0  0
  1  7  1  0
  1 11  1  0
  2  6  1  0
  3 11  2  0
  4  5  1  0
  4  6  1  0
  4  7  1  0
  4  8  1  0
  5 10  1  0
  5 11  1  0
  5 12  1  0
  6  9  1  0
  9 13  1  0
 10 13  2  0
M  END
>  <PUBCHEM_COMPOUND_CID>  (1) 
41054

>  <PUBCHEM_CONFORMER_RMSD>  (1) 
0.4

>  <PUBCHEM_CONFORMER_DIVERSEORDER>  (1) 
2
7
8
11
1
6
3
12
4
5
10
9

>  <PUBCHEM_MMFF94_PARTIAL_CHARGES>  (1) 
13
1 -0.43
10 -0.29
11 0.66
13 -0.29
2 -0.68
22 0.15
26 0.15
27 0.4
3 -0.57
5 0.2
6 0.28
7 0.28
9 0.14

>  <PUBCHEM_EFFECTIVE_ROTOR_COUNT>  (1) 
0.8

>  <PUBCHEM_PHARMACOPHORE_FEATURES>  (1) 
5
1 2 acceptor
1 2 donor
1 3 acceptor
5 1 4 5 7 11 rings
6 4 5 6 9 10 13 rings

>  <PUBCHEM_HEAVY_ATOM_COUNT>  (1) 
13

>  <PUBCHEM_ATOM_DEF_STEREO_COUNT>  (1) 
0

>  <PUBCHEM_ATOM_UDEF_STEREO_COUNT>  (1) 
3

>  <PUBCHEM_BOND_DEF_STEREO_COUNT>  (1) 
0

>  <PUBCHEM_BOND_UDEF_STEREO_COUNT>  (1) 
0

>  <PUBCHEM_ISOTOPIC_ATOM_COUNT>  (1) 
0

>  <PUBCHEM_COMPONENT_COUNT>  (1) 
1

>  <PUBCHEM_CACTVS_TAUTO_COUNT>  (1) 
1

>  <PUBCHEM_CONFORMER_ID>  (1) 
0000A05E00000002

>  <PUBCHEM_MMFF94_ENERGY>  (1) 
31.3104

>  <PUBCHEM_FEATURE_SELFOVERLAP>  (1) 
25.522

>  <PUBCHEM_SHAPE_FINGERPRINT>  (1) 
12423570 1 17263264632790512776
13024252 1 16738590835448375912
141345 1 13577002878127724824
144361 1 18200584907977246341
14817 1 14078393275733178338
15557651 10 17754781239842368877
16945 1 17907290301585033484
241688 4 17482558481701887590
2748010 2 18199477747434917364
369184 2 18115592689536673056
5084963 1 18193277622671887264
528886 8 17846506953723097752

>  <PUBCHEM_SHAPE_MULTIPOLES>  (1) 
249.93
2.42
1.84
1.59
0.36
0.01
0.34
0.54
-0.56
0.02
0.2
-0.26
-0.26
-0.02

>  <PUBCHEM_SHAPE_SELFOVERLAP>  (1) 
532.666

>  <PUBCHEM_SHAPE_VOLUME>  (1) 
139.3

>  <PUBCHEM_COORDINATE_TYPE>  (1) 
2
5
10

$$$$
