41059
     RDKit          3D

 11 12  0  0  0  0  0  0  0  0999 V2000
   -2.1269   -1.6848    0.0386 S   0  0  0  0  0  0  0  0  0  0  0  0
    1.5510    0.0225    0.2907 C   0  0  0  0  0  0  0  0  0  0  0  0
    2.9879   -0.3407    0.4685 C   0  0  0  0  0  0  0  0  0  0  0  0
   -1.1574    0.7106   -0.0471 C   0  0  0  0  0  0  0  0  0  0  0  0
   -0.7683   -0.6246    0.0983 C   0  0  0  0  0  0  0  0  0  0  0  0
    0.5833   -0.9836    0.2682 C   0  0  0  0  0  0  0  0  0  0  0  0
    1.1895    1.3546    0.1479 C   0  0  0  0  0  0  0  0  0  0  0  0
   -0.1522    1.7074   -0.0199 C   0  0  0  0  0  0  0  0  0  0  0  0
   -2.5795    0.8230   -0.2052 C   0  0  0  0  0  0  0  0  0  0  0  0
    3.6914   -0.5906   -0.8624 C   0  0  0  0  0  0  0  0  0  0  0  0
   -3.2187   -0.3938   -0.1774 C   0  0  0  0  0  0  0  0  0  0  0  0
  1  5  1  0
  1 11  1  0
  2  3  1  0
  2  6  2  0
  2  7  1  0
  3 10  1  0
  4  5  2  0
  4  8  1  0
  4  9  1  0
  5  6  1  0
  7  8  2  0
  9 11  2  0
M  END
>  <PUBCHEM_COMPOUND_CID>  (1) 
41059

>  <PUBCHEM_CONFORMER_RMSD>  (1) 
0.4

>  <PUBCHEM_CONFORMER_DIVERSEORDER>  (1) 
1
2
4
3

>  <PUBCHEM_MMFF94_PARTIAL_CHARGES>  (1) 
14
1 -0.08
11 -0.11
14 0.15
15 0.15
16 0.15
17 0.15
2 -0.14
21 0.15
3 0.14
5 0.04
6 -0.15
7 -0.15
8 -0.15
9 -0.15

>  <PUBCHEM_EFFECTIVE_ROTOR_COUNT>  (1) 
1

>  <PUBCHEM_PHARMACOPHORE_FEATURES>  (1) 
3
1 10 hydrophobe
5 1 4 5 9 11 rings
6 2 4 5 6 7 8 rings

>  <PUBCHEM_HEAVY_ATOM_COUNT>  (1) 
11

>  <PUBCHEM_ATOM_DEF_STEREO_COUNT>  (1) 
0

>  <PUBCHEM_ATOM_UDEF_STEREO_COUNT>  (1) 
0

>  <PUBCHEM_BOND_DEF_STEREO_COUNT>  (1) 
0

>  <PUBCHEM_BOND_UDEF_STEREO_COUNT>  (1) 
0

>  <PUBCHEM_ISOTOPIC_ATOM_COUNT>  (1) 
0

>  <PUBCHEM_COMPONENT_COUNT>  (1) 
1

>  <PUBCHEM_CACTVS_TAUTO_COUNT>  (1) 
1

>  <PUBCHEM_CONFORMER_ID>  (1) 
0000A06300000001

>  <PUBCHEM_MMFF94_ENERGY>  (1) 
20.0462

>  <PUBCHEM_FEATURE_SELFOVERLAP>  (1) 
15.283

>  <PUBCHEM_SHAPE_FINGERPRINT>  (1) 
10465860 71 18338535087623140964
11206711 2 18261664896514356757
11543360 7 15719397281987551187
12032990 46 18411986874815470379
12897270 3 18409444778162066574
12932764 1 17604137186159703769
14128692 85 18337112366325702812
14325111 11 18410570712428758056
14911166 2 18409161095851688981
14993402 34 18408881824135152791
16945 1 18336819814728543089
193761 8 17760928845592309610
20201158 50 18413387622538164223
20645476 183 17603877710222222214
23402655 69 18122321512417051229
23463225 33 18262512581493666074
23552423 10 18115585005623902601
23559900 14 18341049632604555390
2748010 2 18265043824537437097
369184 2 15267057051574461443
5084963 1 18343300409350828619
528886 8 18410566263027112971
7364860 26 18126848433015153344
8809292 202 18188493587492375947

>  <PUBCHEM_SHAPE_MULTIPOLES>  (1) 
230.22
5.19
1.63
0.73
2.04
0.18
-0.04
-1.4
-0.85
-0.5
0.01
0.29
-0.06
0.19

>  <PUBCHEM_SHAPE_SELFOVERLAP>  (1) 
481.451

>  <PUBCHEM_SHAPE_VOLUME>  (1) 
131.8

>  <PUBCHEM_COORDINATE_TYPE>  (1) 
2
5
10

$$$$
