41051
     RDKit          3D

 32 34  0  0  0  0  0  0  0  0999 V2000
   -1.1238   -4.1495    1.6588 Br  0  0  0  0  0  0  0  0  0  0  0  0
   -6.6056   -3.2336    0.5558 Br  0  0  0  0  0  0  0  0  0  0  0  0
    0.1987   -3.3818   -1.1309 O   0  0  0  0  0  0  0  0  0  0  0  0
    3.3640    0.9260    1.3491 O   0  0  0  0  0  0  0  0  0  0  0  0
    5.2564    0.3399   -0.6004 O   0  0  0  0  0  0  0  0  0  0  0  0
    6.0887   -1.3762    0.7566 O   0  0  0  0  0  0  0  0  0  0  0  0
   -2.8118    1.2444   -0.4771 N   0  0  0  0  0  0  0  0  0  0  0  0
   -0.7986   -1.5421   -0.0614 N   0  0  0  0  0  0  0  0  0  0  0  0
   -2.4685    3.6750   -0.3899 C   0  0  0  0  0  0  0  0  0  0  0  0
   -2.2380    4.9298   -1.2429 C   0  0  0  0  0  0  0  0  0  0  0  0
   -1.3967    3.5517    0.7015 C   0  0  0  0  0  0  0  0  0  0  0  0
   -2.1566    6.1890   -0.3829 C   0  0  0  0  0  0  0  0  0  0  0  0
   -1.3169    4.8132    1.5582 C   0  0  0  0  0  0  0  0  0  0  0  0
   -1.0963    6.0592    0.7062 C   0  0  0  0  0  0  0  0  0  0  0  0
   -2.4927    2.4240   -1.2662 C   0  0  0  0  0  0  0  0  0  0  0  0
   -2.8257    0.0475   -1.3084 C   0  0  0  0  0  0  0  0  0  0  0  0
   -3.1414   -1.1879   -0.5077 C   0  0  0  0  0  0  0  0  0  0  0  0
   -2.1316   -1.9430    0.0887 C   0  0  0  0  0  0  0  0  0  0  0  0
   -4.4750   -1.5728   -0.3685 C   0  0  0  0  0  0  0  0  0  0  0  0
   -2.4553   -3.0829    0.8244 C   0  0  0  0  0  0  0  0  0  0  0  0
   -4.7986   -2.7126    0.3673 C   0  0  0  0  0  0  0  0  0  0  0  0
   -3.7889   -3.4677    0.9639 C   0  0  0  0  0  0  0  0  0  0  0  0
    0.2525   -2.2585   -0.6416 C   0  0  0  0  0  0  0  0  0  0  0  0
    1.5709   -1.5721   -0.6276 C   0  0  0  0  0  0  0  0  0  0  0  0
    1.8583   -0.6336    0.3635 C   0  0  0  0  0  0  0  0  0  0  0  0
    2.5204   -1.8658   -1.6063 C   0  0  0  0  0  0  0  0  0  0  0  0
    3.0951    0.0112    0.3762 C   0  0  0  0  0  0  0  0  0  0  0  0
    3.7571   -1.2207   -1.5939 C   0  0  0  0  0  0  0  0  0  0  0  0
    4.0446   -0.2823   -0.6026 C   0  0  0  0  0  0  0  0  0  0  0  0
    2.3398    1.1683    2.3117 C   0  0  0  0  0  0  0  0  0  0  0  0
    6.2422   -0.3286    0.1429 C   0  0  0  0  0  0  0  0  0  0  0  0
    7.5334    0.4325    0.0835 C   0  0  0  0  0  0  0  0  0  0  0  0
  1 20  1  0
  2 21  1  0
  3 23  2  0
  4 27  1  0
  4 30  1  0
  5 29  1  0
  5 31  1  0
  6 31  2  0
  7 15  1  0
  7 16  1  0
  8 18  1  0
  8 23  1  0
  9 10  1  0
  9 11  1  0
  9 15  1  0
 10 12  1  0
 11 13  1  0
 12 14  1  0
 13 14  1  0
 16 17  1  0
 17 18  1  0
 17 19  2  0
 18 20  2  0
 19 21  1  0
 20 22  1  0
 21 22  2  0
 23 24  1  0
 24 25  2  0
 24 26  1  0
 25 27  1  0
 26 28  2  0
 27 29  2  0
 28 29  1  0
 31 32  1  0
M  END
>  <PUBCHEM_COMPOUND_CID>  (1) 
41051

>  <PUBCHEM_CONFORMER_RMSD>  (1) 
1

>  <PUBCHEM_CONFORMER_DIVERSEORDER>  (1) 
2
48
26
107
92
46
41
67
36
106
23
136
117
31
55
100
29
83
27
93
118
17
102
73
30
85
63
116
74
64
43
88
5
16
123
38
105
78
113
44
82
81
32
68
58
94
97
127
53
120
1
34
60
133
119
111
126
115
130
124
95
128
125
135
112
75
104
12
84
59
108
69
57
22
6
86
62
40
121
54
98
61
37
90
114
71
103
66
42
35
122
131
91
77
129
76
80
109
56
21
132
70
89
19
20
96
47
10
8
45
50
49
9
134
99
33
39
25
51
4
14
79
87
101
24
28
52
11
72
3
18
65
13
7
110
15

>  <PUBCHEM_MMFF94_PARTIAL_CHARGES>  (1) 
33
1 -0.11
15 0.27
16 0.41
17 -0.14
18 0.12
19 -0.15
2 -0.11
20 0.11
21 0.11
22 -0.15
23 0.54
24 0.09
25 -0.15
26 -0.15
27 0.08
28 -0.15
29 0.08
3 -0.57
30 0.28
31 0.66
32 0.06
4 -0.36
46 0.36
49 0.15
5 -0.23
50 0.37
51 0.15
52 0.15
53 0.15
54 0.15
6 -0.57
7 -0.9
8 -0.55

>  <PUBCHEM_EFFECTIVE_ROTOR_COUNT>  (1) 
11.2

>  <PUBCHEM_PHARMACOPHORE_FEATURES>  (1) 
11
1 1 hydrophobe
1 2 hydrophobe
1 3 acceptor
1 4 acceptor
1 6 acceptor
1 7 cation
1 7 donor
1 8 donor
6 17 18 19 20 21 22 rings
6 24 25 26 27 28 29 rings
6 9 10 11 12 13 14 rings

>  <PUBCHEM_HEAVY_ATOM_COUNT>  (1) 
32

>  <PUBCHEM_ATOM_DEF_STEREO_COUNT>  (1) 
0

>  <PUBCHEM_ATOM_UDEF_STEREO_COUNT>  (1) 
0

>  <PUBCHEM_BOND_DEF_STEREO_COUNT>  (1) 
0

>  <PUBCHEM_BOND_UDEF_STEREO_COUNT>  (1) 
0

>  <PUBCHEM_ISOTOPIC_ATOM_COUNT>  (1) 
0

>  <PUBCHEM_COMPONENT_COUNT>  (1) 
1

>  <PUBCHEM_CACTVS_TAUTO_COUNT>  (1) 
2

>  <PUBCHEM_CONFORMER_ID>  (1) 
0000A05B00000002

>  <PUBCHEM_MMFF94_ENERGY>  (1) 
98.5125

>  <PUBCHEM_FEATURE_SELFOVERLAP>  (1) 
55.82

>  <PUBCHEM_SHAPE_FINGERPRINT>  (1) 
10688039 33 18340492261148981082
10937287 8 17761494690697021693
11059845 2 17830146049668055970
11434127 23 18341604868306428356
12788726 201 18334006186143287867
13402501 40 18271805769461465106
14363568 33 17689728874877219009
14705955 166 18408318874350789666
14725015 67 18410565206438998891
151778 21 17183913462940981045
15400415 2 17689153414381280292
15419008 47 18201158849131682874
16067689 134 17615971007342128178
16067689 391 16412116872914474652
19319366 153 17333364602247372217
20238998 120 18339084891087870165
21033650 10 18117303409856185966
21304253 13 18338524157480297123
21591340 35 17404011527182351800
21641784 216 18196960926791073540
283562 15 18334294237058014551
3418910 222 18188782781306370988
3886686 26 17612561472490806923
469060 322 18337408083946581081
508706 21 18341609265988746940
5171179 24 18120363514267746903
9849439 229 17904758877910439165

>  <PUBCHEM_SHAPE_MULTIPOLES>  (1) 
636.99
13.04
8.81
1.56
16.25
19.78
0.31
-12.09
0.87
-11.43
1.59
0.46
0.13
2.32

>  <PUBCHEM_SHAPE_SELFOVERLAP>  (1) 
1311.146

>  <PUBCHEM_SHAPE_VOLUME>  (1) 
373

>  <PUBCHEM_COORDINATE_TYPE>  (1) 
2
5
10

$$$$
