41058
     RDKit          3D

 31 35  0  0  1  0  0  0  0  0999 V2000
   -0.8557   -1.8603    1.3501 O   0  0  0  0  0  0  0  0  0  0  0  0
   -4.0728   -0.9960   -1.5081 O   0  0  0  0  0  0  0  0  0  0  0  0
    0.3219    0.4839   -1.7673 O   0  0  0  0  0  0  0  0  0  0  0  0
    0.6285    3.1552   -0.8118 O   0  0  0  0  0  0  0  0  0  0  0  0
   -0.8684    4.1689    0.7803 O   0  0  0  0  0  0  0  0  0  0  0  0
    0.5148   -1.1741    3.0791 O   0  0  0  0  0  0  0  0  0  0  0  0
    3.1751   -0.5315    2.0294 O   0  0  0  0  0  0  0  0  0  0  0  0
    4.5977   -0.4605   -0.3605 O   0  0  0  0  0  0  0  0  0  0  0  0
   -3.2582   -1.6496   -0.6020 N   0  0  0  0  0  0  0  0  0  0  0  0
   -1.8089   -1.1700   -0.7806 C   0  0  0  0  0  0  0  0  0  0  0  0
   -0.7595   -2.0521   -0.0871 C   0  0  0  0  0  0  0  0  0  0  0  0
   -3.7252   -1.3494    0.8043 C   0  0  0  0  0  0  0  0  0  0  0  0
   -1.6225    0.2755   -0.3447 C   0  0  0  0  0  0  0  0  0  0  0  0
   -3.7202    0.1452    1.1002 C   0  0  0  0  0  0  0  0  0  0  0  0
   -2.5024    0.8731    0.5925 C   0  0  0  0  0  0  0  0  0  0  0  0
   -3.3986   -3.1205   -0.8778 C   0  0  0  0  0  0  0  0  0  0  0  0
    0.6397   -1.6603   -0.3662 C   0  0  0  0  0  0  0  0  0  0  0  0
   -0.5386    1.0123   -0.8566 C   0  0  0  0  0  0  0  0  0  0  0  0
   -2.2925    2.2000    1.0070 C   0  0  0  0  0  0  0  0  0  0  0  0
    1.2641   -1.2962    0.8103 C   0  0  0  0  0  0  0  0  0  0  0  0
   -0.3632    2.3089   -0.4214 C   0  0  0  0  0  0  0  0  0  0  0  0
   -1.2153    2.8861    0.4871 C   0  0  0  0  0  0  0  0  0  0  0  0
    0.3153   -1.4166    1.9056 C   0  0  0  0  0  0  0  0  0  0  0  0
    1.3345   -1.6328   -1.5627 C   0  0  0  0  0  0  0  0  0  0  0  0
    2.5841   -0.8873    0.8613 C   0  0  0  0  0  0  0  0  0  0  0  0
    2.6715   -1.2240   -1.5452 C   0  0  0  0  0  0  0  0  0  0  0  0
    3.2922   -0.8533   -0.3404 C   0  0  0  0  0  0  0  0  0  0  0  0
    0.3030    4.3322   -0.0449 C   0  0  0  0  0  0  0  0  0  0  0  0
    0.4228    1.1463   -3.0277 C   0  0  0  0  0  0  0  0  0  0  0  0
    3.6852    0.7997    2.1252 C   0  0  0  0  0  0  0  0  0  0  0  0
    5.2515   -0.4529   -1.6274 C   0  0  0  0  0  0  0  0  0  0  0  0
  1 11  1  0
  1 23  1  0
  2  9  1  0
  3 18  1  0
  3 29  1  0
  4 21  1  0
  4 28  1  0
  5 22  1  0
  5 28  1  0
  6 23  2  0
  7 25  1  0
  7 30  1  0
  8 27  1  0
  8 31  1  0
  9 10  1  0
  9 12  1  0
  9 16  1  0
 10 11  1  0
 10 13  1  0
 11 17  1  0
 12 14  1  0
 13 15  2  0
 13 18  1  0
 14 15  1  0
 15 19  1  0
 17 20  2  0
 17 24  1  0
 18 21  2  0
 19 22  2  0
 20 23  1  0
 20 25  1  0
 21 22  1  0
 24 26  2  0
 25 27  2  0
 26 27  1  0
M  CHG  2   2  -1   9   1
M  END
>  <PUBCHEM_COMPOUND_CID>  (1) 
41058

>  <PUBCHEM_CONFORMER_RMSD>  (1) 
0.8

>  <PUBCHEM_CONFORMER_DIVERSEORDER>  (1) 
1
5
2
8
4
6
7
3

>  <PUBCHEM_MMFF94_PARTIAL_CHARGES>  (1) 
34
1 -0.43
10 0.4
11 0.42
12 0.26
13 -0.14
14 0.14
15 -0.14
16 0.26
17 -0.14
18 0.08
19 -0.15
2 -0.75
20 0.09
21 0.08
22 0.08
23 0.63
24 -0.15
25 0.08
26 -0.15
27 0.08
28 0.56
29 0.28
3 -0.36
30 0.28
31 0.28
4 -0.36
41 0.15
42 0.15
43 0.15
5 -0.36
6 -0.57
7 -0.36
8 -0.36
9 -0.02

>  <PUBCHEM_EFFECTIVE_ROTOR_COUNT>  (1) 
5.8

>  <PUBCHEM_PHARMACOPHORE_FEATURES>  (1) 
12
1 2 anion
1 3 acceptor
1 4 acceptor
1 5 acceptor
1 6 acceptor
1 7 acceptor
1 8 acceptor
5 1 11 17 20 23 rings
5 4 5 21 22 28 rings
6 13 15 18 19 21 22 rings
6 17 20 24 25 26 27 rings
6 9 10 12 13 14 15 rings

>  <PUBCHEM_HEAVY_ATOM_COUNT>  (1) 
31

>  <PUBCHEM_ATOM_DEF_STEREO_COUNT>  (1) 
1

>  <PUBCHEM_ATOM_UDEF_STEREO_COUNT>  (1) 
2

>  <PUBCHEM_BOND_DEF_STEREO_COUNT>  (1) 
0

>  <PUBCHEM_BOND_UDEF_STEREO_COUNT>  (1) 
0

>  <PUBCHEM_ISOTOPIC_ATOM_COUNT>  (1) 
0

>  <PUBCHEM_COMPONENT_COUNT>  (1) 
1

>  <PUBCHEM_CACTVS_TAUTO_COUNT>  (1) 
1

>  <PUBCHEM_CONFORMER_ID>  (1) 
0000A06200000001

>  <PUBCHEM_MMFF94_ENERGY>  (1) 
142.1807

>  <PUBCHEM_FEATURE_SELFOVERLAP>  (1) 
61.174

>  <PUBCHEM_SHAPE_FINGERPRINT>  (1) 
10006869 2 17975420105777565609
10165383 225 17627525838518268201
10369192 42 16699464646108593120
10498660 4 18339351959852836877
10863032 1 17915747465985199382
1100329 8 18338530706809486401
11578080 2 16269434467794113325
12156800 1 15074745849453551996
12553582 1 18409731768145791195
12788726 201 18334861567239280552
128993 33 17619910556749783416
13224815 77 17822011952249471586
133893 2 17898844927535025773
13965767 371 16888658319646790612
14081887 123 18268984298022781777
14713325 29 18199472069736182470
14787075 74 17968956282506503534
14955137 171 18337690688494941699
16728300 4 16822737628558349416
16945 1 18339359647928913679
18393751 57 17770189946872615714
18981168 100 17625796306901654808
19930381 70 18054507182198949692
20600515 1 18044353127670571114
20905425 154 17325486000238870171
21033648 29 17774719741626525723
21421861 104 18051988201508081979
229495 10 17131532965153240670
23419403 2 17684889825587557973
34934 24 18117850906311268193
350125 39 17619071625167166919
35225 105 17902219027588124112
392239 28 18408326596849850352
513532 50 13096025571202200190
57527306 92 18188505600615681413
57527585 21 17843651505347911908
6287921 2 17988365969951355792
7808743 9 18195819457696321868

>  <PUBCHEM_SHAPE_MULTIPOLES>  (1) 
586.03
6.67
3.99
2.29
4.05
4.79
0.27
-3.27
-0.33
-2.35
-0.15
1.37
-0.32
-0.42

>  <PUBCHEM_SHAPE_SELFOVERLAP>  (1) 
1313.619

>  <PUBCHEM_SHAPE_VOLUME>  (1) 
311.2

>  <PUBCHEM_COORDINATE_TYPE>  (1) 
2
5
10

$$$$
