41055
     RDKit          3D

 12 13  0  0  0  0  0  0  0  0999 V2000
   -2.4202    1.1903    0.0002 S   0  0  0  0  0  0  0  0  0  0  0  0
    3.2508   -0.2261   -0.0001 O   0  0  0  0  0  0  0  0  0  0  0  0
   -1.5243   -1.2284    0.0003 N   0  0  0  0  0  0  0  0  0  0  0  0
   -3.8775   -1.0291   -0.0008 N   0  0  0  0  0  0  0  0  0  0  0  0
   -0.4187   -0.3905    0.0001 C   0  0  0  0  0  0  0  0  0  0  0  0
   -0.7091    0.9772    0.0000 C   0  0  0  0  0  0  0  0  0  0  0  0
    0.9337   -0.7959    0.0001 C   0  0  0  0  0  0  0  0  0  0  0  0
    1.9466    0.1676    0.0000 C   0  0  0  0  0  0  0  0  0  0  0  0
    0.3031    1.9504   -0.0001 C   0  0  0  0  0  0  0  0  0  0  0  0
    1.6331    1.5223   -0.0002 C   0  0  0  0  0  0  0  0  0  0  0  0
   -2.6217   -0.5082    0.0006 C   0  0  0  0  0  0  0  0  0  0  0  0
    3.5042   -1.6296   -0.0001 C   0  0  0  0  0  0  0  0  0  0  0  0
  1  6  1  0
  1 11  1  0
  2  8  1  0
  2 12  1  0
  3  5  1  0
  3 11  2  0
  4 11  1  0
  5  6  2  0
  5  7  1  0
  6  9  1  0
  7  8  2  0
  8 10  1  0
  9 10  2  0
M  END
>  <PUBCHEM_COMPOUND_CID>  (1) 
41055

>  <PUBCHEM_CONFORMER_RMSD>  (1) 
0.4

>  <PUBCHEM_CONFORMER_DIVERSEORDER>  (1) 
1
2

>  <PUBCHEM_MMFF94_PARTIAL_CHARGES>  (1) 
17
1 -0.08
10 -0.15
11 0.46
12 0.28
13 0.15
14 0.15
15 0.15
16 0.4
17 0.4
2 -0.36
3 -0.57
4 -0.88
5 0.23
6 0.04
7 -0.15
8 0.08
9 -0.15

>  <PUBCHEM_EFFECTIVE_ROTOR_COUNT>  (1) 
1

>  <PUBCHEM_PHARMACOPHORE_FEATURES>  (1) 
5
1 2 acceptor
1 4 donor
3 3 4 11 cation
5 1 3 5 6 11 rings
6 5 6 7 8 9 10 rings

>  <PUBCHEM_HEAVY_ATOM_COUNT>  (1) 
12

>  <PUBCHEM_ATOM_DEF_STEREO_COUNT>  (1) 
0

>  <PUBCHEM_ATOM_UDEF_STEREO_COUNT>  (1) 
0

>  <PUBCHEM_BOND_DEF_STEREO_COUNT>  (1) 
0

>  <PUBCHEM_BOND_UDEF_STEREO_COUNT>  (1) 
0

>  <PUBCHEM_ISOTOPIC_ATOM_COUNT>  (1) 
0

>  <PUBCHEM_COMPONENT_COUNT>  (1) 
1

>  <PUBCHEM_CACTVS_TAUTO_COUNT>  (1) 
2

>  <PUBCHEM_CONFORMER_ID>  (1) 
0000A05F00000001

>  <PUBCHEM_MMFF94_ENERGY>  (1) 
33.3348

>  <PUBCHEM_FEATURE_SELFOVERLAP>  (1) 
25.443

>  <PUBCHEM_SHAPE_FINGERPRINT>  (1) 
10130415 120 18408603656098637264
11471102 20 18338230570173273597
11543360 7 15719688631136312286
11769659 78 18412541011458927615
12032990 46 18410578370318581966
12932764 1 17560797792172898429
14128692 85 18409452487786787412
14144814 61 18411138026084705002
14325111 11 18410855455886188864
16945 1 18194401327671119525
193761 8 17762337320124718562
200 152 17988350534302883877
20201158 50 18409729568864287115
20645477 70 18337385054316621983
20871998 184 18130503016302103822
20871998 22 18271815566524428078
21501502 16 18411145748515355661
21501925 9 18411127061254659984
23402539 116 18272077267371370847
23463225 33 18410294683676196638
23552423 10 18261394498158081804
23559900 14 18196646290835911866
2748010 2 18410284826547190132
5084963 1 18343302591194344881
7364860 26 18269837686950976800
8809292 202 18187651348732220179

>  <PUBCHEM_SHAPE_MULTIPOLES>  (1) 
234.97
5.42
1.86
0.6
0.24
0.43
0
-2.65
0
0.19
0
-0.01
0.03
0

>  <PUBCHEM_SHAPE_SELFOVERLAP>  (1) 
496.198

>  <PUBCHEM_SHAPE_VOLUME>  (1) 
134.7

>  <PUBCHEM_COORDINATE_TYPE>  (1) 
2
5
10

$$$$
