41066
     RDKit          3D

 17 17  0  0  0  0  0  0  0  0999 V2000
   -5.7495    1.8086   -1.1794 Br  0  0  0  0  0  0  0  0  0  0  0  0
    0.9421   -0.0629    0.0644 O   0  0  0  0  0  0  0  0  0  0  0  0
    0.3984   -2.2990    0.0013 O   0  0  0  0  0  0  0  0  0  0  0  0
    4.6193    0.5500   -0.1025 N   0  0  0  0  0  0  0  0  0  0  0  0
    3.1417    0.8963    0.0106 C   0  0  0  0  0  0  0  0  0  0  0  0
    4.8618   -0.2246   -1.3898 C   0  0  0  0  0  0  0  0  0  0  0  0
    5.4407    1.8312   -0.1188 C   0  0  0  0  0  0  0  0  0  0  0  0
    5.0333   -0.3027    1.0882 C   0  0  0  0  0  0  0  0  0  0  0  0
    2.3257   -0.3812   -0.0046 C   0  0  0  0  0  0  0  0  0  0  0  0
    0.0840   -1.1203    0.0592 C   0  0  0  0  0  0  0  0  0  0  0  0
   -1.3244   -0.6559    0.1334 C   0  0  0  0  0  0  0  0  0  0  0  0
   -2.3102   -1.4166   -0.4612 C   0  0  0  0  0  0  0  0  0  0  0  0
   -1.6040    0.5217    0.7965 C   0  0  0  0  0  0  0  0  0  0  0  0
   -3.9418    0.2063    0.2748 C   0  0  0  0  0  0  0  0  0  0  0  0
   -3.6334   -0.9806   -0.3898 C   0  0  0  0  0  0  0  0  0  0  0  0
   -2.9271    0.9574    0.8680 C   0  0  0  0  0  0  0  0  0  0  0  0
   -5.3565    0.6723    0.3499 C   0  0  0  0  0  0  0  0  0  0  0  0
  1 17  1  0
  2  9  1  0
  2 10  1  0
  3 10  2  0
  4  5  1  0
  4  6  1  0
  4  7  1  0
  4  8  1  0
  5  9  1  0
 10 11  1  0
 11 12  2  0
 11 13  1  0
 12 15  1  0
 13 16  2  0
 14 15  2  0
 14 16  1  0
 14 17  1  0
M  CHG  1   4   1
M  END
>  <PUBCHEM_COMPOUND_CID>  (1) 
41066

>  <PUBCHEM_CONFORMER_RMSD>  (1) 
0.8

>  <PUBCHEM_CONFORMER_DIVERSEORDER>  (1) 
1
10
9
14
18
24
2
16
21
19
5
22
11
25
28
8
17
13
4
27
20
30
23
7
3
6
12
26
15
29

>  <PUBCHEM_MMFF94_PARTIAL_CHARGES>  (1) 
21
1 -0.23
10 0.63
11 0.09
12 -0.15
13 -0.15
14 -0.14
15 -0.15
16 -0.15
17 0.37
2 -0.43
3 -0.57
31 0.15
32 0.15
33 0.15
34 0.15
4 -1.01
5 0.5
6 0.5
7 0.5
8 0.5
9 0.28

>  <PUBCHEM_EFFECTIVE_ROTOR_COUNT>  (1) 
6

>  <PUBCHEM_PHARMACOPHORE_FEATURES>  (1) 
4
1 1 hydrophobe
1 3 acceptor
1 4 cation
6 11 12 13 14 15 16 rings

>  <PUBCHEM_HEAVY_ATOM_COUNT>  (1) 
17

>  <PUBCHEM_ATOM_DEF_STEREO_COUNT>  (1) 
0

>  <PUBCHEM_ATOM_UDEF_STEREO_COUNT>  (1) 
0

>  <PUBCHEM_BOND_DEF_STEREO_COUNT>  (1) 
0

>  <PUBCHEM_BOND_UDEF_STEREO_COUNT>  (1) 
0

>  <PUBCHEM_ISOTOPIC_ATOM_COUNT>  (1) 
0

>  <PUBCHEM_COMPONENT_COUNT>  (1) 
1

>  <PUBCHEM_CACTVS_TAUTO_COUNT>  (1) 
1

>  <PUBCHEM_CONFORMER_ID>  (1) 
0000A06A00000001

>  <PUBCHEM_MMFF94_ENERGY>  (1) 
53.2033

>  <PUBCHEM_FEATURE_SELFOVERLAP>  (1) 
20.297

>  <PUBCHEM_SHAPE_FINGERPRINT>  (1) 
10014705 185 18411138052097127725
100836 57 18335144193314744789
11287383 113 14764340557189112394
117890 112 17676486116683258053
12236239 1 18259981587082718250
12596602 18 17531248391549254544
12916748 109 18342465858698242178
13214271 11 18113622296444497315
13288520 33 9655578513468071851
13533116 47 16773803541848001134
13668630 136 12895077318913680428
14123255 352 18334856104289092381
14252887 29 12107781887404883936
14341114 176 13190343469834010646
14350574 20 11887660798064787501
17834072 8 18202009806939199942
19784866 240 11600002172228197313
200 152 15482674580521992227
20281389 69 18113897148207416045
20300324 65 17775288295905625379
20621476 21 13613656606717937653
20645477 56 18201442505635404699
20645477 70 16701755873684898102
212847 35 18410009949288910880
21637258 2 12247384680224674605
22950370 63 9655580724933175982
23402539 116 18202559609412237094
23402655 69 18131353002993318231
23559900 14 17846778559398024464
2767999 5 18341606006140432121
2838139 119 18115010915027021757
300161 21 18412541042188427952
314194 84 8502366724411088209
351380 180 18060420235484587760
3545911 37 18342181059469721607
465052 167 8646768915450516336
474 4 18334019397145951563
5104073 3 18115019831462985346
542803 24 16588025714384318492
59682541 52 17202770284745935412
59755656 215 18339646625101661166
633830 44 18410292549431216526

>  <PUBCHEM_SHAPE_MULTIPOLES>  (1) 
339.07
14.48
1.76
1.03
5.55
0.03
0.13
-8.01
2.06
-0.49
0.31
0.06
-0.16
0.28

>  <PUBCHEM_SHAPE_SELFOVERLAP>  (1) 
668.571

>  <PUBCHEM_SHAPE_VOLUME>  (1) 
209.4

>  <PUBCHEM_COORDINATE_TYPE>  (1) 
2
5
10

$$$$
