41060
     RDKit          3D

 22 24  0  0  1  0  0  0  0  0999 V2000
   -1.8197   -2.0968   -0.3084 O   0  0  0  0  0  0  0  0  0  0  0  0
   -2.1074    2.5362   -0.5902 O   0  0  0  0  0  0  0  0  0  0  0  0
    4.0680    0.5958   -0.2384 O   0  0  0  0  0  0  0  0  0  0  0  0
    6.4466    0.6016    1.0256 O   0  0  0  0  0  0  0  0  0  0  0  0
   -1.5020    0.2467   -0.4505 N   0  0  0  0  0  0  0  0  0  0  0  0
   -3.6456   -0.5903   -0.8147 C   0  0  0  0  0  0  0  0  0  0  0  0
   -3.7604    0.8225   -0.2509 C   0  0  0  0  0  0  0  0  0  0  0  0
   -4.7014   -1.5804   -0.3314 C   0  0  0  0  0  0  0  0  0  0  0  0
   -4.0995    0.8969    1.2465 C   0  0  0  0  0  0  0  0  0  0  0  0
   -2.2116   -0.9528   -0.4862 C   0  0  0  0  0  0  0  0  0  0  0  0
   -2.3573    1.3459   -0.4601 C   0  0  0  0  0  0  0  0  0  0  0  0
   -5.1913   -1.3433    1.0611 C   0  0  0  0  0  0  0  0  0  0  0  0
   -4.9212   -0.2388    1.7648 C   0  0  0  0  0  0  0  0  0  0  0  0
   -0.0753    0.3360   -0.3968 C   0  0  0  0  0  0  0  0  0  0  0  0
    0.7123   -0.6592   -0.9796 C   0  0  0  0  0  0  0  0  0  0  0  0
    0.5355    1.4187    0.2402 C   0  0  0  0  0  0  0  0  0  0  0  0
    2.1035   -0.5725   -0.9257 C   0  0  0  0  0  0  0  0  0  0  0  0
    1.9266    1.5057    0.2940 C   0  0  0  0  0  0  0  0  0  0  0  0
    2.7108    0.5101   -0.2890 C   0  0  0  0  0  0  0  0  0  0  0  0
    4.7962   -0.6311   -0.2228 C   0  0  0  0  0  0  0  0  0  0  0  0
    6.1073   -0.4653    0.5158 C   0  0  0  0  0  0  0  0  0  0  0  0
    6.9859   -1.6854    0.5969 C   0  0  0  0  0  0  0  0  0  0  0  0
  1 10  2  0
  2 11  2  0
  3 19  1  0
  3 20  1  0
  4 21  2  0
  5 10  1  0
  5 11  1  0
  5 14  1  0
  6  7  1  0
  6  8  1  0
  6 10  1  0
  7  9  1  0
  7 11  1  0
  8 12  1  0
  9 13  1  0
 12 13  2  0
 14 15  2  0
 14 16  1  0
 15 17  1  0
 16 18  2  0
 17 19  2  0
 18 19  1  0
 20 21  1  0
 21 22  1  0
M  END
>  <PUBCHEM_COMPOUND_CID>  (1) 
41060

>  <PUBCHEM_CONFORMER_RMSD>  (1) 
0.8

>  <PUBCHEM_CONFORMER_DIVERSEORDER>  (1) 
1
35
24
8
31
37
30
22
21
5
20
4
26
3
32
16
28
41
29
9
23
38
34
36
6
10
11
14
18
33
2
17
12
42
25
40
19
7
13
39
15
27

>  <PUBCHEM_MMFF94_PARTIAL_CHARGES>  (1) 
28
1 -0.57
10 0.57
11 0.57
12 -0.29
13 -0.29
14 0.12
15 -0.15
16 -0.15
17 -0.15
18 -0.15
19 0.08
2 -0.57
20 0.34
21 0.45
22 0.06
29 0.15
3 -0.36
30 0.15
31 0.15
32 0.15
33 0.15
34 0.15
4 -0.57
5 -0.24
6 0.06
7 0.06
8 0.14
9 0.14

>  <PUBCHEM_EFFECTIVE_ROTOR_COUNT>  (1) 
4.6

>  <PUBCHEM_PHARMACOPHORE_FEATURES>  (1) 
7
1 1 acceptor
1 2 acceptor
1 3 acceptor
1 4 acceptor
5 5 6 7 10 11 rings
6 14 15 16 17 18 19 rings
6 6 7 8 9 12 13 rings

>  <PUBCHEM_HEAVY_ATOM_COUNT>  (1) 
22

>  <PUBCHEM_ATOM_DEF_STEREO_COUNT>  (1) 
0

>  <PUBCHEM_ATOM_UDEF_STEREO_COUNT>  (1) 
2

>  <PUBCHEM_BOND_DEF_STEREO_COUNT>  (1) 
0

>  <PUBCHEM_BOND_UDEF_STEREO_COUNT>  (1) 
0

>  <PUBCHEM_ISOTOPIC_ATOM_COUNT>  (1) 
0

>  <PUBCHEM_COMPONENT_COUNT>  (1) 
1

>  <PUBCHEM_CACTVS_TAUTO_COUNT>  (1) 
9

>  <PUBCHEM_CONFORMER_ID>  (1) 
0000A06400000001

>  <PUBCHEM_MMFF94_ENERGY>  (1) 
61.0598

>  <PUBCHEM_FEATURE_SELFOVERLAP>  (1) 
35.715

>  <PUBCHEM_SHAPE_FINGERPRINT>  (1) 
10 15 18131636690152707704
11315181 36 17989202668077059961
12236239 1 17676207961958646116
12507557 5 18060702792877615529
12633257 1 18201725088861266773
12670543 26 11314021371054854960
13140716 1 18197784508028256575
13288520 33 18187083957861222645
13668630 136 16226047774065590170
13862211 1 18410853291185859183
14251764 18 18131633421476710774
14341114 176 18411136953002380776
14849402 71 17702942694657888792
15048467 5 11959730469424229194
15238133 3 16773252750377315353
15348495 7 17561074852514222258
15716309 27 18334297569487957930
15788980 27 18259984864469832124
17093844 174 18335695031740265113
17780758 139 18131072636640500729
17844677 252 17821732740810327180
1813 80 17458067032704065302
18222031 100 14995999961033828028
18927931 339 18260270733187537191
20567600 247 16443338776468264506
21033648 29 16701722892272446258
21130935 74 18060419119062733342
21150785 3 11743832543747918729
21267235 1 18408890629266716830
21637258 2 16950560004304727434
22393880 68 12757435011376878489
23402539 116 17967532363398584709
23522609 53 18122095153853946268
23559900 14 18337940298565931685
2838139 119 11240000044876176578
300161 21 12103845644683813564
328310 630 10735869616954992050
465052 167 18334577932806851030
5104073 3 18129665325690840154
542803 24 14189575234799341540
559249 180 18334288734645420878
7226269 152 17704073967003737792
7495541 125 18335144227991384108
999808 66 17822301179642243146

>  <PUBCHEM_SHAPE_MULTIPOLES>  (1) 
424.29
15.25
1.86
1.14
21.75
0.18
0.31
-5.98
6.31
-0.83
-0.06
-0.88
-0.09
-0.01

>  <PUBCHEM_SHAPE_SELFOVERLAP>  (1) 
913.734

>  <PUBCHEM_SHAPE_VOLUME>  (1) 
230.9

>  <PUBCHEM_COORDINATE_TYPE>  (1) 
2
5
10

$$$$
