41070
     RDKit          3D

 16 17  0  0  0  0  0  0  0  0999 V2000
    4.0637    1.6437    0.8666 Cl  0  0  0  0  0  0  0  0  0  0  0  0
   -1.5440    2.1401   -0.6586 O   0  0  0  0  0  0  0  0  0  0  0  0
   -3.5155   -0.6796    1.0493 N   0  0  0  0  0  0  0  0  0  0  0  0
   -0.8076   -0.0554   -0.0222 C   0  0  0  0  0  0  0  0  0  0  0  0
   -1.6708   -1.2590   -0.4838 C   0  0  0  0  0  0  0  0  0  0  0  0
   -1.3001    0.3786    1.3836 C   0  0  0  0  0  0  0  0  0  0  0  0
   -3.1749   -1.0203   -0.3287 C   0  0  0  0  0  0  0  0  0  0  0  0
   -2.8213    0.5312    1.4756 C   0  0  0  0  0  0  0  0  0  0  0  0
    0.7035   -0.3399    0.0024 C   0  0  0  0  0  0  0  0  0  0  0  0
   -1.0369    1.0748   -1.0063 C   0  0  0  0  0  0  0  0  0  0  0  0
    1.5909    0.6647    0.3785 C   0  0  0  0  0  0  0  0  0  0  0  0
    1.1764   -1.6010   -0.3507 C   0  0  0  0  0  0  0  0  0  0  0  0
   -0.6112    0.8303   -2.4287 C   0  0  0  0  0  0  0  0  0  0  0  0
    2.9614    0.4065    0.4017 C   0  0  0  0  0  0  0  0  0  0  0  0
    2.5469   -1.8593   -0.3275 C   0  0  0  0  0  0  0  0  0  0  0  0
    3.4394   -0.8555    0.0487 C   0  0  0  0  0  0  0  0  0  0  0  0
  1 14  1  0
  2 10  2  0
  3  7  1  0
  3  8  1  0
  4  5  1  0
  4  6  1  0
  4  9  1  0
  4 10  1  0
  5  7  1  0
  6  8  1  0
  9 11  2  0
  9 12  1  0
 10 13  1  0
 11 14  1  0
 12 15  2  0
 14 16  2  0
 15 16  1  0
M  END
>  <PUBCHEM_COMPOUND_CID>  (1) 
41070

>  <PUBCHEM_CONFORMER_RMSD>  (1) 
0.6

>  <PUBCHEM_CONFORMER_DIVERSEORDER>  (1) 
1
27
22
4
12
26
29
5
13
21
10
25
24
23
18
14
9
20
19
28
2
11
17
15
3
16
8
7
6

>  <PUBCHEM_MMFF94_PARTIAL_CHARGES>  (1) 
19
1 -0.18
10 0.45
11 -0.15
12 -0.15
13 0.06
14 0.18
15 -0.15
16 -0.15
2 -0.57
25 0.36
26 0.15
27 0.15
3 -0.9
31 0.15
32 0.15
4 0.2
7 0.27
8 0.27
9 -0.14

>  <PUBCHEM_EFFECTIVE_ROTOR_COUNT>  (1) 
3.2

>  <PUBCHEM_PHARMACOPHORE_FEATURES>  (1) 
5
1 2 acceptor
1 3 cation
1 3 donor
6 3 4 5 6 7 8 rings
6 9 11 12 14 15 16 rings

>  <PUBCHEM_HEAVY_ATOM_COUNT>  (1) 
16

>  <PUBCHEM_ATOM_DEF_STEREO_COUNT>  (1) 
0

>  <PUBCHEM_ATOM_UDEF_STEREO_COUNT>  (1) 
0

>  <PUBCHEM_BOND_DEF_STEREO_COUNT>  (1) 
0

>  <PUBCHEM_BOND_UDEF_STEREO_COUNT>  (1) 
0

>  <PUBCHEM_ISOTOPIC_ATOM_COUNT>  (1) 
0

>  <PUBCHEM_COMPONENT_COUNT>  (1) 
1

>  <PUBCHEM_CACTVS_TAUTO_COUNT>  (1) 
2

>  <PUBCHEM_CONFORMER_ID>  (1) 
0000A06E00000001

>  <PUBCHEM_MMFF94_ENERGY>  (1) 
37.9177

>  <PUBCHEM_FEATURE_SELFOVERLAP>  (1) 
25.372

>  <PUBCHEM_SHAPE_FINGERPRINT>  (1) 
10465860 250 16009019639849282913
10608611 8 18338509738536528180
10922049 32 10591772004069180421
11132069 177 18336541737223866450
12173636 292 17274820255137667506
12251169 10 18131359583036488963
12346645 44 18060140993885492442
12423570 1 14614327296800121421
12932764 1 18335140830714314522
13024252 1 15575000524888426047
13538477 17 16630515258797174206
13693222 15 18187078464540139306
14181834 199 17025446766130410695
14787075 74 17197971187036624387
15219456 202 18409441454115848860
15309172 13 18340484564583430210
15342168 16 18197499738938730760
15775835 57 17988648531633770736
15906896 17 16558743503892286919
16945 1 18335145331417781263
17844478 74 18261398818889763874
18186145 218 18131912668119788344
18981168 100 17916562285684479696
19422 9 17490154114375112894
200 152 17845638301151578607
20361792 2 17313114067869750479
20600515 1 16950565531600985893
20645476 183 15338840901692960348
21501502 16 18202001018977461970
23402539 116 17604133934811626874
23419403 2 17025974514621850397
23557571 272 17604142636763385756
23559900 14 15574702630473516168
2748010 2 18262790757961477582
276578 36 13973695987672167759
3286 77 18412268302911524762
45790113 50 17989212525211581726
5902787 121 16371870606155877683
6049 1 18263364703152515332
77492 1 16988552485967107438
81228 2 17168989980553202789

>  <PUBCHEM_SHAPE_MULTIPOLES>  (1) 
320.29
6.07
1.83
1.49
2.54
0.09
0.72
-0.37
-2.11
0.85
0.15
-1.08
-0.55
0.37

>  <PUBCHEM_SHAPE_SELFOVERLAP>  (1) 
666.393

>  <PUBCHEM_SHAPE_VOLUME>  (1) 
183

>  <PUBCHEM_COORDINATE_TYPE>  (1) 
2
5
10

$$$$
