41078
     RDKit          3D

 12 11  0  0  0  0  0  0  0  0999 V2000
   -4.4792    0.8150    0.6498 O   0  0  0  0  0  0  0  0  0  0  0  0
    2.4410   -0.0834   -0.6213 C   0  0  0  0  0  0  0  0  0  0  0  0
    1.0558   -0.3653   -0.0291 C   0  0  0  0  0  0  0  0  0  0  0  0
    3.5586   -0.0728    0.4267 C   0  0  0  0  0  0  0  0  0  0  0  0
   -0.0499   -0.4434   -1.0875 C   0  0  0  0  0  0  0  0  0  0  0  0
    4.9512    0.1385   -0.1688 C   0  0  0  0  0  0  0  0  0  0  0  0
   -1.4221   -0.6493   -0.5038 C   0  0  0  0  0  0  0  0  0  0  0  0
    6.0201    0.1518    0.9135 C   0  0  0  0  0  0  0  0  0  0  0  0
   -2.3127    0.3078   -0.1850 C   0  0  0  0  0  0  0  0  0  0  0  0
   -2.0678    1.7853   -0.3138 C   0  0  0  0  0  0  0  0  0  0  0  0
   -3.6664   -0.0659    0.3629 C   0  0  0  0  0  0  0  0  0  0  0  0
   -4.0286   -1.5181    0.5562 C   0  0  0  0  0  0  0  0  0  0  0  0
  1 11  2  0
  2  3  1  0
  2  4  1  0
  3  5  1  0
  4  6  1  0
  5  7  1  0
  6  8  1  0
  7  9  2  0
  9 10  1  0
  9 11  1  0
 11 12  1  0
M  END
>  <PUBCHEM_COMPOUND_CID>  (1) 
41078

>  <PUBCHEM_CONFORMER_RMSD>  (1) 
0.6

>  <PUBCHEM_CONFORMER_DIVERSEORDER>  (1) 
1
325
62
180
324
51
317
186
257
323
103
150
190
192
306
65
47
34
153
312
285
328
201
23
53
311
204
303
256
177
223
302
225
105
308
124
254
299
24
229
73
316
137
305
247
165
93
211
261
333
281
318
238
183
58
151
128
310
185
332
50
206
298
241
179
237
232
233
80
125
313
67
263
3
320
90
222
309
71
284
25
130
262
94
161
326
33
21
18
139
331
57
327
56
117
297
195
6
52
314
258
244
149
107
31
12
154
315
26
61
231
29
250
199
295
287
189
304
127
251
74
110
272
307
68
188
98
330
293
78
227
266
218
235
134
167
319
77
44
249
267
101
194
138
205
19
132
322
289
248
20
277
35
300
242
104
203
7
96
200
214
252
119
143
100
329
48
146
178
140
163
120
210
8
226
141
156
286
152
321
220
11
126
123
174
255
66
155
28
16
276
112
296
38
162
121
114
219
159
113
193
76
283
145
171
301
82
42
274
116
173
88
147
230
158
170
212
32
148
122
102
54
55
245
95
215
280
182
221
15
92
17
176
271
144
59
157
166
87
278
72
135
46
49
63
217
91
279
234
86
259
97
243
64
89
184
290
85
136
111
118
5
160
36
172
129
294
40
198
187
41
169
69
208
13
4
81
291
106
224
260
275
131
246
270
70
213
2
181
292
109
273
288
115
84
39
236
253
142
108
282
209
37
265
191
216
79
30
27
175
99
83
196
75
14
197
133
202
45
9
269
60
43
240
228
10
22
207
239
164
264
168
268

>  <PUBCHEM_MMFF94_PARTIAL_CHARGES>  (1) 
8
1 -0.57
10 0.14
11 0.49
12 0.06
23 0.15
5 0.14
7 -0.29
9 -0.12

>  <PUBCHEM_EFFECTIVE_ROTOR_COUNT>  (1) 
6

>  <PUBCHEM_PHARMACOPHORE_FEATURES>  (1) 
5
1 1 acceptor
1 10 hydrophobe
1 8 hydrophobe
3 2 4 6 hydrophobe
3 3 5 7 hydrophobe

>  <PUBCHEM_HEAVY_ATOM_COUNT>  (1) 
12

>  <PUBCHEM_ATOM_DEF_STEREO_COUNT>  (1) 
0

>  <PUBCHEM_ATOM_UDEF_STEREO_COUNT>  (1) 
0

>  <PUBCHEM_BOND_DEF_STEREO_COUNT>  (1) 
0

>  <PUBCHEM_BOND_UDEF_STEREO_COUNT>  (1) 
1

>  <PUBCHEM_ISOTOPIC_ATOM_COUNT>  (1) 
0

>  <PUBCHEM_COMPONENT_COUNT>  (1) 
1

>  <PUBCHEM_CACTVS_TAUTO_COUNT>  (1) 
5

>  <PUBCHEM_CONFORMER_ID>  (1) 
0000A07600000001

>  <PUBCHEM_MMFF94_ENERGY>  (1) 
6.5995

>  <PUBCHEM_FEATURE_SELFOVERLAP>  (1) 
25.387

>  <PUBCHEM_SHAPE_FINGERPRINT>  (1) 
100836 57 16988846098906512024
10726558 24 9583252621423737789
12815109 37 14201396088240629058
13214271 11 18273216396220395381
13897977 58 18410579508669577460
14123238 8 18343864428983273502
1420 363 14634869739220145016
14252887 29 16950561044087869666
15242439 84 10665225960531166270
15501527 16 17203324546470944690
17834072 33 17458631146445793822
17834072 8 10881675841176788083
17834076 25 14908180859200664606
17870717 6 10809341109525042305
18342897 14 17989488515457000712
187816 3 10881396543558319679
200 152 14923941249834852508
20325693 3 10592042462386321837
20432913 95 15792008944577064392
20645476 183 11743833655854746405
20645477 56 17704067413300219108
20645477 70 13190341262457982712
20671657 53 12685100271399442598
20767249 213 17775563147821212976
20828058 44 18259706713397050682
20871999 31 10375867468026738109
21119208 17 11384111942769102246
22485316 2 9583518711864511012
23380061 127 18113615672840048965
23402539 116 18186515523023769215
23402655 69 12607406598575135318
23403322 49 12324240563742458161
26918003 58 17022907856643543881
2916195 48 17418367017656815378
42 15 18187365424332505110
42788 4 17275103938270887118
449060 50 18131913758788183222
49783359 22 17749103400804992274

>  <PUBCHEM_SHAPE_MULTIPOLES>  (1) 
241.09
12.22
1.2
0.93
13.24
0.24
-0.05
-0.05
4.4
-1.62
0.04
0.22
-0.06
0.16

>  <PUBCHEM_SHAPE_SELFOVERLAP>  (1) 
441.962

>  <PUBCHEM_SHAPE_VOLUME>  (1) 
153.8

>  <PUBCHEM_COORDINATE_TYPE>  (1) 
2
5
10

$$$$
