41077
     RDKit          3D

 12 11  0  0  1  0  0  0  0  0999 V2000
   -0.9758    0.6962   -0.4383 C   0  0  0  0  0  0  0  0  0  0  0  0
    0.2926    1.5236   -0.1319 C   0  0  0  0  0  0  0  0  0  0  0  0
   -1.5533    0.0448    0.8420 C   0  0  0  0  0  0  0  0  0  0  0  0
    1.4906    0.7527    0.4728 C   0  0  0  0  0  0  0  0  0  0  0  0
   -2.7297   -0.9323    0.6411 C   0  0  0  0  0  0  0  0  0  0  0  0
   -2.0701    1.5505   -1.0907 C   0  0  0  0  0  0  0  0  0  0  0  0
    1.8900   -0.4589   -0.3958 C   0  0  0  0  0  0  0  0  0  0  0  0
    2.6661    1.7272    0.6455 C   0  0  0  0  0  0  0  0  0  0  0  0
   -2.3088   -2.0546   -0.3131 C   0  0  0  0  0  0  0  0  0  0  0  0
   -3.9813   -0.2398    0.1014 C   0  0  0  0  0  0  0  0  0  0  0  0
    3.0591   -1.2251    0.1555 C   0  0  0  0  0  0  0  0  0  0  0  0
    4.2206   -1.3842   -0.4885 C   0  0  0  0  0  0  0  0  0  0  0  0
  1  2  1  0
  1  3  1  0
  1  6  1  0
  2  4  1  0
  3  5  1  0
  4  7  1  0
  4  8  1  0
  5  9  1  0
  5 10  1  0
  7 11  1  0
 11 12  2  0
M  END
>  <PUBCHEM_COMPOUND_CID>  (1) 
41077

>  <PUBCHEM_CONFORMER_RMSD>  (1) 
0.6

>  <PUBCHEM_CONFORMER_DIVERSEORDER>  (1) 
1
15
6
12
16
17
10
9
4
14
8
11
7
2
13
3
5

>  <PUBCHEM_MMFF94_PARTIAL_CHARGES>  (1) 
6
11 -0.29
12 -0.3
34 0.15
35 0.15
36 0.15
7 0.14

>  <PUBCHEM_EFFECTIVE_ROTOR_COUNT>  (1) 
6

>  <PUBCHEM_PHARMACOPHORE_FEATURES>  (1) 
4
1 12 hydrophobe
1 6 hydrophobe
1 8 hydrophobe
3 5 9 10 hydrophobe

>  <PUBCHEM_HEAVY_ATOM_COUNT>  (1) 
12

>  <PUBCHEM_ATOM_DEF_STEREO_COUNT>  (1) 
0

>  <PUBCHEM_ATOM_UDEF_STEREO_COUNT>  (1) 
2

>  <PUBCHEM_BOND_DEF_STEREO_COUNT>  (1) 
0

>  <PUBCHEM_BOND_UDEF_STEREO_COUNT>  (1) 
0

>  <PUBCHEM_ISOTOPIC_ATOM_COUNT>  (1) 
0

>  <PUBCHEM_COMPONENT_COUNT>  (1) 
1

>  <PUBCHEM_CACTVS_TAUTO_COUNT>  (1) 
1

>  <PUBCHEM_CONFORMER_ID>  (1) 
0000A07500000001

>  <PUBCHEM_MMFF94_ENERGY>  (1) 
23.9614

>  <PUBCHEM_FEATURE_SELFOVERLAP>  (1) 
20.3

>  <PUBCHEM_SHAPE_FINGERPRINT>  (1) 
11127187 94 18261957327778377716
12186901 62 17458341880382610109
12932764 1 17967529030493374456
13296908 3 18335135410064471913
14252887 29 18116720809973302201
15219456 202 18410847772363919072
17834072 8 18260542300070153015
17834074 16 18410009940245145936
19766037 51 18187943788559665274
20201158 50 18412547574185111434
20281407 28 18335707160411053584
20281475 54 18337116773220533365
20645477 70 18341890813922015839
20711983 138 18334866025773997689
20711985 344 17604140428934203165
20711985 365 18410014299700625177
20871998 22 18189620604174734449
20871999 31 17822294530879679988
21061003 4 17988645138635954448
21256008 148 18336539430837147151
22485316 2 18410857672247387290
23402539 116 17775283834215612545
23526113 38 17910379594272812324
23557571 272 17749379386729460124
23559900 14 18192704550240289146
2748010 2 18336533976160219644
4416823 128 18410578374829690670
5493415 88 18340201895853620722
581208 293 18267301113456541792
8030462 33 16588019095787169448
81228 2 17967527978548646877
83771 10 18408328774023319842
8809292 202 18335425668386810378

>  <PUBCHEM_SHAPE_MULTIPOLES>  (1) 
246.95
6.99
2.08
0.92
1.96
0.08
0.03
3.16
0.11
0.4
0.21
-0.19
-0.16
0.84

>  <PUBCHEM_SHAPE_SELFOVERLAP>  (1) 
449.801

>  <PUBCHEM_SHAPE_VOLUME>  (1) 
160.2

>  <PUBCHEM_COORDINATE_TYPE>  (1) 
2
5
10

$$$$
