41074
     RDKit          3D

 12 12  0  0  0  0  0  0  0  0999 V2000
    1.4440   -0.0072   -0.0830 C   0  0  0  0  0  0  0  0  0  0  0  0
    2.1106    1.2309    0.5593 C   0  0  0  0  0  0  0  0  0  0  0  0
    2.0928   -1.2964    0.4709 C   0  0  0  0  0  0  0  0  0  0  0  0
   -0.0659   -0.0027    0.0995 C   0  0  0  0  0  0  0  0  0  0  0  0
   -0.8945    0.0417   -1.0042 C   0  0  0  0  0  0  0  0  0  0  0  0
    1.6744    2.5469   -0.0743 C   0  0  0  0  0  0  0  0  0  0  0  0
    1.5826   -2.5651   -0.2024 C   0  0  0  0  0  0  0  0  0  0  0  0
   -0.5646   -0.0437    1.3875 C   0  0  0  0  0  0  0  0  0  0  0  0
   -2.2762    0.0453   -0.8135 C   0  0  0  0  0  0  0  0  0  0  0  0
   -0.3547    0.0865   -2.3960 C   0  0  0  0  0  0  0  0  0  0  0  0
   -1.9464   -0.0403    1.5784 C   0  0  0  0  0  0  0  0  0  0  0  0
   -2.8021    0.0042    0.4778 C   0  0  0  0  0  0  0  0  0  0  0  0
  1  2  1  0
  1  3  1  0
  1  4  1  0
  2  6  1  0
  3  7  1  0
  4  5  2  0
  4  8  1  0
  5  9  1  0
  5 10  1  0
  8 11  2  0
  9 12  2  0
 11 12  1  0
M  END
>  <PUBCHEM_COMPOUND_CID>  (1) 
41074

>  <PUBCHEM_CONFORMER_RMSD>  (1) 
0.6

>  <PUBCHEM_CONFORMER_DIVERSEORDER>  (1) 
1
3
5
2
4

>  <PUBCHEM_MMFF94_PARTIAL_CHARGES>  (1) 
12
1 0.14
10 0.14
11 -0.15
12 -0.15
24 0.15
25 0.15
29 0.15
30 0.15
4 -0.14
5 -0.14
8 -0.15
9 -0.15

>  <PUBCHEM_EFFECTIVE_ROTOR_COUNT>  (1) 
3

>  <PUBCHEM_PHARMACOPHORE_FEATURES>  (1) 
3
1 6 hydrophobe
1 7 hydrophobe
6 4 5 8 9 11 12 rings

>  <PUBCHEM_HEAVY_ATOM_COUNT>  (1) 
12

>  <PUBCHEM_ATOM_DEF_STEREO_COUNT>  (1) 
0

>  <PUBCHEM_ATOM_UDEF_STEREO_COUNT>  (1) 
0

>  <PUBCHEM_BOND_DEF_STEREO_COUNT>  (1) 
0

>  <PUBCHEM_BOND_UDEF_STEREO_COUNT>  (1) 
0

>  <PUBCHEM_ISOTOPIC_ATOM_COUNT>  (1) 
0

>  <PUBCHEM_COMPONENT_COUNT>  (1) 
1

>  <PUBCHEM_CACTVS_TAUTO_COUNT>  (1) 
1

>  <PUBCHEM_CONFORMER_ID>  (1) 
0000A07200000001

>  <PUBCHEM_MMFF94_ENERGY>  (1) 
26.2683

>  <PUBCHEM_FEATURE_SELFOVERLAP>  (1) 
15.223

>  <PUBCHEM_SHAPE_FINGERPRINT>  (1) 
10857977 72 16371003065822690361
12326174 3 18200612331680970158
12423570 1 10964057913549378275
12524768 44 16878234150703991943
13538477 17 17346303951487764743
13898156 1 17131537418944356542
14817 1 10078984188725249846
15775835 57 17703514405663857952
16945 1 18411139129896470811
19837323 101 15983161376874146081
20379382 53 18336840722602927204
20645476 183 17774717657997602917
20711978 78 18408600344768574614
21061003 4 18264765459423231538
21922407 69 18272093832991607603
22802520 49 16662342671573425074
23211744 41 17315603379084754244
2748010 2 16660644063963890491
430814 3 17916596482229966084
5084963 1 17560806493771157537
528862 383 18343299271131981330
77492 1 17704347779853581386
81228 2 17472128480573900808

>  <PUBCHEM_SHAPE_MULTIPOLES>  (1) 
246.95
3.47
1.97
1.67
0.99
0.06
-0.69
-0.05
0.71
-2.33
-0.02
0.82
-0.03
0.09

>  <PUBCHEM_SHAPE_SELFOVERLAP>  (1) 
495.673

>  <PUBCHEM_SHAPE_VOLUME>  (1) 
143.4

>  <PUBCHEM_COORDINATE_TYPE>  (1) 
2
5
10

$$$$
