41095
     RDKit          3D

 18 18  0  0  0  0  0  0  0  0999 V2000
   -0.4071   -0.1166   -0.1172 O   0  0  0  0  0  0  0  0  0  0  0  0
    0.4247   -2.0610   -1.0262 O   0  0  0  0  0  0  0  0  0  0  0  0
   -4.0867    0.0929   -0.0681 N   0  0  0  0  0  0  0  0  0  0  0  0
   -2.7011    0.5035    0.1561 C   0  0  0  0  0  0  0  0  0  0  0  0
   -5.0076    1.1406    0.3711 C   0  0  0  0  0  0  0  0  0  0  0  0
   -4.3679   -1.1606    0.6307 C   0  0  0  0  0  0  0  0  0  0  0  0
   -1.7382   -0.5639   -0.3387 C   0  0  0  0  0  0  0  0  0  0  0  0
   -4.7371    2.4314   -0.3316 C   0  0  0  0  0  0  0  0  0  0  0  0
   -5.7617   -1.6295    0.3658 C   0  0  0  0  0  0  0  0  0  0  0  0
    1.9187   -0.3851   -0.2231 C   0  0  0  0  0  0  0  0  0  0  0  0
    0.5824   -0.9659   -0.5092 C   0  0  0  0  0  0  0  0  0  0  0  0
    3.3240    1.5321    0.0229 C   0  0  0  0  0  0  0  0  0  0  0  0
    4.2252   -0.6895    0.3219 C   0  0  0  0  0  0  0  0  0  0  0  0
    2.9696   -1.2349    0.0543 C   0  0  0  0  0  0  0  0  0  0  0  0
    2.0683    0.9864   -0.2448 C   0  0  0  0  0  0  0  0  0  0  0  0
    4.4024    0.6941    0.3062 C   0  0  0  0  0  0  0  0  0  0  0  0
    3.5135    3.0114    0.0050 C   0  0  0  0  0  0  0  0  0  0  0  0
    5.3785   -1.5856    0.6249 C   0  0  0  0  0  0  0  0  0  0  0  0
  1  7  1  0
  1 11  1  0
  2 11  2  0
  3  4  1  0
  3  5  1  0
  3  6  1  0
  4  7  1  0
  5  8  1  0
  6  9  1  0
 10 11  1  0
 10 14  2  0
 10 15  1  0
 12 15  2  0
 12 16  1  0
 12 17  1  0
 13 14  1  0
 13 16  2  0
 13 18  1  0
M  END
>  <PUBCHEM_COMPOUND_CID>  (1) 
41095

>  <PUBCHEM_CONFORMER_RMSD>  (1) 
0.8

>  <PUBCHEM_CONFORMER_DIVERSEORDER>  (1) 
1
54
21
67
73
79
31
58
12
5
84
44
66
26
7
51
18
43
27
86
39
60
74
6
47
75
62
69
72
24
34
45
4
53
76
19
9
15
87
71
64
22
42
82
81
83
38
30
59
37
11
2
20
61
14
55
96
52
49
95
46
88
40
57
70
85
77
32
48
90
56
80
78
25
16
63
33
50
92
29
17
35
94
3
10
89
28
23
36
97
8
98
93
41
13
65
91
68

>  <PUBCHEM_MMFF94_PARTIAL_CHARGES>  (1) 
19
1 -0.43
10 0.09
11 0.63
12 -0.14
13 -0.14
14 -0.15
15 -0.15
16 -0.15
17 0.14
18 0.14
2 -0.57
3 -0.81
33 0.15
34 0.15
35 0.15
4 0.27
5 0.27
6 0.27
7 0.28

>  <PUBCHEM_EFFECTIVE_ROTOR_COUNT>  (1) 
7

>  <PUBCHEM_PHARMACOPHORE_FEATURES>  (1) 
3
1 2 acceptor
1 3 cation
6 10 12 13 14 15 16 rings

>  <PUBCHEM_HEAVY_ATOM_COUNT>  (1) 
18

>  <PUBCHEM_ATOM_DEF_STEREO_COUNT>  (1) 
0

>  <PUBCHEM_ATOM_UDEF_STEREO_COUNT>  (1) 
0

>  <PUBCHEM_BOND_DEF_STEREO_COUNT>  (1) 
0

>  <PUBCHEM_BOND_UDEF_STEREO_COUNT>  (1) 
0

>  <PUBCHEM_ISOTOPIC_ATOM_COUNT>  (1) 
0

>  <PUBCHEM_COMPONENT_COUNT>  (1) 
1

>  <PUBCHEM_CACTVS_TAUTO_COUNT>  (1) 
1

>  <PUBCHEM_CONFORMER_ID>  (1) 
0000A08700000001

>  <PUBCHEM_MMFF94_ENERGY>  (1) 
40.1763

>  <PUBCHEM_FEATURE_SELFOVERLAP>  (1) 
15.223

>  <PUBCHEM_SHAPE_FINGERPRINT>  (1) 
10354089 29 18411136970203082698
11045977 3 18186804690244767539
11089746 13 18335692794188722765
11405975 8 18334859390033772649
12107183 9 17830448376336409659
12403259 118 18341323436025922417
12507557 5 18341330015852646417
12616971 3 18059855090776452631
13167823 11 18408038528818797651
13785724 45 17980483352508206242
14251764 18 18333446561006048394
14251764 38 18411987927373154193
14252887 29 13551474726782030896
14341114 176 18334300850653145953
15196674 1 18410293618535200937
15475509 35 16878768453948152160
17844677 252 18410018736427981953
18222031 100 15430033283519809014
19433438 28 18333452045357467001
20715895 44 18124313805674348513
20871999 31 10591753282174887789
21065198 57 18335140911928270659
21267235 1 18411703150346885606
212847 35 18202281411981071344
21315763 129 18410011018445655925
21315764 268 18335416902727700933
21637258 2 16081638990715599618
21709351 56 18340762667868311175
23402539 116 18333727992706005943
23559900 14 18198063573502408215
33382 64 15864623935560887402
351380 180 18408040701787036105
351380 3 12901554537285287945
42 15 18259704480124716102
4214541 1 18408604738942222017
465052 167 18409169896593677710
5104073 3 18409452492319067337
77779 3 18409168822482049449
90127 26 18336276699023713635

>  <PUBCHEM_SHAPE_MULTIPOLES>  (1) 
353.71
13.96
2.54
0.75
10.64
1.51
0.02
0.13
-2.87
-0.43
0.08
0
-0.15
0.18

>  <PUBCHEM_SHAPE_SELFOVERLAP>  (1) 
712.648

>  <PUBCHEM_SHAPE_VOLUME>  (1) 
211.1

>  <PUBCHEM_COORDINATE_TYPE>  (1) 
2
5
10

$$$$
