4110
     RDKit          3D

 20 19  0  0  1  0  0  0  0  0999 V2000
   -3.8854   -2.0831    0.8282 O   0  0  0  0  0  0  0  0  0  0  0  0
    4.5077    0.0247   -0.4179 O   0  0  0  0  0  0  0  0  0  0  0  0
    3.7503   -1.4902    1.1535 O   0  0  0  0  0  0  0  0  0  0  0  0
   -3.6900   -1.0903   -0.1919 C   0  0  0  0  0  0  0  0  0  0  0  0
   -3.3700    0.2464    0.5176 C   0  0  0  0  0  0  0  0  0  0  0  0
   -2.8126    1.3525   -0.3835 C   0  0  0  0  0  0  0  0  0  0  0  0
   -2.5697   -1.6022   -1.1281 C   0  0  0  0  0  0  0  0  0  0  0  0
   -2.5687    2.6725    0.3585 C   0  0  0  0  0  0  0  0  0  0  0  0
   -5.0071   -1.0096   -0.9773 C   0  0  0  0  0  0  0  0  0  0  0  0
   -2.0387    3.8302   -0.4903 C   0  0  0  0  0  0  0  0  0  0  0  0
   -1.2198   -1.7251   -0.4682 C   0  0  0  0  0  0  0  0  0  0  0  0
   -4.9489   -1.7212    1.6895 C   0  0  0  0  0  0  0  0  0  0  0  0
   -1.7559    5.0912    0.3100 C   0  0  0  0  0  0  0  0  0  0  0  0
   -0.0726   -1.1059   -0.7878 C   0  0  0  0  0  0  0  0  0  0  0  0
    1.2080   -1.2479   -0.1310 C   0  0  0  0  0  0  0  0  0  0  0  0
    2.2988   -0.5798   -0.5313 C   0  0  0  0  0  0  0  0  0  0  0  0
    5.8199   -0.0232    0.1521 C   0  0  0  0  0  0  0  0  0  0  0  0
    3.5783   -0.7617    0.1890 C   0  0  0  0  0  0  0  0  0  0  0  0
    6.8503    0.2018   -0.9440 C   0  0  0  0  0  0  0  0  0  0  0  0
    5.9262    1.0211    1.2529 C   0  0  0  0  0  0  0  0  0  0  0  0
  1  4  1  0
  1 12  1  0
  2 17  1  0
  2 18  1  0
  3 18  2  0
  4  5  1  0
  4  7  1  0
  4  9  1  0
  5  6  1  0
  6  8  1  0
  7 11  1  0
  8 10  1  0
 10 13  1  0
 11 14  2  0
 14 15  1  0
 15 16  2  0
 16 18  1  0
 17 19  1  0
 17 20  1  0
M  END
>  <PUBCHEM_COMPOUND_CID>  (1) 
4110

>  <PUBCHEM_CONFORMER_RMSD>  (1) 
1

>  <PUBCHEM_CONFORMER_DIVERSEORDER>  (1) 
6
65
117
11
69
63
9
125
140
113
83
51
50
77
62
60
120
135
91
86
111
78
103
119
18
2
39
114
15
82
71
53
47
20
105
75
25
33
42
30
94
81
129
109
141
104
35
19
22
122
38
10
128
7
133
80
66
99
16
116
93
1
37
95
41
55
84
142
43
73
21
49
64
88
98
101
74
76
136
13
57
54
34
110
87
5
100
121
56
36
45
97
138
102
124
8
31
61
118
46
48
70
139
107
68
108
23
26
28
132
27
89
127
112
44
52
72
29
123
106
3
14
96
92
67
130
137
12
59
4
40
79
126
24
58
32
131
134
85
115
90
17

>  <PUBCHEM_MMFF94_PARTIAL_CHARGES>  (1) 
16
1 -0.56
11 -0.29
12 0.28
14 -0.15
15 -0.15
16 -0.14
17 0.28
18 0.71
2 -0.43
3 -0.57
34 0.15
4 0.28
41 0.15
42 0.15
43 0.15
7 0.14

>  <PUBCHEM_EFFECTIVE_ROTOR_COUNT>  (1) 
11

>  <PUBCHEM_PHARMACOPHORE_FEATURES>  (1) 
5
1 1 acceptor
1 13 hydrophobe
1 3 acceptor
3 17 19 20 hydrophobe
4 5 6 8 10 hydrophobe

>  <PUBCHEM_HEAVY_ATOM_COUNT>  (1) 
20

>  <PUBCHEM_ATOM_DEF_STEREO_COUNT>  (1) 
0

>  <PUBCHEM_ATOM_UDEF_STEREO_COUNT>  (1) 
1

>  <PUBCHEM_BOND_DEF_STEREO_COUNT>  (1) 
0

>  <PUBCHEM_BOND_UDEF_STEREO_COUNT>  (1) 
2

>  <PUBCHEM_ISOTOPIC_ATOM_COUNT>  (1) 
0

>  <PUBCHEM_COMPONENT_COUNT>  (1) 
1

>  <PUBCHEM_CACTVS_TAUTO_COUNT>  (1) 
1

>  <PUBCHEM_CONFORMER_ID>  (1) 
0000100E00000006

>  <PUBCHEM_MMFF94_ENERGY>  (1) 
39.898

>  <PUBCHEM_FEATURE_SELFOVERLAP>  (1) 
25.373

>  <PUBCHEM_SHAPE_FINGERPRINT>  (1) 
10087517 78 18341324578851505780
10670039 82 18411985741740650716
10803635 8 10663827359833463787
10937287 8 17619065032545952469
11595378 159 18261657217360628040
12107183 9 17614552649805050602
12555020 224 8574718983539194827
12596602 18 17458058296471553082
12788726 201 18335134280530336594
12892183 10 18334574612180342414
14251764 75 17480022995268261185
14461889 52 11819282196294059084
15183329 4 17060628798127178486
15880784 105 15936410078279304526
167882 2 17907848858857829029
17844677 252 18412547574860312390
20645477 56 17989488532642593070
21315764 268 18130497609513589824
22956985 138 17250908317387393771
23198884 109 15913333519598537447
469060 322 18267043754926836283
5104073 3 18263075540300812058
633830 44 14620786111654525678
7808743 9 18268427919406733824

>  <PUBCHEM_SHAPE_MULTIPOLES>  (1) 
393.98
14.97
4.25
1.19
25.79
8.9
0.27
-2.67
1.87
-6.52
0.26
-0.34
-0.43
0.61

>  <PUBCHEM_SHAPE_SELFOVERLAP>  (1) 
746.47

>  <PUBCHEM_SHAPE_VOLUME>  (1) 
244

>  <PUBCHEM_COORDINATE_TYPE>  (1) 
2
5
10

$$$$
