41106
     RDKit          3D

 18 19  0  0  1  0  0  0  0  0999 V2000
    3.0603   -2.3308   -0.5827 O   0  0  0  0  0  0  0  0  0  0  0  0
   -0.3648   -0.9295   -0.2230 N   0  0  0  0  0  0  0  0  0  0  0  0
    0.7502   -1.8500    0.0327 C   0  0  0  0  0  0  0  0  0  0  0  0
    1.9820   -1.4149   -0.7927 C   0  0  0  0  0  0  0  0  0  0  0  0
    2.5008   -0.0393   -0.4319 C   0  0  0  0  0  0  0  0  0  0  0  0
    1.0233   -1.8540    1.5380 C   0  0  0  0  0  0  0  0  0  0  0  0
   -1.5520   -1.3553    0.4977 C   0  0  0  0  0  0  0  0  0  0  0  0
   -2.7179   -0.4349    0.2516 C   0  0  0  0  0  0  0  0  0  0  0  0
    2.0030    1.0663   -1.0990 C   0  0  0  0  0  0  0  0  0  0  0  0
    3.4610    0.0824    0.5572 C   0  0  0  0  0  0  0  0  0  0  0  0
   -2.9141    0.6571    1.0855 C   0  0  0  0  0  0  0  0  0  0  0  0
   -3.5795   -0.6912   -0.8059 C   0  0  0  0  0  0  0  0  0  0  0  0
    2.4807    2.3340   -0.7666 C   0  0  0  0  0  0  0  0  0  0  0  0
    3.9386    1.3500    0.8896 C   0  0  0  0  0  0  0  0  0  0  0  0
    3.4485    2.4758    0.2277 C   0  0  0  0  0  0  0  0  0  0  0  0
   -3.9941    1.5099    0.8575 C   0  0  0  0  0  0  0  0  0  0  0  0
   -4.6593    0.1619   -1.0338 C   0  0  0  0  0  0  0  0  0  0  0  0
   -4.8665    1.2625   -0.2020 C   0  0  0  0  0  0  0  0  0  0  0  0
  1  4  1  0
  2  3  1  0
  2  7  1  0
  3  4  1  0
  3  6  1  0
  4  5  1  0
  5  9  2  0
  5 10  1  0
  7  8  1  0
  8 11  2  0
  8 12  1  0
  9 13  1  0
 10 14  2  0
 11 16  1  0
 12 17  2  0
 13 15  2  0
 14 15  1  0
 16 18  2  0
 17 18  1  0
M  END
>  <PUBCHEM_COMPOUND_CID>  (1) 
41106

>  <PUBCHEM_CONFORMER_RMSD>  (1) 
0.6

>  <PUBCHEM_CONFORMER_DIVERSEORDER>  (1) 
12
16
13
41
18
47
45
34
31
44
25
20
42
36
26
46
1
35
28
3
38
19
23
4
5
33
7
8
43
30
15
11
48
32
39
10
21
14
17
6
9
24
27
29
22
2
40
37

>  <PUBCHEM_MMFF94_PARTIAL_CHARGES>  (1) 
29
1 -0.68
10 -0.15
11 -0.15
12 -0.15
13 -0.15
14 -0.15
15 -0.15
16 -0.15
17 -0.15
18 -0.15
2 -0.9
21 0.36
27 0.15
28 0.15
29 0.4
3 0.27
30 0.15
31 0.15
32 0.15
33 0.15
34 0.15
35 0.15
36 0.15
37 0.15
4 0.42
5 -0.14
7 0.41
8 -0.14
9 -0.15

>  <PUBCHEM_EFFECTIVE_ROTOR_COUNT>  (1) 
5

>  <PUBCHEM_PHARMACOPHORE_FEATURES>  (1) 
6
1 1 acceptor
1 1 donor
1 2 cation
1 2 donor
6 5 9 10 13 14 15 rings
6 8 11 12 16 17 18 rings

>  <PUBCHEM_HEAVY_ATOM_COUNT>  (1) 
18

>  <PUBCHEM_ATOM_DEF_STEREO_COUNT>  (1) 
0

>  <PUBCHEM_ATOM_UDEF_STEREO_COUNT>  (1) 
2

>  <PUBCHEM_BOND_DEF_STEREO_COUNT>  (1) 
0

>  <PUBCHEM_BOND_UDEF_STEREO_COUNT>  (1) 
0

>  <PUBCHEM_ISOTOPIC_ATOM_COUNT>  (1) 
0

>  <PUBCHEM_COMPONENT_COUNT>  (1) 
1

>  <PUBCHEM_CACTVS_TAUTO_COUNT>  (1) 
1

>  <PUBCHEM_CONFORMER_ID>  (1) 
0000A0920000000C

>  <PUBCHEM_MMFF94_ENERGY>  (1) 
46.1853

>  <PUBCHEM_FEATURE_SELFOVERLAP>  (1) 
30.446

>  <PUBCHEM_SHAPE_FINGERPRINT>  (1) 
10064457 181 15574714754918501176
10498660 4 18131351925310305841
11370993 70 18337950194275875297
12633257 1 17749377213602121352
13134695 92 18265340499778416270
13583140 156 17312819416007047371
13590594 115 18122635946492236192
14251764 30 11531022042433204952
14251764 38 18262238953242805017
14848178 96 18409169934578321084
15239191 94 9007064551924436593
18186145 218 18187934936859103475
19752476 56 18273220767822304664
20281475 54 9367358032330432626
20621476 13 18336545009852640501
20715895 44 18192983830162027513
21033648 29 17240761736359891325
21452121 103 18411973646643090578
21503847 285 18337957787846463954
21524375 3 18265048205541359002
21713013 43 11959191717000218232
21860390 5 18342745108977086444
21864079 5 18268997492726908657
22749437 52 18410015476395063753
231179 274 18113330907902467746
23559900 14 18272368620541253598
2838139 119 17845082051727493040
3472631 163 18059577928490732565
474 4 18334857242317976803
5895379 119 17344638032405393848
6328613 192 18261960773382080700
67856867 119 18201145594572852938
84936 182 18273216417304952288
960060 61 11815901158418668833
9971528 1 18198904717330688150
9981440 41 18196085779875217786

>  <PUBCHEM_SHAPE_MULTIPOLES>  (1) 
359.58
9.8
2.59
1.2
7.86
0.15
-0.13
5.11
0.32
-2.35
-0.08
0.07
-0.05
-0.17

>  <PUBCHEM_SHAPE_SELFOVERLAP>  (1) 
755.795

>  <PUBCHEM_SHAPE_VOLUME>  (1) 
202.6

>  <PUBCHEM_COORDINATE_TYPE>  (1) 
2
5
10

$$$$
