41110
     RDKit          3D

 40 43  0  0  1  0  0  0  0  0999 V2000
   -4.3583   -5.2010    0.9622 Cl  0  0  0  0  0  0  0  0  0  0  0  0
   -6.6020   -1.1784   -1.3899 Cl  0  0  0  0  0  0  0  0  0  0  0  0
    1.1935    1.7619    0.2396 O   0  0  0  0  0  0  0  0  0  0  0  0
    0.1170    4.3473    0.0232 O   0  0  0  0  0  0  0  0  0  0  0  0
    2.9254    0.3988    2.1147 O   0  0  0  0  0  0  0  0  0  0  0  0
    4.3512   -3.8426    0.7038 O   0  0  0  0  0  0  0  0  0  0  0  0
   -1.0426   -0.7393   -0.9684 O   0  0  0  0  0  0  0  0  0  0  0  0
    0.4456    1.2949   -1.8936 O   0  0  0  0  0  0  0  0  0  0  0  0
   -2.9901    2.8437    0.9347 O   0  0  0  0  0  0  0  0  0  0  0  0
   -0.6793    3.6159    2.0627 O   0  0  0  0  0  0  0  0  0  0  0  0
    3.9352    1.3754   -0.5265 N   0  0  0  0  0  0  0  0  0  0  0  0
    4.6673   -2.0435   -0.7375 N   0  0  0  0  0  0  0  0  0  0  0  0
    3.6311   -1.7352    1.4300 N   0  0  0  0  0  0  0  0  0  0  0  0
    4.8698    0.0337   -2.0419 N   0  0  0  0  0  0  0  0  0  0  0  0
    3.4404    2.5938    0.0686 C   0  0  0  0  0  0  0  0  0  0  0  0
    1.9696    2.8500   -0.2661 C   0  0  0  0  0  0  0  0  0  0  0  0
    3.9238    0.1217    0.0144 C   0  0  0  0  0  0  0  0  0  0  0  0
    4.5010   -0.6793   -0.9327 C   0  0  0  0  0  0  0  0  0  0  0  0
    3.4396   -0.3364    1.2762 C   0  0  0  0  0  0  0  0  0  0  0  0
    4.5143    1.2713   -1.7648 C   0  0  0  0  0  0  0  0  0  0  0  0
    1.4772    4.1379    0.3869 C   0  0  0  0  0  0  0  0  0  0  0  0
    4.2295   -2.6338    0.4744 C   0  0  0  0  0  0  0  0  0  0  0  0
    5.2876   -2.8628   -1.7712 C   0  0  0  0  0  0  0  0  0  0  0  0
    3.1750   -2.3240    2.6850 C   0  0  0  0  0  0  0  0  0  0  0  0
    0.4758    1.0661   -0.6921 C   0  0  0  0  0  0  0  0  0  0  0  0
   -0.2823   -0.0386   -0.0044 C   0  0  0  0  0  0  0  0  0  0  0  0
   -0.8149    3.7947    0.8600 C   0  0  0  0  0  0  0  0  0  0  0  0
   -2.0442    3.4363    0.0673 C   0  0  0  0  0  0  0  0  0  0  0  0
   -1.8162   -1.7818   -0.5182 C   0  0  0  0  0  0  0  0  0  0  0  0
   -3.8343    1.9050    0.3926 C   0  0  0  0  0  0  0  0  0  0  0  0
   -1.8268   -2.1073    0.8383 C   0  0  0  0  0  0  0  0  0  0  0  0
   -2.5924   -2.5135   -1.4170 C   0  0  0  0  0  0  0  0  0  0  0  0
   -4.2020    1.9903   -0.9504 C   0  0  0  0  0  0  0  0  0  0  0  0
   -4.3221    0.8652    1.1844 C   0  0  0  0  0  0  0  0  0  0  0  0
   -2.6135   -3.1643    1.2957 C   0  0  0  0  0  0  0  0  0  0  0  0
   -3.3791   -3.5705   -0.9595 C   0  0  0  0  0  0  0  0  0  0  0  0
   -3.3896   -3.8959    0.3968 C   0  0  0  0  0  0  0  0  0  0  0  0
   -5.0573    1.0364   -1.5014 C   0  0  0  0  0  0  0  0  0  0  0  0
   -5.1776   -0.0888    0.6334 C   0  0  0  0  0  0  0  0  0  0  0  0
   -5.5452   -0.0032   -0.7094 C   0  0  0  0  0  0  0  0  0  0  0  0
  1 37  1  0
  2 40  1  0
  3 16  1  0
  3 25  1  0
  4 21  1  0
  4 27  1  0
  5 19  2  0
  6 22  2  0
  7 26  1  0
  7 29  1  0
  8 25  2  0
  9 28  1  0
  9 30  1  0
 10 27  2  0
 11 15  1  0
 11 17  1  0
 11 20  1  0
 12 18  1  0
 12 22  1  0
 12 23  1  0
 13 19  1  0
 13 22  1  0
 13 24  1  0
 14 18  1  0
 14 20  2  0
 15 16  1  0
 16 21  1  0
 17 18  2  0
 17 19  1  0
 25 26  1  0
 27 28  1  0
 29 31  2  0
 29 32  1  0
 30 33  2  0
 30 34  1  0
 31 35  1  0
 32 36  2  0
 33 38  1  0
 34 39  2  0
 35 37  2  0
 36 37  1  0
 38 40  2  0
 39 40  1  0
M  END
>  <PUBCHEM_COMPOUND_CID>  (1) 
41110

>  <PUBCHEM_CONFORMER_RMSD>  (1) 
1.2

>  <PUBCHEM_CONFORMER_DIVERSEORDER>  (1) 
7
76
270
128
11
10
45
23
223
82
224
47
91
229
188
189
140
69
195
211
85
95
273
159
96
114
66
177
132
57
99
68
105
119
27
232
212
61
169
115
104
17
59
41
194
122
53
186
87
28
31
231
9
130
219
147
5
40
62
32
272
254
51
72
60
8
43
193
14
256
208
44
112
79
93
90
242
48
118
251
100
142
181
201
108
67
145
111
134
144
206
257
16
74
54
152
179
258
153
221
207
35
52
172
261
49
34
83
133
234
58
113
135
103
214
216
268
209
30
210
236
123
18
180
162
255
65
26
203
161
184
196
136
253
75
190
19
146
165
265
29
15
6
171
215
173
276
124
163
120
237
21
86
22
116
246
81
50
110
102
149
247
141
260
39
121
217
63
13
139
156
98
125
25
151
204
80
275
64
20
250
38
182
227
239
154
4
192
84
138
197
264
158
36
37
89
33
73
55
137
225
170
24
56
245
233
46
176
148
42
198
3
78
175
77
262
70
129
117
127
269
143
155
228
174
202
2
191
101
243
131
109
226
97
213
222
267
164
1
271
94
240
107
266
185
88
205
252
218
238
249
248
106
168
167
259
235
277
241
157
150
183
71
230
199
178
92
160
166
220
126
12
278
200
263
244
274
187

>  <PUBCHEM_MMFF94_PARTIAL_CHARGES>  (1) 
49
1 -0.18
10 -0.57
11 0.05
12 -0.42
13 -0.42
14 -0.57
15 0.26
16 0.28
17 -0.24
18 0.29
19 0.71
2 -0.18
20 0.04
21 0.28
22 0.69
23 0.3
24 0.3
25 0.66
26 0.34
27 0.66
28 0.34
29 0.08
3 -0.43
30 0.08
31 -0.15
32 -0.15
33 -0.15
34 -0.15
35 -0.15
36 -0.15
37 0.18
38 -0.15
39 -0.15
4 -0.43
40 0.18
44 0.15
5 -0.57
57 0.15
58 0.15
59 0.15
6 -0.57
60 0.15
61 0.15
62 0.15
63 0.15
64 0.15
7 -0.36
8 -0.57
9 -0.36

>  <PUBCHEM_EFFECTIVE_ROTOR_COUNT>  (1) 
13

>  <PUBCHEM_PHARMACOPHORE_FEATURES>  (1) 
11
1 10 acceptor
1 5 acceptor
1 6 acceptor
1 7 acceptor
1 8 acceptor
1 9 acceptor
3 11 14 20 cation
5 11 14 17 18 20 rings
6 12 13 17 18 19 22 rings
6 29 31 32 35 36 37 rings
6 30 33 34 38 39 40 rings

>  <PUBCHEM_HEAVY_ATOM_COUNT>  (1) 
40

>  <PUBCHEM_ATOM_DEF_STEREO_COUNT>  (1) 
0

>  <PUBCHEM_ATOM_UDEF_STEREO_COUNT>  (1) 
1

>  <PUBCHEM_BOND_DEF_STEREO_COUNT>  (1) 
0

>  <PUBCHEM_BOND_UDEF_STEREO_COUNT>  (1) 
0

>  <PUBCHEM_ISOTOPIC_ATOM_COUNT>  (1) 
0

>  <PUBCHEM_COMPONENT_COUNT>  (1) 
1

>  <PUBCHEM_CACTVS_TAUTO_COUNT>  (1) 
1

>  <PUBCHEM_CONFORMER_ID>  (1) 
0000A09600000007

>  <PUBCHEM_MMFF94_ENERGY>  (1) 
90.393

>  <PUBCHEM_FEATURE_SELFOVERLAP>  (1) 
55.955

>  <PUBCHEM_SHAPE_FINGERPRINT>  (1) 
10462674 296 17554042530545934614
10581848 31 18261120668740707647
11513181 2 17836651824845424742
12128747 34 18263358265081318311
12422481 6 17059486310270740148
12633046 712 18335412504438837655
12788726 201 18339362967933293872
13165053 137 17545038204581934611
14068700 686 17686337981423014893
14117953 113 18197772203643857837
14705955 166 17271989983970592930
15001296 14 18262513822802128299
17349148 13 17846786191270111333
17818456 19 18411985745455206767
20764821 26 17908157476915033156
20775438 99 17766805667325136439
21703447 108 17907854360104422675
21792965 302 18188216498399974540
22223350 30 18201438108179998025
4394409 98 17756405094406024693
460360 51 17677870423033525479
6422251 121 17976541938044858883

>  <PUBCHEM_SHAPE_MULTIPOLES>  (1) 
760.04
13.49
6.65
1.89
2.52
0.76
0.23
8.07
-3.94
2.2
2.03
-1.11
0.62
-0.09

>  <PUBCHEM_SHAPE_SELFOVERLAP>  (1) 
1615.049

>  <PUBCHEM_SHAPE_VOLUME>  (1) 
423.8

>  <PUBCHEM_COORDINATE_TYPE>  (1) 
2
5
10

$$$$
