4111
     RDKit          3D

 19 18  0  0  1  0  0  0  0  0999 V2000
   -2.2788   -2.0206    0.5069 O   0  0  0  0  0  0  0  0  0  0  0  0
    3.8047   -3.0885   -0.3026 O   0  0  0  0  0  0  0  0  0  0  0  0
    5.2316   -1.3072   -0.3170 O   0  0  0  0  0  0  0  0  0  0  0  0
   -2.2668    0.9034    0.0254 C   0  0  0  0  0  0  0  0  0  0  0  0
   -2.7699   -0.1675   -0.9541 C   0  0  0  0  0  0  0  0  0  0  0  0
   -1.6628    2.0961   -0.7260 C   0  0  0  0  0  0  0  0  0  0  0  0
   -3.3209   -1.4413   -0.2813 C   0  0  0  0  0  0  0  0  0  0  0  0
   -1.1578    3.2244    0.2000 C   0  0  0  0  0  0  0  0  0  0  0  0
   -0.1040    2.7139    1.2058 C   0  0  0  0  0  0  0  0  0  0  0  0
   -4.5150   -1.1520    0.6311 C   0  0  0  0  0  0  0  0  0  0  0  0
   -3.7186   -2.4586   -1.3560 C   0  0  0  0  0  0  0  0  0  0  0  0
   -0.5995    4.3636   -0.6648 C   0  0  0  0  0  0  0  0  0  0  0  0
    1.1228    2.1464    0.5425 C   0  0  0  0  0  0  0  0  0  0  0  0
   -2.7114   -3.2192    1.1296 C   0  0  0  0  0  0  0  0  0  0  0  0
    1.5451    0.8841    0.7219 C   0  0  0  0  0  0  0  0  0  0  0  0
    2.7238    0.2594    0.1190 C   0  0  0  0  0  0  0  0  0  0  0  0
    3.5480    1.0916   -0.8305 C   0  0  0  0  0  0  0  0  0  0  0  0
    2.9872   -1.0276    0.4210 C   0  0  0  0  0  0  0  0  0  0  0  0
    4.1424   -1.8005   -0.0708 C   0  0  0  0  0  0  0  0  0  0  0  0
  1  7  1  0
  1 14  1  0
  2 19  1  0
  3 19  2  0
  4  5  1  0
  4  6  1  0
  5  7  1  0
  6  8  1  0
  7 10  1  0
  7 11  1  0
  8  9  1  0
  8 12  1  0
  9 13  1  0
 13 15  2  0
 15 16  1  0
 16 17  1  0
 16 18  2  0
 18 19  1  0
M  END
>  <PUBCHEM_COMPOUND_CID>  (1) 
4111

>  <PUBCHEM_CONFORMER_RMSD>  (1) 
1

>  <PUBCHEM_CONFORMER_DIVERSEORDER>  (1) 
4
13
196
188
81
190
11
121
108
49
113
120
154
87
59
85
145
155
123
122
37
26
55
134
44
168
62
94
21
115
194
169
46
176
130
5
63
47
112
36
40
135
72
97
160
53
186
143
110
28
57
177
142
185
152
179
125
9
161
158
136
99
171
131
91
117
75
8
133
165
95
66
175
140
148
150
167
52
156
153
88
79
159
30
89
109
201
73
84
137
32
31
147
172
139
38
181
149
132
178
70
127
60
35
48
64
174
183
83
193
42
58
1
146
17
104
197
56
93
200
39
15
164
54
103
24
129
61
126
34
189
173
138
71
67
16
163
33
195
102
6
184
86
157
51
27
77
166
101
118
203
19
43
202
50
182
114
74
10
98
180
90
29
151
100
69
116
170
92
14
106
124
105
111
192
41
187
7
65
20
45
80
78
162
199
141
119
12
23
2
96
144
68
128
25
107
191
76
22
82
3
18
198

>  <PUBCHEM_MMFF94_PARTIAL_CHARGES>  (1) 
16
1 -0.56
13 -0.29
14 0.28
15 -0.15
16 -0.14
17 0.14
18 -0.14
19 0.71
2 -0.65
3 -0.57
38 0.15
42 0.15
46 0.15
47 0.5
7 0.28
9 0.14

>  <PUBCHEM_EFFECTIVE_ROTOR_COUNT>  (1) 
9

>  <PUBCHEM_PHARMACOPHORE_FEATURES>  (1) 
9
1 1 acceptor
1 12 hydrophobe
1 17 hydrophobe
1 2 acceptor
1 3 acceptor
3 2 3 19 anion
3 4 5 6 hydrophobe
3 7 10 11 hydrophobe
3 8 9 13 hydrophobe

>  <PUBCHEM_HEAVY_ATOM_COUNT>  (1) 
19

>  <PUBCHEM_ATOM_DEF_STEREO_COUNT>  (1) 
0

>  <PUBCHEM_ATOM_UDEF_STEREO_COUNT>  (1) 
1

>  <PUBCHEM_BOND_DEF_STEREO_COUNT>  (1) 
0

>  <PUBCHEM_BOND_UDEF_STEREO_COUNT>  (1) 
2

>  <PUBCHEM_ISOTOPIC_ATOM_COUNT>  (1) 
0

>  <PUBCHEM_COMPONENT_COUNT>  (1) 
1

>  <PUBCHEM_CACTVS_TAUTO_COUNT>  (1) 
1

>  <PUBCHEM_CONFORMER_ID>  (1) 
0000100F00000004

>  <PUBCHEM_MMFF94_ENERGY>  (1) 
47.7622

>  <PUBCHEM_FEATURE_SELFOVERLAP>  (1) 
45.811

>  <PUBCHEM_SHAPE_FINGERPRINT>  (1) 
107951 10 17692531113525944645
12107183 9 18271820021112129905
12553582 1 18337386149274384329
12788726 201 18264762169145915131
12990986 174 18339633452394597122
13533116 47 17838055172051844043
13631057 29 18342175549480147188
138480 1 15312378508586455553
14251731 5 18411981385862875939
14251740 79 18192990413686924663
14251757 5 18336272236621660994
14363568 33 17759826009839409114
14863182 85 17690555716290836521
14866123 147 18269274548382621361
14916288 52 18411134766246770707
15352361 1 18412541041534436566
15422964 175 18267851955760473225
17859628 70 17760934339346202107
17859628 97 17401485944620276312
20291156 8 18412825819425341941
20645476 183 17831575379639046116
20645477 70 17542485581279854565
20775530 9 18335698364355097582
21665056 4 17907011777272733701
221490 88 18341328916868636672
23466295 7 18265907868772650002
314173 41 18265339588996961573
3737641 26 18339935929550330040
474 4 8718289926307416005
59682541 52 17765683070512428487
9709674 26 17903906009807195935

>  <PUBCHEM_SHAPE_MULTIPOLES>  (1) 
373.4
9.05
5.19
1.1
4.12
2.81
-0.02
-10.4
-1.23
-0.63
-0.03
-0.62
-0.06
0.49

>  <PUBCHEM_SHAPE_SELFOVERLAP>  (1) 
714.794

>  <PUBCHEM_SHAPE_VOLUME>  (1) 
229.2

>  <PUBCHEM_COORDINATE_TYPE>  (1) 
2
5
10

$$$$
