41122
     RDKit          3D

 13 13  0  0  0  0  0  0  0  0999 V2000
    3.1270    0.6419   -1.2127 O   0  0  0  0  0  0  0  0  0  0  0  0
   -3.7679   -1.1261    0.0276 O   0  0  0  0  0  0  0  0  0  0  0  0
    2.6341    0.0202   -0.0035 C   0  0  0  0  0  0  0  0  0  0  0  0
    1.1428   -0.0057   -0.0010 C   0  0  0  0  0  0  0  0  0  0  0  0
    3.3109   -1.3740    0.0282 C   0  0  0  0  0  0  0  0  0  0  0  0
    3.1695    0.8604    1.1777 C   0  0  0  0  0  0  0  0  0  0  0  0
    0.4244    1.1897   -0.0278 C   0  0  0  0  0  0  0  0  0  0  0  0
    0.4663   -1.2254    0.0275 C   0  0  0  0  0  0  0  0  0  0  0  0
   -1.6466   -0.0539    0.0021 C   0  0  0  0  0  0  0  0  0  0  0  0
   -0.9703    1.1657   -0.0262 C   0  0  0  0  0  0  0  0  0  0  0  0
   -0.9284   -1.2494    0.0290 C   0  0  0  0  0  0  0  0  0  0  0  0
   -3.1007   -0.0791    0.0041 C   0  0  0  0  0  0  0  0  0  0  0  0
   -3.8611    1.2357   -0.0251 C   0  0  0  0  0  0  0  0  0  0  0  0
  1  3  1  0
  2 12  2  0
  3  4  1  0
  3  5  1  0
  3  6  1  0
  4  7  2  0
  4  8  1  0
  7 10  1  0
  8 11  2  0
  9 10  2  0
  9 11  1  0
  9 12  1  0
 12 13  1  0
M  END
>  <PUBCHEM_COMPOUND_CID>  (1) 
41122

>  <PUBCHEM_CONFORMER_RMSD>  (1) 
0.6

>  <PUBCHEM_CONFORMER_DIVERSEORDER>  (1) 
1
7
8
2
4
6
3
5

>  <PUBCHEM_MMFF94_PARTIAL_CHARGES>  (1) 
16
1 -0.68
10 -0.15
11 -0.15
12 0.42
13 0.06
2 -0.57
20 0.15
21 0.15
22 0.15
23 0.15
24 0.4
3 0.42
4 -0.14
7 -0.15
8 -0.15
9 0.09

>  <PUBCHEM_EFFECTIVE_ROTOR_COUNT>  (1) 
2

>  <PUBCHEM_PHARMACOPHORE_FEATURES>  (1) 
5
1 1 acceptor
1 1 donor
1 2 acceptor
3 3 5 6 hydrophobe
6 4 7 8 9 10 11 rings

>  <PUBCHEM_HEAVY_ATOM_COUNT>  (1) 
13

>  <PUBCHEM_ATOM_DEF_STEREO_COUNT>  (1) 
0

>  <PUBCHEM_ATOM_UDEF_STEREO_COUNT>  (1) 
0

>  <PUBCHEM_BOND_DEF_STEREO_COUNT>  (1) 
0

>  <PUBCHEM_BOND_UDEF_STEREO_COUNT>  (1) 
0

>  <PUBCHEM_ISOTOPIC_ATOM_COUNT>  (1) 
0

>  <PUBCHEM_COMPONENT_COUNT>  (1) 
1

>  <PUBCHEM_CACTVS_TAUTO_COUNT>  (1) 
2

>  <PUBCHEM_CONFORMER_ID>  (1) 
0000A0A200000001

>  <PUBCHEM_MMFF94_ENERGY>  (1) 
42.4767

>  <PUBCHEM_FEATURE_SELFOVERLAP>  (1) 
25.371

>  <PUBCHEM_SHAPE_FINGERPRINT>  (1) 
10130415 120 18114177532098565520
10219947 1 18411420609242034183
10608611 8 18341888593402870193
11132069 177 18408598145840368577
12032990 46 18410298007928331059
12932764 1 17917709127693523542
13296908 3 18413669114847425927
14144814 61 18411699893832844865
14325111 11 18411136935278971769
14993402 34 18187088381313625325
16945 1 18337953492699722441
18175812 5 18272367555504759285
18186145 218 17846504728967033385
19026448 4 16845856801762494205
19026448 5 16370442263278888609
193761 8 17617660303087082955
19422 9 18260833695751533995
20281475 54 18334015007974315459
20645476 183 17968957399288061470
20645477 70 17988922223813522567
21501925 9 18337101380073510379
23402539 116 18200864115448517342
23463225 33 18335138644306825002
23559900 14 18342457032994064372
2748010 2 18265613169644297983
3248919 1 17821728363958732922
5084963 1 18261957336806148872
5104073 3 18411981351687917283
53812653 166 18342730815009387809
57812782 119 16988843864996036385
633830 44 17385447591970658143
69090 78 17917702539472407879
7364860 26 18412265060680623660

>  <PUBCHEM_SHAPE_MULTIPOLES>  (1) 
255.8
6.71
1.5
0.8
2.03
0.14
0
-0.24
0.16
0.08
0.05
-0.6
-0.16
0.15

>  <PUBCHEM_SHAPE_SELFOVERLAP>  (1) 
528.854

>  <PUBCHEM_SHAPE_VOLUME>  (1) 
148.8

>  <PUBCHEM_COORDINATE_TYPE>  (1) 
2
5
10

$$$$
