41126
     RDKit          3D

  9  9  0  0  1  0  0  0  0  0999 V2000
   -1.3035    1.7943    0.1260 O   0  0  0  0  0  0  0  0  0  0  0  0
   -1.3111   -0.6139    0.3943 C   0  0  0  0  0  0  0  0  0  0  0  0
   -0.1243   -1.5611    0.2181 C   0  0  0  0  0  0  0  0  0  0  0  0
    1.0642   -0.6622    0.0239 C   0  0  0  0  0  0  0  0  0  0  0  0
    0.7752    0.6448   -0.0216 C   0  0  0  0  0  0  0  0  0  0  0  0
   -0.6883    0.7378    0.1569 C   0  0  0  0  0  0  0  0  0  0  0  0
   -2.4445   -0.8904   -0.5779 C   0  0  0  0  0  0  0  0  0  0  0  0
    2.4094   -1.2942   -0.1101 C   0  0  0  0  0  0  0  0  0  0  0  0
    1.6230    1.8449   -0.2095 C   0  0  0  0  0  0  0  0  0  0  0  0
  1  6  2  0
  2  3  1  0
  2  6  1  0
  2  7  1  0
  3  4  1  0
  4  5  2  0
  4  8  1  0
  5  6  1  0
  5  9  1  0
M  END
>  <PUBCHEM_COMPOUND_CID>  (1) 
41126

>  <PUBCHEM_CONFORMER_RMSD>  (1) 
0.4

>  <PUBCHEM_CONFORMER_DIVERSEORDER>  (1) 
1
2

>  <PUBCHEM_MMFF94_PARTIAL_CHARGES>  (1) 
8
1 -0.57
2 0.06
3 0.14
4 -0.28
5 -0.12
6 0.49
8 0.14
9 0.14

>  <PUBCHEM_EFFECTIVE_ROTOR_COUNT>  (1) 
0.4

>  <PUBCHEM_PHARMACOPHORE_FEATURES>  (1) 
2
1 1 acceptor
5 2 3 4 5 6 rings

>  <PUBCHEM_HEAVY_ATOM_COUNT>  (1) 
9

>  <PUBCHEM_ATOM_DEF_STEREO_COUNT>  (1) 
0

>  <PUBCHEM_ATOM_UDEF_STEREO_COUNT>  (1) 
1

>  <PUBCHEM_BOND_DEF_STEREO_COUNT>  (1) 
0

>  <PUBCHEM_BOND_UDEF_STEREO_COUNT>  (1) 
0

>  <PUBCHEM_ISOTOPIC_ATOM_COUNT>  (1) 
0

>  <PUBCHEM_COMPONENT_COUNT>  (1) 
1

>  <PUBCHEM_CACTVS_TAUTO_COUNT>  (1) 
10

>  <PUBCHEM_CONFORMER_ID>  (1) 
0000A0A600000001

>  <PUBCHEM_MMFF94_ENERGY>  (1) 
6.8089

>  <PUBCHEM_FEATURE_SELFOVERLAP>  (1) 
10.148

>  <PUBCHEM_SHAPE_FINGERPRINT>  (1) 
12423570 1 12542991627693108130
14128692 85 18272370871256636374
16945 1 18337958990479511370
18185500 45 18120374250541144378
21040471 1 17905325482880353560
23552423 10 18335421283093026886
241688 4 18337106740024040312
2748010 2 18409728452141057301
29004967 10 18119534485898357651
5084963 1 18202282489548377146

>  <PUBCHEM_SHAPE_MULTIPOLES>  (1) 
179.35
2.86
2.02
0.68
0.29
0.49
0.02
-0.56
0.45
-0.62
0
0.1
-0.05
-0.13

>  <PUBCHEM_SHAPE_SELFOVERLAP>  (1) 
361.782

>  <PUBCHEM_SHAPE_VOLUME>  (1) 
109

>  <PUBCHEM_COORDINATE_TYPE>  (1) 
2
5
10

$$$$
