41123
     RDKit          3D

  9  9  0  0  1  0  0  0  0  0999 V2000
   -0.8334    0.5740   -0.0229 C   0  0  0  0  0  0  0  0  0  0  0  0
    0.5467   -0.0430   -0.3507 C   0  0  0  0  0  0  0  0  0  0  0  0
   -1.7715   -0.5769   -0.4275 C   0  0  0  0  0  0  0  0  0  0  0  0
    0.4289   -1.4981    0.1188 C   0  0  0  0  0  0  0  0  0  0  0  0
   -1.0538   -1.8547    0.0046 C   0  0  0  0  0  0  0  0  0  0  0  0
    1.7583    0.6634    0.2425 C   0  0  0  0  0  0  0  0  0  0  0  0
   -1.1131    1.8274   -0.8596 C   0  0  0  0  0  0  0  0  0  0  0  0
   -1.0163    0.9181    1.4662 C   0  0  0  0  0  0  0  0  0  0  0  0
    3.0542   -0.0102   -0.1715 C   0  0  0  0  0  0  0  0  0  0  0  0
  1  2  1  0
  1  3  1  0
  1  7  1  0
  1  8  1  0
  2  4  1  0
  2  6  1  0
  3  5  1  0
  4  5  1  0
  6  9  1  0
M  END
>  <PUBCHEM_COMPOUND_CID>  (1) 
41123

>  <PUBCHEM_CONFORMER_RMSD>  (1) 
0.4

>  <PUBCHEM_CONFORMER_DIVERSEORDER>  (1) 
3
8
6
7
5
4
2
1

>  <PUBCHEM_MMFF94_PARTIAL_CHARGES>  (1) 
0

>  <PUBCHEM_EFFECTIVE_ROTOR_COUNT>  (1) 
2

>  <PUBCHEM_PHARMACOPHORE_FEATURES>  (1) 
3
1 9 hydrophobe
3 1 7 8 hydrophobe
5 1 2 3 4 5 rings

>  <PUBCHEM_HEAVY_ATOM_COUNT>  (1) 
9

>  <PUBCHEM_ATOM_DEF_STEREO_COUNT>  (1) 
0

>  <PUBCHEM_ATOM_UDEF_STEREO_COUNT>  (1) 
1

>  <PUBCHEM_BOND_DEF_STEREO_COUNT>  (1) 
0

>  <PUBCHEM_BOND_UDEF_STEREO_COUNT>  (1) 
0

>  <PUBCHEM_ISOTOPIC_ATOM_COUNT>  (1) 
0

>  <PUBCHEM_COMPONENT_COUNT>  (1) 
1

>  <PUBCHEM_CACTVS_TAUTO_COUNT>  (1) 
1

>  <PUBCHEM_CONFORMER_ID>  (1) 
0000A0A300000003

>  <PUBCHEM_MMFF94_ENERGY>  (1) 
21.2189

>  <PUBCHEM_FEATURE_SELFOVERLAP>  (1) 
15.223

>  <PUBCHEM_SHAPE_FINGERPRINT>  (1) 
12423570 1 8018637825195803697
13024252 1 15719389559688782160
137420 1 13868989061836264249
14128692 85 17761215813805974174
16945 1 18336813277730315751
18185500 45 17974571608638135894
21040471 1 18264761065391846324
23552423 10 18116149064021868702
241688 4 18192147307290549856
29004967 10 17755858971680483011
369184 2 18411976988090639000
5084963 1 18413669115016302468
68250623 7 17315900080026237619

>  <PUBCHEM_SHAPE_MULTIPOLES>  (1) 
185.22
2.85
1.84
0.98
2.71
0.29
-0.27
-0.16
0.2
-0.81
0.16
-0.34
-0.36
0.02

>  <PUBCHEM_SHAPE_SELFOVERLAP>  (1) 
358.548

>  <PUBCHEM_SHAPE_VOLUME>  (1) 
113.3

>  <PUBCHEM_COORDINATE_TYPE>  (1) 
2
5
10

$$$$
