41121
     RDKit          3D

 32 35  0  0  1  0  0  0  0  0999 V2000
   -1.2465   -3.6162    0.7043 F   0  0  0  0  0  0  0  0  0  0  0  0
   -1.0053    0.1777   -1.9850 O   0  0  0  0  0  0  0  0  0  0  0  0
   -0.8192    2.3854    2.3459 O   0  0  0  0  0  0  0  0  0  0  0  0
   -3.1329    0.4173   -0.6972 C   0  0  0  0  0  0  0  0  0  0  0  0
   -4.4517    0.3623    1.9031 C   0  0  0  0  0  0  0  0  0  0  0  0
   -2.4478    0.2341   -2.0522 C   0  0  0  0  0  0  0  0  0  0  0  0
   -2.4595    0.8869    0.3729 C   0  0  0  0  0  0  0  0  0  0  0  0
   -3.0954    1.0660    1.7328 C   0  0  0  0  0  0  0  0  0  0  0  0
   -4.6095    0.0804   -0.6141 C   0  0  0  0  0  0  0  0  0  0  0  0
   -5.3022    0.5854    0.6523 C   0  0  0  0  0  0  0  0  0  0  0  0
   -1.0468    1.2631    0.1847 C   0  0  0  0  0  0  0  0  0  0  0  0
   -0.3924    0.8827   -0.9899 C   0  0  0  0  0  0  0  0  0  0  0  0
    3.1145    2.1940   -0.4410 C   0  0  0  0  0  0  0  0  0  0  0  0
   -4.2805   -1.1261    2.2235 C   0  0  0  0  0  0  0  0  0  0  0  0
    4.0733    1.5861    0.6490 C   0  0  0  0  0  0  0  0  0  0  0  0
   -2.8374   -1.1009   -2.7096 C   0  0  0  0  0  0  0  0  0  0  0  0
   -2.8081    1.3881   -3.0024 C   0  0  0  0  0  0  0  0  0  0  0  0
    1.6738    1.8781   -0.2258 C   0  0  0  0  0  0  0  0  0  0  0  0
   -0.3129    1.9770    1.1459 C   0  0  0  0  0  0  0  0  0  0  0  0
    0.9611    1.1734   -1.1908 C   0  0  0  0  0  0  0  0  0  0  0  0
    3.9413    0.0456    0.7699 C   0  0  0  0  0  0  0  0  0  0  0  0
    1.0353    2.2839    0.9410 C   0  0  0  0  0  0  0  0  0  0  0  0
    3.3191    3.7247   -0.5526 C   0  0  0  0  0  0  0  0  0  0  0  0
    5.5443    1.9775    0.4452 C   0  0  0  0  0  0  0  0  0  0  0  0
    4.3474   -0.7464   -0.4809 C   0  0  0  0  0  0  0  0  0  0  0  0
    4.1069   -2.2548   -0.3321 C   0  0  0  0  0  0  0  0  0  0  0  0
    2.6707   -2.6199   -0.0540 C   0  0  0  0  0  0  0  0  0  0  0  0
    2.2306   -2.7008    1.2583 C   0  0  0  0  0  0  0  0  0  0  0  0
    1.8138   -2.8686   -1.1154 C   0  0  0  0  0  0  0  0  0  0  0  0
    0.9019   -3.0386    1.5155 C   0  0  0  0  0  0  0  0  0  0  0  0
    0.4850   -3.2063   -0.8583 C   0  0  0  0  0  0  0  0  0  0  0  0
    0.0290   -3.2912    0.4572 C   0  0  0  0  0  0  0  0  0  0  0  0
  1 32  1  0
  2  6  1  0
  2 12  1  0
  3 19  1  0
  4  6  1  0
  4  7  2  0
  4  9  1  0
  5  8  1  0
  5 10  1  0
  5 14  1  0
  6 16  1  0
  6 17  1  0
  7  8  1  0
  7 11  1  0
  9 10  1  0
 11 12  2  0
 11 19  1  0
 12 20  1  0
 13 15  1  0
 13 18  1  0
 13 23  1  0
 15 21  1  0
 15 24  1  0
 18 20  2  0
 18 22  1  0
 19 22  2  0
 21 25  1  0
 25 26  1  0
 26 27  1  0
 27 28  2  0
 27 29  1  0
 28 30  1  0
 29 31  2  0
 30 32  2  0
 31 32  1  0
M  END
>  <PUBCHEM_COMPOUND_CID>  (1) 
41121

>  <PUBCHEM_CONFORMER_RMSD>  (1) 
1

>  <PUBCHEM_CONFORMER_DIVERSEORDER>  (1) 
2
56
40
73
119
84
74
5
90
76
55
16
107
52
17
4
94
75
10
50
69
118
78
115
33
88
24
66
68
30
15
71
100
57
6
72
64
29
89
36
91
93
32
95
98
77
34
81
42
109
104
8
111
96
7
20
101
25
26
38
105
92
110
85
37
11
108
13
23
43
65
46
97
58
116
41
70
87
99
114
103
45
80
22
53
21
1
102
79
63
18
28
48
112
83
47
117
82
39
27
12
35
67
59
106
31
62
60
113
44
86
14
54
3
61
49
9
51
19

>  <PUBCHEM_MMFF94_PARTIAL_CHARGES>  (1) 
29
1 -0.19
11 0.03
12 0.08
13 0.14
18 -0.14
19 0.08
2 -0.36
20 -0.15
22 -0.15
26 0.14
27 -0.14
28 -0.15
29 -0.15
3 -0.53
30 -0.15
31 -0.15
32 0.19
4 -0.28
51 0.15
54 0.15
6 0.42
65 0.45
66 0.15
67 0.15
68 0.15
69 0.15
7 -0.17
8 0.14
9 0.14

>  <PUBCHEM_EFFECTIVE_ROTOR_COUNT>  (1) 
7.2

>  <PUBCHEM_PHARMACOPHORE_FEATURES>  (1) 
10
1 2 acceptor
1 23 hydrophobe
1 24 hydrophobe
1 3 donor
3 6 16 17 hydrophobe
5 13 15 21 25 26 hydrophobe
6 11 12 18 19 20 22 rings
6 2 4 6 7 11 12 rings
6 27 28 29 30 31 32 rings
6 4 5 7 8 9 10 rings

>  <PUBCHEM_HEAVY_ATOM_COUNT>  (1) 
32

>  <PUBCHEM_ATOM_DEF_STEREO_COUNT>  (1) 
0

>  <PUBCHEM_ATOM_UDEF_STEREO_COUNT>  (1) 
3

>  <PUBCHEM_BOND_DEF_STEREO_COUNT>  (1) 
0

>  <PUBCHEM_BOND_UDEF_STEREO_COUNT>  (1) 
0

>  <PUBCHEM_ISOTOPIC_ATOM_COUNT>  (1) 
0

>  <PUBCHEM_COMPONENT_COUNT>  (1) 
1

>  <PUBCHEM_CACTVS_TAUTO_COUNT>  (1) 
20

>  <PUBCHEM_CONFORMER_ID>  (1) 
0000A0A100000002

>  <PUBCHEM_MMFF94_ENERGY>  (1) 
85.6477

>  <PUBCHEM_FEATURE_SELFOVERLAP>  (1) 
50.816

>  <PUBCHEM_SHAPE_FINGERPRINT>  (1) 
10032420 55 17460897097855453354
1100329 8 18410858780707970706
11112241 14 17987784353990951880
11135609 187 18124857187207909437
11578080 2 17606974892722628637
12128747 34 18045506310001235181
12156800 1 17540574569377196870
12422481 6 18115036336336826282
12553582 1 18197209248793640670
12788726 201 17632029593070865032
133893 2 18193530377334074415
13583140 156 18266467516223937149
14251757 17 17677326091916306753
144659 39 17968921115699581912
14747281 78 17389068219800821717
17138139 8 17698133468845527358
20511986 3 17774993579492649913
20764821 26 18339365270331449346
21197605 99 18120951743491876515
21421861 104 18129673988619107968
35225 105 17766287843965586523
392239 28 18339085882387208466
4112364 45 17625583075514990425
4340502 62 18339374045218121265
463206 1 18272362092195569322
469060 322 17313944246167119023
6287921 2 17844244030271741678
6669772 16 18187078465157623602
9896288 288 17194330275405511530
9981440 41 15689801929482674345

>  <PUBCHEM_SHAPE_MULTIPOLES>  (1) 
639.53
9.59
4.45
2.33
0.56
2.82
-0.75
-2.64
1.8
-4.84
0.64
3.18
-0.14
0.17

>  <PUBCHEM_SHAPE_SELFOVERLAP>  (1) 
1366.135

>  <PUBCHEM_SHAPE_VOLUME>  (1) 
358.3

>  <PUBCHEM_COORDINATE_TYPE>  (1) 
2
5
10

$$$$
