41128
     RDKit          3D

 12 12  0  0  0  0  0  0  0  0999 V2000
    1.0396   -0.8585    0.9525 S   0  0  0  0  0  0  0  0  0  0  0  0
    3.4763    0.3509    0.1312 C   0  0  0  0  0  0  0  0  0  0  0  0
    1.9560    0.3095   -0.1001 C   0  0  0  0  0  0  0  0  0  0  0  0
    4.1445   -1.0089   -0.0826 C   0  0  0  0  0  0  0  0  0  0  0  0
    4.1726    1.4291   -0.7020 C   0  0  0  0  0  0  0  0  0  0  0  0
   -0.6365   -0.6025    0.3831 C   0  0  0  0  0  0  0  0  0  0  0  0
   -1.2179    0.6578    0.4875 C   0  0  0  0  0  0  0  0  0  0  0  0
   -2.5254    0.8565    0.0441 C   0  0  0  0  0  0  0  0  0  0  0  0
   -1.3511   -1.6657   -0.1608 C   0  0  0  0  0  0  0  0  0  0  0  0
   -3.2457   -0.2059   -0.5019 C   0  0  0  0  0  0  0  0  0  0  0  0
   -2.6587   -1.4670   -0.6042 C   0  0  0  0  0  0  0  0  0  0  0  0
   -3.1538    2.2047    0.1531 C   0  0  0  0  0  0  0  0  0  0  0  0
  1  3  1  0
  1  6  1  0
  2  3  1  0
  2  4  1  0
  2  5  1  0
  6  7  2  0
  6  9  1  0
  7  8  1  0
  8 10  2  0
  8 12  1  0
  9 11  2  0
 10 11  1  0
M  END
>  <PUBCHEM_COMPOUND_CID>  (1) 
41128

>  <PUBCHEM_CONFORMER_RMSD>  (1) 
0.6

>  <PUBCHEM_CONFORMER_DIVERSEORDER>  (1) 
1
4
10
11
9
15
2
8
13
7
12
5
14
16
3
6

>  <PUBCHEM_MMFF94_PARTIAL_CHARGES>  (1) 
13
1 -0.33
10 -0.15
11 -0.15
12 0.14
22 0.15
23 0.15
24 0.15
25 0.15
3 0.23
6 0.1
7 -0.15
8 -0.14
9 -0.15

>  <PUBCHEM_EFFECTIVE_ROTOR_COUNT>  (1) 
3

>  <PUBCHEM_PHARMACOPHORE_FEATURES>  (1) 
2
3 2 4 5 hydrophobe
6 6 7 8 9 10 11 rings

>  <PUBCHEM_HEAVY_ATOM_COUNT>  (1) 
12

>  <PUBCHEM_ATOM_DEF_STEREO_COUNT>  (1) 
0

>  <PUBCHEM_ATOM_UDEF_STEREO_COUNT>  (1) 
0

>  <PUBCHEM_BOND_DEF_STEREO_COUNT>  (1) 
0

>  <PUBCHEM_BOND_UDEF_STEREO_COUNT>  (1) 
0

>  <PUBCHEM_ISOTOPIC_ATOM_COUNT>  (1) 
0

>  <PUBCHEM_COMPONENT_COUNT>  (1) 
1

>  <PUBCHEM_CACTVS_TAUTO_COUNT>  (1) 
1

>  <PUBCHEM_CONFORMER_ID>  (1) 
0000A0A800000001

>  <PUBCHEM_MMFF94_ENERGY>  (1) 
26.1584

>  <PUBCHEM_FEATURE_SELFOVERLAP>  (1) 
10.148

>  <PUBCHEM_SHAPE_FINGERPRINT>  (1) 
12162725 195 18408322211582316926
12173636 292 18341322340645647359
12186901 62 18273498974592283279
12932764 1 17703788175811825314
13024252 1 17967531303042737819
14123255 52 18264488378071632741
14123260 362 17968955191854017980
14325111 11 18410012143700525394
15669948 3 18342447179611548343
15775835 57 18261956254089547777
1741750 31 18271806753209267329
17834072 32 18191583047710427973
18186145 218 17530965787338697962
1986462 14 18202845456670955590
20279233 1 16343698829346014678
20300324 65 18340767155898125508
20361792 2 14117802431300006770
20645476 183 18338228272118350459
20645477 56 18342458136046642937
20653085 51 18335709307915872298
20711983 171 18412829079590193996
20871999 31 18202275927291847597
23402539 116 18201992188540460708
23402655 69 18409452475397718796
23557571 272 18059867189514806412
23559900 14 17988918926164725906
2748010 2 17766251534844790099
2838139 119 16735201866044829477
4175511 318 17918273168631909389
474 4 17604152631284314412
573450 72 18337939130814628650
58051976 100 18410013200162688806
633830 44 17894917308755098218
93112 12 18412265047431646942

>  <PUBCHEM_SHAPE_MULTIPOLES>  (1) 
250.8
7.96
1.9
0.84
7.01
0.43
0.05
2.13
-1.6
-1.08
-0.12
0.07
-0.06
-0.78

>  <PUBCHEM_SHAPE_SELFOVERLAP>  (1) 
484.655

>  <PUBCHEM_SHAPE_VOLUME>  (1) 
153.6

>  <PUBCHEM_COORDINATE_TYPE>  (1) 
2
5
10

$$$$
