41124
     RDKit          3D

 10 10  0  0  1  0  0  0  0  0999 V2000
    2.9773    0.4349   -0.3407 O   0  0  0  0  0  0  0  0  0  0  0  0
   -0.4952   -0.2859   -0.3293 C   0  0  0  0  0  0  0  0  0  0  0  0
    0.5841    0.8110   -0.2401 C   0  0  0  0  0  0  0  0  0  0  0  0
    0.1048   -1.4743    0.4262 C   0  0  0  0  0  0  0  0  0  0  0  0
   -1.8722    0.0990    0.1895 C   0  0  0  0  0  0  0  0  0  0  0  0
    1.5675   -1.4899    0.0028 C   0  0  0  0  0  0  0  0  0  0  0  0
    1.8495   -0.0247   -0.2065 C   0  0  0  0  0  0  0  0  0  0  0  0
    0.5282    1.7033    0.9911 C   0  0  0  0  0  0  0  0  0  0  0  0
   -2.4104    1.3074   -0.5709 C   0  0  0  0  0  0  0  0  0  0  0  0
   -2.8337   -1.0808    0.0779 C   0  0  0  0  0  0  0  0  0  0  0  0
  1  7  2  0
  2  3  1  0
  2  4  1  0
  2  5  1  0
  3  7  1  0
  3  8  1  0
  4  6  1  0
  5  9  1  0
  5 10  1  0
  6  7  1  0
M  END
>  <PUBCHEM_COMPOUND_CID>  (1) 
41124

>  <PUBCHEM_CONFORMER_RMSD>  (1) 
0.4

>  <PUBCHEM_CONFORMER_DIVERSEORDER>  (1) 
1
15
11
4
13
9
10
12
6
14
2
16
7
8
3
5

>  <PUBCHEM_MMFF94_PARTIAL_CHARGES>  (1) 
4
1 -0.57
3 0.06
6 0.06
7 0.45

>  <PUBCHEM_EFFECTIVE_ROTOR_COUNT>  (1) 
1.8

>  <PUBCHEM_PHARMACOPHORE_FEATURES>  (1) 
3
1 1 acceptor
3 5 9 10 hydrophobe
5 2 3 4 6 7 rings

>  <PUBCHEM_HEAVY_ATOM_COUNT>  (1) 
10

>  <PUBCHEM_ATOM_DEF_STEREO_COUNT>  (1) 
0

>  <PUBCHEM_ATOM_UDEF_STEREO_COUNT>  (1) 
2

>  <PUBCHEM_BOND_DEF_STEREO_COUNT>  (1) 
0

>  <PUBCHEM_BOND_UDEF_STEREO_COUNT>  (1) 
0

>  <PUBCHEM_ISOTOPIC_ATOM_COUNT>  (1) 
0

>  <PUBCHEM_COMPONENT_COUNT>  (1) 
1

>  <PUBCHEM_CACTVS_TAUTO_COUNT>  (1) 
3

>  <PUBCHEM_CONFORMER_ID>  (1) 
0000A0A400000001

>  <PUBCHEM_MMFF94_ENERGY>  (1) 
17.3595

>  <PUBCHEM_FEATURE_SELFOVERLAP>  (1) 
15.223

>  <PUBCHEM_SHAPE_FINGERPRINT>  (1) 
12897270 3 18335979865455013975
12932764 1 18202558501532292111
14325111 11 18334577936347223478
15775835 57 18411425007541713925
16945 1 18188782750201745446
18185500 45 18267866073280525819
21040471 1 18335700572131798462
23402655 69 18267287756699296845
23552423 10 18188213078608805062
2748010 2 18338518538618523735
29004967 10 18202566159300738234
5084963 1 18339928237311323681
528886 8 18187923950010753597
53812653 166 18341325656265642697
63268167 104 18341052925868538529

>  <PUBCHEM_SHAPE_MULTIPOLES>  (1) 
199.93
3.73
1.74
0.79
0.72
0.03
-0.08
-0.09
0.52
0.08
-0.28
0.01
0.18
0.23

>  <PUBCHEM_SHAPE_SELFOVERLAP>  (1) 
394.652

>  <PUBCHEM_SHAPE_VOLUME>  (1) 
122.5

>  <PUBCHEM_COORDINATE_TYPE>  (1) 
2
5
10

$$$$
