41131
     RDKit          3D

 16 18  0  0  0  0  0  0  0  0999 V2000
   -2.9843   -2.6942   -0.0003 Cl  0  0  0  0  0  0  0  0  0  0  0  0
   -3.8522    2.6426    0.0011 Cl  0  0  0  0  0  0  0  0  0  0  0  0
    4.7008    1.6666   -0.0005 Cl  0  0  0  0  0  0  0  0  0  0  0  0
   -0.0198   -1.7375    0.0004 O   0  0  0  0  0  0  0  0  0  0  0  0
   -0.4847    0.4756   -0.0002 C   0  0  0  0  0  0  0  0  0  0  0  0
    0.9318    0.3140    0.0000 C   0  0  0  0  0  0  0  0  0  0  0  0
   -1.0172   -0.8099    0.0000 C   0  0  0  0  0  0  0  0  0  0  0  0
    1.1609   -1.0584    0.0002 C   0  0  0  0  0  0  0  0  0  0  0  0
   -1.3725    1.5673   -0.0004 C   0  0  0  0  0  0  0  0  0  0  0  0
    2.0427    1.1776    0.0000 C   0  0  0  0  0  0  0  0  0  0  0  0
   -2.3825   -1.0906    0.0001 C   0  0  0  0  0  0  0  0  0  0  0  0
    2.4278   -1.6395    0.0002 C   0  0  0  0  0  0  0  0  0  0  0  0
   -2.7512    1.3162   -0.0008 C   0  0  0  0  0  0  0  0  0  0  0  0
   -3.2448    0.0096   -0.0003 C   0  0  0  0  0  0  0  0  0  0  0  0
    3.3293    0.6223    0.0003 C   0  0  0  0  0  0  0  0  0  0  0  0
    3.5159   -0.7618    0.0002 C   0  0  0  0  0  0  0  0  0  0  0  0
  1 11  1  0
  2 13  1  0
  3 15  1  0
  4  7  1  0
  4  8  1  0
  5  6  1  0
  5  7  2  0
  5  9  1  0
  6  8  2  0
  6 10  1  0
  7 11  1  0
  8 12  1  0
  9 13  2  0
 10 15  2  0
 11 14  2  0
 12 16  2  0
 13 14  1  0
 15 16  1  0
M  END
>  <PUBCHEM_COMPOUND_CID>  (1) 
41131

>  <PUBCHEM_CONFORMER_RMSD>  (1) 
0.4

>  <PUBCHEM_CONFORMER_DIVERSEORDER>  (1) 
1

>  <PUBCHEM_MMFF94_PARTIAL_CHARGES>  (1) 
19
1 -0.18
10 -0.15
11 0.18
12 -0.15
13 0.18
14 -0.15
15 0.18
16 -0.15
17 0.15
18 0.15
19 0.15
2 -0.18
20 0.15
21 0.15
3 -0.18
4 -0.28
7 0.14
8 0.14
9 -0.15

>  <PUBCHEM_EFFECTIVE_ROTOR_COUNT>  (1) 
0

>  <PUBCHEM_PHARMACOPHORE_FEATURES>  (1) 
4
1 4 acceptor
5 4 5 6 7 8 rings
6 5 7 9 11 13 14 rings
6 6 8 10 12 15 16 rings

>  <PUBCHEM_HEAVY_ATOM_COUNT>  (1) 
16

>  <PUBCHEM_ATOM_DEF_STEREO_COUNT>  (1) 
0

>  <PUBCHEM_ATOM_UDEF_STEREO_COUNT>  (1) 
0

>  <PUBCHEM_BOND_DEF_STEREO_COUNT>  (1) 
0

>  <PUBCHEM_BOND_UDEF_STEREO_COUNT>  (1) 
0

>  <PUBCHEM_ISOTOPIC_ATOM_COUNT>  (1) 
0

>  <PUBCHEM_COMPONENT_COUNT>  (1) 
1

>  <PUBCHEM_CACTVS_TAUTO_COUNT>  (1) 
1

>  <PUBCHEM_CONFORMER_ID>  (1) 
0000A0AB00000001

>  <PUBCHEM_MMFF94_ENERGY>  (1) 
29.7342

>  <PUBCHEM_FEATURE_SELFOVERLAP>  (1) 
20.499

>  <PUBCHEM_SHAPE_FINGERPRINT>  (1) 
10411042 1 17329711436699984602
10608611 8 18411697673324521472
10616163 171 18411703226606582486
10967382 1 18194682566376889799
11132069 177 18408881832614551312
12173636 292 18411134732018797631
12390115 104 18270419264082712880
12500047 106 18411412878396119785
13140716 1 18335981956814092898
13380535 21 18411706456368845126
13380535 76 18269552733039849671
14144814 61 18409729556169003594
14178342 30 18335969935363973338
14325111 11 18410575076315951808
14790565 3 15811736786098377981
14897335 6 18411133593689089357
15196674 1 18410573968024407428
15219456 202 18411984632831738998
15442244 35 18265893553989731978
15536298 74 18341614802639285374
16945 1 18194683670262814019
1741750 31 18270963445018098449
17492 89 18409448094094090970
18186145 218 18130517353003352720
19591789 44 15524346457819846387
200 152 18129654322464844311
20510252 161 18342461486120887155
20645477 56 18336267851533898285
20645477 70 17131561544118602270
21267235 1 18410302397237370378
21501502 16 18409443674440029978
221490 88 18411146835606441590
2334 1 18411136965175061194
23366157 5 18113621141140849962
23402539 116 18265888245072628614
23402655 69 18271520905697516316
23463225 33 18335700507854891110
23557571 272 18272099326170253364
23558518 356 18259991499762112619
23559900 14 18199465477130207302
2748010 2 18411985753813110535
3312278 4 18341615940172609697
335352 9 18122343480393586902
474 4 17676494990275680228
4990 188 18130802161417874580
5104073 3 18409166602036738304
58051976 378 18339923826200485020
69090 78 18337950074486107501
7364860 26 18196652887267595942
7832392 63 18410010996759783980
9709674 26 18342178834318317270

>  <PUBCHEM_SHAPE_MULTIPOLES>  (1) 
329.01
7.67
2.7
0.62
3.75
0.14
0
-3.08
0
-2.3
0
-0.01
-0.01
0

>  <PUBCHEM_SHAPE_SELFOVERLAP>  (1) 
713.695

>  <PUBCHEM_SHAPE_VOLUME>  (1) 
184.4

>  <PUBCHEM_COORDINATE_TYPE>  (1) 
2
5
10

$$$$
