41137
     RDKit          3D

 19 21  0  0  0  0  0  0  0  0999 V2000
    3.8356    1.6651   -0.2364 S   0  0  0  0  0  0  0  0  0  0  0  0
    3.7290   -1.8062    0.1910 S   0  0  0  0  0  0  0  0  0  0  0  0
    0.8392    2.3157   -0.3423 O   0  0  0  0  0  0  0  0  0  0  0  0
    0.7001   -2.2633    0.3674 O   0  0  0  0  0  0  0  0  0  0  0  0
   -6.1038   -0.7125   -0.3038 O   0  0  0  0  0  0  0  0  0  0  0  0
    0.2818    0.0418    0.0177 N   0  0  0  0  0  0  0  0  0  0  0  0
    2.4918    0.6312   -0.0831 C   0  0  0  0  0  0  0  0  0  0  0  0
    2.4511   -0.6883    0.0683 C   0  0  0  0  0  0  0  0  0  0  0  0
    1.1074    1.1416   -0.1425 C   0  0  0  0  0  0  0  0  0  0  0  0
    1.0385   -1.1089    0.1602 C   0  0  0  0  0  0  0  0  0  0  0  0
    5.1818    0.5655    0.3009 C   0  0  0  0  0  0  0  0  0  0  0  0
    5.1292   -0.7956   -0.3816 C   0  0  0  0  0  0  0  0  0  0  0  0
   -1.1500    0.0877    0.0342 C   0  0  0  0  0  0  0  0  0  0  0  0
   -1.8107    1.2264    0.5016 C   0  0  0  0  0  0  0  0  0  0  0  0
   -1.8919   -1.0066   -0.4169 C   0  0  0  0  0  0  0  0  0  0  0  0
   -3.2048    1.2705    0.5178 C   0  0  0  0  0  0  0  0  0  0  0  0
   -3.2860   -0.9625   -0.4010 C   0  0  0  0  0  0  0  0  0  0  0  0
   -3.9424    0.1761    0.0665 C   0  0  0  0  0  0  0  0  0  0  0  0
   -5.3958    0.2220    0.0821 C   0  0  0  0  0  0  0  0  0  0  0  0
  1  7  1  0
  1 11  1  0
  2  8  1  0
  2 12  1  0
  3  9  2  0
  4 10  2  0
  5 19  2  0
  6  9  1  0
  6 10  1  0
  6 13  1  0
  7  8  2  0
  7  9  1  0
  8 10  1  0
 11 12  1  0
 13 14  2  0
 13 15  1  0
 14 16  1  0
 15 17  2  0
 16 18  2  0
 17 18  1  0
 18 19  1  0
M  END
>  <PUBCHEM_COMPOUND_CID>  (1) 
41137

>  <PUBCHEM_CONFORMER_RMSD>  (1) 
0.6

>  <PUBCHEM_CONFORMER_DIVERSEORDER>  (1) 
1
2

>  <PUBCHEM_MMFF94_PARTIAL_CHARGES>  (1) 
24
1 -0.33
10 0.62
11 0.23
12 0.23
13 0.12
14 -0.15
15 -0.15
16 -0.15
17 -0.15
18 0.09
19 0.42
2 -0.33
24 0.15
25 0.15
26 0.15
27 0.15
28 0.06
3 -0.57
4 -0.57
5 -0.57
6 -0.24
7 0.12
8 0.12
9 0.62

>  <PUBCHEM_EFFECTIVE_ROTOR_COUNT>  (1) 
3

>  <PUBCHEM_PHARMACOPHORE_FEATURES>  (1) 
6
1 3 acceptor
1 4 acceptor
1 5 acceptor
5 6 7 8 9 10 rings
6 1 2 7 8 11 12 rings
6 13 14 15 16 17 18 rings

>  <PUBCHEM_HEAVY_ATOM_COUNT>  (1) 
19

>  <PUBCHEM_ATOM_DEF_STEREO_COUNT>  (1) 
0

>  <PUBCHEM_ATOM_UDEF_STEREO_COUNT>  (1) 
0

>  <PUBCHEM_BOND_DEF_STEREO_COUNT>  (1) 
0

>  <PUBCHEM_BOND_UDEF_STEREO_COUNT>  (1) 
0

>  <PUBCHEM_ISOTOPIC_ATOM_COUNT>  (1) 
0

>  <PUBCHEM_COMPONENT_COUNT>  (1) 
1

>  <PUBCHEM_CACTVS_TAUTO_COUNT>  (1) 
1

>  <PUBCHEM_CONFORMER_ID>  (1) 
0000A0B100000001

>  <PUBCHEM_MMFF94_ENERGY>  (1) 
52.0901

>  <PUBCHEM_FEATURE_SELFOVERLAP>  (1) 
30.492

>  <PUBCHEM_SHAPE_FINGERPRINT>  (1) 
10411042 1 18048595924827443450
11471102 20 18408040719030163165
11806522 49 18411138026037121640
12107183 9 17621324537108136331
12236239 1 18202565072848007697
13167823 11 18342457032297953038
13533116 47 18272369750512953626
13862211 1 18335983065411663634
14251764 18 18410290316316786536
14341114 176 18410018749344616787
15196674 1 18411419466860062633
15536298 74 18343021086543071144
15848702 151 18129948866990048510
17834072 33 18342174474915507455
1813 80 17603872169919821060
18186145 218 18335417955047117734
18522853 276 18341895186114197081
200 152 18343580733682537593
20612939 158 18260274066129800652
20645477 70 18411138000441807134
21267235 1 18412553093244239727
221490 88 18263088879994381875
23402539 116 18273208729028629790
23402655 69 18412259506960894933
23557571 272 14836134242645536729
23559900 14 18341325699173117689
26918003 58 18186522129020905307
2871803 45 18333730191249135492
29717793 49 18060137609419647381
335352 9 18410575088963392886
34797466 226 16773802536688600848
350125 39 18412263904954970233
3545911 37 18410856576835483023
4214541 1 18340769251979686201
42630746 31 18410855465014070246
4340502 62 16298384669557517970
474 4 18187087303440636828
5104073 3 18411703149586997497
542803 24 14201397175025545741
59755656 215 18409170983046168182
7495541 125 16343695581918150947
9981440 41 17402887225083101752
9999458 23 17749108924528248918

>  <PUBCHEM_SHAPE_MULTIPOLES>  (1) 
376.12
11.7
1.95
0.69
6.13
0.04
-0.01
-0.83
0.39
-1.33
-0.02
-0.01
0.01
-0.5

>  <PUBCHEM_SHAPE_SELFOVERLAP>  (1) 
800.947

>  <PUBCHEM_SHAPE_VOLUME>  (1) 
209.7

>  <PUBCHEM_COORDINATE_TYPE>  (1) 
2
5
10

$$$$
