41130
     RDKit          3D

 12 12  0  0  0  0  0  0  0  0999 V2000
    1.0191   -1.3451   -1.4211 S   0  0  0  0  0  0  0  0  0  0  0  0
    2.4530   -0.2503    0.7127 C   0  0  0  0  0  0  0  0  0  0  0  0
    3.0762    0.8544   -0.1450 C   0  0  0  0  0  0  0  0  0  0  0  0
    2.1950   -1.5490   -0.0511 C   0  0  0  0  0  0  0  0  0  0  0  0
    3.4029    2.0839    0.6893 C   0  0  0  0  0  0  0  0  0  0  0  0
   -0.4393   -0.7779   -0.5536 C   0  0  0  0  0  0  0  0  0  0  0  0
   -2.1251    0.9045   -0.1850 C   0  0  0  0  0  0  0  0  0  0  0  0
   -0.9888    0.4626   -0.8624 C   0  0  0  0  0  0  0  0  0  0  0  0
   -1.0154   -1.5809    0.4261 C   0  0  0  0  0  0  0  0  0  0  0  0
   -2.7067    0.1036    0.7979 C   0  0  0  0  0  0  0  0  0  0  0  0
   -2.1518   -1.1390    1.1035 C   0  0  0  0  0  0  0  0  0  0  0  0
   -2.7192    2.2332   -0.5112 C   0  0  0  0  0  0  0  0  0  0  0  0
  1  4  1  0
  1  6  1  0
  2  3  1  0
  2  4  1  0
  3  5  1  0
  6  8  2  0
  6  9  1  0
  7  8  1  0
  7 10  2  0
  7 12  1  0
  9 11  2  0
 10 11  1  0
M  END
>  <PUBCHEM_COMPOUND_CID>  (1) 
41130

>  <PUBCHEM_CONFORMER_RMSD>  (1) 
0.6

>  <PUBCHEM_CONFORMER_DIVERSEORDER>  (1) 
3
28
63
9
51
41
61
30
15
10
31
52
50
37
33
64
49
26
62
13
56
12
5
60
4
39
48
6
22
7
58
34
43
8
29
21
38
27
59
16
53
32
54
42
2
46
35
18
14
11
36
47
40
20
17
1
25
44
55
19
45
23
57
24

>  <PUBCHEM_MMFF94_PARTIAL_CHARGES>  (1) 
13
1 -0.33
10 -0.15
11 -0.15
12 0.14
22 0.15
23 0.15
24 0.15
25 0.15
4 0.23
6 0.1
7 -0.14
8 -0.15
9 -0.15

>  <PUBCHEM_EFFECTIVE_ROTOR_COUNT>  (1) 
4

>  <PUBCHEM_PHARMACOPHORE_FEATURES>  (1) 
3
1 5 hydrophobe
4 1 2 3 4 hydrophobe
6 6 7 8 9 10 11 rings

>  <PUBCHEM_HEAVY_ATOM_COUNT>  (1) 
12

>  <PUBCHEM_ATOM_DEF_STEREO_COUNT>  (1) 
0

>  <PUBCHEM_ATOM_UDEF_STEREO_COUNT>  (1) 
0

>  <PUBCHEM_BOND_DEF_STEREO_COUNT>  (1) 
0

>  <PUBCHEM_BOND_UDEF_STEREO_COUNT>  (1) 
0

>  <PUBCHEM_ISOTOPIC_ATOM_COUNT>  (1) 
0

>  <PUBCHEM_COMPONENT_COUNT>  (1) 
1

>  <PUBCHEM_CACTVS_TAUTO_COUNT>  (1) 
1

>  <PUBCHEM_CONFORMER_ID>  (1) 
0000A0AA00000003

>  <PUBCHEM_MMFF94_ENERGY>  (1) 
21.118

>  <PUBCHEM_FEATURE_SELFOVERLAP>  (1) 
15.224

>  <PUBCHEM_SHAPE_FINGERPRINT>  (1) 
10608611 8 18410293584090793704
10857977 72 17967830344055906935
11127187 94 10087375446688598392
12696612 119 18114467854845147012
12932764 1 18339376170647229783
13618510 140 18343580729171714752
13764800 53 18408606976098054336
13839132 238 18335988566668417542
13897977 13 18263083391073741076
14026960 21 18339364187725078736
14648413 74 18339361855847987326
15775835 57 18058732545323418536
16945 1 17969246511011886695
19786989 88 17917999355824418871
20361792 2 13767924628665248558
20645464 45 18336831896429491575
20653085 51 17986955142019390071
20828058 43 18336548325872432116
21947302 44 18199182884670364716
22096605 113 18200862994409403037
23175994 123 17769679511210184694
23532345 11 17458348549912932891
27216 239 18194673989633544936
2748010 2 18189914040645849375
369184 2 18335703810590114515
8050 44 18413668002366792648
81228 2 17968396597150486899

>  <PUBCHEM_SHAPE_MULTIPOLES>  (1) 
250.8
5.48
2.27
1.18
2.46
0.82
-0.12
3.11
1.22
0.36
-0.07
-0.11
-0.25
1.11

>  <PUBCHEM_SHAPE_SELFOVERLAP>  (1) 
483.493

>  <PUBCHEM_SHAPE_VOLUME>  (1) 
153.2

>  <PUBCHEM_COORDINATE_TYPE>  (1) 
2
5
10

$$$$
