41144
     RDKit          3D

 16 16  0  0  0  0  0  0  0  0999 V2000
   -0.7827   -0.0039   -0.6964 O   0  0  0  0  0  0  0  0  0  0  0  0
   -1.1893    0.0004    1.6005 O   0  0  0  0  0  0  0  0  0  0  0  0
   -3.0649   -0.0058    0.0290 C   0  0  0  0  0  0  0  0  0  0  0  0
   -3.3620   -1.2598   -0.8038 C   0  0  0  0  0  0  0  0  0  0  0  0
   -3.9482    0.0278    1.2832 C   0  0  0  0  0  0  0  0  0  0  0  0
   -3.3591    1.2402   -0.8219 C   0  0  0  0  0  0  0  0  0  0  0  0
   -1.5882   -0.0034    0.4418 C   0  0  0  0  0  0  0  0  0  0  0  0
    0.5830   -0.0017   -0.4036 C   0  0  0  0  0  0  0  0  0  0  0  0
    1.2312    1.2073   -0.2658 C   0  0  0  0  0  0  0  0  0  0  0  0
    1.2341   -1.2085   -0.2610 C   0  0  0  0  0  0  0  0  0  0  0  0
    3.2779    0.0028    0.1776 C   0  0  0  0  0  0  0  0  0  0  0  0
    2.5948    1.2097    0.0282 C   0  0  0  0  0  0  0  0  0  0  0  0
    2.5976   -1.2064    0.0331 C   0  0  0  0  0  0  0  0  0  0  0  0
    0.5171    2.5096   -0.4212 C   0  0  0  0  0  0  0  0  0  0  0  0
    0.5228   -2.5130   -0.4115 C   0  0  0  0  0  0  0  0  0  0  0  0
    4.7359    0.0046    0.4916 C   0  0  0  0  0  0  0  0  0  0  0  0
  1  7  1  0
  1  8  1  0
  2  7  2  0
  3  4  1  0
  3  5  1  0
  3  6  1  0
  3  7  1  0
  8  9  2  0
  8 10  1  0
  9 12  1  0
  9 14  1  0
 10 13  2  0
 10 15  1  0
 11 12  2  0
 11 13  1  0
 11 16  1  0
M  END
>  <PUBCHEM_COMPOUND_CID>  (1) 
41144

>  <PUBCHEM_CONFORMER_RMSD>  (1) 
0.6

>  <PUBCHEM_CONFORMER_DIVERSEORDER>  (1) 
1
2
3

>  <PUBCHEM_MMFF94_PARTIAL_CHARGES>  (1) 
15
1 -0.23
10 -0.14
11 -0.14
12 -0.15
13 -0.15
14 0.14
15 0.14
16 0.14
2 -0.57
26 0.15
27 0.15
3 0.06
7 0.66
8 0.08
9 -0.14

>  <PUBCHEM_EFFECTIVE_ROTOR_COUNT>  (1) 
3

>  <PUBCHEM_PHARMACOPHORE_FEATURES>  (1) 
3
1 2 acceptor
4 3 4 5 6 hydrophobe
6 8 9 10 11 12 13 rings

>  <PUBCHEM_HEAVY_ATOM_COUNT>  (1) 
16

>  <PUBCHEM_ATOM_DEF_STEREO_COUNT>  (1) 
0

>  <PUBCHEM_ATOM_UDEF_STEREO_COUNT>  (1) 
0

>  <PUBCHEM_BOND_DEF_STEREO_COUNT>  (1) 
0

>  <PUBCHEM_BOND_UDEF_STEREO_COUNT>  (1) 
0

>  <PUBCHEM_ISOTOPIC_ATOM_COUNT>  (1) 
0

>  <PUBCHEM_COMPONENT_COUNT>  (1) 
1

>  <PUBCHEM_CACTVS_TAUTO_COUNT>  (1) 
1

>  <PUBCHEM_CONFORMER_ID>  (1) 
0000A0B800000001

>  <PUBCHEM_MMFF94_ENERGY>  (1) 
46.894

>  <PUBCHEM_FEATURE_SELFOVERLAP>  (1) 
15.223

>  <PUBCHEM_SHAPE_FINGERPRINT>  (1) 
10219947 1 18410293609971211404
10465860 250 17675919889711916456
10922523 26 18261114015719756405
10980938 120 18410573989768353838
11132069 177 18342731910479158142
11471102 22 18335148587182281336
11578080 2 17270841054059407185
12119455 92 18336537257726113322
12236239 1 17704069594848219303
12251169 10 18408889559260638835
124424 183 17676482852154483729
13140716 1 18266745868421073184
13296908 3 18334580088184010383
13581323 91 15574718010149886667
13862211 1 18409722951042565390
14251717 144 18411132554275394399
14252887 29 18411707552055186050
14993402 34 18412263969342043342
15207287 21 17967249801626473067
15219456 202 18262236616848895077
15309172 13 18411420617821575222
15775835 57 17917716807168862897
15848702 151 17488472871281862262
16945 1 18410864256252839124
18186145 218 18202286909095871068
19049666 15 17896884240451760437
200 152 18201428199684722543
20201158 50 18187646873075116867
20279233 1 18113621162293601767
20645477 70 18267576914823971087
20671657 1 18120940769881881988
21501502 16 18046354290330331567
23184049 59 18411139147340168464
23402539 116 18260539017913402244
23419403 2 14210319716317247545
23557571 272 14117801327751874345
23559900 14 17313383371394506146
2748010 2 18050840032190301014
3286 77 18187642578371591245
34934 24 18265042553427558205
57812782 119 18113335336346039851
77492 1 17775846817642152669
81228 2 17827371976930041252

>  <PUBCHEM_SHAPE_MULTIPOLES>  (1) 
317.53
7.22
2
1.01
0.1
0.01
0.25
-0.01
1.17
-0.43
-0.53
0.79
-0.01
-0.01

>  <PUBCHEM_SHAPE_SELFOVERLAP>  (1) 
653.959

>  <PUBCHEM_SHAPE_VOLUME>  (1) 
185.4

>  <PUBCHEM_COORDINATE_TYPE>  (1) 
2
5
10

$$$$
