41165
     RDKit          3D

 17 19  0  0  0  0  0  0  0  0999 V2000
    3.8713    1.7513   -0.0001 O   0  0  0  0  0  0  0  0  0  0  0  0
    1.8043    2.4906   -0.0003 O   0  0  0  0  0  0  0  0  0  0  0  0
    2.6351    1.5542    0.0000 N   0  0  0  0  0  0  0  0  0  0  0  0
    0.7832   -0.0920    0.0002 C   0  0  0  0  0  0  0  0  0  0  0  0
    0.3752   -1.4440    0.0001 C   0  0  0  0  0  0  0  0  0  0  0  0
   -1.5624    0.6160    0.0001 C   0  0  0  0  0  0  0  0  0  0  0  0
   -1.9704   -0.7359    0.0000 C   0  0  0  0  0  0  0  0  0  0  0  0
   -0.1909    0.9203    0.0001 C   0  0  0  0  0  0  0  0  0  0  0  0
   -0.9964   -1.7483   -0.0001 C   0  0  0  0  0  0  0  0  0  0  0  0
    2.1548    0.2114    0.0003 C   0  0  0  0  0  0  0  0  0  0  0  0
    1.3498   -2.4557   -0.0002 C   0  0  0  0  0  0  0  0  0  0  0  0
   -2.5370    1.6276   -0.0001 C   0  0  0  0  0  0  0  0  0  0  0  0
   -3.3421   -1.0395   -0.0001 C   0  0  0  0  0  0  0  0  0  0  0  0
    3.1101   -0.8054    0.0002 C   0  0  0  0  0  0  0  0  0  0  0  0
    2.7081   -2.1372   -0.0001 C   0  0  0  0  0  0  0  0  0  0  0  0
   -3.8953    1.3092    0.0000 C   0  0  0  0  0  0  0  0  0  0  0  0
   -4.2973   -0.0226    0.0000 C   0  0  0  0  0  0  0  0  0  0  0  0
  1  3  1  0
  2  3  2  0
  3 10  1  0
  4  5  1  0
  4  8  2  0
  4 10  1  0
  5  9  2  0
  5 11  1  0
  6  7  2  0
  6  8  1  0
  6 12  1  0
  7  9  1  0
  7 13  1  0
 10 14  2  0
 11 15  2  0
 12 16  2  0
 13 17  2  0
 14 15  1  0
 16 17  1  0
M  CHG  2   1  -1   3   1
M  END
>  <PUBCHEM_COMPOUND_CID>  (1) 
41165

>  <PUBCHEM_CONFORMER_RMSD>  (1) 
0.6

>  <PUBCHEM_CONFORMER_DIVERSEORDER>  (1) 
1

>  <PUBCHEM_MMFF94_PARTIAL_CHARGES>  (1) 
22
1 -0.52
10 0.13
11 -0.15
12 -0.15
13 -0.15
14 -0.15
15 -0.15
16 -0.15
17 -0.15
18 0.15
19 0.15
2 -0.52
20 0.15
21 0.15
22 0.15
23 0.15
24 0.15
25 0.15
26 0.15
3 0.91
8 -0.15
9 -0.15

>  <PUBCHEM_EFFECTIVE_ROTOR_COUNT>  (1) 
1

>  <PUBCHEM_PHARMACOPHORE_FEATURES>  (1) 
6
1 1 acceptor
1 1 anion
1 2 acceptor
6 4 5 10 11 14 15 rings
6 4 5 6 7 8 9 rings
6 6 7 12 13 16 17 rings

>  <PUBCHEM_HEAVY_ATOM_COUNT>  (1) 
17

>  <PUBCHEM_ATOM_DEF_STEREO_COUNT>  (1) 
0

>  <PUBCHEM_ATOM_UDEF_STEREO_COUNT>  (1) 
0

>  <PUBCHEM_BOND_DEF_STEREO_COUNT>  (1) 
0

>  <PUBCHEM_BOND_UDEF_STEREO_COUNT>  (1) 
0

>  <PUBCHEM_ISOTOPIC_ATOM_COUNT>  (1) 
0

>  <PUBCHEM_COMPONENT_COUNT>  (1) 
1

>  <PUBCHEM_CACTVS_TAUTO_COUNT>  (1) 
1

>  <PUBCHEM_CONFORMER_ID>  (1) 
0000A0CD00000001

>  <PUBCHEM_MMFF94_ENERGY>  (1) 
72.5602

>  <PUBCHEM_FEATURE_SELFOVERLAP>  (1) 
30.579

>  <PUBCHEM_SHAPE_FINGERPRINT>  (1) 
10411042 1 17690280404782164643
10608611 8 18336544932769302837
10616163 171 18267586982158721279
10967382 1 18410575106143242116
10980938 120 18410575084810785072
11471102 20 18410570656668010335
12403259 226 18262796246803250053
13140716 1 18337674109419603587
13380535 76 18336263547691558322
138480 1 18266458694497728454
13897977 150 18410008849355101317
14144814 61 18338798918647436811
14325111 11 18410573981136195105
14790565 3 14307807472766419630
15196674 1 18410573977078474727
15219456 202 18408324380387892043
15375462 6 18409167714327811101
15442244 35 18195809565811184603
15536298 74 18342457028039824526
16945 1 18410855481671901347
17492 89 18411980256698953743
18186145 218 18271250425995072413
19591789 44 17473550629918345603
200 152 18058999602453489383
20510252 161 17766003074595940352
20559304 39 18411136896745669898
20645477 70 18341891857889186791
21267235 1 18339651044522930903
21501502 16 18412260627725728487
21524375 3 18336262461323197762
221490 88 18409176488751272731
2255824 54 18335141964554006094
22854114 111 18409450275693753751
2334 1 18410855477313318723
23366157 5 18041000614039109114
23463225 33 18337953381167904695
23559900 14 18269549447247703242
25 1 18409166627711511238
2748010 2 18409733962573522599
335352 9 18122343476130086231
350125 39 18338240349513470361
474 4 18041282165824038876
5104073 3 18409731734018103851
58051976 378 18341047522746991125
6333272 397 18409166653354733993
7364860 26 18412826859018339710
7832392 63 18051975818494745243
84936 182 18201998862962188000
9709674 26 18410859854207441847
9981440 41 18048591814063096304

>  <PUBCHEM_SHAPE_MULTIPOLES>  (1) 
333.13
6.85
2.56
0.6
2.91
0.21
0
1.39
0
-1.79
0
0.04
-0.04
0

>  <PUBCHEM_SHAPE_SELFOVERLAP>  (1) 
755.262

>  <PUBCHEM_SHAPE_VOLUME>  (1) 
174.9

>  <PUBCHEM_COORDINATE_TYPE>  (1) 
2
5
10

$$$$
