41162
     RDKit          3D

 15 17  0  0  1  0  0  0  0  0999 V2000
    2.1700   -0.0979    1.2260 N   0  0  0  0  0  0  0  0  0  0  0  0
   -1.5208   -2.0157    0.0199 N   0  0  0  0  0  0  0  0  0  0  0  0
    1.4120    0.2247    0.0055 C   0  0  0  0  0  0  0  0  0  0  0  0
    2.2076   -0.1541   -1.2577 C   0  0  0  0  0  0  0  0  0  0  0  0
    3.5859    0.5013   -1.2614 C   0  0  0  0  0  0  0  0  0  0  0  0
    4.3216    0.2015    0.0394 C   0  0  0  0  0  0  0  0  0  0  0  0
    0.0517   -0.4526    0.0076 C   0  0  0  0  0  0  0  0  0  0  0  0
    3.4714    0.5717    1.2517 C   0  0  0  0  0  0  0  0  0  0  0  0
   -1.2141    0.1940   -0.0020 C   0  0  0  0  0  0  0  0  0  0  0  0
   -0.1674   -1.8093    0.0211 C   0  0  0  0  0  0  0  0  0  0  0  0
   -2.1850   -0.8099    0.0057 C   0  0  0  0  0  0  0  0  0  0  0  0
   -1.6306    1.5401   -0.0165 C   0  0  0  0  0  0  0  0  0  0  0  0
   -3.5568   -0.5338   -0.0007 C   0  0  0  0  0  0  0  0  0  0  0  0
   -2.9995    1.8312   -0.0230 C   0  0  0  0  0  0  0  0  0  0  0  0
   -3.9460    0.8087   -0.0155 C   0  0  0  0  0  0  0  0  0  0  0  0
  1  3  1  0
  1  8  1  0
  2 10  1  0
  2 11  1  0
  3  4  1  0
  3  7  1  0
  4  5  1  0
  5  6  1  0
  6  8  1  0
  7  9  1  0
  7 10  2  0
  9 11  2  0
  9 12  1  0
 11 13  1  0
 12 14  2  0
 13 15  2  0
 14 15  1  0
M  END
>  <PUBCHEM_COMPOUND_CID>  (1) 
41162

>  <PUBCHEM_CONFORMER_RMSD>  (1) 
0.6

>  <PUBCHEM_CONFORMER_DIVERSEORDER>  (1) 
1
14
6
2
9
12
13
10
3
8
7
4
11
5

>  <PUBCHEM_MMFF94_PARTIAL_CHARGES>  (1) 
18
1 -0.9
10 -0.3
11 -0.15
12 -0.15
13 -0.15
14 -0.15
15 -0.15
2 0.03
25 0.36
26 0.15
27 0.27
28 0.15
29 0.15
3 0.45
30 0.15
31 0.15
7 -0.18
8 0.27

>  <PUBCHEM_EFFECTIVE_ROTOR_COUNT>  (1) 
2.2

>  <PUBCHEM_PHARMACOPHORE_FEATURES>  (1) 
7
1 1 cation
1 1 donor
1 2 cation
1 2 donor
5 2 7 9 10 11 rings
6 1 3 4 5 6 8 rings
6 9 11 12 13 14 15 rings

>  <PUBCHEM_HEAVY_ATOM_COUNT>  (1) 
15

>  <PUBCHEM_ATOM_DEF_STEREO_COUNT>  (1) 
0

>  <PUBCHEM_ATOM_UDEF_STEREO_COUNT>  (1) 
1

>  <PUBCHEM_BOND_DEF_STEREO_COUNT>  (1) 
0

>  <PUBCHEM_BOND_UDEF_STEREO_COUNT>  (1) 
0

>  <PUBCHEM_ISOTOPIC_ATOM_COUNT>  (1) 
0

>  <PUBCHEM_COMPONENT_COUNT>  (1) 
1

>  <PUBCHEM_CACTVS_TAUTO_COUNT>  (1) 
1

>  <PUBCHEM_CONFORMER_ID>  (1) 
0000A0CA00000001

>  <PUBCHEM_MMFF94_ENERGY>  (1) 
15.4997

>  <PUBCHEM_FEATURE_SELFOVERLAP>  (1) 
35.614

>  <PUBCHEM_SHAPE_FINGERPRINT>  (1) 
10498660 4 18338796715292868853
10608611 8 18201997767850749320
10646746 165 18341611508156886640
11132069 177 18410012122220622077
11615757 297 16443066114426749780
12236239 1 17676205788552200212
124424 183 17846499219156975642
12500047 106 18342454859471938166
13538477 17 17968095382039769074
13581323 91 18334289885728161786
13764800 53 18409457972544219329
14144814 61 18187082853796275020
14614273 12 18188766142096040117
14897335 6 18409165472217881903
14943859 89 18411140229439799002
15219456 202 17703790331806039668
15342168 16 15359126947413365862
15375358 24 17846775230703170856
15375462 478 16660645124509674173
15669948 3 18335983176489904630
15775835 57 18186522085670539288
16945 1 18410293635936369359
17846911 113 18411978053232147825
18186145 218 17703795794740683280
19422 9 17748827436250041426
200 152 15357693119667915179
20233049 118 18411135827541763704
20279233 1 17775569753881821478
20510252 161 18343867705953864289
20645476 183 17967539007623411471
20645477 56 18413109485062155424
20645477 70 16558759992482583598
21524375 3 18336264548535015195
21639500 275 15482097388731207448
23048698 100 16950281819088401052
23366157 5 17825954723574442347
23402539 116 18342166778344695260
23557571 272 18059575861745910118
23559900 14 18272657827323513614
2748010 2 18193565467443709807
3268164 11 18343009009026645541
4028521 119 18202561740032864525
43471831 8 18334290933895997699
474 4 16879642711463289004
4990 188 17632859702547334117
69090 78 17703784842753641167
7364860 26 18054506907010267567
77492 1 17603864533251495414
81228 2 17839735199300507479

>  <PUBCHEM_SHAPE_MULTIPOLES>  (1) 
298.73
7.63
1.61
1.01
2.74
0.26
0.02
-2.27
0.05
-1.46
-0.01
1.18
-0.1
0.08

>  <PUBCHEM_SHAPE_SELFOVERLAP>  (1) 
646.96

>  <PUBCHEM_SHAPE_VOLUME>  (1) 
163.8

>  <PUBCHEM_COORDINATE_TYPE>  (1) 
2
5
10

$$$$
