41160
     RDKit          3D

 11 12  0  0  0  0  0  0  0  0999 V2000
    2.3681    0.7400   -0.4738 O   0  0  0  0  0  0  0  0  0  0  0  0
    1.3187   -0.1418   -0.2565 N   0  0  0  0  0  0  0  0  0  0  0  0
   -0.0071    0.2127   -0.1461 C   0  0  0  0  0  0  0  0  0  0  0  0
   -0.7307   -0.9630    0.0646 C   0  0  0  0  0  0  0  0  0  0  0  0
    0.2066   -2.0336    0.0773 C   0  0  0  0  0  0  0  0  0  0  0  0
    1.4577   -1.4972   -0.1229 C   0  0  0  0  0  0  0  0  0  0  0  0
   -0.6149    1.4712   -0.2162 C   0  0  0  0  0  0  0  0  0  0  0  0
   -2.1296   -0.8811    0.2128 C   0  0  0  0  0  0  0  0  0  0  0  0
   -2.0034    1.5278   -0.0660 C   0  0  0  0  0  0  0  0  0  0  0  0
   -2.7511    0.3710    0.1449 C   0  0  0  0  0  0  0  0  0  0  0  0
    2.8856    1.1937    0.7818 C   0  0  0  0  0  0  0  0  0  0  0  0
  1  2  1  0
  1 11  1  0
  2  3  1  0
  2  6  1  0
  3  4  2  0
  3  7  1  0
  4  5  1  0
  4  8  1  0
  5  6  2  0
  7  9  2  0
  8 10  2  0
  9 10  1  0
M  END
>  <PUBCHEM_COMPOUND_CID>  (1) 
41160

>  <PUBCHEM_CONFORMER_RMSD>  (1) 
0.4

>  <PUBCHEM_CONFORMER_DIVERSEORDER>  (1) 
1
3
2

>  <PUBCHEM_MMFF94_PARTIAL_CHARGES>  (1) 
16
1 -0.42
10 -0.15
11 0.28
12 0.15
13 0.15
14 0.15
15 0.15
16 0.15
17 0.15
2 0.44
3 -0.15
5 -0.15
6 -0.3
7 -0.15
8 -0.15
9 -0.15

>  <PUBCHEM_EFFECTIVE_ROTOR_COUNT>  (1) 
1

>  <PUBCHEM_PHARMACOPHORE_FEATURES>  (1) 
2
5 2 3 4 5 6 rings
6 3 4 7 8 9 10 rings

>  <PUBCHEM_HEAVY_ATOM_COUNT>  (1) 
11

>  <PUBCHEM_ATOM_DEF_STEREO_COUNT>  (1) 
0

>  <PUBCHEM_ATOM_UDEF_STEREO_COUNT>  (1) 
0

>  <PUBCHEM_BOND_DEF_STEREO_COUNT>  (1) 
0

>  <PUBCHEM_BOND_UDEF_STEREO_COUNT>  (1) 
0

>  <PUBCHEM_ISOTOPIC_ATOM_COUNT>  (1) 
0

>  <PUBCHEM_COMPONENT_COUNT>  (1) 
1

>  <PUBCHEM_CACTVS_TAUTO_COUNT>  (1) 
1

>  <PUBCHEM_CONFORMER_ID>  (1) 
0000A0C800000001

>  <PUBCHEM_MMFF94_ENERGY>  (1) 
18.6353

>  <PUBCHEM_FEATURE_SELFOVERLAP>  (1) 
10.24

>  <PUBCHEM_SHAPE_FINGERPRINT>  (1) 
10857977 72 18261678176648051401
12423570 1 17894634759757034421
12524768 44 18265339408676881063
12897270 3 18410578349033428877
13380535 76 18409442579154817203
14325111 11 18410856564087919572
16945 1 18336834211479946807
19973954 147 18194686968845046689
20871998 184 17982739867572951326
21040471 1 18409173228965618318
23552423 10 18189060793694843423
2748010 2 18336553724461888831
369184 2 18411133645223279273
5084963 1 18340211769361052322
53812653 166 18343300396471493897
7364860 26 18198903600327818358

>  <PUBCHEM_SHAPE_MULTIPOLES>  (1) 
215.52
3.73
1.99
0.69
0.63
0.36
-0.04
-1.44
-0.47
0.23
-0.05
0.15
-0.07
0.29

>  <PUBCHEM_SHAPE_SELFOVERLAP>  (1) 
465.899

>  <PUBCHEM_SHAPE_VOLUME>  (1) 
120.8

>  <PUBCHEM_COORDINATE_TYPE>  (1) 
2
5
10

$$$$
