41167
     RDKit          3D

 10  9  0  0  0  0  0  0  0  0999 V2000
   -1.0267    2.5641   -0.5093 O   0  0  0  0  0  0  0  0  0  0  0  0
   -0.6164    0.5756    0.0618 N   0  0  0  0  0  0  0  0  0  0  0  0
   -0.5217    1.8562    0.3705 N   0  0  0  0  0  0  0  0  0  0  0  0
    0.5230   -0.2335    0.4801 C   0  0  0  0  0  0  0  0  0  0  0  0
    1.6594   -0.1127   -0.5345 C   0  0  0  0  0  0  0  0  0  0  0  0
   -1.8615   -0.0122    0.5760 C   0  0  0  0  0  0  0  0  0  0  0  0
    2.8502   -0.9224   -0.1120 C   0  0  0  0  0  0  0  0  0  0  0  0
   -2.4370   -1.0099   -0.3814 C   0  0  0  0  0  0  0  0  0  0  0  0
    4.0569   -0.4032    0.1398 C   0  0  0  0  0  0  0  0  0  0  0  0
   -2.6262   -2.3020   -0.0910 C   0  0  0  0  0  0  0  0  0  0  0  0
  1  3  2  0
  2  3  1  0
  2  4  1  0
  2  6  1  0
  4  5  1  0
  5  7  1  0
  6  8  1  0
  7  9  2  0
  8 10  2  0
M  END
>  <PUBCHEM_COMPOUND_CID>  (1) 
41167

>  <PUBCHEM_CONFORMER_RMSD>  (1) 
0.6

>  <PUBCHEM_CONFORMER_DIVERSEORDER>  (1) 
1
51
15
5
145
72
67
188
2
134
224
111
219
241
50
102
10
79
151
239
116
69
228
77
242
152
173
75
44
60
37
71
11
122
95
250
172
123
144
110
22
20
36
93
194
45
163
3
81
247
34
268
257
91
240
223
130
238
94
259
42
209
61
203
57
13
74
62
115
212
184
213
53
140
129
218
147
154
243
244
193
256
54
138
197
21
6
211
46
260
180
141
233
266
40
186
24
29
27
165
253
258
232
113
157
117
63
96
160
192
84
166
262
234
90
119
128
39
191
175
89
248
176
181
215
183
252
65
199
264
12
235
106
70
202
185
8
198
78
43
112
161
159
58
19
170
251
98
101
4
83
162
82
125
205
26
237
52
167
136
124
7
33
17
131
221
133
59
105
49
178
87
114
109
267
195
217
41
265
31
25
190
245
120
28
225
168
35
254
261
231
227
200
14
64
30
226
32
99
220
23
126
48
16
187
92
148
132
222
38
201
179
137
155
118
177
208
196
47
204
127
55
143
246
66
100
108
236
158
103
80
76
207
249
18
97
153
263
216
135
229
56
142
171
107
214
104
149
121
86
139
73
230
210
150
156
146
189
174
85
255
206
182
9
88
164
68
169

>  <PUBCHEM_MMFF94_PARTIAL_CHARGES>  (1) 
16
1 -0.16
10 -0.3
17 0.15
18 0.15
19 0.15
2 -0.36
20 0.15
21 0.15
22 0.15
3 -0.01
4 0.27
5 0.14
6 0.41
7 -0.29
8 -0.29
9 -0.3

>  <PUBCHEM_EFFECTIVE_ROTOR_COUNT>  (1) 
6

>  <PUBCHEM_PHARMACOPHORE_FEATURES>  (1) 
2
1 10 hydrophobe
1 9 hydrophobe

>  <PUBCHEM_HEAVY_ATOM_COUNT>  (1) 
10

>  <PUBCHEM_ATOM_DEF_STEREO_COUNT>  (1) 
0

>  <PUBCHEM_ATOM_UDEF_STEREO_COUNT>  (1) 
0

>  <PUBCHEM_BOND_DEF_STEREO_COUNT>  (1) 
0

>  <PUBCHEM_BOND_UDEF_STEREO_COUNT>  (1) 
0

>  <PUBCHEM_ISOTOPIC_ATOM_COUNT>  (1) 
0

>  <PUBCHEM_COMPONENT_COUNT>  (1) 
1

>  <PUBCHEM_CACTVS_TAUTO_COUNT>  (1) 
1

>  <PUBCHEM_CONFORMER_ID>  (1) 
0000A0CF00000001

>  <PUBCHEM_MMFF94_ENERGY>  (1) 
15.2486

>  <PUBCHEM_FEATURE_SELFOVERLAP>  (1) 
10.149

>  <PUBCHEM_SHAPE_FINGERPRINT>  (1) 
1 1 17040355714306472645
12716758 59 18053101727086526482
12932764 1 18266752285703729874
18342897 69 18408599232588563290
20645477 70 17616799373205314007
20711985 344 18339063909639840369
20871998 184 18202848733794546615
21061003 4 16917068862911321898
22213442 358 18268427017420994214
23380061 127 18336259051509548370
23557571 272 18130514037589410580
81228 2 18339372863632804945

>  <PUBCHEM_SHAPE_MULTIPOLES>  (1) 
189.96
5.48
2.19
0.73
4.7
1.08
0.01
-3.38
-0.09
-1.89
-0.27
-0.04
0.02
-0.06

>  <PUBCHEM_SHAPE_SELFOVERLAP>  (1) 
348.971

>  <PUBCHEM_SHAPE_VOLUME>  (1) 
120.9

>  <PUBCHEM_COORDINATE_TYPE>  (1) 
2
5
10

$$$$
