41172
     RDKit          3D

 14 15  0  0  0  0  0  0  0  0999 V2000
    0.7721   -0.2293   -0.2913 C   0  0  0  0  0  0  0  0  0  0  0  0
    1.9093    0.6975   -0.6045 C   0  0  0  0  0  0  0  0  0  0  0  0
   -0.5412    0.2519   -0.1642 C   0  0  0  0  0  0  0  0  0  0  0  0
    1.0520   -1.5862   -0.1275 C   0  0  0  0  0  0  0  0  0  0  0  0
    2.5525    1.2597    0.6684 C   0  0  0  0  0  0  0  0  0  0  0  0
   -1.5852   -0.6561    0.1332 C   0  0  0  0  0  0  0  0  0  0  0  0
    0.0252   -2.4791    0.1649 C   0  0  0  0  0  0  0  0  0  0  0  0
   -1.2853   -2.0185    0.2947 C   0  0  0  0  0  0  0  0  0  0  0  0
   -0.8411    1.6144   -0.3257 C   0  0  0  0  0  0  0  0  0  0  0  0
    2.4449   -2.1107   -0.2588 C   0  0  0  0  0  0  0  0  0  0  0  0
   -2.8984   -0.1747    0.2603 C   0  0  0  0  0  0  0  0  0  0  0  0
    3.7250    2.1736    0.3498 C   0  0  0  0  0  0  0  0  0  0  0  0
   -2.1515    2.0751   -0.1959 C   0  0  0  0  0  0  0  0  0  0  0  0
   -3.1782    1.1822    0.0966 C   0  0  0  0  0  0  0  0  0  0  0  0
  1  2  1  0
  1  3  2  0
  1  4  1  0
  2  5  1  0
  3  6  1  0
  3  9  1  0
  4  7  2  0
  4 10  1  0
  5 12  1  0
  6  8  2  0
  6 11  1  0
  7  8  1  0
  9 13  2  0
 11 14  2  0
 13 14  1  0
M  END
>  <PUBCHEM_COMPOUND_CID>  (1) 
41172

>  <PUBCHEM_CONFORMER_RMSD>  (1) 
0.6

>  <PUBCHEM_CONFORMER_DIVERSEORDER>  (1) 
2
1

>  <PUBCHEM_MMFF94_PARTIAL_CHARGES>  (1) 
16
1 -0.14
10 0.14
11 -0.15
13 -0.15
14 -0.15
19 0.15
2 0.14
20 0.15
21 0.15
25 0.15
29 0.15
30 0.15
4 -0.14
7 -0.15
8 -0.15
9 -0.15

>  <PUBCHEM_EFFECTIVE_ROTOR_COUNT>  (1) 
2

>  <PUBCHEM_PHARMACOPHORE_FEATURES>  (1) 
3
1 12 hydrophobe
6 1 3 4 6 7 8 rings
6 3 6 9 11 13 14 rings

>  <PUBCHEM_HEAVY_ATOM_COUNT>  (1) 
14

>  <PUBCHEM_ATOM_DEF_STEREO_COUNT>  (1) 
0

>  <PUBCHEM_ATOM_UDEF_STEREO_COUNT>  (1) 
0

>  <PUBCHEM_BOND_DEF_STEREO_COUNT>  (1) 
0

>  <PUBCHEM_BOND_UDEF_STEREO_COUNT>  (1) 
0

>  <PUBCHEM_ISOTOPIC_ATOM_COUNT>  (1) 
0

>  <PUBCHEM_COMPONENT_COUNT>  (1) 
1

>  <PUBCHEM_CACTVS_TAUTO_COUNT>  (1) 
1

>  <PUBCHEM_CONFORMER_ID>  (1) 
0000A0D400000002

>  <PUBCHEM_MMFF94_ENERGY>  (1) 
39.9975

>  <PUBCHEM_FEATURE_SELFOVERLAP>  (1) 
15.249

>  <PUBCHEM_SHAPE_FINGERPRINT>  (1) 
10608611 8 18337671906085887445
108231 29 17905892470398809002
10967382 1 18410013247190739269
11680986 33 18335990800025212986
12382932 28 18336829809032954081
13140716 1 18336552607923359875
13380535 21 18411430513484046070
13380535 76 18410849992761485478
13897977 150 18337953381400013309
14250199 8 18198054781767163301
14420673 8 18336814313993996930
14614273 12 18262226828544763085
14648413 74 18194120715956292896
15219456 202 18410857633413385576
16945 1 18192441972307031207
193761 8 18410294713493424615
20510252 161 18054233403719309128
20511035 2 18262814989777117039
20871998 184 18122348144506432955
21501502 16 18413382137891229422
21524375 3 18343013432642337344
2334 1 18408890628802272245
23402539 116 17910665789513968471
23419403 2 13992198419120896423
23559900 14 18125171442388016262
2748010 2 18335432244145011015
305870 269 18408880728971350152
3071541 12 18268433438644820222
43471831 8 18263357152595149938
53812653 166 18121499042451997626
5706482 22 18267849748304934720
7097593 13 18043784637910815784
7364860 26 18269837519272724246
81228 2 18049448346036543147

>  <PUBCHEM_SHAPE_MULTIPOLES>  (1) 
288.11
4.9
2.96
0.72
1.3
0.7
-0.01
-3.05
-0.57
1.03
-0.12
0.14
-0.06
0.56

>  <PUBCHEM_SHAPE_SELFOVERLAP>  (1) 
616.299

>  <PUBCHEM_SHAPE_VOLUME>  (1) 
153

>  <PUBCHEM_COORDINATE_TYPE>  (1) 
2
5
10

$$$$
