41175
     RDKit          3D

 18 20  0  0  0  0  0  0  0  0999 V2000
   -0.7930    1.1881    0.0652 O   0  0  0  0  0  0  0  0  0  0  0  0
   -0.4214   -1.0229   -0.2671 N   0  0  0  0  0  0  0  0  0  0  0  0
    6.5855   -1.0908    0.6144 N   0  0  0  0  0  0  0  0  0  0  0  0
    3.1283    0.1419   -0.3688 C   0  0  0  0  0  0  0  0  0  0  0  0
    4.5424   -0.3089   -0.5352 C   0  0  0  0  0  0  0  0  0  0  0  0
    0.7775   -0.3519   -0.2633 C   0  0  0  0  0  0  0  0  0  0  0  0
    0.5540    1.0019   -0.0604 C   0  0  0  0  0  0  0  0  0  0  0  0
    2.0950   -0.8048   -0.4229 C   0  0  0  0  0  0  0  0  0  0  0  0
    2.8586    1.5004   -0.1618 C   0  0  0  0  0  0  0  0  0  0  0  0
    1.5501    1.9687   -0.0008 C   0  0  0  0  0  0  0  0  0  0  0  0
    5.1986   -0.6779    0.8006 C   0  0  0  0  0  0  0  0  0  0  0  0
   -1.3036   -0.0678   -0.0704 C   0  0  0  0  0  0  0  0  0  0  0  0
   -2.7346   -0.1576    0.0214 C   0  0  0  0  0  0  0  0  0  0  0  0
   -3.5000    0.9924    0.2352 C   0  0  0  0  0  0  0  0  0  0  0  0
   -3.3701   -1.3964   -0.1017 C   0  0  0  0  0  0  0  0  0  0  0  0
   -4.8892    0.9042    0.3254 C   0  0  0  0  0  0  0  0  0  0  0  0
   -4.7593   -1.4846   -0.0117 C   0  0  0  0  0  0  0  0  0  0  0  0
   -5.5188   -0.3342    0.2018 C   0  0  0  0  0  0  0  0  0  0  0  0
  1  7  1  0
  1 12  1  0
  2  6  1  0
  2 12  2  0
  3 11  1  0
  4  5  1  0
  4  8  2  0
  4  9  1  0
  5 11  1  0
  6  7  2  0
  6  8  1  0
  7 10  1  0
  9 10  2  0
 12 13  1  0
 13 14  2  0
 13 15  1  0
 14 16  1  0
 15 17  2  0
 16 18  2  0
 17 18  1  0
M  END
>  <PUBCHEM_COMPOUND_CID>  (1) 
41175

>  <PUBCHEM_CONFORMER_RMSD>  (1) 
0.6

>  <PUBCHEM_CONFORMER_DIVERSEORDER>  (1) 
1
6
3
5
2
4

>  <PUBCHEM_MMFF94_PARTIAL_CHARGES>  (1) 
28
1 -0.28
10 -0.15
11 0.27
12 0.43
13 0.05
14 -0.15
15 -0.15
16 -0.15
17 -0.15
18 -0.15
2 -0.57
21 0.15
22 0.15
23 0.15
26 0.15
27 0.15
28 0.36
29 0.36
3 -0.99
30 0.15
31 0.15
32 0.15
4 -0.14
5 0.14
6 0.23
7 0.14
8 -0.15
9 -0.15

>  <PUBCHEM_EFFECTIVE_ROTOR_COUNT>  (1) 
3

>  <PUBCHEM_PHARMACOPHORE_FEATURES>  (1) 
5
1 3 cation
1 3 donor
5 1 2 6 7 12 rings
6 13 14 15 16 17 18 rings
6 4 6 7 8 9 10 rings

>  <PUBCHEM_HEAVY_ATOM_COUNT>  (1) 
18

>  <PUBCHEM_ATOM_DEF_STEREO_COUNT>  (1) 
0

>  <PUBCHEM_ATOM_UDEF_STEREO_COUNT>  (1) 
0

>  <PUBCHEM_BOND_DEF_STEREO_COUNT>  (1) 
0

>  <PUBCHEM_BOND_UDEF_STEREO_COUNT>  (1) 
0

>  <PUBCHEM_ISOTOPIC_ATOM_COUNT>  (1) 
0

>  <PUBCHEM_COMPONENT_COUNT>  (1) 
1

>  <PUBCHEM_CACTVS_TAUTO_COUNT>  (1) 
1

>  <PUBCHEM_CONFORMER_ID>  (1) 
0000A0D700000001

>  <PUBCHEM_MMFF94_ENERGY>  (1) 
33.2271

>  <PUBCHEM_FEATURE_SELFOVERLAP>  (1) 
25.489

>  <PUBCHEM_SHAPE_FINGERPRINT>  (1) 
10014705 185 10735892646964836635
106641 1 18201148941233033114
11315181 36 18413390942927497417
11401426 45 18202282493811468423
11405975 8 18411422851431227897
11796584 16 17240202127511582122
12107183 9 17762058740092992761
12236239 1 18187085053004036518
12507557 5 18273497875239125561
12670543 26 11025790969286262008
13167823 11 18410293653010834471
13288520 33 18407760330880638479
13675066 3 17775284975605761757
13690532 89 18408886247967343740
13760787 5 17676211290141543108
13862211 1 18410572894288131110
14251764 18 18411140263704643833
14252887 29 17560530529675461374
15048467 5 11024107650874669106
15196674 1 18340208582648533381
15788980 27 17967534575375086269
17492 89 18047193239541612899
17862501 102 18412826893071999600
1813 80 17749678398389365270
18186145 218 17967807293061212501
19784866 140 14490466461575226588
200 152 18060422430360361041
20374829 77 18407760334917123413
20645477 70 18341900700889135206
21033648 29 16558172818285962947
21267235 1 18411429427168777431
21637258 2 17023172809192316426
21709351 56 18408880750578140429
221490 88 18193848256416571347
22224240 67 17275092939260906718
23402539 116 18412539907736618397
23522609 53 18044406913678472948
23536379 177 16660362558901192996
23559900 14 18336543936078609369
26918003 58 18272652350649406249
300161 21 10735882746600735691
3004659 81 18333740109235938270
335352 9 18410856551482566997
3411729 13 18127685140606700544
3545911 37 18413111654458314389
4072396 5 18342452613261973614
42 15 18410577305472491861
4214541 1 18411984659266408381
4340502 62 14836125459727560348
4463277 17 18410576193487542260
465052 167 18334581260947660334
5104073 3 18342182223310842697
542803 24 13406787831367158727
559249 180 18408600340790313331
59755656 520 17095243627614040003
67856867 119 18269835479042472048
7495541 125 18261960738082806100
77779 3 18340492257054512613
9709674 26 18192717971532982699
9971528 1 17822572810580427884
9981440 41 17257086498371627217

>  <PUBCHEM_SHAPE_MULTIPOLES>  (1) 
354.6
13.17
1.6
0.71
3.77
0.34
0.03
-4.33
2.37
-0.05
0.03
0.38
-0.06
-0.51

>  <PUBCHEM_SHAPE_SELFOVERLAP>  (1) 
780.897

>  <PUBCHEM_SHAPE_VOLUME>  (1) 
193.1

>  <PUBCHEM_COORDINATE_TYPE>  (1) 
2
5
10

$$$$
