41177
     RDKit          3D

 19 21  0  0  1  0  0  0  0  0999 V2000
   -0.9678    1.2351    0.0000 O   0  0  0  0  0  0  0  0  0  0  0  0
   -0.5532   -0.9869   -0.1660 N   0  0  0  0  0  0  0  0  0  0  0  0
    4.7388   -0.4063    2.1057 N   0  0  0  0  0  0  0  0  0  0  0  0
    4.4033   -0.2058   -0.3784 C   0  0  0  0  0  0  0  0  0  0  0  0
    2.9787    0.2305   -0.2747 C   0  0  0  0  0  0  0  0  0  0  0  0
    4.8173   -1.0978    0.8223 C   0  0  0  0  0  0  0  0  0  0  0  0
    1.9623   -0.7358   -0.2833 C   0  0  0  0  0  0  0  0  0  0  0  0
    4.6919   -0.9098   -1.7222 C   0  0  0  0  0  0  0  0  0  0  0  0
    0.6344   -0.2962   -0.1844 C   0  0  0  0  0  0  0  0  0  0  0  0
    2.6825    1.5952   -0.1708 C   0  0  0  0  0  0  0  0  0  0  0  0
    0.3845    1.0644   -0.0833 C   0  0  0  0  0  0  0  0  0  0  0  0
    1.3633    2.0505   -0.0715 C   0  0  0  0  0  0  0  0  0  0  0  0
   -1.4549   -0.0360   -0.0567 C   0  0  0  0  0  0  0  0  0  0  0  0
   -2.8860   -0.1445    0.0107 C   0  0  0  0  0  0  0  0  0  0  0  0
   -3.6737    1.0045    0.1258 C   0  0  0  0  0  0  0  0  0  0  0  0
   -3.4993   -1.3997   -0.0373 C   0  0  0  0  0  0  0  0  0  0  0  0
   -5.0630    0.8991    0.1921 C   0  0  0  0  0  0  0  0  0  0  0  0
   -4.8885   -1.5050    0.0287 C   0  0  0  0  0  0  0  0  0  0  0  0
   -5.6705   -0.3556    0.1434 C   0  0  0  0  0  0  0  0  0  0  0  0
  1 11  1  0
  1 13  1  0
  2  9  1  0
  2 13  2  0
  3  6  1  0
  4  5  1  0
  4  6  1  0
  4  8  1  0
  5  7  2  0
  5 10  1  0
  7  9  1  0
  9 11  2  0
 10 12  2  0
 11 12  1  0
 13 14  1  0
 14 15  2  0
 14 16  1  0
 15 17  1  0
 16 18  2  0
 17 19  2  0
 18 19  1  0
M  END
>  <PUBCHEM_COMPOUND_CID>  (1) 
41177

>  <PUBCHEM_CONFORMER_RMSD>  (1) 
0.6

>  <PUBCHEM_CONFORMER_DIVERSEORDER>  (1) 
2
5
7
6
4
3
1

>  <PUBCHEM_MMFF94_PARTIAL_CHARGES>  (1) 
28
1 -0.28
10 -0.15
11 0.14
12 -0.15
13 0.43
14 0.05
15 -0.15
16 -0.15
17 -0.15
18 -0.15
19 -0.15
2 -0.57
23 0.15
27 0.15
28 0.15
29 0.36
3 -0.99
30 0.36
31 0.15
32 0.15
33 0.15
34 0.15
35 0.15
4 0.14
5 -0.14
6 0.27
7 -0.15
9 0.23

>  <PUBCHEM_EFFECTIVE_ROTOR_COUNT>  (1) 
3

>  <PUBCHEM_PHARMACOPHORE_FEATURES>  (1) 
6
1 3 cation
1 3 donor
1 8 hydrophobe
5 1 2 9 11 13 rings
6 14 15 16 17 18 19 rings
6 5 7 9 10 11 12 rings

>  <PUBCHEM_HEAVY_ATOM_COUNT>  (1) 
19

>  <PUBCHEM_ATOM_DEF_STEREO_COUNT>  (1) 
0

>  <PUBCHEM_ATOM_UDEF_STEREO_COUNT>  (1) 
1

>  <PUBCHEM_BOND_DEF_STEREO_COUNT>  (1) 
0

>  <PUBCHEM_BOND_UDEF_STEREO_COUNT>  (1) 
0

>  <PUBCHEM_ISOTOPIC_ATOM_COUNT>  (1) 
0

>  <PUBCHEM_COMPONENT_COUNT>  (1) 
1

>  <PUBCHEM_CACTVS_TAUTO_COUNT>  (1) 
1

>  <PUBCHEM_CONFORMER_ID>  (1) 
0000A0D900000002

>  <PUBCHEM_MMFF94_ENERGY>  (1) 
40.5701

>  <PUBCHEM_FEATURE_SELFOVERLAP>  (1) 
30.564

>  <PUBCHEM_SHAPE_FINGERPRINT>  (1) 
10014705 185 11023840452949531515
11405975 8 18410014372883549841
11796584 16 17240484697636426930
12107183 9 17760366591766488729
12236239 1 17821730520037499254
13167823 11 18410856607317212951
13288520 33 18412550903153589495
13533116 47 16128384735801708822
13675066 3 17703789219198565524
13760787 5 17022905644287064918
13862211 1 18409727361361990239
14252887 29 17846786182933163726
14341114 176 18338526330258845769
15196674 1 18411703226928192877
15536298 74 18342740762064045717
15788980 27 18186241736333748425
15885798 251 18408319978057352864
17349148 13 18411422816907926465
17857418 61 18186512211540823499
17862501 102 18410572890177494385
1813 80 17821732727830220044
18186145 218 18041273357183530029
18222031 100 18341900675535887164
19141452 34 17846497049660661951
19784866 140 14273730720548847684
200 152 18060703896752444333
20028762 73 18201717413924612431
20369508 70 18260826025425343940
20374829 77 18334575746114369013
20645477 70 18411986883779724300
21033648 29 16772937126094165003
21267235 1 18339654412193704103
21682296 61 17559692645506196750
221490 88 18193285306426252707
22646028 1 18259702302423251258
23402539 116 18272366473827180509
23522609 53 17898038804612518133
23536379 177 16298103159725144231
23557571 272 18130238038078980052
23559900 14 18342740753521564424
239999 70 18201726150330365846
26918003 58 18272370875878430409
29717793 49 18130790066521054149
3004659 81 18261399940445862772
335352 9 18411421692148975085
3411729 13 18196646509774243168
3545911 37 18411705370623061365
4072396 5 18338507556650924354
4214541 1 18411704279559151229
4340502 62 14549022086914856877
4463277 17 18411141346590426956
465052 167 18334018302203902866
5104073 3 18339365270436652801
5374978 207 18342453755681063560
542803 24 15140680284932361919
559249 180 18335415734565051195
633830 44 17895473743084778549
7495541 125 18040720298223319132
77779 3 18339647836424655189
8863177 126 17824841159282926091
960060 61 17458069270134054110
9709674 26 18193563491679788011
9841814 1 18334852844894367440
9971528 1 17989209235451340244
9981440 41 17256806123038426113

>  <PUBCHEM_SHAPE_MULTIPOLES>  (1) 
375.18
12.82
1.63
1.01
4.78
0.41
-0.21
-3.82
-1.14
0.13
0.05
-1.88
-0.27
-0.1

>  <PUBCHEM_SHAPE_SELFOVERLAP>  (1) 
822.697

>  <PUBCHEM_SHAPE_VOLUME>  (1) 
203.5

>  <PUBCHEM_COORDINATE_TYPE>  (1) 
2
5
10

$$$$
