41173
     RDKit          3D

 13 14  0  0  0  0  0  0  0  0999 V2000
    1.7261   -0.8188   -0.0027 O   0  0  0  0  0  0  0  0  0  0  0  0
   -3.5264    0.5519   -0.0076 O   0  0  0  0  0  0  0  0  0  0  0  0
    2.3456    1.4068    0.0019 O   0  0  0  0  0  0  0  0  0  0  0  0
    0.3565   -0.4516   -0.0006 C   0  0  0  0  0  0  0  0  0  0  0  0
   -2.1548    0.1922    0.0038 C   0  0  0  0  0  0  0  0  0  0  0  0
    0.0226    0.3871   -1.2473 C   0  0  0  0  0  0  0  0  0  0  0  0
   -0.5157   -1.7202   -0.0045 C   0  0  0  0  0  0  0  0  0  0  0  0
    0.0233    0.3743    1.2541 C   0  0  0  0  0  0  0  0  0  0  0  0
   -1.4625    0.7662   -1.2448 C   0  0  0  0  0  0  0  0  0  0  0  0
   -2.0005   -1.3395   -0.0047 C   0  0  0  0  0  0  0  0  0  0  0  0
   -1.4611    0.7566    1.2567 C   0  0  0  0  0  0  0  0  0  0  0  0
    2.6235    0.2152   -0.0012 C   0  0  0  0  0  0  0  0  0  0  0  0
    4.0234   -0.3200   -0.0030 C   0  0  0  0  0  0  0  0  0  0  0  0
  1  4  1  0
  1 12  1  0
  2  5  1  0
  3 12  2  0
  4  6  1  0
  4  7  1  0
  4  8  1  0
  5  9  1  0
  5 10  1  0
  5 11  1  0
  6  9  1  0
  7 10  1  0
  8 11  1  0
 12 13  1  0
M  END
>  <PUBCHEM_COMPOUND_CID>  (1) 
41173

>  <PUBCHEM_CONFORMER_RMSD>  (1) 
0.6

>  <PUBCHEM_CONFORMER_DIVERSEORDER>  (1) 
1

>  <PUBCHEM_MMFF94_PARTIAL_CHARGES>  (1) 
8
1 -0.43
12 0.66
13 0.06
2 -0.68
26 0.4
3 -0.57
4 0.28
5 0.28

>  <PUBCHEM_EFFECTIVE_ROTOR_COUNT>  (1) 
3.2

>  <PUBCHEM_PHARMACOPHORE_FEATURES>  (1) 
4
1 2 acceptor
1 2 donor
1 3 acceptor
8 4 5 6 7 8 9 10 11 rings

>  <PUBCHEM_HEAVY_ATOM_COUNT>  (1) 
13

>  <PUBCHEM_ATOM_DEF_STEREO_COUNT>  (1) 
0

>  <PUBCHEM_ATOM_UDEF_STEREO_COUNT>  (1) 
0

>  <PUBCHEM_BOND_DEF_STEREO_COUNT>  (1) 
0

>  <PUBCHEM_BOND_UDEF_STEREO_COUNT>  (1) 
0

>  <PUBCHEM_ISOTOPIC_ATOM_COUNT>  (1) 
0

>  <PUBCHEM_COMPONENT_COUNT>  (1) 
1

>  <PUBCHEM_CACTVS_TAUTO_COUNT>  (1) 
1

>  <PUBCHEM_CONFORMER_ID>  (1) 
0000A0D500000001

>  <PUBCHEM_MMFF94_ENERGY>  (1) 
42.3458

>  <PUBCHEM_FEATURE_SELFOVERLAP>  (1) 
20.297

>  <PUBCHEM_SHAPE_FINGERPRINT>  (1) 
11769659 78 18339356495375555974
12119455 92 18114173091060085943
12423570 1 9477443859887009079
12491281 212 18334304149277862409
12932764 1 17895184511444552138
13024252 1 14923660878617354903
14993402 34 18113329838861955615
15775835 57 18187083944881485570
16945 1 18410857633466120035
18175812 5 18041002855521141415
20653085 51 18186523228137088748
21501502 16 18265894850932451972
22344851 262 18113621196368484223
23235685 24 18272365347786060987
23402539 116 17846211138309645253
23559900 14 17989202660410122890
2748010 2 17558251392073047147
369184 2 18410012160500560394
5084963 1 18334857255376932474
528886 8 18409160000350172145
68250623 7 16880782904809866651

>  <PUBCHEM_SHAPE_MULTIPOLES>  (1) 
249.93
4.82
1.31
1.11
3.48
0.37
-0.01
-0.37
0.01
-0.23
0
-0.37
-0.3
0

>  <PUBCHEM_SHAPE_SELFOVERLAP>  (1) 
525.34

>  <PUBCHEM_SHAPE_VOLUME>  (1) 
138.8

>  <PUBCHEM_COORDINATE_TYPE>  (1) 
2
5
10

$$$$
