41182
     RDKit          3D

 11 11  0  0  0  0  0  0  0  0999 V2000
    3.1116   -0.8511   -1.4555 Cl  0  0  0  0  0  0  0  0  0  0  0  0
    3.4034    0.0987    1.2971 Cl  0  0  0  0  0  0  0  0  0  0  0  0
   -1.7082    0.0760    0.2910 C   0  0  0  0  0  0  0  0  0  0  0  0
   -3.1852   -0.0100    0.4782 C   0  0  0  0  0  0  0  0  0  0  0  0
    1.0550    0.2372   -0.0574 C   0  0  0  0  0  0  0  0  0  0  0  0
   -0.9029   -1.0242    0.5853 C   0  0  0  0  0  0  0  0  0  0  0  0
   -1.1321    1.2568   -0.1775 C   0  0  0  0  0  0  0  0  0  0  0  0
    0.4787   -0.9435    0.4112 C   0  0  0  0  0  0  0  0  0  0  0  0
    0.2496    1.3375   -0.3518 C   0  0  0  0  0  0  0  0  0  0  0  0
   -3.9020   -0.5013   -0.7768 C   0  0  0  0  0  0  0  0  0  0  0  0
    2.5322    0.3238   -0.2439 C   0  0  0  0  0  0  0  0  0  0  0  0
  1 11  1  0
  2 11  1  0
  3  4  1  0
  3  6  2  0
  3  7  1  0
  4 10  1  0
  5  8  2  0
  5  9  1  0
  5 11  1  0
  6  8  1  0
  7  9  2  0
M  END
>  <PUBCHEM_COMPOUND_CID>  (1) 
41182

>  <PUBCHEM_CONFORMER_RMSD>  (1) 
0.4

>  <PUBCHEM_CONFORMER_DIVERSEORDER>  (1) 
1
11
9
7
6
4
3
5
12
8
2
10

>  <PUBCHEM_MMFF94_PARTIAL_CHARGES>  (1) 
14
1 -0.29
11 0.72
14 0.15
15 0.15
16 0.15
17 0.15
2 -0.29
3 -0.14
4 0.14
5 -0.14
6 -0.15
7 -0.15
8 -0.15
9 -0.15

>  <PUBCHEM_EFFECTIVE_ROTOR_COUNT>  (1) 
2

>  <PUBCHEM_PHARMACOPHORE_FEATURES>  (1) 
2
1 10 hydrophobe
6 3 5 6 7 8 9 rings

>  <PUBCHEM_HEAVY_ATOM_COUNT>  (1) 
11

>  <PUBCHEM_ATOM_DEF_STEREO_COUNT>  (1) 
0

>  <PUBCHEM_ATOM_UDEF_STEREO_COUNT>  (1) 
0

>  <PUBCHEM_BOND_DEF_STEREO_COUNT>  (1) 
0

>  <PUBCHEM_BOND_UDEF_STEREO_COUNT>  (1) 
0

>  <PUBCHEM_ISOTOPIC_ATOM_COUNT>  (1) 
0

>  <PUBCHEM_COMPONENT_COUNT>  (1) 
1

>  <PUBCHEM_CACTVS_TAUTO_COUNT>  (1) 
1

>  <PUBCHEM_CONFORMER_ID>  (1) 
0000A0DE00000001

>  <PUBCHEM_MMFF94_ENERGY>  (1) 
20.6901

>  <PUBCHEM_FEATURE_SELFOVERLAP>  (1) 
10.148

>  <PUBCHEM_SHAPE_FINGERPRINT>  (1) 
10130415 120 17748821925548583296
11206711 2 18114182995392145717
11401426 45 18335406985542426913
11769659 78 17060338504943955103
12032990 46 18336277807220383843
124424 183 17168133551315695545
12932764 1 18059861610273018086
14289901 80 16630241493450485171
14911166 2 18187652418099539735
14993402 34 17603595131290710614
15310529 11 15769774637002797320
16945 1 18259992564976837729
18186145 218 17967538994864882989
19026448 4 17132115723495629313
19026448 5 16415766318740536387
20645476 183 16660943178213426722
21293036 1 18114189656638196431
22485316 2 16630521847809762839
23402539 116 18339626902173675940
23402655 69 18116412784273860261
23552423 10 17460880587900752274
2748010 2 17900272093232272609
3248919 1 18341902917028826200
3286 77 17417817197397357750
369184 2 16559033766066032168
5084963 1 18270694077490774552
57812782 119 18131067147260748403
581208 293 18202281420354578606
8030462 33 17676777487253744224

>  <PUBCHEM_SHAPE_MULTIPOLES>  (1) 
230.11
6.11
1.21
1.14
1.28
0.08
0.01
-1.15
0.39
-0.1
0.19
-0.78
-0.17
0.43

>  <PUBCHEM_SHAPE_SELFOVERLAP>  (1) 
448.994

>  <PUBCHEM_SHAPE_VOLUME>  (1) 
135.8

>  <PUBCHEM_COORDINATE_TYPE>  (1) 
2
5
10

$$$$
