41180
     RDKit          3D

 24 26  0  0  1  0  0  0  0  0999 V2000
    0.0588   -1.4115    0.1840 O   0  0  0  0  0  0  0  0  0  0  0  0
    7.1780    1.3426    0.5151 O   0  0  0  0  0  0  0  0  0  0  0  0
    5.1367    1.4677    1.4917 O   0  0  0  0  0  0  0  0  0  0  0  0
    0.4888    0.7486   -0.3511 N   0  0  0  0  0  0  0  0  0  0  0  0
   -6.1196    0.3347    0.0511 C   0  0  0  0  0  0  0  0  0  0  0  0
   -4.6345    0.2047    0.0138 C   0  0  0  0  0  0  0  0  0  0  0  0
   -6.6842   -0.0288    1.4594 C   0  0  0  0  0  0  0  0  0  0  0  0
   -6.7970   -0.6138   -0.9862 C   0  0  0  0  0  0  0  0  0  0  0  0
   -6.6769    1.7624   -0.2649 C   0  0  0  0  0  0  0  0  0  0  0  0
   -4.0357   -1.0269    0.2799 C   0  0  0  0  0  0  0  0  0  0  0  0
   -3.8440    1.3138   -0.2874 C   0  0  0  0  0  0  0  0  0  0  0  0
   -1.8506   -0.0408   -0.0566 C   0  0  0  0  0  0  0  0  0  0  0  0
   -2.6467   -1.1493    0.2448 C   0  0  0  0  0  0  0  0  0  0  0  0
   -2.4549    1.1913   -0.3226 C   0  0  0  0  0  0  0  0  0  0  0  0
    4.0140   -0.4850   -0.2133 C   0  0  0  0  0  0  0  0  0  0  0  0
   -0.4198   -0.1660   -0.0920 C   0  0  0  0  0  0  0  0  0  0  0  0
    5.4422   -0.0789   -0.3742 C   0  0  0  0  0  0  0  0  0  0  0  0
    1.6722    0.0596   -0.2390 C   0  0  0  0  0  0  0  0  0  0  0  0
    1.4130   -1.2631    0.0886 C   0  0  0  0  0  0  0  0  0  0  0  0
    3.0037    0.4702   -0.3966 C   0  0  0  0  0  0  0  0  0  0  0  0
    3.7083   -1.8111    0.1172 C   0  0  0  0  0  0  0  0  0  0  0  0
    2.3855   -2.2371    0.2780 C   0  0  0  0  0  0  0  0  0  0  0  0
    5.7883    0.4370   -1.7848 C   0  0  0  0  0  0  0  0  0  0  0  0
    5.8744    0.9798    0.6451 C   0  0  0  0  0  0  0  0  0  0  0  0
  1 16  1  0
  1 19  1  0
  2 24  1  0
  3 24  2  0
  4 16  2  0
  4 18  1  0
  5  6  1  0
  5  7  1  0
  5  8  1  0
  5  9  1  0
  6 10  2  0
  6 11  1  0
 10 13  1  0
 11 14  2  0
 12 13  2  0
 12 14  1  0
 12 16  1  0
 15 17  1  0
 15 20  2  0
 15 21  1  0
 17 23  1  0
 17 24  1  0
 18 19  2  0
 18 20  1  0
 19 22  1  0
 21 22  2  0
M  END
>  <PUBCHEM_COMPOUND_CID>  (1) 
41180

>  <PUBCHEM_CONFORMER_RMSD>  (1) 
0.8

>  <PUBCHEM_CONFORMER_DIVERSEORDER>  (1) 
1
3
4
2

>  <PUBCHEM_MMFF94_PARTIAL_CHARGES>  (1) 
28
1 -0.28
10 -0.15
11 -0.15
12 0.05
13 -0.15
14 -0.15
15 -0.14
16 0.43
17 0.2
18 0.23
19 0.14
2 -0.65
20 -0.15
21 -0.15
22 -0.15
24 0.66
3 -0.57
34 0.15
35 0.15
36 0.15
37 0.15
39 0.15
4 -0.57
40 0.15
41 0.15
45 0.5
5 0.14
6 -0.14

>  <PUBCHEM_EFFECTIVE_ROTOR_COUNT>  (1) 
4

>  <PUBCHEM_PHARMACOPHORE_FEATURES>  (1) 
8
1 2 acceptor
1 23 hydrophobe
1 3 acceptor
3 2 3 24 anion
4 5 7 8 9 hydrophobe
5 1 4 16 18 19 rings
6 15 18 19 20 21 22 rings
6 6 10 11 12 13 14 rings

>  <PUBCHEM_HEAVY_ATOM_COUNT>  (1) 
24

>  <PUBCHEM_ATOM_DEF_STEREO_COUNT>  (1) 
0

>  <PUBCHEM_ATOM_UDEF_STEREO_COUNT>  (1) 
1

>  <PUBCHEM_BOND_DEF_STEREO_COUNT>  (1) 
0

>  <PUBCHEM_BOND_UDEF_STEREO_COUNT>  (1) 
0

>  <PUBCHEM_ISOTOPIC_ATOM_COUNT>  (1) 
0

>  <PUBCHEM_COMPONENT_COUNT>  (1) 
1

>  <PUBCHEM_CACTVS_TAUTO_COUNT>  (1) 
1

>  <PUBCHEM_CONFORMER_ID>  (1) 
0000A0DC00000001

>  <PUBCHEM_MMFF94_ENERGY>  (1) 
64.4203

>  <PUBCHEM_FEATURE_SELFOVERLAP>  (1) 
40.772

>  <PUBCHEM_SHAPE_FINGERPRINT>  (1) 
10 15 17967814976773743768
10595046 47 18342454803774331315
10638233 991 16988842787028012513
10835480 77 18335132043496336629
10906281 52 17968114009233726103
10968037 39 18409731760046447671
11181472 205 16629134157157141737
11315181 36 17704353282735342153
11646440 116 18411427219091805753
11719270 70 18113615673199245554
12091667 2 18409731760252097909
12107183 9 17472135077527558283
12236239 1 17989487403245158719
125118 31 17967253070170659501
12516196 113 18343864416035321385
12616971 3 15719678744079587487
12730499 353 18342181046811991366
13073987 5 18261394386947692761
13533116 47 18339361855727032042
14170010 4 18335140894859184260
14251764 18 17240485835601838372
14341114 176 18335990778924786423
14461889 52 18040722484335663611
14528608 73 18343582941053232182
14933364 13 17917994979310707985
15183329 4 18259987072209590501
1577012 14 18343017758260025319
17093844 174 17894630345443354905
200 152 18343017766849933899
20281389 69 18334857194978650793
20397935 70 14129335166399599992
20511986 3 18335689521513437183
21033648 29 18200019781356407208
21130935 74 18335140843778987339
21150785 3 17060335249400773599
21267235 1 18263090932936183511
21521721 280 18202285822574835434
21792934 111 18262787459110362376
220451 1 17775003467002919183
221357 26 17203611476172595128
22149856 69 18189354398102290665
22224240 67 18261106405032322578
23035841 295 10375872978554259485
23081809 10 18342734071180218739
23198884 109 17060626585991725819
23402539 116 11169916096117199475
23559900 14 18337105761162049233
24771293 8 18339354301364985004
29717793 49 16271934796370111276
300161 21 18410008832186054447
3004659 81 18188211979556392514
335352 9 18408326575997499550
34797466 226 17489591173233087964
350125 39 18334297556803964501
3545911 37 18408044000332462286
4073 2 17822019730245633514
4093350 32 17060344015687701908
4325135 7 18260269641907148078
4340502 62 16370725920268083682
4463277 17 18411700967854334517
5104073 3 18189054192414389265
542803 24 17131833144997140683
5486654 2 18408328799993759222
5758199 1 18411986858025822659
59682541 35 18260831552436357328
59682541 52 17131568180555406500
59755656 215 18409168800996735022

>  <PUBCHEM_SHAPE_MULTIPOLES>  (1) 
471.32
20.01
1.71
1.01
5.04
0.34
0
-6.73
0.84
-0.67
0.16
-0.5
-0.2
0.56

>  <PUBCHEM_SHAPE_SELFOVERLAP>  (1) 
1027.192

>  <PUBCHEM_SHAPE_VOLUME>  (1) 
258.7

>  <PUBCHEM_COORDINATE_TYPE>  (1) 
2
5
10

$$$$
