41187
     RDKit          3D

 23 24  0  0  0  0  0  0  0  0999 V2000
   -0.8824   -1.0618    1.5904 O   0  0  0  0  0  0  0  0  0  0  0  0
    2.8980    3.5772   -0.3179 O   0  0  0  0  0  0  0  0  0  0  0  0
    4.6080    2.2384   -0.6841 O   0  0  0  0  0  0  0  0  0  0  0  0
   -5.0753   -0.1214   -0.1149 N   0  0  0  0  0  0  0  0  0  0  0  0
   -1.5180    0.8474    0.4135 N   0  0  0  0  0  0  0  0  0  0  0  0
    3.4218    2.4510   -0.3781 N   0  0  0  0  0  0  0  0  0  0  0  0
   -3.6503   -0.0348   -0.4064 C   0  0  0  0  0  0  0  0  0  0  0  0
   -2.9386    0.7731    0.6688 C   0  0  0  0  0  0  0  0  0  0  0  0
   -5.6705    1.2147   -0.0455 C   0  0  0  0  0  0  0  0  0  0  0  0
   -5.7608   -0.9296   -1.1255 C   0  0  0  0  0  0  0  0  0  0  0  0
    0.7688    0.2078    0.5038 C   0  0  0  0  0  0  0  0  0  0  0  0
    1.8715   -0.7250    0.2735 C   0  0  0  0  0  0  0  0  0  0  0  0
    3.0604    0.0647   -0.1060 C   0  0  0  0  0  0  0  0  0  0  0  0
   -0.6013   -0.0779    0.8956 C   0  0  0  0  0  0  0  0  0  0  0  0
    2.6115    1.3342   -0.0782 C   0  0  0  0  0  0  0  0  0  0  0  0
    1.2266    1.4490    0.2880 C   0  0  0  0  0  0  0  0  0  0  0  0
   -7.1424    1.1415    0.3239 C   0  0  0  0  0  0  0  0  0  0  0  0
   -5.1595   -2.3220   -1.2153 C   0  0  0  0  0  0  0  0  0  0  0  0
    1.7892   -2.0582    0.3924 C   0  0  0  0  0  0  0  0  0  0  0  0
    4.3913   -0.3914   -0.4303 C   0  0  0  0  0  0  0  0  0  0  0  0
    2.8239   -3.0435    0.1828 C   0  0  0  0  0  0  0  0  0  0  0  0
    4.8250   -1.6585   -0.4556 C   0  0  0  0  0  0  0  0  0  0  0  0
    4.1032   -2.8750   -0.1748 C   0  0  0  0  0  0  0  0  0  0  0  0
  1 14  2  0
  2  6  1  0
  3  6  2  0
  4  7  1  0
  4  9  1  0
  4 10  1  0
  5  8  1  0
  5 14  1  0
  6 15  1  0
  7  8  1  0
  9 17  1  0
 10 18  1  0
 11 12  2  0
 11 14  1  0
 11 16  1  0
 12 13  1  0
 12 19  1  0
 13 15  1  0
 13 20  2  0
 15 16  2  0
 19 21  2  0
 20 22  1  0
 21 23  1  0
 22 23  2  0
M  CHG  2   2  -1   6   1
M  END
>  <PUBCHEM_COMPOUND_CID>  (1) 
41187

>  <PUBCHEM_CONFORMER_RMSD>  (1) 
0.8

>  <PUBCHEM_CONFORMER_DIVERSEORDER>  (1) 
5
43
13
26
54
11
53
16
3
35
23
28
42
30
14
1
44
34
18
56
15
31
27
55
22
32
33
49
4
10
52
8
29
39
12
46
21
19
50
40
51
41
36
9
20
48
58
24
47
25
6
2
45
38
37
7
57
17
59

>  <PUBCHEM_MMFF94_PARTIAL_CHARGES>  (1) 
26
1 -0.57
10 0.27
11 0.01
14 0.62
15 0.2
16 -0.15
19 -0.15
2 -0.52
20 -0.15
21 -0.15
22 -0.15
23 -0.15
3 -0.52
32 0.37
33 0.15
4 -0.81
40 0.15
41 0.15
42 0.15
43 0.15
44 0.15
5 -0.73
6 0.84
7 0.27
8 0.3
9 0.27

>  <PUBCHEM_EFFECTIVE_ROTOR_COUNT>  (1) 
8

>  <PUBCHEM_PHARMACOPHORE_FEATURES>  (1) 
8
1 1 acceptor
1 2 acceptor
1 2 anion
1 3 acceptor
1 4 cation
1 5 donor
5 11 12 13 15 16 rings
7 12 13 19 20 21 22 23 rings

>  <PUBCHEM_HEAVY_ATOM_COUNT>  (1) 
23

>  <PUBCHEM_ATOM_DEF_STEREO_COUNT>  (1) 
0

>  <PUBCHEM_ATOM_UDEF_STEREO_COUNT>  (1) 
0

>  <PUBCHEM_BOND_DEF_STEREO_COUNT>  (1) 
0

>  <PUBCHEM_BOND_UDEF_STEREO_COUNT>  (1) 
0

>  <PUBCHEM_ISOTOPIC_ATOM_COUNT>  (1) 
0

>  <PUBCHEM_COMPONENT_COUNT>  (1) 
1

>  <PUBCHEM_CACTVS_TAUTO_COUNT>  (1) 
2

>  <PUBCHEM_CONFORMER_ID>  (1) 
0000A0E300000005

>  <PUBCHEM_MMFF94_ENERGY>  (1) 
86.2951

>  <PUBCHEM_FEATURE_SELFOVERLAP>  (1) 
40.703

>  <PUBCHEM_SHAPE_FINGERPRINT>  (1) 
10411042 1 17976260137046467282
10595046 47 18341611551454771181
10670039 82 15357976685967074303
10693767 8 18201168655191457670
11796584 16 17704071781277035367
12107183 9 17909836431856553793
12236239 1 17989204828424367923
12730499 353 18114472209846929395
12788726 201 17489599939456492473
13167823 11 18342735222157549287
13533116 47 18413390921194477289
13540713 4 17970088805516986266
14170010 4 18409729530684173000
14528608 73 18337672018113674925
14576447 43 18342173349819075298
14863182 85 16486977241760071246
15081414 286 18040720277171197461
15183329 4 18341046325247693943
15250474 111 18200581580122034103
16993427 108 17317303044512168298
17844677 252 18410299069339316453
17857418 61 18201716215717627427
18222031 100 18270122288948709170
18681886 176 18201995530394444650
20028762 73 18201436922738005470
20554085 129 17987226915393688144
20612939 158 18410016507371675425
20645477 70 18335138695967589618
21054139 6 18198898300137474934
221357 26 18261673658369199989
23522609 53 17844270569607958849
23559900 14 18409447003044745176
25147074 1 18059027076832339881
29717793 49 18059579053070122021
3004659 81 18273211963434720711
4073 2 18260834847198584019
439807 62 18271520996984158159
46194498 28 18260548887801048477
495365 180 18411134783943780360
5281201 14 18261671480720476397
6025842 7 18410294731073837292
6327066 14 17901107739835860348
633830 44 18114175329313216187
67856867 119 18341887506665186304

>  <PUBCHEM_SHAPE_MULTIPOLES>  (1) 
440.78
15.06
3.25
0.95
25.08
0.22
-0.05
-1.24
3.79
-4.33
0.63
0.55
-0.22
-1.65

>  <PUBCHEM_SHAPE_SELFOVERLAP>  (1) 
924.543

>  <PUBCHEM_SHAPE_VOLUME>  (1) 
248.1

>  <PUBCHEM_COORDINATE_TYPE>  (1) 
2
5
10

$$$$
