41181
     RDKit          3D

 14 14  0  0  0  0  0  0  0  0999 V2000
   -1.3456    0.1216    0.0083 C   0  0  0  0  0  0  0  0  0  0  0  0
    0.0849    0.6276   -0.0948 C   0  0  0  0  0  0  0  0  0  0  0  0
   -2.1794    0.9392    1.0212 C   0  0  0  0  0  0  0  0  0  0  0  0
   -2.0576    0.1072   -1.3638 C   0  0  0  0  0  0  0  0  0  0  0  0
    1.1361   -0.2001    0.2467 C   0  0  0  0  0  0  0  0  0  0  0  0
    0.9177   -1.5988    0.7228 C   0  0  0  0  0  0  0  0  0  0  0  0
    0.2862    1.9217   -0.5355 C   0  0  0  0  0  0  0  0  0  0  0  0
   -1.6579    0.8405    2.4501 C   0  0  0  0  0  0  0  0  0  0  0  0
   -3.4948   -0.3957   -1.2919 C   0  0  0  0  0  0  0  0  0  0  0  0
    0.9010   -2.6081   -0.4327 C   0  0  0  0  0  0  0  0  0  0  0  0
    2.4401    0.2844    0.1440 C   0  0  0  0  0  0  0  0  0  0  0  0
    1.5901    2.4062   -0.6382 C   0  0  0  0  0  0  0  0  0  0  0  0
    2.6672    1.5876   -0.2983 C   0  0  0  0  0  0  0  0  0  0  0  0
    0.7120   -4.0332    0.0622 C   0  0  0  0  0  0  0  0  0  0  0  0
  1  2  1  0
  1  3  1  0
  1  4  1  0
  2  5  2  0
  2  7  1  0
  3  8  1  0
  4  9  1  0
  5  6  1  0
  5 11  1  0
  6 10  1  0
  7 12  2  0
 10 14  1  0
 11 13  2  0
 12 13  1  0
M  END
>  <PUBCHEM_COMPOUND_CID>  (1) 
41181

>  <PUBCHEM_CONFORMER_RMSD>  (1) 
0.6

>  <PUBCHEM_CONFORMER_DIVERSEORDER>  (1) 
4
24
17
9
23
12
18
13
11
10
19
14
25
15
6
20
21
22
5
7
8
1
16
2
3

>  <PUBCHEM_MMFF94_PARTIAL_CHARGES>  (1) 
12
1 0.14
11 -0.15
12 -0.15
13 -0.15
2 -0.14
22 0.15
31 0.15
32 0.15
33 0.15
5 -0.14
6 0.14
7 -0.15

>  <PUBCHEM_EFFECTIVE_ROTOR_COUNT>  (1) 
5

>  <PUBCHEM_PHARMACOPHORE_FEATURES>  (1) 
4
1 14 hydrophobe
1 8 hydrophobe
1 9 hydrophobe
6 2 5 7 11 12 13 rings

>  <PUBCHEM_HEAVY_ATOM_COUNT>  (1) 
14

>  <PUBCHEM_ATOM_DEF_STEREO_COUNT>  (1) 
0

>  <PUBCHEM_ATOM_UDEF_STEREO_COUNT>  (1) 
0

>  <PUBCHEM_BOND_DEF_STEREO_COUNT>  (1) 
0

>  <PUBCHEM_BOND_UDEF_STEREO_COUNT>  (1) 
0

>  <PUBCHEM_ISOTOPIC_ATOM_COUNT>  (1) 
0

>  <PUBCHEM_COMPONENT_COUNT>  (1) 
1

>  <PUBCHEM_CACTVS_TAUTO_COUNT>  (1) 
1

>  <PUBCHEM_CONFORMER_ID>  (1) 
0000A0DD00000004

>  <PUBCHEM_MMFF94_ENERGY>  (1) 
29.3738

>  <PUBCHEM_FEATURE_SELFOVERLAP>  (1) 
20.297

>  <PUBCHEM_SHAPE_FINGERPRINT>  (1) 
1 1 18261377992640773260
12326174 3 18113894914560249448
13898156 1 17703509879047493297
14251745 187 16394635148443145751
15207287 21 17604691331403879185
15490181 8 18199205047018142820
16945 1 18335143063859886060
20511035 2 17458904975943276948
20645477 70 18189312655415439151
21160774 45 17832150798098331279
22713034 7 18337956679681591587
228727 97 17917432085476704561
23530152 11 18192419981895491695
23598291 2 17914625959829686295
2748010 2 18189345721919939196
3060560 45 18262218027993055214
576247 118 17469355554729025794
68419 9 17703236104936601441
6992083 37 17337877028216366523
8272917 22 18410286991927892135

>  <PUBCHEM_SHAPE_MULTIPOLES>  (1) 
288.11
3.82
3.47
1.49
1.99
4.34
0.78
-1.15
-0.88
-2.4
-0.29
1.44
-0.42
-0.8

>  <PUBCHEM_SHAPE_SELFOVERLAP>  (1) 
572.485

>  <PUBCHEM_SHAPE_VOLUME>  (1) 
169

>  <PUBCHEM_COORDINATE_TYPE>  (1) 
2
5
10

$$$$
