41185
     RDKit          3D

 20 21  0  0  0  0  0  0  0  0999 V2000
    0.3109   -1.1723    1.9181 O   0  0  0  0  0  0  0  0  0  0  0  0
    4.2669    0.2333   -0.0126 N   0  0  0  0  0  0  0  0  0  0  0  0
    0.8421   -1.1713   -0.3518 N   0  0  0  0  0  0  0  0  0  0  0  0
    2.8162    0.2451   -0.1657 C   0  0  0  0  0  0  0  0  0  0  0  0
    2.2811   -1.1828   -0.2178 C   0  0  0  0  0  0  0  0  0  0  0  0
    4.7862    1.5990    0.0752 C   0  0  0  0  0  0  0  0  0  0  0  0
    4.8963   -0.4792   -1.1255 C   0  0  0  0  0  0  0  0  0  0  0  0
   -1.4308   -1.1524    0.3414 C   0  0  0  0  0  0  0  0  0  0  0  0
   -2.2197   -0.0749    0.1253 C   0  0  0  0  0  0  0  0  0  0  0  0
   -0.0232   -1.1670    0.7309 C   0  0  0  0  0  0  0  0  0  0  0  0
    4.1578    2.3475    1.2055 C   0  0  0  0  0  0  0  0  0  0  0  0
    6.3785   -0.5566   -0.9522 C   0  0  0  0  0  0  0  0  0  0  0  0
   -3.5274   -0.6323   -0.2371 C   0  0  0  0  0  0  0  0  0  0  0  0
   -2.1769   -2.3812    0.1337 C   0  0  0  0  0  0  0  0  0  0  0  0
   -3.4348   -2.0808   -0.2131 C   0  0  0  0  0  0  0  0  0  0  0  0
   -1.8279    1.3096    0.2370 C   0  0  0  0  0  0  0  0  0  0  0  0
   -4.6507    0.0277   -0.5479 C   0  0  0  0  0  0  0  0  0  0  0  0
   -2.6000    2.3837    0.0242 C   0  0  0  0  0  0  0  0  0  0  0  0
   -4.8554    1.4559   -0.6045 C   0  0  0  0  0  0  0  0  0  0  0  0
   -3.9890    2.4487   -0.3631 C   0  0  0  0  0  0  0  0  0  0  0  0
  1 10  2  0
  2  4  1  0
  2  6  1  0
  2  7  1  0
  3  5  1  0
  3 10  1  0
  4  5  1  0
  6 11  1  0
  7 12  1  0
  8  9  2  0
  8 10  1  0
  8 14  1  0
  9 13  1  0
  9 16  1  0
 13 15  1  0
 13 17  2  0
 14 15  2  0
 16 18  2  0
 17 19  1  0
 18 20  1  0
 19 20  2  0
M  END
>  <PUBCHEM_COMPOUND_CID>  (1) 
41185

>  <PUBCHEM_CONFORMER_RMSD>  (1) 
0.8

>  <PUBCHEM_CONFORMER_DIVERSEORDER>  (1) 
2
54
39
49
9
38
3
65
18
25
66
48
46
36
8
34
19
56
52
26
60
31
28
30
51
4
68
17
67
24
58
55
61
45
20
29
33
16
64
15
59
10
47
35
40
50
43
23
11
32
70
44
57
13
14
37
62
27
42
41
53
69
1
63
12
7
6
5
21
22

>  <PUBCHEM_MMFF94_PARTIAL_CHARGES>  (1) 
24
1 -0.57
10 0.62
14 -0.15
15 -0.15
16 -0.15
17 -0.15
18 -0.15
19 -0.15
2 -0.81
20 -0.15
29 0.37
3 -0.73
36 0.15
37 0.15
38 0.15
39 0.15
4 0.27
40 0.15
41 0.15
42 0.15
5 0.3
6 0.27
7 0.27
8 0.01

>  <PUBCHEM_EFFECTIVE_ROTOR_COUNT>  (1) 
7

>  <PUBCHEM_PHARMACOPHORE_FEATURES>  (1) 
5
1 1 acceptor
1 2 cation
1 3 donor
5 8 9 13 14 15 rings
7 9 13 16 17 18 19 20 rings

>  <PUBCHEM_HEAVY_ATOM_COUNT>  (1) 
20

>  <PUBCHEM_ATOM_DEF_STEREO_COUNT>  (1) 
0

>  <PUBCHEM_ATOM_UDEF_STEREO_COUNT>  (1) 
0

>  <PUBCHEM_BOND_DEF_STEREO_COUNT>  (1) 
0

>  <PUBCHEM_BOND_UDEF_STEREO_COUNT>  (1) 
0

>  <PUBCHEM_ISOTOPIC_ATOM_COUNT>  (1) 
0

>  <PUBCHEM_COMPONENT_COUNT>  (1) 
1

>  <PUBCHEM_CACTVS_TAUTO_COUNT>  (1) 
2

>  <PUBCHEM_CONFORMER_ID>  (1) 
0000A0E100000002

>  <PUBCHEM_MMFF94_ENERGY>  (1) 
63.2028

>  <PUBCHEM_FEATURE_SELFOVERLAP>  (1) 
25.402

>  <PUBCHEM_SHAPE_FINGERPRINT>  (1) 
10411042 1 17976545232696705459
10498660 4 18410005512055119345
10670039 82 18187928344184570220
10730089 173 18408888408161781477
12390115 104 18198916812195886209
12403259 415 18342181106925248184
12596602 18 15140974954043896148
13402501 40 18341890814370856864
14251757 17 18201715184756931880
14251764 38 18336546139729622164
14739800 52 18264465408792087624
14790565 3 18054230921809227369
15183329 4 18337397029054636862
15196674 1 18411701019367821652
15961568 22 18191303999807198492
17844677 252 18337680814327821478
17959699 21 18409728447909322072
200 152 16200156469532459190
20645477 56 18409173177621248039
221357 26 18202002127353447768
22393880 68 18341894099967778998
23227448 37 18411415146233836845
23402539 116 18409164437088715230
23557571 272 18338526325589650655
23559900 14 18343862204359025778
2838139 119 18410568449028628564
341906 21 18261105314163519784
351380 180 18341612646539374420
3545911 37 18409453569918053599
4028521 119 18409446977348800501
4214541 1 18411703175383089764
441001 317 18410012130441077167
474 4 17530972371022526222
5104073 3 18260546697425990459
5283173 99 18412825776686815032
59755656 520 17095248007515616650
6328613 192 18041573511696022900
9981440 41 18260544549884612539

>  <PUBCHEM_SHAPE_MULTIPOLES>  (1) 
395.76
13.06
2.72
1.02
15.06
0.93
0.24
4.21
-3.95
-1.9
0.32
0.72
-0.06
1.35

>  <PUBCHEM_SHAPE_SELFOVERLAP>  (1) 
823.532

>  <PUBCHEM_SHAPE_VOLUME>  (1) 
225.2

>  <PUBCHEM_COORDINATE_TYPE>  (1) 
2
5
10

$$$$
