41196
     RDKit          3D

 18 19  0  0  0  0  0  0  0  0999 V2000
   -1.9374    2.1889   -1.2425 Cl  0  0  0  0  0  0  0  0  0  0  0  0
    5.7980    1.6855    0.5003 Cl  0  0  0  0  0  0  0  0  0  0  0  0
   -0.9378   -0.7218   -1.8833 O   0  0  0  0  0  0  0  0  0  0  0  0
    0.9646   -1.6702   -0.1591 N   0  0  0  0  0  0  0  0  0  0  0  0
   -0.2421   -1.1988    0.2748 N   0  0  0  0  0  0  0  0  0  0  0  0
   -2.4386   -0.2560   -0.1407 C   0  0  0  0  0  0  0  0  0  0  0  0
    2.1076   -0.8767   -0.0036 C   0  0  0  0  0  0  0  0  0  0  0  0
   -1.1624   -0.7313   -0.6613 C   0  0  0  0  0  0  0  0  0  0  0  0
   -2.8805    1.0502   -0.3502 C   0  0  0  0  0  0  0  0  0  0  0  0
   -3.2249   -1.1505    0.5854 C   0  0  0  0  0  0  0  0  0  0  0  0
    3.3825   -1.4355   -0.1516 C   0  0  0  0  0  0  0  0  0  0  0  0
    1.9878    0.4844    0.3019 C   0  0  0  0  0  0  0  0  0  0  0  0
   -4.1090    1.4621    0.1665 C   0  0  0  0  0  0  0  0  0  0  0  0
   -4.4534   -0.7385    1.1022 C   0  0  0  0  0  0  0  0  0  0  0  0
    4.5212   -0.6449    0.0036 C   0  0  0  0  0  0  0  0  0  0  0  0
    3.1265    1.2750    0.4569 C   0  0  0  0  0  0  0  0  0  0  0  0
   -4.8954    0.5677    0.8928 C   0  0  0  0  0  0  0  0  0  0  0  0
    4.3931    0.7104    0.3078 C   0  0  0  0  0  0  0  0  0  0  0  0
  1  9  1  0
  2 18  1  0
  3  8  2  0
  4  5  1  0
  4  7  1  0
  5  8  1  0
  6  8  1  0
  6  9  2  0
  6 10  1  0
  7 11  2  0
  7 12  1  0
  9 13  1  0
 10 14  2  0
 11 15  1  0
 12 16  2  0
 13 17  2  0
 14 17  1  0
 15 18  2  0
 16 18  1  0
M  END
>  <PUBCHEM_COMPOUND_CID>  (1) 
41196

>  <PUBCHEM_CONFORMER_RMSD>  (1) 
0.6

>  <PUBCHEM_CONFORMER_DIVERSEORDER>  (1) 
1
20
18
25
11
32
30
14
3
26
7
28
12
22
23
15
29
2
31
21
10
17
27
4
24
8
16
19
5
13
9
6

>  <PUBCHEM_MMFF94_PARTIAL_CHARGES>  (1) 
28
1 -0.18
10 -0.15
11 -0.15
12 -0.15
13 -0.15
14 -0.15
15 -0.15
16 -0.15
17 -0.15
18 0.18
19 0.4
2 -0.18
20 0.37
21 0.15
22 0.15
23 0.15
24 0.15
25 0.15
26 0.15
27 0.15
28 0.15
3 -0.57
4 -0.52
5 -0.41
6 0.09
7 0.1
8 0.54
9 0.18

>  <PUBCHEM_EFFECTIVE_ROTOR_COUNT>  (1) 
4

>  <PUBCHEM_PHARMACOPHORE_FEATURES>  (1) 
5
1 3 acceptor
1 4 donor
1 5 donor
6 6 9 10 13 14 17 rings
6 7 11 12 15 16 18 rings

>  <PUBCHEM_HEAVY_ATOM_COUNT>  (1) 
18

>  <PUBCHEM_ATOM_DEF_STEREO_COUNT>  (1) 
0

>  <PUBCHEM_ATOM_UDEF_STEREO_COUNT>  (1) 
0

>  <PUBCHEM_BOND_DEF_STEREO_COUNT>  (1) 
0

>  <PUBCHEM_BOND_UDEF_STEREO_COUNT>  (1) 
0

>  <PUBCHEM_ISOTOPIC_ATOM_COUNT>  (1) 
0

>  <PUBCHEM_COMPONENT_COUNT>  (1) 
1

>  <PUBCHEM_CACTVS_TAUTO_COUNT>  (1) 
2

>  <PUBCHEM_CONFORMER_ID>  (1) 
0000A0EC00000001

>  <PUBCHEM_MMFF94_ENERGY>  (1) 
58.1867

>  <PUBCHEM_FEATURE_SELFOVERLAP>  (1) 
26.942

>  <PUBCHEM_SHAPE_FINGERPRINT>  (1) 
11132069 177 17967818232400905295
11315181 36 11241964872233529062
11370993 144 18266748982710245075
11595378 159 17385990759521394896
12507560 40 18408886204822498605
12555020 224 9871752373397529673
12892183 10 17967812713046371386
13081056 2 18410294683702550862
13214271 11 18407758145079901519
13675066 3 18411418410408708726
14341114 176 18334583420883329960
14341114 328 17531254975586341100
15081414 286 18343868818836047576
15163728 17 14978289994386578049
15183329 4 9871481872452345307
15188451 53 16515971483801851131
15196674 1 18411699872368733208
1813 80 16443071594673203263
18186145 218 18131066030933527742
18222031 100 16153714236330719863
193927 3 12035725367203641160
19433438 28 18260548901060476778
20374829 77 10231764370384021218
20645477 56 18342171202540694422
21065199 12 18333733481289205307
21637258 2 14563111272791324737
21652331 79 18409728452141135148
22646028 28 12179843896426332507
22854114 59 18335141985786054683
23227448 37 18270961353099896071
23402655 69 17917991698535637104
23559900 14 17897458194022262967
2916195 48 18271801380479428296
3009799 131 18040709287119513223
5104073 3 18261957349253299195
542803 24 16415481553771378304
602551 16 16877952675838324658
6442390 28 18261117382784706066
77779 3 18411140220760401627
960060 61 12607411013928252840

>  <PUBCHEM_SHAPE_MULTIPOLES>  (1) 
358.34
11.99
1.95
1.06
6.09
0.52
-0.27
3.73
3.85
0.25
-0.23
-0.74
0.08
1

>  <PUBCHEM_SHAPE_SELFOVERLAP>  (1) 
749.151

>  <PUBCHEM_SHAPE_VOLUME>  (1) 
204

>  <PUBCHEM_COORDINATE_TYPE>  (1) 
2
5
10

$$$$
