4119
     RDKit          3D

 20 22  0  0  0  0  0  0  0  0999 V2000
    0.3482   -0.6628   -0.0308 O   0  0  0  0  0  0  0  0  0  0  0  0
   -4.1456   -2.1915   -0.1156 O   0  0  0  0  0  0  0  0  0  0  0  0
   -0.8234    3.2352    0.1472 O   0  0  0  0  0  0  0  0  0  0  0  0
   -1.4567    0.9612    0.0371 C   0  0  0  0  0  0  0  0  0  0  0  0
   -0.9874   -0.3499   -0.0212 C   0  0  0  0  0  0  0  0  0  0  0  0
   -2.8290    1.2208    0.0449 C   0  0  0  0  0  0  0  0  0  0  0  0
    1.2695    0.3727    0.0118 C   0  0  0  0  0  0  0  0  0  0  0  0
   -0.4824    2.0618    0.0916 C   0  0  0  0  0  0  0  0  0  0  0  0
   -1.8905   -1.4120   -0.0717 C   0  0  0  0  0  0  0  0  0  0  0  0
   -3.7301    0.1566   -0.0062 C   0  0  0  0  0  0  0  0  0  0  0  0
   -3.2621   -1.1570   -0.0643 C   0  0  0  0  0  0  0  0  0  0  0  0
    0.9424    1.6731    0.0763 C   0  0  0  0  0  0  0  0  0  0  0  0
    2.6766   -0.0754    0.0028 C   0  0  0  0  0  0  0  0  0  0  0  0
   -3.4087    2.5968    0.1053 C   0  0  0  0  0  0  0  0  0  0  0  0
    3.6689    0.7385   -0.5493 C   0  0  0  0  0  0  0  0  0  0  0  0
    3.0220   -1.3149    0.5470 C   0  0  0  0  0  0  0  0  0  0  0  0
    4.9981    0.3156   -0.5573 C   0  0  0  0  0  0  0  0  0  0  0  0
    4.3512   -1.7378    0.5391 C   0  0  0  0  0  0  0  0  0  0  0  0
    5.3392   -0.9225   -0.0131 C   0  0  0  0  0  0  0  0  0  0  0  0
   -3.6000   -3.5085   -0.1736 C   0  0  0  0  0  0  0  0  0  0  0  0
  1  5  1  0
  1  7  1  0
  2 11  1  0
  2 20  1  0
  3  8  2  0
  4  5  2  0
  4  6  1  0
  4  8  1  0
  5  9  1  0
  6 10  2  0
  6 14  1  0
  7 12  2  0
  7 13  1  0
  8 12  1  0
  9 11  2  0
 10 11  1  0
 13 15  2  0
 13 16  1  0
 15 17  1  0
 16 18  2  0
 17 19  2  0
 18 19  1  0
M  END
>  <PUBCHEM_COMPOUND_CID>  (1) 
4119

>  <PUBCHEM_CONFORMER_RMSD>  (1) 
0.6

>  <PUBCHEM_CONFORMER_DIVERSEORDER>  (1) 
2
1

>  <PUBCHEM_MMFF94_PARTIAL_CHARGES>  (1) 
28
1 -0.16
10 -0.15
11 0.08
12 -0.14
13 0.03
14 0.14
15 -0.15
16 -0.15
17 -0.15
18 -0.15
19 -0.15
2 -0.36
20 0.28
21 0.15
22 0.15
23 0.15
27 0.15
28 0.15
29 0.15
3 -0.57
30 0.15
31 0.15
4 0.09
5 0.08
6 -0.14
7 0.05
8 0.47
9 -0.15

>  <PUBCHEM_EFFECTIVE_ROTOR_COUNT>  (1) 
2

>  <PUBCHEM_PHARMACOPHORE_FEATURES>  (1) 
6
1 1 acceptor
1 2 acceptor
1 3 acceptor
6 1 4 5 7 8 12 rings
6 13 15 16 17 18 19 rings
6 4 5 6 9 10 11 rings

>  <PUBCHEM_HEAVY_ATOM_COUNT>  (1) 
20

>  <PUBCHEM_ATOM_DEF_STEREO_COUNT>  (1) 
0

>  <PUBCHEM_ATOM_UDEF_STEREO_COUNT>  (1) 
0

>  <PUBCHEM_BOND_DEF_STEREO_COUNT>  (1) 
0

>  <PUBCHEM_BOND_UDEF_STEREO_COUNT>  (1) 
0

>  <PUBCHEM_ISOTOPIC_ATOM_COUNT>  (1) 
0

>  <PUBCHEM_COMPONENT_COUNT>  (1) 
1

>  <PUBCHEM_CACTVS_TAUTO_COUNT>  (1) 
1

>  <PUBCHEM_CONFORMER_ID>  (1) 
0000101700000002

>  <PUBCHEM_MMFF94_ENERGY>  (1) 
73.2083

>  <PUBCHEM_FEATURE_SELFOVERLAP>  (1) 
30.476

>  <PUBCHEM_SHAPE_FINGERPRINT>  (1) 
10062212 137 18334857190720366523
10319926 262 18198319803404808082
10369192 42 16984031479449763104
10411042 1 18267303325671050487
10493431 412 18055081965209869137
10616163 171 18411982425488087486
10906281 52 18200042742104085933
11045515 52 18113334227954951325
11046707 91 18413107268563436666
12107183 9 17758954823194902970
12236239 1 17895197675118530580
12403814 3 17676491579834374421
12553582 1 18268420407545947271
13140716 1 18343021103359450537
13167823 11 18334858303507585050
13288520 33 18412829079447782110
13760787 19 18261676974099367336
138480 1 15961179468440220113
14790565 3 17907865007176200377
14866123 147 18411985750462603427
15042514 8 18411141299287530441
15196674 1 18410012126657845164
15250474 111 18261946358944457698
15352361 1 18338796826793050975
17492 89 18409730621659405946
17804303 29 18343864428740790881
18681886 176 18410856578017131418
19141452 34 18337393729712618885
200 152 18259985989629976682
20281475 54 18408321094679907752
21267235 1 18409457980870623890
21478907 32 18338796840379332483
221490 88 18047193230719257891
22950370 63 18338523035433614187
2297311 6 18272381853946695020
23366157 5 18115305730045766916
23402539 116 18339636750729040012
23557571 272 18202008698347085524
23559900 14 18270396088918737776
3004659 81 18186234035468293494
3178227 256 18336562530147471241
335352 9 18266458711240008005
3421961 26 18051976123717238627
4214541 1 18409730621394875852
465052 167 18126855017305766831
474 4 17386301981979616124
5104073 3 18413667998567451488
54173680 148 18411135831731047465
559249 180 18190456069681975698
573450 72 18335414630557872834
633830 44 16660935387279726248
67856867 119 18333448764535631460
77779 3 18409450267647203078
7970288 3 18268706297696843055
8863177 126 17609507373466866595
9709674 26 18198627640242096854

>  <PUBCHEM_SHAPE_MULTIPOLES>  (1) 
393.98
10.08
3.19
0.67
8.79
0.4
0
4.71
0.49
-4.21
-0.08
0.25
0.03
-0.72

>  <PUBCHEM_SHAPE_SELFOVERLAP>  (1) 
871.131

>  <PUBCHEM_SHAPE_VOLUME>  (1) 
211.9

>  <PUBCHEM_COORDINATE_TYPE>  (1) 
2
5
10

$$$$
