41197
     RDKit          3D

 14 15  0  0  0  0  0  0  0  0999 V2000
    2.1064    1.3070   -0.0006 O   0  0  0  0  0  0  0  0  0  0  0  0
    2.7282   -0.9659    0.0002 O   0  0  0  0  0  0  0  0  0  0  0  0
    4.3210    0.6914    0.0010 O   0  0  0  0  0  0  0  0  0  0  0  0
   -2.7229    0.2600    0.0002 C   0  0  0  0  0  0  0  0  0  0  0  0
   -1.2777   -0.1117   -0.0005 C   0  0  0  0  0  0  0  0  0  0  0  0
   -3.4502   -0.3030    1.2601 C   0  0  0  0  0  0  0  0  0  0  0  0
   -3.4526   -0.3060   -1.2571 C   0  0  0  0  0  0  0  0  0  0  0  0
   -3.0202    1.7959   -0.0014 C   0  0  0  0  0  0  0  0  0  0  0  0
   -0.3029    0.8887   -0.0007 C   0  0  0  0  0  0  0  0  0  0  0  0
   -0.9069   -1.4672   -0.0002 C   0  0  0  0  0  0  0  0  0  0  0  0
    1.0194    0.4940   -0.0006 C   0  0  0  0  0  0  0  0  0  0  0  0
    1.3787   -0.8192   -0.0003 C   0  0  0  0  0  0  0  0  0  0  0  0
    0.4413   -1.8320   -0.0001 C   0  0  0  0  0  0  0  0  0  0  0  0
    3.1384    0.3679    0.0000 C   0  0  0  0  0  0  0  0  0  0  0  0
  1 11  1  0
  1 14  1  0
  2 12  1  0
  2 14  1  0
  3 14  2  0
  4  5  1  0
  4  6  1  0
  4  7  1  0
  4  8  1  0
  5  9  1  0
  5 10  2  0
  9 11  2  0
 10 13  1  0
 11 12  1  0
 12 13  2  0
M  END
>  <PUBCHEM_COMPOUND_CID>  (1) 
41197

>  <PUBCHEM_CONFORMER_RMSD>  (1) 
0.4

>  <PUBCHEM_CONFORMER_DIVERSEORDER>  (1) 
1
2

>  <PUBCHEM_MMFF94_PARTIAL_CHARGES>  (1) 
14
1 -0.23
10 -0.15
11 0.08
12 0.08
13 -0.15
14 0.87
2 -0.23
24 0.15
25 0.15
26 0.15
3 -0.57
4 0.14
5 -0.14
9 -0.15

>  <PUBCHEM_EFFECTIVE_ROTOR_COUNT>  (1) 
1

>  <PUBCHEM_PHARMACOPHORE_FEATURES>  (1) 
3
4 4 6 7 8 hydrophobe
5 1 2 11 12 14 rings
6 5 9 10 11 12 13 rings

>  <PUBCHEM_HEAVY_ATOM_COUNT>  (1) 
14

>  <PUBCHEM_ATOM_DEF_STEREO_COUNT>  (1) 
0

>  <PUBCHEM_ATOM_UDEF_STEREO_COUNT>  (1) 
0

>  <PUBCHEM_BOND_DEF_STEREO_COUNT>  (1) 
0

>  <PUBCHEM_BOND_UDEF_STEREO_COUNT>  (1) 
0

>  <PUBCHEM_ISOTOPIC_ATOM_COUNT>  (1) 
0

>  <PUBCHEM_COMPONENT_COUNT>  (1) 
1

>  <PUBCHEM_CACTVS_TAUTO_COUNT>  (1) 
1

>  <PUBCHEM_CONFORMER_ID>  (1) 
0000A0ED00000001

>  <PUBCHEM_MMFF94_ENERGY>  (1) 
43.369

>  <PUBCHEM_FEATURE_SELFOVERLAP>  (1) 
15.352

>  <PUBCHEM_SHAPE_FINGERPRINT>  (1) 
10219947 1 18334012787270332796
10608611 8 18336264557072338693
10980938 120 18412261709994307002
11132069 177 18342168981910766120
11471102 20 18410570647982961319
11543360 7 15625935499623902552
12346645 44 18411700958816039568
124424 183 17603575318495771632
12491281 212 17632304458007958395
12932764 1 17775278357393448537
13214271 11 18334017181570600157
13380535 76 18411134757899786526
13581323 91 18040439927026836355
13705890 14 15913610579538102950
14144814 61 18410292501605963536
14289901 80 15502376742096330564
14325111 11 18410855438663939781
14897335 6 18411975888642535622
14993402 34 18410849984071239940
15219456 202 18261961743326641083
15309172 13 18411705391454540531
15775835 57 18202003209679632753
16945 1 18410575106164471047
17844478 74 18114473305221864497
18186145 218 17775568645511318288
19026448 4 16443062785737457082
19026448 5 16487257655615913406
193761 8 17689998259557518308
200 152 18343575266421304567
20279233 1 17458061552014538995
20645477 70 18268140972868405231
21501502 16 18192984929314316053
23402539 116 18202275892916453868
23402655 69 18269543975865439973
23463225 33 18334573499809627890
25 1 18410292467230361823
2748010 2 18193839236647620303
528886 8 18411131454948246450
53812653 166 18342455976078720936
63268167 104 18271526403429371211
69090 78 18202279242516243111
7364860 26 18198061365841699782
81228 2 17691958684553476315

>  <PUBCHEM_SHAPE_MULTIPOLES>  (1) 
270.51
6.47
1.59
0.84
1.77
0.12
0
-1.66
0
-0.11
0
-0.85
0.09
0

>  <PUBCHEM_SHAPE_SELFOVERLAP>  (1) 
585.817

>  <PUBCHEM_SHAPE_VOLUME>  (1) 
149.5

>  <PUBCHEM_COORDINATE_TYPE>  (1) 
2
5
10

$$$$
