41190
     RDKit          3D

 19 20  0  0  1  0  0  0  0  0999 V2000
    0.9295   -0.2022    0.0227 P   0  0  0  0  0  0  0  0  0  0  0  0
   -0.4491   -0.9628   -0.4011 O   0  0  0  0  0  0  0  0  0  0  0  0
    0.9922    0.0029    1.5170 O   0  0  0  0  0  0  0  0  0  0  0  0
   -3.8228   -0.1601    0.2597 O   0  0  0  0  0  0  0  0  0  0  0  0
   -2.9283   -1.9260   -0.9061 O   0  0  0  0  0  0  0  0  0  0  0  0
    2.1593   -1.1186   -0.6135 N   0  0  0  0  0  0  0  0  0  0  0  0
    0.9161    1.2002   -0.8649 N   0  0  0  0  0  0  0  0  0  0  0  0
   -1.5997   -0.3092    0.0645 N   0  0  0  0  0  0  0  0  0  0  0  0
    3.3764   -1.3062    0.1630 C   0  0  0  0  0  0  0  0  0  0  0  0
    0.8821    2.4787   -0.1684 C   0  0  0  0  0  0  0  0  0  0  0  0
    2.3849   -2.4206   -0.0020 C   0  0  0  0  0  0  0  0  0  0  0  0
    2.1342    1.9980   -0.8418 C   0  0  0  0  0  0  0  0  0  0  0  0
    4.6460   -1.3814   -0.6084 C   0  0  0  0  0  0  0  0  0  0  0  0
    3.5016   -0.6716    1.5028 C   0  0  0  0  0  0  0  0  0  0  0  0
    0.1102    3.5676   -0.8250 C   0  0  0  0  0  0  0  0  0  0  0  0
    0.8523    2.5072    1.3187 C   0  0  0  0  0  0  0  0  0  0  0  0
   -2.7928   -0.8945   -0.2559 C   0  0  0  0  0  0  0  0  0  0  0  0
   -5.1384   -0.6632    0.0013 C   0  0  0  0  0  0  0  0  0  0  0  0
   -6.1538    0.2619    0.6376 C   0  0  0  0  0  0  0  0  0  0  0  0
  1  2  1  0
  1  3  2  0
  1  6  1  0
  1  7  1  0
  2  8  1  0
  4 17  1  0
  4 18  1  0
  5 17  2  0
  6  9  1  0
  6 11  1  0
  7 10  1  0
  7 12  1  0
  8 17  1  0
  9 11  1  0
  9 13  1  0
  9 14  1  0
 10 12  1  0
 10 15  1  0
 10 16  1  0
 18 19  1  0
M  END
>  <PUBCHEM_COMPOUND_CID>  (1) 
41190

>  <PUBCHEM_CONFORMER_RMSD>  (1) 
0.8

>  <PUBCHEM_CONFORMER_DIVERSEORDER>  (1) 
1
38
34
16
32
14
47
8
20
42
29
15
17
28
11
50
23
3
39
53
4
36
25
27
49
48
45
30
24
51
10
26
2
13
41
33
6
12
35
21
31
22
37
46
52
44
5
40
43
18
19
7
9

>  <PUBCHEM_MMFF94_PARTIAL_CHARGES>  (1) 
23
1 1.51
10 -0.03
11 -0.04
12 -0.04
13 0.09
14 0.09
15 0.09
16 0.09
17 0.78
18 0.28
2 -0.31
20 0.1
21 0.1
22 0.1
23 0.1
3 -0.7
36 0.37
4 -0.43
5 -0.57
6 -0.58
7 -0.58
8 -0.39
9 -0.03

>  <PUBCHEM_EFFECTIVE_ROTOR_COUNT>  (1) 
8.2

>  <PUBCHEM_PHARMACOPHORE_FEATURES>  (1) 
4
1 5 acceptor
1 8 donor
3 10 15 16 hydrophobe
3 9 13 14 hydrophobe

>  <PUBCHEM_HEAVY_ATOM_COUNT>  (1) 
19

>  <PUBCHEM_ATOM_DEF_STEREO_COUNT>  (1) 
0

>  <PUBCHEM_ATOM_UDEF_STEREO_COUNT>  (1) 
0

>  <PUBCHEM_BOND_DEF_STEREO_COUNT>  (1) 
0

>  <PUBCHEM_BOND_UDEF_STEREO_COUNT>  (1) 
0

>  <PUBCHEM_ISOTOPIC_ATOM_COUNT>  (1) 
0

>  <PUBCHEM_COMPONENT_COUNT>  (1) 
1

>  <PUBCHEM_CACTVS_TAUTO_COUNT>  (1) 
2

>  <PUBCHEM_CONFORMER_ID>  (1) 
0000A0E600000001

>  <PUBCHEM_MMFF94_ENERGY>  (1) 
48.1539

>  <PUBCHEM_FEATURE_SELFOVERLAP>  (1) 
20.297

>  <PUBCHEM_SHAPE_FINGERPRINT>  (1) 
11265709 11 18337111168356790374
11405975 8 18336550512475451459
116883 192 18337953381273477916
12553582 1 18336254669984017294
12617007 42 18339935848025131542
12788726 201 18116716218758848578
12841375 25 18409168788016822638
13004483 165 18267015060029220090
13533116 47 18267865176513874743
15420108 30 17913472812956396196
15885798 251 18336544919588962875
17357779 13 18197476472694414388
1813 80 18335699412564345394
18186145 218 17822562906934228579
18785283 64 18116155665033252709
20097449 115 18408597054934460716
20339313 130 18408604777064054339
20671657 1 18270399537328927647
21041028 32 18408319960824781933
21503847 285 18260829311117439201
2255824 54 18264489657665685215
23419403 2 17844501376243438264
23557571 272 18270123384001625182
23558518 356 17976810205865577171
23559900 14 18335419131984435083
23598291 2 18200586029301600735
312423 11 18197776811853505615
5104073 3 18339368578057433787
5283268 108 18336262366617977345
53777708 50 18125721438234437951
68521 5 18264491685264613484
7164475 11 18045220432408460126
7364860 26 18268989958847667528
7495541 125 17895202137901138499
81228 2 18120947105089934178
9841814 1 18114172055962535328
9971528 1 18272928319256750587
9981440 41 17547002391831398505

>  <PUBCHEM_SHAPE_MULTIPOLES>  (1) 
356.44
9.45
3.23
1.14
15.66
3.15
-0.35
-5.73
-1.04
-1.93
0.64
-0.6
0.28
-0.35

>  <PUBCHEM_SHAPE_SELFOVERLAP>  (1) 
695.405

>  <PUBCHEM_SHAPE_VOLUME>  (1) 
218.8

>  <PUBCHEM_COORDINATE_TYPE>  (1) 
2
5
10

$$$$
