41200
     RDKit          3D

 14 15  0  0  1  0  0  0  0  0999 V2000
   -0.6776   -0.1773   -0.3605 C   0  0  0  0  0  0  0  0  0  0  0  0
    0.7634    0.0595    0.0909 C   0  0  0  0  0  0  0  0  0  0  0  0
   -1.6108    0.8948    0.2205 C   0  0  0  0  0  0  0  0  0  0  0  0
    1.7014   -0.9878   -0.5288 C   0  0  0  0  0  0  0  0  0  0  0  0
   -1.1450   -1.5828    0.0379 C   0  0  0  0  0  0  0  0  0  0  0  0
    1.2145    1.4798   -0.2726 C   0  0  0  0  0  0  0  0  0  0  0  0
   -3.0727    0.6548   -0.1831 C   0  0  0  0  0  0  0  0  0  0  0  0
    3.1801   -0.7580   -0.1798 C   0  0  0  0  0  0  0  0  0  0  0  0
   -2.5987   -1.8254   -0.3587 C   0  0  0  0  0  0  0  0  0  0  0  0
    2.6718    1.7285    0.1063 C   0  0  0  0  0  0  0  0  0  0  0  0
   -3.5249   -0.7561    0.2139 C   0  0  0  0  0  0  0  0  0  0  0  0
    3.6004    0.6820   -0.5052 C   0  0  0  0  0  0  0  0  0  0  0  0
   -3.9847    1.7089    0.4427 C   0  0  0  0  0  0  0  0  0  0  0  0
    3.4828   -1.1209    1.2765 C   0  0  0  0  0  0  0  0  0  0  0  0
  1  2  1  0
  1  3  1  0
  1  5  1  0
  2  4  1  0
  2  6  1  0
  3  7  1  0
  4  8  1  0
  5  9  1  0
  6 10  1  0
  7 11  1  0
  7 13  1  0
  8 12  1  0
  8 14  1  0
  9 11  1  0
 10 12  1  0
M  END
>  <PUBCHEM_COMPOUND_CID>  (1) 
41200

>  <PUBCHEM_CONFORMER_RMSD>  (1) 
0.6

>  <PUBCHEM_CONFORMER_DIVERSEORDER>  (1) 
1
95
92
104
112
8
63
57
78
106
32
47
72
15
33
16
10
49
81
48
69
59
83
12
89
4
64
100
71
45
86
119
55
29
116
115
70
19
58
73
54
105
18
75
109
50
102
107
52
13
80
9
91
113
26
76
117
98
30
14
38
94
93
96
42
110
7
44
97
17
118
67
3
74
39
34
36
41
5
85
84
66
56
61
28
87
27
11
37
79
43
82
23
62
103
20
101
53
35
68
46
114
65
60
90
111
25
88
31
51
24
40
21
22
77
2
6
108
99

>  <PUBCHEM_MMFF94_PARTIAL_CHARGES>  (1) 
0

>  <PUBCHEM_EFFECTIVE_ROTOR_COUNT>  (1) 
3.4

>  <PUBCHEM_PHARMACOPHORE_FEATURES>  (1) 
2
6 1 3 5 7 9 11 rings
6 2 4 6 8 10 12 rings

>  <PUBCHEM_HEAVY_ATOM_COUNT>  (1) 
14

>  <PUBCHEM_ATOM_DEF_STEREO_COUNT>  (1) 
0

>  <PUBCHEM_ATOM_UDEF_STEREO_COUNT>  (1) 
4

>  <PUBCHEM_BOND_DEF_STEREO_COUNT>  (1) 
0

>  <PUBCHEM_BOND_UDEF_STEREO_COUNT>  (1) 
0

>  <PUBCHEM_ISOTOPIC_ATOM_COUNT>  (1) 
0

>  <PUBCHEM_COMPONENT_COUNT>  (1) 
1

>  <PUBCHEM_CACTVS_TAUTO_COUNT>  (1) 
1

>  <PUBCHEM_CONFORMER_ID>  (1) 
0000A0F000000001

>  <PUBCHEM_MMFF94_ENERGY>  (1) 
20.6164

>  <PUBCHEM_FEATURE_SELFOVERLAP>  (1) 
10.149

>  <PUBCHEM_SHAPE_FINGERPRINT>  (1) 
10062212 137 18411972555621404323
10130415 120 18408881807066105320
10608611 8 18341612658918179437
10980938 120 18408325505774864108
11132069 177 18342453707913975755
11769659 78 18336539507872258030
12162725 195 18413106182100319127
12251169 10 18410005516539659386
12500047 106 18342173371267174301
12932764 1 17749383750188697062
13380535 76 18343302526991517991
13760787 19 18334019397446573438
13922767 16 18341609274404725040
14144814 61 18410857676336567794
14325111 11 18411420630769767669
14965852 173 18410574006884802511
15196674 1 18411140242250828428
15219456 202 18342179993969549301
15375462 189 17822564998277275754
15442244 35 18410009905864315080
15536298 74 18342176704430886276
15669948 3 18271804691435197567
15775835 57 18260835881757940949
16945 1 18341616949495185926
17041 49 18335977584769312072
18186145 218 18187364311566716982
18511873 20 18409165472143795089
19050596 39 18335137587786925474
19422 9 18259985985029106306
200 152 18131342051470389471
20279233 1 16415474943711331638
20281475 54 18259700112253934230
20510252 161 18272658982384860155
20645477 70 18408881836835938630
21267235 1 18338808895587712886
21501502 16 18410009978694129910
21501925 9 18338786901387023330
21524375 3 18341049602228554445
2255824 54 17967817180360803438
23402539 116 18273205401367842373
23402655 69 18412266133641875540
23463225 33 18408602569624905052
23557571 272 17561092431577682543
23559900 14 18130510730506706342
3248919 1 17703798002390803031
474 4 17460322276765439324
5104073 3 18410293622587127816
6430166 295 18337952277577704377
69090 78 18413668011447129855
7364860 26 18198624526406676648
74978 22 18410574010926536172
7832392 63 18411419522594514684
93112 12 18411983584902014397
9709674 26 18341338871838262727

>  <PUBCHEM_SHAPE_MULTIPOLES>  (1) 
288.11
7.48
1.98
0.82
0.88
0.1
-0.13
0.79
-0.86
0.54
-0.06
-0.41
-0.12
-0.64

>  <PUBCHEM_SHAPE_SELFOVERLAP>  (1) 
572.469

>  <PUBCHEM_SHAPE_VOLUME>  (1) 
169.5

>  <PUBCHEM_COORDINATE_TYPE>  (1) 
2
5
10

$$$$
