4120
     RDKit          3D

 23 26  0  0  1  0  0  0  0  0999 V2000
   -4.6746   -0.4287    1.1857 O   0  0  0  0  0  0  0  0  0  0  0  0
    0.2977   -1.3716   -0.8665 O   0  0  0  0  0  0  0  0  0  0  0  0
    1.1802   -2.1529    1.1121 O   0  0  0  0  0  0  0  0  0  0  0  0
    3.5810   -3.2716   -0.4014 O   0  0  0  0  0  0  0  0  0  0  0  0
   -2.9070    1.0772   -0.4095 N   0  0  0  0  0  0  0  0  0  0  0  0
   -2.3636    0.5907    0.9714 C   0  0  0  0  0  0  0  0  0  0  0  0
   -3.3342   -0.3190   -0.9636 C   0  0  0  0  0  0  0  0  0  0  0  0
   -3.2747   -0.5347    1.4405 C   0  0  0  0  0  0  0  0  0  0  0  0
   -3.8934   -1.1141    0.2078 C   0  0  0  0  0  0  0  0  0  0  0  0
   -0.9668   -0.0267    0.7250 C   0  0  0  0  0  0  0  0  0  0  0  0
   -2.0491   -1.0413   -1.4328 C   0  0  0  0  0  0  0  0  0  0  0  0
   -0.9972   -1.1851   -0.3048 C   0  0  0  0  0  0  0  0  0  0  0  0
   -1.9230    1.8693   -1.2746 C   0  0  0  0  0  0  0  0  0  0  0  0
   -4.1087    2.0268   -0.2530 C   0  0  0  0  0  0  0  0  0  0  0  0
    1.3105   -1.5993    0.0278 C   0  0  0  0  0  0  0  0  0  0  0  0
    2.6230   -1.0543   -0.5280 C   0  0  0  0  0  0  0  0  0  0  0  0
    3.8032   -1.9102   -0.0463 C   0  0  0  0  0  0  0  0  0  0  0  0
    2.7950    0.4157   -0.1793 C   0  0  0  0  0  0  0  0  0  0  0  0
    2.3083    1.3705   -1.0499 C   0  0  0  0  0  0  0  0  0  0  0  0
    3.4323    0.7535    0.9979 C   0  0  0  0  0  0  0  0  0  0  0  0
    2.4657    2.7190   -0.7300 C   0  0  0  0  0  0  0  0  0  0  0  0
    3.5896    2.1021    1.3177 C   0  0  0  0  0  0  0  0  0  0  0  0
    3.1062    3.0848    0.4537 C   0  0  0  0  0  0  0  0  0  0  0  0
  1  8  1  0
  1  9  1  0
  2 12  1  0
  2 15  1  0
  3 15  2  0
  4 17  1  0
  5  6  1  0
  5  7  1  0
  5 13  1  0
  5 14  1  0
  6  8  1  0
  6 10  1  0
  7  9  1  0
  7 11  1  0
  8  9  1  0
 10 12  1  0
 11 12  1  0
 15 16  1  0
 16 17  1  0
 16 18  1  0
 18 19  2  0
 18 20  1  0
 19 21  1  0
 20 22  2  0
 21 23  2  0
 22 23  1  0
M  CHG  1   5   1
M  END
>  <PUBCHEM_COMPOUND_CID>  (1) 
4120

>  <PUBCHEM_CONFORMER_RMSD>  (1) 
0.8

>  <PUBCHEM_CONFORMER_DIVERSEORDER>  (1) 
1
50
27
85
10
98
78
108
95
96
63
100
91
53
14
7
73
81
40
102
89
43
49
101
71
58
106
15
61
76
19
69
44
62
60
105
18
67
59
80
57
97
54
24
70
107
13
37
99
11
31
103
86
46
94
33
9
52
16
51
45
3
93
92
82
77
6
65
74
84
30
75
42
48
83
25
87
2
5
22
72
79
66
35
20
34
4
26
47
68
90
29
12
36
38
104
21
39
32
28
64
88
17
23
8
55
41
56

>  <PUBCHEM_MMFF94_PARTIAL_CHARGES>  (1) 
29
1 -0.3
12 0.28
13 0.5
14 0.5
15 0.66
16 0.2
17 0.28
18 -0.14
19 -0.15
2 -0.43
20 -0.15
21 -0.15
22 -0.15
23 -0.15
26 0.1
27 0.1
3 -0.57
4 -0.68
42 0.15
43 0.15
44 0.4
45 0.15
46 0.15
47 0.15
5 -1.01
6 0.6
7 0.6
8 -0.05
9 -0.05

>  <PUBCHEM_EFFECTIVE_ROTOR_COUNT>  (1) 
6

>  <PUBCHEM_PHARMACOPHORE_FEATURES>  (1) 
8
1 1 acceptor
1 3 acceptor
1 4 acceptor
1 4 donor
1 5 cation
6 1 5 6 7 8 9 rings
6 18 19 20 21 22 23 rings
8 5 6 7 8 9 10 11 12 rings

>  <PUBCHEM_HEAVY_ATOM_COUNT>  (1) 
23

>  <PUBCHEM_ATOM_DEF_STEREO_COUNT>  (1) 
0

>  <PUBCHEM_ATOM_UDEF_STEREO_COUNT>  (1) 
5

>  <PUBCHEM_BOND_DEF_STEREO_COUNT>  (1) 
0

>  <PUBCHEM_BOND_UDEF_STEREO_COUNT>  (1) 
0

>  <PUBCHEM_ISOTOPIC_ATOM_COUNT>  (1) 
0

>  <PUBCHEM_COMPONENT_COUNT>  (1) 
1

>  <PUBCHEM_CACTVS_TAUTO_COUNT>  (1) 
1

>  <PUBCHEM_CONFORMER_ID>  (1) 
0000101800000001

>  <PUBCHEM_MMFF94_ENERGY>  (1) 
93.0891

>  <PUBCHEM_FEATURE_SELFOVERLAP>  (1) 
44.134

>  <PUBCHEM_SHAPE_FINGERPRINT>  (1) 
10366900 7 17676778586517868195
11405975 8 18338238159248584545
11640471 11 17845651585596084452
12173636 292 17060066955953007233
12403259 226 18261395490263956726
12403814 3 18339076107658190637
12422481 6 18052221117758429712
12507557 5 18341610361163235434
12633257 1 16805597075257478545
12788726 201 17399517828019724754
12916754 54 18413671297023635015
13134695 92 18268425733874639046
13224815 77 18339642338423339641
13583140 156 18335420102378323999
14223421 5 18335707173375278091
14289901 80 18259991504410286859
14950920 106 18195276401941772091
15342168 16 18268155438265289349
17492 89 18412541020149862255
1813 80 17914068507946737342
18186145 218 18131077055866357932
18335252 114 17763732205840111301
19930381 70 18193275410885445401
20681677 76 18334852792916474599
20715895 44 18055630612821967689
21524375 3 18198059390441105966
21864079 5 18343578547053716549
2255824 54 18341619222150596782
22749437 52 18339636845139426352
22854114 111 18341898519151061666
23227448 37 18341047540306596975
23557571 272 17603873329529075689
23559900 14 17821737113065811631
2838139 119 15122086564603149768
3286 77 18114468881115821654
4409770 3 17255117849167184718
469060 322 17618790592414222523
474 4 18267582588559697032
49207404 50 18188217614109827865
508706 21 17750782269018952917
5104073 3 18409169892118746067
5281201 14 18409453557038270383
5895379 119 15338298765493869530
6049 1 18186523167901934935
6287921 2 18335147539131153060
7808743 9 17761216913930187516
9709674 26 18334015007910927627
9981440 41 17981030131850814194

>  <PUBCHEM_SHAPE_MULTIPOLES>  (1) 
444.87
8.84
3.2
1.33
2.7
0.28
-0.1
1.38
-1.5
-3.77
0.29
0.45
0.17
0.78

>  <PUBCHEM_SHAPE_SELFOVERLAP>  (1) 
949.49

>  <PUBCHEM_SHAPE_VOLUME>  (1) 
247.2

>  <PUBCHEM_COORDINATE_TYPE>  (1) 
2
5
10

$$$$
