41207
     RDKit          3D

 15 16  0  0  1  0  0  0  0  0999 V2000
    0.0749    0.6864   -0.3427 C   0  0  0  0  0  0  0  0  0  0  0  0
    0.0747   -0.6866    0.3429 C   0  0  0  0  0  0  0  0  0  0  0  0
   -1.1710    1.5394   -0.0025 C   0  0  0  0  0  0  0  0  0  0  0  0
   -1.1713   -1.5393    0.0026 C   0  0  0  0  0  0  0  0  0  0  0  0
    2.3941   -0.0002    0.0001 C   0  0  0  0  0  0  0  0  0  0  0  0
    1.4535    1.2352    0.0383 C   0  0  0  0  0  0  0  0  0  0  0  0
    1.4534   -1.2356   -0.0377 C   0  0  0  0  0  0  0  0  0  0  0  0
   -2.4336    0.6956   -0.3259 C   0  0  0  0  0  0  0  0  0  0  0  0
   -2.4336   -0.6951    0.3265 C   0  0  0  0  0  0  0  0  0  0  0  0
   -1.1861    2.8052   -0.8824 C   0  0  0  0  0  0  0  0  0  0  0  0
   -1.2182    1.9954    1.4702 C   0  0  0  0  0  0  0  0  0  0  0  0
   -1.1867   -2.8054    0.8818 C   0  0  0  0  0  0  0  0  0  0  0  0
   -1.2190   -1.9946   -1.4704 C   0  0  0  0  0  0  0  0  0  0  0  0
    3.2849   -0.0318    1.2491 C   0  0  0  0  0  0  0  0  0  0  0  0
    3.2840    0.0315   -1.2498 C   0  0  0  0  0  0  0  0  0  0  0  0
  1  2  1  0
  1  3  1  0
  1  6  1  0
  2  4  1  0
  2  7  1  0
  3  8  1  0
  3 10  1  0
  3 11  1  0
  4  9  1  0
  4 12  1  0
  4 13  1  0
  5  6  1  0
  5  7  1  0
  5 14  1  0
  5 15  1  0
  8  9  1  0
M  END
>  <PUBCHEM_COMPOUND_CID>  (1) 
41207

>  <PUBCHEM_CONFORMER_RMSD>  (1) 
0.6

>  <PUBCHEM_CONFORMER_DIVERSEORDER>  (1) 
1
3
7
2
6
4
5
8
9

>  <PUBCHEM_MMFF94_PARTIAL_CHARGES>  (1) 
0

>  <PUBCHEM_EFFECTIVE_ROTOR_COUNT>  (1) 
1.4

>  <PUBCHEM_PHARMACOPHORE_FEATURES>  (1) 
5
3 3 10 11 hydrophobe
3 4 12 13 hydrophobe
3 5 14 15 hydrophobe
5 1 2 5 6 7 rings
6 1 2 3 4 8 9 rings

>  <PUBCHEM_HEAVY_ATOM_COUNT>  (1) 
15

>  <PUBCHEM_ATOM_DEF_STEREO_COUNT>  (1) 
0

>  <PUBCHEM_ATOM_UDEF_STEREO_COUNT>  (1) 
2

>  <PUBCHEM_BOND_DEF_STEREO_COUNT>  (1) 
0

>  <PUBCHEM_BOND_UDEF_STEREO_COUNT>  (1) 
0

>  <PUBCHEM_ISOTOPIC_ATOM_COUNT>  (1) 
0

>  <PUBCHEM_COMPONENT_COUNT>  (1) 
1

>  <PUBCHEM_CACTVS_TAUTO_COUNT>  (1) 
1

>  <PUBCHEM_CONFORMER_ID>  (1) 
0000A0F700000001

>  <PUBCHEM_MMFF94_ENERGY>  (1) 
58.9777

>  <PUBCHEM_FEATURE_SELFOVERLAP>  (1) 
25.432

>  <PUBCHEM_SHAPE_FINGERPRINT>  (1) 
1 1 17688301287940556060
11132069 177 18343580733334430065
12382932 28 18269835487579159162
12423570 1 8564006840975769413
12524768 44 18198626720728386839
13024252 1 16805326599802276017
13140716 1 18267021850182098176
13538477 17 18040718086631685762
14614273 12 18409159991923917340
14817 1 16195143825732570969
15001771 113 18120671372173320137
15309172 13 18192728747120748688
15490181 7 18050280367164278279
15775835 57 18264215703234829348
15852999 172 17978768152442553252
16752209 62 18336254657098556639
16945 1 18408323284854668423
193761 8 17759799248156448939
19868273 325 18265619964272010662
20510252 161 18341611499255794008
20511035 2 17838058470132643943
20525323 117 18339631326306631730
20645476 183 17894923909650372950
20645477 70 16969425703908991199
20871998 184 18343305889634334663
21296965 12 18195243313233719077
21296965 67 18122627424871153227
21524375 3 18052255098700956581
220403 375 17830439597217605493
22802520 49 18270982192629564270
232386 152 18335128809327466042
2334 1 17978508968219313264
23388829 49 17262988663882630828
23402539 116 18269255980743277943
23419403 2 17047048862359801261
23557571 272 18200592639477470456
23559900 14 18057048996323736558
257057 1 17908962637306977078
2748010 2 18341337780931717973
305870 269 17902783064299724522
353137 74 18337662019329245069
427121 178 16622984579647869753
5084963 1 18195529194630616840
53812654 25 18199463440787948039
81228 2 18412545439575387306

>  <PUBCHEM_SHAPE_MULTIPOLES>  (1) 
308.69
4.08
2.84
1.25
3.45
0
0
0
0
-2.12
0
0.18
0
-0.02

>  <PUBCHEM_SHAPE_SELFOVERLAP>  (1) 
628.534

>  <PUBCHEM_SHAPE_VOLUME>  (1) 
182.1

>  <PUBCHEM_COORDINATE_TYPE>  (1) 
2
5
10

$$$$
