4121
     RDKit          3D

 20 21  0  0  1  0  0  0  0  0999 V2000
    4.7823    2.3563   -0.5199 Cl  0  0  0  0  0  0  0  0  0  0  0  0
   -2.8503    2.7701    0.1946 Cl  0  0  0  0  0  0  0  0  0  0  0  0
    1.3934   -1.8015   -0.3693 S   0  0  0  0  0  0  0  0  0  0  0  0
   -3.7873   -0.3135   -0.0492 S   0  0  0  0  0  0  0  0  0  0  0  0
    0.9374   -2.9282    0.4208 O   0  0  0  0  0  0  0  0  0  0  0  0
    1.6477   -1.9361   -1.7907 O   0  0  0  0  0  0  0  0  0  0  0  0
   -4.5377    0.8435   -0.5285 O   0  0  0  0  0  0  0  0  0  0  0  0
   -3.8404   -1.5790   -0.7733 O   0  0  0  0  0  0  0  0  0  0  0  0
    2.7675   -1.0677    0.4016 N   0  0  0  0  0  0  0  0  0  0  0  0
    1.9816    1.2197   -0.0773 N   0  0  0  0  0  0  0  0  0  0  0  0
   -4.2639   -0.6043    1.5771 N   0  0  0  0  0  0  0  0  0  0  0  0
    3.0792    0.2734   -0.2103 C   0  0  0  0  0  0  0  0  0  0  0  0
    0.2114   -0.4968   -0.2111 C   0  0  0  0  0  0  0  0  0  0  0  0
    0.6482    0.8352   -0.1131 C   0  0  0  0  0  0  0  0  0  0  0  0
    4.3599    0.8757    0.3588 C   0  0  0  0  0  0  0  0  0  0  0  0
   -1.1421   -0.8430   -0.1899 C   0  0  0  0  0  0  0  0  0  0  0  0
    2.7598   -1.0709    1.8950 C   0  0  0  0  0  0  0  0  0  0  0  0
   -0.3441    1.8200    0.0175 C   0  0  0  0  0  0  0  0  0  0  0  0
   -2.1000    0.1585   -0.0684 C   0  0  0  0  0  0  0  0  0  0  0  0
   -1.7026    1.4887    0.0353 C   0  0  0  0  0  0  0  0  0  0  0  0
  1 15  1  0
  2 20  1  0
  3  5  2  0
  3  6  2  0
  3  9  1  0
  3 13  1  0
  4  7  2  0
  4  8  2  0
  4 11  1  0
  4 19  1  0
  9 12  1  0
  9 17  1  0
 10 12  1  0
 10 14  1  0
 12 15  1  0
 13 14  2  0
 13 16  1  0
 14 18  1  0
 16 19  2  0
 18 20  2  0
 19 20  1  0
M  END
>  <PUBCHEM_COMPOUND_CID>  (1) 
4121

>  <PUBCHEM_CONFORMER_RMSD>  (1) 
0.6

>  <PUBCHEM_CONFORMER_DIVERSEORDER>  (1) 
5
2
6
10
4
3
8
1
11
9
7

>  <PUBCHEM_MMFF94_PARTIAL_CHARGES>  (1) 
25
1 -0.29
10 -0.87
11 -0.98
12 0.72
13 -0.01
14 0.1
15 0.29
16 -0.15
17 0.36
18 -0.15
19 -0.01
2 -0.18
20 0.18
22 0.4
25 0.15
29 0.15
3 1.45
30 0.42
31 0.42
4 1.45
5 -0.65
6 -0.65
7 -0.65
8 -0.65
9 -0.85

>  <PUBCHEM_EFFECTIVE_ROTOR_COUNT>  (1) 
2.6

>  <PUBCHEM_PHARMACOPHORE_FEATURES>  (1) 
9
1 10 cation
1 10 donor
1 11 donor
1 5 acceptor
1 6 acceptor
1 7 acceptor
1 8 acceptor
6 13 14 16 18 19 20 rings
6 3 9 10 12 13 14 rings

>  <PUBCHEM_HEAVY_ATOM_COUNT>  (1) 
20

>  <PUBCHEM_ATOM_DEF_STEREO_COUNT>  (1) 
0

>  <PUBCHEM_ATOM_UDEF_STEREO_COUNT>  (1) 
1

>  <PUBCHEM_BOND_DEF_STEREO_COUNT>  (1) 
0

>  <PUBCHEM_BOND_UDEF_STEREO_COUNT>  (1) 
0

>  <PUBCHEM_ISOTOPIC_ATOM_COUNT>  (1) 
0

>  <PUBCHEM_COMPONENT_COUNT>  (1) 
1

>  <PUBCHEM_CACTVS_TAUTO_COUNT>  (1) 
1

>  <PUBCHEM_CONFORMER_ID>  (1) 
0000101900000005

>  <PUBCHEM_MMFF94_ENERGY>  (1) 
40.485

>  <PUBCHEM_FEATURE_SELFOVERLAP>  (1) 
45.723

>  <PUBCHEM_SHAPE_FINGERPRINT>  (1) 
10090160 65 18187078511695050190
10366900 7 17988635320456806137
10616163 171 18412262852497572023
10906281 52 18335998540015268209
10967382 1 18411417310575256148
11132069 177 18272643554429978283
11578080 2 17097198438385381596
12553582 1 18342173406022454135
13134695 92 11963395175834071454
13140716 1 18051700137608460033
13224815 77 18412543180628356689
13296908 3 18127692634606576831
14178342 30 18051118207872648626
14223421 5 18339362942268842021
14289901 80 18342171116546591563
14787075 74 18339923847648973360
14790565 3 18266186204319041564
15196674 1 18410854356332135804
15375358 24 18261109664817489675
15442244 35 17979353058374137243
15536298 74 18272090431319350494
16945 1 18201143408428880165
19591789 44 17834117824326653949
200 152 18271515464643618461
20510252 161 18272654536513992768
20645477 70 18270957939033542639
21267235 1 18411143493557136078
21421861 104 18116431432161905923
21501502 16 18337950073932349497
21524375 3 18342455972036967430
2334 1 17692530430889582821
23366157 5 18116157658299011182
23402539 116 18338790212506108933
23559900 14 18054786174542307502
2748010 2 18126004867083203413
296302 2 18333447647163158885
34934 24 18341609309365492999
350125 39 18409445856979742028
4340502 62 16950557830919433272
44154327 71 18410009966299935828
474 4 17677054663338087116
474229 33 18339642360024750758
5104073 3 18336264539823931112
58051976 378 18412261739821682028
7097593 13 17610327252019942138
7364860 26 18199468762463482998
81539 233 18410291406705879358
9709674 26 18268711602222870863

>  <PUBCHEM_SHAPE_MULTIPOLES>  (1) 
384.61
8.56
2.78
1.1
0.97
0.21
-0.24
2.95
-0.52
-0.71
0.2
-0.28
-0.55
-0.45

>  <PUBCHEM_SHAPE_SELFOVERLAP>  (1) 
765.944

>  <PUBCHEM_SHAPE_VOLUME>  (1) 
229.7

>  <PUBCHEM_COORDINATE_TYPE>  (1) 
2
5
10

$$$$
