41220
     RDKit          3D

 16 16  0  0  0  0  0  0  0  0999 V2000
    1.7651    0.2298   -0.4883 O   0  0  0  0  0  0  0  0  0  0  0  0
    3.9191   -0.7707   -0.4944 O   0  0  0  0  0  0  0  0  0  0  0  0
    4.0295    0.7683    1.2254 O   0  0  0  0  0  0  0  0  0  0  0  0
   -3.8338   -0.0382    0.1548 C   0  0  0  0  0  0  0  0  0  0  0  0
   -2.3079    0.0343   -0.0208 C   0  0  0  0  0  0  0  0  0  0  0  0
   -4.5277    0.3345   -1.1732 C   0  0  0  0  0  0  0  0  0  0  0  0
   -4.2779    0.9504    1.2546 C   0  0  0  0  0  0  0  0  0  0  0  0
   -4.3503   -1.4366    0.5628 C   0  0  0  0  0  0  0  0  0  0  0  0
   -1.7507    1.2353   -0.3818 C   0  0  0  0  0  0  0  0  0  0  0  0
   -1.5728   -1.1047    0.1923 C   0  0  0  0  0  0  0  0  0  0  0  0
   -0.3666    1.3017   -0.5403 C   0  0  0  0  0  0  0  0  0  0  0  0
   -0.1885   -1.0383    0.0336 C   0  0  0  0  0  0  0  0  0  0  0  0
    0.4146    0.1648   -0.3327 C   0  0  0  0  0  0  0  0  0  0  0  0
    2.5096   -0.9704   -0.2609 C   0  0  0  0  0  0  0  0  0  0  0  0
    4.5450    0.1242    0.3219 C   0  0  0  0  0  0  0  0  0  0  0  0
    5.9931    0.2156   -0.0529 C   0  0  0  0  0  0  0  0  0  0  0  0
  1 13  1  0
  1 14  1  0
  2 14  1  0
  2 15  1  0
  3 15  2  0
  4  5  1  0
  4  6  1  0
  4  7  1  0
  4  8  1  0
  5  9  2  0
  5 10  1  0
  9 11  1  0
 10 12  2  0
 11 13  2  0
 12 13  1  0
 15 16  1  0
M  END
>  <PUBCHEM_COMPOUND_CID>  (1) 
41220

>  <PUBCHEM_CONFORMER_RMSD>  (1) 
0.6

>  <PUBCHEM_CONFORMER_DIVERSEORDER>  (1) 
1
17
23
50
19
3
47
48
4
30
53
9
25
27
41
42
12
43
35
37
16
28
26
31
18
20
33
40
29
15
49
45
52
14
44
6
36
2
46
10
24
22
38
51
11
32
39
13
7
21
5
8
34

>  <PUBCHEM_MMFF94_PARTIAL_CHARGES>  (1) 
17
1 -0.36
10 -0.15
11 -0.15
12 -0.15
13 0.08
14 0.56
15 0.66
16 0.06
2 -0.43
26 0.15
27 0.15
28 0.15
29 0.15
3 -0.57
4 0.14
5 -0.14
9 -0.15

>  <PUBCHEM_EFFECTIVE_ROTOR_COUNT>  (1) 
5

>  <PUBCHEM_PHARMACOPHORE_FEATURES>  (1) 
4
1 1 acceptor
1 3 acceptor
4 4 6 7 8 hydrophobe
6 5 9 10 11 12 13 rings

>  <PUBCHEM_HEAVY_ATOM_COUNT>  (1) 
16

>  <PUBCHEM_ATOM_DEF_STEREO_COUNT>  (1) 
0

>  <PUBCHEM_ATOM_UDEF_STEREO_COUNT>  (1) 
0

>  <PUBCHEM_BOND_DEF_STEREO_COUNT>  (1) 
0

>  <PUBCHEM_BOND_UDEF_STEREO_COUNT>  (1) 
0

>  <PUBCHEM_ISOTOPIC_ATOM_COUNT>  (1) 
0

>  <PUBCHEM_COMPONENT_COUNT>  (1) 
1

>  <PUBCHEM_CACTVS_TAUTO_COUNT>  (1) 
1

>  <PUBCHEM_CONFORMER_ID>  (1) 
0000A10400000001

>  <PUBCHEM_MMFF94_ENERGY>  (1) 
53.6375

>  <PUBCHEM_FEATURE_SELFOVERLAP>  (1) 
20.299

>  <PUBCHEM_SHAPE_FINGERPRINT>  (1) 
10968037 39 18041002860306647886
11132069 177 18334016077500241583
11401426 45 18333446534893223391
12091667 2 17022621979035223862
12236239 1 16805039619162749518
13214271 11 18412825781282138087
13288520 33 18187085083406664527
13533116 47 16950552256605641304
13675066 3 18335141994349615463
13760787 19 15195565676250139973
14123238 8 18413951689420212422
14251731 8 17676204671412284556
15048467 5 17560806494151108977
15209294 21 18130234740050375521
15375358 24 18407760326359136174
17834072 33 16773790424437311844
17834076 25 18201720656734618158
18785283 64 18055343893495055848
19489759 90 16877938330642046829
200 152 17703785916516356007
20510252 161 18341050696754495424
20645477 70 12468630609073354784
22485316 2 18040995124638238763
22854114 59 18131069333610111594
2297311 6 18410866438834911948
23402539 116 18113049445932153991
23559900 14 18335987489301825102
26918003 58 16298107587847073352
3009799 131 18261097583438470357
34934 24 18188202118374492071
42788 4 17846780706754740110
5104073 3 18339644430088491186
542803 24 18060703888115101952
69090 78 18273209802849880334

>  <PUBCHEM_SHAPE_MULTIPOLES>  (1) 
311.66
11.88
1.29
0.96
11.77
0.1
-0.13
-0.15
-1.53
-0.82
-0.03
-0.51
-0.18
0.38

>  <PUBCHEM_SHAPE_SELFOVERLAP>  (1) 
635.515

>  <PUBCHEM_SHAPE_VOLUME>  (1) 
181.2

>  <PUBCHEM_COORDINATE_TYPE>  (1) 
2
5
10

$$$$
