4122
     RDKit          3D

 21 23  0  0  0  0  0  0  0  0999 V2000
   -5.7414    0.0650   -0.5593 S   0  0  0  0  0  0  0  0  0  0  0  0
   -3.5994   -1.8131   -1.1998 O   0  0  0  0  0  0  0  0  0  0  0  0
    6.1433    0.9240   -0.6104 O   0  0  0  0  0  0  0  0  0  0  0  0
    5.2470   -0.2580    1.1302 O   0  0  0  0  0  0  0  0  0  0  0  0
    1.5866    0.3856   -1.1430 N   0  0  0  0  0  0  0  0  0  0  0  0
    2.2606   -0.5837    0.7401 N   0  0  0  0  0  0  0  0  0  0  0  0
    3.9029    0.5205   -0.6351 N   0  0  0  0  0  0  0  0  0  0  0  0
    0.4556   -0.1492   -0.5815 C   0  0  0  0  0  0  0  0  0  0  0  0
    0.9024   -0.7488    0.5927 C   0  0  0  0  0  0  0  0  0  0  0  0
   -1.7872   -0.8144   -0.1487 C   0  0  0  0  0  0  0  0  0  0  0  0
   -0.8793   -0.1596   -0.9875 C   0  0  0  0  0  0  0  0  0  0  0  0
   -0.0234   -1.4021    1.4235 C   0  0  0  0  0  0  0  0  0  0  0  0
    2.6378    0.0999   -0.3170 C   0  0  0  0  0  0  0  0  0  0  0  0
   -1.3690   -1.4252    1.0359 C   0  0  0  0  0  0  0  0  0  0  0  0
   -3.1937   -0.8593   -0.5188 C   0  0  0  0  0  0  0  0  0  0  0  0
   -4.1270    0.1997   -0.0830 C   0  0  0  0  0  0  0  0  0  0  0  0
   -3.8383    1.2820    0.6646 C   0  0  0  0  0  0  0  0  0  0  0  0
   -5.0084    2.0680    0.8726 C   0  0  0  0  0  0  0  0  0  0  0  0
   -6.1149    1.5207    0.2613 C   0  0  0  0  0  0  0  0  0  0  0  0
    5.1092    0.3355    0.0676 C   0  0  0  0  0  0  0  0  0  0  0  0
    7.4365    0.8126   -0.0045 C   0  0  0  0  0  0  0  0  0  0  0  0
  1 16  1  0
  1 19  1  0
  2 15  2  0
  3 20  1  0
  3 21  1  0
  4 20  2  0
  5  8  1  0
  5 13  1  0
  6  9  1  0
  6 13  2  0
  7 13  1  0
  7 20  1  0
  8  9  2  0
  8 11  1  0
  9 12  1  0
 10 11  2  0
 10 14  1  0
 10 15  1  0
 12 14  2  0
 15 16  1  0
 16 17  2  0
 17 18  1  0
 18 19  2  0
M  END
>  <PUBCHEM_COMPOUND_CID>  (1) 
4122

>  <PUBCHEM_CONFORMER_RMSD>  (1) 
0.8

>  <PUBCHEM_CONFORMER_DIVERSEORDER>  (1) 
1
17
24
32
6
33
31
14
22
28
9
29
16
18
23
5
10
21
13
15
36
34
2
25
27
11
26
19
30
20
7
12
3
4
35
8

>  <PUBCHEM_MMFF94_PARTIAL_CHARGES>  (1) 
29
1 -0.08
10 0.09
11 -0.15
12 -0.15
13 0.25
14 -0.15
15 0.57
16 -0.05
17 -0.15
18 -0.15
19 -0.11
2 -0.57
20 0.78
21 0.28
22 0.15
23 0.27
24 0.15
25 0.15
26 0.37
27 0.15
28 0.15
29 0.15
3 -0.43
4 -0.57
5 0.03
6 -0.57
7 -0.49
8 -0.15
9 0.23

>  <PUBCHEM_EFFECTIVE_ROTOR_COUNT>  (1) 
5

>  <PUBCHEM_PHARMACOPHORE_FEATURES>  (1) 
7
1 2 acceptor
1 4 acceptor
1 5 donor
1 7 donor
5 1 16 17 18 19 rings
5 5 6 8 9 13 rings
6 8 9 10 11 12 14 rings

>  <PUBCHEM_HEAVY_ATOM_COUNT>  (1) 
21

>  <PUBCHEM_ATOM_DEF_STEREO_COUNT>  (1) 
0

>  <PUBCHEM_ATOM_UDEF_STEREO_COUNT>  (1) 
0

>  <PUBCHEM_BOND_DEF_STEREO_COUNT>  (1) 
0

>  <PUBCHEM_BOND_UDEF_STEREO_COUNT>  (1) 
0

>  <PUBCHEM_ISOTOPIC_ATOM_COUNT>  (1) 
0

>  <PUBCHEM_COMPONENT_COUNT>  (1) 
1

>  <PUBCHEM_CACTVS_TAUTO_COUNT>  (1) 
14

>  <PUBCHEM_CONFORMER_ID>  (1) 
0000101A00000001

>  <PUBCHEM_MMFF94_ENERGY>  (1) 
46.6829

>  <PUBCHEM_FEATURE_SELFOVERLAP>  (1) 
35.665

>  <PUBCHEM_SHAPE_FINGERPRINT>  (1) 
10 15 15068624911619509180
10087517 78 18412825767917974029
10411042 1 17840861100130653335
106641 1 17167869686058501937
10730089 173 18272934908084859361
10906281 52 18041575701770270510
11045977 3 13118008824651407237
11089746 13 18411135857268872612
11315181 36 18261110832674093406
11524674 6 14707211028158474169
117890 112 18412545418717865504
12091667 2 18271807959826103950
12236239 1 18335135376089868419
12616971 3 15430322481512343198
12670543 26 15195290793694917289
13533116 47 18335977572406942314
13540713 5 16445340011615545438
13631057 29 18115306813047400035
13668630 136 12535627180346571380
13914758 101 18060143094604515474
14251752 14 17775567511977451742
14251764 18 18040434416942504666
14341114 176 12901555645392118767
14739800 52 18129079191472417416
15048467 5 18410292506117331944
15183329 4 17203613648913973314
15209294 21 18334574625054149121
15475509 8 18188788149761445396
15716309 27 12179846108645895136
167882 2 17773886294058542823
17980427 23 18334580186836513740
18222031 100 11599719545841756502
18769570 83 18342458114556248865
19489759 90 18060701710086706415
19784866 240 11023818479770075873
20281389 69 18335419054158299364
20645477 56 18060138730828026383
21150785 3 15123505917543692444
21236236 1 17604153739328153763
21623969 137 15213016034095777008
21756936 100 18407762538958162899
21792961 116 16774086167190170814
22182313 1 16516514491626427015
22224240 67 16950003634452174529
23198884 109 17846782884240024557
23402539 116 18412541037323631758
23536379 177 18201720643786620750
23559900 14 14045443588467382050
26918003 58 14634871938159166981
270888 7 18126289641286686409
2838139 119 18201718457432502393
3009799 131 15554446284309298210
351380 3 10519981556812811045
4073 2 18409172142851199406
4340502 62 13623525745425664528
441001 317 18202846552378298025
474 4 18113341920810531477
5104073 3 17024031647948700496
5283173 99 17346604019267312368
5718773 13 12541566777516848337
59755656 520 18040433304372304763
6328613 192 18261681471247410684
636775 72 18338796823237224792
7226269 152 18409449171877245913
7808743 9 17986675875184072849

>  <PUBCHEM_SHAPE_MULTIPOLES>  (1) 
403.47
16.44
1.54
1.14
17.51
0.1
0.09
9.18
-0.04
-1.91
0.32
-0.2
-0.22
-1.33

>  <PUBCHEM_SHAPE_SELFOVERLAP>  (1) 
874.851

>  <PUBCHEM_SHAPE_VOLUME>  (1) 
222.3

>  <PUBCHEM_COORDINATE_TYPE>  (1) 
2
5
10

$$$$
