41226
     RDKit          3D

 17 19  0  0  0  0  0  0  0  0999 V2000
    4.0934    0.0301   -0.8467 S   0  0  0  0  0  0  0  0  0  0  0  0
   -2.4606   -1.4868   -0.4417 O   0  0  0  0  0  0  0  0  0  0  0  0
    2.1907    2.2292   -0.4637 O   0  0  0  0  0  0  0  0  0  0  0  0
   -4.7483   -1.7589   -0.2373 O   0  0  0  0  0  0  0  0  0  0  0  0
   -3.7459    0.2862    0.2558 N   0  0  0  0  0  0  0  0  0  0  0  0
   -2.4452    0.7143    0.2227 C   0  0  0  0  0  0  0  0  0  0  0  0
   -1.6909   -0.3601   -0.1970 C   0  0  0  0  0  0  0  0  0  0  0  0
    0.2674    0.9676   -0.0396 C   0  0  0  0  0  0  0  0  0  0  0  0
   -0.3235   -0.2646   -0.3389 C   0  0  0  0  0  0  0  0  0  0  0  0
   -1.8988    1.9406    0.5258 C   0  0  0  0  0  0  0  0  0  0  0  0
   -0.5138    2.0606    0.3891 C   0  0  0  0  0  0  0  0  0  0  0  0
    1.7074    1.1251   -0.1730 C   0  0  0  0  0  0  0  0  0  0  0  0
    2.6587   -0.0090    0.0281 C   0  0  0  0  0  0  0  0  0  0  0  0
   -3.7611   -1.0403   -0.1440 C   0  0  0  0  0  0  0  0  0  0  0  0
    2.4877   -1.0594    0.8369 C   0  0  0  0  0  0  0  0  0  0  0  0
    3.6171   -1.9239    0.7516 C   0  0  0  0  0  0  0  0  0  0  0  0
    4.5656   -1.4507   -0.1281 C   0  0  0  0  0  0  0  0  0  0  0  0
  1 13  1  0
  1 17  1  0
  2  7  1  0
  2 14  1  0
  3 12  2  0
  4 14  2  0
  5  6  1  0
  5 14  1  0
  6  7  2  0
  6 10  1  0
  7  9  1  0
  8  9  2  0
  8 11  1  0
  8 12  1  0
 10 11  2  0
 12 13  1  0
 13 15  2  0
 15 16  1  0
 16 17  2  0
M  END
>  <PUBCHEM_COMPOUND_CID>  (1) 
41226

>  <PUBCHEM_CONFORMER_RMSD>  (1) 
0.6

>  <PUBCHEM_CONFORMER_DIVERSEORDER>  (1) 
1
11
8
12
13
9
3
4
17
6
16
18
7
10
15
2
5
14

>  <PUBCHEM_MMFF94_PARTIAL_CHARGES>  (1) 
24
1 -0.08
10 -0.15
11 -0.15
12 0.57
13 -0.05
14 0.78
15 -0.15
16 -0.15
17 -0.11
18 0.15
19 0.15
2 -0.23
20 0.15
21 0.37
22 0.15
23 0.15
24 0.15
3 -0.57
4 -0.57
5 -0.55
6 0.12
7 0.08
8 0.09
9 -0.15

>  <PUBCHEM_EFFECTIVE_ROTOR_COUNT>  (1) 
2

>  <PUBCHEM_PHARMACOPHORE_FEATURES>  (1) 
6
1 3 acceptor
1 4 acceptor
1 5 donor
5 1 13 15 16 17 rings
5 2 5 6 7 14 rings
6 6 7 8 9 10 11 rings

>  <PUBCHEM_HEAVY_ATOM_COUNT>  (1) 
17

>  <PUBCHEM_ATOM_DEF_STEREO_COUNT>  (1) 
0

>  <PUBCHEM_ATOM_UDEF_STEREO_COUNT>  (1) 
0

>  <PUBCHEM_BOND_DEF_STEREO_COUNT>  (1) 
0

>  <PUBCHEM_BOND_UDEF_STEREO_COUNT>  (1) 
0

>  <PUBCHEM_ISOTOPIC_ATOM_COUNT>  (1) 
0

>  <PUBCHEM_COMPONENT_COUNT>  (1) 
1

>  <PUBCHEM_CACTVS_TAUTO_COUNT>  (1) 
5

>  <PUBCHEM_CONFORMER_ID>  (1) 
0000A10A00000001

>  <PUBCHEM_MMFF94_ENERGY>  (1) 
52.5622

>  <PUBCHEM_FEATURE_SELFOVERLAP>  (1) 
30.562

>  <PUBCHEM_SHAPE_FINGERPRINT>  (1) 
10062212 137 18343580746578073551
10616163 171 18340488842271130382
10618630 7 18411979161154264624
11046707 91 18341331110863338010
11543360 7 16443070542422110951
11578080 2 18115848764330977692
11769659 78 18409164402676027608
11806522 49 18408041823401293028
12032990 46 18412828014422434653
12553582 1 18409444765530560698
13140716 1 18272089366294646521
13288520 33 18341897351062447006
13583140 156 13830138256660867551
14144814 61 18411700941963217976
14576447 43 18334579036381330950
15196674 1 18411418405791890560
15375462 189 18261397702488339650
15442244 35 18410576141436394136
15536298 74 18341893021856920296
16752209 62 18267287764756065061
17804303 29 18202282480947789056
18186145 218 17458620142497014081
18222031 100 17845929732062915583
193927 3 18410584988910917707
19422 9 18336270033556197426
200 152 18408321090163394399
20281475 54 18335983061005523634
20291156 8 18410572877229236888
20559304 39 18340485659763407672
20645477 70 18336543923161994031
21267235 1 18411428318613703311
21501925 9 18412536635124681864
21634736 98 18337112366742356270
221490 88 18189343531312779042
2255824 54 18261680380304137724
22646028 28 18408603630566418050
23402539 116 18059566946127247733
23419403 2 14328562348046477549
23463225 33 18412265042698875301
23559900 14 18341041973860624504
23598291 2 18335152968091686572
2871803 45 18187361034580678842
31174 14 17489011781876053568
312423 11 18338531805788338181
335352 9 18340206293953314821
465052 167 18270687575063789279
474 4 17896330297430446412
5104073 3 18342740714824492721
7364860 26 18270679891551854328
76465 3 18411132537090243727
7970288 3 18412258441293008750
83771 10 18408602552492515044
94968 8 18334294275643862554
9709674 26 18262520406559907186

>  <PUBCHEM_SHAPE_MULTIPOLES>  (1) 
331.11
8.75
2.23
0.8
0.18
0.42
0.02
-5.34
-0.51
-0.32
0.15
0.4
-0.05
-0.99

>  <PUBCHEM_SHAPE_SELFOVERLAP>  (1) 
731.907

>  <PUBCHEM_SHAPE_VOLUME>  (1) 
180.3

>  <PUBCHEM_COORDINATE_TYPE>  (1) 
2
5
10

$$$$
