41225
     RDKit          3D

 18 20  0  0  0  0  0  0  0  0999 V2000
   -3.1125    0.7120    1.2311 O   0  0  0  0  0  0  0  0  0  0  0  0
    1.6389   -2.2238    0.9462 O   0  0  0  0  0  0  0  0  0  0  0  0
   -5.2914    1.2069    0.6332 O   0  0  0  0  0  0  0  0  0  0  0  0
   -3.8678    0.1190   -0.8570 N   0  0  0  0  0  0  0  0  0  0  0  0
   -2.5624   -0.2857   -0.7660 C   0  0  0  0  0  0  0  0  0  0  0  0
    0.0044   -0.8403    0.0054 C   0  0  0  0  0  0  0  0  0  0  0  0
   -2.1274    0.0776    0.4903 C   0  0  0  0  0  0  0  0  0  0  0  0
   -0.8413   -0.1874    0.9083 C   0  0  0  0  0  0  0  0  0  0  0  0
   -1.7591   -0.9287   -1.6802 C   0  0  0  0  0  0  0  0  0  0  0  0
   -0.4509   -1.2076   -1.2778 C   0  0  0  0  0  0  0  0  0  0  0  0
    1.3723   -1.1460    0.3947 C   0  0  0  0  0  0  0  0  0  0  0  0
    2.5031   -0.1993    0.1556 C   0  0  0  0  0  0  0  0  0  0  0  0
   -4.2048    0.7211    0.3445 C   0  0  0  0  0  0  0  0  0  0  0  0
    2.2356    1.0042   -0.4543 C   0  0  0  0  0  0  0  0  0  0  0  0
    3.7662   -0.5691    0.5553 C   0  0  0  0  0  0  0  0  0  0  0  0
    3.2911    1.8882   -0.6774 C   0  0  0  0  0  0  0  0  0  0  0  0
    4.8218    0.3151    0.3323 C   0  0  0  0  0  0  0  0  0  0  0  0
    4.5841    1.5438   -0.2841 C   0  0  0  0  0  0  0  0  0  0  0  0
  1  7  1  0
  1 13  1  0
  2 11  2  0
  3 13  2  0
  4  5  1  0
  4 13  1  0
  5  7  2  0
  5  9  1  0
  6  8  2  0
  6 10  1  0
  6 11  1  0
  7  8  1  0
  9 10  2  0
 11 12  1  0
 12 14  2  0
 12 15  1  0
 14 16  1  0
 15 17  2  0
 16 18  2  0
 17 18  1  0
M  END
>  <PUBCHEM_COMPOUND_CID>  (1) 
41225

>  <PUBCHEM_CONFORMER_RMSD>  (1) 
0.6

>  <PUBCHEM_CONFORMER_DIVERSEORDER>  (1) 
1
2

>  <PUBCHEM_MMFF94_PARTIAL_CHARGES>  (1) 
27
1 -0.23
10 -0.15
11 0.4
12 0.09
13 0.78
14 -0.15
15 -0.15
16 -0.15
17 -0.15
18 -0.15
19 0.15
2 -0.57
20 0.15
21 0.15
22 0.37
23 0.15
24 0.15
25 0.15
26 0.15
27 0.15
3 -0.57
4 -0.55
5 0.12
6 0.09
7 0.08
8 -0.15
9 -0.15

>  <PUBCHEM_EFFECTIVE_ROTOR_COUNT>  (1) 
2

>  <PUBCHEM_PHARMACOPHORE_FEATURES>  (1) 
6
1 2 acceptor
1 3 acceptor
1 4 donor
5 1 4 5 7 13 rings
6 12 14 15 16 17 18 rings
6 5 6 7 8 9 10 rings

>  <PUBCHEM_HEAVY_ATOM_COUNT>  (1) 
18

>  <PUBCHEM_ATOM_DEF_STEREO_COUNT>  (1) 
0

>  <PUBCHEM_ATOM_UDEF_STEREO_COUNT>  (1) 
0

>  <PUBCHEM_BOND_DEF_STEREO_COUNT>  (1) 
0

>  <PUBCHEM_BOND_UDEF_STEREO_COUNT>  (1) 
0

>  <PUBCHEM_ISOTOPIC_ATOM_COUNT>  (1) 
0

>  <PUBCHEM_COMPONENT_COUNT>  (1) 
1

>  <PUBCHEM_CACTVS_TAUTO_COUNT>  (1) 
5

>  <PUBCHEM_CONFORMER_ID>  (1) 
0000A10900000001

>  <PUBCHEM_MMFF94_ENERGY>  (1) 
64.3623

>  <PUBCHEM_FEATURE_SELFOVERLAP>  (1) 
30.562

>  <PUBCHEM_SHAPE_FINGERPRINT>  (1) 
10354089 29 18334580130949041112
10498660 4 17275103912221716745
11640471 11 18272092712026151236
11796584 16 16486977298058850310
12236239 1 18272928328189440122
12251169 10 16081372981108739982
12633257 1 16443348727512148480
14420673 8 13265445521634011184
15342168 16 17968948611821715284
15653759 3 15791443838281009028
15775835 57 18342458166295900292
1798214 20 9583520906033733864
1813 80 17838055906154213278
18186145 218 18261388979731683566
19049666 15 16445293600341090078
19784866 9 18408039593970323536
19868273 293 17418094347015044646
204376 136 18186803603618190994
20645476 183 18060132171970218055
20871999 31 17059766831948787943
21033648 29 17023167349476889884
22079108 93 18260270788932480371
22854114 59 17530683216575549638
23366157 5 17485665762193243999
23402539 116 16988836177205185988
23402655 69 18271807969096429580
23557571 272 16056018298770104346
25 1 18333447673159874402
2838139 119 18189882137972439533
298252 57 17846219972841419974
3472631 163 17846498174894951392
4325135 7 18410014369073995819
4340502 62 18041007228483865979
465052 167 8646479739492143865
474 4 18335138726111514320
4990 188 14333403433229056871
5104073 3 17896874551470005512
633830 44 18409731789910953782
76465 3 10519719855986733724
77492 1 18272077310410824750
8272917 22 18336830775390448778
83771 10 9367352522198465826

>  <PUBCHEM_SHAPE_MULTIPOLES>  (1) 
347.84
9.77
1.62
1.19
1.01
0.06
-0.23
-5.19
0.93
-0.93
-0.01
0.64
0.22
-1.31

>  <PUBCHEM_SHAPE_SELFOVERLAP>  (1) 
781.398

>  <PUBCHEM_SHAPE_VOLUME>  (1) 
183.1

>  <PUBCHEM_COORDINATE_TYPE>  (1) 
2
5
10

$$$$
