41236
     RDKit          3D

 15 16  0  0  1  0  0  0  0  0999 V2000
    0.9371   -0.8164    0.1941 C   0  0  0  0  0  0  0  0  0  0  0  0
    1.3492    0.5610   -0.3809 C   0  0  0  0  0  0  0  0  0  0  0  0
   -0.2924   -0.7404    1.1005 C   0  0  0  0  0  0  0  0  0  0  0  0
   -1.4681   -0.0820    0.3810 C   0  0  0  0  0  0  0  0  0  0  0  0
    2.0992   -1.5107    0.9213 C   0  0  0  0  0  0  0  0  0  0  0  0
    2.6021    0.4117   -1.2622 C   0  0  0  0  0  0  0  0  0  0  0  0
    3.3340   -1.6283    0.0316 C   0  0  0  0  0  0  0  0  0  0  0  0
   -1.8432   -0.8725   -0.8798 C   0  0  0  0  0  0  0  0  0  0  0  0
   -2.6734    0.0506    1.3214 C   0  0  0  0  0  0  0  0  0  0  0  0
    3.7570   -0.2804   -0.5417 C   0  0  0  0  0  0  0  0  0  0  0  0
    1.5594    1.6420    0.6863 C   0  0  0  0  0  0  0  0  0  0  0  0
   -3.0511   -0.2636   -1.5884 C   0  0  0  0  0  0  0  0  0  0  0  0
   -3.8800    0.6579    0.6093 C   0  0  0  0  0  0  0  0  0  0  0  0
   -4.2444   -0.1253   -0.6482 C   0  0  0  0  0  0  0  0  0  0  0  0
    1.8145    2.9965    0.0556 C   0  0  0  0  0  0  0  0  0  0  0  0
  1  2  1  0
  1  3  1  0
  1  5  1  0
  2  6  1  0
  2 11  1  0
  3  4  1  0
  4  8  1  0
  4  9  1  0
  5  7  1  0
  6 10  1  0
  7 10  1  0
  8 12  1  0
  9 13  1  0
 11 15  1  0
 12 14  1  0
 13 14  1  0
M  END
>  <PUBCHEM_COMPOUND_CID>  (1) 
41236

>  <PUBCHEM_CONFORMER_RMSD>  (1) 
0.6

>  <PUBCHEM_CONFORMER_DIVERSEORDER>  (1) 
1
16
43
29
41
12
20
34
7
46
27
33
11
24
25
47
30
42
39
32
26
3
14
44
2
15
4
45
5
17
21
40
28
31
8
6
22
35
18
19
10
36
37
9
13
23
38

>  <PUBCHEM_MMFF94_PARTIAL_CHARGES>  (1) 
0

>  <PUBCHEM_EFFECTIVE_ROTOR_COUNT>  (1) 
5.4

>  <PUBCHEM_PHARMACOPHORE_FEATURES>  (1) 
3
1 15 hydrophobe
6 1 2 5 6 7 10 rings
6 4 8 9 12 13 14 rings

>  <PUBCHEM_HEAVY_ATOM_COUNT>  (1) 
15

>  <PUBCHEM_ATOM_DEF_STEREO_COUNT>  (1) 
0

>  <PUBCHEM_ATOM_UDEF_STEREO_COUNT>  (1) 
2

>  <PUBCHEM_BOND_DEF_STEREO_COUNT>  (1) 
0

>  <PUBCHEM_BOND_UDEF_STEREO_COUNT>  (1) 
0

>  <PUBCHEM_ISOTOPIC_ATOM_COUNT>  (1) 
0

>  <PUBCHEM_COMPONENT_COUNT>  (1) 
1

>  <PUBCHEM_CACTVS_TAUTO_COUNT>  (1) 
1

>  <PUBCHEM_CONFORMER_ID>  (1) 
0000A11400000001

>  <PUBCHEM_MMFF94_ENERGY>  (1) 
18.2181

>  <PUBCHEM_FEATURE_SELFOVERLAP>  (1) 
15.223

>  <PUBCHEM_SHAPE_FINGERPRINT>  (1) 
104564 63 18119532029177343596
10465860 71 17846511321952725380
10498660 4 15357970140853503679
10608611 8 16732703843913449055
11031198 65 18040439892698889406
11471102 20 18113622265915638966
11578080 2 17771598206050115624
11615757 297 18409168805465860059
12654215 9 18113617889570583828
12932764 1 17822003229308011139
13134695 92 18336257964629550036
13464514 151 18267593588166627540
13764800 53 15791728573322474885
14250199 8 18340770437443465845
14350558 41 16200157590186374006
14787075 74 12256176537802181393
14993402 34 18273218582100604406
15219456 202 17022625260253347763
15775835 57 18408044030444784295
16945 1 18408603673558152714
17834072 14 14979951445843020123
18186145 218 18411412934430836375
20233049 118 18113616768499931420
20645476 183 18131348618391352895
20671657 1 18340488992357479020
20671657 53 18342454807578571340
21486144 27 18114740546603090157
21524375 3 17695903715426435176
21639500 275 18335979856453505645
22112679 90 18055089674359108640
2255824 54 18341612663434387604
22854114 111 18408604790049228513
22892500 29 18333725840500135932
23175994 123 18188497869574360466
232386 152 16415470575829694839
23402539 116 18201439113070274206
23402655 69 18260547784094647447
23419403 2 15655987218480123034
23526113 38 16950847977229574730
23532345 12 17775565325601656173
23557571 272 14404916751472684185
23559900 14 15410621324701785222
23598291 2 18131919268814732781
25 1 18186526500970766218
2748010 2 17901963150900957568
276578 36 11891334240290072400
3060560 45 18343581837056921790
3082319 5 17631736083553124517
312423 11 17987803033236192583
3286 77 18334292072045876623
474 4 18195240246553742776
6438718 38 17913214161225348377
7364860 26 18272082850944952040
74978 22 18341612658944429767
7615 1 17846498162257540785
77492 1 18131635564781572539
81228 2 15950724280832803811
84936 182 17915174848023894312
9939556 21 18131348652407796791
9981440 41 17479157013917713872

>  <PUBCHEM_SHAPE_MULTIPOLES>  (1) 
308.69
7.28
1.93
1.32
4.12
1.5
0.14
-0.63
1.36
-2.16
-0.29
0.64
-0.12
-0.45

>  <PUBCHEM_SHAPE_SELFOVERLAP>  (1) 
609.553

>  <PUBCHEM_SHAPE_VOLUME>  (1) 
181.5

>  <PUBCHEM_COORDINATE_TYPE>  (1) 
2
5
10

$$$$
