41240
     RDKit          3D

 21 22  0  0  0  0  0  0  0  0999 V2000
    0.8740   -3.0416   -0.9098 O   0  0  0  0  0  0  0  0  0  0  0  0
   -2.8423   -0.4826   -0.2322 N   0  0  0  0  0  0  0  0  0  0  0  0
    0.8606   -0.7186   -0.7039 N   0  0  0  0  0  0  0  0  0  0  0  0
   -1.4439   -0.6083    0.1576 C   0  0  0  0  0  0  0  0  0  0  0  0
   -3.0614    0.7595   -0.9759 C   0  0  0  0  0  0  0  0  0  0  0  0
   -3.7124   -0.5287    0.9448 C   0  0  0  0  0  0  0  0  0  0  0  0
   -0.5508   -0.6215   -1.0743 C   0  0  0  0  0  0  0  0  0  0  0  0
    1.5331    0.4932   -0.3197 C   0  0  0  0  0  0  0  0  0  0  0  0
    2.8778   -0.7425    1.4577 C   0  0  0  0  0  0  0  0  0  0  0  0
    3.5906   -1.7953    0.6223 C   0  0  0  0  0  0  0  0  0  0  0  0
    2.5417    0.4985    0.6704 C   0  0  0  0  0  0  0  0  0  0  0  0
    2.9983   -1.9846   -0.7633 C   0  0  0  0  0  0  0  0  0  0  0  0
    1.4809   -1.9761   -0.7716 C   0  0  0  0  0  0  0  0  0  0  0  0
   -2.6893    1.9640   -0.1158 C   0  0  0  0  0  0  0  0  0  0  0  0
   -4.5181    0.8341   -1.4222 C   0  0  0  0  0  0  0  0  0  0  0  0
   -3.3723    0.6124    1.8993 C   0  0  0  0  0  0  0  0  0  0  0  0
   -3.5640   -1.8818    1.6332 C   0  0  0  0  0  0  0  0  0  0  0  0
    1.1632    1.7169   -0.9067 C   0  0  0  0  0  0  0  0  0  0  0  0
    3.1896    1.7017    0.9983 C   0  0  0  0  0  0  0  0  0  0  0  0
    1.8128    2.9050   -0.5665 C   0  0  0  0  0  0  0  0  0  0  0  0
    2.8317    2.8961    0.3782 C   0  0  0  0  0  0  0  0  0  0  0  0
  1 13  2  0
  2  4  1  0
  2  5  1  0
  2  6  1  0
  3  7  1  0
  3  8  1  0
  3 13  1  0
  4  7  1  0
  5 14  1  0
  5 15  1  0
  6 16  1  0
  6 17  1  0
  8 11  2  0
  8 18  1  0
  9 10  1  0
  9 11  1  0
 10 12  1  0
 11 19  1  0
 12 13  1  0
 18 20  2  0
 19 21  2  0
 20 21  1  0
M  END
>  <PUBCHEM_COMPOUND_CID>  (1) 
41240

>  <PUBCHEM_CONFORMER_RMSD>  (1) 
0.8

>  <PUBCHEM_CONFORMER_DIVERSEORDER>  (1) 
2
8
6
3
4
10
11
7
1
5
9

>  <PUBCHEM_MMFF94_PARTIAL_CHARGES>  (1) 
20
1 -0.57
11 -0.14
12 0.06
13 0.57
18 -0.15
19 -0.15
2 -0.81
20 -0.15
21 -0.15
3 -0.48
4 0.27
46 0.15
47 0.15
48 0.15
49 0.15
5 0.27
6 0.27
7 0.3
8 0.12
9 0.14

>  <PUBCHEM_EFFECTIVE_ROTOR_COUNT>  (1) 
5.8

>  <PUBCHEM_PHARMACOPHORE_FEATURES>  (1) 
6
1 1 acceptor
1 2 cation
3 5 14 15 hydrophobe
3 6 16 17 hydrophobe
6 8 11 18 19 20 21 rings
7 3 8 9 10 11 12 13 rings

>  <PUBCHEM_HEAVY_ATOM_COUNT>  (1) 
21

>  <PUBCHEM_ATOM_DEF_STEREO_COUNT>  (1) 
0

>  <PUBCHEM_ATOM_UDEF_STEREO_COUNT>  (1) 
0

>  <PUBCHEM_BOND_DEF_STEREO_COUNT>  (1) 
0

>  <PUBCHEM_BOND_UDEF_STEREO_COUNT>  (1) 
0

>  <PUBCHEM_ISOTOPIC_ATOM_COUNT>  (1) 
0

>  <PUBCHEM_COMPONENT_COUNT>  (1) 
1

>  <PUBCHEM_CACTVS_TAUTO_COUNT>  (1) 
1

>  <PUBCHEM_CONFORMER_ID>  (1) 
0000A11800000002

>  <PUBCHEM_MMFF94_ENERGY>  (1) 
92.743

>  <PUBCHEM_FEATURE_SELFOVERLAP>  (1) 
30.46

>  <PUBCHEM_SHAPE_FINGERPRINT>  (1) 
10366900 7 18261673649747422247
10382601 240 18336822091741802600
11578080 2 16515950523965593590
11640471 11 17418369199215403909
12403259 327 17459169842217884193
12422481 6 18195497412890816984
12553582 1 18195541289321767574
12633257 1 18261393282856293897
12670545 47 18261111842329167535
12760667 363 17760363297685795562
12788726 201 16825315411921461167
13134695 92 18267298729813093846
13140716 1 18408889516474483289
13224815 77 18272373104887368125
13583140 156 18186512198809051731
14223421 5 18261397805446228715
14289901 80 17458912655450069657
14790565 3 18410854408864306132
1601671 61 18341615893761360670
17349148 13 18270949172989317399
17492 89 18338507633997850239
1813 80 17486515719083256518
192875 21 18270386214377785941
20510252 161 17116906475754574396
20600515 1 17972047933400600262
20645477 70 18337378396805810589
20681677 76 18334290998435921303
20739085 24 18340212903907781744
21033648 29 17630870621577921170
21524375 3 17983018052810181788
21731516 1 12757140286246523029
21864079 5 17274554212247925609
22749437 52 18273490178520366601
23184049 59 18341317934362720190
23557571 272 17894918481360252441
23559900 14 18040723562751879415
2748010 2 18050816998344301292
2838139 119 14044589302672134610
312423 11 17561090193968286551
3797600 57 17699028467210663715
469060 322 17836356426159512799
474 4 18272080600118344607
49207404 50 18265627652448340371
6049 1 18260561008531008287
633830 44 17703246099172687157
7364860 26 18413388739572500684
7615 1 17418095391024270281
81228 2 17474400075643796950
9709674 26 18334287678542382637

>  <PUBCHEM_SHAPE_MULTIPOLES>  (1) 
416.34
7.94
3.17
1.53
5.75
0.51
-0.39
0.26
-1.8
-2.78
0.36
0.96
-0.24
1.22

>  <PUBCHEM_SHAPE_SELFOVERLAP>  (1) 
858.251

>  <PUBCHEM_SHAPE_VOLUME>  (1) 
239.8

>  <PUBCHEM_COORDINATE_TYPE>  (1) 
2
5
10

$$$$
