41242
     RDKit          3D

 19 21  0  0  0  0  0  0  0  0999 V2000
    0.3174    3.0496    0.3768 O   0  0  0  0  0  0  0  0  0  0  0  0
   -2.9831   -0.4131    0.0561 N   0  0  0  0  0  0  0  0  0  0  0  0
    0.5461    0.7326    0.5148 N   0  0  0  0  0  0  0  0  0  0  0  0
   -3.7068   -1.1602   -0.9721 C   0  0  0  0  0  0  0  0  0  0  0  0
   -3.7155    0.8451    0.1975 C   0  0  0  0  0  0  0  0  0  0  0  0
   -5.1638   -0.9202   -0.6051 C   0  0  0  0  0  0  0  0  0  0  0  0
   -5.1699    0.3995    0.1605 C   0  0  0  0  0  0  0  0  0  0  0  0
   -1.5844   -0.2061   -0.2886 C   0  0  0  0  0  0  0  0  0  0  0  0
   -0.8691    0.5391    0.8287 C   0  0  0  0  0  0  0  0  0  0  0  0
    1.3572   -0.4427    0.3451 C   0  0  0  0  0  0  0  0  0  0  0  0
    2.6809    0.6652   -1.5297 C   0  0  0  0  0  0  0  0  0  0  0  0
    3.2332    1.8955   -0.8260 C   0  0  0  0  0  0  0  0  0  0  0  0
    2.4208   -0.4805   -0.5850 C   0  0  0  0  0  0  0  0  0  0  0  0
    2.5406    2.2149    0.4875 C   0  0  0  0  0  0  0  0  0  0  0  0
    1.0339    2.0460    0.4256 C   0  0  0  0  0  0  0  0  0  0  0  0
    1.0743   -1.6032    1.0879 C   0  0  0  0  0  0  0  0  0  0  0  0
    3.2032   -1.6420   -0.7014 C   0  0  0  0  0  0  0  0  0  0  0  0
    1.8577   -2.7515    0.9571 C   0  0  0  0  0  0  0  0  0  0  0  0
    2.9272   -2.7680    0.0703 C   0  0  0  0  0  0  0  0  0  0  0  0
  1 15  2  0
  2  4  1  0
  2  5  1  0
  2  8  1  0
  3  9  1  0
  3 10  1  0
  3 15  1  0
  4  6  1  0
  5  7  1  0
  6  7  1  0
  8  9  1  0
 10 13  2  0
 10 16  1  0
 11 12  1  0
 11 13  1  0
 12 14  1  0
 13 17  1  0
 14 15  1  0
 16 18  2  0
 17 19  2  0
 18 19  1  0
M  END
>  <PUBCHEM_COMPOUND_CID>  (1) 
41242

>  <PUBCHEM_CONFORMER_RMSD>  (1) 
0.6

>  <PUBCHEM_CONFORMER_DIVERSEORDER>  (1) 
1
10
33
27
22
35
19
23
30
18
28
8
9
16
26
6
29
31
32
7
24
17
25
21
20
12
11
34
2
14
3
13
15
5
4

>  <PUBCHEM_MMFF94_PARTIAL_CHARGES>  (1) 
20
1 -0.57
10 0.12
11 0.14
13 -0.14
14 0.06
15 0.57
16 -0.15
17 -0.15
18 -0.15
19 -0.15
2 -0.81
3 -0.48
38 0.15
39 0.15
4 0.27
40 0.15
41 0.15
5 0.27
8 0.27
9 0.3

>  <PUBCHEM_EFFECTIVE_ROTOR_COUNT>  (1) 
4.8

>  <PUBCHEM_PHARMACOPHORE_FEATURES>  (1) 
5
1 1 acceptor
1 2 cation
5 2 4 5 6 7 rings
6 10 13 16 17 18 19 rings
7 3 10 11 12 13 14 15 rings

>  <PUBCHEM_HEAVY_ATOM_COUNT>  (1) 
19

>  <PUBCHEM_ATOM_DEF_STEREO_COUNT>  (1) 
0

>  <PUBCHEM_ATOM_UDEF_STEREO_COUNT>  (1) 
0

>  <PUBCHEM_BOND_DEF_STEREO_COUNT>  (1) 
0

>  <PUBCHEM_BOND_UDEF_STEREO_COUNT>  (1) 
0

>  <PUBCHEM_ISOTOPIC_ATOM_COUNT>  (1) 
0

>  <PUBCHEM_COMPONENT_COUNT>  (1) 
1

>  <PUBCHEM_CACTVS_TAUTO_COUNT>  (1) 
1

>  <PUBCHEM_CONFORMER_ID>  (1) 
0000A11A00000001

>  <PUBCHEM_MMFF94_ENERGY>  (1) 
55.2298

>  <PUBCHEM_FEATURE_SELFOVERLAP>  (1) 
25.384

>  <PUBCHEM_SHAPE_FINGERPRINT>  (1) 
10693767 8 18201727245404881430
11265709 11 18192710034380886714
12553582 1 18267578014325133395
12616999 72 18260551164096791549
12730499 353 18262528120785323083
13009979 54 17702677535649550731
13083527 12 18264192657094050864
13464514 151 18338239391867456774
13533116 47 18410852188392159215
14863182 85 18412258437598732938
15210252 30 17821738255332596949
15442244 35 18270119003050652073
15502722 9 18335139820985224963
16945 1 18118147826169613002
17818456 19 17702109067296312873
18186145 218 17458346316952126643
19078846 21 18200031720895991153
20291156 8 18268989795802590059
20369508 70 18411974741754333787
20567600 347 18190170381294842626
20626108 58 17988346118760414559
20645477 70 18341895199368455239
21054139 6 17982999339511202695
21421861 104 18262513689473870632
21452121 199 18264193726261456170
21634736 98 18337961064943401626
22112679 90 17985282788944121464
221490 88 18409173246356913019
2255824 54 18339921614360886007
23419403 2 17536552341684692520
23557571 272 17772751576883865050
23559900 14 18342166744354429715
23596394 208 18261376863602457711
23598291 2 18272097054549428089
238 59 18263934387113841107
25 1 18263084469110259500
2748010 2 17834988599603638508
2838139 119 16010168694489094652
3060560 45 18264483073596962388
312423 11 18342182146391658483
3323516 105 18335708285993386443
34934 24 18131067185931551308
474 4 18115871973848272725
5104073 3 18343585140614435203
5281201 14 17967530138916450221
54040823 5 18131077068788196190
543358 83 18411986823597479897
59682541 52 18120341360784100439
7164475 11 18193843639332171924
7364860 26 18412258449966235026
7471813 234 18338511916137636274
9709674 26 18337668741396759819

>  <PUBCHEM_SHAPE_MULTIPOLES>  (1) 
375.18
8.7
3.05
1.09
14.31
0.09
0.15
-1.63
2.26
-3.62
-0.59
-0.44
-0.1
-0.82

>  <PUBCHEM_SHAPE_SELFOVERLAP>  (1) 
790.473

>  <PUBCHEM_SHAPE_VOLUME>  (1) 
210.8

>  <PUBCHEM_COORDINATE_TYPE>  (1) 
2
5
10

$$$$
