41244
     RDKit          3D

 17 18  0  0  0  0  0  0  0  0999 V2000
   -0.9024    2.7454    0.4633 O   0  0  0  0  0  0  0  0  0  0  0  0
   -0.1787    0.5291    0.5211 N   0  0  0  0  0  0  0  0  0  0  0  0
   -3.5559   -0.9061   -0.2039 N   0  0  0  0  0  0  0  0  0  0  0  0
    1.9552    1.0106   -1.4682 C   0  0  0  0  0  0  0  0  0  0  0  0
    2.2149    2.3007   -0.7050 C   0  0  0  0  0  0  0  0  0  0  0  0
    0.8711   -0.4348    0.3290 C   0  0  0  0  0  0  0  0  0  0  0  0
    1.9336   -0.2027   -0.5738 C   0  0  0  0  0  0  0  0  0  0  0  0
    1.4467    2.4073    0.6008 C   0  0  0  0  0  0  0  0  0  0  0  0
   -1.5233    0.0212    0.7905 C   0  0  0  0  0  0  0  0  0  0  0  0
    0.0138    1.9194    0.4934 C   0  0  0  0  0  0  0  0  0  0  0  0
   -2.2302   -0.3767   -0.4969 C   0  0  0  0  0  0  0  0  0  0  0  0
    0.8339   -1.6591    1.0206 C   0  0  0  0  0  0  0  0  0  0  0  0
    2.9515   -1.1617   -0.7129 C   0  0  0  0  0  0  0  0  0  0  0  0
    1.8502   -2.6043    0.8676 C   0  0  0  0  0  0  0  0  0  0  0  0
    2.9131   -2.3520    0.0090 C   0  0  0  0  0  0  0  0  0  0  0  0
   -4.2276   -1.3265   -1.4352 C   0  0  0  0  0  0  0  0  0  0  0  0
   -4.3657    0.0900    0.5005 C   0  0  0  0  0  0  0  0  0  0  0  0
  1 10  2  0
  2  6  1  0
  2  9  1  0
  2 10  1  0
  3 11  1  0
  3 16  1  0
  3 17  1  0
  4  5  1  0
  4  7  1  0
  5  8  1  0
  6  7  2  0
  6 12  1  0
  7 13  1  0
  8 10  1  0
  9 11  1  0
 12 14  2  0
 13 15  2  0
 14 15  1  0
M  END
>  <PUBCHEM_COMPOUND_CID>  (1) 
41244

>  <PUBCHEM_CONFORMER_RMSD>  (1) 
0.6

>  <PUBCHEM_CONFORMER_DIVERSEORDER>  (1) 
4
11
10
8
7
14
6
1
12
2
13
5
9
3

>  <PUBCHEM_MMFF94_PARTIAL_CHARGES>  (1) 
20
1 -0.57
10 0.57
11 0.27
12 -0.15
13 -0.15
14 -0.15
15 -0.15
16 0.27
17 0.27
2 -0.48
28 0.15
29 0.15
3 -0.81
30 0.15
31 0.15
4 0.14
6 0.12
7 -0.14
8 0.06
9 0.3

>  <PUBCHEM_EFFECTIVE_ROTOR_COUNT>  (1) 
3.8

>  <PUBCHEM_PHARMACOPHORE_FEATURES>  (1) 
4
1 1 acceptor
1 3 cation
6 6 7 12 13 14 15 rings
7 2 4 5 6 7 8 10 rings

>  <PUBCHEM_HEAVY_ATOM_COUNT>  (1) 
17

>  <PUBCHEM_ATOM_DEF_STEREO_COUNT>  (1) 
0

>  <PUBCHEM_ATOM_UDEF_STEREO_COUNT>  (1) 
0

>  <PUBCHEM_BOND_DEF_STEREO_COUNT>  (1) 
0

>  <PUBCHEM_BOND_UDEF_STEREO_COUNT>  (1) 
0

>  <PUBCHEM_ISOTOPIC_ATOM_COUNT>  (1) 
0

>  <PUBCHEM_COMPONENT_COUNT>  (1) 
1

>  <PUBCHEM_CACTVS_TAUTO_COUNT>  (1) 
1

>  <PUBCHEM_CONFORMER_ID>  (1) 
0000A11C00000004

>  <PUBCHEM_MMFF94_ENERGY>  (1) 
58.331

>  <PUBCHEM_FEATURE_SELFOVERLAP>  (1) 
20.309

>  <PUBCHEM_SHAPE_FINGERPRINT>  (1) 
11265709 11 18264768749231108074
11578080 2 18118102707169624620
11806522 49 18410572864697990186
12553582 1 18339642231234325851
12730499 353 18118408582166240971
13083527 12 18267280136973320968
14761567 1 17973481877030571214
14787075 74 18343302591832713336
15375462 189 18410580561194956315
15757776 16 18271528709689944908
15852999 172 17823698770537190928
16945 1 18189920693682039906
18186145 218 17603303756810125195
20361792 2 18272640221778092767
20645477 70 18341326786469932055
21452121 199 18338780243929095962
21634736 98 18338243673606784173
22112679 90 18057622987429657281
2255824 54 18410294752158400511
23388829 49 18265340516873375946
23402539 116 18192712246363065850
23419403 2 17610855168294115168
23557571 272 17915743064039288466
23598291 2 18201440298692101559
238 59 18121214548398302919
25 1 18191874632770523717
257057 1 18119522142283622554
2748010 2 17618532186197046276
3060560 45 17977087278531808437
3071541 250 18410581647447057787
3323516 105 18191879026886291915
4175511 335 18262511623520475213
6338986 31 18265890255175260802
7364860 26 18411978091702159242
7471813 234 18340475686522175510
81228 2 17833542397387522379

>  <PUBCHEM_SHAPE_MULTIPOLES>  (1) 
334.02
6.21
3.1
1.19
8.61
0.83
0.26
-2.95
1.86
-2.49
-0.52
0.13
-0.09
-1.04

>  <PUBCHEM_SHAPE_SELFOVERLAP>  (1) 
690.695

>  <PUBCHEM_SHAPE_VOLUME>  (1) 
191.1

>  <PUBCHEM_COORDINATE_TYPE>  (1) 
2
5
10

$$$$
