41249
     RDKit          3D

 20 21  0  0  1  0  0  0  0  0999 V2000
   -2.8172    0.5377   -0.5527 N   0  0  0  0  0  0  0  0  0  0  0  0
    0.7551   -0.1099    0.3242 N   0  0  0  0  0  0  0  0  0  0  0  0
   -1.6101   -0.2478   -0.3304 C   0  0  0  0  0  0  0  0  0  0  0  0
   -0.4553    0.6589    0.0693 C   0  0  0  0  0  0  0  0  0  0  0  0
    0.7113   -1.1057    1.3958 C   0  0  0  0  0  0  0  0  0  0  0  0
   -3.1950    1.2596    0.6639 C   0  0  0  0  0  0  0  0  0  0  0  0
   -3.9177   -0.3210   -0.9951 C   0  0  0  0  0  0  0  0  0  0  0  0
    1.0515   -2.5001    0.8890 C   0  0  0  0  0  0  0  0  0  0  0  0
    2.5239   -2.6632    0.5239 C   0  0  0  0  0  0  0  0  0  0  0  0
    2.0036    0.4555    0.0489 C   0  0  0  0  0  0  0  0  0  0  0  0
    2.9418   -1.8160   -0.6735 C   0  0  0  0  0  0  0  0  0  0  0  0
    3.0943   -0.3413   -0.3714 C   0  0  0  0  0  0  0  0  0  0  0  0
   -3.4606    0.2772    1.8010 C   0  0  0  0  0  0  0  0  0  0  0  0
   -4.4239    2.1186    0.3836 C   0  0  0  0  0  0  0  0  0  0  0  0
   -4.2187   -1.3811    0.0606 C   0  0  0  0  0  0  0  0  0  0  0  0
   -3.5550   -0.9642   -2.3298 C   0  0  0  0  0  0  0  0  0  0  0  0
    2.2207    1.8422    0.1917 C   0  0  0  0  0  0  0  0  0  0  0  0
    4.3475    0.2558   -0.6094 C   0  0  0  0  0  0  0  0  0  0  0  0
    3.4690    2.4197   -0.0469 C   0  0  0  0  0  0  0  0  0  0  0  0
    4.5348    1.6250   -0.4428 C   0  0  0  0  0  0  0  0  0  0  0  0
  1  3  1  0
  1  6  1  0
  1  7  1  0
  2  4  1  0
  2  5  1  0
  2 10  1  0
  3  4  1  0
  5  8  1  0
  6 13  1  0
  6 14  1  0
  7 15  1  0
  7 16  1  0
  8  9  1  0
  9 11  1  0
 10 12  2  0
 10 17  1  0
 11 12  1  0
 12 18  1  0
 17 19  2  0
 18 20  2  0
 19 20  1  0
M  END
>  <PUBCHEM_COMPOUND_CID>  (1) 
41249

>  <PUBCHEM_CONFORMER_RMSD>  (1) 
0.8

>  <PUBCHEM_CONFORMER_DIVERSEORDER>  (1) 
1
9
8
4
3
7
11
6
5
10
2

>  <PUBCHEM_MMFF94_PARTIAL_CHARGES>  (1) 
18
1 -0.81
10 0.1
11 0.14
12 -0.14
17 -0.15
18 -0.15
19 -0.15
2 -0.84
20 -0.15
3 0.27
4 0.37
47 0.15
48 0.15
49 0.15
5 0.37
50 0.15
6 0.27
7 0.27

>  <PUBCHEM_EFFECTIVE_ROTOR_COUNT>  (1) 
6

>  <PUBCHEM_PHARMACOPHORE_FEATURES>  (1) 
6
1 1 cation
1 2 cation
3 6 13 14 hydrophobe
3 7 15 16 hydrophobe
6 10 12 17 18 19 20 rings
7 2 5 8 9 10 11 12 rings

>  <PUBCHEM_HEAVY_ATOM_COUNT>  (1) 
20

>  <PUBCHEM_ATOM_DEF_STEREO_COUNT>  (1) 
0

>  <PUBCHEM_ATOM_UDEF_STEREO_COUNT>  (1) 
0

>  <PUBCHEM_BOND_DEF_STEREO_COUNT>  (1) 
0

>  <PUBCHEM_BOND_UDEF_STEREO_COUNT>  (1) 
0

>  <PUBCHEM_ISOTOPIC_ATOM_COUNT>  (1) 
0

>  <PUBCHEM_COMPONENT_COUNT>  (1) 
1

>  <PUBCHEM_CACTVS_TAUTO_COUNT>  (1) 
1

>  <PUBCHEM_CONFORMER_ID>  (1) 
0000A12100000001

>  <PUBCHEM_MMFF94_ENERGY>  (1) 
89.301

>  <PUBCHEM_FEATURE_SELFOVERLAP>  (1) 
30.456

>  <PUBCHEM_SHAPE_FINGERPRINT>  (1) 
11796584 16 15554181268037734484
12107183 9 17765440842266002577
121448 382 17168421692166520323
12553582 1 17903065642988779867
12730499 353 18261401073663386930
12760667 363 11383020093780441812
13009979 54 17701823180997935242
13167823 11 18273497870727614133
13224815 77 17676488345665477763
13464514 151 18409737261667432194
13583140 156 18337685143813378017
13760787 19 18130788945170573157
14251751 93 17846500352595734695
16752209 62 17489006211841326351
18186145 218 18113340795075425772
19422 9 18202001010450635999
20645477 70 18339921515450252415
20715895 44 10810436236804144671
21709351 56 18411980256619196204
2255824 54 18410291372399121994
23402539 116 18411419514431951916
23402655 69 18343868796791355956
23559900 14 17202490987286014718
23598288 3 17988923362791881773
23598291 2 18272083842865898711
25 1 18335707152411936680
3082319 5 18060136544056715573
312423 11 18273492364869924655
4280585 95 17555750811086289166
4409770 3 15028619554536995561
469060 322 16516810454213752651
474 4 18334576897034164364
5104073 3 18408042887993975193
543358 83 18267589009319565720
574716 61 18273501151898057171
603831 33 18201424930956251439
633830 44 18335426750660228364
7615 1 18129363956815906467
81228 2 17249489938596706970

>  <PUBCHEM_SHAPE_MULTIPOLES>  (1) 
401.63
10.01
2.66
1.37
3.36
0.43
-0.25
-3.02
-1.9
-1.88
0.44
1.55
0.46
-1.17

>  <PUBCHEM_SHAPE_SELFOVERLAP>  (1) 
819.618

>  <PUBCHEM_SHAPE_VOLUME>  (1) 
232.5

>  <PUBCHEM_COORDINATE_TYPE>  (1) 
2
5
10

$$$$
