41246
     RDKit          3D

 23 24  0  0  0  0  0  0  0  0999 V2000
   -0.0859   -3.4222   -1.1822 O   0  0  0  0  0  0  0  0  0  0  0  0
    2.1541    3.3414   -0.6837 O   0  0  0  0  0  0  0  0  0  0  0  0
   -3.1101   -0.1339   -0.2614 N   0  0  0  0  0  0  0  0  0  0  0  0
    0.4377   -1.1940   -0.7350 N   0  0  0  0  0  0  0  0  0  0  0  0
   -1.7858   -0.6149    0.1170 C   0  0  0  0  0  0  0  0  0  0  0  0
   -3.0182    1.1836   -0.8927 C   0  0  0  0  0  0  0  0  0  0  0  0
   -3.9904   -0.0776    0.9066 C   0  0  0  0  0  0  0  0  0  0  0  0
   -0.8952   -0.7288   -1.1166 C   0  0  0  0  0  0  0  0  0  0  0  0
    1.3593   -0.2200   -0.2150 C   0  0  0  0  0  0  0  0  0  0  0  0
    2.3028   -1.9072    1.4455 C   0  0  0  0  0  0  0  0  0  0  0  0
    2.7822   -3.0125    0.5168 C   0  0  0  0  0  0  0  0  0  0  0  0
    2.2996   -0.5512    0.7869 C   0  0  0  0  0  0  0  0  0  0  0  0
    2.2192   -2.9195   -0.8907 C   0  0  0  0  0  0  0  0  0  0  0  0
    0.7479   -2.5501   -0.9232 C   0  0  0  0  0  0  0  0  0  0  0  0
   -2.3950    2.1895    0.0710 C   0  0  0  0  0  0  0  0  0  0  0  0
   -4.4077    1.6341   -1.3322 C   0  0  0  0  0  0  0  0  0  0  0  0
   -3.4147    0.8668    1.9580 C   0  0  0  0  0  0  0  0  0  0  0  0
   -4.1732   -1.4821    1.4729 C   0  0  0  0  0  0  0  0  0  0  0  0
    1.3111    1.1077   -0.6771 C   0  0  0  0  0  0  0  0  0  0  0  0
    3.1976    0.4257    1.2494 C   0  0  0  0  0  0  0  0  0  0  0  0
    2.2068    2.0684   -0.2038 C   0  0  0  0  0  0  0  0  0  0  0  0
    3.1557    1.7257    0.7516 C   0  0  0  0  0  0  0  0  0  0  0  0
    3.1021    4.2712   -0.1623 C   0  0  0  0  0  0  0  0  0  0  0  0
  1 14  2  0
  2 21  1  0
  2 23  1  0
  3  5  1  0
  3  6  1  0
  3  7  1  0
  4  8  1  0
  4  9  1  0
  4 14  1  0
  5  8  1  0
  6 15  1  0
  6 16  1  0
  7 17  1  0
  7 18  1  0
  9 12  2  0
  9 19  1  0
 10 11  1  0
 10 12  1  0
 11 13  1  0
 12 20  1  0
 13 14  1  0
 19 21  2  0
 20 22  2  0
 21 22  1  0
M  END
>  <PUBCHEM_COMPOUND_CID>  (1) 
41246

>  <PUBCHEM_CONFORMER_RMSD>  (1) 
0.8

>  <PUBCHEM_CONFORMER_DIVERSEORDER>  (1) 
1
9
10
7
6
4
3
5
8
11
2
12

>  <PUBCHEM_MMFF94_PARTIAL_CHARGES>  (1) 
21
1 -0.57
10 0.14
12 -0.14
13 0.06
14 0.57
19 -0.15
2 -0.36
20 -0.15
21 0.08
22 -0.15
23 0.28
3 -0.81
4 -0.48
48 0.15
49 0.15
5 0.27
50 0.15
6 0.27
7 0.27
8 0.3
9 0.12

>  <PUBCHEM_EFFECTIVE_ROTOR_COUNT>  (1) 
6.8

>  <PUBCHEM_PHARMACOPHORE_FEATURES>  (1) 
7
1 1 acceptor
1 2 acceptor
1 3 cation
3 6 15 16 hydrophobe
3 7 17 18 hydrophobe
6 9 12 19 20 21 22 rings
7 4 9 10 11 12 13 14 rings

>  <PUBCHEM_HEAVY_ATOM_COUNT>  (1) 
23

>  <PUBCHEM_ATOM_DEF_STEREO_COUNT>  (1) 
0

>  <PUBCHEM_ATOM_UDEF_STEREO_COUNT>  (1) 
0

>  <PUBCHEM_BOND_DEF_STEREO_COUNT>  (1) 
0

>  <PUBCHEM_BOND_UDEF_STEREO_COUNT>  (1) 
0

>  <PUBCHEM_ISOTOPIC_ATOM_COUNT>  (1) 
0

>  <PUBCHEM_COMPONENT_COUNT>  (1) 
1

>  <PUBCHEM_CACTVS_TAUTO_COUNT>  (1) 
1

>  <PUBCHEM_CONFORMER_ID>  (1) 
0000A11E00000001

>  <PUBCHEM_MMFF94_ENERGY>  (1) 
107.0979

>  <PUBCHEM_FEATURE_SELFOVERLAP>  (1) 
35.534

>  <PUBCHEM_SHAPE_FINGERPRINT>  (1) 
10366900 7 17968110762428250763
10871710 139 17472420327379712045
1100329 8 16752409613576898367
11578080 2 16733252452828683782
11640471 11 17845923113038147237
12403259 327 17459453469089144347
12422481 6 18052788427072443226
12553582 1 17979648831064841831
12633257 1 18118122459744473617
13134695 92 18191294979926762790
13140716 1 18192990654616400632
13224815 77 18201999906949911539
13583140 156 18114455678681668323
14026960 21 18337109063780558797
14223421 5 18333737935465579883
14251764 38 18335693911155000477
14363568 33 18338531771919203804
14955137 171 18335417955347804602
1601671 61 18340769231063908434
17492 89 18411127022917316455
192875 21 18125705817280048693
20510252 161 17547846816734811798
20681677 76 18334290942722685231
20739085 24 18269844108037516482
21033648 29 17485905468333276771
21524375 3 18197782317462930446
21756936 100 17610910367388494020
22182313 1 17194294004449725858
23558518 356 18266720549795572454
23559900 14 18336825282638609759
2748010 2 17978481189030277950
469060 322 17029921851533355853
474 4 18271515404150280583
49207404 50 18337965574896686427
5081480 168 17629223531779387980
5939293 188 18264759970280752262
6049 1 18189912932697325999
6438718 38 17337884067662607020
7097593 13 18187922824877288331
81228 2 17188411010869208358
9709674 26 18335133147233931029

>  <PUBCHEM_SHAPE_MULTIPOLES>  (1) 
451.63
7.72
4.48
1.5
7.49
1.58
-0.36
2.42
-2.12
-5.22
1.09
0.86
-0.39
0.59

>  <PUBCHEM_SHAPE_SELFOVERLAP>  (1) 
930.868

>  <PUBCHEM_SHAPE_VOLUME>  (1) 
260.5

>  <PUBCHEM_COORDINATE_TYPE>  (1) 
2
5
10

$$$$
