41254
     RDKit          3D

  8  7  0  0  1  0  0  0  0  0999 V2000
    4.2007   -0.7604   -0.1625 I   0  0  0  0  0  0  0  0  0  0  0  0
   -4.0465   -0.7766   -0.1390 Br  0  0  0  0  0  0  0  0  0  0  0  0
   -0.0272    0.2819    0.2554 N   0  0  0  0  0  0  0  0  0  0  0  0
    1.1838   -0.4479   -0.1188 C   0  0  0  0  0  0  0  0  0  0  0  0
   -1.2186   -0.4808   -0.1153 C   0  0  0  0  0  0  0  0  0  0  0  0
   -0.0460    1.5996   -0.3786 C   0  0  0  0  0  0  0  0  0  0  0  0
    2.4203    0.3107    0.3550 C   0  0  0  0  0  0  0  0  0  0  0  0
   -2.4665    0.2735    0.3038 C   0  0  0  0  0  0  0  0  0  0  0  0
  1  7  1  0
  2  8  1  0
  3  4  1  0
  3  5  1  0
  3  6  1  0
  4  7  1  0
  5  8  1  0
M  END
>  <PUBCHEM_COMPOUND_CID>  (1) 
41254

>  <PUBCHEM_CONFORMER_RMSD>  (1) 
0.6

>  <PUBCHEM_CONFORMER_DIVERSEORDER>  (1) 
3
13
30
18
14
27
28
8
10
32
20
9
1
15
33
19
21
31
17
25
29
11
2
12
6
26
16
22
7
24
4
5
23

>  <PUBCHEM_MMFF94_PARTIAL_CHARGES>  (1) 
8
1 -0.19
2 -0.23
3 -0.81
4 0.27
5 0.27
6 0.27
7 0.19
8 0.23

>  <PUBCHEM_EFFECTIVE_ROTOR_COUNT>  (1) 
4

>  <PUBCHEM_PHARMACOPHORE_FEATURES>  (1) 
3
1 1 hydrophobe
1 2 hydrophobe
1 3 cation

>  <PUBCHEM_HEAVY_ATOM_COUNT>  (1) 
8

>  <PUBCHEM_ATOM_DEF_STEREO_COUNT>  (1) 
0

>  <PUBCHEM_ATOM_UDEF_STEREO_COUNT>  (1) 
0

>  <PUBCHEM_BOND_DEF_STEREO_COUNT>  (1) 
0

>  <PUBCHEM_BOND_UDEF_STEREO_COUNT>  (1) 
0

>  <PUBCHEM_ISOTOPIC_ATOM_COUNT>  (1) 
0

>  <PUBCHEM_COMPONENT_COUNT>  (1) 
1

>  <PUBCHEM_CACTVS_TAUTO_COUNT>  (1) 
1

>  <PUBCHEM_CONFORMER_ID>  (1) 
0000A12600000003

>  <PUBCHEM_MMFF94_ENERGY>  (1) 
12.0928

>  <PUBCHEM_FEATURE_SELFOVERLAP>  (1) 
15.223

>  <PUBCHEM_SHAPE_FINGERPRINT>  (1) 
10219947 1 18341614840697918039
11062470 55 12396301456610558026
12032990 46 18410014342333592154
13690532 89 18411698811696602759
177051 138 18413671301212808298
20211469 26 18272369767386607811
20711985 327 18411989069538568501
20719005 15 18413389838788664162
21119208 17 15285358418382133714
21293036 1 17240485810175036382
22485316 2 18410570682448506390
23402655 69 10809608360387973467

>  <PUBCHEM_SHAPE_MULTIPOLES>  (1) 
177.53
8.04
1.23
0.72
0.72
0.32
-0.02
-3.49
-0.23
-0.04
-0.14
0.1
0
0.02

>  <PUBCHEM_SHAPE_SELFOVERLAP>  (1) 
284.134

>  <PUBCHEM_SHAPE_VOLUME>  (1) 
129.8

>  <PUBCHEM_COORDINATE_TYPE>  (1) 
2
5
10

$$$$
