41258
     RDKit          3D

 12 13  0  0  1  0  0  0  0  0999 V2000
   -1.0780   -2.6144   -0.2326 O   0  0  0  0  0  0  0  0  0  0  0  0
   -1.0786    2.6137    0.2354 O   0  0  0  0  0  0  0  0  0  0  0  0
    0.2401   -0.6718    0.3712 C   0  0  0  0  0  0  0  0  0  0  0  0
    0.2401    0.6720   -0.3715 C   0  0  0  0  0  0  0  0  0  0  0  0
    1.4852   -1.4900   -0.0058 C   0  0  0  0  0  0  0  0  0  0  0  0
    1.4851    1.4903    0.0050 C   0  0  0  0  0  0  0  0  0  0  0  0
   -1.0544   -1.4293    0.0952 C   0  0  0  0  0  0  0  0  0  0  0  0
   -1.0545    1.4292   -0.0950 C   0  0  0  0  0  0  0  0  0  0  0  0
   -2.3344   -0.6662    0.3618 C   0  0  0  0  0  0  0  0  0  0  0  0
   -2.3340    0.6663   -0.3637 C   0  0  0  0  0  0  0  0  0  0  0  0
    2.7417   -0.6700   -0.0109 C   0  0  0  0  0  0  0  0  0  0  0  0
    2.7417    0.6701    0.0110 C   0  0  0  0  0  0  0  0  0  0  0  0
  1  7  2  0
  2  8  2  0
  3  4  1  0
  3  5  1  0
  3  7  1  0
  4  6  1  0
  4  8  1  0
  5 11  1  0
  6 12  1  0
  7  9  1  0
  8 10  1  0
  9 10  1  0
 11 12  2  0
M  END
>  <PUBCHEM_COMPOUND_CID>  (1) 
41258

>  <PUBCHEM_CONFORMER_RMSD>  (1) 
0.4

>  <PUBCHEM_CONFORMER_DIVERSEORDER>  (1) 
1
3
4
2

>  <PUBCHEM_MMFF94_PARTIAL_CHARGES>  (1) 
14
1 -0.57
10 0.06
11 -0.29
12 -0.29
2 -0.57
23 0.15
24 0.15
3 0.06
4 0.06
5 0.14
6 0.14
7 0.45
8 0.45
9 0.06

>  <PUBCHEM_EFFECTIVE_ROTOR_COUNT>  (1) 
0.8

>  <PUBCHEM_PHARMACOPHORE_FEATURES>  (1) 
4
1 1 acceptor
1 2 acceptor
6 3 4 5 6 11 12 rings
6 3 4 7 8 9 10 rings

>  <PUBCHEM_HEAVY_ATOM_COUNT>  (1) 
12

>  <PUBCHEM_ATOM_DEF_STEREO_COUNT>  (1) 
0

>  <PUBCHEM_ATOM_UDEF_STEREO_COUNT>  (1) 
2

>  <PUBCHEM_BOND_DEF_STEREO_COUNT>  (1) 
0

>  <PUBCHEM_BOND_UDEF_STEREO_COUNT>  (1) 
0

>  <PUBCHEM_ISOTOPIC_ATOM_COUNT>  (1) 
0

>  <PUBCHEM_COMPONENT_COUNT>  (1) 
1

>  <PUBCHEM_CACTVS_TAUTO_COUNT>  (1) 
6

>  <PUBCHEM_CONFORMER_ID>  (1) 
0000A12A00000001

>  <PUBCHEM_MMFF94_ENERGY>  (1) 
14.9665

>  <PUBCHEM_FEATURE_SELFOVERLAP>  (1) 
20.313

>  <PUBCHEM_SHAPE_FINGERPRINT>  (1) 
10967382 1 18338517567939856546
12382932 28 18339922748184792688
12423570 1 11469028454216775201
12524768 44 18411986887695110542
13380535 76 17975972068840730753
16945 1 18411419514104443014
18185500 45 18122066669550912207
193761 8 18410293610013409378
19973954 147 18410014295342023044
20871998 184 18271529796332547095
21040471 1 18265895757281373068
2334 1 17977948217463227298
23402539 116 18270382936990295503
23552423 10 18115870887374157134
23559900 14 18342745071160812654
241688 4 18194118753129806579
2748010 2 18121501254391556804
2897 32 18335701598470616278
5084963 1 17987510416491752529
528886 8 18339357594918598514
6333449 129 18411134740524283754
66348 1 18264768748945842500

>  <PUBCHEM_SHAPE_MULTIPOLES>  (1) 
235.22
3.6
2.44
0.66
1.16
0
0
0
0
-0.75
0
-0.04
0
0.03

>  <PUBCHEM_SHAPE_SELFOVERLAP>  (1) 
492.042

>  <PUBCHEM_SHAPE_VOLUME>  (1) 
129.8

>  <PUBCHEM_COORDINATE_TYPE>  (1) 
2
5
10

$$$$
