4126
     RDKit          3D

 44 45  0  0  1  0  0  0  0  0999 V2000
   -3.7565   -0.4700   -1.1778 P   0  0  0  0  0  0  0  0  0  0  0  0
   -2.9426    0.9290   -1.1706 O   0  0  0  0  0  0  0  0  0  0  0  0
   -4.2079   -0.6680    0.3635 O   0  0  0  0  0  0  0  0  0  0  0  0
   -4.8780   -0.5524   -2.1717 O   0  0  0  0  0  0  0  0  0  0  0  0
    0.2864   -2.5503   -1.5121 O   0  0  0  0  0  0  0  0  0  0  0  0
    2.9826    0.3445    1.2338 O   0  0  0  0  0  0  0  0  0  0  0  0
   -4.2452    4.0435   -2.1462 O   0  0  0  0  0  0  0  0  0  0  0  0
   -1.6387   -2.2453    2.8541 O   0  0  0  0  0  0  0  0  0  0  0  0
    5.7029    0.8537   -2.0315 O   0  0  0  0  0  0  0  0  0  0  0  0
   -2.9884    2.4347   -3.2272 O   0  0  0  0  0  0  0  0  0  0  0  0
   -1.4303   -1.4108   -0.4472 N   0  0  0  0  0  0  0  0  0  0  0  0
    2.1320   -1.5015    0.1128 N   0  0  0  0  0  0  0  0  0  0  0  0
    5.4035    0.0995    0.1443 N   0  0  0  0  0  0  0  0  0  0  0  0
   -0.2667   -0.4122    3.2504 N   0  0  0  0  0  0  0  0  0  0  0  0
   -2.4768   -1.7059   -1.4121 C   0  0  0  0  0  0  0  0  0  0  0  0
   -2.9868   -3.1306   -1.2551 C   0  0  0  0  0  0  0  0  0  0  0  0
   -4.0800   -3.5092   -2.2699 C   0  0  0  0  0  0  0  0  0  0  0  0
    0.7659   -1.3728    0.5577 C   0  0  0  0  0  0  0  0  0  0  0  0
    4.4787   -0.9636   -0.1574 C   0  0  0  0  0  0  0  0  0  0  0  0
   -0.1207   -1.8467   -0.5903 C   0  0  0  0  0  0  0  0  0  0  0  0
    4.9958   -2.3546    0.2668 C   0  0  0  0  0  0  0  0  0  0  0  0
   -4.5732   -4.9320   -1.9964 C   0  0  0  0  0  0  0  0  0  0  0  0
   -3.5952   -3.3993   -3.7162 C   0  0  0  0  0  0  0  0  0  0  0  0
    0.5316   -2.1989    1.8238 C   0  0  0  0  0  0  0  0  0  0  0  0
   -3.6394    2.1434   -0.9329 C   0  0  0  0  0  0  0  0  0  0  0  0
    3.1387   -0.6229    0.4914 C   0  0  0  0  0  0  0  0  0  0  0  0
   -2.9300    2.9463    0.1558 C   0  0  0  0  0  0  0  0  0  0  0  0
    5.1324   -2.4499    1.7897 C   0  0  0  0  0  0  0  0  0  0  0  0
    6.3237   -2.7313   -0.3988 C   0  0  0  0  0  0  0  0  0  0  0  0
   -0.5821   -1.6390    2.6897 C   0  0  0  0  0  0  0  0  0  0  0  0
   -3.1282    2.3433    1.5263 C   0  0  0  0  0  0  0  0  0  0  0  0
    5.9447    0.9292   -0.8300 C   0  0  0  0  0  0  0  0  0  0  0  0
    6.8612    1.9827   -0.2268 C   0  0  0  0  0  0  0  0  0  0  0  0
    7.9472    2.4833   -1.1910 C   0  0  0  0  0  0  0  0  0  0  0  0
   -3.5700    2.8628   -2.2395 C   0  0  0  0  0  0  0  0  0  0  0  0
   -1.1675    0.3142    4.1284 C   0  0  0  0  0  0  0  0  0  0  0  0
   -2.2776    1.0414    3.4111 C   0  0  0  0  0  0  0  0  0  0  0  0
   -2.0881    1.6424    2.1567 C   0  0  0  0  0  0  0  0  0  0  0  0
   -4.3631    2.4605    2.1758 C   0  0  0  0  0  0  0  0  0  0  0  0
   -3.5212    1.1812    4.0430 C   0  0  0  0  0  0  0  0  0  0  0  0
    8.7881    3.5690   -0.5165 C   0  0  0  0  0  0  0  0  0  0  0  0
    8.8549    1.3394   -1.6510 C   0  0  0  0  0  0  0  0  0  0  0  0
   -4.5575    1.8832    3.4285 C   0  0  0  0  0  0  0  0  0  0  0  0
   -4.2584    4.8399   -3.3352 C   0  0  0  0  0  0  0  0  0  0  0  0
  1  2  1  0
  1  3  1  0
  1  4  2  0
  1 15  1  0
  2 25  1  0
  5 20  2  0
  6 26  2  0
  7 35  1  0
  7 44  1  0
  8 30  2  0
  9 32  2  0
 10 35  2  0
 11 15  1  0
 11 20  1  0
 12 18  1  0
 12 26  1  0
 13 19  1  0
 13 32  1  0
 14 30  1  0
 14 36  1  0
 15 16  1  0
 16 17  1  0
 17 22  1  0
 17 23  1  0
 18 20  1  0
 18 24  1  0
 19 21  1  0
 19 26  1  0
 21 28  1  0
 21 29  1  0
 24 30  1  0
 25 27  1  0
 25 35  1  0
 27 31  1  0
 31 38  2  0
 31 39  1  0
 32 33  1  0
 33 34  1  0
 34 41  1  0
 34 42  1  0
 36 37  1  0
 37 38  1  0
 37 40  2  0
 39 43  2  0
 40 43  1  0
M  END
>  <PUBCHEM_COMPOUND_CID>  (1) 
4126

>  <PUBCHEM_CONFORMER_RMSD>  (1) 
1.4

>  <PUBCHEM_CONFORMER_DIVERSEORDER>  (1) 
1
45
182
124
111
23
72
117
33
87
118
67
77
160
42
25
70
168
150
76
102
24
162
173
56
37
156
189
82
98
36
49
17
110
141
163
143
54
46
65
106
161
34
170
73
157
155
26
18
19
94
7
59
158
83
177
81
184
103
29
85
86
164
53
119
90
180
149
61
55
21
152
167
116
132
68
78
39
165
8
2
95
74
50
11
84
27
185
66
142
126
44
28
35
127
159
104
187
31
136
100
120
32
179
79
9
134
71
97
4
69
115
145
52
96
30
63
154
121
147
151
58
137
12
57
41
128
62
144
48
14
178
92
51
64
40
123
101
5
181
89
122
75
125
88
166
38
43
112
148
47
138
129
3
139
109
6
10
105
107
22
108
93
13
171
99
183
60
91
15
153
169
140
80
16
146
114
131
186
20
113
135
172
133
130
176
174
188
175

>  <PUBCHEM_MMFF94_PARTIAL_CHARGES>  (1) 
43
1 1.24
10 -0.57
11 -0.73
12 -0.73
13 -0.73
14 -0.73
15 0.3
18 0.36
19 0.36
2 -0.55
20 0.57
24 0.06
25 0.34
26 0.57
27 0.14
3 -0.77
30 0.57
31 -0.14
32 0.57
33 0.06
35 0.66
36 0.44
37 -0.14
38 -0.15
39 -0.15
4 -0.7
40 -0.15
43 -0.15
44 0.28
49 0.37
5 -0.57
6 -0.57
61 0.37
65 0.37
7 -0.43
72 0.5
78 0.37
79 0.15
8 -0.57
80 0.15
81 0.15
88 0.15
9 -0.57

>  <PUBCHEM_EFFECTIVE_ROTOR_COUNT>  (1) 
13.8

>  <PUBCHEM_PHARMACOPHORE_FEATURES>  (1) 
15
1 10 acceptor
1 11 donor
1 12 donor
1 13 donor
1 14 donor
1 3 acceptor
1 4 acceptor
1 5 acceptor
1 6 acceptor
1 8 acceptor
1 9 acceptor
3 17 22 23 hydrophobe
3 21 28 29 hydrophobe
3 34 41 42 hydrophobe
6 31 37 38 39 40 43 rings

>  <PUBCHEM_HEAVY_ATOM_COUNT>  (1) 
44

>  <PUBCHEM_ATOM_DEF_STEREO_COUNT>  (1) 
0

>  <PUBCHEM_ATOM_UDEF_STEREO_COUNT>  (1) 
4

>  <PUBCHEM_BOND_DEF_STEREO_COUNT>  (1) 
0

>  <PUBCHEM_BOND_UDEF_STEREO_COUNT>  (1) 
0

>  <PUBCHEM_ISOTOPIC_ATOM_COUNT>  (1) 
0

>  <PUBCHEM_COMPONENT_COUNT>  (1) 
1

>  <PUBCHEM_CACTVS_TAUTO_COUNT>  (1) 
16

>  <PUBCHEM_CONFORMER_ID>  (1) 
0000101E00000001

>  <PUBCHEM_MMFF94_ENERGY>  (1) 
64.7336

>  <PUBCHEM_FEATURE_SELFOVERLAP>  (1) 
76.137

>  <PUBCHEM_SHAPE_FINGERPRINT>  (1) 
10462674 369 17344886693879747526
11007060 377 18114183034194388058
11479125 193 18187927231730050696
11991303 11 17987812803886618211
12156800 1 14565595176864029467
12728209 76 18189326888335534464
14118638 360 18339920515588302062
16114785 44 17967536765702931865
19304152 47 17822016384518954524
21772528 278 16557091977260785587
3610482 184 17059784308255436072
57527358 35 17680131994752630819
5951187 136 16528337321813019405

>  <PUBCHEM_SHAPE_MULTIPOLES>  (1) 
836.6
18.93
5.88
4.72
55.44
1.73
-1.86
-11.24
11.94
-7.16
4.83
-7.86
-2.98
-4.71

>  <PUBCHEM_SHAPE_SELFOVERLAP>  (1) 
1680.691

>  <PUBCHEM_SHAPE_VOLUME>  (1) 
492.2

>  <PUBCHEM_COORDINATE_TYPE>  (1) 
2
5
10

$$$$
