41265
     RDKit          3D

 25 28  0  0  1  0  0  0  0  0999 V2000
   -3.8140   -1.8883   -2.0026 O   0  0  0  0  0  0  0  0  0  0  0  0
    3.4967    1.7602   -0.9945 O   0  0  0  0  0  0  0  0  0  0  0  0
    4.9320   -0.3724    0.0544 O   0  0  0  0  0  0  0  0  0  0  0  0
   -1.3158   -1.6050    0.2760 N   0  0  0  0  0  0  0  0  0  0  0  0
   -3.2456    0.1866   -1.2845 N   0  0  0  0  0  0  0  0  0  0  0  0
   -0.5035   -2.8791    0.3561 C   0  0  0  0  0  0  0  0  0  0  0  0
   -0.7274   -0.4430    0.2631 C   0  0  0  0  0  0  0  0  0  0  0  0
   -2.7951   -1.8088    0.1503 C   0  0  0  0  0  0  0  0  0  0  0  0
    0.7422   -2.6586    1.2020 C   0  0  0  0  0  0  0  0  0  0  0  0
    0.7747   -0.3876    0.1765 C   0  0  0  0  0  0  0  0  0  0  0  0
    1.5007   -1.4872    0.6566 C   0  0  0  0  0  0  0  0  0  0  0  0
   -1.4872    0.8407    0.3413 C   0  0  0  0  0  0  0  0  0  0  0  0
   -3.2959   -1.1764   -1.1348 C   0  0  0  0  0  0  0  0  0  0  0  0
   -2.5935    1.1260   -0.4683 C   0  0  0  0  0  0  0  0  0  0  0  0
   -3.5369   -1.4272    1.4217 C   0  0  0  0  0  0  0  0  0  0  0  0
    1.4532    0.6922   -0.4004 C   0  0  0  0  0  0  0  0  0  0  0  0
    2.8985   -1.4676    0.6290 C   0  0  0  0  0  0  0  0  0  0  0  0
   -1.0092    1.8270    1.2234 C   0  0  0  0  0  0  0  0  0  0  0  0
    2.8486    0.6974   -0.4395 C   0  0  0  0  0  0  0  0  0  0  0  0
    3.5700   -0.3748    0.0832 C   0  0  0  0  0  0  0  0  0  0  0  0
   -3.1123    2.4306   -0.4863 C   0  0  0  0  0  0  0  0  0  0  0  0
   -1.5673    3.1045    1.2342 C   0  0  0  0  0  0  0  0  0  0  0  0
   -2.6047    3.4130    0.3628 C   0  0  0  0  0  0  0  0  0  0  0  0
    3.8353    2.8383   -0.1248 C   0  0  0  0  0  0  0  0  0  0  0  0
    5.5568   -0.9405   -1.0949 C   0  0  0  0  0  0  0  0  0  0  0  0
  1 13  2  0
  2 19  1  0
  2 24  1  0
  3 20  1  0
  3 25  1  0
  4  6  1  0
  4  7  2  0
  4  8  1  0
  5 13  1  0
  5 14  1  0
  6  9  1  0
  7 10  1  0
  7 12  1  0
  8 13  1  0
  8 15  1  0
  9 11  1  0
 10 11  2  0
 10 16  1  0
 11 17  1  0
 12 14  2  0
 12 18  1  0
 14 21  1  0
 16 19  2  0
 17 20  2  0
 18 22  2  0
 19 20  1  0
 21 23  2  0
 22 23  1  0
M  CHG  1   4   1
M  END
>  <PUBCHEM_COMPOUND_CID>  (1) 
41265

>  <PUBCHEM_CONFORMER_RMSD>  (1) 
0.6

>  <PUBCHEM_CONFORMER_DIVERSEORDER>  (1) 
3
1
5
2
4
6

>  <PUBCHEM_MMFF94_PARTIAL_CHARGES>  (1) 
31
1 -0.57
10 0.09
11 -0.14
12 0.09
13 0.57
14 0.12
16 -0.15
17 -0.15
18 -0.15
19 0.08
2 -0.36
20 0.08
21 -0.15
22 -0.15
23 -0.15
24 0.28
25 0.28
3 -0.36
34 0.15
35 0.15
36 0.37
37 0.15
38 0.15
39 0.15
4 -0.09
40 0.15
5 -0.55
6 0.35
7 0.23
8 0.41
9 0.14

>  <PUBCHEM_EFFECTIVE_ROTOR_COUNT>  (1) 
2.8

>  <PUBCHEM_PHARMACOPHORE_FEATURES>  (1) 
8
1 1 acceptor
1 2 acceptor
1 3 acceptor
1 5 donor
6 10 11 16 17 19 20 rings
6 12 14 18 21 22 23 rings
6 4 6 7 9 10 11 rings
7 4 5 7 8 12 13 14 rings

>  <PUBCHEM_HEAVY_ATOM_COUNT>  (1) 
25

>  <PUBCHEM_ATOM_DEF_STEREO_COUNT>  (1) 
0

>  <PUBCHEM_ATOM_UDEF_STEREO_COUNT>  (1) 
1

>  <PUBCHEM_BOND_DEF_STEREO_COUNT>  (1) 
0

>  <PUBCHEM_BOND_UDEF_STEREO_COUNT>  (1) 
0

>  <PUBCHEM_ISOTOPIC_ATOM_COUNT>  (1) 
0

>  <PUBCHEM_COMPONENT_COUNT>  (1) 
1

>  <PUBCHEM_CACTVS_TAUTO_COUNT>  (1) 
2

>  <PUBCHEM_CONFORMER_ID>  (1) 
0000A13100000003

>  <PUBCHEM_MMFF94_ENERGY>  (1) 
119.8985

>  <PUBCHEM_FEATURE_SELFOVERLAP>  (1) 
40.646

>  <PUBCHEM_SHAPE_FINGERPRINT>  (1) 
10693767 8 17770760601892202527
1100329 8 18340209575013248176
11640471 11 18193280684835967233
12403260 363 18337099138411805194
12553582 1 18268993270473285219
12788726 201 18271820029153989817
13027679 85 18193842780707711411
13140716 1 18334578988688389080
13224815 77 18409728486611383746
13583140 156 17168717310196191097
13965767 371 15319122930428525537
14251751 93 18340778039529986854
14790565 3 18270122310619094825
15420108 30 17548411501897524280
16752209 62 18411409609762561810
16945 1 18191299575494244611
17349148 13 18336255800024243498
17980427 23 18050816997816813298
20510252 161 18337396053194772873
20645476 183 18124591981941784069
20775438 99 16903518722156056527
22393880 68 18337104580003825548
22907989 373 18047217368472047420
23402539 116 18342738528818169494
23557571 272 17774999059653887994
23558518 356 18261967300998511026
23559900 14 18194967577008841160
25147074 1 18118111481666302810
283562 15 18408886252246915923
350125 39 18335152976649569840
460360 51 18117857507692346258
469060 322 17751660950866758737
474 4 18118123563160977256
5048184 11 18193841431450216168
7164475 11 18342739628535337260
7832392 63 18121219779583800650
9709674 26 18413113866150616486
9981440 41 18190734422581349312

>  <PUBCHEM_SHAPE_MULTIPOLES>  (1) 
486.92
8.51
3.81
1.27
8.8
1.76
-0.18
0.57
-2.83
-2.01
0.82
-0.89
-0.29
-0.96

>  <PUBCHEM_SHAPE_SELFOVERLAP>  (1) 
1068.722

>  <PUBCHEM_SHAPE_VOLUME>  (1) 
262.1

>  <PUBCHEM_COORDINATE_TYPE>  (1) 
2
5
10

$$$$
