41267
     RDKit          3D

 26 29  0  0  1  0  0  0  0  0999 V2000
   -3.6576   -1.5241   -2.2231 O   0  0  0  0  0  0  0  0  0  0  0  0
    3.8242    1.6339   -0.8731 O   0  0  0  0  0  0  0  0  0  0  0  0
    5.0939   -0.6157    0.1444 O   0  0  0  0  0  0  0  0  0  0  0  0
   -1.2207   -1.4687    0.1374 N   0  0  0  0  0  0  0  0  0  0  0  0
   -2.9881    0.4876   -1.4178 N   0  0  0  0  0  0  0  0  0  0  0  0
   -2.7049   -1.5771   -0.0394 C   0  0  0  0  0  0  0  0  0  0  0  0
   -0.4899   -2.7923    0.1978 C   0  0  0  0  0  0  0  0  0  0  0  0
   -0.5632   -0.3453    0.1817 C   0  0  0  0  0  0  0  0  0  0  0  0
    0.7393   -2.6761    1.0876 C   0  0  0  0  0  0  0  0  0  0  0  0
    0.9416   -0.3795    0.1419 C   0  0  0  0  0  0  0  0  0  0  0  0
    1.5841   -1.5365    0.6055 C   0  0  0  0  0  0  0  0  0  0  0  0
   -3.4625   -1.1920    1.2217 C   0  0  0  0  0  0  0  0  0  0  0  0
   -1.2462    0.9794    0.2812 C   0  0  0  0  0  0  0  0  0  0  0  0
   -3.1254   -0.8739   -1.3164 C   0  0  0  0  0  0  0  0  0  0  0  0
   -2.3068    1.3582   -0.5508 C   0  0  0  0  0  0  0  0  0  0  0  0
    1.7021    0.6747   -0.3771 C   0  0  0  0  0  0  0  0  0  0  0  0
    2.9807   -1.6020    0.6203 C   0  0  0  0  0  0  0  0  0  0  0  0
   -4.9424   -1.5127    1.1050 C   0  0  0  0  0  0  0  0  0  0  0  0
   -0.7377    1.9054    1.2105 C   0  0  0  0  0  0  0  0  0  0  0  0
    3.0957    0.5955   -0.3744 C   0  0  0  0  0  0  0  0  0  0  0  0
    3.7340   -0.5354    0.1325 C   0  0  0  0  0  0  0  0  0  0  0  0
   -2.7450    2.6922   -0.5396 C   0  0  0  0  0  0  0  0  0  0  0  0
   -1.2177    3.2139    1.2484 C   0  0  0  0  0  0  0  0  0  0  0  0
   -2.2064    3.6136    0.3575 C   0  0  0  0  0  0  0  0  0  0  0  0
    4.1994    2.6604    0.0427 C   0  0  0  0  0  0  0  0  0  0  0  0
    5.7196   -1.1836   -1.0045 C   0  0  0  0  0  0  0  0  0  0  0  0
  1 14  2  0
  2 20  1  0
  2 25  1  0
  3 21  1  0
  3 26  1  0
  4  6  1  0
  4  7  1  0
  4  8  2  0
  5 14  1  0
  5 15  1  0
  6 12  1  0
  6 14  1  0
  7  9  1  0
  8 10  1  0
  8 13  1  0
  9 11  1  0
 10 11  2  0
 10 16  1  0
 11 17  1  0
 12 18  1  0
 13 15  2  0
 13 19  1  0
 15 22  1  0
 16 20  2  0
 17 21  2  0
 19 23  2  0
 20 21  1  0
 22 24  2  0
 23 24  1  0
M  CHG  1   4   1
M  END
>  <PUBCHEM_COMPOUND_CID>  (1) 
41267

>  <PUBCHEM_CONFORMER_RMSD>  (1) 
0.8

>  <PUBCHEM_CONFORMER_DIVERSEORDER>  (1) 
1
3
2
4

>  <PUBCHEM_MMFF94_PARTIAL_CHARGES>  (1) 
31
1 -0.57
10 0.09
11 -0.14
13 0.09
14 0.57
15 0.12
16 -0.15
17 -0.15
19 -0.15
2 -0.36
20 0.08
21 0.08
22 -0.15
23 -0.15
24 -0.15
25 0.28
26 0.28
3 -0.36
34 0.15
35 0.37
36 0.15
4 -0.09
40 0.15
41 0.15
42 0.15
43 0.15
5 -0.55
6 0.41
7 0.35
8 0.23
9 0.14

>  <PUBCHEM_EFFECTIVE_ROTOR_COUNT>  (1) 
3.8

>  <PUBCHEM_PHARMACOPHORE_FEATURES>  (1) 
9
1 1 acceptor
1 18 hydrophobe
1 2 acceptor
1 3 acceptor
1 5 donor
6 10 11 16 17 20 21 rings
6 13 15 19 22 23 24 rings
6 4 7 8 9 10 11 rings
7 4 5 6 8 13 14 15 rings

>  <PUBCHEM_HEAVY_ATOM_COUNT>  (1) 
26

>  <PUBCHEM_ATOM_DEF_STEREO_COUNT>  (1) 
0

>  <PUBCHEM_ATOM_UDEF_STEREO_COUNT>  (1) 
1

>  <PUBCHEM_BOND_DEF_STEREO_COUNT>  (1) 
0

>  <PUBCHEM_BOND_UDEF_STEREO_COUNT>  (1) 
0

>  <PUBCHEM_ISOTOPIC_ATOM_COUNT>  (1) 
0

>  <PUBCHEM_COMPONENT_COUNT>  (1) 
1

>  <PUBCHEM_CACTVS_TAUTO_COUNT>  (1) 
2

>  <PUBCHEM_CONFORMER_ID>  (1) 
0000A13300000001

>  <PUBCHEM_MMFF94_ENERGY>  (1) 
119.1455

>  <PUBCHEM_FEATURE_SELFOVERLAP>  (1) 
45.72

>  <PUBCHEM_SHAPE_FINGERPRINT>  (1) 
1100329 8 17687181985167264642
11640471 11 18121783824511471024
12403259 415 17967812786213698974
12403260 363 18337379492481192354
12553582 1 18341607183109040819
12788726 201 18269854114773583613
13027679 85 18266179620613282769
13140716 1 18263642875057029184
13224815 77 18409445895006473146
13583140 156 17169281325306783065
14178342 30 18192138305477051698
14251751 93 18341058397889027550
14787075 74 18042688488725870251
14790565 3 18411709798460504953
14955137 171 18194138527792837795
15420108 30 15318265319917398969
16752209 62 18339631274624774802
16945 1 18263915704248599051
17349148 13 18335975416037797778
17492 89 18337111163936008794
17980427 23 17978474613140156722
19591789 44 18265338493949145467
20510252 161 18410296942628703360
20691752 17 18197764708155046185
20775438 99 16975290425938081111
21267235 1 18335713744944578242
22393880 68 18336824187511815260
23227448 37 18191307083186924213
23402539 116 18343864424419566726
23558518 356 18262810544591525850
23559900 14 18195810889610950320
25147074 1 18046615720953570202
2748010 2 17256233269047798355
283562 15 18408325475557463435
3380486 145 17830756587205424258
350125 39 18335994094591994904
352729 6 17982728580704599209
460360 51 18119261558260688858
469060 322 18189918477368386425
474 4 17760645871830541273
5048184 11 18122345670821944584
5104073 3 18335696080144594978
7164475 11 18341897385559367876
9709674 26 18413674604290786958
9981440 41 18263353849981337424

>  <PUBCHEM_SHAPE_MULTIPOLES>  (1) 
507.5
9.18
3.82
1.29
8.62
2.49
-0.32
-1.44
-1.79
-1.72
0.91
-1.15
-0.22
-0.32

>  <PUBCHEM_SHAPE_SELFOVERLAP>  (1) 
1107.847

>  <PUBCHEM_SHAPE_VOLUME>  (1) 
274.4

>  <PUBCHEM_COORDINATE_TYPE>  (1) 
2
5
10

$$$$
