41279
     RDKit          3D

 24 26  0  0  0  0  0  0  0  0999 V2000
   -2.6547   -1.5268    0.4602 O   0  0  0  0  0  0  0  0  0  0  0  0
    1.1223    0.8471   -0.5793 N   0  0  0  0  0  0  0  0  0  0  0  0
    3.8470    0.2020   -0.0148 N   0  0  0  0  0  0  0  0  0  0  0  0
   -2.5449    0.2802   -0.9863 N   0  0  0  0  0  0  0  0  0  0  0  0
   -8.7247    0.3209    0.5488 N   0  0  0  0  0  0  0  0  0  0  0  0
    1.9119    1.6895    0.3275 C   0  0  0  0  0  0  0  0  0  0  0  0
    1.5439   -0.5533   -0.4539 C   0  0  0  0  0  0  0  0  0  0  0  0
    3.4040    1.6019   -0.0016 C   0  0  0  0  0  0  0  0  0  0  0  0
    3.0241   -0.7162   -0.8079 C   0  0  0  0  0  0  0  0  0  0  0  0
   -0.3052    0.9811   -0.2910 C   0  0  0  0  0  0  0  0  0  0  0  0
    5.2120   -0.0572    0.1521 C   0  0  0  0  0  0  0  0  0  0  0  0
   -1.1220    0.1607   -1.2849 C   0  0  0  0  0  0  0  0  0  0  0  0
    5.9485   -0.7366   -0.8390 C   0  0  0  0  0  0  0  0  0  0  0  0
    5.8914    0.3530    1.3167 C   0  0  0  0  0  0  0  0  0  0  0  0
    7.3089   -0.9955   -0.6721 C   0  0  0  0  0  0  0  0  0  0  0  0
    7.2518    0.0942    1.4834 C   0  0  0  0  0  0  0  0  0  0  0  0
   -3.1853   -0.5887   -0.1287 C   0  0  0  0  0  0  0  0  0  0  0  0
    7.9606   -0.5801    0.4890 C   0  0  0  0  0  0  0  0  0  0  0  0
   -4.6407   -0.3496    0.0498 C   0  0  0  0  0  0  0  0  0  0  0  0
   -5.4533   -1.4113    0.3887 C   0  0  0  0  0  0  0  0  0  0  0  0
   -5.1330    0.9266   -0.1296 C   0  0  0  0  0  0  0  0  0  0  0  0
   -6.8200   -1.1869    0.5556 C   0  0  0  0  0  0  0  0  0  0  0  0
   -6.4995    1.1510    0.0373 C   0  0  0  0  0  0  0  0  0  0  0  0
   -7.3431    0.0941    0.3800 C   0  0  0  0  0  0  0  0  0  0  0  0
  1 17  2  0
  2  6  1  0
  2  7  1  0
  2 10  1  0
  3  8  1  0
  3  9  1  0
  3 11  1  0
  4 12  1  0
  4 17  1  0
  5 24  1  0
  6  8  1  0
  7  9  1  0
 10 12  1  0
 11 13  2  0
 11 14  1  0
 13 15  1  0
 14 16  2  0
 15 18  2  0
 16 18  1  0
 17 19  1  0
 19 20  2  0
 19 21  1  0
 20 22  1  0
 21 23  2  0
 22 24  2  0
 23 24  1  0
M  END
>  <PUBCHEM_COMPOUND_CID>  (1) 
41279

>  <PUBCHEM_CONFORMER_RMSD>  (1) 
0.8

>  <PUBCHEM_CONFORMER_DIVERSEORDER>  (1) 
1
41
48
62
30
49
44
29
54
39
61
57
17
42
2
60
43
31
25
63
23
21
6
32
12
8
24
26
18
55
52
35
13
20
9
33
51
59
16
38
34
22
37
27
47
15
28
7
40
4
36
45
11
14
5
10
46
50
58
3
19
53
56

>  <PUBCHEM_MMFF94_PARTIAL_CHARGES>  (1) 
36
1 -0.57
10 0.27
11 0.1
12 0.3
13 -0.15
14 -0.15
15 -0.15
16 -0.15
17 0.54
18 -0.15
19 0.09
2 -0.81
20 -0.15
21 -0.15
22 -0.15
23 -0.15
24 0.1
3 -0.84
37 0.15
38 0.15
39 0.37
4 -0.73
40 0.15
41 0.15
42 0.15
43 0.15
44 0.15
45 0.15
46 0.15
47 0.4
48 0.4
5 -0.9
6 0.27
7 0.27
8 0.37
9 0.37

>  <PUBCHEM_EFFECTIVE_ROTOR_COUNT>  (1) 
7.2

>  <PUBCHEM_PHARMACOPHORE_FEATURES>  (1) 
9
1 1 acceptor
1 2 cation
1 3 cation
1 4 donor
1 5 cation
1 5 donor
6 11 13 14 15 16 18 rings
6 19 20 21 22 23 24 rings
6 2 3 6 7 8 9 rings

>  <PUBCHEM_HEAVY_ATOM_COUNT>  (1) 
24

>  <PUBCHEM_ATOM_DEF_STEREO_COUNT>  (1) 
0

>  <PUBCHEM_ATOM_UDEF_STEREO_COUNT>  (1) 
0

>  <PUBCHEM_BOND_DEF_STEREO_COUNT>  (1) 
0

>  <PUBCHEM_BOND_UDEF_STEREO_COUNT>  (1) 
0

>  <PUBCHEM_ISOTOPIC_ATOM_COUNT>  (1) 
0

>  <PUBCHEM_COMPONENT_COUNT>  (1) 
1

>  <PUBCHEM_CACTVS_TAUTO_COUNT>  (1) 
3

>  <PUBCHEM_CONFORMER_ID>  (1) 
0000A13F00000001

>  <PUBCHEM_MMFF94_ENERGY>  (1) 
81.7173

>  <PUBCHEM_FEATURE_SELFOVERLAP>  (1) 
45.674

>  <PUBCHEM_SHAPE_FINGERPRINT>  (1) 
10 15 18060134362614327336
10066227 49 13046209556012383808
10299344 5 17313104150600158506
10595046 47 9583254828978905877
10674148 151 17967249801927140712
11089746 13 15841546392477598441
11524674 6 18342738541883036815
11719270 70 18272654545684189102
12082328 90 13334726921604311951
12166972 35 16298389067540920804
12236239 1 16415474969665628580
13533116 47 14189305806910510934
13668630 136 13695869220733746689
13673619 4 17749104504253151420
13685833 64 18333448751175612100
13885169 127 18409166580620260989
14123256 10 8862942775489964001
14251757 52 12751227126404822274
14251764 18 18334857246491683397
14251764 46 18411982459573129431
14617045 38 17748544835839230482
15183329 4 15430033262408579840
15301273 46 18202002110247041934
15348495 7 18129376167022911442
15352257 5 17530682104284885834
15419008 47 18131344194132446432
15419008 91 18336807750409060636
15475509 35 17458886190631972864
15716309 27 17676488358655835789
15840311 113 16343698864075213528
15849732 13 17632295678915424924
16120349 18 16988836194464189728
20281389 69 15410894055077511162
20554085 129 12247676037688726838
21095086 128 15140682492814603641
21150785 3 12324240564095697584
21267235 1 18341614794502999164
21344244 246 14707753006709684096
21403212 168 17775566424992270487
21521239 73 13984653725646311336
21792934 111 18130783460608749361
22224240 67 17561361785887983670
23035841 295 17385442124350637834
23522609 53 17314817151151953308
246663 6 17313105245732410024
3004659 81 18113339725903129076
3178227 256 18413105070273410638
4073 2 18041848435850672219
4325135 7 9439402428477010265
4339292 15 15625927804218623143
5207 217 8646769997391819700
5219985 9 17167861963005976556
5283156 175 16153426134319276094
5758199 1 12319741366788778309
59682541 35 18412258467916179352
59755656 520 17603302691795886603

>  <PUBCHEM_SHAPE_MULTIPOLES>  (1) 
468.12
27.19
1.38
1.04
7.55
0.15
-0.07
-4.12
-7.47
0.4
-0.04
-1.11
-0.03
1.02

>  <PUBCHEM_SHAPE_SELFOVERLAP>  (1) 
989.692

>  <PUBCHEM_SHAPE_VOLUME>  (1) 
261.7

>  <PUBCHEM_COORDINATE_TYPE>  (1) 
2
5
10

$$$$
