41281
     RDKit          3D

 13 13  0  0  0  0  0  0  0  0999 V2000
   -1.3558   -2.7678    0.1215 O   0  0  0  0  0  0  0  0  0  0  0  0
    0.6527   -1.9479   -0.2413 O   0  0  0  0  0  0  0  0  0  0  0  0
   -0.5768   -1.8027   -0.0520 N   0  0  0  0  0  0  0  0  0  0  0  0
    4.5968    0.3082   -0.0428 N   0  0  0  0  0  0  0  0  0  0  0  0
   -0.2984    0.6340   -0.2207 C   0  0  0  0  0  0  0  0  0  0  0  0
   -1.1119   -0.4834   -0.0341 C   0  0  0  0  0  0  0  0  0  0  0  0
   -0.8543    1.9132   -0.1973 C   0  0  0  0  0  0  0  0  0  0  0  0
   -2.4814   -0.3219    0.1760 C   0  0  0  0  0  0  0  0  0  0  0  0
   -2.2238    2.0747    0.0127 C   0  0  0  0  0  0  0  0  0  0  0  0
   -3.0374    0.9572    0.1993 C   0  0  0  0  0  0  0  0  0  0  0  0
    1.1377    0.5104   -0.4441 C   0  0  0  0  0  0  0  0  0  0  0  0
    2.0852    0.5219    0.5169 C   0  0  0  0  0  0  0  0  0  0  0  0
    3.4675    0.4042    0.2060 C   0  0  0  0  0  0  0  0  0  0  0  0
  1  3  1  0
  2  3  2  0
  3  6  1  0
  4 13  3  0
  5  6  2  0
  5  7  1  0
  5 11  1  0
  6  8  1  0
  7  9  2  0
  8 10  2  0
  9 10  1  0
 11 12  2  0
 12 13  1  0
M  CHG  2   1  -1   3   1
M  END
>  <PUBCHEM_COMPOUND_CID>  (1) 
41281

>  <PUBCHEM_CONFORMER_RMSD>  (1) 
0.6

>  <PUBCHEM_CONFORMER_DIVERSEORDER>  (1) 
1

>  <PUBCHEM_MMFF94_PARTIAL_CHARGES>  (1) 
19
1 -0.52
10 -0.15
11 -0.18
12 -0.09
13 0.49
14 0.15
15 0.15
16 0.15
17 0.15
18 0.15
19 0.15
2 -0.52
3 0.91
4 -0.56
5 0.03
6 0.13
7 -0.15
8 -0.15
9 -0.15

>  <PUBCHEM_EFFECTIVE_ROTOR_COUNT>  (1) 
2

>  <PUBCHEM_PHARMACOPHORE_FEATURES>  (1) 
5
1 1 acceptor
1 1 anion
1 2 acceptor
1 4 acceptor
6 5 6 7 8 9 10 rings

>  <PUBCHEM_HEAVY_ATOM_COUNT>  (1) 
13

>  <PUBCHEM_ATOM_DEF_STEREO_COUNT>  (1) 
0

>  <PUBCHEM_ATOM_UDEF_STEREO_COUNT>  (1) 
0

>  <PUBCHEM_BOND_DEF_STEREO_COUNT>  (1) 
0

>  <PUBCHEM_BOND_UDEF_STEREO_COUNT>  (1) 
1

>  <PUBCHEM_ISOTOPIC_ATOM_COUNT>  (1) 
0

>  <PUBCHEM_COMPONENT_COUNT>  (1) 
1

>  <PUBCHEM_CACTVS_TAUTO_COUNT>  (1) 
1

>  <PUBCHEM_CONFORMER_ID>  (1) 
0000A14100000001

>  <PUBCHEM_MMFF94_ENERGY>  (1) 
42.8064

>  <PUBCHEM_FEATURE_SELFOVERLAP>  (1) 
25.452

>  <PUBCHEM_SHAPE_FINGERPRINT>  (1) 
13024252 1 14417847038470309629
13380535 76 18341048532143550302
14325111 11 18339078190337813352
14648413 74 17472417651863259697
14993402 34 18261384563925230021
15669948 3 18336823190963045880
15775835 57 18340487772554871760
16945 1 18410301332301492589
193761 8 17617940236234234149
20510252 161 18343866593241096360
20645464 45 18202850945697383596
20645477 56 18411416224666416280
20871998 184 18199472236622605078
21501502 16 18123462783314987105
23402539 116 18343011233845955007
23463225 33 18261388880709928928
23559900 14 18272651243444824480
257057 1 17549814933726741055
2748010 2 18192725448970500071
305870 269 18192429675689003705
3071541 12 17547855157371493821
366044 4 18409728435219657441
43471831 8 18335136440878085987
54173680 148 18265334104060220907
5706482 22 18339913840375160859
6333449 129 18411979169607205092
7364860 26 17838336281117259271
75552 356 18409729603382209596
81228 2 18122889087031475571

>  <PUBCHEM_SHAPE_MULTIPOLES>  (1) 
245.83
5.44
2.33
0.65
6.39
1.39
-0.01
-1.83
-0.49
-1.53
0.05
0.04
-0.06
0.08

>  <PUBCHEM_SHAPE_SELFOVERLAP>  (1) 
516.678

>  <PUBCHEM_SHAPE_VOLUME>  (1) 
136

>  <PUBCHEM_COORDINATE_TYPE>  (1) 
2
5
10

$$$$
