41280
     RDKit          3D

 25 27  0  0  1  0  0  0  0  0999 V2000
   -2.5728    0.8885    1.3728 O   0  0  0  0  0  0  0  0  0  0  0  0
    1.1691   -0.7314   -0.6490 N   0  0  0  0  0  0  0  0  0  0  0  0
    3.8862    0.0142   -0.1800 N   0  0  0  0  0  0  0  0  0  0  0  0
   -2.5105   -0.9710   -0.0108 N   0  0  0  0  0  0  0  0  0  0  0  0
    5.9677   -0.5249    0.8805 N   0  0  0  0  0  0  0  0  0  0  0  0
   -8.6398    0.7378   -0.4797 N   0  0  0  0  0  0  0  0  0  0  0  0
    1.5968   -0.2792    0.6805 C   0  0  0  0  0  0  0  0  0  0  0  0
    1.9357   -0.0294   -1.6858 C   0  0  0  0  0  0  0  0  0  0  0  0
    3.0847   -0.5602    0.9049 C   0  0  0  0  0  0  0  0  0  0  0  0
    3.4343   -0.3031   -1.5405 C   0  0  0  0  0  0  0  0  0  0  0  0
   -0.2646   -0.5068   -0.8307 C   0  0  0  0  0  0  0  0  0  0  0  0
   -1.1114   -1.2802    0.1881 C   0  0  0  0  0  0  0  0  0  0  0  0
    5.2493    0.2603    0.0195 C   0  0  0  0  0  0  0  0  0  0  0  0
   -0.9035   -2.7913    0.1186 C   0  0  0  0  0  0  0  0  0  0  0  0
    5.8471    1.3188   -0.6788 C   0  0  0  0  0  0  0  0  0  0  0  0
   -3.1277    0.1030    0.6089 C   0  0  0  0  0  0  0  0  0  0  0  0
    7.2008    1.5756   -0.4913 C   0  0  0  0  0  0  0  0  0  0  0  0
   -4.5758    0.2699    0.3223 C   0  0  0  0  0  0  0  0  0  0  0  0
    7.2811   -0.2449    1.0372 C   0  0  0  0  0  0  0  0  0  0  0  0
    7.9385    0.7834    0.3814 C   0  0  0  0  0  0  0  0  0  0  0  0
   -5.1290    1.5310    0.3998 C   0  0  0  0  0  0  0  0  0  0  0  0
   -5.3212   -0.8419   -0.0114 C   0  0  0  0  0  0  0  0  0  0  0  0
   -6.4889    1.6876    0.1315 C   0  0  0  0  0  0  0  0  0  0  0  0
   -6.6811   -0.6854   -0.2797 C   0  0  0  0  0  0  0  0  0  0  0  0
   -7.2649    0.5795   -0.2084 C   0  0  0  0  0  0  0  0  0  0  0  0
  1 16  2  0
  2  7  1  0
  2  8  1  0
  2 11  1  0
  3  9  1  0
  3 10  1  0
  3 13  1  0
  4 12  1  0
  4 16  1  0
  5 13  2  0
  5 19  1  0
  6 25  1  0
  7  9  1  0
  8 10  1  0
 11 12  1  0
 12 14  1  0
 13 15  1  0
 15 17  2  0
 16 18  1  0
 17 20  1  0
 18 21  2  0
 18 22  1  0
 19 20  2  0
 21 23  1  0
 22 24  2  0
 23 25  2  0
 24 25  1  0
M  END
>  <PUBCHEM_COMPOUND_CID>  (1) 
41280

>  <PUBCHEM_CONFORMER_RMSD>  (1) 
0.8

>  <PUBCHEM_CONFORMER_DIVERSEORDER>  (1) 
2
88
34
76
119
55
108
50
27
117
78
61
104
107
80
4
42
116
10
106
90
20
118
93
68
114
63
75
35
111
16
36
102
82
112
56
40
115
98
51
12
15
60
105
101
18
46
3
113
9
37
1
22
83
91
13
39
38
109
79
97
94
62
52
47
11
25
53
64
49
73
103
45
29
7
19
70
14
84
23
69
33
21
95
59
99
92
100
6
24
44
41
57
89
96
77
87
30
31
48
81
71
43
54
74
86
66
17
67
8
28
26
85
58
32
5
72
110
65

>  <PUBCHEM_MMFF94_PARTIAL_CHARGES>  (1) 
35
1 -0.57
10 0.37
11 0.27
12 0.3
13 0.41
15 -0.15
16 0.54
17 -0.15
18 0.09
19 0.16
2 -0.81
20 -0.15
21 -0.15
22 -0.15
23 -0.15
24 -0.15
25 0.1
3 -0.84
4 -0.73
40 0.37
41 0.15
42 0.15
43 0.15
44 0.15
45 0.15
46 0.15
47 0.15
48 0.15
49 0.4
5 -0.62
50 0.4
6 -0.9
7 0.27
8 0.27
9 0.37

>  <PUBCHEM_EFFECTIVE_ROTOR_COUNT>  (1) 
7.2

>  <PUBCHEM_PHARMACOPHORE_FEATURES>  (1) 
10
1 1 acceptor
1 2 cation
1 3 cation
1 4 donor
1 5 acceptor
1 6 cation
1 6 donor
6 18 21 22 23 24 25 rings
6 2 3 7 8 9 10 rings
6 5 13 15 17 19 20 rings

>  <PUBCHEM_HEAVY_ATOM_COUNT>  (1) 
25

>  <PUBCHEM_ATOM_DEF_STEREO_COUNT>  (1) 
0

>  <PUBCHEM_ATOM_UDEF_STEREO_COUNT>  (1) 
1

>  <PUBCHEM_BOND_DEF_STEREO_COUNT>  (1) 
0

>  <PUBCHEM_BOND_UDEF_STEREO_COUNT>  (1) 
0

>  <PUBCHEM_ISOTOPIC_ATOM_COUNT>  (1) 
0

>  <PUBCHEM_COMPONENT_COUNT>  (1) 
1

>  <PUBCHEM_CACTVS_TAUTO_COUNT>  (1) 
3

>  <PUBCHEM_CONFORMER_ID>  (1) 
0000A14000000002

>  <PUBCHEM_MMFF94_ENERGY>  (1) 
83.54

>  <PUBCHEM_FEATURE_SELFOVERLAP>  (1) 
50.749

>  <PUBCHEM_SHAPE_FINGERPRINT>  (1) 
10 15 18040719172910122096
11089746 13 18260268576691902813
11315181 36 18413672414358346609
11719270 70 17632296744700830574
11991303 11 16486967448823154132
12236239 1 18113056055871115058
12592606 108 9511451218264907313
13540713 5 16228320605865060582
13668630 136 12607404390629928213
13673619 4 11891332066899899790
13685833 64 12107787410906685470
14118638 360 16486983851281994947
14123256 10 16272208583038980785
14251764 18 18113899381226075398
14251764 46 18410291410668413467
14347424 109 18259980471377482978
14420673 8 8286193947304460545
14617045 38 11602537624198208656
15003188 100 15554443020677459530
15183329 4 17346604070975432442
15461852 350 18271527593352031959
15840311 113 18040719190886862708
15849732 13 18113337522183947198
16989713 51 17416678249813206095
18335252 98 17489592285920060727
18643901 69 7997976790476179634
20281389 69 18260264157645549244
20554085 129 18060127735490898130
21150785 3 13183021822157746964
21267235 1 9583517620758383351
21403212 168 17530679896645302187
21521239 73 12823305593988849828
21591340 7 18113896083356057543
21792961 116 17060350613047664358
22224240 67 16877941650556970970
22956985 138 11532408527165802928
23035841 295 9583520910370801845
23559900 14 13542167420682314334
246663 6 10737284636521057580
249057 3 15769768091799835141
3103668 31 15911899833676226015
3178227 256 14201398292244647624
3411729 13 18409448047150007618
4073 2 18187369860844636834
4093350 32 17240756255902513810
4325135 7 15123508108140472229
5028188 123 18116164432343483718
5104073 3 15647915862239250160
5207 217 17132396116219696223
54039377 194 10879985888021398261
5470011 282 13039184814592170544
5758199 1 17748826323874623946
59755656 520 18336539495351885975
6394761 36 13623529056834678855
999808 66 12391504331061760437

>  <PUBCHEM_SHAPE_MULTIPOLES>  (1) 
483.71
25.69
1.63
1.12
1.83
0.43
-0.19
-11.66
1.5
0.91
0.04
-1.06
0
-0.76

>  <PUBCHEM_SHAPE_SELFOVERLAP>  (1) 
1019.144

>  <PUBCHEM_SHAPE_VOLUME>  (1) 
270

>  <PUBCHEM_COORDINATE_TYPE>  (1) 
2
5
10

$$$$
