41283
     RDKit          3D

 20 21  0  0  0  0  0  0  0  0999 V2000
    2.7155    0.4728    0.0098 C   0  0  0  0  0  0  0  0  0  0  0  0
    1.4170   -0.3366   -0.0631 C   0  0  0  0  0  0  0  0  0  0  0  0
    4.0101   -0.3449    0.0538 C   0  0  0  0  0  0  0  0  0  0  0  0
    0.1572    0.5326   -0.0466 C   0  0  0  0  0  0  0  0  0  0  0  0
    5.2756    0.5150    0.0392 C   0  0  0  0  0  0  0  0  0  0  0  0
   -1.0951   -0.3074   -0.0278 C   0  0  0  0  0  0  0  0  0  0  0  0
   -2.3901    0.2206   -0.0102 C   0  0  0  0  0  0  0  0  0  0  0  0
    6.5347   -0.3535   -0.0066 C   0  0  0  0  0  0  0  0  0  0  0  0
   -3.4914   -0.6682    0.0066 C   0  0  0  0  0  0  0  0  0  0  0  0
   -2.6249    1.6051   -0.0090 C   0  0  0  0  0  0  0  0  0  0  0  0
    7.8014    0.5019    0.0120 C   0  0  0  0  0  0  0  0  0  0  0  0
   -0.8717   -1.6800   -0.0289 C   0  0  0  0  0  0  0  0  0  0  0  0
   -4.7950   -0.1461    0.0242 C   0  0  0  0  0  0  0  0  0  0  0  0
   -3.2565   -2.0528    0.0053 C   0  0  0  0  0  0  0  0  0  0  0  0
   -1.9546   -2.5540   -0.0124 C   0  0  0  0  0  0  0  0  0  0  0  0
   -3.9268    2.1063    0.0087 C   0  0  0  0  0  0  0  0  0  0  0  0
   -5.0097    1.2324    0.0252 C   0  0  0  0  0  0  0  0  0  0  0  0
   -1.5469    2.6446   -0.0256 C   0  0  0  0  0  0  0  0  0  0  0  0
    9.0550   -0.3586    0.0013 C   0  0  0  0  0  0  0  0  0  0  0  0
   -6.0038   -1.0295    0.0441 C   0  0  0  0  0  0  0  0  0  0  0  0
  1  2  1  0
  1  3  1  0
  2  4  1  0
  3  5  1  0
  4  6  1  0
  5  8  1  0
  6  7  2  0
  6 12  1  0
  7  9  1  0
  7 10  1  0
  8 11  1  0
  9 13  1  0
  9 14  2  0
 10 16  2  0
 10 18  1  0
 11 19  1  0
 12 15  2  0
 13 17  2  0
 13 20  1  0
 14 15  1  0
 16 17  1  0
M  END
>  <PUBCHEM_COMPOUND_CID>  (1) 
41283

>  <PUBCHEM_CONFORMER_RMSD>  (1) 
0.8

>  <PUBCHEM_CONFORMER_DIVERSEORDER>  (1) 
1
3
5
6
18
16
19
7
13
17
2
10
9
8
11
4
14
15
12

>  <PUBCHEM_MMFF94_PARTIAL_CHARGES>  (1) 
16
10 -0.14
12 -0.15
13 -0.14
14 -0.15
15 -0.15
16 -0.15
17 -0.15
18 0.14
20 0.14
35 0.15
36 0.15
37 0.15
38 0.15
39 0.15
4 0.14
6 -0.14

>  <PUBCHEM_EFFECTIVE_ROTOR_COUNT>  (1) 
7

>  <PUBCHEM_PHARMACOPHORE_FEATURES>  (1) 
3
1 19 hydrophobe
6 6 7 9 12 14 15 rings
6 7 9 10 13 16 17 rings

>  <PUBCHEM_HEAVY_ATOM_COUNT>  (1) 
20

>  <PUBCHEM_ATOM_DEF_STEREO_COUNT>  (1) 
0

>  <PUBCHEM_ATOM_UDEF_STEREO_COUNT>  (1) 
0

>  <PUBCHEM_BOND_DEF_STEREO_COUNT>  (1) 
0

>  <PUBCHEM_BOND_UDEF_STEREO_COUNT>  (1) 
0

>  <PUBCHEM_ISOTOPIC_ATOM_COUNT>  (1) 
0

>  <PUBCHEM_COMPONENT_COUNT>  (1) 
1

>  <PUBCHEM_CACTVS_TAUTO_COUNT>  (1) 
1

>  <PUBCHEM_CONFORMER_ID>  (1) 
0000A14300000001

>  <PUBCHEM_MMFF94_ENERGY>  (1) 
63.1247

>  <PUBCHEM_FEATURE_SELFOVERLAP>  (1) 
15.249

>  <PUBCHEM_SHAPE_FINGERPRINT>  (1) 
10299344 5 18113336397999651010
10319926 262 18341880923260920322
10411042 1 18050567641276078287
10730089 173 18409730655733502304
10968037 39 18333731325104696874
11315181 36 18040719190359127092
11524674 6 17060337440071939838
11719270 70 18060419081088471046
12091667 2 18412263947719617506
12236239 1 17822008701032802224
12390115 104 18129112130199394209
13140716 1 18122635105258823603
13288520 33 18412262857014046293
13403585 85 18413105078647340248
13885169 127 18412545389032714160
14251764 18 18187080646937478554
14251764 46 18411418418713923639
14933364 13 18413108373351466992
15042514 8 18265898154364410315
15183329 4 18409449164283823922
15419008 47 17704066288415154952
15510794 2 18131354091187100574
17093844 174 18410290328874673410
17844677 252 18340211881911481952
18336668 15 18040438797519678989
19489759 90 18341895194946581816
20281389 69 18408884045298272752
21236236 1 18412825780712432125
21267235 1 18336269037187179363
21315763 28 18409729578298006660
21360443 120 17748827398176260602
2297311 6 18341898497565676224
23402539 116 18342170081680850605
23559900 14 18343577469449624056
2748010 2 17906172107967897207
3004659 81 18335137610084889640
335352 9 18410569601008064349
3545911 37 18413951681220531514
4073 2 18114185289696050538
4214541 1 18410855469235255940
445580 37 18410866451899317708
559249 180 18408321090638258502
58260988 114 16009611186248882635
59755656 215 18341898463891850814
59755656 520 16877942758801062234
6327066 14 17971746684421404381
67856867 119 18261678194282173148

>  <PUBCHEM_SHAPE_MULTIPOLES>  (1) 
411.59
19.72
2.23
0.62
54.78
0.14
0
-0.1
0.26
-3.66
-0.01
0
0
0.01

>  <PUBCHEM_SHAPE_SELFOVERLAP>  (1) 
850.913

>  <PUBCHEM_SHAPE_VOLUME>  (1) 
229.3

>  <PUBCHEM_COORDINATE_TYPE>  (1) 
2
5
10

$$$$
