41284
     RDKit          3D

 14 14  0  0  0  0  0  0  0  0999 V2000
   -3.6782    0.5657   -1.3115 Cl  0  0  0  0  0  0  0  0  0  0  0  0
   -2.1279   -1.8045   -0.1424 O   0  0  0  0  0  0  0  0  0  0  0  0
   -2.5877    0.5734    0.1326 C   0  0  0  0  0  0  0  0  0  0  0  0
   -1.6869   -0.6608   -0.0324 C   0  0  0  0  0  0  0  0  0  0  0  0
   -0.2186   -0.5140   -0.0356 C   0  0  0  0  0  0  0  0  0  0  0  0
    2.5366   -0.2419   -0.0430 C   0  0  0  0  0  0  0  0  0  0  0  0
   -3.4564    0.4198    1.3801 C   0  0  0  0  0  0  0  0  0  0  0  0
   -1.8551    1.9151    0.1298 C   0  0  0  0  0  0  0  0  0  0  0  0
    4.0206   -0.0942   -0.0463 C   0  0  0  0  0  0  0  0  0  0  0  0
    0.4720   -0.5943    1.1615 C   0  0  0  0  0  0  0  0  0  0  0  0
    0.4366   -0.3009   -1.2363 C   0  0  0  0  0  0  0  0  0  0  0  0
    1.8601   -0.4570    1.1578 C   0  0  0  0  0  0  0  0  0  0  0  0
    1.8248   -0.1639   -1.2400 C   0  0  0  0  0  0  0  0  0  0  0  0
    4.4601    1.3576    0.1257 C   0  0  0  0  0  0  0  0  0  0  0  0
  1  3  1  0
  2  4  2  0
  3  4  1  0
  3  7  1  0
  3  8  1  0
  4  5  1  0
  5 10  2  0
  5 11  1  0
  6  9  1  0
  6 12  2  0
  6 13  1  0
  9 14  1  0
 10 12  1  0
 11 13  2  0
M  END
>  <PUBCHEM_COMPOUND_CID>  (1) 
41284

>  <PUBCHEM_CONFORMER_RMSD>  (1) 
0.6

>  <PUBCHEM_CONFORMER_DIVERSEORDER>  (1) 
1
16
13
4
15
19
3
17
9
6
12
7
11
14
18
5
2
10
8

>  <PUBCHEM_MMFF94_PARTIAL_CHARGES>  (1) 
15
1 -0.29
10 -0.15
11 -0.15
12 -0.15
13 -0.15
2 -0.57
23 0.15
24 0.15
25 0.15
26 0.15
3 0.35
4 0.42
5 0.09
6 -0.14
9 0.14

>  <PUBCHEM_EFFECTIVE_ROTOR_COUNT>  (1) 
3

>  <PUBCHEM_PHARMACOPHORE_FEATURES>  (1) 
4
1 14 hydrophobe
1 2 acceptor
3 3 7 8 hydrophobe
6 5 6 10 11 12 13 rings

>  <PUBCHEM_HEAVY_ATOM_COUNT>  (1) 
14

>  <PUBCHEM_ATOM_DEF_STEREO_COUNT>  (1) 
0

>  <PUBCHEM_ATOM_UDEF_STEREO_COUNT>  (1) 
0

>  <PUBCHEM_BOND_DEF_STEREO_COUNT>  (1) 
0

>  <PUBCHEM_BOND_UDEF_STEREO_COUNT>  (1) 
0

>  <PUBCHEM_ISOTOPIC_ATOM_COUNT>  (1) 
0

>  <PUBCHEM_COMPONENT_COUNT>  (1) 
1

>  <PUBCHEM_CACTVS_TAUTO_COUNT>  (1) 
1

>  <PUBCHEM_CONFORMER_ID>  (1) 
0000A14400000001

>  <PUBCHEM_MMFF94_ENERGY>  (1) 
39.7773

>  <PUBCHEM_FEATURE_SELFOVERLAP>  (1) 
20.297

>  <PUBCHEM_SHAPE_FINGERPRINT>  (1) 
11031198 65 16486981652269256333
11132069 177 18113614603799413228
11471102 22 15285367193047538912
12138202 97 18060693987899259815
12251169 10 15574722382632276833
124424 183 17846213332995871738
12507560 40 17531248288590955385
12670546 177 15553877927293257428
12670546 56 18340474578984920802
12932764 1 18187365423900007858
13581323 91 18334583433868659915
13675066 3 17458347424884714942
13705890 14 12175617395668234592
14911166 2 15339121260405344104
14943859 89 18411420609368660946
15209294 21 17894623752035546308
15309172 13 16443065006362227946
15375462 478 17240771665965531149
15775835 57 18040713641076816325
16945 1 18411421678757462719
18186145 218 18411426107232741766
18534176 82 18059853995480833039
19026448 4 18341899619095511462
19026448 5 18411978087903219962
200 152 16443347628432940147
20112054 13 17022897952132467708
201361 129 18261673658579852522
20645477 56 18411707577423913732
21293036 1 15769772472713793884
21339142 149 18188773988658587002
21501502 16 17274541993060413863
23114952 82 17058955263687574364
23402539 116 18272080587623579869
23402655 69 16199873852226200081
23493267 7 17846786217187718762
23557571 272 18129390452047285854
23559900 14 18272936012482213526
25 1 16415206611440028707
3286 77 14996579441920667471
465052 167 11310620667912204501
474 4 17895759637826001772
4990 188 14261354661112243596
528886 8 15338835309666724035
568465 68 14924241395029546296

>  <PUBCHEM_SHAPE_MULTIPOLES>  (1) 
284.11
7.33
1.35
1.31
3.24
0.22
-0.04
2.47
0.58
-0.38
0.13
-0.51
0.02
0.01

>  <PUBCHEM_SHAPE_SELFOVERLAP>  (1) 
572.613

>  <PUBCHEM_SHAPE_VOLUME>  (1) 
168.4

>  <PUBCHEM_COORDINATE_TYPE>  (1) 
2
5
10

$$$$
