4129
     RDKit          3D

 23 22  0  0  1  0  0  0  0  0999 V2000
   -2.7052   -0.6067    1.2259 P   0  0  0  0  0  0  0  0  0  0  0  0
   -1.3307   -1.2582    0.8681 F   0  0  0  0  0  0  0  0  0  0  0  0
   -3.4781   -1.7589    2.0490 O   0  0  0  0  0  0  0  0  0  0  0  0
   -2.5101    0.6587    1.9928 O   0  0  0  0  0  0  0  0  0  0  0  0
   -1.6137    2.3289   -2.1294 C   0  0  0  0  0  0  0  0  0  0  0  0
   -0.1373    2.5129   -2.4932 C   0  0  0  0  0  0  0  0  0  0  0  0
   -1.9612    1.0251   -1.4062 C   0  0  0  0  0  0  0  0  0  0  0  0
    0.8373    2.5778   -1.3136 C   0  0  0  0  0  0  0  0  0  0  0  0
   -3.4284    0.9337   -0.9841 C   0  0  0  0  0  0  0  0  0  0  0  0
    0.5038    3.6802   -0.3056 C   0  0  0  0  0  0  0  0  0  0  0  0
   -3.7264   -0.3656   -0.2458 C   0  0  0  0  0  0  0  0  0  0  0  0
    1.5618    3.7539    0.7999 C   0  0  0  0  0  0  0  0  0  0  0  0
    1.6250    2.4699    1.5754 C   0  0  0  0  0  0  0  0  0  0  0  0
    2.6879    1.6697    1.7518 C   0  0  0  0  0  0  0  0  0  0  0  0
    2.7525    0.3861    2.5266 C   0  0  0  0  0  0  0  0  0  0  0  0
   -3.6862   -3.0319    1.4636 C   0  0  0  0  0  0  0  0  0  0  0  0
    3.1314   -0.7717    1.6508 C   0  0  0  0  0  0  0  0  0  0  0  0
    2.3483   -1.8426    1.4496 C   0  0  0  0  0  0  0  0  0  0  0  0
    2.7144   -2.9819    0.5431 C   0  0  0  0  0  0  0  0  0  0  0  0
    2.2521   -2.8630   -0.8858 C   0  0  0  0  0  0  0  0  0  0  0  0
    1.5700   -1.8525   -1.4486 C   0  0  0  0  0  0  0  0  0  0  0  0
    1.1212   -1.7513   -2.8817 C   0  0  0  0  0  0  0  0  0  0  0  0
    1.4718   -2.9124   -3.8024 C   0  0  0  0  0  0  0  0  0  0  0  0
  1  2  1  0
  1  3  1  0
  1  4  2  0
  1 11  1  0
  3 16  1  0
  5  6  1  0
  5  7  1  0
  6  8  1  0
  7  9  1  0
  8 10  1  0
  9 11  1  0
 10 12  1  0
 12 13  1  0
 13 14  2  0
 14 15  1  0
 15 17  1  0
 17 18  2  0
 18 19  1  0
 19 20  1  0
 20 21  2  0
 21 22  1  0
 22 23  1  0
M  END
>  <PUBCHEM_COMPOUND_CID>  (1) 
4129

>  <PUBCHEM_CONFORMER_RMSD>  (1) 
1.6

>  <PUBCHEM_CONFORMER_DIVERSEORDER>  (1) 
1
9
49
44
27
105
32
5
36
48
30
106
3
57
34
79
15
38
62
29
58
59
95
70
25
37
39
77
97
45
89
75
81
10
85
43
54
69
22
102
8
17
110
23
42
6
40
13
12
16
100
82
31
64
60
93
11
88
103
86
68
73
52
53
63
109
46
92
65
96
108
107
71
61
90
66
47
80
26
2
111
24
33
76
72
87
7
50
101
83
94
21
28
112
56
91
35
19
67
41
14
51
74
20
99
84
18
98
4
55
78
104

>  <PUBCHEM_MMFF94_PARTIAL_CHARGES>  (1) 
21
1 1.3
12 0.14
13 -0.29
14 -0.29
15 0.28
16 0.28
17 -0.29
18 -0.29
19 0.28
2 -0.33
20 -0.29
21 -0.29
22 0.14
3 -0.55
4 -0.7
40 0.15
41 0.15
47 0.15
48 0.15
51 0.15
52 0.15

>  <PUBCHEM_EFFECTIVE_ROTOR_COUNT>  (1) 
15

>  <PUBCHEM_PHARMACOPHORE_FEATURES>  (1) 
1
1 23 hydrophobe

>  <PUBCHEM_HEAVY_ATOM_COUNT>  (1) 
23

>  <PUBCHEM_ATOM_DEF_STEREO_COUNT>  (1) 
0

>  <PUBCHEM_ATOM_UDEF_STEREO_COUNT>  (1) 
1

>  <PUBCHEM_BOND_DEF_STEREO_COUNT>  (1) 
0

>  <PUBCHEM_BOND_UDEF_STEREO_COUNT>  (1) 
3

>  <PUBCHEM_ISOTOPIC_ATOM_COUNT>  (1) 
0

>  <PUBCHEM_COMPONENT_COUNT>  (1) 
1

>  <PUBCHEM_CACTVS_TAUTO_COUNT>  (1) 
1

>  <PUBCHEM_CONFORMER_ID>  (1) 
0000102100000001

>  <PUBCHEM_MMFF94_ENERGY>  (1) 
4.9825

>  <PUBCHEM_FEATURE_SELFOVERLAP>  (1) 
5.074

>  <PUBCHEM_SHAPE_FINGERPRINT>  (1) 
10708813 3 17697556165385637644
11112662 9 17337325515655261697
11244481 83 18261124005317736547
12156800 1 13487908974314343896
12712778 12 17177681495628120626
13402501 40 18045753768024286152
13642711 20 16525465676365573791
14932701 244 17835558984171960150
15003188 3 18266453201282231213
20397935 3 17676767565742205396
20600515 1 18123496906682753070
20765182 20 18412259570862989632
35225 105 17051053395303263228
445580 42 15612160414282735294
539174 4 15552448381613884204
57307002 85 17624402088036458438

>  <PUBCHEM_SHAPE_MULTIPOLES>  (1) 
458.17
6.15
5.38
3.7
3.43
2.06
2.39
-3.88
-3.59
-1.92
1.14
-0.73
-1.83
3.96

>  <PUBCHEM_SHAPE_SELFOVERLAP>  (1) 
839.331

>  <PUBCHEM_SHAPE_VOLUME>  (1) 
288.8

>  <PUBCHEM_COORDINATE_TYPE>  (1) 
2
5
10

$$$$
