41296
     RDKit          3D

 18 19  0  0  1  0  0  0  0  0999 V2000
    0.5973    2.1079    0.9158 O   0  0  0  0  0  0  0  0  0  0  0  0
    2.5709    0.3411    0.1689 N   0  0  0  0  0  0  0  0  0  0  0  0
   -5.0460   -1.7792   -0.4515 C   0  0  0  0  0  0  0  0  0  0  0  0
   -3.8349   -2.0402    0.4569 C   0  0  0  0  0  0  0  0  0  0  0  0
   -5.2334   -0.2558   -0.5121 C   0  0  0  0  0  0  0  0  0  0  0  0
   -3.0339   -0.7961    0.2358 C   0  0  0  0  0  0  0  0  0  0  0  0
   -3.8279    0.2170   -0.3144 C   0  0  0  0  0  0  0  0  0  0  0  0
   -1.7033   -0.5718    0.5461 C   0  0  0  0  0  0  0  0  0  0  0  0
   -1.1668    0.6907    0.2845 C   0  0  0  0  0  0  0  0  0  0  0  0
   -3.3076    1.4752   -0.5657 C   0  0  0  0  0  0  0  0  0  0  0  0
    3.5662   -0.7323    0.1595 C   0  0  0  0  0  0  0  0  0  0  0  0
    1.2563   -0.1813    0.5255 C   0  0  0  0  0  0  0  0  0  0  0  0
   -1.9631    1.7068   -0.2673 C   0  0  0  0  0  0  0  0  0  0  0  0
    0.2288    0.9592    0.5943 C   0  0  0  0  0  0  0  0  0  0  0  0
    4.9572   -0.1636   -0.1155 C   0  0  0  0  0  0  0  0  0  0  0  0
    6.0163   -1.2666   -0.1084 C   0  0  0  0  0  0  0  0  0  0  0  0
    2.5252    1.0029   -1.1358 C   0  0  0  0  0  0  0  0  0  0  0  0
    7.3988   -0.7138   -0.4165 C   0  0  0  0  0  0  0  0  0  0  0  0
  1 14  2  0
  2 11  1  0
  2 12  1  0
  2 17  1  0
  3  4  1  0
  3  5  1  0
  4  6  1  0
  5  7  1  0
  6  7  2  0
  6  8  1  0
  7 10  1  0
  8  9  2  0
  9 13  1  0
  9 14  1  0
 10 13  2  0
 11 15  1  0
 12 14  1  0
 15 16  1  0
 16 18  1  0
M  END
>  <PUBCHEM_COMPOUND_CID>  (1) 
41296

>  <PUBCHEM_CONFORMER_RMSD>  (1) 
0.8

>  <PUBCHEM_CONFORMER_DIVERSEORDER>  (1) 
1
125
48
38
93
96
145
49
126
107
98
103
102
112
124
37
116
34
73
15
136
88
30
92
72
86
66
5
141
128
71
143
90
109
138
31
9
119
33
80
57
131
29
114
43
41
148
111
18
20
117
74
56
76
27
77
52
58
44
13
106
137
28
85
6
11
64
142
53
82
113
14
60
46
115
91
133
47
10
83
95
36
24
2
87
59
94
22
16
147
19
101
135
23
122
55
65
67
62
75
134
121
21
84
69
50
144
3
130
54
32
118
35
26
110
100
140
129
99
132
7
61
104
127
39
79
42
8
40
81
78
17
105
139
89
70
68
146
25
45
120
51
4
123
12
97
63
108

>  <PUBCHEM_MMFF94_PARTIAL_CHARGES>  (1) 
17
1 -0.57
10 -0.15
11 0.27
12 0.33
13 -0.15
14 0.42
17 0.27
2 -0.81
25 0.15
26 0.15
31 0.15
4 0.14
5 0.14
6 -0.14
7 -0.14
8 -0.15
9 0.09

>  <PUBCHEM_EFFECTIVE_ROTOR_COUNT>  (1) 
6.6

>  <PUBCHEM_PHARMACOPHORE_FEATURES>  (1) 
5
1 1 acceptor
1 18 hydrophobe
1 2 cation
5 3 4 5 6 7 rings
6 6 7 8 9 10 13 rings

>  <PUBCHEM_HEAVY_ATOM_COUNT>  (1) 
18

>  <PUBCHEM_ATOM_DEF_STEREO_COUNT>  (1) 
0

>  <PUBCHEM_ATOM_UDEF_STEREO_COUNT>  (1) 
0

>  <PUBCHEM_BOND_DEF_STEREO_COUNT>  (1) 
0

>  <PUBCHEM_BOND_UDEF_STEREO_COUNT>  (1) 
0

>  <PUBCHEM_ISOTOPIC_ATOM_COUNT>  (1) 
0

>  <PUBCHEM_COMPONENT_COUNT>  (1) 
1

>  <PUBCHEM_CACTVS_TAUTO_COUNT>  (1) 
2

>  <PUBCHEM_CONFORMER_ID>  (1) 
0000A15000000001

>  <PUBCHEM_MMFF94_ENERGY>  (1) 
42.9966

>  <PUBCHEM_FEATURE_SELFOVERLAP>  (1) 
25.455

>  <PUBCHEM_SHAPE_FINGERPRINT>  (1) 
10 15 11023820691325065174
10354089 29 11887955458638738410
10968037 39 18408605863980995478
11089746 13 7925624476025304746
11315181 36 18273497870590684936
11524674 6 16773795909174437879
12236239 1 18260267426416075422
12251169 10 11743838079749610825
12516196 113 18202279208768226624
12596602 18 14764336167559001799
12760667 363 18343023306972896883
12892183 10 13613978694240175453
12954195 1 18338228272693305117
13288520 33 18413107260416620245
13740256 8 18343582958143242184
1420 363 17775286050170524990
14251718 22 18408887322305260182
14251751 18 18411702114436782814
14508225 48 18334285496789180661
14848160 23 18273210885824924522
14849402 71 12894485816487544690
15183329 4 17022900134535185618
15716309 27 17060337418707554062
17780758 139 17418098710912931147
17834072 33 18187368731705197644
17870717 6 18408326562205093167
1813 80 15984835847632621048
18186145 218 15430036603708766269
18681886 176 18408601483710251336
18927931 339 18409173207723098447
19489759 90 18187083936344259482
19784866 240 18343025496894352481
200 152 18411138017927254520
20281389 69 9007054656868718326
20374829 77 18410290324358231187
20871999 31 18260264127227233361
21054139 6 18187082854408692178
21267235 1 18334859459349608019
21307412 95 18264479750200234567
21623969 137 17203613662374232854
22224240 67 15051725387878006302
2297311 6 18412546500427177425
23035841 295 18410856538523844338
23198884 109 16515404058070428946
23402539 116 18333729100385575300
23403322 49 18412544305909879251
23557571 272 18272090448526060956
23559900 14 18336259158219475889
25122255 55 18201449034534795486
26918003 58 16487255486868470979
3004659 81 18259700116622397330
335352 9 18409725150345103837
4214541 1 18408040688907629645
465052 167 18128823117475938311
5104073 3 18273217525280148505
559249 180 18335416820658981547
5718773 13 18129373972917921151
59755656 215 18412827958783812030
67856867 119 18188213212391348516
7062679 117 18335140882179919594
7495541 125 17917709136969351568
76465 3 18129375063802002199

>  <PUBCHEM_SHAPE_MULTIPOLES>  (1) 
359.58
15.03
1.86
0.86
22.51
0.06
-0.04
-8.11
-3.4
-1.62
0.06
0.01
0.13
0.18

>  <PUBCHEM_SHAPE_SELFOVERLAP>  (1) 
741.893

>  <PUBCHEM_SHAPE_VOLUME>  (1) 
210.3

>  <PUBCHEM_COORDINATE_TYPE>  (1) 
2
5
10

$$$$
