41302
     RDKit          3D

 19 21  0  0  0  0  0  0  0  0999 V2000
    0.6089   -1.5690   -1.4644 O   0  0  0  0  0  0  0  0  0  0  0  0
    2.4128    0.3206   -0.5969 N   0  0  0  0  0  0  0  0  0  0  0  0
    4.8937    0.2456    0.8858 N   0  0  0  0  0  0  0  0  0  0  0  0
    2.5663   -0.5301    0.5896 C   0  0  0  0  0  0  0  0  0  0  0  0
    3.2746    1.5045   -0.4931 C   0  0  0  0  0  0  0  0  0  0  0  0
    4.0310   -0.9378    0.7823 C   0  0  0  0  0  0  0  0  0  0  0  0
    4.7395    1.0978   -0.2996 C   0  0  0  0  0  0  0  0  0  0  0  0
    1.0160    0.7097   -0.7795 C   0  0  0  0  0  0  0  0  0  0  0  0
   -3.2440    0.6859   -0.0728 C   0  0  0  0  0  0  0  0  0  0  0  0
   -4.2100    1.8277   -0.0372 C   0  0  0  0  0  0  0  0  0  0  0  0
   -5.2853    1.2777    0.9119 C   0  0  0  0  0  0  0  0  0  0  0  0
   -5.2768   -0.2501    0.7524 C   0  0  0  0  0  0  0  0  0  0  0  0
   -3.8497   -0.4938    0.3757 C   0  0  0  0  0  0  0  0  0  0  0  0
   -1.2215   -0.5102   -0.4945 C   0  0  0  0  0  0  0  0  0  0  0  0
    0.1717   -0.5395   -0.9545 C   0  0  0  0  0  0  0  0  0  0  0  0
   -1.9326    0.6915   -0.5166 C   0  0  0  0  0  0  0  0  0  0  0  0
    6.2906   -0.1446    1.0666 C   0  0  0  0  0  0  0  0  0  0  0  0
   -3.1563   -1.6921    0.3895 C   0  0  0  0  0  0  0  0  0  0  0  0
   -1.8289   -1.6935   -0.0448 C   0  0  0  0  0  0  0  0  0  0  0  0
  1 15  2  0
  2  4  1  0
  2  5  1  0
  2  8  1  0
  3  6  1  0
  3  7  1  0
  3 17  1  0
  4  6  1  0
  5  7  1  0
  8 15  1  0
  9 10  1  0
  9 13  2  0
  9 16  1  0
 10 11  1  0
 11 12  1  0
 12 13  1  0
 13 18  1  0
 14 15  1  0
 14 16  2  0
 14 19  1  0
 18 19  2  0
M  END
>  <PUBCHEM_COMPOUND_CID>  (1) 
41302

>  <PUBCHEM_CONFORMER_RMSD>  (1) 
0.6

>  <PUBCHEM_CONFORMER_DIVERSEORDER>  (1) 
1
51
110
29
111
7
46
93
22
99
80
31
117
37
70
72
89
3
103
33
108
35
21
40
63
83
24
84
112
32
64
60
12
105
69
97
36
98
124
53
118
95
122
15
52
113
88
71
94
61
13
116
39
50
100
17
44
11
9
55
82
56
107
101
65
8
75
62
96
68
2
92
27
77
123
41
54
67
119
104
79
106
34
87
25
48
19
66
85
73
59
43
45
23
42
90
86
26
57
20
18
109
14
28
6
38
115
78
58
91
102
5
74
120
114
10
47
81
121
76
4
30
16
49

>  <PUBCHEM_MMFF94_PARTIAL_CHARGES>  (1) 
21
1 -0.57
10 0.14
12 0.14
13 -0.14
14 0.09
15 0.42
16 -0.15
17 0.27
18 -0.15
19 -0.15
2 -0.81
3 -0.81
36 0.15
4 0.27
40 0.15
41 0.15
5 0.27
6 0.27
7 0.27
8 0.33
9 -0.14

>  <PUBCHEM_EFFECTIVE_ROTOR_COUNT>  (1) 
4.8

>  <PUBCHEM_PHARMACOPHORE_FEATURES>  (1) 
6
1 1 acceptor
1 2 cation
1 3 cation
5 9 10 11 12 13 rings
6 2 3 4 5 6 7 rings
6 9 13 14 16 18 19 rings

>  <PUBCHEM_HEAVY_ATOM_COUNT>  (1) 
19

>  <PUBCHEM_ATOM_DEF_STEREO_COUNT>  (1) 
0

>  <PUBCHEM_ATOM_UDEF_STEREO_COUNT>  (1) 
0

>  <PUBCHEM_BOND_DEF_STEREO_COUNT>  (1) 
0

>  <PUBCHEM_BOND_UDEF_STEREO_COUNT>  (1) 
0

>  <PUBCHEM_ISOTOPIC_ATOM_COUNT>  (1) 
0

>  <PUBCHEM_COMPONENT_COUNT>  (1) 
1

>  <PUBCHEM_CACTVS_TAUTO_COUNT>  (1) 
2

>  <PUBCHEM_CONFORMER_ID>  (1) 
0000A15600000001

>  <PUBCHEM_MMFF94_ENERGY>  (1) 
49.0003

>  <PUBCHEM_FEATURE_SELFOVERLAP>  (1) 
30.532

>  <PUBCHEM_SHAPE_FINGERPRINT>  (1) 
10354089 29 18335421266540814304
11089746 13 17774992505971845704
11128504 68 12175618473372690619
11543360 7 11240000052959208447
12107183 9 17756698642161057048
12236239 1 17968097542302745873
12251169 10 18333450958271733903
12403259 118 18342736359722469957
12467345 10 18260546697446972216
12507557 5 18202002144396134817
12596602 18 17530687640661351585
12633257 1 18259984889812263852
12670546 177 10663824069930401457
12670546 56 18260823838780412813
12969540 114 16128371550062134077
13167823 11 18113899389958441290
13288520 33 11674879992163928891
13583140 156 17749657537400795055
13668630 136 12829490324924309752
13675066 3 18273494585367886846
13740256 8 12179853800752883221
13914758 101 17095794461522513855
14251718 22 8790882991182245616
14251764 18 18334012826241568980
14341114 176 18334577910899166584
14341114 328 18187366553761171992
14420673 8 18116151074162210666
14466204 15 18272651225257718432
14528608 73 11167936983502551562
14576447 43 9439404627473943780
14844126 61 18190465055271102411
15188451 53 16660935490833552931
15238133 3 18341619204754462664
15527383 91 17676204676219071692
15537594 2 15357691998776494746
17844677 252 15140960651586042566
17980427 23 18411139173426711621
1813 80 16008753472436955998
18222031 100 13767927939973880862
18335252 98 14117514381366767157
19050596 39 18187646937705354676
193927 3 14129061387323781646
19489759 90 18201997746528679091
19784866 170 18341899575554858583
19784866 240 13840272481156662499
19784866 9 18412543198045674442
200 152 9439405735290552678
20374829 77 8070027744795341381
20871999 31 9583523113805114839
21065198 48 18188492492211918044
21637258 2 14851603293048035992
21859007 373 17315628505419000621
23402539 116 18410287034856303543
23503953 91 18408317809151174264
23559900 14 18198644154106611366
23622692 88 18186519899400226206
2767999 5 17346596365640832721
2838139 119 14692568827837848666
2916195 48 16917058993012977248
314173 85 14707206617226560495
351380 3 16732697242822846400
3545911 37 18343025479988711934
3737641 26 16444176518381915026
42 15 17822010908413877324
4214541 1 18333448746416531597
465052 167 12540993884186095953
474 4 14836118892532725106
5104073 3 18261392312288864552
542803 24 18343865532673869444
573450 72 18335136531172320483
5924683 9 18340202016013153767
59755656 520 16343983623831311991
9981440 41 18343027662207145251

>  <PUBCHEM_SHAPE_MULTIPOLES>  (1) 
375.18
13.58
1.68
1.07
7.66
0.02
0.05
-2.88
-6.02
-1.03
0.1
0.39
0.12
-0.6

>  <PUBCHEM_SHAPE_SELFOVERLAP>  (1) 
795.443

>  <PUBCHEM_SHAPE_VOLUME>  (1) 
213

>  <PUBCHEM_COORDINATE_TYPE>  (1) 
2
5
10

$$$$
