41307
     RDKit          3D

 16 18  0  0  1  0  0  0  0  0999 V2000
    0.0129   -1.3735   -0.1663 N   0  0  0  0  0  0  0  0  0  0  0  0
   -2.4296   -1.2289   -0.2381 C   0  0  0  0  0  0  0  0  0  0  0  0
   -3.5861   -0.3111    0.1910 C   0  0  0  0  0  0  0  0  0  0  0  0
   -3.4383    1.0682   -0.4374 C   0  0  0  0  0  0  0  0  0  0  0  0
   -2.1582    1.7360    0.0552 C   0  0  0  0  0  0  0  0  0  0  0  0
   -0.9619    0.8281   -0.0131 C   0  0  0  0  0  0  0  0  0  0  0  0
   -1.0737   -0.5587   -0.1057 C   0  0  0  0  0  0  0  0  0  0  0  0
    0.3227    1.3689    0.0705 C   0  0  0  0  0  0  0  0  0  0  0  0
   -2.5074   -2.5434    0.5450 C   0  0  0  0  0  0  0  0  0  0  0  0
    1.4512    0.5423    0.0285 C   0  0  0  0  0  0  0  0  0  0  0  0
    1.2470   -0.8429   -0.0948 C   0  0  0  0  0  0  0  0  0  0  0  0
    0.4831    2.8553    0.2162 C   0  0  0  0  0  0  0  0  0  0  0  0
    2.7539    1.0649    0.1039 C   0  0  0  0  0  0  0  0  0  0  0  0
    2.3662   -1.6696   -0.1421 C   0  0  0  0  0  0  0  0  0  0  0  0
    3.8565    0.2171    0.0554 C   0  0  0  0  0  0  0  0  0  0  0  0
    3.6618   -1.1528   -0.0682 C   0  0  0  0  0  0  0  0  0  0  0  0
  1  7  2  0
  1 11  1  0
  2  3  1  0
  2  7  1  0
  2  9  1  0
  3  4  1  0
  4  5  1  0
  5  6  1  0
  6  7  1  0
  6  8  2  0
  8 10  1  0
  8 12  1  0
 10 11  2  0
 10 13  1  0
 11 14  1  0
 13 15  2  0
 14 16  2  0
 15 16  1  0
M  END
>  <PUBCHEM_COMPOUND_CID>  (1) 
41307

>  <PUBCHEM_CONFORMER_RMSD>  (1) 
0.4

>  <PUBCHEM_CONFORMER_DIVERSEORDER>  (1) 
1
2

>  <PUBCHEM_MMFF94_PARTIAL_CHARGES>  (1) 
16
1 -0.62
11 0.31
12 0.14
13 -0.15
14 -0.15
15 -0.15
16 -0.15
2 0.14
30 0.15
31 0.15
32 0.15
33 0.15
5 0.14
6 -0.14
7 0.17
8 -0.14

>  <PUBCHEM_EFFECTIVE_ROTOR_COUNT>  (1) 
0.8

>  <PUBCHEM_PHARMACOPHORE_FEATURES>  (1) 
4
1 1 acceptor
6 1 6 7 8 10 11 rings
6 10 11 13 14 15 16 rings
6 2 3 4 5 6 7 rings

>  <PUBCHEM_HEAVY_ATOM_COUNT>  (1) 
16

>  <PUBCHEM_ATOM_DEF_STEREO_COUNT>  (1) 
0

>  <PUBCHEM_ATOM_UDEF_STEREO_COUNT>  (1) 
1

>  <PUBCHEM_BOND_DEF_STEREO_COUNT>  (1) 
0

>  <PUBCHEM_BOND_UDEF_STEREO_COUNT>  (1) 
0

>  <PUBCHEM_ISOTOPIC_ATOM_COUNT>  (1) 
0

>  <PUBCHEM_COMPONENT_COUNT>  (1) 
1

>  <PUBCHEM_CACTVS_TAUTO_COUNT>  (1) 
1

>  <PUBCHEM_CONFORMER_ID>  (1) 
0000A15B00000001

>  <PUBCHEM_MMFF94_ENERGY>  (1) 
46.4848

>  <PUBCHEM_FEATURE_SELFOVERLAP>  (1) 
20.352

>  <PUBCHEM_SHAPE_FINGERPRINT>  (1) 
10608611 8 18411414020709675464
10616163 171 18411422838388557438
10967382 1 18339079293843539710
1100329 8 16609980436097604611
11132069 177 18411131429173187400
11471102 20 18411975862487454236
11578080 2 16914796284383404107
11680986 33 18268704073034820905
12032990 46 18412268315569410854
12382932 28 18412825767964621954
12730499 353 17395285829413409661
13132413 78 18412826914684434516
13140716 1 18411699850978260570
13214271 11 18341887519882312982
13221675 6 18410854352037181415
13296908 3 18411700989033921302
13380535 76 18340765931954070807
14115302 16 18260557696715701421
14144814 61 18411699859299052611
14790565 3 16100808275776345245
15196674 1 18411418397201969013
15219456 202 18412261735526487062
15442244 35 18122624955518100722
15536298 74 18343863308112795252
16945 1 18195805395366285109
17804303 29 18411423920714703397
18186145 218 17967530138531568270
193761 8 18051129490714863468
19591789 44 15893079025087060244
200 152 17917419948236418141
20510252 161 18199467658235102817
20588541 1 18340487763943695093
21029758 11 18342730798214815541
21267235 1 18411146813609151342
21501502 16 18265338476610981485
221490 88 18264496246430314794
22213442 358 18411418453041812073
22721475 48 18411421747466415917
2334 1 18411699911012837326
23402539 116 18271794671175898956
23463225 33 18410292493295636172
23557571 272 18272098154150590276
23559900 14 18340483358172535994
2748010 2 18413668015399095350
3071541 158 18334574672067096868
3312278 4 18410577283865728098
335352 9 18051131389232723084
34934 24 18411128121969274042
5104073 3 18411136930836299370
528886 8 18412256212351525320
53812653 166 18271801354414303128
54173680 148 18410014338128334683
5493415 88 18339642359845428737
69090 78 18412821357365667687
7364860 26 18197496435765917224
81228 2 18126298436587852552
8809292 202 18334579065971426483
9709674 26 18341615888749559998

>  <PUBCHEM_SHAPE_MULTIPOLES>  (1) 
324.29
6.26
2.58
0.66
1.06
0.34
0.01
-1.34
-0.06
-0.7
0.25
-0.1
-0.03
0.38

>  <PUBCHEM_SHAPE_SELFOVERLAP>  (1) 
711.296

>  <PUBCHEM_SHAPE_VOLUME>  (1) 
173.8

>  <PUBCHEM_COORDINATE_TYPE>  (1) 
2
5
10

$$$$
