41306
     RDKit          3D

 15 14  0  0  1  0  0  0  0  0999 V2000
   -0.9863   -1.4039    0.8063 C   0  0  0  0  0  0  0  0  0  0  0  0
   -0.1103   -0.8425   -0.3329 C   0  0  0  0  0  0  0  0  0  0  0  0
    1.3931   -0.8732   -0.0280 C   0  0  0  0  0  0  0  0  0  0  0  0
    2.1999   -0.2729   -1.1857 C   0  0  0  0  0  0  0  0  0  0  0  0
    3.7225   -0.1875   -0.9506 C   0  0  0  0  0  0  0  0  0  0  0  0
   -2.4922   -1.2896    0.4796 C   0  0  0  0  0  0  0  0  0  0  0  0
    4.1337    0.7105    0.2331 C   0  0  0  0  0  0  0  0  0  0  0  0
   -3.0210    0.1229    0.1978 C   0  0  0  0  0  0  0  0  0  0  0  0
   -0.6577   -2.8713    1.1097 C   0  0  0  0  0  0  0  0  0  0  0  0
    4.3418   -1.5793   -0.7831 C   0  0  0  0  0  0  0  0  0  0  0  0
   -4.5296    0.1685   -0.0564 C   0  0  0  0  0  0  0  0  0  0  0  0
    3.5763    2.1329    0.1451 C   0  0  0  0  0  0  0  0  0  0  0  0
   -5.0509    1.5794   -0.3412 C   0  0  0  0  0  0  0  0  0  0  0  0
    4.0260    2.9785    1.3270 C   0  0  0  0  0  0  0  0  0  0  0  0
   -6.5452    1.6276   -0.6208 C   0  0  0  0  0  0  0  0  0  0  0  0
  1  2  1  0
  1  6  1  0
  1  9  1  0
  2  3  1  0
  3  4  1  0
  4  5  1  0
  5  7  1  0
  5 10  1  0
  6  8  1  0
  7 12  1  0
  8 11  1  0
 11 13  1  0
 12 14  1  0
 13 15  1  0
M  END
>  <PUBCHEM_COMPOUND_CID>  (1) 
41306

>  <PUBCHEM_CONFORMER_RMSD>  (1) 
1

>  <PUBCHEM_CONFORMER_DIVERSEORDER>  (1) 
1
283
49
70
12
55
30
22
172
81
124
210
196
166
84
103
148
217
17
257
168
14
221
34
190
243
225
255
160
198
271
236
246
151
275
162
50
154
183
143
218
39
155
116
187
80
43
153
227
13
267
63
140
215
66
145
21
175
69
20
37
83
182
281
3
211
249
205
102
250
266
44
214
199
240
158
136
18
186
191
132
24
60
36
10
135
9
57
219
15
120
256
189
31
138
170
245
273
222
258
125
263
268
149
146
204
28
279
278
174
111
163
90
269
208
35
82
171
141
47
161
228
56
156
113
185
184
233
188
152
197
54
193
40
119
178
261
134
74
26
104
213
76
238
259
276
109
75
67
65
247
224
11
230
232
45
169
4
78
147
272
5
274
200
157
277
51
206
127
122
144
223
42
92
220
101
260
62
128
53
88
94
41
131
72
115
203
46
252
105
7
242
48
27
25
181
33
123
99
262
239
23
95
195
280
165
209
253
237
179
87
282
93
71
6
2
52
164
226
89
173
129
126
16
58
137
114
216
130
100
73
133
107
177
248
68
29
192
19
265
110
251
159
86
235
201
79
112
167
106
98
202
121
61
118
254
194
32
212
8
108
150
234
64
241
244
97
207
180
176
59
270
91
139
264
77
85
142
229
231
38
117
96

>  <PUBCHEM_MMFF94_PARTIAL_CHARGES>  (1) 
0

>  <PUBCHEM_EFFECTIVE_ROTOR_COUNT>  (1) 
10

>  <PUBCHEM_PHARMACOPHORE_FEATURES>  (1) 
4
1 10 hydrophobe
1 14 hydrophobe
1 15 hydrophobe
1 9 hydrophobe

>  <PUBCHEM_HEAVY_ATOM_COUNT>  (1) 
15

>  <PUBCHEM_ATOM_DEF_STEREO_COUNT>  (1) 
0

>  <PUBCHEM_ATOM_UDEF_STEREO_COUNT>  (1) 
2

>  <PUBCHEM_BOND_DEF_STEREO_COUNT>  (1) 
0

>  <PUBCHEM_BOND_UDEF_STEREO_COUNT>  (1) 
0

>  <PUBCHEM_ISOTOPIC_ATOM_COUNT>  (1) 
0

>  <PUBCHEM_COMPONENT_COUNT>  (1) 
1

>  <PUBCHEM_CACTVS_TAUTO_COUNT>  (1) 
1

>  <PUBCHEM_CONFORMER_ID>  (1) 
0000A15A00000001

>  <PUBCHEM_MMFF94_ENERGY>  (1) 
7.4773

>  <PUBCHEM_FEATURE_SELFOVERLAP>  (1) 
20.3

>  <PUBCHEM_SHAPE_FINGERPRINT>  (1) 
10014705 185 18411983593924523959
11089746 13 18410569570004432702
12403259 415 18336559294918479091
12500047 106 18263373632511466374
12596602 18 14924243624159901061
13955234 65 18044093450302001211
14123255 52 18334295353590989619
14178000 29 10519981578335088011
14178342 30 17679301025649322794
1420 369 10015862089832477077
14251764 38 18120933064684049205
15342816 4 12607408754232214078
17834072 32 18408323302456693265
17959699 21 18342738528886747745
193927 3 11455885897557160237
20388580 30 12751229316210285339
20621476 13 18128533962934594552
20621476 21 9799410070315046517
20645477 56 18337120067350076019
20645477 70 17703246082499415502
212847 35 18187370909058483342
212916 134 17968090958212852995
21475661 188 18338229491904971320
22289505 5 18343590642362318604
23402539 116 18408604747368880103
23559900 14 18343869909599342282
2767999 5 18040712542224597925
2838139 119 18340481167607405109
2916195 48 18410291449871810401
314194 84 8502073150948997355
33382 64 10809341126720885148
351380 180 18342177747770257756
495365 180 18201997738028759546
59124914 9 18191311476853838241
59682541 35 18113912555325784729
633830 44 18411691093492698559

>  <PUBCHEM_SHAPE_MULTIPOLES>  (1) 
308.69
13.36
2.95
1.12
14.54
0.73
-0.07
10.42
2.45
-1.64
-1.28
-0.75
-0.01
2.57

>  <PUBCHEM_SHAPE_SELFOVERLAP>  (1) 
553.018

>  <PUBCHEM_SHAPE_VOLUME>  (1) 
201.9

>  <PUBCHEM_COORDINATE_TYPE>  (1) 
2
5
10

$$$$
