41305
     RDKit          3D

 32 33  0  0  1  0  0  0  0  0999 V2000
    6.3385   -1.1739   -1.4500 F   0  0  0  0  0  0  0  0  0  0  0  0
    5.8934    0.9299   -1.7327 F   0  0  0  0  0  0  0  0  0  0  0  0
    6.6394    0.2275    0.1854 F   0  0  0  0  0  0  0  0  0  0  0  0
   -4.5387    0.9837   -1.8274 O   0  0  0  0  0  0  0  0  0  0  0  0
   -3.9172    4.3085   -1.1438 O   0  0  0  0  0  0  0  0  0  0  0  0
    1.1577    5.0440    0.7784 O   0  0  0  0  0  0  0  0  0  0  0  0
    1.7106    1.4866    1.3799 O   0  0  0  0  0  0  0  0  0  0  0  0
   -0.1233   -4.1752    1.5257 O   0  0  0  0  0  0  0  0  0  0  0  0
   -1.9689   -5.4709    1.7760 O   0  0  0  0  0  0  0  0  0  0  0  0
   -3.2121    1.1007    0.2303 C   0  0  0  0  0  0  0  0  0  0  0  0
   -2.6594    2.4893   -0.1380 C   0  0  0  0  0  0  0  0  0  0  0  0
   -4.6032    1.1154   -0.4122 C   0  0  0  0  0  0  0  0  0  0  0  0
   -3.8887    3.4138   -0.0378 C   0  0  0  0  0  0  0  0  0  0  0  0
   -5.1302    2.5090   -0.0778 C   0  0  0  0  0  0  0  0  0  0  0  0
   -2.3245   -0.0456   -0.2358 C   0  0  0  0  0  0  0  0  0  0  0  0
   -1.5346    2.9413    0.7388 C   0  0  0  0  0  0  0  0  0  0  0  0
   -2.8146   -1.4399    0.0422 C   0  0  0  0  0  0  0  0  0  0  0  0
   -0.3154    3.2639    0.2827 C   0  0  0  0  0  0  0  0  0  0  0  0
    0.8135    3.7165    1.1661 C   0  0  0  0  0  0  0  0  0  0  0  0
   -3.1285   -2.3837   -0.8584 C   0  0  0  0  0  0  0  0  0  0  0  0
   -3.6015   -3.7597   -0.4900 C   0  0  0  0  0  0  0  0  0  0  0  0
    2.0392    2.8193    1.0159 C   0  0  0  0  0  0  0  0  0  0  0  0
   -2.6906   -4.8830   -1.0041 C   0  0  0  0  0  0  0  0  0  0  0  0
   -1.2596   -4.8207   -0.4610 C   0  0  0  0  0  0  0  0  0  0  0  0
    2.3923    0.4836    0.7399 C   0  0  0  0  0  0  0  0  0  0  0  0
   -1.1771   -4.8877    1.0485 C   0  0  0  0  0  0  0  0  0  0  0  0
    3.6969    0.6997    0.2962 C   0  0  0  0  0  0  0  0  0  0  0  0
    1.7807   -0.7526    0.5320 C   0  0  0  0  0  0  0  0  0  0  0  0
    4.3898   -0.3205   -0.3555 C   0  0  0  0  0  0  0  0  0  0  0  0
    2.4736   -1.7728   -0.1198 C   0  0  0  0  0  0  0  0  0  0  0  0
    3.7781   -1.5567   -0.5635 C   0  0  0  0  0  0  0  0  0  0  0  0
    5.7844   -0.0898   -0.8303 C   0  0  0  0  0  0  0  0  0  0  0  0
  1 32  1  0
  2 32  1  0
  3 32  1  0
  4 12  1  0
  5 13  1  0
  6 19  1  0
  7 22  1  0
  7 25  1  0
  8 26  1  0
  9 26  2  0
 10 11  1  0
 10 12  1  0
 10 15  1  0
 11 13  1  0
 11 16  1  0
 12 14  1  0
 13 14  1  0
 15 17  1  0
 16 18  2  0
 17 20  2  0
 18 19  1  0
 19 22  1  0
 20 21  1  0
 21 23  1  0
 23 24  1  0
 24 26  1  0
 25 27  2  0
 25 28  1  0
 27 29  1  0
 28 30  2  0
 29 31  2  0
 29 32  1  0
 30 31  1  0
M  END
>  <PUBCHEM_COMPOUND_CID>  (1) 
41305

>  <PUBCHEM_CONFORMER_RMSD>  (1) 
1.6

>  <PUBCHEM_CONFORMER_DIVERSEORDER>  (1) 
1
85
105
88
3
30
2
98
37
102
76
71
20
92
33
86
60
73
21
24
80
75
107
55
4
11
106
101
59
77
35
14
17
68
62
61
57
49
67
10
27
84
46
63
34
79
82
104
36
13
18
70
25
16
12
94
78
52
29
103
47
58
7
23
100
56
22
69
74
95
48
9
50
83
42
64
72
93
28
54
87
41
53
32
5
89
40
90
81
44
26
65
6
97
43
66
96
38
91
99
15
19
45
51
31
8
39

>  <PUBCHEM_MMFF94_PARTIAL_CHARGES>  (1) 
41
1 -0.34
11 0.14
12 0.28
13 0.28
15 0.14
16 -0.29
17 -0.29
18 -0.29
19 0.42
2 -0.34
20 -0.29
21 0.14
22 0.28
24 0.06
25 0.08
26 0.66
27 -0.15
28 -0.15
29 -0.14
3 -0.34
30 -0.15
31 -0.15
32 1.16
4 -0.68
41 0.15
42 0.4
43 0.4
44 0.15
45 0.15
47 0.15
5 -0.68
54 0.4
57 0.15
58 0.15
59 0.15
6 -0.68
60 0.15
61 0.5
7 -0.36
8 -0.65
9 -0.57

>  <PUBCHEM_EFFECTIVE_ROTOR_COUNT>  (1) 
13

>  <PUBCHEM_PHARMACOPHORE_FEATURES>  (1) 
13
1 4 acceptor
1 4 donor
1 5 acceptor
1 5 donor
1 6 acceptor
1 6 donor
1 7 acceptor
1 8 acceptor
1 9 acceptor
3 8 9 26 anion
4 20 21 23 24 hydrophobe
5 10 11 12 13 14 rings
6 25 27 28 29 30 31 rings

>  <PUBCHEM_HEAVY_ATOM_COUNT>  (1) 
32

>  <PUBCHEM_ATOM_DEF_STEREO_COUNT>  (1) 
4

>  <PUBCHEM_ATOM_UDEF_STEREO_COUNT>  (1) 
1

>  <PUBCHEM_BOND_DEF_STEREO_COUNT>  (1) 
0

>  <PUBCHEM_BOND_UDEF_STEREO_COUNT>  (1) 
2

>  <PUBCHEM_ISOTOPIC_ATOM_COUNT>  (1) 
0

>  <PUBCHEM_COMPONENT_COUNT>  (1) 
1

>  <PUBCHEM_CACTVS_TAUTO_COUNT>  (1) 
1

>  <PUBCHEM_CONFORMER_ID>  (1) 
0000A15900000001

>  <PUBCHEM_MMFF94_ENERGY>  (1) 
61.7813

>  <PUBCHEM_FEATURE_SELFOVERLAP>  (1) 
66.032

>  <PUBCHEM_SHAPE_FINGERPRINT>  (1) 
10290309 65 18120936101241472493
10675989 125 17835243346260238438
10838868 158 17756705596309052600
10940486 97 18334580165341032764
12788726 201 18263352737295546787
13690498 29 18337678632051788711
14251757 5 18340208488090908580
14659021 117 18265324187170294682
15320467 1 18412822495252504151
16993438 75 18334587857658939458
17627616 140 18050561851227075167
19319366 153 18191586354660776062
20101258 96 18120949548795048011
20775438 99 17552593292868555717
23559900 14 18271794757234546321
42626532 9 18264495164510552706
463206 1 18412829109449892688
474144 1 17899684666107952874
5265222 85 18337676313076443341
5309563 4 17257923223020638347
54324442 115 18341332291969711191
57307002 29 18334576849847495149

>  <PUBCHEM_SHAPE_MULTIPOLES>  (1) 
601.51
12.12
8.68
1.3
15.99
7.2
-0.01
-2.56
5.8
-10.23
-2.31
0.3
0.56
1.4

>  <PUBCHEM_SHAPE_SELFOVERLAP>  (1) 
1236.188

>  <PUBCHEM_SHAPE_VOLUME>  (1) 
346.5

>  <PUBCHEM_COORDINATE_TYPE>  (1) 
2
5
10

$$$$
