41317
     RDKit          3D

 24 24  0  0  0  0  0  0  0  0999 V2000
   -6.8896    0.4214   -1.0522 O   0  0  0  0  0  0  0  0  0  0  0  0
    8.5773    1.1179   -1.7623 O   0  0  0  0  0  0  0  0  0  0  0  0
    8.6992   -0.5144   -0.1782 O   0  0  0  0  0  0  0  0  0  0  0  0
   -3.7179   -1.1497   -0.0953 C   0  0  0  0  0  0  0  0  0  0  0  0
   -3.0760   -0.0628    0.4833 C   0  0  0  0  0  0  0  0  0  0  0  0
   -5.0033   -0.9933   -0.6142 C   0  0  0  0  0  0  0  0  0  0  0  0
   -3.6958    1.1777    0.5525 C   0  0  0  0  0  0  0  0  0  0  0  0
   -5.6349    0.2488   -0.5498 C   0  0  0  0  0  0  0  0  0  0  0  0
   -4.9811    1.3342    0.0336 C   0  0  0  0  0  0  0  0  0  0  0  0
   -3.0518   -2.4896   -0.1708 C   0  0  0  0  0  0  0  0  0  0  0  0
   -1.7190   -0.2247    1.0327 C   0  0  0  0  0  0  0  0  0  0  0  0
   -5.7125   -2.1512   -1.2416 C   0  0  0  0  0  0  0  0  0  0  0  0
   -3.0295    2.3656    1.1699 C   0  0  0  0  0  0  0  0  0  0  0  0
   -0.5833   -0.0252    0.3432 C   0  0  0  0  0  0  0  0  0  0  0  0
    0.7625   -0.1954    0.8874 C   0  0  0  0  0  0  0  0  0  0  0  0
   -7.4576    1.7249   -0.9431 C   0  0  0  0  0  0  0  0  0  0  0  0
    0.7603   -0.6732    2.3158 C   0  0  0  0  0  0  0  0  0  0  0  0
    1.8550    0.0253    0.1279 C   0  0  0  0  0  0  0  0  0  0  0  0
    3.2427   -0.1263    0.5218 C   0  0  0  0  0  0  0  0  0  0  0  0
    4.2642    0.1207   -0.3165 C   0  0  0  0  0  0  0  0  0  0  0  0
    5.6958   -0.0065   -0.0202 C   0  0  0  0  0  0  0  0  0  0  0  0
    6.0768   -0.4368    1.3731 C   0  0  0  0  0  0  0  0  0  0  0  0
    6.5719    0.2897   -1.0015 C   0  0  0  0  0  0  0  0  0  0  0  0
    8.0466    0.2227   -0.8954 C   0  0  0  0  0  0  0  0  0  0  0  0
  1  8  1  0
  1 16  1  0
  2 24  1  0
  3 24  2  0
  4  5  2  0
  4  6  1  0
  4 10  1  0
  5  7  1  0
  5 11  1  0
  6  8  2  0
  6 12  1  0
  7  9  2  0
  7 13  1  0
  8  9  1  0
 11 14  2  0
 14 15  1  0
 15 17  1  0
 15 18  2  0
 18 19  1  0
 19 20  2  0
 20 21  1  0
 21 22  1  0
 21 23  2  0
 23 24  1  0
M  END
>  <PUBCHEM_COMPOUND_CID>  (1) 
41317

>  <PUBCHEM_CONFORMER_RMSD>  (1) 
0.8

>  <PUBCHEM_CONFORMER_DIVERSEORDER>  (1) 
2
36
26
12
11
18
7
34
16
37
5
15
4
33
30
6
31
14
1
38
13
21
24
32
17
28
10
27
22
35
3
20
8
25
23
9
29
19

>  <PUBCHEM_MMFF94_PARTIAL_CHARGES>  (1) 
32
1 -0.36
10 0.14
11 -0.18
12 0.14
13 0.14
14 -0.15
15 -0.14
16 0.28
17 0.14
18 -0.15
19 -0.15
2 -0.65
20 -0.15
21 -0.14
22 0.14
23 -0.14
24 0.71
25 0.15
29 0.15
3 -0.57
36 0.15
4 -0.14
43 0.15
44 0.15
45 0.15
49 0.15
5 0.03
50 0.5
6 -0.14
7 -0.14
8 0.08
9 -0.15

>  <PUBCHEM_EFFECTIVE_ROTOR_COUNT>  (1) 
6

>  <PUBCHEM_PHARMACOPHORE_FEATURES>  (1) 
7
1 1 acceptor
1 17 hydrophobe
1 2 acceptor
1 22 hydrophobe
1 3 acceptor
3 2 3 24 anion
6 4 5 6 7 8 9 rings

>  <PUBCHEM_HEAVY_ATOM_COUNT>  (1) 
24

>  <PUBCHEM_ATOM_DEF_STEREO_COUNT>  (1) 
0

>  <PUBCHEM_ATOM_UDEF_STEREO_COUNT>  (1) 
0

>  <PUBCHEM_BOND_DEF_STEREO_COUNT>  (1) 
0

>  <PUBCHEM_BOND_UDEF_STEREO_COUNT>  (1) 
4

>  <PUBCHEM_ISOTOPIC_ATOM_COUNT>  (1) 
0

>  <PUBCHEM_COMPONENT_COUNT>  (1) 
1

>  <PUBCHEM_CACTVS_TAUTO_COUNT>  (1) 
1

>  <PUBCHEM_CONFORMER_ID>  (1) 
0000A16500000002

>  <PUBCHEM_MMFF94_ENERGY>  (1) 
81.9126

>  <PUBCHEM_FEATURE_SELFOVERLAP>  (1) 
35.578

>  <PUBCHEM_SHAPE_FINGERPRINT>  (1) 
10 15 12396297058374097432
106641 1 14923951137641105505
11315181 36 18411423920909947289
11719270 70 18060419080851204630
12082328 90 17894912944746981323
12091667 2 18408611365628321714
12236239 1 18040147414263879995
13073987 5 8141821490223129848
13383668 90 16773501206854126541
13668630 136 15554445197619379164
13685833 64 14549017684995169642
14933364 13 12035449437372633174
15183329 4 18408604756158865274
15419008 47 17203321204881407712
15461852 350 18409451409628677095
15690457 1 13254791335237711332
1577012 14 17967527973883946986
16992828 155 17897447177458360957
18643901 69 17775002432184742079
18681886 176 18342169011722375385
19489759 90 18273217490804072608
195137 175 18187089455651860028
20281389 69 14634866440273889382
20505436 4 17676200252619503147
21150785 3 18411703201522067678
21267235 1 18342737468826300251
21623969 137 15267069150998546676
21792961 116 17131838633960076634
22224240 67 14273739551233788865
22288116 15 18262522605636397239
2297311 6 18060136557521814449
23081809 10 18260547801881171818
23559900 14 17988066881767360793
249057 3 18342174488096055165
335352 9 18343293761823168349
3663271 9 9583528607368882652
4073 2 17240769484069943818
4325135 7 18260267434842499548
445580 37 18412265012687131088
44880568 143 17775570823477112616
504843 32 16443637894949594770
5758199 1 16660644050915413160
58902169 19 18187083984016278870
5969126 39 15339122316387038281
59755656 520 16805319998944152963
636775 8 18335701715606741799
999808 66 15841555197160510103

>  <PUBCHEM_SHAPE_MULTIPOLES>  (1) 
476.3
25.64
1.78
1.44
43.81
0.23
-0.32
-3.27
13.92
-4.34
0.14
1.18
-0.07
-1.11

>  <PUBCHEM_SHAPE_SELFOVERLAP>  (1) 
979.696

>  <PUBCHEM_SHAPE_VOLUME>  (1) 
276.6

>  <PUBCHEM_COORDINATE_TYPE>  (1) 
2
5
10

$$$$
