41311
     RDKit          3D

 16 15  0  0  1  0  0  0  0  0999 V2000
    4.0922    0.7253    0.3728 C   0  0  0  0  0  0  0  0  0  0  0  0
    2.7594    0.9665   -0.3763 C   0  0  0  0  0  0  0  0  0  0  0  0
    1.5335    0.4137    0.3601 C   0  0  0  0  0  0  0  0  0  0  0  0
    4.3008   -0.7747    0.6815 C   0  0  0  0  0  0  0  0  0  0  0  0
    0.2405    0.7490   -0.3895 C   0  0  0  0  0  0  0  0  0  0  0  0
    5.2669    1.3654   -0.4022 C   0  0  0  0  0  0  0  0  0  0  0  0
   -0.9815    0.1714    0.3282 C   0  0  0  0  0  0  0  0  0  0  0  0
   -2.3008    0.4517   -0.3986 C   0  0  0  0  0  0  0  0  0  0  0  0
    4.4225   -1.6996   -0.5350 C   0  0  0  0  0  0  0  0  0  0  0  0
   -3.5287   -0.0625    0.3570 C   0  0  0  0  0  0  0  0  0  0  0  0
   -4.8523    0.2700   -0.3402 C   0  0  0  0  0  0  0  0  0  0  0  0
    6.6219    1.2849    0.2883 C   0  0  0  0  0  0  0  0  0  0  0  0
   -6.1182   -0.2382    0.3569 C   0  0  0  0  0  0  0  0  0  0  0  0
    4.5664   -3.1684   -0.1680 C   0  0  0  0  0  0  0  0  0  0  0  0
   -7.4030    0.0737   -0.4109 C   0  0  0  0  0  0  0  0  0  0  0  0
   -8.6195   -0.5281    0.2759 C   0  0  0  0  0  0  0  0  0  0  0  0
  1  2  1  0
  1  4  1  0
  1  6  1  0
  2  3  1  0
  3  5  1  0
  4  9  1  0
  5  7  1  0
  6 12  1  0
  7  8  1  0
  8 10  1  0
  9 14  1  0
 10 11  1  0
 11 13  1  0
 13 15  1  0
 15 16  1  0
M  END
>  <PUBCHEM_COMPOUND_CID>  (1) 
41311

>  <PUBCHEM_CONFORMER_RMSD>  (1) 
1.2

>  <PUBCHEM_CONFORMER_DIVERSEORDER>  (1) 
1
314
323
32
90
45
485
25
568
9
152
146
166
190
15
298
87
179
63
200
195
227
310
383
33
533
463
5
138
20
72
2
191
34
402
83
546
58
62
57
199
368
112
46
392
3
499
380
348
559
17
12
73
48
526
86
354
31
84
549
40
98
415
459
26
212
495
246
4
38
519
265
213
406
183
509
13
262
388
531
150
552
76
161
367
144
300
544
537
143
253
52
309
111
470
329
440
547
352
114

>  <PUBCHEM_MMFF94_PARTIAL_CHARGES>  (1) 
0

>  <PUBCHEM_EFFECTIVE_ROTOR_COUNT>  (1) 
12

>  <PUBCHEM_PHARMACOPHORE_FEATURES>  (1) 
5
1 12 hydrophobe
1 14 hydrophobe
1 16 hydrophobe
3 1 2 6 hydrophobe
4 1 4 6 9 hydrophobe

>  <PUBCHEM_HEAVY_ATOM_COUNT>  (1) 
16

>  <PUBCHEM_ATOM_DEF_STEREO_COUNT>  (1) 
0

>  <PUBCHEM_ATOM_UDEF_STEREO_COUNT>  (1) 
1

>  <PUBCHEM_BOND_DEF_STEREO_COUNT>  (1) 
0

>  <PUBCHEM_BOND_UDEF_STEREO_COUNT>  (1) 
0

>  <PUBCHEM_ISOTOPIC_ATOM_COUNT>  (1) 
0

>  <PUBCHEM_COMPONENT_COUNT>  (1) 
1

>  <PUBCHEM_CACTVS_TAUTO_COUNT>  (1) 
1

>  <PUBCHEM_CONFORMER_ID>  (1) 
0000A15F00000001

>  <PUBCHEM_MMFF94_ENERGY>  (1) 
2.1736

>  <PUBCHEM_FEATURE_SELFOVERLAP>  (1) 
27.662

>  <PUBCHEM_SHAPE_FINGERPRINT>  (1) 
11858739 19 18408603634914067903
12091667 2 18409448112275298933
13073987 5 18343021047303387913
13533116 47 18273213075773117970
1420 363 17530685412079336945
14251764 18 17917713504908854329
14251764 46 16200154309295836596
17834076 25 14620800413795154213
20157964 124 18409731768187937190
20165401 70 18272084955585364471
20397935 70 18060140899396608414
20621476 38 18340769247996130735
20645477 70 18335981970405843698
220451 1 17917426549221389527
23081809 10 17988646268423492993
23521765 1 18341895216759366169
3014965 18 18339075995714968383
33532 11 18411698777864631887
33684 2 18410009957166877144
34797466 226 17603308162940162701
42630746 31 18335138687968518202
54446538 1 8070034371434254007
59755656 215 17530963558414481323
6025842 7 18411421709566162374
8209 1 17821726161273740053

>  <PUBCHEM_SHAPE_MULTIPOLES>  (1) 
329.27
23.49
1.86
0.77
40.97
1.92
0
2.18
0.64
-5.21
-0.21
-0.11
0.01
0.43

>  <PUBCHEM_SHAPE_SELFOVERLAP>  (1) 
587.064

>  <PUBCHEM_SHAPE_VOLUME>  (1) 
215

>  <PUBCHEM_COORDINATE_TYPE>  (1) 
2
5
10

$$$$
