41318
     RDKit          3D

 21 23  0  0  0  0  0  0  0  0999 V2000
    2.0483    0.9165    0.8332 O   0  0  0  0  0  0  0  0  0  0  0  0
    1.3218    0.5471   -2.6241 O   0  0  0  0  0  0  0  0  0  0  0  0
    3.8572   -0.5022    0.5270 O   0  0  0  0  0  0  0  0  0  0  0  0
    1.4332    0.2867   -0.2965 N   0  0  0  0  0  0  0  0  0  0  0  0
   -0.7621   -0.7470   -0.0171 C   0  0  0  0  0  0  0  0  0  0  0  0
   -3.0077   -1.5614    0.2701 C   0  0  0  0  0  0  0  0  0  0  0  0
   -1.5476   -1.9173    0.0827 C   0  0  0  0  0  0  0  0  0  0  0  0
   -1.6315    0.4043    0.0953 C   0  0  0  0  0  0  0  0  0  0  0  0
   -2.9595   -0.0478    0.2651 C   0  0  0  0  0  0  0  0  0  0  0  0
    0.6090   -0.8329   -0.1925 C   0  0  0  0  0  0  0  0  0  0  0  0
   -0.9804   -3.1773    0.0095 C   0  0  0  0  0  0  0  0  0  0  0  0
   -1.3488    1.7595    0.0610 C   0  0  0  0  0  0  0  0  0  0  0  0
   -4.0131    0.8388    0.4016 C   0  0  0  0  0  0  0  0  0  0  0  0
    1.1885   -2.1033   -0.2670 C   0  0  0  0  0  0  0  0  0  0  0  0
    0.4018   -3.2635   -0.1671 C   0  0  0  0  0  0  0  0  0  0  0  0
   -2.4090    2.6608    0.1985 C   0  0  0  0  0  0  0  0  0  0  0  0
   -3.7278    2.2049    0.3670 C   0  0  0  0  0  0  0  0  0  0  0  0
    1.7416    0.9081   -1.5239 C   0  0  0  0  0  0  0  0  0  0  0  0
    2.6528    2.1156   -1.4622 C   0  0  0  0  0  0  0  0  0  0  0  0
    3.2833    0.3981    1.1251 C   0  0  0  0  0  0  0  0  0  0  0  0
    3.8502    1.1122    2.3145 C   0  0  0  0  0  0  0  0  0  0  0  0
  1  4  1  0
  1 20  1  0
  2 18  2  0
  3 20  2  0
  4 10  1  0
  4 18  1  0
  5  7  2  0
  5  8  1  0
  5 10  1  0
  6  7  1  0
  6  9  1  0
  7 11  1  0
  8  9  2  0
  8 12  1  0
  9 13  1  0
 10 14  2  0
 11 15  2  0
 12 16  2  0
 13 17  2  0
 14 15  1  0
 16 17  1  0
 18 19  1  0
 20 21  1  0
M  END
>  <PUBCHEM_COMPOUND_CID>  (1) 
41318

>  <PUBCHEM_CONFORMER_RMSD>  (1) 
0.6

>  <PUBCHEM_CONFORMER_DIVERSEORDER>  (1) 
1
13
22
26
14
21
4
25
23
28
17
24
18
27
10
9
2
3
5
6
19
12
11
20
8
15
16
7

>  <PUBCHEM_MMFF94_PARTIAL_CHARGES>  (1) 
26
1 -0.19
10 0.12
11 -0.15
12 -0.15
13 -0.15
14 -0.15
15 -0.15
16 -0.15
17 -0.15
18 0.57
19 0.06
2 -0.57
20 0.66
21 0.06
24 0.15
25 0.15
26 0.15
27 0.15
28 0.15
29 0.15
3 -0.57
30 0.15
4 -0.14
6 0.29
7 -0.14
9 -0.14

>  <PUBCHEM_EFFECTIVE_ROTOR_COUNT>  (1) 
4.2

>  <PUBCHEM_PHARMACOPHORE_FEATURES>  (1) 
5
1 2 acceptor
1 3 acceptor
5 5 6 7 8 9 rings
6 5 7 10 11 14 15 rings
6 8 9 12 13 16 17 rings

>  <PUBCHEM_HEAVY_ATOM_COUNT>  (1) 
21

>  <PUBCHEM_ATOM_DEF_STEREO_COUNT>  (1) 
0

>  <PUBCHEM_ATOM_UDEF_STEREO_COUNT>  (1) 
0

>  <PUBCHEM_BOND_DEF_STEREO_COUNT>  (1) 
0

>  <PUBCHEM_BOND_UDEF_STEREO_COUNT>  (1) 
0

>  <PUBCHEM_ISOTOPIC_ATOM_COUNT>  (1) 
0

>  <PUBCHEM_COMPONENT_COUNT>  (1) 
1

>  <PUBCHEM_CACTVS_TAUTO_COUNT>  (1) 
1

>  <PUBCHEM_CONFORMER_ID>  (1) 
0000A16600000001

>  <PUBCHEM_MMFF94_ENERGY>  (1) 
90.0998

>  <PUBCHEM_FEATURE_SELFOVERLAP>  (1) 
25.536

>  <PUBCHEM_SHAPE_FINGERPRINT>  (1) 
10967382 1 18049730616056911607
11370993 70 18341036424535693633
11582403 64 17273669053794878784
11640471 11 17533515670250968796
11680986 33 18193565467185539179
11725454 13 17202745103558231448
12553582 1 17690568906203772951
12788726 201 17755872161588937530
13009979 54 17827348093080911202
13140716 1 17907581685668884147
13538477 17 18044659930148242366
13965767 371 17972585607038974240
14178342 30 18335419019893142931
16110190 28 18119783874013820490
16752209 62 18338241582026536239
16945 1 18267595791363336199
17349148 13 18260818311574338319
1813 80 17023464128223675514
192875 21 18264193872142540709
20510252 161 18197238029337712457
20600515 1 17408799273298665963
20715895 44 17969488322329856645
21330990 113 17974849467795942574
21524375 3 18272090470201143167
21731228 192 18412259523760988707
21756936 100 17771322448392423912
22149856 69 18267883696876975513
2334 1 18410586084702350775
23402539 116 18057022821964748991
23419403 2 16108903326238863091
23526113 38 17486810517058672476
23557571 272 18058740250114874444
23558518 356 18262243201566919243
23559900 14 18272665554012033276
23598291 2 17822009856479218660
2748010 2 17539406523045533469
350125 39 18266195966900342499
352729 6 18336554914326228119
3797600 57 16666596969971454449
484985 159 14421750167336537152
5104073 3 18122635947056908385
58807428 26 18337101285473902371
6992083 37 18041547131283813910
7097593 13 18114446904042228234
7364860 26 17982731870523168091
77492 1 17678453280339568870
81228 2 17911252916075708003
84936 182 17913766115887977273

>  <PUBCHEM_SHAPE_MULTIPOLES>  (1) 
409.58
6.42
3.42
1.47
0.63
1.91
0.32
-3.87
-2.54
-1.4
0.18
2.13
-0.84
-0.14

>  <PUBCHEM_SHAPE_SELFOVERLAP>  (1) 
896.593

>  <PUBCHEM_SHAPE_VOLUME>  (1) 
223.4

>  <PUBCHEM_COORDINATE_TYPE>  (1) 
2
5
10

$$$$
