41319
     RDKit          3D

 26 29  0  0  1  0  0  0  0  0999 V2000
    2.9126   -0.3991   -0.3720 O   0  0  0  0  0  0  0  0  0  0  0  0
    4.2267    0.9844    0.9064 O   0  0  0  0  0  0  0  0  0  0  0  0
   -6.7589   -1.2077   -1.1152 O   0  0  0  0  0  0  0  0  0  0  0  0
    5.1234   -0.8014   -0.2741 N   0  0  0  0  0  0  0  0  0  0  0  0
    6.4239   -0.5516    0.1490 N   0  0  0  0  0  0  0  0  0  0  0  0
    0.4676   -0.1189   -0.6918 C   0  0  0  0  0  0  0  0  0  0  0  0
   -0.4505    1.1160   -0.4992 C   0  0  0  0  0  0  0  0  0  0  0  0
   -1.1026    1.2195    0.9117 C   0  0  0  0  0  0  0  0  0  0  0  0
   -1.7430   -0.1088    1.3829 C   0  0  0  0  0  0  0  0  0  0  0  0
    1.7705    0.3570   -0.0105 C   0  0  0  0  0  0  0  0  0  0  0  0
   -0.0991   -1.4064   -0.0674 C   0  0  0  0  0  0  0  0  0  0  0  0
    0.4985    2.3042   -0.7650 C   0  0  0  0  0  0  0  0  0  0  0  0
   -0.6789   -1.2180    1.3294 C   0  0  0  0  0  0  0  0  0  0  0  0
    1.9088    1.8281   -0.4043 C   0  0  0  0  0  0  0  0  0  0  0  0
   -2.1610    2.3297    1.0094 C   0  0  0  0  0  0  0  0  0  0  0  0
    0.6892   -0.4013   -2.1981 C   0  0  0  0  0  0  0  0  0  0  0  0
   -3.0693   -0.4040    0.6867 C   0  0  0  0  0  0  0  0  0  0  0  0
   -3.3582    2.0706    0.1020 C   0  0  0  0  0  0  0  0  0  0  0  0
   -3.8321    0.6387    0.1178 C   0  0  0  0  0  0  0  0  0  0  0  0
   -3.6093   -1.7027    0.6745 C   0  0  0  0  0  0  0  0  0  0  0  0
   -5.0649    0.3522   -0.4953 C   0  0  0  0  0  0  0  0  0  0  0  0
    4.1034    0.0192    0.1585 C   0  0  0  0  0  0  0  0  0  0  0  0
   -4.8388   -1.9726    0.0699 C   0  0  0  0  0  0  0  0  0  0  0  0
   -5.5641   -0.9466   -0.5210 C   0  0  0  0  0  0  0  0  0  0  0  0
    7.2826   -0.2926   -1.0051 C   0  0  0  0  0  0  0  0  0  0  0  0
    6.9237   -1.6877    0.9208 C   0  0  0  0  0  0  0  0  0  0  0  0
  1 10  1  0
  1 22  1  0
  2 22  2  0
  3 24  1  0
  4  5  1  0
  4 22  1  0
  5 25  1  0
  5 26  1  0
  6  7  1  0
  6 10  1  0
  6 11  1  0
  6 16  1  0
  7  8  1  0
  7 12  1  0
  8  9  1  0
  8 15  1  0
  9 13  1  0
  9 17  1  0
 10 14  1  0
 11 13  1  0
 12 14  1  0
 15 18  1  0
 17 19  2  0
 17 20  1  0
 18 19  1  0
 19 21  1  0
 20 23  2  0
 21 24  2  0
 23 24  1  0
M  END
>  <PUBCHEM_COMPOUND_CID>  (1) 
41319

>  <PUBCHEM_CONFORMER_RMSD>  (1) 
0.8

>  <PUBCHEM_CONFORMER_DIVERSEORDER>  (1) 
1
75
17
27
26
77
85
21
5
61
53
72
55
70
71
10
65
49
22
89
35
76
48
60
44
79
58
41
57
6
9
81
14
54
37
63
62
28
87
40
30
13
29
7
33
19
16
83
84
24
3
39
64
31
18
69
34
68
42
45
4
78
46
59
20
88
82
32
86
66
15
47
50
67
80
23
73
56
25
52
11
8
12
74
36
38
2
51
43

>  <PUBCHEM_MMFF94_PARTIAL_CHARGES>  (1) 
22
1 -0.43
10 0.28
17 -0.14
18 0.14
19 -0.14
2 -0.57
20 -0.15
21 -0.15
22 0.78
23 -0.15
24 0.08
25 0.27
26 0.27
3 -0.53
4 -0.42
46 0.15
47 0.15
48 0.15
49 0.37
5 -0.55
50 0.45
9 0.14

>  <PUBCHEM_EFFECTIVE_ROTOR_COUNT>  (1) 
5.4

>  <PUBCHEM_PHARMACOPHORE_FEATURES>  (1) 
7
1 2 acceptor
1 3 donor
1 4 donor
5 6 7 10 12 14 rings
6 17 19 20 21 23 24 rings
6 6 7 8 9 11 13 rings
6 8 9 15 17 18 19 rings

>  <PUBCHEM_HEAVY_ATOM_COUNT>  (1) 
26

>  <PUBCHEM_ATOM_DEF_STEREO_COUNT>  (1) 
1

>  <PUBCHEM_ATOM_UDEF_STEREO_COUNT>  (1) 
4

>  <PUBCHEM_BOND_DEF_STEREO_COUNT>  (1) 
0

>  <PUBCHEM_BOND_UDEF_STEREO_COUNT>  (1) 
0

>  <PUBCHEM_ISOTOPIC_ATOM_COUNT>  (1) 
0

>  <PUBCHEM_COMPONENT_COUNT>  (1) 
1

>  <PUBCHEM_CACTVS_TAUTO_COUNT>  (1) 
18

>  <PUBCHEM_CONFORMER_ID>  (1) 
0000A16700000001

>  <PUBCHEM_MMFF94_ENERGY>  (1) 
78.0622

>  <PUBCHEM_FEATURE_SELFOVERLAP>  (1) 
35.761

>  <PUBCHEM_SHAPE_FINGERPRINT>  (1) 
10 15 11887954367020907999
10930396 42 18190997154674539512
11315181 36 18187372038550550904
11578080 2 15696332668079586145
12011746 2 18259984872954174146
12166972 35 17676773183918118589
12236239 1 17676211260509314410
12293681 160 12179842797379357932
12403260 363 18412268358572325049
12516196 113 18335139804480790356
13288520 33 18410576193249957445
13533116 47 18341331201569874072
13583140 156 16917061114684824616
13782708 43 17917436385171647294
13862211 1 18408321073358117066
13914758 101 18040991809108005089
14068700 675 18412824707102905729
14294032 229 17896874354150241701
14849402 71 11815312954338064258
15048467 5 8070029973445576655
15183329 4 16732976526896912723
15420108 30 17831015724352991009
1601671 61 8286208236032536709
16945 1 18264790825826999209
17349148 13 18336837454212092157
17492 89 17900548075094213083
17980427 23 18261127252418904269
18222031 100 18187081771939549536
18681886 176 18411693322459048633
18927931 339 18342465841613474303
192875 21 18335708277509180677
19377110 9 13182742502959187830
19489759 90 18407761421596564505
200 152 18342739641684034989
20028762 73 18131068263958306870
20681677 155 8286200539477821309
21033648 29 17203033094211548048
21150785 3 15791735234379134723
21236236 1 18409168774931674937
21267235 1 18334581282839066035
21682296 61 17488477273713037606
21756936 100 10953736738002115363
22079108 93 14979953692269210550
22224240 67 12319736977611653237
23198884 109 14056717941584520063
23402539 116 18412544306205304309
23522609 53 18045531671836132116
23557571 272 17988928851644255897
23559900 14 18262235654597379521
293599 30 7925915876381091157
3004659 81 17968093161478399444
3009799 131 18186798093248678295
335352 9 18334576846084978405
3633792 109 17749387083099364156
392239 28 14836124420345876943
4098825 35 9367350349499155632
4325135 7 15267345123774010583
4340502 62 15410898466019402494
484989 97 17824267218909380627
5104073 3 18270974534476217681
5718773 13 18200026386890124679
57527585 103 17752522882146756811
59682541 35 12535338035048783295
59755656 215 18409730647175807374
6138700 20 18259983747673132602
6328613 192 17023191556228737100

>  <PUBCHEM_SHAPE_MULTIPOLES>  (1) 
507.5
15.44
2.17
1.28
19.5
0.66
-0.23
-8.21
-1.71
-1.36
0.27
0.01
-0.09
-0.74

>  <PUBCHEM_SHAPE_SELFOVERLAP>  (1) 
1086.299

>  <PUBCHEM_SHAPE_VOLUME>  (1) 
280.1

>  <PUBCHEM_COORDINATE_TYPE>  (1) 
2
5
10

$$$$
