41324
     RDKit          3D

 13 14  0  0  1  0  0  0  0  0999 V2000
    3.6751    0.4528   -0.4157 O   0  0  0  0  0  0  0  0  0  0  0  0
    0.3751   -0.8513    0.0108 C   0  0  0  0  0  0  0  0  0  0  0  0
    0.2708    0.5866    0.6120 C   0  0  0  0  0  0  0  0  0  0  0  0
    1.6522   -0.7785   -0.8659 C   0  0  0  0  0  0  0  0  0  0  0  0
   -0.7991   -1.3178   -0.8798 C   0  0  0  0  0  0  0  0  0  0  0  0
    1.7376    0.9608    0.9233 C   0  0  0  0  0  0  0  0  0  0  0  0
   -0.3667    1.6481   -0.3139 C   0  0  0  0  0  0  0  0  0  0  0  0
    2.4982    0.2407   -0.1532 C   0  0  0  0  0  0  0  0  0  0  0  0
    0.5986   -1.8832    1.1429 C   0  0  0  0  0  0  0  0  0  0  0  0
   -2.1498   -1.5577   -0.2056 C   0  0  0  0  0  0  0  0  0  0  0  0
   -1.8322    1.9660    0.0025 C   0  0  0  0  0  0  0  0  0  0  0  0
   -2.7933   -0.3662    0.4970 C   0  0  0  0  0  0  0  0  0  0  0  0
   -2.8665    0.8998   -0.3543 C   0  0  0  0  0  0  0  0  0  0  0  0
  1  8  2  0
  2  3  1  0
  2  4  1  0
  2  5  1  0
  2  9  1  0
  3  6  1  0
  3  7  1  0
  4  8  1  0
  5 10  1  0
  6  8  1  0
  7 11  1  0
 10 12  1  0
 11 13  1  0
 12 13  1  0
M  END
>  <PUBCHEM_COMPOUND_CID>  (1) 
41324

>  <PUBCHEM_CONFORMER_RMSD>  (1) 
0.6

>  <PUBCHEM_CONFORMER_DIVERSEORDER>  (1) 
1
8
3
12
10
2
5
7
6
4
13
9
11

>  <PUBCHEM_MMFF94_PARTIAL_CHARGES>  (1) 
4
1 -0.57
4 0.06
6 0.06
8 0.45

>  <PUBCHEM_EFFECTIVE_ROTOR_COUNT>  (1) 
1.6

>  <PUBCHEM_PHARMACOPHORE_FEATURES>  (1) 
2
1 1 acceptor
5 2 3 4 6 8 rings

>  <PUBCHEM_HEAVY_ATOM_COUNT>  (1) 
13

>  <PUBCHEM_ATOM_DEF_STEREO_COUNT>  (1) 
0

>  <PUBCHEM_ATOM_UDEF_STEREO_COUNT>  (1) 
2

>  <PUBCHEM_BOND_DEF_STEREO_COUNT>  (1) 
0

>  <PUBCHEM_BOND_UDEF_STEREO_COUNT>  (1) 
0

>  <PUBCHEM_ISOTOPIC_ATOM_COUNT>  (1) 
0

>  <PUBCHEM_COMPONENT_COUNT>  (1) 
1

>  <PUBCHEM_CACTVS_TAUTO_COUNT>  (1) 
3

>  <PUBCHEM_CONFORMER_ID>  (1) 
0000A16C00000001

>  <PUBCHEM_MMFF94_ENERGY>  (1) 
36.786

>  <PUBCHEM_FEATURE_SELFOVERLAP>  (1) 
10.148

>  <PUBCHEM_SHAPE_FINGERPRINT>  (1) 
10353120 184 18263925599658011823
11132069 177 18342170120008846216
12138202 97 18411976936266234205
12423570 1 14785950380333609834
12491281 212 17845954968810634043
12897270 3 18411418380159509709
13380535 21 18339932502108353571
14251711 518 18339348734670234967
14614273 12 17968649432868426141
15219456 202 18202569445267192046
15775835 57 18410578340480495417
16945 1 18272366490257885160
17844478 74 18338529619976837443
20201158 50 18060140929170793646
20511035 2 17762873508115767675
21501502 16 18194114114886970961
22344851 341 18265055726023917234
22802520 49 18200047130837904646
2334 1 17978786045397744481
23402539 116 18335695087785485948
23559900 14 18272370850794350820
241688 4 18125150787071916635
2748010 2 18052244382921284717
305870 269 18041274366284839602
353137 74 18409731724948354281
5084963 1 18199190766088405291
528886 8 17989487428624708782
53812653 166 18341892970027123481
57177213 63 18187083927480174226
63268167 104 18343588421162424699
6333449 129 18343300379154325005
66348 1 18267299842278084337
68250623 7 18263642857808659554
7364860 26 18123184602425640378

>  <PUBCHEM_SHAPE_MULTIPOLES>  (1) 
261.66
4.3
2.03
0.98
0.71
0
0.09
0.79
-0.4
-0.8
0.11
0.2
-0.22
0.05

>  <PUBCHEM_SHAPE_SELFOVERLAP>  (1) 
530.54

>  <PUBCHEM_SHAPE_VOLUME>  (1) 
153.7

>  <PUBCHEM_COORDINATE_TYPE>  (1) 
2
5
10

$$$$
