41332
     RDKit          3D

 26 29  0  0  1  0  0  0  0  0999 V2000
    4.0533    1.7853   -1.2874 S   0  0  0  0  0  0  0  0  0  0  0  0
    2.3559    2.9277    0.4605 O   0  0  0  0  0  0  0  0  0  0  0  0
   -0.7415   -0.1691   -1.7045 O   0  0  0  0  0  0  0  0  0  0  0  0
    2.3099   -0.8265    2.2901 N   0  0  0  0  0  0  0  0  0  0  0  0
   -0.0139    1.7727   -0.7005 N   0  0  0  0  0  0  0  0  0  0  0  0
   -3.7594    1.6967    1.1761 N   0  0  0  0  0  0  0  0  0  0  0  0
    2.4657    1.7254   -0.3168 C   0  0  0  0  0  0  0  0  0  0  0  0
    2.4260    0.4721    0.5487 C   0  0  0  0  0  0  0  0  0  0  0  0
    1.3141    1.7776   -1.3450 C   0  0  0  0  0  0  0  0  0  0  0  0
    2.5020   -0.8359    0.0674 C   0  0  0  0  0  0  0  0  0  0  0  0
    2.4259   -1.6545    1.1963 C   0  0  0  0  0  0  0  0  0  0  0  0
    2.3096    0.4836    1.8928 C   0  0  0  0  0  0  0  0  0  0  0  0
    2.6270   -1.4385   -1.2001 C   0  0  0  0  0  0  0  0  0  0  0  0
   -2.2165    0.8934   -0.2029 C   0  0  0  0  0  0  0  0  0  0  0  0
    2.4690   -3.0511    1.1208 C   0  0  0  0  0  0  0  0  0  0  0  0
   -0.9819    0.7765   -0.9254 C   0  0  0  0  0  0  0  0  0  0  0  0
   -3.3469    0.0303   -0.2489 C   0  0  0  0  0  0  0  0  0  0  0  0
   -4.3005    0.5570    0.6251 C   0  0  0  0  0  0  0  0  0  0  0  0
    2.6716   -2.8345   -1.2909 C   0  0  0  0  0  0  0  0  0  0  0  0
   -2.5003    1.9084    0.6818 C   0  0  0  0  0  0  0  0  0  0  0  0
    2.5938   -3.6265   -0.1469 C   0  0  0  0  0  0  0  0  0  0  0  0
    5.2607    1.7996    0.0637 C   0  0  0  0  0  0  0  0  0  0  0  0
   -3.6516   -1.1518   -0.9526 C   0  0  0  0  0  0  0  0  0  0  0  0
   -5.5482   -0.0420    0.8315 C   0  0  0  0  0  0  0  0  0  0  0  0
   -4.8957   -1.7620   -0.7559 C   0  0  0  0  0  0  0  0  0  0  0  0
   -5.8279   -1.2139    0.1231 C   0  0  0  0  0  0  0  0  0  0  0  0
  1  7  1  0
  1 22  1  0
  2  7  1  0
  3 16  2  0
  4 11  1  0
  4 12  1  0
  5  9  1  0
  5 16  1  0
  6 18  1  0
  6 20  1  0
  7  8  1  0
  7  9  1  0
  8 10  1  0
  8 12  2  0
 10 11  2  0
 10 13  1  0
 11 15  1  0
 13 19  2  0
 14 16  1  0
 14 17  1  0
 14 20  2  0
 15 21  2  0
 17 18  2  0
 17 23  1  0
 18 24  1  0
 19 21  1  0
 23 25  2  0
 24 26  2  0
 25 26  1  0
M  END
>  <PUBCHEM_COMPOUND_CID>  (1) 
41332

>  <PUBCHEM_CONFORMER_RMSD>  (1) 
0.8

>  <PUBCHEM_CONFORMER_DIVERSEORDER>  (1) 
1
61
219
96
190
105
116
200
80
112
58
130
247
36
175
163
133
252
174
24
137
73
206
89
165
78
102
160
239
126
69
16
227
157
185
201
75
141
22
124
139
233
84
90
120
83
38
152
192
158
169
216
136
45
67
228
202
71
222
46
8
13
224
184
238
195
148
17
253
237
263
211
29
119
47
209
149
138
31
151
150
86
101
81
162
140
207
70
242
176
146
143
82
179
187
64
123
77
113
50
212
87
37
122
15
244
40
145
41
76
255
186
49
115
135
178
235
168
11
107
74
19
23
173
249
52
189
198
128
218
110
131
106
199
48
134
85
144
181
98
147
44
153
7
56
65
161
33
91
30
194
155
229
177
104
53
32
220
12
94
260
93
243
246
166
258
167
217
42
117
223
214
79
154
103
55
262
180
88
250
51
118
215
121
205
9
226
27
159
197
196
259
5
264
171
57
2
225
127
111
156
39
210
100
234
172
99
114
95
231
248
59
63
142
232
254
21
251
203
92
62
261
54
35
125
20
191
183
6
60
66
97
182
108
245
193
26
236
221
204
188
164
25
72
68
132
240
241
256
213
28
18
3
129
10
170
34
4
230
14
109
43
208
257

>  <PUBCHEM_MMFF94_PARTIAL_CHARGES>  (1) 
38
1 -0.46
11 -0.15
12 -0.3
13 -0.15
14 -0.09
15 -0.15
16 0.72
18 -0.15
19 -0.15
2 -0.68
20 -0.3
21 -0.15
22 0.23
23 -0.15
24 -0.15
25 -0.15
26 -0.15
29 0.15
3 -0.57
30 0.27
31 0.37
32 0.15
33 0.15
34 0.4
35 0.15
36 0.15
37 0.15
38 0.27
4 0.03
42 0.15
43 0.15
44 0.15
45 0.15
5 -0.73
6 0.03
7 0.69
8 -0.18
9 0.3

>  <PUBCHEM_EFFECTIVE_ROTOR_COUNT>  (1) 
6

>  <PUBCHEM_PHARMACOPHORE_FEATURES>  (1) 
13
1 2 acceptor
1 2 donor
1 22 hydrophobe
1 3 acceptor
1 4 cation
1 4 donor
1 5 donor
1 6 cation
1 6 donor
5 4 8 10 11 12 rings
5 6 14 17 18 20 rings
6 10 11 13 15 19 21 rings
6 17 18 23 24 25 26 rings

>  <PUBCHEM_HEAVY_ATOM_COUNT>  (1) 
26

>  <PUBCHEM_ATOM_DEF_STEREO_COUNT>  (1) 
0

>  <PUBCHEM_ATOM_UDEF_STEREO_COUNT>  (1) 
1

>  <PUBCHEM_BOND_DEF_STEREO_COUNT>  (1) 
0

>  <PUBCHEM_BOND_UDEF_STEREO_COUNT>  (1) 
0

>  <PUBCHEM_ISOTOPIC_ATOM_COUNT>  (1) 
0

>  <PUBCHEM_COMPONENT_COUNT>  (1) 
1

>  <PUBCHEM_CACTVS_TAUTO_COUNT>  (1) 
3

>  <PUBCHEM_CONFORMER_ID>  (1) 
0000A17400000001

>  <PUBCHEM_MMFF94_ENERGY>  (1) 
50.5078

>  <PUBCHEM_FEATURE_SELFOVERLAP>  (1) 
66.158

>  <PUBCHEM_SHAPE_FINGERPRINT>  (1) 
10366900 7 18341331214238179897
10928967 22 18043253440376976067
11112662 9 18042413606834636836
11421498 54 18271816721918545528
12107183 9 17909559354789145769
12596599 1 18265328409313083187
13134695 92 10807941449104606156
13150687 139 17752507588201116076
13224815 77 18407755937319024611
13533116 47 18411983559891807299
13583140 156 17774421837978336073
13726171 33 16701481003651172688
13965767 371 12750650908669611130
14251764 30 17913501133913419630
14429115 67 18409725167292805719
14863182 85 18261114110324971116
150020 26 17058656140537666695
15295992 7 11743839200614977005
15664445 248 16878240704834980572
17492 89 18411984637781360239
17818456 19 18197224637978544905
1813 80 17749396936297588837
20567600 347 18261679259428098814
20645477 70 17967809461840414013
20775530 9 17978505334762396799
21033648 29 14908184110417217649
21421861 104 18411141324814773473
22224240 67 18336824320687767912
23466295 7 16760301298235463870
23559900 14 17916878902463258431
25222932 49 18054513784038957551
3117164 225 18197788696159726625
460360 51 18188481368531724901
57359948 33 16370994197084756607
6287921 2 18343297037765233967
6669772 16 17676493887075285144
6823239 73 17773896206684364694
7097593 13 18343297033612230189

>  <PUBCHEM_SHAPE_MULTIPOLES>  (1) 
512.24
11.38
3.5
1.61
14.22
2.08
0.33
0.6
0.68
-4.12
-0.2
-0.95
0.22
-1.17

>  <PUBCHEM_SHAPE_SELFOVERLAP>  (1) 
1120.281

>  <PUBCHEM_SHAPE_VOLUME>  (1) 
282.3

>  <PUBCHEM_COORDINATE_TYPE>  (1) 
2
5
10

$$$$
