41338
     RDKit          3D

 18 20  0  0  0  0  0  0  0  0999 V2000
    0.0001    0.6595    0.0000 N   0  0  0  0  0  0  0  0  0  0  0  0
   -2.4671    2.7311   -1.1992 N   0  0  0  0  0  0  0  0  0  0  0  0
    2.4666    2.7313    1.1992 N   0  0  0  0  0  0  0  0  0  0  0  0
   -1.1648   -0.0131    0.0746 C   0  0  0  0  0  0  0  0  0  0  0  0
    1.1648   -0.0130   -0.0747 C   0  0  0  0  0  0  0  0  0  0  0  0
   -1.2121   -1.4173    0.0776 C   0  0  0  0  0  0  0  0  0  0  0  0
    1.2122   -1.4173   -0.0777 C   0  0  0  0  0  0  0  0  0  0  0  0
   -2.3683    0.6827    0.1517 C   0  0  0  0  0  0  0  0  0  0  0  0
    2.3683    0.6829   -0.1517 C   0  0  0  0  0  0  0  0  0  0  0  0
    0.0001   -2.1106   -0.0001 C   0  0  0  0  0  0  0  0  0  0  0  0
   -2.4449   -2.0884    0.1567 C   0  0  0  0  0  0  0  0  0  0  0  0
    2.4450   -2.0883   -0.1567 C   0  0  0  0  0  0  0  0  0  0  0  0
   -2.3774    2.1801    0.1516 C   0  0  0  0  0  0  0  0  0  0  0  0
    2.3772    2.1802   -0.1517 C   0  0  0  0  0  0  0  0  0  0  0  0
   -3.5951    0.0191    0.2304 C   0  0  0  0  0  0  0  0  0  0  0  0
    3.5952    0.0193   -0.2302 C   0  0  0  0  0  0  0  0  0  0  0  0
   -3.6339   -1.3693    0.2330 C   0  0  0  0  0  0  0  0  0  0  0  0
    3.6340   -1.3692   -0.2328 C   0  0  0  0  0  0  0  0  0  0  0  0
  1  4  2  0
  1  5  1  0
  2 13  1  0
  3 14  1  0
  4  6  1  0
  4  8  1  0
  5  7  2  0
  5  9  1  0
  6 10  2  0
  6 11  1  0
  7 10  1  0
  7 12  1  0
  8 13  1  0
  8 15  2  0
  9 14  1  0
  9 16  2  0
 11 17  2  0
 12 18  2  0
 15 17  1  0
 16 18  1  0
M  END
>  <PUBCHEM_COMPOUND_CID>  (1) 
41338

>  <PUBCHEM_CONFORMER_RMSD>  (1) 
0.6

>  <PUBCHEM_CONFORMER_DIVERSEORDER>  (1) 
1
2

>  <PUBCHEM_MMFF94_PARTIAL_CHARGES>  (1) 
27
1 -0.62
10 -0.15
11 -0.15
12 -0.15
13 0.41
14 0.41
15 -0.15
16 -0.15
17 -0.15
18 -0.15
19 0.15
2 -0.99
20 0.15
21 0.15
26 0.15
27 0.15
28 0.15
29 0.15
3 -0.99
30 0.36
31 0.36
32 0.36
33 0.36
4 0.31
5 0.31
8 -0.14
9 -0.14

>  <PUBCHEM_EFFECTIVE_ROTOR_COUNT>  (1) 
2

>  <PUBCHEM_PHARMACOPHORE_FEATURES>  (1) 
8
1 1 acceptor
1 2 cation
1 2 donor
1 3 cation
1 3 donor
6 1 4 5 6 7 10 rings
6 4 6 8 11 15 17 rings
6 5 7 9 12 16 18 rings

>  <PUBCHEM_HEAVY_ATOM_COUNT>  (1) 
18

>  <PUBCHEM_ATOM_DEF_STEREO_COUNT>  (1) 
0

>  <PUBCHEM_ATOM_UDEF_STEREO_COUNT>  (1) 
0

>  <PUBCHEM_BOND_DEF_STEREO_COUNT>  (1) 
0

>  <PUBCHEM_BOND_UDEF_STEREO_COUNT>  (1) 
0

>  <PUBCHEM_ISOTOPIC_ATOM_COUNT>  (1) 
0

>  <PUBCHEM_COMPONENT_COUNT>  (1) 
1

>  <PUBCHEM_CACTVS_TAUTO_COUNT>  (1) 
1

>  <PUBCHEM_CONFORMER_ID>  (1) 
0000A17A00000001

>  <PUBCHEM_MMFF94_ENERGY>  (1) 
51.2858

>  <PUBCHEM_FEATURE_SELFOVERLAP>  (1) 
40.656

>  <PUBCHEM_SHAPE_FINGERPRINT>  (1) 
10608611 8 18410855460128194272
10967382 1 18122628524324485867
12403259 226 18410855464423142085
12403260 363 18410565189058513391
12769317 202 16963210701780006373
13140716 1 18338523048577109219
14223421 5 18410011073868559745
14866123 147 16685707113670976210
15196674 1 18410578383198293542
15375462 6 18338238283396453983
15442244 35 18337955567469977106
15536298 74 18343024436396262794
16945 1 18410571786128617830
17802600 8 18410854360616611970
17804303 29 18410583859408131686
18186145 218 18200883880814231722
18219364 16 18047481019466880585
18981168 100 18266717186603375744
200 152 18060131042710167599
20510252 161 18413111653994156051
21267235 1 18338812164037063811
21501502 16 18410579487004739214
221490 88 18338245941692914530
2334 1 18338801241939855242
23366157 5 18113620118901365974
23402539 116 18413384346322298783
23463225 33 18409171012757439646
23559900 14 18412541046114162624
238 59 16743079712049435981
25 1 17903916660772299725
2748010 2 18410012181975422999
3286 77 18335137592229826294
335352 9 18049726213298858142
350125 39 18410300211083036585
45790113 53 18412548699534867947
5104073 3 18410579526102732923
6438718 38 16556222181574525833
7364860 26 18343304807766669594
74978 22 18338515235777870090
7832392 63 18267585702194890650
81228 2 18186805820174691545
9709674 26 18412270544494602335

>  <PUBCHEM_SHAPE_MULTIPOLES>  (1) 
355.49
6.49
3.09
0.75
0
1.36
0
0.03
0
0
0
0
0.34
0.82

>  <PUBCHEM_SHAPE_SELFOVERLAP>  (1) 
791.94

>  <PUBCHEM_SHAPE_VOLUME>  (1) 
186.9

>  <PUBCHEM_COORDINATE_TYPE>  (1) 
2
5
10

$$$$
