41341
     RDKit          3D

  6  5  0  0  1  0  0  0  0  0999 V2000
   -2.0800   -1.0090   -0.3760 Br  0  0  0  0  0  0  0  0  0  0  0  0
   -0.8706    1.7432    0.8052 Br  0  0  0  0  0  0  0  0  0  0  0  0
    0.9768   -1.2711    1.1112 Cl  0  0  0  0  0  0  0  0  0  0  0  0
    0.7267   -0.3718   -0.4211 C   0  0  0  0  0  0  0  0  0  0  0  0
   -0.6414    0.3103   -0.4954 C   0  0  0  0  0  0  0  0  0  0  0  0
    1.8885    0.5984   -0.6239 C   0  0  0  0  0  0  0  0  0  0  0  0
  1  5  1  0
  2  5  1  0
  3  4  1  0
  4  5  1  0
  4  6  1  0
M  END
>  <PUBCHEM_COMPOUND_CID>  (1) 
41341

>  <PUBCHEM_CONFORMER_RMSD>  (1) 
0.4

>  <PUBCHEM_CONFORMER_DIVERSEORDER>  (1) 
1
4
3
2
5

>  <PUBCHEM_MMFF94_PARTIAL_CHARGES>  (1) 
5
1 -0.23
2 -0.23
3 -0.29
4 0.29
5 0.46

>  <PUBCHEM_EFFECTIVE_ROTOR_COUNT>  (1) 
1

>  <PUBCHEM_PHARMACOPHORE_FEATURES>  (1) 
3
1 1 hydrophobe
1 2 hydrophobe
3 1 2 5 hydrophobe

>  <PUBCHEM_HEAVY_ATOM_COUNT>  (1) 
6

>  <PUBCHEM_ATOM_DEF_STEREO_COUNT>  (1) 
0

>  <PUBCHEM_ATOM_UDEF_STEREO_COUNT>  (1) 
1

>  <PUBCHEM_BOND_DEF_STEREO_COUNT>  (1) 
0

>  <PUBCHEM_BOND_UDEF_STEREO_COUNT>  (1) 
0

>  <PUBCHEM_ISOTOPIC_ATOM_COUNT>  (1) 
0

>  <PUBCHEM_COMPONENT_COUNT>  (1) 
1

>  <PUBCHEM_CACTVS_TAUTO_COUNT>  (1) 
1

>  <PUBCHEM_CONFORMER_ID>  (1) 
0000A17D00000001

>  <PUBCHEM_MMFF94_ENERGY>  (1) 
6.7788

>  <PUBCHEM_FEATURE_SELFOVERLAP>  (1) 
16.531

>  <PUBCHEM_SHAPE_FINGERPRINT>  (1) 
137420 1 11881268069540695221
16714656 1 17846229889788531237
18185500 45 18262230028242553259
20096714 4 18052838947976153580
21040471 1 17626390017342505393
23552333 60 18186793660858285595
23552449 11 17839996848966162071
24536 1 18057313985912406005
29004967 10 17844540000456673159
5943 1 12194268071617172080

>  <PUBCHEM_SHAPE_MULTIPOLES>  (1) 
137.23
2.47
1.81
1.14
0.28
0.67
-0.25
-0.57
0.43
0.55
-0.59
-0.26
-0.1
-0.59

>  <PUBCHEM_SHAPE_SELFOVERLAP>  (1) 
208.946

>  <PUBCHEM_SHAPE_VOLUME>  (1) 
101.7

>  <PUBCHEM_COORDINATE_TYPE>  (1) 
2
5
10

$$$$
