41342
     RDKit          3D

 12 11  0  0  1  0  0  0  0  0999 V2000
    3.0513    2.4878   -1.2725 Br  0  0  0  0  0  0  0  0  0  0  0  0
   -0.3863   -1.4244    0.2661 C   0  0  0  0  0  0  0  0  0  0  0  0
    0.5947   -0.3442    0.7779 C   0  0  0  0  0  0  0  0  0  0  0  0
   -1.6274   -0.8535   -0.4619 C   0  0  0  0  0  0  0  0  0  0  0  0
    0.2829   -2.4774   -0.6468 C   0  0  0  0  0  0  0  0  0  0  0  0
    1.3338    0.4307   -0.3199 C   0  0  0  0  0  0  0  0  0  0  0  0
   -2.3733    0.2260    0.3293 C   0  0  0  0  0  0  0  0  0  0  0  0
    2.2446    1.5271    0.2424 C   0  0  0  0  0  0  0  0  0  0  0  0
   -3.5920    0.7850   -0.4108 C   0  0  0  0  0  0  0  0  0  0  0  0
    1.4538   -3.2057   -0.0024 C   0  0  0  0  0  0  0  0  0  0  0  0
    3.3718    1.0085    1.1223 C   0  0  0  0  0  0  0  0  0  0  0  0
   -4.3537    1.8401    0.3762 C   0  0  0  0  0  0  0  0  0  0  0  0
  1  8  1  0
  2  3  1  0
  2  4  1  0
  2  5  1  0
  3  6  1  0
  4  7  1  0
  5 10  1  0
  6  8  1  0
  7  9  1  0
  8 11  1  0
  9 12  1  0
M  END
>  <PUBCHEM_COMPOUND_CID>  (1) 
41342

>  <PUBCHEM_CONFORMER_RMSD>  (1) 
0.8

>  <PUBCHEM_CONFORMER_DIVERSEORDER>  (1) 
1
101
83
14
73
25
38
64
34
20
2
113
71
61
22
70
44
18
111
8
35
107
106
62
10
81
65
31
69
21
28
24
105
3
78
15
91
80
63
93
87
19
4
54
74
27
43
26
37
49
48
84
40
51
32
11
46
42
45
97
66
55
110
52
77
9
98
50
7
102
104
36
33
6
58
99
92
88
86
17
59
57
16
53
109
76
103
12
90
89
112
29
108
5
13
95
75
67
100
68
94
96
39
56
23
72
47
85
60
82
30
79
41

>  <PUBCHEM_MMFF94_PARTIAL_CHARGES>  (1) 
2
1 -0.23
8 0.23

>  <PUBCHEM_EFFECTIVE_ROTOR_COUNT>  (1) 
7

>  <PUBCHEM_PHARMACOPHORE_FEATURES>  (1) 
8
1 1 hydrophobe
1 10 hydrophobe
1 12 hydrophobe
3 1 8 11 hydrophobe
3 2 4 5 hydrophobe
3 4 7 9 hydrophobe
4 2 3 5 6 hydrophobe
5 2 4 5 7 9 hydrophobe

>  <PUBCHEM_HEAVY_ATOM_COUNT>  (1) 
12

>  <PUBCHEM_ATOM_DEF_STEREO_COUNT>  (1) 
0

>  <PUBCHEM_ATOM_UDEF_STEREO_COUNT>  (1) 
2

>  <PUBCHEM_BOND_DEF_STEREO_COUNT>  (1) 
0

>  <PUBCHEM_BOND_UDEF_STEREO_COUNT>  (1) 
0

>  <PUBCHEM_ISOTOPIC_ATOM_COUNT>  (1) 
0

>  <PUBCHEM_COMPONENT_COUNT>  (1) 
1

>  <PUBCHEM_CACTVS_TAUTO_COUNT>  (1) 
1

>  <PUBCHEM_CONFORMER_ID>  (1) 
0000A17E00000001

>  <PUBCHEM_MMFF94_ENERGY>  (1) 
8.3886

>  <PUBCHEM_FEATURE_SELFOVERLAP>  (1) 
47.889

>  <PUBCHEM_SHAPE_FINGERPRINT>  (1) 
1 1 18412258419933378766
10465860 228 18340768126798280217
12173636 292 18122905605586615388
12500047 106 18127405872978837888
12932764 1 17691130748550958704
14123255 52 18413385458196549849
14648413 74 18337114449786066955
15775835 57 18187928446847196541
17134986 127 18409454703931825212
1741750 31 18266178529248893704
17834072 32 18265339575975656877
18186145 218 17631745978952033368
18785283 64 18261966158321088122
19021347 4 18338510975239501514
20645476 183 18190747637995089388
20645477 56 17910407408855905072
20671657 1 18270680853381441791
20711985 344 17619632822895387318
212916 134 17985803008594852440
21524375 3 18335691793244941307
23380061 81 18268713805836544785
23419403 2 17755561764623975278
23557571 272 17189815078833931864
23558518 356 18335694009285490794
23598291 2 17825094064236850972
23598294 1 17831863821305353650
305870 269 18412258441334238738
3071541 12 18339646620437298399
7364860 26 18198901414052080819
81228 2 17334777968515013754
81539 233 18408039598259957247
88987 49 17981604081189391888

>  <PUBCHEM_SHAPE_MULTIPOLES>  (1) 
252.9
6.58
3.45
1.05
4.45
2.33
-0.03
-7.21
0.25
-1.48
-0.8
-0.76
-0.33
-0.74

>  <PUBCHEM_SHAPE_SELFOVERLAP>  (1) 
439.502

>  <PUBCHEM_SHAPE_VOLUME>  (1) 
168.5

>  <PUBCHEM_COORDINATE_TYPE>  (1) 
2
5
10

$$$$
