41350
     RDKit          3D

 24 26  0  0  1  0  0  0  0  0999 V2000
   -0.8991   -1.1767   -0.3436 O   0  0  0  0  0  0  0  0  0  0  0  0
    1.7174   -2.4261   -0.1463 O   0  0  0  0  0  0  0  0  0  0  0  0
   -0.9755    1.5504   -0.2472 O   0  0  0  0  0  0  0  0  0  0  0  0
   -2.4620   -3.4764   -0.2846 O   0  0  0  0  0  0  0  0  0  0  0  0
    3.8605    1.6881    0.2129 O   0  0  0  0  0  0  0  0  0  0  0  0
    2.3719    3.8453    0.1563 O   0  0  0  0  0  0  0  0  0  0  0  0
   -4.2364   -0.2956    0.3819 N   0  0  0  0  0  0  0  0  0  0  0  0
   -2.8312   -2.3336    0.4926 C   0  0  0  0  0  0  0  0  0  0  0  0
    0.2539   -0.4608   -0.2091 C   0  0  0  0  0  0  0  0  0  0  0  0
    1.4987   -1.0812   -0.1158 C   0  0  0  0  0  0  0  0  0  0  0  0
    2.7041   -0.4011    0.0234 C   0  0  0  0  0  0  0  0  0  0  0  0
   -1.5640   -1.5632    0.8567 C   0  0  0  0  0  0  0  0  0  0  0  0
    0.2538    0.9370   -0.1552 C   0  0  0  0  0  0  0  0  0  0  0  0
    1.4454    1.6576   -0.0158 C   0  0  0  0  0  0  0  0  0  0  0  0
   -3.8312   -1.5065   -0.3189 C   0  0  0  0  0  0  0  0  0  0  0  0
    2.6854    1.0049    0.0755 C   0  0  0  0  0  0  0  0  0  0  0  0
    3.7084   -1.4037    0.0793 C   0  0  0  0  0  0  0  0  0  0  0  0
    3.0579   -2.6110   -0.0273 C   0  0  0  0  0  0  0  0  0  0  0  0
    1.3859    3.1314    0.0350 C   0  0  0  0  0  0  0  0  0  0  0  0
   -5.1430    0.5003   -0.4345 C   0  0  0  0  0  0  0  0  0  0  0  0
    3.5239   -4.0048   -0.0372 C   0  0  0  0  0  0  0  0  0  0  0  0
    0.0436    3.7336   -0.0680 C   0  0  0  0  0  0  0  0  0  0  0  0
   -1.0081    2.9219   -0.1976 C   0  0  0  0  0  0  0  0  0  0  0  0
   -5.5603    1.7703    0.2874 C   0  0  0  0  0  0  0  0  0  0  0  0
  1  9  1  0
  1 12  1  0
  2 10  1  0
  2 18  1  0
  3 13  1  0
  3 23  1  0
  4  8  1  0
  5 16  1  0
  6 19  2  0
  7 15  1  0
  7 20  1  0
  8 12  1  0
  8 15  1  0
  9 10  2  0
  9 13  1  0
 10 11  1  0
 11 16  2  0
 11 17  1  0
 13 14  2  0
 14 16  1  0
 14 19  1  0
 17 18  2  0
 18 21  1  0
 19 22  1  0
 20 24  1  0
 22 23  2  0
M  END
>  <PUBCHEM_COMPOUND_CID>  (1) 
41350

>  <PUBCHEM_CONFORMER_RMSD>  (1) 
0.8

>  <PUBCHEM_CONFORMER_DIVERSEORDER>  (1) 
2
49
38
7
18
46
28
29
22
48
39
34
31
33
6
26
40
47
51
30
45
42
41
20
50
53
3
32
27
52
21
25
11
17
37
15
9
36
19
23
16
5
1
24
4
8
13
10
14
43
35
12
44

>  <PUBCHEM_MMFF94_PARTIAL_CHARGES>  (1) 
28
1 -0.36
10 0.14
12 0.28
13 0.08
14 0.09
15 0.27
16 0.08
17 -0.15
18 -0.04
19 0.47
2 -0.28
20 0.27
21 0.18
22 -0.14
23 -0.07
3 -0.16
30 0.15
31 0.36
37 0.4
38 0.15
39 0.15
4 -0.68
40 0.45
5 -0.53
6 -0.57
7 -0.9
8 0.28
9 0.08

>  <PUBCHEM_EFFECTIVE_ROTOR_COUNT>  (1) 
6

>  <PUBCHEM_PHARMACOPHORE_FEATURES>  (1) 
12
1 1 acceptor
1 2 acceptor
1 3 acceptor
1 4 acceptor
1 4 donor
1 5 donor
1 6 acceptor
1 7 cation
1 7 donor
5 2 10 11 17 18 rings
6 3 13 14 19 22 23 rings
6 9 10 11 13 14 16 rings

>  <PUBCHEM_HEAVY_ATOM_COUNT>  (1) 
24

>  <PUBCHEM_ATOM_DEF_STEREO_COUNT>  (1) 
0

>  <PUBCHEM_ATOM_UDEF_STEREO_COUNT>  (1) 
1

>  <PUBCHEM_BOND_DEF_STEREO_COUNT>  (1) 
0

>  <PUBCHEM_BOND_UDEF_STEREO_COUNT>  (1) 
0

>  <PUBCHEM_ISOTOPIC_ATOM_COUNT>  (1) 
0

>  <PUBCHEM_COMPONENT_COUNT>  (1) 
1

>  <PUBCHEM_CACTVS_TAUTO_COUNT>  (1) 
4

>  <PUBCHEM_CONFORMER_ID>  (1) 
0000A18600000002

>  <PUBCHEM_MMFF94_ENERGY>  (1) 
49.7606

>  <PUBCHEM_FEATURE_SELFOVERLAP>  (1) 
61.041

>  <PUBCHEM_SHAPE_FINGERPRINT>  (1) 
10411042 1 18266740177795939542
10906281 52 18260557766020844336
10967382 1 18410574037007647780
1100329 8 17978509732808472697
11578080 2 17273669105323983091
116883 192 18339364037417138622
12553582 1 18338252482817440514
12788726 201 18045789979131396818
13004483 165 18193267503776930594
13140716 1 18268420420668323560
138480 1 18410575106380696900
14178342 30 17981870149490885442
14466204 15 18195240250748587552
14790565 3 17976546336044280332
14866123 147 17400922994651654507
15042514 8 17762054342062662482
15081414 286 18410582772992389377
15420108 30 18056178405782534250
15442244 35 18411702097446570619
1601671 61 18337391655433351460
16087824 20 18050007688856382301
19591789 44 18049724014497161241
20028762 73 17984414140968054751
21279426 13 18118961395896428837
21421861 104 18114169797015570202
21478907 32 17977946778486127098
22393880 68 18125452048757264429
23559900 14 18411696599693214122
2748010 2 18340758287529397396
3014063 31 18265614286546784757
3091708 16 9212354372288920762
335352 9 18338235964372889111
34934 24 18410571811914148466
350125 39 18410572895147961128
54173680 148 18050005489721733278
543358 83 18411141346073247691
59755656 215 18410014317312641086
6443956 14 18408606950602589590
7832392 63 18411417353915598483
9709674 26 18336829809566281995
9981440 41 17761768864292256449

>  <PUBCHEM_SHAPE_MULTIPOLES>  (1) 
453.71
8.59
5.33
0.67
9.98
1.52
-0.03
-3.44
-0.16
-2.56
-0.02
0.18
-0.09
0.22

>  <PUBCHEM_SHAPE_SELFOVERLAP>  (1) 
979.51

>  <PUBCHEM_SHAPE_VOLUME>  (1) 
251

>  <PUBCHEM_COORDINATE_TYPE>  (1) 
2
5
10

$$$$
