41362
     RDKit          3D

 17 18  0  0  0  0  0  0  0  0999 V2000
    0.2762    2.5550    0.1204 Cl  0  0  0  0  0  0  0  0  0  0  0  0
   -0.2443   -2.8738    0.1696 Cl  0  0  0  0  0  0  0  0  0  0  0  0
   -1.3396   -0.0373   -2.5517 Cl  0  0  0  0  0  0  0  0  0  0  0  0
    3.4139    2.2046    0.0261 Cl  0  0  0  0  0  0  0  0  0  0  0  0
    4.6424   -0.7381    0.0104 Cl  0  0  0  0  0  0  0  0  0  0  0  0
    0.1563   -0.1599    0.1431 C   0  0  0  0  0  0  0  0  0  0  0  0
   -1.2862   -0.0123    0.1850 C   0  0  0  0  0  0  0  0  0  0  0  0
    0.9870    0.9636    0.1087 C   0  0  0  0  0  0  0  0  0  0  0  0
    0.7226   -1.4378    0.1357 C   0  0  0  0  0  0  0  0  0  0  0  0
   -2.0529    0.0523   -0.9786 C   0  0  0  0  0  0  0  0  0  0  0  0
   -1.9050    0.0640    1.4329 C   0  0  0  0  0  0  0  0  0  0  0  0
    2.3730    0.8104    0.0673 C   0  0  0  0  0  0  0  0  0  0  0  0
    2.1082   -1.5910    0.0943 C   0  0  0  0  0  0  0  0  0  0  0  0
    2.9335   -0.4670    0.0602 C   0  0  0  0  0  0  0  0  0  0  0  0
   -3.4381    0.1930   -0.8942 C   0  0  0  0  0  0  0  0  0  0  0  0
   -3.2902    0.2048    1.5171 C   0  0  0  0  0  0  0  0  0  0  0  0
   -4.0568    0.2694    0.3536 C   0  0  0  0  0  0  0  0  0  0  0  0
  1  8  1  0
  2  9  1  0
  3 10  1  0
  4 12  1  0
  5 14  1  0
  6  7  1  0
  6  8  2  0
  6  9  1  0
  7 10  2  0
  7 11  1  0
  8 12  1  0
  9 13  2  0
 10 15  1  0
 11 16  2  0
 12 14  2  0
 13 14  1  0
 15 17  2  0
 16 17  1  0
M  END
>  <PUBCHEM_COMPOUND_CID>  (1) 
41362

>  <PUBCHEM_CONFORMER_RMSD>  (1) 
0.6

>  <PUBCHEM_CONFORMER_DIVERSEORDER>  (1) 
1
2

>  <PUBCHEM_MMFF94_PARTIAL_CHARGES>  (1) 
20
1 -0.18
10 0.18
11 -0.15
12 0.18
13 -0.15
14 0.18
15 -0.15
16 -0.15
17 -0.15
18 0.15
19 0.15
2 -0.18
20 0.15
21 0.15
22 0.15
3 -0.18
4 -0.18
5 -0.18
8 0.18
9 0.18

>  <PUBCHEM_EFFECTIVE_ROTOR_COUNT>  (1) 
1

>  <PUBCHEM_PHARMACOPHORE_FEATURES>  (1) 
2
6 6 8 9 12 13 14 rings
6 7 10 11 15 16 17 rings

>  <PUBCHEM_HEAVY_ATOM_COUNT>  (1) 
17

>  <PUBCHEM_ATOM_DEF_STEREO_COUNT>  (1) 
0

>  <PUBCHEM_ATOM_UDEF_STEREO_COUNT>  (1) 
0

>  <PUBCHEM_BOND_DEF_STEREO_COUNT>  (1) 
0

>  <PUBCHEM_BOND_UDEF_STEREO_COUNT>  (1) 
0

>  <PUBCHEM_ISOTOPIC_ATOM_COUNT>  (1) 
0

>  <PUBCHEM_COMPONENT_COUNT>  (1) 
1

>  <PUBCHEM_CACTVS_TAUTO_COUNT>  (1) 
1

>  <PUBCHEM_CONFORMER_ID>  (1) 
0000A19200000001

>  <PUBCHEM_MMFF94_ENERGY>  (1) 
50.4213

>  <PUBCHEM_FEATURE_SELFOVERLAP>  (1) 
10.149

>  <PUBCHEM_SHAPE_FINGERPRINT>  (1) 
104564 63 18195811765082853640
10967382 1 18410576188939146552
11471102 20 18409448089877367840
12236239 1 17775565321385790731
12403814 3 17458344186358165222
12491281 212 17131844195436264560
13140716 1 18337951311642560458
13538477 17 17346305038399242847
13581323 91 15140676981817700521
14178342 30 17980189009655768960
15219456 202 17967252013629361369
15309172 13 18408606963281743731
15342168 16 18191030194950650613
15653759 3 17095241419119803248
15775835 57 17989210364774655001
15848702 151 17702955712365677982
16945 1 18410292480653496306
17844478 74 17748828496895927957
1813 80 17986405382306537926
18175812 5 17748832925096900215
18186145 218 18413108368312454348
18219364 16 18261104201239235439
19049666 15 17460020791287630505
19422 9 17846497045397154399
200 152 18343577422151904657
20344682 1 17675926473886355303
20645476 183 17846213414747671141
21486144 27 18261954154071949740
21501502 16 18193838369507630218
21639500 275 18339913913363503792
22112679 90 17489297607501556125
23175994 123 18260272906140431852
23184049 59 18410295817621454872
2334 1 18122344850952377658
23402539 116 18272081665734360286
23493267 7 17095797716248186200
23557571 272 16660648414760421991
23558518 356 17540530653563039152
23559900 14 16226322608648379554
23598291 2 17989199365358044549
25 1 18409445894832399580
2748010 2 18195251237917969306
3286 77 18261959647493246913
350125 39 17616822475243029312
474 4 17986659579566416408
568465 68 18042143023552155779
63268167 104 18343578572776151473
633830 44 18201736036632859485
6992083 37 17703789223678376613
77492 1 17775564230406055747
81228 2 16101319960298950058
8272917 22 18270125587446266315
90525 40 17489305235727152775

>  <PUBCHEM_SHAPE_MULTIPOLES>  (1) 
359.2
6.76
2.27
1.4
1.63
0.17
0.73
-0.76
-0.63
1.67
-0.2
-1.52
-0.04
-0.06

>  <PUBCHEM_SHAPE_SELFOVERLAP>  (1) 
735.873

>  <PUBCHEM_SHAPE_VOLUME>  (1) 
200.5

>  <PUBCHEM_COORDINATE_TYPE>  (1) 
2
5
10

$$$$
