41365
     RDKit          3D

  7  7  0  0  1  0  0  0  0  0999 V2000
    2.7055    0.3857    0.0844 S   0  0  0  0  0  0  0  0  0  0  0  0
   -0.6129    1.8891    0.1797 N   0  0  0  0  0  0  0  0  0  0  0  0
    0.1307   -0.4429    0.3583 C   0  0  0  0  0  0  0  0  0  0  0  0
   -0.6702    0.6001   -0.4488 C   0  0  0  0  0  0  0  0  0  0  0  0
   -1.0475   -1.4124    0.1281 C   0  0  0  0  0  0  0  0  0  0  0  0
   -1.9425   -0.1657   -0.0302 C   0  0  0  0  0  0  0  0  0  0  0  0
    1.4369   -0.8539   -0.2716 C   0  0  0  0  0  0  0  0  0  0  0  0
  1  7  1  0
  2  4  1  0
  3  4  1  0
  3  5  1  0
  3  7  1  0
  4  6  1  0
  5  6  1  0
M  END
>  <PUBCHEM_COMPOUND_CID>  (1) 
41365

>  <PUBCHEM_CONFORMER_RMSD>  (1) 
0.4

>  <PUBCHEM_CONFORMER_DIVERSEORDER>  (1) 
1
4
3
2
5

>  <PUBCHEM_MMFF94_PARTIAL_CHARGES>  (1) 
7
1 -0.41
16 0.36
17 0.36
18 0.18
2 -0.93
4 0.21
7 0.23

>  <PUBCHEM_EFFECTIVE_ROTOR_COUNT>  (1) 
1.8

>  <PUBCHEM_PHARMACOPHORE_FEATURES>  (1) 
3
1 2 cation
1 2 donor
4 3 4 5 6 rings

>  <PUBCHEM_HEAVY_ATOM_COUNT>  (1) 
7

>  <PUBCHEM_ATOM_DEF_STEREO_COUNT>  (1) 
0

>  <PUBCHEM_ATOM_UDEF_STEREO_COUNT>  (1) 
0

>  <PUBCHEM_BOND_DEF_STEREO_COUNT>  (1) 
0

>  <PUBCHEM_BOND_UDEF_STEREO_COUNT>  (1) 
0

>  <PUBCHEM_ISOTOPIC_ATOM_COUNT>  (1) 
0

>  <PUBCHEM_COMPONENT_COUNT>  (1) 
1

>  <PUBCHEM_CACTVS_TAUTO_COUNT>  (1) 
1

>  <PUBCHEM_CONFORMER_ID>  (1) 
0000A19500000001

>  <PUBCHEM_MMFF94_ENERGY>  (1) 
17.5954

>  <PUBCHEM_FEATURE_SELFOVERLAP>  (1) 
15.223

>  <PUBCHEM_SHAPE_FINGERPRINT>  (1) 
10857977 72 18266452303285640522
14390081 3 18342172267703250320
16714656 1 18411700997476078374
20096714 4 17833269722835620012
21040471 1 17977104552610489932
23552423 10 18187367597480780074
23552449 1 18338514261063055918
24536 1 18268134367197770806
29004967 10 18340212997706095714
369184 2 16443058422134982898

>  <PUBCHEM_SHAPE_MULTIPOLES>  (1) 
142.93
2.97
1.5
0.68
1.99
0.42
-0.01
-0.01
0.02
-0.38
0.07
0.03
-0.01
0.09

>  <PUBCHEM_SHAPE_SELFOVERLAP>  (1) 
264.303

>  <PUBCHEM_SHAPE_VOLUME>  (1) 
93.4

>  <PUBCHEM_COORDINATE_TYPE>  (1) 
2
5
10

$$$$
