41368
     RDKit          3D

 20 21  0  0  1  0  0  0  0  0999 V2000
    5.5951   -1.0518   -0.2102 Cl  0  0  0  0  0  0  0  0  0  0  0  0
   -2.6781    0.5809    1.2868 O   0  0  0  0  0  0  0  0  0  0  0  0
   -0.2280   -0.6885    0.4506 O   0  0  0  0  0  0  0  0  0  0  0  0
   -0.5035    1.5479   -0.3166 N   0  0  0  0  0  0  0  0  0  0  0  0
   -0.5287    2.1654    0.8538 N   0  0  0  0  0  0  0  0  0  0  0  0
    0.3141    3.4717   -0.8242 N   0  0  0  0  0  0  0  0  0  0  0  0
   -3.1738   -1.3282   -0.1661 C   0  0  0  0  0  0  0  0  0  0  0  0
   -2.4954    0.0772   -0.0411 C   0  0  0  0  0  0  0  0  0  0  0  0
   -0.9920    0.1580   -0.4166 C   0  0  0  0  0  0  0  0  0  0  0  0
   -3.1167   -1.8306   -1.6214 C   0  0  0  0  0  0  0  0  0  0  0  0
   -2.5391   -2.3930    0.7464 C   0  0  0  0  0  0  0  0  0  0  0  0
   -4.6619   -1.1975    0.2333 C   0  0  0  0  0  0  0  0  0  0  0  0
   -0.0133    2.2973   -1.3113 C   0  0  0  0  0  0  0  0  0  0  0  0
    1.1296   -0.7730    0.2965 C   0  0  0  0  0  0  0  0  0  0  0  0
   -0.0174    3.3447    0.4944 C   0  0  0  0  0  0  0  0  0  0  0  0
    1.6602   -1.2219   -0.9082 C   0  0  0  0  0  0  0  0  0  0  0  0
    1.9667   -0.4094    1.3462 C   0  0  0  0  0  0  0  0  0  0  0  0
    3.0434   -1.3083   -1.0652 C   0  0  0  0  0  0  0  0  0  0  0  0
    3.3501   -0.4957    1.1893 C   0  0  0  0  0  0  0  0  0  0  0  0
    3.8886   -0.9451   -0.0165 C   0  0  0  0  0  0  0  0  0  0  0  0
  1 20  1  0
  2  8  1  0
  3  9  1  0
  3 14  1  0
  4  5  1  0
  4  9  1  0
  4 13  1  0
  5 15  2  0
  6 13  2  0
  6 15  1  0
  7  8  1  0
  7 10  1  0
  7 11  1  0
  7 12  1  0
  8  9  1  0
 14 16  2  0
 14 17  1  0
 16 18  1  0
 17 19  2  0
 18 20  2  0
 19 20  1  0
M  END
>  <PUBCHEM_COMPOUND_CID>  (1) 
41368

>  <PUBCHEM_CONFORMER_RMSD>  (1) 
0.8

>  <PUBCHEM_CONFORMER_DIVERSEORDER>  (1) 
1
9
40
20
52
26
11
37
36
46
49
41
50
51
48
25
43
15
24
47
34
32
18
42
8
14
10
38
39
21
29
30
45
27
12
33
53
44
28
4
23
19
6
35
13
22
5
7
31
17
2
16
3

>  <PUBCHEM_MMFF94_PARTIAL_CHARGES>  (1) 
23
1 -0.18
13 0.04
14 0.08
15 0.37
16 -0.15
17 -0.15
18 -0.15
19 -0.15
2 -0.68
20 0.18
3 -0.36
32 0.4
33 0.15
34 0.15
35 0.15
36 0.15
37 0.15
38 0.15
4 0.31
5 -0.71
6 -0.57
8 0.28
9 0.54

>  <PUBCHEM_EFFECTIVE_ROTOR_COUNT>  (1) 
5

>  <PUBCHEM_PHARMACOPHORE_FEATURES>  (1) 
8
1 2 acceptor
1 2 donor
1 3 acceptor
3 4 6 13 cation
3 5 6 15 cation
4 7 10 11 12 hydrophobe
5 4 5 6 13 15 rings
6 14 16 17 18 19 20 rings

>  <PUBCHEM_HEAVY_ATOM_COUNT>  (1) 
20

>  <PUBCHEM_ATOM_DEF_STEREO_COUNT>  (1) 
0

>  <PUBCHEM_ATOM_UDEF_STEREO_COUNT>  (1) 
2

>  <PUBCHEM_BOND_DEF_STEREO_COUNT>  (1) 
0

>  <PUBCHEM_BOND_UDEF_STEREO_COUNT>  (1) 
0

>  <PUBCHEM_ISOTOPIC_ATOM_COUNT>  (1) 
0

>  <PUBCHEM_COMPONENT_COUNT>  (1) 
1

>  <PUBCHEM_CACTVS_TAUTO_COUNT>  (1) 
1

>  <PUBCHEM_CONFORMER_ID>  (1) 
0000A19800000001

>  <PUBCHEM_MMFF94_ENERGY>  (1) 
59.1283

>  <PUBCHEM_FEATURE_SELFOVERLAP>  (1) 
43.385

>  <PUBCHEM_SHAPE_FINGERPRINT>  (1) 
10165383 225 16899930500365480644
10989021 7 18409729607687680933
11045515 52 18040996241419452508
11265709 11 18409735062253909901
11680986 33 18046908465876661491
12173636 292 17619913855385296308
12553582 1 18334848420481979587
12707595 3 18260826055189727051
12788726 201 18191013517639541241
13149001 5 17896884459279302395
133893 2 17971203766010275885
13583140 156 17768773565569425050
13681431 1 18264770033215183477
14181834 199 17977648025092913567
14347332 77 18264204700241150222
14787075 74 17969503887037635384
17357779 13 18269816692818193613
1813 80 18411141350479095375
18222031 100 18341037609952260079
19868273 325 18408886204859382735
200 152 17240763965057923546
20097449 115 18335415798646604253
20510252 161 18263924341517411210
20600515 1 18410583910942490438
20645477 70 18048586316774261607
20671657 53 18262508299506080931
20871999 31 18262228937663680359
21041028 32 18411428340642382433
21304303 282 17106168202563167828
21339142 36 18335973190701361325
21524375 3 17182218020036495889
22112679 90 18339381698248878285
2297311 6 18339652161520305270
23352939 185 18272379702252872152
23402539 116 18335420136806458702
23419403 2 17899942153802974548
23557571 272 18340207393237816286
23559900 14 18267295624836679139
3286 77 17418085551212257378
34934 24 18263081007651351755
458136 41 17397002613407721257
5845 1 8464501528235793125
5902787 121 18189051052672281411
621550 5 17989212521227682266
6442390 28 17406003855142584921
7364860 26 18124317365832263505
81228 2 18266467507459221297

>  <PUBCHEM_SHAPE_MULTIPOLES>  (1) 
386.78
7.96
3.26
1.3
4.59
3.91
-0.09
-6.89
0.03
-1.13
-0.48
-0.03
-0.06
-0.06

>  <PUBCHEM_SHAPE_SELFOVERLAP>  (1) 
800.166

>  <PUBCHEM_SHAPE_VOLUME>  (1) 
224.6

>  <PUBCHEM_COORDINATE_TYPE>  (1) 
2
5
10

$$$$
