41375
     RDKit          3D

 29 31  0  0  1  0  0  0  0  0999 V2000
   -0.4276    1.1809    0.7617 S   0  0  0  0  0  0  0  0  0  0  0  0
   -0.3717   -3.3711   -0.1813 O   0  0  0  0  0  0  0  0  0  0  0  0
   -5.1019    1.2796    0.3102 O   0  0  0  0  0  0  0  0  0  0  0  0
   -3.5223   -2.9897   -0.2149 O   0  0  0  0  0  0  0  0  0  0  0  0
   -3.3399   -1.8947   -2.2144 O   0  0  0  0  0  0  0  0  0  0  0  0
    3.0979   -0.6262    2.4482 O   0  0  0  0  0  0  0  0  0  0  0  0
    4.5750    1.5407   -1.2529 O   0  0  0  0  0  0  0  0  0  0  0  0
    5.7906   -0.4573   -0.9761 O   0  0  0  0  0  0  0  0  0  0  0  0
   -6.7724    1.7257   -1.2097 O   0  0  0  0  0  0  0  0  0  0  0  0
   -1.3222   -1.2921    0.3976 N   0  0  0  0  0  0  0  0  0  0  0  0
    1.7272   -0.9953    0.5791 N   0  0  0  0  0  0  0  0  0  0  0  0
    4.8431   -1.0627   -0.1388 N   0  0  0  0  0  0  0  0  0  0  0  0
   -7.0463    2.1961    1.0242 N   0  0  0  0  0  0  0  0  0  0  0  0
   -0.6678   -0.4877    1.4132 C   0  0  0  0  0  0  0  0  0  0  0  0
    0.5264   -1.4572    1.2747 C   0  0  0  0  0  0  0  0  0  0  0  0
   -0.4248   -2.3014    0.3793 C   0  0  0  0  0  0  0  0  0  0  0  0
   -2.4813   -0.9380   -0.2148 C   0  0  0  0  0  0  0  0  0  0  0  0
   -2.9634    0.3254   -0.1398 C   0  0  0  0  0  0  0  0  0  0  0  0
   -2.2154    1.4711    0.5383 C   0  0  0  0  0  0  0  0  0  0  0  0
   -4.2814    0.7759   -0.7226 C   0  0  0  0  0  0  0  0  0  0  0  0
   -3.1547   -1.9706   -1.0164 C   0  0  0  0  0  0  0  0  0  0  0  0
    2.8840   -0.6298    1.2464 C   0  0  0  0  0  0  0  0  0  0  0  0
    3.9886   -0.1996    0.3201 C   0  0  0  0  0  0  0  0  0  0  0  0
    4.0654    1.2175   -0.0354 C   0  0  0  0  0  0  0  0  0  0  0  0
   -6.3439    1.7327   -0.0606 C   0  0  0  0  0  0  0  0  0  0  0  0
    3.7048    2.3519    0.6539 C   0  0  0  0  0  0  0  0  0  0  0  0
    4.0127    3.4422   -0.1944 C   0  0  0  0  0  0  0  0  0  0  0  0
    4.5394    2.8963   -1.3418 C   0  0  0  0  0  0  0  0  0  0  0  0
    6.6820   -1.4627   -1.4328 C   0  0  0  0  0  0  0  0  0  0  0  0
  1 14  1  0
  1 19  1  0
  2 16  2  0
  3 20  1  0
  3 25  1  0
  4 21  1  0
  5 21  2  0
  6 22  2  0
  7 24  1  0
  7 28  1  0
  8 12  1  0
  8 29  1  0
  9 25  2  0
 10 14  1  0
 10 16  1  0
 10 17  1  0
 11 15  1  0
 11 22  1  0
 12 23  2  0
 13 25  1  0
 14 15  1  0
 15 16  1  0
 17 18  2  0
 17 21  1  0
 18 19  1  0
 18 20  1  0
 22 23  1  0
 23 24  1  0
 24 26  2  0
 26 27  1  0
 27 28  2  0
M  END
>  <PUBCHEM_COMPOUND_CID>  (1) 
41375

>  <PUBCHEM_CONFORMER_RMSD>  (1) 
1

>  <PUBCHEM_CONFORMER_DIVERSEORDER>  (1) 
2
27
29
22
21
34
6
12
14
25
32
18
10
15
33
28
23
17
31
4
20
8
13
24
30
19
1
9
16
26
11
3
7
5

>  <PUBCHEM_MMFF94_PARTIAL_CHARGES>  (1) 
36
1 -0.45
10 -0.39
11 -0.65
12 -0.51
13 -0.8
14 0.44
15 0.28
16 0.58
17 0.12
18 -0.28
19 0.37
2 -0.57
20 0.42
21 0.71
22 0.63
23 0.53
24 0.05
25 0.78
26 -0.15
27 -0.15
28 -0.01
29 0.28
3 -0.43
34 0.37
37 0.5
38 0.15
39 0.15
4 -0.65
40 0.15
41 0.37
42 0.37
5 -0.57
6 -0.57
7 -0.28
8 -0.22
9 -0.57

>  <PUBCHEM_EFFECTIVE_ROTOR_COUNT>  (1) 
9.6

>  <PUBCHEM_PHARMACOPHORE_FEATURES>  (1) 
13
1 11 donor
1 12 acceptor
1 13 donor
1 2 acceptor
1 4 acceptor
1 5 acceptor
1 6 acceptor
1 7 acceptor
1 9 acceptor
3 4 5 21 anion
4 10 14 15 16 rings
5 7 24 26 27 28 rings
6 1 10 14 17 18 19 rings

>  <PUBCHEM_HEAVY_ATOM_COUNT>  (1) 
29

>  <PUBCHEM_ATOM_DEF_STEREO_COUNT>  (1) 
2

>  <PUBCHEM_ATOM_UDEF_STEREO_COUNT>  (1) 
0

>  <PUBCHEM_BOND_DEF_STEREO_COUNT>  (1) 
0

>  <PUBCHEM_BOND_UDEF_STEREO_COUNT>  (1) 
1

>  <PUBCHEM_ISOTOPIC_ATOM_COUNT>  (1) 
0

>  <PUBCHEM_COMPONENT_COUNT>  (1) 
1

>  <PUBCHEM_CACTVS_TAUTO_COUNT>  (1) 
4

>  <PUBCHEM_CONFORMER_ID>  (1) 
0000A19F00000002

>  <PUBCHEM_MMFF94_ENERGY>  (1) 
68.729

>  <PUBCHEM_FEATURE_SELFOVERLAP>  (1) 
66.293

>  <PUBCHEM_SHAPE_FINGERPRINT>  (1) 
11796584 16 14045445748993953845
12616971 3 17968642865673338280
12892183 10 8286209340171688178
13782708 43 13541880470577214061
1454969 45 18410568493170122453
14790565 3 18340488864194548465
14840074 17 18113337496910249837
15064981 194 18339380633429207145
15510800 12 13470689286652418148
16090146 7 17988373585139621931
18335252 114 18263919956092097068
20715895 44 18412260636489691096
21033648 29 17676494994681339384
21315764 119 17774726368085751660
23559900 14 18273492369302152514
249057 3 18341333310377256110
3004659 81 18341891875195513408
3472631 163 18410573989847384517
34797466 226 15769194155705231969
4173938 77 17968956256648134061
5104073 3 17894903079074669376
633830 44 18334006220376535842

>  <PUBCHEM_SHAPE_MULTIPOLES>  (1) 
533.78
15.94
3.61
1.52
6.04
0.37
-0.02
9.35
5.6
-0.24
0.7
-0.63
-0.32
-1.14

>  <PUBCHEM_SHAPE_SELFOVERLAP>  (1) 
1125.464

>  <PUBCHEM_SHAPE_VOLUME>  (1) 
300.8

>  <PUBCHEM_COORDINATE_TYPE>  (1) 
2
5
10

$$$$
