41372
     RDKit          3D

 25 27  0  0  0  0  0  0  0  0999 V2000
    0.9304    1.1559    1.9950 O   0  0  0  0  0  0  0  0  0  0  0  0
   -0.0219   -2.1232   -2.1799 O   0  0  0  0  0  0  0  0  0  0  0  0
    2.4991    0.3455   -2.2453 O   0  0  0  0  0  0  0  0  0  0  0  0
    4.1446    0.4325    0.7843 O   0  0  0  0  0  0  0  0  0  0  0  0
    0.4053   -0.0233   -1.2480 N   0  0  0  0  0  0  0  0  0  0  0  0
    2.0244    0.9359   -0.0438 N   0  0  0  0  0  0  0  0  0  0  0  0
   -0.2461    0.1870    0.0631 C   0  0  0  0  0  0  0  0  0  0  0  0
    0.9565    0.8168    0.8165 C   0  0  0  0  0  0  0  0  0  0  0  0
   -1.3479    1.2652    0.0535 C   0  0  0  0  0  0  0  0  0  0  0  0
   -0.6651   -1.1690    0.6567 C   0  0  0  0  0  0  0  0  0  0  0  0
    1.7348    0.4206   -1.2905 C   0  0  0  0  0  0  0  0  0  0  0  0
   -0.2279   -0.7293   -2.3536 C   0  0  0  0  0  0  0  0  0  0  0  0
    3.3152    1.4869    0.3200 C   0  0  0  0  0  0  0  0  0  0  0  0
   -1.9257    1.6842    1.2526 C   0  0  0  0  0  0  0  0  0  0  0  0
   -1.9909   -1.5937    0.5607 C   0  0  0  0  0  0  0  0  0  0  0  0
   -1.7684    1.8237   -1.1542 C   0  0  0  0  0  0  0  0  0  0  0  0
    0.2801   -1.9760    1.2913 C   0  0  0  0  0  0  0  0  0  0  0  0
   -2.9226    2.6598    1.2441 C   0  0  0  0  0  0  0  0  0  0  0  0
   -2.3710   -2.8232    1.0987 C   0  0  0  0  0  0  0  0  0  0  0  0
   -2.7652    2.7995   -1.1626 C   0  0  0  0  0  0  0  0  0  0  0  0
   -0.1000   -3.2056    1.8291 C   0  0  0  0  0  0  0  0  0  0  0  0
   -3.3422    3.2176    0.0365 C   0  0  0  0  0  0  0  0  0  0  0  0
   -1.4256   -3.6291    1.7327 C   0  0  0  0  0  0  0  0  0  0  0  0
   -0.5890   -2.8708   -3.2473 C   0  0  0  0  0  0  0  0  0  0  0  0
    5.4193    0.9121    1.1904 C   0  0  0  0  0  0  0  0  0  0  0  0
  1  8  2  0
  2 12  1  0
  2 24  1  0
  3 11  2  0
  4 13  1  0
  4 25  1  0
  5  7  1  0
  5 11  1  0
  5 12  1  0
  6  8  1  0
  6 11  1  0
  6 13  1  0
  7  8  1  0
  7  9  1  0
  7 10  1  0
  9 14  2  0
  9 16  1  0
 10 15  2  0
 10 17  1  0
 14 18  1  0
 15 19  1  0
 16 20  2  0
 17 21  2  0
 18 22  2  0
 19 23  2  0
 20 22  1  0
 21 23  1  0
M  END
>  <PUBCHEM_COMPOUND_CID>  (1) 
41372

>  <PUBCHEM_CONFORMER_RMSD>  (1) 
0.8

>  <PUBCHEM_CONFORMER_DIVERSEORDER>  (1) 
1
3
12
8
2
5
7
4
6
13
9
11
10

>  <PUBCHEM_MMFF94_PARTIAL_CHARGES>  (1) 
35
1 -0.57
10 -0.14
11 0.69
12 0.58
13 0.58
14 -0.15
15 -0.15
16 -0.15
17 -0.15
18 -0.15
19 -0.15
2 -0.56
20 -0.15
21 -0.15
22 -0.15
23 -0.15
24 0.28
25 0.28
3 -0.57
30 0.15
31 0.15
32 0.15
33 0.15
34 0.15
35 0.15
36 0.15
37 0.15
38 0.15
39 0.15
4 -0.56
5 -0.66
6 -0.42
7 0.65
8 0.57
9 -0.14

>  <PUBCHEM_EFFECTIVE_ROTOR_COUNT>  (1) 
6.6

>  <PUBCHEM_PHARMACOPHORE_FEATURES>  (1) 
7
1 1 acceptor
1 2 acceptor
1 3 acceptor
1 4 acceptor
5 5 6 7 8 11 rings
6 10 15 17 19 21 23 rings
6 9 14 16 18 20 22 rings

>  <PUBCHEM_HEAVY_ATOM_COUNT>  (1) 
25

>  <PUBCHEM_ATOM_DEF_STEREO_COUNT>  (1) 
0

>  <PUBCHEM_ATOM_UDEF_STEREO_COUNT>  (1) 
0

>  <PUBCHEM_BOND_DEF_STEREO_COUNT>  (1) 
0

>  <PUBCHEM_BOND_UDEF_STEREO_COUNT>  (1) 
0

>  <PUBCHEM_ISOTOPIC_ATOM_COUNT>  (1) 
0

>  <PUBCHEM_COMPONENT_COUNT>  (1) 
1

>  <PUBCHEM_CACTVS_TAUTO_COUNT>  (1) 
1

>  <PUBCHEM_CONFORMER_ID>  (1) 
0000A19C00000001

>  <PUBCHEM_MMFF94_ENERGY>  (1) 
70.4179

>  <PUBCHEM_FEATURE_SELFOVERLAP>  (1) 
35.524

>  <PUBCHEM_SHAPE_FINGERPRINT>  (1) 
107951 10 18337112259299699482
11578080 2 15901587454153704681
11582403 64 18056173831299615428
121448 382 18409440376264011685
12788726 201 17971774399575462544
13004483 165 17901667386394064714
13009979 54 17461170013125711122
13134695 92 17547576341427854395
13149001 5 17620232786671321991
13583140 156 18341604980228902136
14022347 108 17251234751828564579
14817 1 10691571083460393167
14955137 171 17400659125130635523
16945 1 18192736615468757651
19765921 60 18127124182795294449
20600515 1 17975430314730049451
20602899 9 17390464728100720966
21524375 3 18341600478285738276
22149856 69 15476455503283258825
22182313 1 17702406042667446180
23419403 2 17696513647905300759
23559900 14 18120962708969800020
2748010 2 17702131155970035988
298252 57 17702929353935045708
3052486 1 17899733251473720011
3380486 145 17481692470545889353
3380486 77 17828225498885626411
35225 105 18268124591804615673
4340502 62 18267879276675210617
484985 159 17750209526951514258
497634 4 17750232690021228284
5845 1 15446942282249005707
70251023 43 17696729414435897206
81228 2 18119835713503535281
84936 31 17682674017594602849
9981440 41 17774997934762976912

>  <PUBCHEM_SHAPE_MULTIPOLES>  (1) 
481.05
5.44
4.44
2.61
6.8
3.28
2.23
-6.11
-2.1
-3.98
-1.19
0.21
1.96
0.64

>  <PUBCHEM_SHAPE_SELFOVERLAP>  (1) 
1033.329

>  <PUBCHEM_SHAPE_VOLUME>  (1) 
266.9

>  <PUBCHEM_COORDINATE_TYPE>  (1) 
2
5
10

$$$$
