41370
     RDKit          3D

 17 19  0  0  0  0  0  0  0  0999 V2000
   -0.7502    0.5099    0.9198 N   0  0  0  0  0  0  0  0  0  0  0  0
   -0.3769   -1.7537    0.2689 N   0  0  0  0  0  0  0  0  0  0  0  0
   -1.5956   -1.7989   -0.3125 N   0  0  0  0  0  0  0  0  0  0  0  0
   -4.0467    1.5453   -0.2314 N   0  0  0  0  0  0  0  0  0  0  0  0
    1.3341   -0.5670    1.4937 C   0  0  0  0  0  0  0  0  0  0  0  0
    2.4441   -0.1170    0.5640 C   0  0  0  0  0  0  0  0  0  0  0  0
   -0.0117   -0.6052    0.8563 C   0  0  0  0  0  0  0  0  0  0  0  0
   -1.9559    0.4474    0.3383 C   0  0  0  0  0  0  0  0  0  0  0  0
    2.7479    1.2294    0.4813 C   0  0  0  0  0  0  0  0  0  0  0  0
    3.1257   -1.0641   -0.1779 C   0  0  0  0  0  0  0  0  0  0  0  0
   -2.3946   -0.7198   -0.2899 C   0  0  0  0  0  0  0  0  0  0  0  0
    3.7692    1.6435   -0.3737 C   0  0  0  0  0  0  0  0  0  0  0  0
    4.1471   -0.6498   -1.0328 C   0  0  0  0  0  0  0  0  0  0  0  0
   -3.6522   -0.7385   -0.8796 C   0  0  0  0  0  0  0  0  0  0  0  0
   -2.8187    1.5320    0.3330 C   0  0  0  0  0  0  0  0  0  0  0  0
    4.4688    0.7040   -1.1307 C   0  0  0  0  0  0  0  0  0  0  0  0
   -4.4344    0.4026   -0.8269 C   0  0  0  0  0  0  0  0  0  0  0  0
  1  7  2  0
  1  8  1  0
  2  3  2  0
  2  7  1  0
  3 11  1  0
  4 15  2  0
  4 17  1  0
  5  6  1  0
  5  7  1  0
  6  9  2  0
  6 10  1  0
  8 11  2  0
  8 15  1  0
  9 12  1  0
 10 13  2  0
 11 14  1  0
 12 16  2  0
 13 16  1  0
 14 17  2  0
M  END
>  <PUBCHEM_COMPOUND_CID>  (1) 
41370

>  <PUBCHEM_CONFORMER_RMSD>  (1) 
0.6

>  <PUBCHEM_CONFORMER_DIVERSEORDER>  (1) 
1
4
2
3
5
10
8
9
6
7

>  <PUBCHEM_MMFF94_PARTIAL_CHARGES>  (1) 
25
1 -0.62
10 -0.15
11 0.31
12 -0.15
13 -0.15
14 -0.15
15 0.16
16 -0.15
17 0.16
2 -0.31
20 0.15
21 0.15
22 0.15
23 0.15
24 0.15
25 0.15
26 0.15
27 0.15
3 -0.31
4 -0.62
5 0.29
6 -0.14
7 0.48
8 0.31
9 -0.15

>  <PUBCHEM_EFFECTIVE_ROTOR_COUNT>  (1) 
2

>  <PUBCHEM_PHARMACOPHORE_FEATURES>  (1) 
5
1 4 acceptor
3 1 2 7 cation
6 1 2 3 7 8 11 rings
6 4 8 11 14 15 17 rings
6 6 9 10 12 13 16 rings

>  <PUBCHEM_HEAVY_ATOM_COUNT>  (1) 
17

>  <PUBCHEM_ATOM_DEF_STEREO_COUNT>  (1) 
0

>  <PUBCHEM_ATOM_UDEF_STEREO_COUNT>  (1) 
0

>  <PUBCHEM_BOND_DEF_STEREO_COUNT>  (1) 
0

>  <PUBCHEM_BOND_UDEF_STEREO_COUNT>  (1) 
0

>  <PUBCHEM_ISOTOPIC_ATOM_COUNT>  (1) 
0

>  <PUBCHEM_COMPONENT_COUNT>  (1) 
1

>  <PUBCHEM_CACTVS_TAUTO_COUNT>  (1) 
1

>  <PUBCHEM_CONFORMER_ID>  (1) 
0000A19A00000001

>  <PUBCHEM_MMFF94_ENERGY>  (1) 
47.7655

>  <PUBCHEM_FEATURE_SELFOVERLAP>  (1) 
25.409

>  <PUBCHEM_SHAPE_FINGERPRINT>  (1) 
10498660 4 18260258646849197717
11543360 7 18272088331101428620
12173636 292 18410565197975515391
12186901 62 18272932722072781407
12363563 72 15123514700788476360
12670546 177 18272932725850823269
12707595 3 15697998552654752826
12892183 10 10809343347398065236
13675066 3 10807937076453053603
1420 369 11455889174010928941
14252887 29 12535345684517022558
14289901 80 15213295305521921993
14341114 328 7781504915704195486
15342168 16 16732708267608353686
15775835 57 18113336405650569148
15885798 251 11383834883055987643
1813 80 13110967547659989000
18186145 218 18335696130908767576
193927 3 13038908875400861133
19862831 5 18343021086115881416
200 152 15770061618338681766
20361792 2 14549026493846584498
204376 136 16153428350406343619
20645476 183 18407754850434362059
20645477 70 15626216953136105316
20671657 53 15410894059035030826
20871999 31 18273215321993274385
21501925 9 9871742498898100346
21756936 100 12830929676451558022
22079108 93 17167871867764770841
22646028 28 12607406598147945396
22854114 59 14634870833766937811
231179 274 17240480308385214316
23366157 5 17975409114840879275
23402539 116 18413384320320080844
23402655 69 18411143532765677804
23557571 272 18119251902714940218
23559900 14 18060133267598172608
25 1 17894634742851393962
26918003 58 10807934842769359853
2838139 119 17536328269252797468
3082319 5 18343867723138741482
4028521 119 18333730225609075452
42 15 9655580720580192964
4280585 95 17196596407399262854
474 4 17530968029011082684
49207404 50 12829483731912113688
4990 188 18131068216660164862
5161694 15 18060143132747472820
5281201 14 18342464746296483276
58807428 26 8502108412736402005
5924683 9 11675170297546447361
633830 44 17968096382666850859
93112 12 18343585157245592896
9709674 26 18128531746493358358
9882013 296 12396590636542228928
9981440 41 17829042462153583536

>  <PUBCHEM_SHAPE_MULTIPOLES>  (1) 
329.93
9.43
1.69
1.13
0.52
0.09
0.07
2.75
-4.05
-0.16
-0.05
0.45
-0.07
-0.29

>  <PUBCHEM_SHAPE_SELFOVERLAP>  (1) 
729.488

>  <PUBCHEM_SHAPE_VOLUME>  (1) 
174.2

>  <PUBCHEM_COORDINATE_TYPE>  (1) 
2
5
10

$$$$
