41373
     RDKit          3D

 20 21  0  0  1  0  0  0  0  0999 V2000
    0.2625    0.0831   -2.0050 O   0  0  0  0  0  0  0  0  0  0  0  0
    1.4633    1.7175    2.1287 O   0  0  0  0  0  0  0  0  0  0  0  0
    3.0139   -0.6449    0.0630 O   0  0  0  0  0  0  0  0  0  0  0  0
    5.1429   -0.3202   -0.7734 O   0  0  0  0  0  0  0  0  0  0  0  0
   -0.6011    1.4054    1.0908 N   0  0  0  0  0  0  0  0  0  0  0  0
    1.2439    0.8776   -0.0432 N   0  0  0  0  0  0  0  0  0  0  0  0
   -1.1228    0.9504   -0.1879 C   0  0  0  0  0  0  0  0  0  0  0  0
   -1.7106    2.1497   -0.9427 C   0  0  0  0  0  0  0  0  0  0  0  0
    0.1938    0.5702   -0.8830 C   0  0  0  0  0  0  0  0  0  0  0  0
   -2.0366   -0.2543   -0.0122 C   0  0  0  0  0  0  0  0  0  0  0  0
    0.7930    1.3750    1.1633 C   0  0  0  0  0  0  0  0  0  0  0  0
   -2.9219    2.7215   -0.2271 C   0  0  0  0  0  0  0  0  0  0  0  0
    2.6402    0.6658   -0.3681 C   0  0  0  0  0  0  0  0  0  0  0  0
   -1.9530   -1.0316    1.1437 C   0  0  0  0  0  0  0  0  0  0  0  0
   -2.9590   -0.5823   -1.0065 C   0  0  0  0  0  0  0  0  0  0  0  0
   -2.7903   -2.1355    1.3049 C   0  0  0  0  0  0  0  0  0  0  0  0
   -3.7965   -1.6862   -0.8452 C   0  0  0  0  0  0  0  0  0  0  0  0
   -3.7120   -2.4627    0.3106 C   0  0  0  0  0  0  0  0  0  0  0  0
    4.3009   -1.0047   -0.2077 C   0  0  0  0  0  0  0  0  0  0  0  0
    4.5494   -2.3938    0.2970 C   0  0  0  0  0  0  0  0  0  0  0  0
  1  9  2  0
  2 11  2  0
  3 13  1  0
  3 19  1  0
  4 19  2  0
  5  7  1  0
  5 11  1  0
  6  9  1  0
  6 11  1  0
  6 13  1  0
  7  8  1  0
  7  9  1  0
  7 10  1  0
  8 12  1  0
 10 14  2  0
 10 15  1  0
 14 16  1  0
 15 17  2  0
 16 18  2  0
 17 18  1  0
 19 20  1  0
M  END
>  <PUBCHEM_COMPOUND_CID>  (1) 
41373

>  <PUBCHEM_CONFORMER_RMSD>  (1) 
0.8

>  <PUBCHEM_CONFORMER_DIVERSEORDER>  (1) 
1
33
11
25
6
13
14
28
32
24
15
20
27
23
12
22
35
19
29
31
36
34
18
17
21
26
4
10
5
30
16
9
3
7
8
2

>  <PUBCHEM_MMFF94_PARTIAL_CHARGES>  (1) 
24
1 -0.57
10 -0.14
11 0.69
13 0.58
14 -0.15
15 -0.15
16 -0.15
17 -0.15
18 -0.15
19 0.66
2 -0.57
20 0.06
23 0.37
29 0.15
3 -0.43
30 0.15
31 0.15
32 0.15
33 0.15
4 -0.57
5 -0.73
6 -0.42
7 0.5
9 0.57

>  <PUBCHEM_EFFECTIVE_ROTOR_COUNT>  (1) 
5.6

>  <PUBCHEM_PHARMACOPHORE_FEATURES>  (1) 
7
1 1 acceptor
1 12 hydrophobe
1 2 acceptor
1 4 acceptor
1 5 donor
5 5 6 7 9 11 rings
6 10 14 15 16 17 18 rings

>  <PUBCHEM_HEAVY_ATOM_COUNT>  (1) 
20

>  <PUBCHEM_ATOM_DEF_STEREO_COUNT>  (1) 
0

>  <PUBCHEM_ATOM_UDEF_STEREO_COUNT>  (1) 
1

>  <PUBCHEM_BOND_DEF_STEREO_COUNT>  (1) 
0

>  <PUBCHEM_BOND_UDEF_STEREO_COUNT>  (1) 
0

>  <PUBCHEM_ISOTOPIC_ATOM_COUNT>  (1) 
0

>  <PUBCHEM_COMPONENT_COUNT>  (1) 
1

>  <PUBCHEM_CACTVS_TAUTO_COUNT>  (1) 
2

>  <PUBCHEM_CONFORMER_ID>  (1) 
0000A19D00000001

>  <PUBCHEM_MMFF94_ENERGY>  (1) 
40.5575

>  <PUBCHEM_FEATURE_SELFOVERLAP>  (1) 
35.522

>  <PUBCHEM_SHAPE_FINGERPRINT>  (1) 
10465860 71 17023176197362479879
10906281 52 17416697833940915353
12293681 4 17631739257940652017
12549972 3 17988060241210169729
12633257 1 17416987143406913803
12714826 92 18271255962112991196
12824470 246 18335702711294693370
13103583 49 17844550952971964083
13544653 18 18411986875184806958
13631057 29 18408609188692221702
14787075 74 18200314463315185544
15342168 16 7781531338285491015
15375462 189 17988646358533254026
15422964 175 18049435139439291339
16945 1 17242425404837551669
18186145 218 14635169897299442036
19784866 135 18334866021595172619
23403322 49 18335421287420058455
23559900 14 18335129947008840644
27216 239 11095885977660047751
31174 14 17702377553569155553
3286 77 17702949274156706659
474 4 7853315119299059687
4921388 177 17531257131717855386
5104073 3 18341889654955709400
559249 180 18118678812575796058
59755656 520 18266453197409582245
633830 44 15792306882137196388
76465 3 18129936901100684375
81228 2 18262786471954050185

>  <PUBCHEM_SHAPE_MULTIPOLES>  (1) 
378.15
8.22
2.87
1.44
9.62
0.12
-0.26
6.33
1.29
-2.06
-0.49
-0.15
-0.28
0.64

>  <PUBCHEM_SHAPE_SELFOVERLAP>  (1) 
799.019

>  <PUBCHEM_SHAPE_VOLUME>  (1) 
212.9

>  <PUBCHEM_COORDINATE_TYPE>  (1) 
2
5
10

$$$$
