41388
     RDKit          3D

 34 36  0  0  1  0  0  0  0  0999 V2000
   -3.8374   -1.5916    1.9894 S   0  0  0  0  0  0  0  0  0  0  0  0
   -0.5066    0.2682    1.3303 O   0  0  0  0  0  0  0  0  0  0  0  0
    3.7798   -2.6062   -1.4928 O   0  0  0  0  0  0  0  0  0  0  0  0
    4.1606    0.3734    2.4168 O   0  0  0  0  0  0  0  0  0  0  0  0
   -1.4056   -1.4971    0.1535 O   0  0  0  0  0  0  0  0  0  0  0  0
   -6.2126    0.3922   -0.6283 N   0  0  0  0  0  0  0  0  0  0  0  0
    3.4453    1.1179   -0.9958 C   0  0  0  0  0  0  0  0  0  0  0  0
    3.0931    1.4241    0.4834 C   0  0  0  0  0  0  0  0  0  0  0  0
    1.5914    1.4707    0.8744 C   0  0  0  0  0  0  0  0  0  0  0  0
    2.9617   -0.2703   -1.6176 C   0  0  0  0  0  0  0  0  0  0  0  0
    0.9966    2.6530   -0.0219 C   0  0  0  0  0  0  0  0  0  0  0  0
    2.8445    2.3106   -1.7942 C   0  0  0  0  0  0  0  0  0  0  0  0
    4.9998    1.2189   -0.9436 C   0  0  0  0  0  0  0  0  0  0  0  0
    0.7619    0.1611    0.6537 C   0  0  0  0  0  0  0  0  0  0  0  0
    1.3464    2.5080   -1.5263 C   0  0  0  0  0  0  0  0  0  0  0  0
    4.2042    0.7308    1.2486 C   0  0  0  0  0  0  0  0  0  0  0  0
    3.1628   -1.5527   -0.7334 C   0  0  0  0  0  0  0  0  0  0  0  0
    5.4486    0.6181    0.3933 C   0  0  0  0  0  0  0  0  0  0  0  0
    1.9021   -2.1205    0.0018 C   0  0  0  0  0  0  0  0  0  0  0  0
    1.3901   -1.1642    1.1175 C   0  0  0  0  0  0  0  0  0  0  0  0
    1.5029    1.9077    2.3639 C   0  0  0  0  0  0  0  0  0  0  0  0
    3.5299   -0.4865   -3.0437 C   0  0  0  0  0  0  0  0  0  0  0  0
   -0.5122    2.9040    0.1041 C   0  0  0  0  0  0  0  0  0  0  0  0
    2.2843   -3.4532    0.6981 C   0  0  0  0  0  0  0  0  0  0  0  0
    0.7774   -2.4522   -0.9541 C   0  0  0  0  0  0  0  0  0  0  0  0
   -1.3529   -0.7858    1.1471 C   0  0  0  0  0  0  0  0  0  0  0  0
   -0.0517   -3.4905   -0.8027 C   0  0  0  0  0  0  0  0  0  0  0  0
   -2.2078   -0.9132    2.3828 C   0  0  0  0  0  0  0  0  0  0  0  0
   -4.3927   -0.3098    0.8409 C   0  0  0  0  0  0  0  0  0  0  0  0
   -5.7752   -0.6484    0.2973 C   0  0  0  0  0  0  0  0  0  0  0  0
   -6.2439    1.6938    0.0398 C   0  0  0  0  0  0  0  0  0  0  0  0
   -7.5300    0.0704   -1.1780 C   0  0  0  0  0  0  0  0  0  0  0  0
   -6.6357    2.7981   -0.9274 C   0  0  0  0  0  0  0  0  0  0  0  0
   -7.5189   -1.2786   -1.8766 C   0  0  0  0  0  0  0  0  0  0  0  0
  1 28  1  0
  1 29  1  0
  2 14  1  0
  2 26  1  0
  3 17  1  0
  4 16  2  0
  5 26  2  0
  6 30  1  0
  6 31  1  0
  6 32  1  0
  7  8  1  0
  7 10  1  0
  7 12  1  0
  7 13  1  0
  8  9  1  0
  8 16  1  0
  9 11  1  0
  9 14  1  0
  9 21  1  0
 10 17  1  0
 10 22  1  0
 11 15  1  0
 11 23  1  0
 12 15  1  0
 13 18  1  0
 14 20  1  0
 16 18  1  0
 17 19  1  0
 19 20  1  0
 19 24  1  0
 19 25  1  0
 25 27  2  0
 26 28  1  0
 29 30  1  0
 31 33  1  0
 32 34  1  0
M  END
>  <PUBCHEM_COMPOUND_CID>  (1) 
41388

>  <PUBCHEM_CONFORMER_RMSD>  (1) 
1.2

>  <PUBCHEM_CONFORMER_DIVERSEORDER>  (1) 
1
46
73
15
31
45
14
76
66
50
13
23
26
11
37
58
38
75
20
56
52
40
63
22
30
24
60
47
6
7
71
61
19
55
29
12
39
5
74
33
62
59
42
27
67
69
9
18
36
35
68
48
21
25
10
65
17
57
43
34
32
41
72
4
16
28
64
8
54
49
70
3
44
53
51
2

>  <PUBCHEM_MMFF94_PARTIAL_CHARGES>  (1) 
24
1 -0.46
14 0.28
16 0.45
17 0.28
18 0.06
19 0.14
2 -0.43
25 -0.29
26 0.66
27 -0.3
28 0.29
29 0.23
3 -0.68
30 0.27
31 0.27
32 0.27
4 -0.57
5 -0.57
6 -0.81
62 0.15
63 0.4
64 0.15
65 0.15
8 0.06

>  <PUBCHEM_EFFECTIVE_ROTOR_COUNT>  (1) 
12

>  <PUBCHEM_PHARMACOPHORE_FEATURES>  (1) 
8
1 27 hydrophobe
1 3 acceptor
1 3 donor
1 4 acceptor
1 5 acceptor
1 6 cation
5 7 8 13 16 18 rings
6 7 8 9 11 12 15 rings

>  <PUBCHEM_HEAVY_ATOM_COUNT>  (1) 
34

>  <PUBCHEM_ATOM_DEF_STEREO_COUNT>  (1) 
6

>  <PUBCHEM_ATOM_UDEF_STEREO_COUNT>  (1) 
2

>  <PUBCHEM_BOND_DEF_STEREO_COUNT>  (1) 
0

>  <PUBCHEM_BOND_UDEF_STEREO_COUNT>  (1) 
0

>  <PUBCHEM_ISOTOPIC_ATOM_COUNT>  (1) 
0

>  <PUBCHEM_COMPONENT_COUNT>  (1) 
1

>  <PUBCHEM_CACTVS_TAUTO_COUNT>  (1) 
2

>  <PUBCHEM_CONFORMER_ID>  (1) 
0000A1AC00000001

>  <PUBCHEM_MMFF94_ENERGY>  (1) 
155.2349

>  <PUBCHEM_FEATURE_SELFOVERLAP>  (1) 
40.654

>  <PUBCHEM_SHAPE_FINGERPRINT>  (1) 
10675989 125 18338808900030867040
12778500 126 15936400143829953909
13636023 20 18272925008432928299
13782708 43 13470140544213090437
14068700 675 17912650099133859970
15183329 4 18259985985810107377
15238133 3 17676209082449283632
1601671 61 18335991946913220184
17909252 39 18128534856260696729
20691752 17 18046946794702582506
20715895 44 18187087264674940584
22121540 332 18339349808233217804
22393880 68 18131069394119884119
23559900 14 18040726826642791947
4066623 53 17823129034698978981
46194498 28 17826255139915357257
508706 21 18113622270854288397
513532 50 17846495932931929444
6086070 43 18115586096978164761
70251023 43 17985556550371110630

>  <PUBCHEM_SHAPE_MULTIPOLES>  (1) 
675.1
15.22
3.7
2.35
36.64
0.75
-0.04
-3.93
-6.2
-0.66
-0.78
-0.82
0.17
1.01

>  <PUBCHEM_SHAPE_SELFOVERLAP>  (1) 
1366.813

>  <PUBCHEM_SHAPE_VOLUME>  (1) 
396.5

>  <PUBCHEM_COORDINATE_TYPE>  (1) 
2
5
10

$$$$
