41392
     RDKit          3D

 25 28  0  0  1  0  0  0  0  0999 V2000
    0.5828   -0.9953    1.8370 S   0  0  0  0  0  0  0  0  0  0  0  0
   -4.8283    1.1450   -1.6410 O   0  0  0  0  0  0  0  0  0  0  0  0
    1.1940    1.2749   -0.2693 N   0  0  0  0  0  0  0  0  0  0  0  0
    2.7642    3.6797    0.0622 N   0  0  0  0  0  0  0  0  0  0  0  0
    0.2231    0.4415   -0.9757 C   0  0  0  0  0  0  0  0  0  0  0  0
    2.3631    1.5447   -1.1152 C   0  0  0  0  0  0  0  0  0  0  0  0
    0.5786    2.5329    0.1713 C   0  0  0  0  0  0  0  0  0  0  0  0
    3.3804    2.4220   -0.3776 C   0  0  0  0  0  0  0  0  0  0  0  0
    1.5965    3.4090    0.9095 C   0  0  0  0  0  0  0  0  0  0  0  0
    0.8586   -0.8248   -1.5729 C   0  0  0  0  0  0  0  0  0  0  0  0
   -1.0152    0.1188   -0.1651 C   0  0  0  0  0  0  0  0  0  0  0  0
    1.3826   -1.9726   -0.7298 C   0  0  0  0  0  0  0  0  0  0  0  0
   -0.9592   -0.5512    1.0683 C   0  0  0  0  0  0  0  0  0  0  0  0
    3.7348    4.5146    0.7671 C   0  0  0  0  0  0  0  0  0  0  0  0
   -2.2743    0.4715   -0.6846 C   0  0  0  0  0  0  0  0  0  0  0  0
    1.2952   -2.1387    0.6645 C   0  0  0  0  0  0  0  0  0  0  0  0
    2.0106   -2.9973   -1.4797 C   0  0  0  0  0  0  0  0  0  0  0  0
   -3.4481    0.1747    0.0075 C   0  0  0  0  0  0  0  0  0  0  0  0
   -2.1449   -0.8399    1.7612 C   0  0  0  0  0  0  0  0  0  0  0  0
   -3.3832   -0.4814    1.2308 C   0  0  0  0  0  0  0  0  0  0  0  0
    1.8468   -3.2963    1.2559 C   0  0  0  0  0  0  0  0  0  0  0  0
    2.5435   -4.1373   -0.8812 C   0  0  0  0  0  0  0  0  0  0  0  0
    2.4621   -4.2863    0.4924 C   0  0  0  0  0  0  0  0  0  0  0  0
   -4.7389    0.5548   -0.5458 C   0  0  0  0  0  0  0  0  0  0  0  0
   -6.0247    0.2371    0.2101 C   0  0  0  0  0  0  0  0  0  0  0  0
  1 13  1  0
  1 16  1  0
  2 24  2  0
  3  5  1  0
  3  6  1  0
  3  7  1  0
  4  8  1  0
  4  9  1  0
  4 14  1  0
  5 10  1  0
  5 11  1  0
  6  8  1  0
  7  9  1  0
 10 12  1  0
 11 13  2  0
 11 15  1  0
 12 16  2  0
 12 17  1  0
 13 19  1  0
 15 18  2  0
 16 21  1  0
 17 22  2  0
 18 20  1  0
 18 24  1  0
 19 20  2  0
 21 23  2  0
 22 23  1  0
 24 25  1  0
M  END
>  <PUBCHEM_COMPOUND_CID>  (1) 
41392

>  <PUBCHEM_CONFORMER_RMSD>  (1) 
0.8

>  <PUBCHEM_CONFORMER_DIVERSEORDER>  (1) 
1
2
4
3
6
5

>  <PUBCHEM_MMFF94_PARTIAL_CHARGES>  (1) 
32
1 -0.2
10 0.14
11 -0.14
12 -0.14
13 0.1
14 0.27
15 -0.15
16 0.1
17 -0.15
18 0.09
19 -0.15
2 -0.57
20 -0.15
21 -0.15
22 -0.15
23 -0.15
24 0.42
25 0.06
3 -0.81
4 -0.81
40 0.15
41 0.15
42 0.15
43 0.15
44 0.15
45 0.15
46 0.15
5 0.41
6 0.27
7 0.27
8 0.27
9 0.27

>  <PUBCHEM_EFFECTIVE_ROTOR_COUNT>  (1) 
3.8

>  <PUBCHEM_PHARMACOPHORE_FEATURES>  (1) 
7
1 2 acceptor
1 3 cation
1 4 cation
6 11 13 15 18 19 20 rings
6 12 16 17 21 22 23 rings
6 3 4 6 7 8 9 rings
7 1 5 10 11 12 13 16 rings

>  <PUBCHEM_HEAVY_ATOM_COUNT>  (1) 
25

>  <PUBCHEM_ATOM_DEF_STEREO_COUNT>  (1) 
0

>  <PUBCHEM_ATOM_UDEF_STEREO_COUNT>  (1) 
1

>  <PUBCHEM_BOND_DEF_STEREO_COUNT>  (1) 
0

>  <PUBCHEM_BOND_UDEF_STEREO_COUNT>  (1) 
0

>  <PUBCHEM_ISOTOPIC_ATOM_COUNT>  (1) 
0

>  <PUBCHEM_COMPONENT_COUNT>  (1) 
1

>  <PUBCHEM_CACTVS_TAUTO_COUNT>  (1) 
2

>  <PUBCHEM_CONFORMER_ID>  (1) 
0000A1B000000001

>  <PUBCHEM_MMFF94_ENERGY>  (1) 
82.5037

>  <PUBCHEM_FEATURE_SELFOVERLAP>  (1) 
35.536

>  <PUBCHEM_SHAPE_FINGERPRINT>  (1) 
10764073 3 17388223841830460160
11115154 58 17977104561849563389
12160290 23 17189565467892211694
12363563 72 18050854312503633127
12549972 3 17895774897929012553
12553582 1 17904502713402857099
12730499 353 18337965592445547705
12788726 201 17328322246295745918
13004483 165 17834384627611114263
13134695 92 18266462001342971935
13140716 1 18338516473008110624
133893 2 18272103664166337409
13540713 4 17894917326414957227
13590594 115 17906460922422043417
13681431 1 18268712714424299562
13757389 114 16467296812841693214
13911987 19 18119561810982130982
13955234 65 18411142428790206387
15230672 131 18118694460176027212
15664445 248 18054235332065082271
15927050 60 18123468547762576102
17980427 26 18341321292674036956
1813 80 17984984787076011487
18915476 22 18338811095096031515
20369508 70 18189618246348842119
20567600 347 18118400880868061299
20600515 1 17104778377184893812
20832881 197 17899984829188279659
21033648 29 18052819440098260000
21120745 212 17691419512150474230
21304303 282 17407362177309352852
21731228 192 18049732011583757256
22182313 1 17676785244518842147
23557571 272 17831570982067282506
23558518 356 17691682707424555020
23559900 14 18337103450596238083
249057 25 11885184780101957880
283562 15 17693651924350338775
3298306 158 18335710485211574132
35225 105 17620185872875020770
376196 1 18115859866483301473
394222 165 18131070467355013879
404807 78 16673267797835439527
4058900 60 18266760132171811696
495365 180 18338514243640853552
5265222 85 17826252941108795732
5385378 56 18410862079163914889
57527295 17 18192451700650569565
5895379 119 17485658052832604945
6004065 56 18264477408762374459
633830 44 17558021529581727953
6786 2 18122906688044974210
7364860 26 18408887313013835523
7399639 24 18119261794641678211
7471813 234 18196370316910376447
77188 2 18123185697736733214
81228 2 17400643718855714154
9981440 41 18192988438434843137

>  <PUBCHEM_SHAPE_MULTIPOLES>  (1) 
502.51
7.82
5.8
1.62
14.27
0.9
-0.15
2.8
1.11
-11.67
-0.79
0.11
-0.63
1.23

>  <PUBCHEM_SHAPE_SELFOVERLAP>  (1) 
1069.575

>  <PUBCHEM_SHAPE_VOLUME>  (1) 
280

>  <PUBCHEM_COORDINATE_TYPE>  (1) 
2
5
10

$$$$
