41398
     RDKit          3D

 27 30  0  0  1  0  0  0  0  0999 V2000
   -1.5271    0.8535    1.8235 S   0  0  0  0  0  0  0  0  0  0  0  0
    4.8460    0.0560    0.0299 O   0  0  0  0  0  0  0  0  0  0  0  0
    6.7109    0.8080   -1.1076 O   0  0  0  0  0  0  0  0  0  0  0  0
   -1.2962   -1.4822   -0.2864 N   0  0  0  0  0  0  0  0  0  0  0  0
   -1.9862   -4.2733    0.0179 N   0  0  0  0  0  0  0  0  0  0  0  0
   -0.6397   -0.3711   -0.9725 C   0  0  0  0  0  0  0  0  0  0  0  0
   -2.2875   -2.1220   -1.1600 C   0  0  0  0  0  0  0  0  0  0  0  0
   -0.3092   -2.4659    0.1757 C   0  0  0  0  0  0  0  0  0  0  0  0
   -2.9739   -3.2900   -0.4436 C   0  0  0  0  0  0  0  0  0  0  0  0
   -0.9966   -3.6330    0.8927 C   0  0  0  0  0  0  0  0  0  0  0  0
   -1.6446    0.6143   -1.5916 C   0  0  0  0  0  0  0  0  0  0  0  0
    0.4001    0.3418   -0.1328 C   0  0  0  0  0  0  0  0  0  0  0  0
   -2.5410    1.5199   -0.7673 C   0  0  0  0  0  0  0  0  0  0  0  0
    0.0937    0.9502    1.0957 C   0  0  0  0  0  0  0  0  0  0  0  0
    1.7175    0.4299   -0.6192 C   0  0  0  0  0  0  0  0  0  0  0  0
   -2.6419   -5.3856    0.7025 C   0  0  0  0  0  0  0  0  0  0  0  0
   -2.5491    1.7000    0.6280 C   0  0  0  0  0  0  0  0  0  0  0  0
    2.7080    1.0976    0.1005 C   0  0  0  0  0  0  0  0  0  0  0  0
    1.0982    1.6142    1.8166 C   0  0  0  0  0  0  0  0  0  0  0  0
   -3.4544    2.2810   -1.5375 C   0  0  0  0  0  0  0  0  0  0  0  0
    2.3980    1.6899    1.3188 C   0  0  0  0  0  0  0  0  0  0  0  0
   -3.4687    2.6062    1.1999 C   0  0  0  0  0  0  0  0  0  0  0  0
    4.0990    1.1741   -0.4340 C   0  0  0  0  0  0  0  0  0  0  0  0
   -4.3507    3.1768   -0.9579 C   0  0  0  0  0  0  0  0  0  0  0  0
   -4.3583    3.3388    0.4166 C   0  0  0  0  0  0  0  0  0  0  0  0
    6.1472   -0.0032   -0.3855 C   0  0  0  0  0  0  0  0  0  0  0  0
    6.8062   -1.2258    0.1775 C   0  0  0  0  0  0  0  0  0  0  0  0
  1 14  1  0
  1 17  1  0
  2 23  1  0
  2 26  1  0
  3 26  2  0
  4  6  1  0
  4  7  1  0
  4  8  1  0
  5  9  1  0
  5 10  1  0
  5 16  1  0
  6 11  1  0
  6 12  1  0
  7  9  1  0
  8 10  1  0
 11 13  1  0
 12 14  2  0
 12 15  1  0
 13 17  2  0
 13 20  1  0
 14 19  1  0
 15 18  2  0
 17 22  1  0
 18 21  1  0
 18 23  1  0
 19 21  2  0
 20 24  2  0
 22 25  2  0
 24 25  1  0
 26 27  1  0
M  END
>  <PUBCHEM_COMPOUND_CID>  (1) 
41398

>  <PUBCHEM_CONFORMER_RMSD>  (1) 
0.8

>  <PUBCHEM_CONFORMER_DIVERSEORDER>  (1) 
1
23
15
24
20
12
13
10
7
19
29
18
26
21
6
2
17
4
25
16
9
31
28
11
3
27
14
22
8
30
5

>  <PUBCHEM_MMFF94_PARTIAL_CHARGES>  (1) 
34
1 -0.2
10 0.27
11 0.14
12 -0.14
13 -0.14
14 0.1
15 -0.15
16 0.27
17 0.1
18 -0.14
19 -0.15
2 -0.43
20 -0.15
21 -0.15
22 -0.15
23 0.42
24 -0.15
25 -0.15
26 0.66
27 0.06
3 -0.57
39 0.15
4 -0.81
43 0.15
44 0.15
45 0.15
46 0.15
49 0.15
5 -0.81
50 0.15
6 0.41
7 0.27
8 0.27
9 0.27

>  <PUBCHEM_EFFECTIVE_ROTOR_COUNT>  (1) 
5.8

>  <PUBCHEM_PHARMACOPHORE_FEATURES>  (1) 
7
1 3 acceptor
1 4 cation
1 5 cation
6 12 14 15 18 19 21 rings
6 13 17 20 22 24 25 rings
6 4 5 7 8 9 10 rings
7 1 6 11 12 13 14 17 rings

>  <PUBCHEM_HEAVY_ATOM_COUNT>  (1) 
27

>  <PUBCHEM_ATOM_DEF_STEREO_COUNT>  (1) 
0

>  <PUBCHEM_ATOM_UDEF_STEREO_COUNT>  (1) 
1

>  <PUBCHEM_BOND_DEF_STEREO_COUNT>  (1) 
0

>  <PUBCHEM_BOND_UDEF_STEREO_COUNT>  (1) 
0

>  <PUBCHEM_ISOTOPIC_ATOM_COUNT>  (1) 
0

>  <PUBCHEM_COMPONENT_COUNT>  (1) 
1

>  <PUBCHEM_CACTVS_TAUTO_COUNT>  (1) 
1

>  <PUBCHEM_CONFORMER_ID>  (1) 
0000A1B600000001

>  <PUBCHEM_MMFF94_ENERGY>  (1) 
79.9857

>  <PUBCHEM_FEATURE_SELFOVERLAP>  (1) 
35.536

>  <PUBCHEM_SHAPE_FINGERPRINT>  (1) 
10119406 146 17843984550344469166
10165383 225 18339080368097755453
105312 117 18410862014465034076
10764073 3 17772779245105520579
107951 10 18341892948652338855
10906281 52 17631463284779824844
1100329 8 18052251804419583131
11315181 36 17132111330551479888
11796584 16 18411700959971398758
11991303 11 18334301954570465383
12160290 23 18051094220860017661
12293681 160 17702096971961830977
12549972 3 17917131914612726872
12788726 201 17973993239662328083
12954195 1 18342730836779467671
13540713 4 17916576691564407920
13681431 1 17256517523121570073
13690498 29 18126580139746190278
14251740 79 18412257367713818543
14713325 29 18339645636831791558
14790565 3 18051695434709142872
14866123 147 18411703200926741971
15042514 8 18192998334229448491
15230672 131 18262520261602534238
15927050 60 18340486651806427495
21120745 212 17831041360885823109
21703447 108 18053375793746006816
22182313 1 17059239015149699124
23419403 2 13751116403254644105
23559900 14 18194670699772680260
3383291 50 17418083313312815478
350125 39 18410572868992873059
3729539 64 17833848070648348574
3759504 43 18411703157902864897
38695281 34 18191587441229155128
4015057 19 16845278450368236352
4058900 60 18052543175301572281
4073 2 18412539938909184808
44062 13 18411139152051925910
4409770 3 18410012169818755131
497634 4 18188208835782276868
513202 73 18189067532567447683
559249 180 18341610383244648822
59755656 520 18411697652076551701
6009941 240 18343577431353963912
6669772 16 18198348346845126087
70251023 43 17902797701490318704
7226269 152 17916864617523994128
7399639 24 17551502680244965112
77188 2 17690002658147497879
81228 2 18194956581565262585
9981440 41 17346320341162094542

>  <PUBCHEM_SHAPE_MULTIPOLES>  (1) 
537.8
11.1
5.58
1.53
25.69
9.45
-0.23
-5.45
2.74
-9.67
-1.06
-0.72
-0.7
0.33

>  <PUBCHEM_SHAPE_SELFOVERLAP>  (1) 
1136.126

>  <PUBCHEM_SHAPE_VOLUME>  (1) 
301.5

>  <PUBCHEM_COORDINATE_TYPE>  (1) 
2
5
10

$$$$
