41396
     RDKit          3D

 25 28  0  0  1  0  0  0  0  0999 V2000
    0.5769   -0.9955    1.8376 S   0  0  0  0  0  0  0  0  0  0  0  0
   -4.8343    1.1377   -1.6400 O   0  0  0  0  0  0  0  0  0  0  0  0
    1.1906    1.2730   -0.2698 N   0  0  0  0  0  0  0  0  0  0  0  0
    2.7664    3.6744    0.0594 N   0  0  0  0  0  0  0  0  0  0  0  0
   -5.8831    0.2520    0.1969 N   0  0  0  0  0  0  0  0  0  0  0  0
    0.2171    0.4415   -0.9749 C   0  0  0  0  0  0  0  0  0  0  0  0
    2.3593    1.5401   -1.1171 C   0  0  0  0  0  0  0  0  0  0  0  0
    0.5784    2.5323    0.1712 C   0  0  0  0  0  0  0  0  0  0  0  0
    3.3793    2.4153   -0.3809 C   0  0  0  0  0  0  0  0  0  0  0  0
    1.5991    3.4064    0.9082 C   0  0  0  0  0  0  0  0  0  0  0  0
    0.8491   -0.8262   -1.5727 C   0  0  0  0  0  0  0  0  0  0  0  0
   -1.0209    0.1216   -0.1629 C   0  0  0  0  0  0  0  0  0  0  0  0
    1.3716   -1.9751   -0.7300 C   0  0  0  0  0  0  0  0  0  0  0  0
   -0.9650   -0.5483    1.0706 C   0  0  0  0  0  0  0  0  0  0  0  0
    3.7396    4.5073    0.7631 C   0  0  0  0  0  0  0  0  0  0  0  0
   -2.2799    0.4770   -0.6810 C   0  0  0  0  0  0  0  0  0  0  0  0
    1.2855   -2.1407    0.6645 C   0  0  0  0  0  0  0  0  0  0  0  0
    1.9966   -3.0013   -1.4804 C   0  0  0  0  0  0  0  0  0  0  0  0
   -2.1506   -0.8343    1.7649 C   0  0  0  0  0  0  0  0  0  0  0  0
   -3.4535    0.1828    0.0125 C   0  0  0  0  0  0  0  0  0  0  0  0
   -3.3886   -0.4731    1.2358 C   0  0  0  0  0  0  0  0  0  0  0  0
    1.8352   -3.2994    1.2554 C   0  0  0  0  0  0  0  0  0  0  0  0
    2.5277   -4.1423   -0.8824 C   0  0  0  0  0  0  0  0  0  0  0  0
    2.4476   -4.2909    0.4914 C   0  0  0  0  0  0  0  0  0  0  0  0
   -4.7442    0.5656   -0.5394 C   0  0  0  0  0  0  0  0  0  0  0  0
  1 14  1  0
  1 17  1  0
  2 25  2  0
  3  6  1  0
  3  7  1  0
  3  8  1  0
  4  9  1  0
  4 10  1  0
  4 15  1  0
  5 25  1  0
  6 11  1  0
  6 12  1  0
  7  9  1  0
  8 10  1  0
 11 13  1  0
 12 14  2  0
 12 16  1  0
 13 17  2  0
 13 18  1  0
 14 19  1  0
 16 20  2  0
 17 22  1  0
 18 23  2  0
 19 21  2  0
 20 21  1  0
 20 25  1  0
 22 24  2  0
 23 24  1  0
M  END
>  <PUBCHEM_COMPOUND_CID>  (1) 
41396

>  <PUBCHEM_CONFORMER_RMSD>  (1) 
0.8

>  <PUBCHEM_CONFORMER_DIVERSEORDER>  (1) 
1
2
6
3
4
5

>  <PUBCHEM_MMFF94_PARTIAL_CHARGES>  (1) 
34
1 -0.2
10 0.27
11 0.14
12 -0.14
13 -0.14
14 0.1
15 0.27
16 -0.15
17 0.1
18 -0.15
19 -0.15
2 -0.57
20 0.09
21 -0.15
22 -0.15
23 -0.15
24 -0.15
25 0.54
3 -0.81
4 -0.81
40 0.15
41 0.15
42 0.15
43 0.15
44 0.15
45 0.15
46 0.15
47 0.37
48 0.37
5 -0.8
6 0.41
7 0.27
8 0.27
9 0.27

>  <PUBCHEM_EFFECTIVE_ROTOR_COUNT>  (1) 
3.8

>  <PUBCHEM_PHARMACOPHORE_FEATURES>  (1) 
8
1 2 acceptor
1 3 cation
1 4 cation
1 5 donor
6 12 14 16 19 20 21 rings
6 13 17 18 22 23 24 rings
6 3 4 7 8 9 10 rings
7 1 6 11 12 13 14 17 rings

>  <PUBCHEM_HEAVY_ATOM_COUNT>  (1) 
25

>  <PUBCHEM_ATOM_DEF_STEREO_COUNT>  (1) 
0

>  <PUBCHEM_ATOM_UDEF_STEREO_COUNT>  (1) 
1

>  <PUBCHEM_BOND_DEF_STEREO_COUNT>  (1) 
0

>  <PUBCHEM_BOND_UDEF_STEREO_COUNT>  (1) 
0

>  <PUBCHEM_ISOTOPIC_ATOM_COUNT>  (1) 
0

>  <PUBCHEM_COMPONENT_COUNT>  (1) 
1

>  <PUBCHEM_CACTVS_TAUTO_COUNT>  (1) 
2

>  <PUBCHEM_CONFORMER_ID>  (1) 
0000A1B400000001

>  <PUBCHEM_MMFF94_ENERGY>  (1) 
85.0987

>  <PUBCHEM_FEATURE_SELFOVERLAP>  (1) 
40.61

>  <PUBCHEM_SHAPE_FINGERPRINT>  (1) 
10764073 3 13629370697393300221
11115154 58 17977102358541890109
12160290 23 17189565467897486454
12293681 160 17753634363764405842
12363563 72 18050854312503633135
12549972 3 17895774897929019041
12553582 1 17904502709107889803
12730499 353 18337965592450828945
12788726 201 17328322246301014174
13004483 165 17834384627579446295
13134695 92 18266462001337697183
13140716 1 18338233894256407988
133893 2 18272102560359729345
13540713 4 17894917322119976931
13590594 115 17906460918127089105
13681431 1 18268712714424299562
13757389 114 16467296812841660758
13911987 19 18119281431211544294
13955234 65 18411143528301840667
14856354 85 16372400618528287056
15230672 131 18118694460181301964
15664445 248 18054235332043989775
15927050 60 18123187072796408446
17980427 26 18341321292668781684
1813 80 17984984787076005039
18915476 22 18338529615813797555
20369508 70 18189336771377399727
20567600 347 18118401980384976811
20600515 1 17104778377190175060
20832881 197 17899984829177736659
21033648 29 18053100915059159400
21120745 212 17691419512161023742
21304303 282 17407080702327380436
21731228 192 18049732011583750760
22182313 1 17676784145007207851
23557571 272 17831570982067282506
23558518 356 17691682703150673732
23559900 14 18336821975582610659
249057 25 11885184780101957888
3298306 158 18335710480932411604
35225 105 17620468447363359202
376196 1 18115857667502269881
394222 165 18131070467344464375
404807 78 16673268897357616807
4058900 60 18266760127924317172
495365 180 18338514243646134800
5265222 85 17898310530867554644
57527295 17 18192732076120927213
5895379 119 17485658052827343177
6004065 56 18264476309282369155
633830 44 17557740054615573297
6786 2 18194964282088163906
7364860 26 18408887313003286011
7399639 24 18119260690840312379
7471813 234 18196370312610127919
77188 2 18123185697736733230
81228 2 17400644818356792418
9981440 41 18192988438413763625

>  <PUBCHEM_SHAPE_MULTIPOLES>  (1) 
497.53
7.46
5.85
1.62
12.92
0.7
-0.16
3.02
1.14
-11.44
-0.77
0.16
-0.64
1.24

>  <PUBCHEM_SHAPE_SELFOVERLAP>  (1) 
1063.214

>  <PUBCHEM_SHAPE_VOLUME>  (1) 
275.8

>  <PUBCHEM_COORDINATE_TYPE>  (1) 
2
5
10

$$$$
