41403
     RDKit          3D

 20 21  0  0  0  0  0  0  0  0999 V2000
    5.1419   -2.9409   -0.3613 Cl  0  0  0  0  0  0  0  0  0  0  0  0
    1.7924    2.2368    0.8926 S   0  0  0  0  0  0  0  0  0  0  0  0
   -0.9379    0.7848    0.5692 N   0  0  0  0  0  0  0  0  0  0  0  0
    0.7476    2.2226   -0.4182 N   0  0  0  0  0  0  0  0  0  0  0  0
   -2.3716   -0.9659   -0.3172 C   0  0  0  0  0  0  0  0  0  0  0  0
   -2.2131    0.2511    0.3455 C   0  0  0  0  0  0  0  0  0  0  0  0
   -4.7690   -0.7825   -0.0809 C   0  0  0  0  0  0  0  0  0  0  0  0
   -3.6494   -1.4827   -0.5305 C   0  0  0  0  0  0  0  0  0  0  0  0
   -3.3325    0.9513    0.7951 C   0  0  0  0  0  0  0  0  0  0  0  0
   -4.6105    0.4344    0.5819 C   0  0  0  0  0  0  0  0  0  0  0  0
   -1.1878   -1.7338   -0.8079 C   0  0  0  0  0  0  0  0  0  0  0  0
   -6.1356   -1.3344   -0.3090 C   0  0  0  0  0  0  0  0  0  0  0  0
   -0.4710    1.5666   -0.3568 C   0  0  0  0  0  0  0  0  0  0  0  0
    2.7436    0.7664    0.5362 C   0  0  0  0  0  0  0  0  0  0  0  0
    3.8988    0.8587   -0.2359 C   0  0  0  0  0  0  0  0  0  0  0  0
    2.3259   -0.4659    1.0324 C   0  0  0  0  0  0  0  0  0  0  0  0
    1.0925    3.0613   -1.5580 C   0  0  0  0  0  0  0  0  0  0  0  0
    4.6413   -0.2891   -0.5137 C   0  0  0  0  0  0  0  0  0  0  0  0
    3.0684   -1.6135    0.7547 C   0  0  0  0  0  0  0  0  0  0  0  0
    4.2260   -1.5252   -0.0184 C   0  0  0  0  0  0  0  0  0  0  0  0
  1 20  1  0
  2  4  1  0
  2 14  1  0
  3  6  1  0
  3 13  2  0
  4 13  1  0
  4 17  1  0
  5  6  2  0
  5  8  1  0
  5 11  1  0
  6  9  1  0
  7  8  2  0
  7 10  1  0
  7 12  1  0
  9 10  2  0
 14 15  2  0
 14 16  1  0
 15 18  1  0
 16 19  2  0
 18 20  2  0
 19 20  1  0
M  END
>  <PUBCHEM_COMPOUND_CID>  (1) 
41403

>  <PUBCHEM_CONFORMER_RMSD>  (1) 
0.6

>  <PUBCHEM_CONFORMER_DIVERSEORDER>  (1) 
1
92
90
97
72
106
116
26
58
82
27
86
105
55
52
96
94
28
122
95
51
36
65
123
89
74
60
109
101
30
69
73
14
121
102
75
42
20
77
78
54
115
110
41
63
39
125
11
80
107
45
29
98
12
16
5
112
114
79
19
23
43
6
99
64
49
50
100
46
66
15
71
85
57
93
48
87
59
70
21
18
81
9
124
62
88
32
61
111
84
119
126
44
10
7
8
113
24
103
38
53
40
117
3
67
108
56
91
83
4
47
33
22
118
2
120
31
25
37
104
13
68
76
34
35
17

>  <PUBCHEM_MMFF94_PARTIAL_CHARGES>  (1) 
28
1 -0.18
10 -0.15
11 0.14
12 0.14
13 0.44
14 0.1
15 -0.15
16 -0.15
17 0.37
18 -0.15
19 -0.15
2 -0.07
20 0.18
21 0.15
22 0.15
23 0.15
3 -0.63
30 0.06
31 0.15
32 0.15
36 0.15
37 0.15
4 -0.45
5 -0.14
6 0.18
7 -0.14
8 -0.15
9 -0.15

>  <PUBCHEM_EFFECTIVE_ROTOR_COUNT>  (1) 
4

>  <PUBCHEM_PHARMACOPHORE_FEATURES>  (1) 
3
3 3 4 13 cation
6 14 15 16 18 19 20 rings
6 5 6 7 8 9 10 rings

>  <PUBCHEM_HEAVY_ATOM_COUNT>  (1) 
20

>  <PUBCHEM_ATOM_DEF_STEREO_COUNT>  (1) 
0

>  <PUBCHEM_ATOM_UDEF_STEREO_COUNT>  (1) 
0

>  <PUBCHEM_BOND_DEF_STEREO_COUNT>  (1) 
0

>  <PUBCHEM_BOND_UDEF_STEREO_COUNT>  (1) 
0

>  <PUBCHEM_ISOTOPIC_ATOM_COUNT>  (1) 
0

>  <PUBCHEM_COMPONENT_COUNT>  (1) 
1

>  <PUBCHEM_CACTVS_TAUTO_COUNT>  (1) 
1

>  <PUBCHEM_CONFORMER_ID>  (1) 
0000A1BB00000001

>  <PUBCHEM_MMFF94_ENERGY>  (1) 
50.7445

>  <PUBCHEM_FEATURE_SELFOVERLAP>  (1) 
15.223

>  <PUBCHEM_SHAPE_FINGERPRINT>  (1) 
10366900 7 17312821567843788731
11756154 67 18412268307138667686
12107183 9 18056489348224148617
12236239 1 18342741840659785537
12403259 327 16200142235799941138
12553582 1 18334565824697769362
12633257 1 15769769186747476774
13167823 11 18271525394391741833
13533116 47 18271523221222686113
13551218 46 18343585135860836535
14178000 29 18335423456489091956
14251764 30 17845102783587112342
14341114 176 18411141372323437387
14420673 8 18198632038109428431
14866123 147 17910396091485192161
15196674 1 18413670192752465482
15352361 1 18340486677728659658
17349148 13 17846780745625788917
17492 54 17822871891297861444
17492 89 18268428121602778815
17804303 29 18201720647886441793
17818456 19 18271815575362854361
1813 80 18113334210996484940
18222031 100 18408599262384016683
20291156 8 18410572868818806312
20388580 30 18334862735819006124
20645477 70 18042120023918110049
21150785 3 11674874546688989963
21267235 1 18413113857038429275
2215653 11 18334848442531530087
2255824 54 18117279374723474524
22950370 63 18411143498147216648
23559900 14 18337385054463931875
2871803 45 18113616759936175914
3004659 81 18335702707205525674
3421961 26 18342453764271095632
34797466 226 13840274658599937787
4394409 98 15091715321581642526
46194498 28 17458904963100515181
465052 167 18271811241328902127
5104073 3 18060424646674399443
5207 123 18409726240501821517
960060 61 18113622300148692564
9709674 26 18192148411435015027
9971528 1 18335979856454090321
9981440 41 17113530974926233001

>  <PUBCHEM_SHAPE_MULTIPOLES>  (1) 
407.35
12.24
3.02
1.04
6.17
0.63
0.09
-8.71
0.29
-2.95
0.84
-0.26
0.41
-0.6

>  <PUBCHEM_SHAPE_SELFOVERLAP>  (1) 
833.483

>  <PUBCHEM_SHAPE_VOLUME>  (1) 
238.6

>  <PUBCHEM_COORDINATE_TYPE>  (1) 
2
5
10

$$$$
