41402
     RDKit          3D

 21 23  0  0  1  0  0  0  0  0999 V2000
   -1.9675   -1.2756   -0.1406 O   0  0  0  0  0  0  0  0  0  0  0  0
   -4.6394   -0.9013   -0.4513 O   0  0  0  0  0  0  0  0  0  0  0  0
    0.2982   -0.3772   -0.2873 N   0  0  0  0  0  0  0  0  0  0  0  0
   -0.1273    0.9360    0.2109 C   0  0  0  0  0  0  0  0  0  0  0  0
    1.6913   -0.6399    0.0660 C   0  0  0  0  0  0  0  0  0  0  0  0
   -1.6098    1.1249    0.0326 C   0  0  0  0  0  0  0  0  0  0  0  0
   -0.5912   -1.4032    0.2666 C   0  0  0  0  0  0  0  0  0  0  0  0
    2.6225    0.3897   -0.5749 C   0  0  0  0  0  0  0  0  0  0  0  0
   -2.4455    0.0101   -0.1152 C   0  0  0  0  0  0  0  0  0  0  0  0
   -2.1743    2.4056    0.0536 C   0  0  0  0  0  0  0  0  0  0  0  0
   -3.8220    0.1746   -0.2771 C   0  0  0  0  0  0  0  0  0  0  0  0
    4.0663    0.1166   -0.2361 C   0  0  0  0  0  0  0  0  0  0  0  0
   -3.5517    2.5689   -0.0988 C   0  0  0  0  0  0  0  0  0  0  0  0
   -4.3737    1.4551   -0.2674 C   0  0  0  0  0  0  0  0  0  0  0  0
    4.6207    0.6923    0.8971 C   0  0  0  0  0  0  0  0  0  0  0  0
    4.8162   -0.7056   -1.0636 C   0  0  0  0  0  0  0  0  0  0  0  0
    5.9564    0.4402    1.2102 C   0  0  0  0  0  0  0  0  0  0  0  0
    6.1519   -0.9579   -0.7505 C   0  0  0  0  0  0  0  0  0  0  0  0
   -5.6709   -1.0944    0.5143 C   0  0  0  0  0  0  0  0  0  0  0  0
    6.7219   -0.3851    0.3865 C   0  0  0  0  0  0  0  0  0  0  0  0
   -5.9720   -2.5739    0.6250 C   0  0  0  0  0  0  0  0  0  0  0  0
  1  7  1  0
  1  9  1  0
  2 11  1  0
  2 19  1  0
  3  4  1  0
  3  5  1  0
  3  7  1  0
  4  6  1  0
  5  8  1  0
  6  9  2  0
  6 10  1  0
  8 12  1  0
  9 11  1  0
 10 13  2  0
 11 14  2  0
 12 15  2  0
 12 16  1  0
 13 14  1  0
 15 17  1  0
 16 18  2  0
 17 20  2  0
 18 20  1  0
 19 21  1  0
M  END
>  <PUBCHEM_COMPOUND_CID>  (1) 
41402

>  <PUBCHEM_CONFORMER_RMSD>  (1) 
0.8

>  <PUBCHEM_CONFORMER_DIVERSEORDER>  (1) 
1
35
36
16
11
32
3
29
18
6
31
4
5
8
23
25
21
26
33
10
27
22
14
20
7
2
17
12
34
28
30
15
9
19
24
13

>  <PUBCHEM_MMFF94_PARTIAL_CHARGES>  (1) 
28
1 -0.36
10 -0.15
11 0.08
12 -0.14
13 -0.15
14 -0.15
15 -0.15
16 -0.15
17 -0.15
18 -0.15
19 0.28
2 -0.36
20 -0.15
3 -0.81
30 0.15
31 0.15
32 0.15
33 0.15
34 0.15
35 0.15
36 0.15
39 0.15
4 0.41
5 0.27
6 -0.14
7 0.55
8 0.14
9 0.08

>  <PUBCHEM_EFFECTIVE_ROTOR_COUNT>  (1) 
5.8

>  <PUBCHEM_PHARMACOPHORE_FEATURES>  (1) 
6
1 1 acceptor
1 2 acceptor
1 3 cation
6 1 3 4 6 7 9 rings
6 12 15 16 17 18 20 rings
6 6 9 10 11 13 14 rings

>  <PUBCHEM_HEAVY_ATOM_COUNT>  (1) 
21

>  <PUBCHEM_ATOM_DEF_STEREO_COUNT>  (1) 
0

>  <PUBCHEM_ATOM_UDEF_STEREO_COUNT>  (1) 
0

>  <PUBCHEM_BOND_DEF_STEREO_COUNT>  (1) 
0

>  <PUBCHEM_BOND_UDEF_STEREO_COUNT>  (1) 
0

>  <PUBCHEM_ISOTOPIC_ATOM_COUNT>  (1) 
0

>  <PUBCHEM_COMPONENT_COUNT>  (1) 
1

>  <PUBCHEM_CACTVS_TAUTO_COUNT>  (1) 
1

>  <PUBCHEM_CONFORMER_ID>  (1) 
0000A1BA00000001

>  <PUBCHEM_MMFF94_ENERGY>  (1) 
64.4503

>  <PUBCHEM_FEATURE_SELFOVERLAP>  (1) 
30.482

>  <PUBCHEM_SHAPE_FINGERPRINT>  (1) 
10 15 18271234015811271296
10411042 1 18265335191810293511
11315181 36 17967817153942296180
12107183 9 17542215762664959720
12166972 35 17531250603272711285
12236239 1 17749388153078814496
12403259 415 17989200448027367592
12596602 18 17967809466452119952
12616971 3 14045736032842872520
12730499 353 17847063277512860814
12916748 109 18411138043755100082
13073987 5 18411133594285233970
13288520 33 18409450297896545085
13631057 29 18334856139123558499
13862211 1 18336828701485630167
13914758 101 16081357523938089013
1420 363 18342460352349916286
14211702 104 18114186315228351050
14251764 18 17894631457702435630
15042514 8 18266461091100594351
15778101 99 18269276768606848289
16087824 20 18337107853930006557
17349148 13 17821737134271427948
17844677 252 18412831287335662104
18335252 98 18342744052620865674
18927931 339 18410857677001524671
19433438 28 18343580742051049632
19489759 90 18261110755407009792
200 152 15841548544667592416
20645477 70 16916791739374694910
21033648 29 17774986978465052272
21054139 6 17967249810337804994
21150785 3 17749116621083341318
21236236 1 18413390917321210785
21267235 1 18336272318362903767
21315759 40 17312818273836150010
21792934 111 18341330076710331809
2297311 6 18341338837509627045
2303208 19 18060147513725040646
23081809 10 17240486884133151340
23402539 116 18410007723841762933
23557571 272 18343030973067267484
23559900 14 18272362066748025856
34797466 226 17845948424283204140
351380 180 18201716241698401740
3545911 37 17988924470951433604
4214541 1 18413107230283602244
5104073 3 18270121193067248506
5283173 99 18129942261420485752
542803 24 17385729071754065132
9981440 41 18261959552920188155
9996256 80 18410576171448502250

>  <PUBCHEM_SHAPE_MULTIPOLES>  (1) 
415.45
17.21
2.14
0.88
13.67
0.37
0.06
-5.61
1.74
-4.48
0.17
0.94
-0.06
1.26

>  <PUBCHEM_SHAPE_SELFOVERLAP>  (1) 
884.169

>  <PUBCHEM_SHAPE_VOLUME>  (1) 
230.3

>  <PUBCHEM_COORDINATE_TYPE>  (1) 
2
5
10

$$$$
