41404
     RDKit          3D

 17 18  0  0  0  0  0  0  0  0999 V2000
   -0.1367    2.5987    0.0902 Cl  0  0  0  0  0  0  0  0  0  0  0  0
   -1.5125   -0.1990   -2.5410 Cl  0  0  0  0  0  0  0  0  0  0  0  0
    3.0173    2.5413   -0.0079 Cl  0  0  0  0  0  0  0  0  0  0  0  0
    2.8223   -2.9187    0.1238 Cl  0  0  0  0  0  0  0  0  0  0  0  0
    4.5252   -0.2270    0.0041 Cl  0  0  0  0  0  0  0  0  0  0  0  0
   -0.0030   -0.1090    0.1476 C   0  0  0  0  0  0  0  0  0  0  0  0
   -1.4527   -0.1343    0.1949 C   0  0  0  0  0  0  0  0  0  0  0  0
    0.7215    1.0828    0.0970 C   0  0  0  0  0  0  0  0  0  0  0  0
    0.6690   -1.3319    0.1543 C   0  0  0  0  0  0  0  0  0  0  0  0
   -2.2257   -0.1761   -0.9655 C   0  0  0  0  0  0  0  0  0  0  0  0
   -2.0717   -0.1172    1.4449 C   0  0  0  0  0  0  0  0  0  0  0  0
    2.1155    1.0515    0.0537 C   0  0  0  0  0  0  0  0  0  0  0  0
    2.0629   -1.3633    0.1108 C   0  0  0  0  0  0  0  0  0  0  0  0
    2.7862   -0.1716    0.0604 C   0  0  0  0  0  0  0  0  0  0  0  0
   -3.6176   -0.2008   -0.8758 C   0  0  0  0  0  0  0  0  0  0  0  0
   -3.4635   -0.1419    1.5344 C   0  0  0  0  0  0  0  0  0  0  0  0
   -4.2365   -0.1837    0.3741 C   0  0  0  0  0  0  0  0  0  0  0  0
  1  8  1  0
  2 10  1  0
  3 12  1  0
  4 13  1  0
  5 14  1  0
  6  7  1  0
  6  8  2  0
  6  9  1  0
  7 10  2  0
  7 11  1  0
  8 12  1  0
  9 13  2  0
 10 15  1  0
 11 16  2  0
 12 14  2  0
 13 14  1  0
 15 17  2  0
 16 17  1  0
M  END
>  <PUBCHEM_COMPOUND_CID>  (1) 
41404

>  <PUBCHEM_CONFORMER_RMSD>  (1) 
0.6

>  <PUBCHEM_CONFORMER_DIVERSEORDER>  (1) 
1
2

>  <PUBCHEM_MMFF94_PARTIAL_CHARGES>  (1) 
20
1 -0.18
10 0.18
11 -0.15
12 0.18
13 0.18
14 0.18
15 -0.15
16 -0.15
17 -0.15
18 0.15
19 0.15
2 -0.18
20 0.15
21 0.15
22 0.15
3 -0.18
4 -0.18
5 -0.18
8 0.18
9 -0.15

>  <PUBCHEM_EFFECTIVE_ROTOR_COUNT>  (1) 
1

>  <PUBCHEM_PHARMACOPHORE_FEATURES>  (1) 
2
6 6 8 9 12 13 14 rings
6 7 10 11 15 16 17 rings

>  <PUBCHEM_HEAVY_ATOM_COUNT>  (1) 
17

>  <PUBCHEM_ATOM_DEF_STEREO_COUNT>  (1) 
0

>  <PUBCHEM_ATOM_UDEF_STEREO_COUNT>  (1) 
0

>  <PUBCHEM_BOND_DEF_STEREO_COUNT>  (1) 
0

>  <PUBCHEM_BOND_UDEF_STEREO_COUNT>  (1) 
0

>  <PUBCHEM_ISOTOPIC_ATOM_COUNT>  (1) 
0

>  <PUBCHEM_COMPONENT_COUNT>  (1) 
1

>  <PUBCHEM_CACTVS_TAUTO_COUNT>  (1) 
1

>  <PUBCHEM_CONFORMER_ID>  (1) 
0000A1BC00000001

>  <PUBCHEM_MMFF94_ENERGY>  (1) 
50.9822

>  <PUBCHEM_FEATURE_SELFOVERLAP>  (1) 
10.149

>  <PUBCHEM_SHAPE_FINGERPRINT>  (1) 
10980938 120 18411138077634926960
11471102 20 18409167735934542256
12236239 1 17775567541905066219
12553582 1 18341327791360494630
13140716 1 18266175222593217306
13538477 17 17274814818041412815
15219456 202 17967812790403157937
15342168 16 18046632475283472717
15375462 189 18059856155706718042
15653759 3 17023179452689188409
16945 1 18410572881888227066
17844478 74 17821447958697917429
1813 80 17986404282626299934
18175812 5 17749111135850934703
18186145 218 18340209703867086804
19049666 15 17677318399603349711
19422 9 17917995018065452191
19784866 34 18196090169274122096
200 152 18343015593111153067
20279233 1 17749111088659276075
204376 136 18192995052700250712
20600515 1 15936686086131737717
20645476 183 17845933056510001671
20645477 70 18335413577921801846
21501502 16 18121783833517831856
21639500 275 18339350989222045292
22112679 90 17489582398224628829
2255824 54 18341897424298384974
22802520 49 17968923193915237197
23175994 123 18259990353058351629
2334 1 17977948213637816978
23402539 116 18343577435110666078
23493267 7 17023172804222446856
23526113 38 17896585220117102762
23557571 272 16877660154157969815
23559900 14 16515676707126846786
23598291 2 17917425483890347005
25 1 18336545039990647284
2748010 2 18051686647427244054
350125 39 17544203034905144936
474 4 18127685139941717840
6049 1 17749390325868081911
633830 44 18129114475024645420
6992083 37 17775286084108374293
77492 1 17775566450951698499
81228 2 17256506536563546018
8272917 22 18342185423309546607

>  <PUBCHEM_SHAPE_MULTIPOLES>  (1) 
359.2
7.23
2.34
1.4
0.57
0.41
0.7
-1.06
-0.73
-3.06
-0.13
1.66
-0.14
-0.12

>  <PUBCHEM_SHAPE_SELFOVERLAP>  (1) 
734.933

>  <PUBCHEM_SHAPE_VOLUME>  (1) 
200.9

>  <PUBCHEM_COORDINATE_TYPE>  (1) 
2
5
10

$$$$
