41400
     RDKit          3D

 24 27  0  0  1  0  0  0  0  0999 V2000
   -0.7226   -1.2194   -1.7596 S   0  0  0  0  0  0  0  0  0  0  0  0
    5.6020   -0.6132    0.5157 O   0  0  0  0  0  0  0  0  0  0  0  0
   -0.2177    1.5050    0.2241 N   0  0  0  0  0  0  0  0  0  0  0  0
   -0.2924    4.3649   -0.1924 N   0  0  0  0  0  0  0  0  0  0  0  0
    0.0969    0.3115    1.0070 C   0  0  0  0  0  0  0  0  0  0  0  0
   -1.1714   -0.3927    1.5375 C   0  0  0  0  0  0  0  0  0  0  0  0
   -2.2566   -0.7789    0.5076 C   0  0  0  0  0  0  0  0  0  0  0  0
   -1.1840    2.3535    0.9323 C   0  0  0  0  0  0  0  0  0  0  0  0
    1.0013    2.2629   -0.0838 C   0  0  0  0  0  0  0  0  0  0  0  0
    1.0966   -0.5977    0.3089 C   0  0  0  0  0  0  0  0  0  0  0  0
   -1.7830   -1.9137   -0.4401 C   0  0  0  0  0  0  0  0  0  0  0  0
   -1.5119    3.6076    0.1146 C   0  0  0  0  0  0  0  0  0  0  0  0
    0.6724    3.5162   -0.9022 C   0  0  0  0  0  0  0  0  0  0  0  0
    0.8467   -1.2718   -0.9028 C   0  0  0  0  0  0  0  0  0  0  0  0
   -3.5440   -1.1502    1.2249 C   0  0  0  0  0  0  0  0  0  0  0  0
    2.3717   -0.7356    0.8951 C   0  0  0  0  0  0  0  0  0  0  0  0
   -2.9178   -2.6804   -1.0787 C   0  0  0  0  0  0  0  0  0  0  0  0
   -0.6063    5.5596   -0.9738 C   0  0  0  0  0  0  0  0  0  0  0  0
   -4.3982   -2.0585    0.7323 C   0  0  0  0  0  0  0  0  0  0  0  0
    1.8623   -2.0384   -1.5004 C   0  0  0  0  0  0  0  0  0  0  0  0
    3.3683   -1.5089    0.2997 C   0  0  0  0  0  0  0  0  0  0  0  0
   -4.1321   -2.7313   -0.5131 C   0  0  0  0  0  0  0  0  0  0  0  0
    3.1144   -2.1577   -0.9010 C   0  0  0  0  0  0  0  0  0  0  0  0
    4.7055   -1.6326    0.9481 C   0  0  0  0  0  0  0  0  0  0  0  0
  1 11  1  0
  1 14  1  0
  2 24  1  0
  3  5  1  0
  3  8  1  0
  3  9  1  0
  4 12  1  0
  4 13  1  0
  4 18  1  0
  5  6  1  0
  5 10  1  0
  6  7  1  0
  7 11  1  0
  7 15  1  0
  8 12  1  0
  9 13  1  0
 10 14  2  0
 10 16  1  0
 11 17  1  0
 14 20  1  0
 15 19  2  0
 16 21  2  0
 17 22  2  0
 19 22  1  0
 20 23  2  0
 21 23  1  0
 21 24  1  0
M  END
>  <PUBCHEM_COMPOUND_CID>  (1) 
41400

>  <PUBCHEM_CONFORMER_RMSD>  (1) 
0.6

>  <PUBCHEM_CONFORMER_DIVERSEORDER>  (1) 
1
11
29
31
16
5
24
20
32
17
13
30
15
36
25
19
37
26
4
14
35
8
22
28
21
7
23
2
18
10
3
6
9
34
27
12
33

>  <PUBCHEM_MMFF94_PARTIAL_CHARGES>  (1) 
31
1 -0.33
10 -0.14
11 0.37
12 0.27
13 0.27
14 0.1
15 -0.29
16 -0.15
17 -0.29
18 0.27
19 -0.15
2 -0.68
20 -0.15
21 -0.14
22 -0.15
23 -0.15
24 0.42
3 -0.81
38 0.15
39 0.15
4 -0.81
40 0.15
44 0.15
45 0.15
46 0.15
47 0.15
5 0.41
50 0.4
7 0.14
8 0.27
9 0.27

>  <PUBCHEM_EFFECTIVE_ROTOR_COUNT>  (1) 
3.8

>  <PUBCHEM_PHARMACOPHORE_FEATURES>  (1) 
8
1 2 acceptor
1 2 donor
1 3 cation
1 4 cation
6 10 14 16 20 21 23 rings
6 3 4 8 9 12 13 rings
6 7 11 15 17 19 22 rings
7 1 5 6 7 10 11 14 rings

>  <PUBCHEM_HEAVY_ATOM_COUNT>  (1) 
24

>  <PUBCHEM_ATOM_DEF_STEREO_COUNT>  (1) 
0

>  <PUBCHEM_ATOM_UDEF_STEREO_COUNT>  (1) 
3

>  <PUBCHEM_BOND_DEF_STEREO_COUNT>  (1) 
0

>  <PUBCHEM_BOND_UDEF_STEREO_COUNT>  (1) 
0

>  <PUBCHEM_ISOTOPIC_ATOM_COUNT>  (1) 
0

>  <PUBCHEM_COMPONENT_COUNT>  (1) 
1

>  <PUBCHEM_CACTVS_TAUTO_COUNT>  (1) 
1

>  <PUBCHEM_CONFORMER_ID>  (1) 
0000A1B800000001

>  <PUBCHEM_MMFF94_ENERGY>  (1) 
69.5988

>  <PUBCHEM_FEATURE_SELFOVERLAP>  (1) 
40.607

>  <PUBCHEM_SHAPE_FINGERPRINT>  (1) 
10074138 170 17903327365547325706
10165383 225 16615094342040517052
10369192 42 16845005827998948032
11045515 52 18334005120764304502
11101153 10 18334860546213717032
11578080 2 17603573153827129964
11833330 49 18337112263504905209
12035758 1 18269005198156525489
12293681 4 18264473002220264085
12422481 6 18202285796878780842
12553582 1 18340785809026196207
12730499 353 16826443506598946057
12788726 201 18189070715058669666
13004483 165 18338505361653987762
13009979 54 17844821471497554683
13083527 12 18341051912477809178
13134695 92 18262517129563157279
133893 2 18050588518504663699
13540713 4 17772464596134270446
13540713 5 17698732733639557183
13681431 1 18267028430172351971
14840074 17 17907274887670686568
14955137 171 17905878533472436128
17357779 13 18058432258273978591
17539 30 18265886969504030945
17980427 23 17489028257845237187
1813 80 18341902917198151030
18785283 64 17831857228351309802
20600515 1 18271539632176841895
20739085 24 18199183078202628786
20775438 99 16532281257506533397
21041028 32 18409728490795581173
21285901 2 17986669269196765263
21304303 282 17542466502328250636
21641784 216 18411149043219223204
22182313 1 17559675028309977334
2255824 54 17908427201082579591
23366157 5 18048880998453569399
23419403 2 18057859481356301785
23559900 14 17982437498176938219
3187 122 18338502080683504376
394222 165 17619066569705855770
4409770 3 18194111911468475879
474 4 17617941774074820409
513202 73 18267593399067215138
59554788 62 17846208943360324438
6442390 28 17546734746438513657
6669772 16 17044563549585439270
81228 2 18267884790885308163
90316 7 18340218383911777907
9925002 15 18336843999579136941

>  <PUBCHEM_SHAPE_MULTIPOLES>  (1) 
481.93
7.01
5.99
1.45
2.65
12.51
-0.18
-9.34
1.91
-0.95
-2.34
-0.16
-0.43
-0.52

>  <PUBCHEM_SHAPE_SELFOVERLAP>  (1) 
1011.861

>  <PUBCHEM_SHAPE_VOLUME>  (1) 
271.6

>  <PUBCHEM_COORDINATE_TYPE>  (1) 
2
5
10

$$$$
