41419
     RDKit          3D

 16 18  0  0  0  0  0  0  0  0999 V2000
   -2.6526   -0.4019    0.5382 N   0  0  0  0  0  0  0  0  0  0  0  0
    2.9348   -1.8265   -0.4718 N   0  0  0  0  0  0  0  0  0  0  0  0
   -5.0340    0.0133    0.1111 C   0  0  0  0  0  0  0  0  0  0  0  0
   -6.1699    0.2658   -0.8088 C   0  0  0  0  0  0  0  0  0  0  0  0
   -5.6633    1.3564    0.0888 C   0  0  0  0  0  0  0  0  0  0  0  0
   -3.6470   -0.1355   -0.4910 C   0  0  0  0  0  0  0  0  0  0  0  0
   -1.3249   -0.5501   -0.0482 C   0  0  0  0  0  0  0  0  0  0  0  0
   -0.2511   -0.8437    1.0171 C   0  0  0  0  0  0  0  0  0  0  0  0
    1.1028   -0.9666    0.4397 C   0  0  0  0  0  0  0  0  0  0  0  0
    2.0428    0.0854    0.2536 C   0  0  0  0  0  0  0  0  0  0  0  0
    3.1834   -0.4810   -0.3197 C   0  0  0  0  0  0  0  0  0  0  0  0
    1.6800   -2.1294   -0.0157 C   0  0  0  0  0  0  0  0  0  0  0  0
    2.0328    1.4692    0.5186 C   0  0  0  0  0  0  0  0  0  0  0  0
    4.3189    0.2703   -0.6425 C   0  0  0  0  0  0  0  0  0  0  0  0
    3.1615    2.2334    0.2009 C   0  0  0  0  0  0  0  0  0  0  0  0
    4.2859    1.6410   -0.3705 C   0  0  0  0  0  0  0  0  0  0  0  0
  1  6  1  0
  1  7  1  0
  2 11  1  0
  2 12  1  0
  3  4  1  0
  3  5  1  0
  3  6  1  0
  4  5  1  0
  7  8  1  0
  8  9  1  0
  9 10  1  0
  9 12  2  0
 10 11  2  0
 10 13  1  0
 11 14  1  0
 13 15  2  0
 14 16  2  0
 15 16  1  0
M  END
>  <PUBCHEM_COMPOUND_CID>  (1) 
41419

>  <PUBCHEM_CONFORMER_RMSD>  (1) 
0.6

>  <PUBCHEM_CONFORMER_DIVERSEORDER>  (1) 
1
36
62
71
34
39
16
56
28
6
21
3
40
44
5
45
41
4
33
64
55
63
50
2
27
48
18
14
54
15
37
26
60
17
31
19
72
76
30
42
77
57
69
68
35
22
29
52
7
20
38
43
78
70
12
46
10
58
9
23
47
59
51
32
11
67
61
25
53
73
49
13
8
75
24
66
74
65

>  <PUBCHEM_MMFF94_PARTIAL_CHARGES>  (1) 
27
1 -0.9
11 -0.15
12 -0.3
13 -0.15
14 -0.15
15 -0.15
16 -0.15
17 0.1
18 0.1
19 0.1
2 0.03
20 0.1
21 0.1
24 0.36
29 0.15
3 -0.19
30 0.27
31 0.15
32 0.15
33 0.15
34 0.15
4 -0.2
5 -0.2
6 0.37
7 0.27
8 0.18
9 -0.18

>  <PUBCHEM_EFFECTIVE_ROTOR_COUNT>  (1) 
5.6

>  <PUBCHEM_PHARMACOPHORE_FEATURES>  (1) 
6
1 1 cation
1 1 donor
1 2 cation
1 2 donor
5 2 9 10 11 12 rings
6 10 11 13 14 15 16 rings

>  <PUBCHEM_HEAVY_ATOM_COUNT>  (1) 
16

>  <PUBCHEM_ATOM_DEF_STEREO_COUNT>  (1) 
0

>  <PUBCHEM_ATOM_UDEF_STEREO_COUNT>  (1) 
0

>  <PUBCHEM_BOND_DEF_STEREO_COUNT>  (1) 
0

>  <PUBCHEM_BOND_UDEF_STEREO_COUNT>  (1) 
0

>  <PUBCHEM_ISOTOPIC_ATOM_COUNT>  (1) 
0

>  <PUBCHEM_COMPONENT_COUNT>  (1) 
1

>  <PUBCHEM_CACTVS_TAUTO_COUNT>  (1) 
1

>  <PUBCHEM_CONFORMER_ID>  (1) 
0000A1CB00000001

>  <PUBCHEM_MMFF94_ENERGY>  (1) 
24.4511

>  <PUBCHEM_FEATURE_SELFOVERLAP>  (1) 
30.538

>  <PUBCHEM_SHAPE_FINGERPRINT>  (1) 
10693767 8 17845100576037713270
11471102 20 18412267233443374130
12616999 72 16773800281482351455
12730499 353 18334866021374022675
13836976 161 17846497019543279718
13955234 65 17969217846221228267
14252887 29 10881667010623729264
14366163 111 18410573968419962049
14528608 73 18341609339440839565
15210252 30 18334297612465050348
16752209 62 15985111777832737795
17834072 33 18343579664378196831
17844677 252 18339649949817440737
17959699 21 18409448068624233529
20612939 158 18412549786119285434
20645477 56 18113056043576933275
20645477 70 18271528606690084991
212847 35 18113898264882711944
21637258 2 14835857127635715836
221357 26 18340768152531479053
22224240 67 8646475290348740662
22289505 5 18411697651702063525
23402655 69 18343021111801340991
23424782 7 18261677078081084915
23557571 272 17822868596604225731
23590187 302 17917991689302274008
25 1 18410294757038891194
29717793 49 17275112699518991484
3060560 45 18202006525516010406
3545911 37 18408045134789299883
4047638 21 18114181943124969410
4072396 5 18410564094817721514
427121 178 16732980929459846834
465052 167 8574717914092474712
474 4 18187929525105228509
5104073 3 18113057130166723867
522135 26 18342737394915115703
5281201 14 18339643322134290117
543358 83 18342462491275070515
6025842 7 18341049635992856727
7164475 11 17773604805953706616
8272917 22 18271811176899202551
90127 26 18261117318929200745
960060 61 17561079207341632037

>  <PUBCHEM_SHAPE_MULTIPOLES>  (1) 
319.31
12.98
1.97
0.84
21.93
0.18
-0.02
5.51
2.96
-2.32
-0.06
0.08
-0.03
0.19

>  <PUBCHEM_SHAPE_SELFOVERLAP>  (1) 
676.311

>  <PUBCHEM_SHAPE_VOLUME>  (1) 
181

>  <PUBCHEM_COORDINATE_TYPE>  (1) 
2
5
10

$$$$
