41410
     RDKit          3D

 22 23  0  0  1  0  0  0  0  0999 V2000
    2.4057   -4.0954    0.3637 Cl  0  0  0  0  0  0  0  0  0  0  0  0
   -3.8676    2.2746   -0.7482 O   0  0  0  0  0  0  0  0  0  0  0  0
   -0.4651    1.5717    1.6842 O   0  0  0  0  0  0  0  0  0  0  0  0
   -5.0119    0.6884    0.3854 O   0  0  0  0  0  0  0  0  0  0  0  0
   -1.5244    1.1926   -0.3467 N   0  0  0  0  0  0  0  0  0  0  0  0
   -2.6188    0.4096    0.1703 C   0  0  0  0  0  0  0  0  0  0  0  0
   -2.6597   -0.9847   -0.4684 C   0  0  0  0  0  0  0  0  0  0  0  0
   -1.3852   -1.7663   -0.2587 C   0  0  0  0  0  0  0  0  0  0  0  0
    0.4998    2.4900   -0.3383 C   0  0  0  0  0  0  0  0  0  0  0  0
   -0.5260    1.7147    0.4658 C   0  0  0  0  0  0  0  0  0  0  0  0
   -3.9473    1.1193   -0.0457 C   0  0  0  0  0  0  0  0  0  0  0  0
   -0.3638   -1.6626   -1.1894 C   0  0  0  0  0  0  0  0  0  0  0  0
   -1.2603   -2.5743    0.8604 C   0  0  0  0  0  0  0  0  0  0  0  0
    1.8935    1.9313   -0.2245 C   0  0  0  0  0  0  0  0  0  0  0  0
    0.8132   -2.3857   -0.9962 C   0  0  0  0  0  0  0  0  0  0  0  0
   -0.0832   -3.2973    1.0538 C   0  0  0  0  0  0  0  0  0  0  0  0
    2.7335    2.3906    0.7802 C   0  0  0  0  0  0  0  0  0  0  0  0
    2.3180    0.9649   -1.1255 C   0  0  0  0  0  0  0  0  0  0  0  0
    0.9537   -3.2031    0.1254 C   0  0  0  0  0  0  0  0  0  0  0  0
    4.0246    1.8731    0.8859 C   0  0  0  0  0  0  0  0  0  0  0  0
    3.6090    0.4472   -1.0196 C   0  0  0  0  0  0  0  0  0  0  0  0
    4.4621    0.9014   -0.0138 C   0  0  0  0  0  0  0  0  0  0  0  0
  1 19  1  0
  2 11  1  0
  3 10  2  0
  4 11  2  0
  5  6  1  0
  5 10  1  0
  6  7  1  0
  6 11  1  0
  7  8  1  0
  8 12  2  0
  8 13  1  0
  9 10  1  0
  9 14  1  0
 12 15  1  0
 13 16  2  0
 14 17  2  0
 14 18  1  0
 15 19  2  0
 16 19  1  0
 17 20  1  0
 18 21  2  0
 20 22  2  0
 21 22  1  0
M  END
>  <PUBCHEM_COMPOUND_CID>  (1) 
41410

>  <PUBCHEM_CONFORMER_RMSD>  (1) 
0.8

>  <PUBCHEM_CONFORMER_DIVERSEORDER>  (1) 
2
97
93
25
17
67
15
28
95
88
60
30
24
75
64
26
53
46
98
112
62
33
104
79
38
27
84
106
78
109
18
51
49
76
44
111
42
9
110
66
52
48
56
34
107
105
108
39
86
82
32
11
12
65
83
92
81
35
59
68
10
94
57
80
37
23
99
3
71
4
55
69
21
1
16
63
58
31
29
73
36
77
103
74
100
19
7
13
96
45
87
91
8
101
22
72
14
43
102
47
54
20
90
61
85
6
89
50
70
40
41
5

>  <PUBCHEM_MMFF94_PARTIAL_CHARGES>  (1) 
33
1 -0.18
10 0.57
11 0.66
12 -0.15
13 -0.15
14 -0.14
15 -0.15
16 -0.15
17 -0.15
18 -0.15
19 0.18
2 -0.65
20 -0.15
21 -0.15
22 -0.15
26 0.37
29 0.15
3 -0.57
30 0.15
31 0.15
32 0.15
33 0.15
34 0.15
35 0.15
36 0.15
37 0.15
38 0.5
4 -0.57
5 -0.73
6 0.36
7 0.14
8 -0.14
9 0.2

>  <PUBCHEM_EFFECTIVE_ROTOR_COUNT>  (1) 
7

>  <PUBCHEM_PHARMACOPHORE_FEATURES>  (1) 
7
1 2 acceptor
1 3 acceptor
1 4 acceptor
1 5 donor
3 2 4 11 anion
6 14 17 18 20 21 22 rings
6 8 12 13 15 16 19 rings

>  <PUBCHEM_HEAVY_ATOM_COUNT>  (1) 
22

>  <PUBCHEM_ATOM_DEF_STEREO_COUNT>  (1) 
0

>  <PUBCHEM_ATOM_UDEF_STEREO_COUNT>  (1) 
1

>  <PUBCHEM_BOND_DEF_STEREO_COUNT>  (1) 
0

>  <PUBCHEM_BOND_UDEF_STEREO_COUNT>  (1) 
0

>  <PUBCHEM_ISOTOPIC_ATOM_COUNT>  (1) 
0

>  <PUBCHEM_COMPONENT_COUNT>  (1) 
1

>  <PUBCHEM_CACTVS_TAUTO_COUNT>  (1) 
2

>  <PUBCHEM_CONFORMER_ID>  (1) 
0000A1C200000002

>  <PUBCHEM_MMFF94_ENERGY>  (1) 
48.9687

>  <PUBCHEM_FEATURE_SELFOVERLAP>  (1) 
35.582

>  <PUBCHEM_SHAPE_FINGERPRINT>  (1) 
1100329 8 17331123793196682769
11370993 70 18411976996459456316
12156800 1 15766633388438784622
12553582 1 16825031248305032214
12592029 89 18408611348765067577
12788726 201 17394739818124343450
13140716 1 18340771558377098224
138480 1 17977945683390649450
14251751 93 18338513161788701105
14251757 5 17831885795054164598
16752209 62 18194963165433570702
17093844 170 18412265030415483468
17859628 97 18409727391505551450
19591789 44 18194969762798918395
20567600 347 18333452036614571243
20905425 154 18053108324035052236
21421861 104 17983312425626852417
23419403 2 17609536802281137019
23728640 28 18122336049936621514
3298306 158 18410289190513531277
35225 105 17171839000133493754
5265222 85 18264499549756473172
532947 4 18337666391674667197
57091435 65 18337666404623061162
59755656 215 18410006668207963021
6138700 20 18339929216838355958
81228 2 17476624851929638953
9709674 26 18055072331144160004
9953998 17 18196626676021270936

>  <PUBCHEM_SHAPE_MULTIPOLES>  (1) 
432.03
7.15
4.91
1.15
0.68
5.1
0.05
-5.63
0.07
-1.17
0.89
-0.31
0.07
0.44

>  <PUBCHEM_SHAPE_SELFOVERLAP>  (1) 
903.787

>  <PUBCHEM_SHAPE_VOLUME>  (1) 
243.5

>  <PUBCHEM_COORDINATE_TYPE>  (1) 
2
5
10

$$$$
