41417
     RDKit          3D

 18 18  0  0  1  0  0  0  0  0999 V2000
    1.7398   -3.0980    0.0204 Br  0  0  0  0  0  0  0  0  0  0  0  0
    4.9629    0.4159    0.1793 Cl  0  0  0  0  0  0  0  0  0  0  0  0
   -4.0002    0.3708   -0.7056 O   0  0  0  0  0  0  0  0  0  0  0  0
   -3.6653    2.2491    0.5070 O   0  0  0  0  0  0  0  0  0  0  0  0
   -1.0250   -1.6263    1.5789 O   0  0  0  0  0  0  0  0  0  0  0  0
   -1.5652   -0.5353   -0.3971 N   0  0  0  0  0  0  0  0  0  0  0  0
   -1.7790    0.7701    0.1825 C   0  0  0  0  0  0  0  0  0  0  0  0
   -0.8417    1.8122   -0.4412 C   0  0  0  0  0  0  0  0  0  0  0  0
    0.6181    1.4604   -0.2845 C   0  0  0  0  0  0  0  0  0  0  0  0
   -3.2265    1.2111    0.0226 C   0  0  0  0  0  0  0  0  0  0  0  0
   -1.2010   -1.6370    0.3636 C   0  0  0  0  0  0  0  0  0  0  0  0
    1.3070    1.9016    0.8339 C   0  0  0  0  0  0  0  0  0  0  0  0
    1.2430    0.7031   -1.2629 C   0  0  0  0  0  0  0  0  0  0  0  0
   -1.0673   -2.8884   -0.4908 C   0  0  0  0  0  0  0  0  0  0  0  0
    2.6560    1.5773    0.9780 C   0  0  0  0  0  0  0  0  0  0  0  0
    2.5919    0.3787   -1.1188 C   0  0  0  0  0  0  0  0  0  0  0  0
    3.2985    0.8158    0.0017 C   0  0  0  0  0  0  0  0  0  0  0  0
   -0.0459   -3.8813    0.0330 C   0  0  0  0  0  0  0  0  0  0  0  0
  1 18  1  0
  2 17  1  0
  3 10  1  0
  4 10  2  0
  5 11  2  0
  6  7  1  0
  6 11  1  0
  7  8  1  0
  7 10  1  0
  8  9  1  0
  9 12  2  0
  9 13  1  0
 11 14  1  0
 12 15  1  0
 13 16  2  0
 14 18  1  0
 15 17  2  0
 16 17  1  0
M  END
>  <PUBCHEM_COMPOUND_CID>  (1) 
41417

>  <PUBCHEM_CONFORMER_RMSD>  (1) 
0.8

>  <PUBCHEM_CONFORMER_DIVERSEORDER>  (1) 
1
3
70
81
115
95
90
107
98
97
117
99
56
15
48
110
50
12
41
93
34
104
11
103
111
89
46
79
78
80
24
88
76
4
108
60
71
73
22
92
54
21
10
96
105
42
77
113
114
101
19
58
64
29
37
85
49
8
65
66
45
18
59
20
83
112
9
13
84
43
82
51
74
72
32
91
52
47
87
118
55
33
94
68
28
25
109
62
23
38
36
106
27
102
16
100
35
17
26
57
39
63
61
5
86
69
14
31
30
7
2
44
116
75
67
40
53
6

>  <PUBCHEM_MMFF94_PARTIAL_CHARGES>  (1) 
24
1 -0.23
10 0.66
11 0.57
12 -0.15
13 -0.15
14 0.06
15 -0.15
16 -0.15
17 0.18
18 0.23
2 -0.18
22 0.37
23 0.15
24 0.15
27 0.15
28 0.15
3 -0.65
31 0.5
4 -0.57
5 -0.57
6 -0.73
7 0.36
8 0.14
9 -0.14

>  <PUBCHEM_EFFECTIVE_ROTOR_COUNT>  (1) 
7

>  <PUBCHEM_PHARMACOPHORE_FEATURES>  (1) 
7
1 1 hydrophobe
1 3 acceptor
1 4 acceptor
1 5 acceptor
1 6 donor
3 3 4 10 anion
6 9 12 13 15 16 17 rings

>  <PUBCHEM_HEAVY_ATOM_COUNT>  (1) 
18

>  <PUBCHEM_ATOM_DEF_STEREO_COUNT>  (1) 
0

>  <PUBCHEM_ATOM_UDEF_STEREO_COUNT>  (1) 
1

>  <PUBCHEM_BOND_DEF_STEREO_COUNT>  (1) 
0

>  <PUBCHEM_BOND_UDEF_STEREO_COUNT>  (1) 
0

>  <PUBCHEM_ISOTOPIC_ATOM_COUNT>  (1) 
0

>  <PUBCHEM_COMPONENT_COUNT>  (1) 
1

>  <PUBCHEM_CACTVS_TAUTO_COUNT>  (1) 
2

>  <PUBCHEM_CONFORMER_ID>  (1) 
0000A1C900000001

>  <PUBCHEM_MMFF94_ENERGY>  (1) 
33.2433

>  <PUBCHEM_FEATURE_SELFOVERLAP>  (1) 
35.582

>  <PUBCHEM_SHAPE_FINGERPRINT>  (1) 
12500047 106 18411134770826808460
12553582 1 17112421567355605014
138480 1 17690560784605031174
14022349 108 18194126205145991387
14115302 16 18335991934408483732
15006816 218 18266739082731831078
15207287 21 18131633391464921564
15279308 132 18413671322297508065
16752209 62 18190454068337978855
19930381 70 17979913817900129450
20600515 1 18341338859407242948
20645476 183 17022899085972321937
20905425 154 18050853212754030999
21524375 3 18333447634294204619
23184049 29 17834115625234514894
23402539 116 18271796960947842989
23419403 2 17178048809672924483
23559900 14 18342462560976099452
23598291 2 17241615090126345420
23728640 28 18336826497777056522
257057 1 17258774248872515967
266924 87 18120077391356226477
2748010 2 18264791929053573031
43471831 8 18337673014667153353
465052 167 17242477107838497497
568465 68 17273988020000032688
59755656 215 18409727327613974085
6443956 14 17617658756746122516
7364860 26 18051692144737424069
81228 2 17903918099871018073
8809292 202 18342739667253619108
9709674 26 18055628670937158332
9925002 15 17911763974102689551

>  <PUBCHEM_SHAPE_MULTIPOLES>  (1) 
355.65
6.32
4.04
1.05
1.88
5.04
-0.03
-3.73
-0.14
-0.91
-0.38
0.22
-0.08
0.17

>  <PUBCHEM_SHAPE_SELFOVERLAP>  (1) 
702.357

>  <PUBCHEM_SHAPE_VOLUME>  (1) 
216.2

>  <PUBCHEM_COORDINATE_TYPE>  (1) 
2
5
10

$$$$
