41413
     RDKit          3D

 29 30  0  0  1  0  0  0  0  0999 V2000
   -1.3070   -1.1994   -3.1289 Cl  0  0  0  0  0  0  0  0  0  0  0  0
   -2.7141   -3.4701    2.6618 Cl  0  0  0  0  0  0  0  0  0  0  0  0
    3.0204   -4.6004   -0.1417 Cl  0  0  0  0  0  0  0  0  0  0  0  0
    0.4040    3.3836    1.5493 O   0  0  0  0  0  0  0  0  0  0  0  0
    2.5237    1.4980   -2.2108 O   0  0  0  0  0  0  0  0  0  0  0  0
    4.4698    2.2772   -1.3649 O   0  0  0  0  0  0  0  0  0  0  0  0
   -3.0011   -1.0272   -0.5401 N   0  0  0  0  0  0  0  0  0  0  0  0
    1.1672    1.8360   -0.0003 N   0  0  0  0  0  0  0  0  0  0  0  0
   -2.7676    0.3005   -0.1189 C   0  0  0  0  0  0  0  0  0  0  0  0
    2.5691    2.1474    0.1254 C   0  0  0  0  0  0  0  0  0  0  0  0
   -3.8297    1.1813    0.0855 C   0  0  0  0  0  0  0  0  0  0  0  0
   -3.6863   -1.2891   -1.7891 C   0  0  0  0  0  0  0  0  0  0  0  0
   -2.5705   -2.1415    0.2789 C   0  0  0  0  0  0  0  0  0  0  0  0
    3.2377    1.2672    1.1893 C   0  0  0  0  0  0  0  0  0  0  0  0
   -1.4566    0.7276    0.0925 C   0  0  0  0  0  0  0  0  0  0  0  0
   -1.2077    2.0354    0.5087 C   0  0  0  0  0  0  0  0  0  0  0  0
   -3.5807    2.4893    0.5014 C   0  0  0  0  0  0  0  0  0  0  0  0
    0.1884    2.4909    0.7338 C   0  0  0  0  0  0  0  0  0  0  0  0
   -2.2697    2.9163    0.7131 C   0  0  0  0  0  0  0  0  0  0  0  0
    3.1833   -0.2043    0.8556 C   0  0  0  0  0  0  0  0  0  0  0  0
   -5.2436    0.7511   -0.1336 C   0  0  0  0  0  0  0  0  0  0  0  0
   -2.8038   -2.0831   -2.7394 C   0  0  0  0  0  0  0  0  0  0  0  0
   -3.2285   -2.0979    1.6490 C   0  0  0  0  0  0  0  0  0  0  0  0
    3.2880    1.9897   -1.2063 C   0  0  0  0  0  0  0  0  0  0  0  0
    2.1052   -0.9776    1.2861 C   0  0  0  0  0  0  0  0  0  0  0  0
    4.2112   -0.7905    0.1171 C   0  0  0  0  0  0  0  0  0  0  0  0
    2.0550   -2.3371    0.9779 C   0  0  0  0  0  0  0  0  0  0  0  0
    4.1611   -2.1500   -0.1909 C   0  0  0  0  0  0  0  0  0  0  0  0
    3.0830   -2.9234    0.2395 C   0  0  0  0  0  0  0  0  0  0  0  0
  1 22  1  0
  2 23  1  0
  3 29  1  0
  4 18  2  0
  5 24  1  0
  6 24  2  0
  7  9  1  0
  7 12  1  0
  7 13  1  0
  8 10  1  0
  8 18  1  0
  9 11  2  0
  9 15  1  0
 10 14  1  0
 10 24  1  0
 11 17  1  0
 11 21  1  0
 12 22  1  0
 13 23  1  0
 14 20  1  0
 15 16  2  0
 16 18  1  0
 16 19  1  0
 17 19  2  0
 20 25  2  0
 20 26  1  0
 25 27  1  0
 26 28  2  0
 27 29  2  0
 28 29  1  0
M  END
>  <PUBCHEM_COMPOUND_CID>  (1) 
41413

>  <PUBCHEM_CONFORMER_RMSD>  (1) 
1

>  <PUBCHEM_CONFORMER_DIVERSEORDER>  (1) 
1
62
2
45
69
54
77
61
86
60
49
68
8
17
92
91
71
70
67
39
30
88
73
90
44
40
89
29
80
65
23
34
87
47
35
52
82
50
5
104
103
10
24
112
55
15
95
75
32
21
111
37
27
48
74
18
22
106
99
20
25
19
31
72
114
46
98
13
43
101
110
9
81
102
76
97
51
93
59
58
38
108
85
94
78
26
28
100
16
36
4
7
79
66
33
14
42
84
64
109
3
6
83
96
113
12
53
56
107
57
41
63
11
105

>  <PUBCHEM_MMFF94_PARTIAL_CHARGES>  (1) 
38
1 -0.29
10 0.36
11 -0.14
12 0.37
13 0.37
14 0.14
15 -0.15
16 0.09
17 -0.15
18 0.54
19 -0.15
2 -0.29
20 -0.14
21 0.14
22 0.29
23 0.29
24 0.66
25 -0.15
26 -0.15
27 -0.15
28 -0.15
29 0.18
3 -0.18
37 0.15
38 0.37
39 0.15
4 -0.57
40 0.15
48 0.15
49 0.15
5 -0.65
50 0.15
51 0.15
52 0.5
6 -0.57
7 -0.84
8 -0.73
9 0.1

>  <PUBCHEM_EFFECTIVE_ROTOR_COUNT>  (1) 
11

>  <PUBCHEM_PHARMACOPHORE_FEATURES>  (1) 
8
1 4 acceptor
1 5 acceptor
1 6 acceptor
1 7 cation
1 8 donor
3 5 6 24 anion
6 20 25 26 27 28 29 rings
6 9 11 15 16 17 19 rings

>  <PUBCHEM_HEAVY_ATOM_COUNT>  (1) 
29

>  <PUBCHEM_ATOM_DEF_STEREO_COUNT>  (1) 
0

>  <PUBCHEM_ATOM_UDEF_STEREO_COUNT>  (1) 
1

>  <PUBCHEM_BOND_DEF_STEREO_COUNT>  (1) 
0

>  <PUBCHEM_BOND_UDEF_STEREO_COUNT>  (1) 
0

>  <PUBCHEM_ISOTOPIC_ATOM_COUNT>  (1) 
0

>  <PUBCHEM_COMPONENT_COUNT>  (1) 
1

>  <PUBCHEM_CACTVS_TAUTO_COUNT>  (1) 
2

>  <PUBCHEM_CONFORMER_ID>  (1) 
0000A1C500000001

>  <PUBCHEM_MMFF94_ENERGY>  (1) 
86.1223

>  <PUBCHEM_FEATURE_SELFOVERLAP>  (1) 
40.657

>  <PUBCHEM_SHAPE_FINGERPRINT>  (1) 
12156800 1 16096370392625854907
12788726 201 18059305274960370385
13533116 47 18412260619357554401
15537594 2 18270972352748719041
20764821 26 18408044030482195058
21315759 227 18041834150763046114
23559900 14 18339634530061935154
238 59 18048864488382739594
3737641 26 18047497752263671562
4409770 3 17255128268922004864
445580 102 18191031303041670114
463206 1 18341604953704379714
5309563 4 17614291391213249419
9709674 26 18410007732426201993

>  <PUBCHEM_SHAPE_MULTIPOLES>  (1) 
574.85
9.48
5.15
2.27
0.67
2.04
1.37
1.63
0.79
1.96
-1.41
-1.51
1.59
-0.97

>  <PUBCHEM_SHAPE_SELFOVERLAP>  (1) 
1171.894

>  <PUBCHEM_SHAPE_VOLUME>  (1) 
335.4

>  <PUBCHEM_COORDINATE_TYPE>  (1) 
2
5
10

$$$$
