41423
     RDKit          3D

 17 19  0  0  0  0  0  0  0  0999 V2000
   -2.9776   -2.6777   -0.0327 O   0  0  0  0  0  0  0  0  0  0  0  0
    3.4914    0.1627   -0.5394 N   0  0  0  0  0  0  0  0  0  0  0  0
   -1.7324    2.6511    0.3015 N   0  0  0  0  0  0  0  0  0  0  0  0
    4.4488   -0.1404    0.5146 C   0  0  0  0  0  0  0  0  0  0  0  0
    5.8447   -0.5822    0.1671 C   0  0  0  0  0  0  0  0  0  0  0  0
    4.8772   -1.5612    0.7648 C   0  0  0  0  0  0  0  0  0  0  0  0
    2.2066    0.5621    0.0250 C   0  0  0  0  0  0  0  0  0  0  0  0
    1.1853    0.9353   -1.0669 C   0  0  0  0  0  0  0  0  0  0  0  0
   -0.1103    1.3702   -0.5077 C   0  0  0  0  0  0  0  0  0  0  0  0
   -1.2264    0.5393   -0.2100 C   0  0  0  0  0  0  0  0  0  0  0  0
   -2.2304    1.3677    0.2963 C   0  0  0  0  0  0  0  0  0  0  0  0
   -0.4517    2.6627   -0.1826 C   0  0  0  0  0  0  0  0  0  0  0  0
   -1.4800   -0.8421   -0.3229 C   0  0  0  0  0  0  0  0  0  0  0  0
   -3.4800    0.8816    0.6969 C   0  0  0  0  0  0  0  0  0  0  0  0
   -2.7254   -1.3424    0.0737 C   0  0  0  0  0  0  0  0  0  0  0  0
   -3.7086   -0.4920    0.5756 C   0  0  0  0  0  0  0  0  0  0  0  0
   -1.9313   -3.4946   -0.5534 C   0  0  0  0  0  0  0  0  0  0  0  0
  1 15  1  0
  1 17  1  0
  2  4  1  0
  2  7  1  0
  3 11  1  0
  3 12  1  0
  4  5  1  0
  4  6  1  0
  5  6  1  0
  7  8  1  0
  8  9  1  0
  9 10  1  0
  9 12  2  0
 10 11  2  0
 10 13  1  0
 11 14  1  0
 13 15  2  0
 14 16  2  0
 15 16  1  0
M  END
>  <PUBCHEM_COMPOUND_CID>  (1) 
41423

>  <PUBCHEM_CONFORMER_RMSD>  (1) 
0.8

>  <PUBCHEM_CONFORMER_DIVERSEORDER>  (1) 
1
8
11
7
14
13
4
17
5
15
3
12
9
2
6
16
10

>  <PUBCHEM_MMFF94_PARTIAL_CHARGES>  (1) 
27
1 -0.36
11 -0.15
12 -0.3
13 -0.15
14 -0.15
15 0.08
16 -0.15
17 0.28
18 0.1
19 0.1
2 -0.79
20 0.1
21 0.1
22 0.1
23 0.36
28 0.15
29 0.27
3 0.03
30 0.15
31 0.15
32 0.15
4 0.06
5 -0.2
6 -0.2
7 0.27
8 0.18
9 -0.18

>  <PUBCHEM_EFFECTIVE_ROTOR_COUNT>  (1) 
5.6

>  <PUBCHEM_PHARMACOPHORE_FEATURES>  (1) 
7
1 1 acceptor
1 2 cation
1 2 donor
1 3 cation
1 3 donor
5 3 9 10 11 12 rings
6 10 11 13 14 15 16 rings

>  <PUBCHEM_HEAVY_ATOM_COUNT>  (1) 
17

>  <PUBCHEM_ATOM_DEF_STEREO_COUNT>  (1) 
0

>  <PUBCHEM_ATOM_UDEF_STEREO_COUNT>  (1) 
0

>  <PUBCHEM_BOND_DEF_STEREO_COUNT>  (1) 
0

>  <PUBCHEM_BOND_UDEF_STEREO_COUNT>  (1) 
0

>  <PUBCHEM_ISOTOPIC_ATOM_COUNT>  (1) 
0

>  <PUBCHEM_COMPONENT_COUNT>  (1) 
1

>  <PUBCHEM_CACTVS_TAUTO_COUNT>  (1) 
1

>  <PUBCHEM_CONFORMER_ID>  (1) 
0000A1CF00000001

>  <PUBCHEM_MMFF94_ENERGY>  (1) 
35.7539

>  <PUBCHEM_FEATURE_SELFOVERLAP>  (1) 
35.612

>  <PUBCHEM_SHAPE_FINGERPRINT>  (1) 
10366900 7 17846204532612929712
10616163 171 18410293597377031470
11045977 3 18060413621419698456
11046707 91 18333730213072300492
11552529 35 17917423285141618514
12174731 88 17464232960806557954
12410352 35 18113892741766051930
12523318 42 18340753872086538440
12553582 1 18267881642473865527
12555020 224 18337379513945752615
12633257 1 17917723408528446064
12757275 245 18410293605744867818
13140716 1 18270124642179122825
13167823 11 18260830354926289474
13551218 46 18336268920643229586
13862211 1 18411703223123809903
14100547 121 18341040814330575014
14420673 8 17906738003937399166
15042514 8 18410299124931031971
15537594 2 18040721325337987098
16945 1 18198648673108323829
17780758 139 18338222766481434626
17804303 29 18341898493381595648
17977361 122 18335138704341603555
1813 80 17386017126494144726
19141452 34 18410857646271790217
20281475 54 18336265751326363844
20291156 8 18262516008771858706
20621476 51 18270395117607906302
20681677 274 18341887550121586280
21650355 55 18413389838910275809
21673915 165 18408038490601993874
2297311 6 18271819982204489084
23366157 5 17902802090995199349
23402539 116 18272081682956622709
23559900 14 18411973689814874776
23728640 28 18411421696085330523
24859131 72 18342739619750275918
2748010 2 17978537259928852853
351380 3 17894914014552196770
559249 180 17969497122005247360
58807428 26 18125178051756407449
5924683 9 18130216142383138662
602551 16 18413671301582099450

>  <PUBCHEM_SHAPE_MULTIPOLES>  (1) 
334.02
9.71
3.15
0.85
17.3
1.6
0.03
4.58
-2.57
-3.22
0.37
0.11
0
-0.87

>  <PUBCHEM_SHAPE_SELFOVERLAP>  (1) 
708.965

>  <PUBCHEM_SHAPE_VOLUME>  (1) 
189.4

>  <PUBCHEM_COORDINATE_TYPE>  (1) 
2
5
10

$$$$
