41429
     RDKit          3D

 12 12  0  0  0  0  0  0  0  0999 V2000
   -1.7685    2.0851    0.0100 Cl  0  0  0  0  0  0  0  0  0  0  0  0
    4.2396   -0.4465   -0.0010 F   0  0  0  0  0  0  0  0  0  0  0  0
   -4.5187   -1.1337   -0.0046 O   0  0  0  0  0  0  0  0  0  0  0  0
    0.1601    0.1919    0.0001 C   0  0  0  0  0  0  0  0  0  0  0  0
    0.8497    0.0905   -1.2081 C   0  0  0  0  0  0  0  0  0  0  0  0
    0.8486    0.0783    1.2079 C   0  0  0  0  0  0  0  0  0  0  0  0
    2.2280   -0.1247   -1.2085 C   0  0  0  0  0  0  0  0  0  0  0  0
    2.2268   -0.1367    1.2074 C   0  0  0  0  0  0  0  0  0  0  0  0
   -1.2769    0.4156    0.0015 C   0  0  0  0  0  0  0  0  0  0  0  0
    2.9165   -0.2383   -0.0007 C   0  0  0  0  0  0  0  0  0  0  0  0
   -2.2277   -0.5396   -0.0029 C   0  0  0  0  0  0  0  0  0  0  0  0
   -3.6776   -0.2419   -0.0011 C   0  0  0  0  0  0  0  0  0  0  0  0
  1  9  1  0
  2 10  1  0
  3 12  2  0
  4  5  2  0
  4  6  1  0
  4  9  1  0
  5  7  1  0
  6  8  2  0
  7 10  2  0
  8 10  1  0
  9 11  2  0
 11 12  1  0
M  END
>  <PUBCHEM_COMPOUND_CID>  (1) 
41429

>  <PUBCHEM_CONFORMER_RMSD>  (1) 
0.6

>  <PUBCHEM_CONFORMER_DIVERSEORDER>  (1) 
1
2

>  <PUBCHEM_MMFF94_PARTIAL_CHARGES>  (1) 
18
1 -0.14
10 0.19
11 -0.14
12 0.5
13 0.15
14 0.15
15 0.15
16 0.15
17 0.15
18 0.06
2 -0.19
3 -0.57
4 0.03
5 -0.15
6 -0.15
7 -0.15
8 -0.15
9 0.11

>  <PUBCHEM_EFFECTIVE_ROTOR_COUNT>  (1) 
2

>  <PUBCHEM_PHARMACOPHORE_FEATURES>  (1) 
2
1 3 acceptor
6 4 5 6 7 8 10 rings

>  <PUBCHEM_HEAVY_ATOM_COUNT>  (1) 
12

>  <PUBCHEM_ATOM_DEF_STEREO_COUNT>  (1) 
0

>  <PUBCHEM_ATOM_UDEF_STEREO_COUNT>  (1) 
0

>  <PUBCHEM_BOND_DEF_STEREO_COUNT>  (1) 
0

>  <PUBCHEM_BOND_UDEF_STEREO_COUNT>  (1) 
1

>  <PUBCHEM_ISOTOPIC_ATOM_COUNT>  (1) 
0

>  <PUBCHEM_COMPONENT_COUNT>  (1) 
1

>  <PUBCHEM_CACTVS_TAUTO_COUNT>  (1) 
1

>  <PUBCHEM_CONFORMER_ID>  (1) 
0000A1D500000001

>  <PUBCHEM_MMFF94_ENERGY>  (1) 
30.4731

>  <PUBCHEM_FEATURE_SELFOVERLAP>  (1) 
10.148

>  <PUBCHEM_SHAPE_FINGERPRINT>  (1) 
10219947 1 16056880238597663114
11062470 55 12468355751839283090
11401426 45 15791729732921426998
11471102 20 15285356228117455494
12251169 10 15769776879329205607
12932764 1 17489011691565279558
13581323 91 18411978053084389822
14251717 144 16153422848505887842
14252887 29 15913058611663349550
14911166 2 15647059252914050474
14993402 34 16950284000953016386
15219456 202 17274544217658281221
17844478 74 17489870418842294553
18186145 218 12685080467885001743
200 152 17240201036589498433
20201158 50 17203895158118800335
20279233 1 17632578232403531045
20281407 28 18202853153600581127
20645477 70 14924212794694266107
20871998 22 14619416038635330668
21119208 17 16732699467505362855
21256008 61 17168143459536267494
21293036 1 15791449331259395914
23402539 116 18409161104383575319
23402655 69 15430022258866228975
23557571 272 18272657805063232428
2748010 2 15265388951223658232
77492 1 17676492700709795625

>  <PUBCHEM_SHAPE_MULTIPOLES>  (1) 
235.68
6.69
1.16
1.11
2.58
0.66
0
-2.36
0.01
1.19
0
-0.79
-0.01
-0.01

>  <PUBCHEM_SHAPE_SELFOVERLAP>  (1) 
481.674

>  <PUBCHEM_SHAPE_VOLUME>  (1) 
136.8

>  <PUBCHEM_COORDINATE_TYPE>  (1) 
2
5
10

$$$$
