41427
     RDKit          3D

 16 17  0  0  1  0  0  0  0  0999 V2000
    2.5028   -1.5738   -0.0046 O   0  0  0  0  0  0  0  0  0  0  0  0
   -1.1041    0.3711   -0.6995 C   0  0  0  0  0  0  0  0  0  0  0  0
   -0.9459   -1.1875   -0.7018 C   0  0  0  0  0  0  0  0  0  0  0  0
   -2.4942    0.7549   -0.0660 C   0  0  0  0  0  0  0  0  0  0  0  0
    0.0797    1.0151    0.0784 C   0  0  0  0  0  0  0  0  0  0  0  0
    1.4685    0.5763   -0.4094 C   0  0  0  0  0  0  0  0  0  0  0  0
   -1.2281   -1.8193    0.6761 C   0  0  0  0  0  0  0  0  0  0  0  0
    0.4333   -1.6484   -1.1951 C   0  0  0  0  0  0  0  0  0  0  0  0
   -2.7438    0.0829    1.2947 C   0  0  0  0  0  0  0  0  0  0  0  0
   -2.5943   -1.4275    1.2141 C   0  0  0  0  0  0  0  0  0  0  0  0
   -1.0859    0.8848   -2.1640 C   0  0  0  0  0  0  0  0  0  0  0  0
    1.5484   -0.9424   -0.4570 C   0  0  0  0  0  0  0  0  0  0  0  0
    2.5577    1.1653    0.4852 C   0  0  0  0  0  0  0  0  0  0  0  0
   -2.7350    2.2641    0.0816 C   0  0  0  0  0  0  0  0  0  0  0  0
    2.3982    0.6707    1.9209 C   0  0  0  0  0  0  0  0  0  0  0  0
    3.9425    0.8138   -0.0535 C   0  0  0  0  0  0  0  0  0  0  0  0
  1 12  2  0
  2  3  1  0
  2  4  1  0
  2  5  1  0
  2 11  1  0
  3  7  1  0
  3  8  1  0
  4  9  1  0
  4 14  1  0
  5  6  1  0
  6 12  1  0
  6 13  1  0
  7 10  1  0
  8 12  1  0
  9 10  1  0
 13 15  1  0
 13 16  1  0
M  END
>  <PUBCHEM_COMPOUND_CID>  (1) 
41427

>  <PUBCHEM_CONFORMER_RMSD>  (1) 
0.6

>  <PUBCHEM_CONFORMER_DIVERSEORDER>  (1) 
11
42
54
55
57
37
47
30
6
28
56
29
51
50
26
27
5
16
9
20
22
18
25
21
33
32
1
8
14
39
53
4
15
12
13
44
7
43
46
24
48
3
10
17
2
40
19
38
52
31
36
41
35
45
49
34
23

>  <PUBCHEM_MMFF94_PARTIAL_CHARGES>  (1) 
4
1 -0.57
12 0.45
6 0.06
8 0.06

>  <PUBCHEM_EFFECTIVE_ROTOR_COUNT>  (1) 
2.4

>  <PUBCHEM_PHARMACOPHORE_FEATURES>  (1) 
4
1 1 acceptor
3 13 15 16 hydrophobe
6 2 3 4 7 9 10 rings
6 2 3 5 6 8 12 rings

>  <PUBCHEM_HEAVY_ATOM_COUNT>  (1) 
16

>  <PUBCHEM_ATOM_DEF_STEREO_COUNT>  (1) 
0

>  <PUBCHEM_ATOM_UDEF_STEREO_COUNT>  (1) 
4

>  <PUBCHEM_BOND_DEF_STEREO_COUNT>  (1) 
0

>  <PUBCHEM_BOND_UDEF_STEREO_COUNT>  (1) 
0

>  <PUBCHEM_ISOTOPIC_ATOM_COUNT>  (1) 
0

>  <PUBCHEM_COMPONENT_COUNT>  (1) 
1

>  <PUBCHEM_CACTVS_TAUTO_COUNT>  (1) 
3

>  <PUBCHEM_CONFORMER_ID>  (1) 
0000A1D30000000B

>  <PUBCHEM_MMFF94_ENERGY>  (1) 
44.2747

>  <PUBCHEM_FEATURE_SELFOVERLAP>  (1) 
20.354

>  <PUBCHEM_SHAPE_FINGERPRINT>  (1) 
11127187 94 9150903796783242769
11680611 10 17241342364092669369
12011746 2 18340493356244244215
12251169 10 18188216488912921977
12382932 28 18409451400975399896
12423570 1 12439429125926645319
12491281 212 17275103903478690705
12716301 132 17025996212717430037
12808571 1 15625678183632386635
13024252 1 13623794034646898325
13294875 104 16891720438340133645
13299463 15 9439407921333973725
13380535 21 18409737252950955598
13764800 53 18412543231994131449
14817 1 10420856683675085951
15219456 202 18410863135514424526
15309172 13 18272090547346900798
15775835 57 17346600772340536345
15852999 172 17972006241804579871
15881359 60 18191849322797306367
16945 1 18264499553454808471
17357990 137 15553900883370936003
17844478 74 18335991964092939650
18186145 218 17346322660924715648
18981168 100 17345459543880031034
19049666 15 18196384627667384611
19868273 293 11743578581840946441
20361792 2 15285361759898254175
20511035 2 18341051826441462870
20525323 117 18335976579430466606
20653085 51 15626230155554453896
21501502 16 18411978044362748902
23175994 123 17554070756865073926
23419403 2 16900420899683332490
23493267 7 18333732386310045256
25 1 18129380388986604940
27216 239 18269545212309683928
2748010 2 18340774757958636655
598444 67 17753329772925112991
63268167 104 17632575998514284168
81228 2 17967820474442561411
90316 7 17312817169407257909

>  <PUBCHEM_SHAPE_MULTIPOLES>  (1) 
323.4
5.05
2.05
1.57
2.62
0.18
0.08
-1.45
-1.71
-0.82
0.03
-0.25
-0.07
0.75

>  <PUBCHEM_SHAPE_SELFOVERLAP>  (1) 
658.887

>  <PUBCHEM_SHAPE_VOLUME>  (1) 
186.5

>  <PUBCHEM_COORDINATE_TYPE>  (1) 
2
5
10

$$$$
