41433
     RDKit          3D

 12 12  0  0  0  0  0  0  0  0999 V2000
    2.2155    1.8189    0.3518 S   0  0  0  0  0  0  0  0  0  0  0  0
    2.3742   -1.5568   -0.4365 S   0  0  0  0  0  0  0  0  0  0  0  0
   -1.0642    0.1866   -0.2699 O   0  0  0  0  0  0  0  0  0  0  0  0
   -2.5925   -1.3780    0.4545 O   0  0  0  0  0  0  0  0  0  0  0  0
   -0.1660   -0.8803   -0.1358 N   0  0  0  0  0  0  0  0  0  0  0  0
   -3.2117    0.7990   -0.0456 N   0  0  0  0  0  0  0  0  0  0  0  0
    3.7042    0.7683    0.3592 C   0  0  0  0  0  0  0  0  0  0  0  0
    3.4046   -0.6680    0.7699 C   0  0  0  0  0  0  0  0  0  0  0  0
    1.2614    0.9408   -0.9112 C   0  0  0  0  0  0  0  0  0  0  0  0
    1.0098   -0.4669   -0.4691 C   0  0  0  0  0  0  0  0  0  0  0  0
   -2.3151   -0.2420    0.0815 C   0  0  0  0  0  0  0  0  0  0  0  0
   -4.6202    0.6785    0.2513 C   0  0  0  0  0  0  0  0  0  0  0  0
  1  7  1  0
  1  9  1  0
  2  8  1  0
  2 10  1  0
  3  5  1  0
  3 11  1  0
  4 11  2  0
  5 10  2  0
  6 11  1  0
  6 12  1  0
  7  8  1  0
  9 10  1  0
M  END
>  <PUBCHEM_COMPOUND_CID>  (1) 
41433

>  <PUBCHEM_CONFORMER_RMSD>  (1) 
0.6

>  <PUBCHEM_CONFORMER_DIVERSEORDER>  (1) 
1
21
24
6
17
3
20
22
25
26
19
16
13
14
23
2
9
5
12
11
18
10
15
7
4
8

>  <PUBCHEM_MMFF94_PARTIAL_CHARGES>  (1) 
13
1 -0.46
10 0.53
11 0.78
12 0.3
19 0.37
2 -0.37
3 -0.09
4 -0.57
5 -0.51
6 -0.73
7 0.23
8 0.23
9 0.29

>  <PUBCHEM_EFFECTIVE_ROTOR_COUNT>  (1) 
4

>  <PUBCHEM_PHARMACOPHORE_FEATURES>  (1) 
4
1 4 acceptor
1 5 acceptor
1 6 donor
6 1 2 7 8 9 10 rings

>  <PUBCHEM_HEAVY_ATOM_COUNT>  (1) 
12

>  <PUBCHEM_ATOM_DEF_STEREO_COUNT>  (1) 
0

>  <PUBCHEM_ATOM_UDEF_STEREO_COUNT>  (1) 
0

>  <PUBCHEM_BOND_DEF_STEREO_COUNT>  (1) 
0

>  <PUBCHEM_BOND_UDEF_STEREO_COUNT>  (1) 
1

>  <PUBCHEM_ISOTOPIC_ATOM_COUNT>  (1) 
0

>  <PUBCHEM_COMPONENT_COUNT>  (1) 
1

>  <PUBCHEM_CACTVS_TAUTO_COUNT>  (1) 
2

>  <PUBCHEM_CONFORMER_ID>  (1) 
0000A1D900000001

>  <PUBCHEM_MMFF94_ENERGY>  (1) 
19.9089

>  <PUBCHEM_FEATURE_SELFOVERLAP>  (1) 
20.312

>  <PUBCHEM_SHAPE_FINGERPRINT>  (1) 
10219947 1 18272650134667976990
12251169 10 18334012795855051029
12346645 6 18201438060829589214
12932764 1 18199482110884222351
13705890 14 8142091965978350056
13922767 16 18411697664570894148
14325111 11 18410856602589469046
14897335 6 18343018904541546351
15501101 241 18260543425103710156
15775835 57 18130786801844774732
17834069 15 18260540113283199484
18186145 218 17917164835162542479
18342897 14 18411136944138126632
20606313 2 18343300353537560432
20645477 70 18201721695642502790
20871998 22 18125158239304801534
21293036 1 10159696906389979740
21501925 9 18187927338850849799
22169311 14 18259983786005682058
230 275 17703799140884288016
23402539 116 18411127023138141653
3248919 1 17676773192175860463
42 15 17894912910386703937
7364860 26 18272375222195813326
94968 8 7925913690348434024

>  <PUBCHEM_SHAPE_MULTIPOLES>  (1) 
232.95
7.67
1.66
0.82
7.26
0.11
0.04
1.29
-1.6
-1.03
-0.03
-0.36
0.01
0.19

>  <PUBCHEM_SHAPE_SELFOVERLAP>  (1) 
430.404

>  <PUBCHEM_SHAPE_VOLUME>  (1) 
148.2

>  <PUBCHEM_COORDINATE_TYPE>  (1) 
2
5
10

$$$$
