41434
     RDKit          3D

 26 28  0  0  1  0  0  0  0  0999 V2000
    3.1640    1.0189    0.5706 O   0  0  0  0  0  0  0  0  0  0  0  0
    2.3002   -0.0416   -1.2905 O   0  0  0  0  0  0  0  0  0  0  0  0
    2.1193    1.9363    0.4574 N   0  0  0  0  0  0  0  0  0  0  0  0
   -3.2463    0.3595    0.7219 N   0  0  0  0  0  0  0  0  0  0  0  0
   -3.5828   -0.1969   -0.3498 N   0  0  0  0  0  0  0  0  0  0  0  0
    0.7771    1.5422    0.5233 C   0  0  0  0  0  0  0  0  0  0  0  0
    2.5333    3.2390   -0.0341 C   0  0  0  0  0  0  0  0  0  0  0  0
   -0.2375    2.4124    0.1071 C   0  0  0  0  0  0  0  0  0  0  0  0
    0.4354    0.2732    1.0062 C   0  0  0  0  0  0  0  0  0  0  0  0
    2.5748    3.2681   -1.5276 C   0  0  0  0  0  0  0  0  0  0  0  0
   -1.9063    0.7538    0.6554 C   0  0  0  0  0  0  0  0  0  0  0  0
   -1.5743    2.0197    0.1730 C   0  0  0  0  0  0  0  0  0  0  0  0
   -0.9015   -0.1194    1.0720 C   0  0  0  0  0  0  0  0  0  0  0  0
    4.2615   -0.8797   -0.2265 C   0  0  0  0  0  0  0  0  0  0  0  0
    3.1518    0.0446   -0.3960 C   0  0  0  0  0  0  0  0  0  0  0  0
    4.1260   -2.2114   -0.6189 C   0  0  0  0  0  0  0  0  0  0  0  0
    5.4616   -0.4347    0.3280 C   0  0  0  0  0  0  0  0  0  0  0  0
    5.1904   -3.0981   -0.4567 C   0  0  0  0  0  0  0  0  0  0  0  0
    6.5261   -1.3214    0.4901 C   0  0  0  0  0  0  0  0  0  0  0  0
    6.3905   -2.6531    0.0977 C   0  0  0  0  0  0  0  0  0  0  0  0
   -4.9294   -0.5938   -0.2833 C   0  0  0  0  0  0  0  0  0  0  0  0
   -5.9280    0.2810   -0.7000 C   0  0  0  0  0  0  0  0  0  0  0  0
   -5.2541   -1.8578    0.1991 C   0  0  0  0  0  0  0  0  0  0  0  0
   -7.2647   -0.1121   -0.6334 C   0  0  0  0  0  0  0  0  0  0  0  0
   -6.5908   -2.2509    0.2656 C   0  0  0  0  0  0  0  0  0  0  0  0
   -7.5961   -1.3779   -0.1507 C   0  0  0  0  0  0  0  0  0  0  0  0
  1  3  1  0
  1 15  1  0
  2 15  2  0
  3  6  1  0
  3  7  1  0
  4  5  2  0
  4 11  1  0
  5 21  1  0
  6  8  2  0
  6  9  1  0
  7 10  1  0
  8 12  1  0
  9 13  2  0
 11 12  2  0
 11 13  1  0
 14 15  1  0
 14 16  2  0
 14 17  1  0
 16 18  1  0
 17 19  2  0
 18 20  2  0
 19 20  1  0
 21 22  2  0
 21 23  1  0
 22 24  1  0
 23 25  2  0
 24 26  2  0
 25 26  1  0
M  END
>  <PUBCHEM_COMPOUND_CID>  (1) 
41434

>  <PUBCHEM_CONFORMER_RMSD>  (1) 
0.8

>  <PUBCHEM_CONFORMER_DIVERSEORDER>  (1) 
1
29
45
41
15
18
55
17
59
33
24
54
58
21
20
28
50
65
35
66
49
10
63
40
38
13
8
9
51
27
12
46
60
44
67
4
11
52
32
39
26
37
53
14
61
56
43
34
3
22
57
31
48
64
62
7
36
5
42
25
30
2
47
16
6
23
19

>  <PUBCHEM_MMFF94_PARTIAL_CHARGES>  (1) 
39
1 -0.13
11 0.18
12 -0.15
13 -0.15
14 0.09
15 0.63
16 -0.15
17 -0.15
18 -0.15
19 -0.15
2 -0.57
20 -0.15
21 0.18
22 -0.15
23 -0.15
24 -0.15
25 -0.15
26 -0.15
29 0.15
3 -0.49
30 0.15
34 0.15
35 0.15
36 0.15
37 0.15
38 0.15
39 0.15
4 -0.18
40 0.15
41 0.15
42 0.15
43 0.15
44 0.15
45 0.15
5 -0.18
6 0.1
7 0.37
8 -0.15
9 -0.15

>  <PUBCHEM_EFFECTIVE_ROTOR_COUNT>  (1) 
7

>  <PUBCHEM_PHARMACOPHORE_FEATURES>  (1) 
4
1 2 acceptor
6 14 16 17 18 19 20 rings
6 21 22 23 24 25 26 rings
6 6 8 9 11 12 13 rings

>  <PUBCHEM_HEAVY_ATOM_COUNT>  (1) 
26

>  <PUBCHEM_ATOM_DEF_STEREO_COUNT>  (1) 
0

>  <PUBCHEM_ATOM_UDEF_STEREO_COUNT>  (1) 
0

>  <PUBCHEM_BOND_DEF_STEREO_COUNT>  (1) 
0

>  <PUBCHEM_BOND_UDEF_STEREO_COUNT>  (1) 
0

>  <PUBCHEM_ISOTOPIC_ATOM_COUNT>  (1) 
0

>  <PUBCHEM_COMPONENT_COUNT>  (1) 
1

>  <PUBCHEM_CACTVS_TAUTO_COUNT>  (1) 
1

>  <PUBCHEM_CONFORMER_ID>  (1) 
0000A1DA00000001

>  <PUBCHEM_MMFF94_ENERGY>  (1) 
83.1149

>  <PUBCHEM_FEATURE_SELFOVERLAP>  (1) 
20.298

>  <PUBCHEM_SHAPE_FINGERPRINT>  (1) 
10 15 10664098965724050943
10670039 82 15285629963684418807
10693767 8 18410285921932948115
10753850 27 18412543193344635675
11135609 12 18339350950799253344
11410812 94 16733539400369111630
12166972 35 18040438780455081230
12623949 98 17416978223229676774
12760667 363 18201998807680980827
13533116 47 18272650194391571401
13540713 5 18269578094616959408
1361 4 18121218942561699571
13685833 64 18341892991428106875
13782708 43 18114180869726498003
13955234 65 18057882652594639904
14068700 675 18411420570946388648
14347332 77 18410858728714935717
15019793 15 17981042234895873103
15183329 4 16443063876574864667
15510800 12 18131083605571003559
16991971 28 18200327563076338702
20028762 73 18201720635012752238
2026 5 18341609300982501647
208703 8 18193830441162428762
21033648 29 8717957844163937382
21033650 10 17023461937774835981
21315764 119 17967532346756883263
21344244 181 18114748239248929043
21585483 132 17607518030625793786
21641784 216 15574701479453839613
21682296 61 18411421722356274571
22224240 67 11455882564335750629
23522609 53 18052855569415972921
23559900 14 18409724097434473201
23622692 118 18411703153708397296
2838139 119 7853567989756526106
3004659 81 18261106396257674321
34797466 226 17096088125294839173
4066623 53 16081087082943508820
439807 62 18409732859394765919
46194498 28 18040711506573328292
465052 167 18272934933501008046
5028188 123 17844264943463830500
5104073 3 10591500437951371741
5718773 13 18339922594146972090
59682541 35 18060125541321428506
6004065 56 18409728470117310378
6138700 20 18410011014367362843
6438161 24 18342733027487432527
70251023 43 18408886230555866624
7970288 3 18340205189740927254

>  <PUBCHEM_SHAPE_MULTIPOLES>  (1) 
508.39
20
3.55
0.99
21.47
1.08
0.11
-19.24
2.39
-4.62
0.66
-0.23
0.28
0.02

>  <PUBCHEM_SHAPE_SELFOVERLAP>  (1) 
1097.654

>  <PUBCHEM_SHAPE_VOLUME>  (1) 
278.4

>  <PUBCHEM_COORDINATE_TYPE>  (1) 
2
5
10

$$$$
