41435
     RDKit          3D

 26 28  0  0  1  0  0  0  0  0999 V2000
   -3.6247    1.1720   -0.4249 O   0  0  0  0  0  0  0  0  0  0  0  0
   -2.7371    0.0809    1.4069 O   0  0  0  0  0  0  0  0  0  0  0  0
   -2.6367    2.1412   -0.2500 N   0  0  0  0  0  0  0  0  0  0  0  0
    2.8134    0.8794   -0.4605 N   0  0  0  0  0  0  0  0  0  0  0  0
    3.0378   -0.1581    0.2061 N   0  0  0  0  0  0  0  0  0  0  0  0
   -1.2731    1.8267   -0.3040 C   0  0  0  0  0  0  0  0  0  0  0  0
   -0.3906    2.3415    0.6528 C   0  0  0  0  0  0  0  0  0  0  0  0
   -0.7788    0.9931   -1.3139 C   0  0  0  0  0  0  0  0  0  0  0  0
    1.4522    1.1956   -0.4091 C   0  0  0  0  0  0  0  0  0  0  0  0
    0.9674    2.0272    0.6004 C   0  0  0  0  0  0  0  0  0  0  0  0
    0.5791    0.6785   -1.3661 C   0  0  0  0  0  0  0  0  0  0  0  0
    7.1138   -1.1080    0.0535 C   0  0  0  0  0  0  0  0  0  0  0  0
   -3.1340    3.3955    0.2880 C   0  0  0  0  0  0  0  0  0  0  0  0
    4.4057   -0.4764    0.1545 C   0  0  0  0  0  0  0  0  0  0  0  0
   -4.6265   -0.8188    0.2659 C   0  0  0  0  0  0  0  0  0  0  0  0
    6.6291   -0.2755    1.0621 C   0  0  0  0  0  0  0  0  0  0  0  0
    6.2411   -1.6240   -0.9046 C   0  0  0  0  0  0  0  0  0  0  0  0
    5.2716    0.0411    1.1128 C   0  0  0  0  0  0  0  0  0  0  0  0
    4.8836   -1.3073   -0.8539 C   0  0  0  0  0  0  0  0  0  0  0  0
   -3.5750    0.1584    0.4988 C   0  0  0  0  0  0  0  0  0  0  0  0
    8.5653   -1.4455   -0.0023 C   0  0  0  0  0  0  0  0  0  0  0  0
   -4.4226   -2.1567    0.6034 C   0  0  0  0  0  0  0  0  0  0  0  0
   -5.8389   -0.4181   -0.2953 C   0  0  0  0  0  0  0  0  0  0  0  0
   -5.4311   -3.0941    0.3797 C   0  0  0  0  0  0  0  0  0  0  0  0
   -6.8475   -1.3552   -0.5190 C   0  0  0  0  0  0  0  0  0  0  0  0
   -6.6435   -2.6933   -0.1815 C   0  0  0  0  0  0  0  0  0  0  0  0
  1  3  1  0
  1 20  1  0
  2 20  2  0
  3  6  1  0
  3 13  1  0
  4  5  2  0
  4  9  1  0
  5 14  1  0
  6  7  2  0
  6  8  1  0
  7 10  1  0
  8 11  2  0
  9 10  2  0
  9 11  1  0
 12 16  2  0
 12 17  1  0
 12 21  1  0
 14 18  2  0
 14 19  1  0
 15 20  1  0
 15 22  2  0
 15 23  1  0
 16 18  1  0
 17 19  2  0
 22 24  1  0
 23 25  2  0
 24 26  2  0
 25 26  1  0
M  END
>  <PUBCHEM_COMPOUND_CID>  (1) 
41435

>  <PUBCHEM_CONFORMER_RMSD>  (1) 
0.8

>  <PUBCHEM_CONFORMER_DIVERSEORDER>  (1) 
1
30
18
9
39
32
21
29
14
37
8
13
25
36
19
26
2
10
16
34
33
35
23
31
24
20
15
4
27
28
11
5
3
12
17
22
38
6
7

>  <PUBCHEM_MMFF94_PARTIAL_CHARGES>  (1) 
39
1 -0.13
10 -0.15
11 -0.15
12 -0.14
13 0.37
14 0.18
15 0.09
16 -0.15
17 -0.15
18 -0.15
19 -0.15
2 -0.57
20 0.63
21 0.14
22 -0.15
23 -0.15
24 -0.15
25 -0.15
26 -0.15
27 0.15
28 0.15
29 0.15
3 -0.49
30 0.15
34 0.15
35 0.15
36 0.15
37 0.15
4 -0.18
41 0.15
42 0.15
43 0.15
44 0.15
45 0.15
5 -0.18
6 0.1
7 -0.15
8 -0.15
9 0.18

>  <PUBCHEM_EFFECTIVE_ROTOR_COUNT>  (1) 
6

>  <PUBCHEM_PHARMACOPHORE_FEATURES>  (1) 
4
1 2 acceptor
6 12 14 16 17 18 19 rings
6 15 22 23 24 25 26 rings
6 6 7 8 9 10 11 rings

>  <PUBCHEM_HEAVY_ATOM_COUNT>  (1) 
26

>  <PUBCHEM_ATOM_DEF_STEREO_COUNT>  (1) 
0

>  <PUBCHEM_ATOM_UDEF_STEREO_COUNT>  (1) 
0

>  <PUBCHEM_BOND_DEF_STEREO_COUNT>  (1) 
0

>  <PUBCHEM_BOND_UDEF_STEREO_COUNT>  (1) 
0

>  <PUBCHEM_ISOTOPIC_ATOM_COUNT>  (1) 
0

>  <PUBCHEM_COMPONENT_COUNT>  (1) 
1

>  <PUBCHEM_CACTVS_TAUTO_COUNT>  (1) 
1

>  <PUBCHEM_CONFORMER_ID>  (1) 
0000A1DB00000001

>  <PUBCHEM_MMFF94_ENERGY>  (1) 
87.3045

>  <PUBCHEM_FEATURE_SELFOVERLAP>  (1) 
20.297

>  <PUBCHEM_SHAPE_FINGERPRINT>  (1) 
10 15 15913328009044116248
10165383 225 7853574626340848125
10369192 42 8574716801991026099
10917259 69 18340481168451677109
11135609 99 18411419557355167150
11273773 46 18114744945515557467
11475781 23 10665225935220266202
11761917 87 16056052225787752790
12293681 160 12396294859261509756
12522641 126 18116439335493243396
12596602 18 17704073980089125730
12760667 363 18410856581927002921
12838863 1 18129936910376928407
12988421 55 13039192468229361381
13631057 29 18335700520650109480
14068700 675 18261111893700210333
14556957 393 15502663646080789054
14931854 50 17675917686114463467
15183329 4 14490185007725114694
15188451 53 18334853918329755396
15350500 55 12678918796481878939
15510800 12 18261123988238783211
16126227 98 9151176472031528655
16992779 147 16127229286872947858
18608769 82 18342736317627683662
20028762 73 18411420631044756398
20105231 36 17346605154399467990
2026 5 18411978092378470951
20281389 69 10592047955301281998
208703 8 18196642120143879039
21033650 10 16950551165811171933
21054139 6 17968097491559840618
21304304 249 18340769338190528767
21307412 95 18042117812933424023
21315759 148 17988645151837445342
21623969 137 17704073963310254406
21637258 2 18113894974632009548
21756936 100 9439402419987575329
21781051 124 17988936557227165638
22122407 14 12463273865484639354
22864921 47 18189314841564913994
229767 44 17774439507279075127
229767 8 17391651247609465083
2303208 19 17917717843026095428
23389318 12 18113624521490712862
23559900 14 18189614015964440869
23569914 152 12254665607426489376
23622692 118 18335142002913585709
2747138 104 18202562874341808104
2838139 119 9223227425506600618
3004659 81 17895188948082465347
312425 54 18059586728028980787
3383291 50 18335701680403050043
3627633 1 18339080389119391761
392239 28 15769774693291150131
397830 11 18343010117323808864
4073 2 18270122280331952404
4098825 35 10953731205805085721
437815 12 18411418444694704747
444769 64 18333737914771329225
4516262 110 11959735928127488249
474113 269 18272359928513858447
559249 180 18408885153568399735
5718773 13 18340484599360432775
59682541 35 18131060559740986682
6009941 240 18129098926879283897
6138700 20 18335701672229437051
636775 72 8862933970813191662
636775 8 18342466911730458950
6376802 90 17979638935576990476
9689198 14 8358265864667865667
9896288 288 17986959548339669128
999808 66 18202562861077169510

>  <PUBCHEM_SHAPE_MULTIPOLES>  (1) 
508.39
22.25
3.21
1.07
21.82
0.58
-0.04
-21.66
1.14
-5.24
0.21
0.49
0.06
0.69

>  <PUBCHEM_SHAPE_SELFOVERLAP>  (1) 
1098.674

>  <PUBCHEM_SHAPE_VOLUME>  (1) 
279

>  <PUBCHEM_COORDINATE_TYPE>  (1) 
2
5
10

$$$$
