41448
     RDKit          3D

 20 22  0  0  0  0  0  0  0  0999 V2000
   -1.1357    2.0680    0.3366 O   0  0  0  0  0  0  0  0  0  0  0  0
   -0.6820   -1.8331   -1.4033 O   0  0  0  0  0  0  0  0  0  0  0  0
    5.8097   -1.3412    0.2078 O   0  0  0  0  0  0  0  0  0  0  0  0
    4.0511   -0.9617    1.5925 O   0  0  0  0  0  0  0  0  0  0  0  0
    0.1949    0.1353   -0.4546 C   0  0  0  0  0  0  0  0  0  0  0  0
   -2.9073    0.5629   -0.1282 C   0  0  0  0  0  0  0  0  0  0  0  0
   -2.2755   -0.6817   -0.1855 C   0  0  0  0  0  0  0  0  0  0  0  0
    0.0428    1.4308    0.0602 C   0  0  0  0  0  0  0  0  0  0  0  0
   -2.1904    1.7941   -0.5777 C   0  0  0  0  0  0  0  0  0  0  0  0
   -0.9085   -0.8331   -0.7246 C   0  0  0  0  0  0  0  0  0  0  0  0
    2.6192    0.4451   -0.4154 C   0  0  0  0  0  0  0  0  0  0  0  0
    1.4988   -0.3385   -0.6981 C   0  0  0  0  0  0  0  0  0  0  0  0
    1.1768    2.2010    0.3648 C   0  0  0  0  0  0  0  0  0  0  0  0
    2.4585    1.7140    0.1238 C   0  0  0  0  0  0  0  0  0  0  0  0
   -4.2179    0.6418    0.3639 C   0  0  0  0  0  0  0  0  0  0  0  0
   -2.9566   -1.8366    0.2244 C   0  0  0  0  0  0  0  0  0  0  0  0
    3.9873   -0.0866   -0.6793 C   0  0  0  0  0  0  0  0  0  0  0  0
   -4.8904   -0.5067    0.7818 C   0  0  0  0  0  0  0  0  0  0  0  0
   -4.2602   -1.7457    0.7108 C   0  0  0  0  0  0  0  0  0  0  0  0
    4.5853   -0.8283    0.5001 C   0  0  0  0  0  0  0  0  0  0  0  0
  1  8  1  0
  1  9  1  0
  2 10  2  0
  3 20  1  0
  4 20  2  0
  5  8  2  0
  5 10  1  0
  5 12  1  0
  6  7  2  0
  6  9  1  0
  6 15  1  0
  7 10  1  0
  7 16  1  0
  8 13  1  0
 11 12  2  0
 11 14  1  0
 11 17  1  0
 13 14  2  0
 15 18  2  0
 16 19  2  0
 17 20  1  0
 18 19  1  0
M  END
>  <PUBCHEM_COMPOUND_CID>  (1) 
41448

>  <PUBCHEM_CONFORMER_RMSD>  (1) 
0.6

>  <PUBCHEM_CONFORMER_DIVERSEORDER>  (1) 
1
11
7
5
8
10
4
12
6
9
2
3

>  <PUBCHEM_MMFF94_PARTIAL_CHARGES>  (1) 
28
1 -0.36
10 0.4
11 -0.14
12 -0.15
13 -0.15
14 -0.15
15 -0.15
16 -0.15
17 0.2
18 -0.15
19 -0.15
2 -0.57
20 0.66
23 0.15
24 0.15
25 0.15
26 0.15
27 0.15
3 -0.65
30 0.15
31 0.15
32 0.5
4 -0.57
5 0.09
6 -0.14
7 0.09
8 0.08
9 0.42

>  <PUBCHEM_EFFECTIVE_ROTOR_COUNT>  (1) 
2.4

>  <PUBCHEM_PHARMACOPHORE_FEATURES>  (1) 
8
1 1 acceptor
1 2 acceptor
1 3 acceptor
1 4 acceptor
3 3 4 20 anion
6 5 8 11 12 13 14 rings
6 6 7 15 16 18 19 rings
7 1 5 6 7 8 9 10 rings

>  <PUBCHEM_HEAVY_ATOM_COUNT>  (1) 
20

>  <PUBCHEM_ATOM_DEF_STEREO_COUNT>  (1) 
0

>  <PUBCHEM_ATOM_UDEF_STEREO_COUNT>  (1) 
0

>  <PUBCHEM_BOND_DEF_STEREO_COUNT>  (1) 
0

>  <PUBCHEM_BOND_UDEF_STEREO_COUNT>  (1) 
0

>  <PUBCHEM_ISOTOPIC_ATOM_COUNT>  (1) 
0

>  <PUBCHEM_COMPONENT_COUNT>  (1) 
1

>  <PUBCHEM_CACTVS_TAUTO_COUNT>  (1) 
1

>  <PUBCHEM_CONFORMER_ID>  (1) 
0000A1E800000001

>  <PUBCHEM_MMFF94_ENERGY>  (1) 
68.3764

>  <PUBCHEM_FEATURE_SELFOVERLAP>  (1) 
40.673

>  <PUBCHEM_SHAPE_FINGERPRINT>  (1) 
10759866 29 18117570723840399116
11132069 177 17704354376875882079
11796584 16 17967248667749819074
12236239 1 18040439859003529580
12553582 1 18342171202688628278
12633257 1 18340781398500348243
13140716 1 18200873005804031427
13167823 11 18040718056508795058
13288520 33 18334859385712359852
13675066 3 17988924474539636118
13862211 1 18341893013325086095
14178342 30 17986125010471894232
14341114 176 18334019418668228288
14420673 8 18265617581003816722
15042514 8 18267024947270658760
15196674 1 18340491165921965725
15209289 33 18113054943358573611
15375462 189 18333724715535306314
16945 1 18272368672222864037
17804303 29 18411423924956962285
1813 80 17313660550834267252
19784866 135 18408318873944575744
200 152 16008749091575244076
20028762 73 17917428800059560223
20261772 1 18202565111291944366
21033648 29 17274525534772012474
21267235 1 18410302384937745214
21637258 2 17167856491317718274
21682296 61 17844821282403066334
22182313 1 17916032252407757926
2297311 6 18271818874134211574
23184049 59 18201726205705835645
23366157 5 18045501077892389596
23402539 116 18201994417960751533
23559900 14 18261387888193117072
2748010 2 17914343380867019996
2838139 119 14259690984355989483
296302 2 11384120738878046149
335352 9 18410857638357394597
42 15 18334016098690241398
465052 167 18336838592594839867
4990 188 13623526853347696466
5104073 3 18341900735486315833
559249 180 18042680607460323170
76465 3 18336543914772460875
84936 31 16199332909653360733
8809292 202 18335708273055490113

>  <PUBCHEM_SHAPE_MULTIPOLES>  (1) 
388.11
10.05
2.19
0.98
5.03
0.51
0.03
-4.93
2.96
-0.33
0.14
0.27
-0.28
-0.07

>  <PUBCHEM_SHAPE_SELFOVERLAP>  (1) 
858.7

>  <PUBCHEM_SHAPE_VOLUME>  (1) 
205.2

>  <PUBCHEM_COORDINATE_TYPE>  (1) 
2
5
10

$$$$
