4144
     RDKit          3D

 22 23  0  0  0  0  0  0  0  0999 V2000
   -3.6335    0.9556   -0.3807 S   0  0  0  0  0  0  0  0  0  0  0  0
   -4.9902    0.9926    0.1327 O   0  0  0  0  0  0  0  0  0  0  0  0
   -3.3660    1.3826   -1.7406 O   0  0  0  0  0  0  0  0  0  0  0  0
    5.5465   -0.1443   -1.5077 O   0  0  0  0  0  0  0  0  0  0  0  0
    6.8335   -1.1985    0.6218 O   0  0  0  0  0  0  0  0  0  0  0  0
   -2.5968    1.7886    0.7143 N   0  0  0  0  0  0  0  0  0  0  0  0
    5.4505   -0.9746    0.6457 N   0  0  0  0  0  0  0  0  0  0  0  0
    1.5600    1.3074    0.3281 C   0  0  0  0  0  0  0  0  0  0  0  0
    3.0507    1.1364    0.1910 C   0  0  0  0  0  0  0  0  0  0  0  0
   -1.1843    1.6257    0.5831 C   0  0  0  0  0  0  0  0  0  0  0  0
    3.4127   -0.2374   -0.3703 C   0  0  0  0  0  0  0  0  0  0  0  0
    0.8329    1.8314   -0.7308 C   0  0  0  0  0  0  0  0  0  0  0  0
    0.9378    0.9400    1.5123 C   0  0  0  0  0  0  0  0  0  0  0  0
   -0.5469    1.9914   -0.6024 C   0  0  0  0  0  0  0  0  0  0  0  0
   -0.4419    1.1000    1.6406 C   0  0  0  0  0  0  0  0  0  0  0  0
   -3.0690   -0.7139   -0.2178 C   0  0  0  0  0  0  0  0  0  0  0  0
   -3.6493   -1.5309    0.7354 C   0  0  0  0  0  0  0  0  0  0  0  0
   -2.0581   -1.1669   -1.0457 C   0  0  0  0  0  0  0  0  0  0  0  0
    4.9121   -0.4346   -0.4971 C   0  0  0  0  0  0  0  0  0  0  0  0
   -3.2035   -2.8463    0.8650 C   0  0  0  0  0  0  0  0  0  0  0  0
   -1.6123   -2.4824   -0.9162 C   0  0  0  0  0  0  0  0  0  0  0  0
   -2.1850   -3.3220    0.0392 C   0  0  0  0  0  0  0  0  0  0  0  0
  1  2  2  0
  1  3  2  0
  1  6  1  0
  1 16  1  0
  4 19  2  0
  5  7  1  0
  6 10  1  0
  7 19  1  0
  8  9  1  0
  8 12  2  0
  8 13  1  0
  9 11  1  0
 10 14  2  0
 10 15  1  0
 11 19  1  0
 12 14  1  0
 13 15  2  0
 16 17  2  0
 16 18  1  0
 17 20  1  0
 18 21  2  0
 20 22  2  0
 21 22  1  0
M  END
>  <PUBCHEM_COMPOUND_CID>  (1) 
4144

>  <PUBCHEM_CONFORMER_RMSD>  (1) 
0.8

>  <PUBCHEM_CONFORMER_DIVERSEORDER>  (1) 
2
63
25
47
97
13
90
100
3
95
74
109
43
6
27
92
8
45
22
49
104
96
51
17
12
67
36
5
93
110
84
1
87
7
106
70
32
91
34
48
14
76
89
18
28
75
26
83
4
102
108
55
9
62
35
81
101
44
15
33
42
57
29
24
99
112
59
20
94
16
71
98
40
80
111
60
46
21
10
107
50
79
105
88
41
38
11
68
37
52
66
19
85
53
103
69
77
82
86
58
23
30
64
39
56
78
73
54
31
65
61
72

>  <PUBCHEM_MMFF94_PARTIAL_CHARGES>  (1) 
34
1 1.45
10 0.2
11 0.06
12 -0.15
13 -0.15
14 -0.15
15 -0.15
16 -0.01
17 -0.15
18 -0.15
19 0.57
2 -0.65
20 -0.15
21 -0.15
22 -0.15
27 0.15
28 0.15
29 0.42
3 -0.65
30 0.15
31 0.15
32 0.15
33 0.15
34 0.15
35 0.15
36 0.15
37 0.37
38 0.4
4 -0.57
5 -0.44
6 -0.76
7 -0.39
8 -0.14
9 0.14

>  <PUBCHEM_EFFECTIVE_ROTOR_COUNT>  (1) 
7

>  <PUBCHEM_PHARMACOPHORE_FEATURES>  (1) 
7
1 2 acceptor
1 3 acceptor
1 4 acceptor
1 6 donor
1 7 donor
6 16 17 18 20 21 22 rings
6 8 10 12 13 14 15 rings

>  <PUBCHEM_HEAVY_ATOM_COUNT>  (1) 
22

>  <PUBCHEM_ATOM_DEF_STEREO_COUNT>  (1) 
0

>  <PUBCHEM_ATOM_UDEF_STEREO_COUNT>  (1) 
0

>  <PUBCHEM_BOND_DEF_STEREO_COUNT>  (1) 
0

>  <PUBCHEM_BOND_UDEF_STEREO_COUNT>  (1) 
0

>  <PUBCHEM_ISOTOPIC_ATOM_COUNT>  (1) 
0

>  <PUBCHEM_COMPONENT_COUNT>  (1) 
1

>  <PUBCHEM_CACTVS_TAUTO_COUNT>  (1) 
3

>  <PUBCHEM_CONFORMER_ID>  (1) 
0000103000000002

>  <PUBCHEM_MMFF94_ENERGY>  (1) 
48.6103

>  <PUBCHEM_FEATURE_SELFOVERLAP>  (1) 
35.539

>  <PUBCHEM_SHAPE_FINGERPRINT>  (1) 
107951 10 17822011974225552931
10803635 8 18188484683866649324
11036077 3 18341620261848868785
12633257 1 16486425419613154434
12788726 201 17773031956079679705
13257819 37 17750211657618939549
13911852 28 17832710450061072003
14251740 79 18412546491863629811
14251751 18 18410852175301107050
14251757 5 18333727996621431605
14251764 30 17679879372876079323
14866123 147 18339083791566498555
15209294 21 10879997938992989288
15880784 105 15195559087944478564
17492 89 18119531187110513523
19784866 135 18341900748313084635
20775530 9 17767126771295946982
21403212 168 18200604601462595841
221490 88 18268713986135857672
22956985 138 11090748011400209117
23379529 103 17900270997931885715
23402539 116 17168145599105447892
23466295 7 18263091061853852571
23559900 14 18272363218073736960
3383291 50 18201433697201546679
339767 52 18411973638343559626
4015057 19 17488157431297969681
44062 13 18335702770928467103
463206 1 18261392188120051754
5104073 3 18272373113509231400
559249 180 18335979787765768483
574716 61 17604724385830970444
57583515 52 18412542098280715426
6138700 20 18341609305292227695
6437827 68 18338234852240388970

>  <PUBCHEM_SHAPE_MULTIPOLES>  (1) 
423.16
11.3
3.12
1.32
19.87
1.94
-0.01
5.26
0.69
-3.05
-0.11
-0.05
-0.2
0.38

>  <PUBCHEM_SHAPE_SELFOVERLAP>  (1) 
879.112

>  <PUBCHEM_SHAPE_VOLUME>  (1) 
239.4

>  <PUBCHEM_COORDINATE_TYPE>  (1) 
2
5
10

$$$$
