41443
     RDKit          3D

 12 12  0  0  0  0  0  0  0  0999 V2000
    4.9140   -0.4969   -0.0008 I   0  0  0  0  0  0  0  0  0  0  0  0
   -1.8517    2.0747    0.0042 Cl  0  0  0  0  0  0  0  0  0  0  0  0
   -4.5672   -1.1735   -0.0019 O   0  0  0  0  0  0  0  0  0  0  0  0
    0.0972    0.2022    0.0002 C   0  0  0  0  0  0  0  0  0  0  0  0
    0.7875    0.1049   -1.2079 C   0  0  0  0  0  0  0  0  0  0  0  0
    0.7873    0.0995    1.2081 C   0  0  0  0  0  0  0  0  0  0  0  0
    2.1679   -0.0954   -1.2081 C   0  0  0  0  0  0  0  0  0  0  0  0
    2.1677   -0.1006    1.2078 C   0  0  0  0  0  0  0  0  0  0  0  0
   -1.3423    0.4106    0.0007 C   0  0  0  0  0  0  0  0  0  0  0  0
    2.8581   -0.1980   -0.0003 C   0  0  0  0  0  0  0  0  0  0  0  0
   -2.2827   -0.5549   -0.0013 C   0  0  0  0  0  0  0  0  0  0  0  0
   -3.7357   -0.2727   -0.0008 C   0  0  0  0  0  0  0  0  0  0  0  0
  1 10  1  0
  2  9  1  0
  3 12  2  0
  4  5  2  0
  4  6  1  0
  4  9  1  0
  5  7  1  0
  6  8  2  0
  7 10  2  0
  8 10  1  0
  9 11  2  0
 11 12  1  0
M  END
>  <PUBCHEM_COMPOUND_CID>  (1) 
41443

>  <PUBCHEM_CONFORMER_RMSD>  (1) 
0.6

>  <PUBCHEM_CONFORMER_DIVERSEORDER>  (1) 
1
2

>  <PUBCHEM_MMFF94_PARTIAL_CHARGES>  (1) 
18
1 -0.08
10 0.08
11 -0.14
12 0.5
13 0.15
14 0.15
15 0.15
16 0.15
17 0.15
18 0.06
2 -0.14
3 -0.57
4 0.03
5 -0.15
6 -0.15
7 -0.15
8 -0.15
9 0.11

>  <PUBCHEM_EFFECTIVE_ROTOR_COUNT>  (1) 
2

>  <PUBCHEM_PHARMACOPHORE_FEATURES>  (1) 
3
1 1 hydrophobe
1 3 acceptor
6 4 5 6 7 8 10 rings

>  <PUBCHEM_HEAVY_ATOM_COUNT>  (1) 
12

>  <PUBCHEM_ATOM_DEF_STEREO_COUNT>  (1) 
0

>  <PUBCHEM_ATOM_UDEF_STEREO_COUNT>  (1) 
0

>  <PUBCHEM_BOND_DEF_STEREO_COUNT>  (1) 
0

>  <PUBCHEM_BOND_UDEF_STEREO_COUNT>  (1) 
1

>  <PUBCHEM_ISOTOPIC_ATOM_COUNT>  (1) 
0

>  <PUBCHEM_COMPONENT_COUNT>  (1) 
1

>  <PUBCHEM_CACTVS_TAUTO_COUNT>  (1) 
1

>  <PUBCHEM_CONFORMER_ID>  (1) 
0000A1E300000001

>  <PUBCHEM_MMFF94_ENERGY>  (1) 
31.8993

>  <PUBCHEM_FEATURE_SELFOVERLAP>  (1) 
15.223

>  <PUBCHEM_SHAPE_FINGERPRINT>  (1) 
11062470 55 11963389643847161058
11401426 45 15791730823895913158
11471102 20 15285358423093644118
12032990 46 16630534990573173382
12251169 10 15913328013481553775
12932764 1 17561069285650673764
13581323 91 18412260627736245590
13675066 3 13542465367037511522
13690532 89 16660360368605178034
14251717 144 16226043384144653394
14252887 29 15698012824868189246
14576447 43 17022899094451720683
14911166 2 15647058161965931530
14993402 34 16877944936338801186
15219456 202 17346320336650913772
17834072 33 18114184151038716726
17844478 74 17489870418815920801
18186145 218 12901535837419505207
19026448 4 18272086042469415796
19026448 5 18261395490912543248
200 152 17240483610982897785
20279233 1 17632579336115213047
20281407 28 18202570583433583743
20645477 70 14418403361426103680
20871998 22 15194745414922176620
21061003 4 16845566517681454281
21119208 17 16877941654820341031
21256008 61 17240482520161438030
21293036 1 15719392832722997514
23402539 116 18408880728865751421
23402655 69 15285624491980700103
23557571 272 18271811181136212140
26918003 58 16702304572657645419
2748010 2 15337446549604019728
77492 1 17676491605540601409

>  <PUBCHEM_SHAPE_MULTIPOLES>  (1) 
254.89
8.35
1.17
1.11
0.67
0.51
0
-2.86
0
-1.25
0
0.7
0.02
0

>  <PUBCHEM_SHAPE_SELFOVERLAP>  (1) 
496.997

>  <PUBCHEM_SHAPE_VOLUME>  (1) 
157.2

>  <PUBCHEM_COORDINATE_TYPE>  (1) 
2
5
10

$$$$
