41457
     RDKit          3D

 16 16  0  0  0  0  0  0  0  0999 V2000
   -5.2714   -1.4279   -1.0203 Cl  0  0  0  0  0  0  0  0  0  0  0  0
    0.8997    1.0813    1.0427 O   0  0  0  0  0  0  0  0  0  0  0  0
    3.2153   -0.0104    0.0140 N   0  0  0  0  0  0  0  0  0  0  0  0
   -0.3218   -0.6437    0.0207 N   0  0  0  0  0  0  0  0  0  0  0  0
    2.0496   -0.8708    0.2132 C   0  0  0  0  0  0  0  0  0  0  0  0
    3.0000    0.8876   -1.1199 C   0  0  0  0  0  0  0  0  0  0  0  0
    4.4168   -0.8179   -0.1943 C   0  0  0  0  0  0  0  0  0  0  0  0
    0.8281   -0.0109    0.4886 C   0  0  0  0  0  0  0  0  0  0  0  0
    4.2022    1.7896   -1.3419 C   0  0  0  0  0  0  0  0  0  0  0  0
    4.6905   -1.7138    1.0020 C   0  0  0  0  0  0  0  0  0  0  0  0
   -1.6544   -0.1718    0.0861 C   0  0  0  0  0  0  0  0  0  0  0  0
   -2.6752   -0.9469   -0.4383 C   0  0  0  0  0  0  0  0  0  0  0  0
   -1.9087    1.0569    0.6725 C   0  0  0  0  0  0  0  0  0  0  0  0
   -3.9881   -0.4801   -0.3745 C   0  0  0  0  0  0  0  0  0  0  0  0
   -3.2215    1.5238    0.7364 C   0  0  0  0  0  0  0  0  0  0  0  0
   -4.2612    0.7551    0.2129 C   0  0  0  0  0  0  0  0  0  0  0  0
  1 14  1  0
  2  8  2  0
  3  5  1  0
  3  6  1  0
  3  7  1  0
  4  8  1  0
  4 11  1  0
  5  8  1  0
  6  9  1  0
  7 10  1  0
 11 12  2  0
 11 13  1  0
 12 14  1  0
 13 15  2  0
 14 16  2  0
 15 16  1  0
M  END
>  <PUBCHEM_COMPOUND_CID>  (1) 
41457

>  <PUBCHEM_CONFORMER_RMSD>  (1) 
0.8

>  <PUBCHEM_CONFORMER_DIVERSEORDER>  (1) 
1
15
11
8
16
9
5
13
10
12
14
7
6
4
3
2

>  <PUBCHEM_MMFF94_PARTIAL_CHARGES>  (1) 
19
1 -0.18
11 0.12
12 -0.15
13 -0.15
14 0.18
15 -0.15
16 -0.15
2 -0.57
29 0.37
3 -0.81
30 0.15
31 0.15
32 0.15
33 0.15
4 -0.55
5 0.33
6 0.27
7 0.27
8 0.57

>  <PUBCHEM_EFFECTIVE_ROTOR_COUNT>  (1) 
6

>  <PUBCHEM_PHARMACOPHORE_FEATURES>  (1) 
4
1 2 acceptor
1 3 cation
1 4 donor
6 11 12 13 14 15 16 rings

>  <PUBCHEM_HEAVY_ATOM_COUNT>  (1) 
16

>  <PUBCHEM_ATOM_DEF_STEREO_COUNT>  (1) 
0

>  <PUBCHEM_ATOM_UDEF_STEREO_COUNT>  (1) 
0

>  <PUBCHEM_BOND_DEF_STEREO_COUNT>  (1) 
0

>  <PUBCHEM_BOND_UDEF_STEREO_COUNT>  (1) 
0

>  <PUBCHEM_ISOTOPIC_ATOM_COUNT>  (1) 
0

>  <PUBCHEM_COMPONENT_COUNT>  (1) 
1

>  <PUBCHEM_CACTVS_TAUTO_COUNT>  (1) 
2

>  <PUBCHEM_CONFORMER_ID>  (1) 
0000A1F100000001

>  <PUBCHEM_MMFF94_ENERGY>  (1) 
37.8469

>  <PUBCHEM_FEATURE_SELFOVERLAP>  (1) 
20.297

>  <PUBCHEM_SHAPE_FINGERPRINT>  (1) 
10062212 137 18342172241638229363
10912923 1 18411704283120661785
11128504 68 18334859458689952301
11543360 7 18113336448758400243
12236239 1 18409728443561600690
12616971 3 18335146358189362601
12616999 72 17846229860161571398
12916754 54 18113898256076584015
13167823 11 18409448068175996394
13760787 5 18260833695909737665
13862211 1 17988633156284438703
14252887 29 14908183045159728670
15375358 24 15913321369230437302
17804303 29 17775283885317116905
17834072 33 18409449206421029023
18186145 218 16805047319759621080
19026448 5 18409452479085894628
19422 9 18410014325216890082
1986462 14 17989207036449047185
200 152 18408600362175394531
20279233 1 16271925991381225326
20281475 54 18413105043902402115
20300324 65 18272371984043348185
20374829 77 17988916795744876351
20612939 158 18040157327433235180
20645477 70 18040435482274054002
22646028 1 18411133615290558946
23402539 116 18343012264500890773
23532345 12 18338800009885576176
23557571 272 17131564868038413556
23559900 14 18060126656925988513
23590187 198 18340484448566968498
29717793 49 18410570669632124807
3004659 81 18412546488101542302
3286 77 18272079513486357016
474 4 17604718909790034444
5104073 3 18131067151740573347
559249 180 18268705022175237371
57096353 35 18412824720229952751
573450 72 18271240525995235139
633830 44 17676492717726082817
67856867 119 18410289255286252256
90127 26 16732983106887082781
9971528 1 18261109635306561010

>  <PUBCHEM_SHAPE_MULTIPOLES>  (1) 
315.31
11.68
1.71
1.1
0.43
0.16
-0.14
-2.5
-2.35
0.68
-0.07
0.4
0.19
-2.33

>  <PUBCHEM_SHAPE_SELFOVERLAP>  (1) 
626.914

>  <PUBCHEM_SHAPE_VOLUME>  (1) 
188.6

>  <PUBCHEM_COORDINATE_TYPE>  (1) 
2
5
10

$$$$
