41455
     RDKit          3D

 26 28  0  0  0  0  0  0  0  0999 V2000
   -1.4629   -4.5016   -0.2421 Cl  0  0  0  0  0  0  0  0  0  0  0  0
   -3.8292   -2.2039   -0.2208 S   0  0  0  0  0  0  0  0  0  0  0  0
    1.6430    1.3941   -0.0035 O   0  0  0  0  0  0  0  0  0  0  0  0
   -2.5510    0.5553   -0.1133 N   0  0  0  0  0  0  0  0  0  0  0  0
   -4.2088    2.8814   -0.1015 N   0  0  0  0  0  0  0  0  0  0  0  0
   -0.3070   -0.2090   -0.0907 N   0  0  0  0  0  0  0  0  0  0  0  0
    1.9083   -0.9592   -0.0682 N   0  0  0  0  0  0  0  0  0  0  0  0
    0.2072   -2.5625   -0.1506 N   0  0  0  0  0  0  0  0  0  0  0  0
   -2.5318    1.4672    1.0375 C   0  0  0  0  0  0  0  0  0  0  0  0
   -3.0042    1.1404   -1.3788 C   0  0  0  0  0  0  0  0  0  0  0  0
   -3.8654    2.2083    1.1573 C   0  0  0  0  0  0  0  0  0  0  0  0
   -4.3222    1.8933   -1.1811 C   0  0  0  0  0  0  0  0  0  0  0  0
   -1.6389   -0.5060   -0.1265 C   0  0  0  0  0  0  0  0  0  0  0  0
   -5.4565    3.6307    0.0415 C   0  0  0  0  0  0  0  0  0  0  0  0
   -2.0851   -1.8290   -0.1747 C   0  0  0  0  0  0  0  0  0  0  0  0
    0.5375   -1.2578   -0.1048 C   0  0  0  0  0  0  0  0  0  0  0  0
   -1.1179   -2.8133   -0.1848 C   0  0  0  0  0  0  0  0  0  0  0  0
    2.3686    0.4006   -0.0184 C   0  0  0  0  0  0  0  0  0  0  0  0
    2.9334   -2.0459   -0.0797 C   0  0  0  0  0  0  0  0  0  0  0  0
   -4.2234   -2.3337    1.5457 C   0  0  0  0  0  0  0  0  0  0  0  0
    3.8163    0.6807    0.0305 C   0  0  0  0  0  0  0  0  0  0  0  0
    4.5145    0.8416   -1.1541 C   0  0  0  0  0  0  0  0  0  0  0  0
    4.4453    0.7762    1.2600 C   0  0  0  0  0  0  0  0  0  0  0  0
    5.8833    1.1060   -1.1077 C   0  0  0  0  0  0  0  0  0  0  0  0
    5.8141    1.0406    1.3064 C   0  0  0  0  0  0  0  0  0  0  0  0
    6.5331    1.2056    0.1226 C   0  0  0  0  0  0  0  0  0  0  0  0
  1 17  1  0
  2 15  1  0
  2 20  1  0
  3 18  2  0
  4  9  1  0
  4 10  1  0
  4 13  1  0
  5 11  1  0
  5 12  1  0
  5 14  1  0
  6 13  2  0
  6 16  1  0
  7 16  1  0
  7 18  1  0
  7 19  1  0
  8 16  2  0
  8 17  1  0
  9 11  1  0
 10 12  1  0
 13 15  1  0
 15 17  2  0
 18 21  1  0
 21 22  2  0
 21 23  1  0
 22 24  1  0
 23 25  2  0
 24 26  2  0
 25 26  1  0
M  END
>  <PUBCHEM_COMPOUND_CID>  (1) 
41455

>  <PUBCHEM_CONFORMER_RMSD>  (1) 
0.8

>  <PUBCHEM_CONFORMER_DIVERSEORDER>  (1) 
1
50
47
59
73
22
77
19
26
49
42
45
48
37
33
72
20
61
69
79
60
68
14
5
70
54
16
32
66
62
58
6
10
57
76
11
17
9
34
25
13
74
46
8
75
18
71
15
29
7
78
55
27
36
67
23
51
44
40
52
56
38
31
35
41
39
43
28
64
2
4
30
63
24
21
12
53
65
3

>  <PUBCHEM_MMFF94_PARTIAL_CHARGES>  (1) 
31
1 -0.18
10 0.37
11 0.27
12 0.27
13 0.41
14 0.27
15 0.1
16 0.74
17 0.49
18 0.54
19 0.3
2 -0.33
20 0.23
21 0.09
22 -0.15
23 -0.15
24 -0.15
25 -0.15
26 -0.15
3 -0.57
4 -0.84
44 0.15
45 0.15
46 0.15
47 0.15
48 0.15
5 -0.81
6 -0.62
7 -0.48
8 -0.62
9 0.37

>  <PUBCHEM_EFFECTIVE_ROTOR_COUNT>  (1) 
6.2

>  <PUBCHEM_PHARMACOPHORE_FEATURES>  (1) 
8
1 20 hydrophobe
1 3 acceptor
1 4 cation
1 5 cation
1 8 acceptor
6 21 22 23 24 25 26 rings
6 4 5 9 10 11 12 rings
6 6 8 13 15 16 17 rings

>  <PUBCHEM_HEAVY_ATOM_COUNT>  (1) 
26

>  <PUBCHEM_ATOM_DEF_STEREO_COUNT>  (1) 
0

>  <PUBCHEM_ATOM_UDEF_STEREO_COUNT>  (1) 
0

>  <PUBCHEM_BOND_DEF_STEREO_COUNT>  (1) 
0

>  <PUBCHEM_BOND_UDEF_STEREO_COUNT>  (1) 
0

>  <PUBCHEM_ISOTOPIC_ATOM_COUNT>  (1) 
0

>  <PUBCHEM_COMPONENT_COUNT>  (1) 
1

>  <PUBCHEM_CACTVS_TAUTO_COUNT>  (1) 
1

>  <PUBCHEM_CONFORMER_ID>  (1) 
0000A1EF00000001

>  <PUBCHEM_MMFF94_ENERGY>  (1) 
98.4259

>  <PUBCHEM_FEATURE_SELFOVERLAP>  (1) 
40.599

>  <PUBCHEM_SHAPE_FINGERPRINT>  (1) 
10411042 1 17690560105985004391
105312 117 18411981360320023308
10675989 125 17618219503904294529
10937287 8 18340205172544662179
11056379 131 18267025131732940518
11135609 187 18265319635376061557
11796584 16 18341898490199718190
12107183 9 18190728744861547570
12236239 1 17532082960046191846
12293681 160 17774718658540841217
12390115 104 18341622503077777659
12403259 118 18187086186918022912
12422481 6 17603861149165575900
12788726 201 18263630939391010147
13073987 5 18335697287141122378
13140716 1 18265051332082794155
13540713 4 18268166287469223983
13540713 5 18265313063110857523
14068700 675 18121489413583590247
14142880 1 18333446547952257239
14251764 75 18339366249425906257
14790565 3 18196658384609651880
15324884 4 17173794748404983013
15513586 35 17315938811878751076
16087824 20 18340202012589053639
17844677 252 18267586986986419096
17980427 23 17458635527069836621
18608769 82 18341613771836630363
19784866 34 18269269076151317145
21033648 144 18187919513720883631
21033648 29 17489297638236039504
21033650 10 18190483699844654238
21236236 1 18410574015216241839
21279426 13 18201447939649976494
21756936 100 18343298175825500820
22122407 14 15936402373034013358
22182313 1 18270981088469742918
23557571 272 18200889473156998678
23559900 14 18057039112976539398
23569914 152 16696126180476847596
23929065 36 18055608845405082578
283562 15 18409163351243107067
350125 39 18338240469941145377
4409770 3 18336821005162900071
469060 322 18263944278882141931
474 4 18125436402729357865
5104073 3 18334008368202984842
59755656 215 18342742965714889998
6327066 14 18335979770929414613
7288768 16 18260833640349534665
77188 2 17474387358346574831
7808743 9 18408882914798896177
9981440 41 18409727327466443611

>  <PUBCHEM_SHAPE_MULTIPOLES>  (1) 
510.01
13.85
4.43
1.18
16.63
2.28
-0.13
-11.4
-0.87
-8.13
0.01
0.01
-0.36
0.53

>  <PUBCHEM_SHAPE_SELFOVERLAP>  (1) 
1053.476

>  <PUBCHEM_SHAPE_VOLUME>  (1) 
295.9

>  <PUBCHEM_COORDINATE_TYPE>  (1) 
2
5
10

$$$$
