41451
     RDKit          3D

 27 29  0  0  1  0  0  0  0  0999 V2000
   -3.2125   -1.7991    0.1466 O   0  0  0  0  0  0  0  0  0  0  0  0
   -5.8831   -2.6716    0.0314 O   0  0  0  0  0  0  0  0  0  0  0  0
    3.0048   -0.9813    0.2109 O   0  0  0  0  0  0  0  0  0  0  0  0
    4.2434    2.8292   -0.5062 O   0  0  0  0  0  0  0  0  0  0  0  0
   -5.3707    0.9777   -0.3247 N   0  0  0  0  0  0  0  0  0  0  0  0
   -5.4618   -1.4788   -0.6367 C   0  0  0  0  0  0  0  0  0  0  0  0
   -5.7139   -0.2935    0.2981 C   0  0  0  0  0  0  0  0  0  0  0  0
   -5.6727    2.0917    0.5638 C   0  0  0  0  0  0  0  0  0  0  0  0
   -3.9955   -1.6330   -1.0346 C   0  0  0  0  0  0  0  0  0  0  0  0
   -7.1626    2.1168    0.8931 C   0  0  0  0  0  0  0  0  0  0  0  0
   -5.2344    3.3974   -0.0918 C   0  0  0  0  0  0  0  0  0  0  0  0
    2.0968    0.0362   -0.0244 C   0  0  0  0  0  0  0  0  0  0  0  0
    0.7087   -0.4434    0.0196 C   0  0  0  0  0  0  0  0  0  0  0  0
    2.4150    1.3244   -0.2633 C   0  0  0  0  0  0  0  0  0  0  0  0
   -1.9270   -1.3544    0.1054 C   0  0  0  0  0  0  0  0  0  0  0  0
    4.8224    0.5993   -0.0441 C   0  0  0  0  0  0  0  0  0  0  0  0
    4.3408   -0.6836    0.1956 C   0  0  0  0  0  0  0  0  0  0  0  0
    3.8619    1.6858   -0.2897 C   0  0  0  0  0  0  0  0  0  0  0  0
    0.0907   -0.9014   -1.1440 C   0  0  0  0  0  0  0  0  0  0  0  0
    0.0085   -0.4409    1.2262 C   0  0  0  0  0  0  0  0  0  0  0  0
   -1.2270   -1.3568   -1.1011 C   0  0  0  0  0  0  0  0  0  0  0  0
   -1.3092   -0.8964    1.2692 C   0  0  0  0  0  0  0  0  0  0  0  0
    1.4566    2.4560   -0.4994 C   0  0  0  0  0  0  0  0  0  0  0  0
    6.1982    0.8454   -0.0493 C   0  0  0  0  0  0  0  0  0  0  0  0
    5.2308   -1.7318    0.4325 C   0  0  0  0  0  0  0  0  0  0  0  0
    7.0873   -0.2036    0.1882 C   0  0  0  0  0  0  0  0  0  0  0  0
    6.6046   -1.4903    0.4288 C   0  0  0  0  0  0  0  0  0  0  0  0
  1  9  1  0
  1 15  1  0
  2  6  1  0
  3 12  1  0
  3 17  1  0
  4 18  2  0
  5  7  1  0
  5  8  1  0
  6  7  1  0
  6  9  1  0
  8 10  1  0
  8 11  1  0
 12 13  1  0
 12 14  2  0
 13 19  2  0
 13 20  1  0
 14 18  1  0
 14 23  1  0
 15 21  2  0
 15 22  1  0
 16 17  2  0
 16 18  1  0
 16 24  1  0
 17 25  1  0
 19 21  1  0
 20 22  2  0
 24 26  2  0
 25 27  2  0
 26 27  1  0
M  END
>  <PUBCHEM_COMPOUND_CID>  (1) 
41451

>  <PUBCHEM_CONFORMER_RMSD>  (1) 
0.8

>  <PUBCHEM_CONFORMER_DIVERSEORDER>  (1) 
3
33
93
48
131
97
138
55
82
65
95
136
91
85
112
41
134
35
123
115
84
100
36
120
128
27
105
98
117
109
88
61
116
125
119
94
38
18
66
29
30
44
132
34
101
111
118
51
130
45
60
50
108
73
75
127
89
43
68
14
135
133
87
126
103
124
86
78
53
139
37
62
114
110
28
76
113
5
140
57
102
121
56
107
59
15
47
71
137
90
11
58
83
13
99
52
49
69
4
122
32
92
31
104
67
81
54
72
1
12
70
106
63
16
74
17
6
7
64
77
39
19
80
46
22
20
40
8
10
96
79
2
42
25
21
26
9
23
24
129

>  <PUBCHEM_MMFF94_PARTIAL_CHARGES>  (1) 
35
1 -0.36
12 0.05
13 0.03
14 -0.12
15 0.08
16 0.09
17 0.08
18 0.47
19 -0.15
2 -0.68
20 -0.15
21 -0.15
22 -0.15
23 0.14
24 -0.15
25 -0.15
26 -0.15
27 -0.15
3 -0.16
32 0.36
4 -0.57
41 0.15
42 0.15
43 0.4
44 0.15
45 0.15
49 0.15
5 -0.9
50 0.15
51 0.15
52 0.15
6 0.28
7 0.27
8 0.27
9 0.28

>  <PUBCHEM_EFFECTIVE_ROTOR_COUNT>  (1) 
7

>  <PUBCHEM_PHARMACOPHORE_FEATURES>  (1) 
11
1 1 acceptor
1 2 acceptor
1 2 donor
1 3 acceptor
1 4 acceptor
1 5 cation
1 5 donor
3 8 10 11 hydrophobe
6 13 15 19 20 21 22 rings
6 16 17 24 25 26 27 rings
6 3 12 14 16 17 18 rings

>  <PUBCHEM_HEAVY_ATOM_COUNT>  (1) 
27

>  <PUBCHEM_ATOM_DEF_STEREO_COUNT>  (1) 
0

>  <PUBCHEM_ATOM_UDEF_STEREO_COUNT>  (1) 
1

>  <PUBCHEM_BOND_DEF_STEREO_COUNT>  (1) 
0

>  <PUBCHEM_BOND_UDEF_STEREO_COUNT>  (1) 
0

>  <PUBCHEM_ISOTOPIC_ATOM_COUNT>  (1) 
0

>  <PUBCHEM_COMPONENT_COUNT>  (1) 
1

>  <PUBCHEM_CACTVS_TAUTO_COUNT>  (1) 
1

>  <PUBCHEM_CONFORMER_ID>  (1) 
0000A1EB00000003

>  <PUBCHEM_MMFF94_ENERGY>  (1) 
72.8213

>  <PUBCHEM_FEATURE_SELFOVERLAP>  (1) 
55.852

>  <PUBCHEM_SHAPE_FINGERPRINT>  (1) 
100830 39 18410573947045917357
10595046 47 18266739263046539743
10670039 82 18412818085070196913
10906281 52 18114195137481001430
11475781 23 17560529403982852333
12107183 9 18265610987943817227
12166972 35 18270399511190307321
12236239 1 18059293270700363630
13073987 5 18337953505874833155
13167372 99 18411419514109834700
13785724 45 17980482261417896550
13914758 101 18413390921384212546
14251752 14 18273493468286110123
14849402 71 18187653560350513213
15021287 119 18113903766815160469
15183329 4 18334005095036886983
15419008 42 17916309325138072487
15604295 49 18130217285720691840
17844677 252 18336833090826077703
19302320 297 18337966614564251721
19611394 137 18115884061094032611
20511986 3 17988915696032905466
21033648 29 17845916503563579250
21130935 74 18410570704409159634
21133410 90 17346591997923552169
21236236 1 18412543211178528501
21267235 1 18410292515667537918
21315763 129 18411701027931187759
21315763 28 18410572920258596255
21859007 373 17917418813969946112
221357 26 18114172069258822326
23522609 53 17896340093765357428
23536379 177 18410853282601316010
23559900 14 18188767396136897658
23569943 247 16879326957804158314
249057 25 18261117430366216309
2838139 119 18411698773221498565
3009799 131 15913324672123624187
350125 39 18410009927582134556
4073 2 17823137998602194050
4098825 35 18408884057671439232
4144715 1 18335993038041089731
5104073 3 18260260893037537336
531348 171 18272087219301660639
59755656 520 17530686511295754699
6086070 43 17632570569902567001
6299153 45 18338518530102221585
6328613 192 18408604772795844116
6700243 42 17412780515435900871

>  <PUBCHEM_SHAPE_MULTIPOLES>  (1) 
527.19
20.08
3.05
0.97
5.33
1.84
-0.03
3.7
-2.27
3.96
0.28
0.51
-0.17
-1.73

>  <PUBCHEM_SHAPE_SELFOVERLAP>  (1) 
1124.885

>  <PUBCHEM_SHAPE_VOLUME>  (1) 
294

>  <PUBCHEM_COORDINATE_TYPE>  (1) 
2
5
10

$$$$
