41461
     RDKit          3D

 12 11  0  0  1  0  0  0  0  0999 V2000
    3.0019    0.3067    0.0590 C   0  0  0  0  0  0  0  0  0  0  0  0
    1.6649   -0.4876    0.3323 C   0  0  0  0  0  0  0  0  0  0  0  0
    0.4010    0.2373   -0.2051 C   0  0  0  0  0  0  0  0  0  0  0  0
   -0.9198   -0.3948    0.2572 C   0  0  0  0  0  0  0  0  0  0  0  0
    4.2103   -0.4327    0.6760 C   0  0  0  0  0  0  0  0  0  0  0  0
    2.9650    1.7339    0.6370 C   0  0  0  0  0  0  0  0  0  0  0  0
    3.2678    0.4091   -1.4603 C   0  0  0  0  0  0  0  0  0  0  0  0
    1.7088   -1.9342   -0.1916 C   0  0  0  0  0  0  0  0  0  0  0  0
   -2.1581    0.3673   -0.2285 C   0  0  0  0  0  0  0  0  0  0  0  0
   -3.4765   -0.2761    0.2071 C   0  0  0  0  0  0  0  0  0  0  0  0
   -4.6753    0.5605   -0.2420 C   0  0  0  0  0  0  0  0  0  0  0  0
   -5.9900   -0.0894    0.1589 C   0  0  0  0  0  0  0  0  0  0  0  0
  1  2  1  0
  1  5  1  0
  1  6  1  0
  1  7  1  0
  2  3  1  0
  2  8  1  0
  3  4  1  0
  4  9  1  0
  9 10  1  0
 10 11  1  0
 11 12  1  0
M  END
>  <PUBCHEM_COMPOUND_CID>  (1) 
41461

>  <PUBCHEM_CONFORMER_RMSD>  (1) 
0.6

>  <PUBCHEM_CONFORMER_DIVERSEORDER>  (1) 
1
6
68
48
71
22
70
45
35
12
50
29
69
47
44
5
74
67
52
38
73
64
39
18
3
15
61
30
34
72
63
40
75
9
23
49
10
17
76
55
26
19
60
57
43
13
56
7
25
51
2
14
53
32
33
42
37
4
8
59
20
65
41
36
62
16
54
58
24
21
46
11
28
27
66
31

>  <PUBCHEM_MMFF94_PARTIAL_CHARGES>  (1) 
0

>  <PUBCHEM_EFFECTIVE_ROTOR_COUNT>  (1) 
6

>  <PUBCHEM_PHARMACOPHORE_FEATURES>  (1) 
3
1 12 hydrophobe
1 8 hydrophobe
4 1 5 6 7 hydrophobe

>  <PUBCHEM_HEAVY_ATOM_COUNT>  (1) 
12

>  <PUBCHEM_ATOM_DEF_STEREO_COUNT>  (1) 
0

>  <PUBCHEM_ATOM_UDEF_STEREO_COUNT>  (1) 
1

>  <PUBCHEM_BOND_DEF_STEREO_COUNT>  (1) 
0

>  <PUBCHEM_BOND_UDEF_STEREO_COUNT>  (1) 
0

>  <PUBCHEM_ISOTOPIC_ATOM_COUNT>  (1) 
0

>  <PUBCHEM_COMPONENT_COUNT>  (1) 
1

>  <PUBCHEM_CACTVS_TAUTO_COUNT>  (1) 
1

>  <PUBCHEM_CONFORMER_ID>  (1) 
0000A1F500000001

>  <PUBCHEM_MMFF94_ENERGY>  (1) 
18.9205

>  <PUBCHEM_FEATURE_SELFOVERLAP>  (1) 
15.225

>  <PUBCHEM_SHAPE_FINGERPRINT>  (1) 
11287383 113 18271806865242212323
12616999 72 18335990800083163886
13533116 47 13623797320323786409
14123238 8 18040436599149712471
14251718 22 16343414090310028231
17834072 33 18271803553933255327
17834076 25 18260831501313240215
18186145 218 18273496783958593049
190213 19 16988565714413618587
20279233 1 17967259680568082131
20645477 70 18339924801469953495
20724930 37 17095240315228851083
212847 35 18260267455948304388
22485316 2 18413105057378160663
23402539 116 17603577535421699959
23402655 69 18273496775453054557
23532345 1 18413110567383215315
23557571 272 17313099701277732615
3060560 45 18202569475442837142
4047638 21 18412262861066427072
42 15 12757144675924717025
42788 4 17313104151275313741
449060 50 18411136948591102663
449060 62 18259706709270667668
4990 188 17560807631942863495
522135 26 18060421296067105815
5374978 207 18333726914352879081
58051976 378 18131350791354478679

>  <PUBCHEM_SHAPE_MULTIPOLES>  (1) 
246.95
11.23
1.3
0.9
16.47
0.16
-0.21
-1.24
0.41
-1.26
0.09
-0.8
-0.11
0.14

>  <PUBCHEM_SHAPE_SELFOVERLAP>  (1) 
444.754

>  <PUBCHEM_SHAPE_VOLUME>  (1) 
163

>  <PUBCHEM_COORDINATE_TYPE>  (1) 
2
5
10

$$$$
