41469
     RDKit          3D

  9  9  0  0  0  0  0  0  0  0999 V2000
    3.0215   -0.1567    0.1842 O   0  0  0  0  0  0  0  0  0  0  0  0
   -3.0330   -0.3496   -0.4108 O   0  0  0  0  0  0  0  0  0  0  0  0
   -1.0393    0.1468   -0.0494 N   0  0  0  0  0  0  0  0  0  0  0  0
   -2.2848    0.2814    0.3423 N   0  0  0  0  0  0  0  0  0  0  0  0
   -0.2121    1.3181    0.2754 C   0  0  0  0  0  0  0  0  0  0  0  0
   -0.4004   -1.1028    0.3928 C   0  0  0  0  0  0  0  0  0  0  0  0
    1.1605    1.2433   -0.3882 C   0  0  0  0  0  0  0  0  0  0  0  0
    0.9633   -1.3034   -0.2630 C   0  0  0  0  0  0  0  0  0  0  0  0
    1.8243   -0.0772   -0.0834 C   0  0  0  0  0  0  0  0  0  0  0  0
  1  9  2  0
  2  4  2  0
  3  4  1  0
  3  5  1  0
  3  6  1  0
  5  7  1  0
  6  8  1  0
  7  9  1  0
  8  9  1  0
M  END
>  <PUBCHEM_COMPOUND_CID>  (1) 
41469

>  <PUBCHEM_CONFORMER_RMSD>  (1) 
0.4

>  <PUBCHEM_CONFORMER_DIVERSEORDER>  (1) 
1
13
8
4
11
6
9
2
10
3
5
7
12

>  <PUBCHEM_MMFF94_PARTIAL_CHARGES>  (1) 
9
1 -0.57
2 -0.16
3 -0.36
4 -0.01
5 0.27
6 0.27
7 0.06
8 0.06
9 0.45

>  <PUBCHEM_EFFECTIVE_ROTOR_COUNT>  (1) 
2

>  <PUBCHEM_PHARMACOPHORE_FEATURES>  (1) 
2
1 1 acceptor
6 3 5 6 7 8 9 rings

>  <PUBCHEM_HEAVY_ATOM_COUNT>  (1) 
9

>  <PUBCHEM_ATOM_DEF_STEREO_COUNT>  (1) 
0

>  <PUBCHEM_ATOM_UDEF_STEREO_COUNT>  (1) 
0

>  <PUBCHEM_BOND_DEF_STEREO_COUNT>  (1) 
0

>  <PUBCHEM_BOND_UDEF_STEREO_COUNT>  (1) 
0

>  <PUBCHEM_ISOTOPIC_ATOM_COUNT>  (1) 
0

>  <PUBCHEM_COMPONENT_COUNT>  (1) 
1

>  <PUBCHEM_CACTVS_TAUTO_COUNT>  (1) 
2

>  <PUBCHEM_CONFORMER_ID>  (1) 
0000A1FD00000001

>  <PUBCHEM_MMFF94_ENERGY>  (1) 
12.8358

>  <PUBCHEM_FEATURE_SELFOVERLAP>  (1) 
10.148

>  <PUBCHEM_SHAPE_FINGERPRINT>  (1) 
14325111 11 18409730689908630733
18185500 45 18341051834915190111
21040471 1 18194124242240513268
23235685 24 18410009944529583212
23402655 69 18194664992289191253
23552423 10 18118132363670324782
241688 4 17904774271352055802
2748010 2 18121789597084270702
29004967 10 18336554840894747520
5084963 1 18411418414381961664

>  <PUBCHEM_SHAPE_MULTIPOLES>  (1) 
163.52
3.55
1.38
0.66
1
0.07
0
-0.26
0.15
-0.24
0.01
0.02
0
-0.08

>  <PUBCHEM_SHAPE_SELFOVERLAP>  (1) 
323.276

>  <PUBCHEM_SHAPE_VOLUME>  (1) 
97.9

>  <PUBCHEM_COORDINATE_TYPE>  (1) 
2
5
10

$$$$
