41468
     RDKit          3D

 12 12  0  0  1  0  0  0  0  0999 V2000
    3.4616   -0.0624    0.7538 O   0  0  0  0  0  0  0  0  0  0  0  0
   -3.2157   -1.1165   -0.1188 O   0  0  0  0  0  0  0  0  0  0  0  0
    1.4894    0.2781    0.1712 N   0  0  0  0  0  0  0  0  0  0  0  0
   -1.3763   -0.1586    0.1255 N   0  0  0  0  0  0  0  0  0  0  0  0
    2.7551    0.4113   -0.1414 N   0  0  0  0  0  0  0  0  0  0  0  0
   -2.5868   -0.3394    0.6063 N   0  0  0  0  0  0  0  0  0  0  0  0
    0.9547   -1.0811    0.0114 C   0  0  0  0  0  0  0  0  0  0  0  0
   -0.8365    1.2168    0.2284 C   0  0  0  0  0  0  0  0  0  0  0  0
    0.5958    1.3104   -0.3577 C   0  0  0  0  0  0  0  0  0  0  0  0
   -0.4330   -1.1465    0.6747 C   0  0  0  0  0  0  0  0  0  0  0  0
    0.8933   -1.5703   -1.4466 C   0  0  0  0  0  0  0  0  0  0  0  0
   -1.7015    2.2582   -0.5067 C   0  0  0  0  0  0  0  0  0  0  0  0
  1  5  2  0
  2  6  2  0
  3  5  1  0
  3  7  1  0
  3  9  1  0
  4  6  1  0
  4  8  1  0
  4 10  1  0
  7 10  1  0
  7 11  1  0
  8  9  1  0
  8 12  1  0
M  END
>  <PUBCHEM_COMPOUND_CID>  (1) 
41468

>  <PUBCHEM_CONFORMER_RMSD>  (1) 
0.6

>  <PUBCHEM_CONFORMER_DIVERSEORDER>  (1) 
3
32
26
12
17
14
27
6
18
2
23
8
16
25
19
4
33
34
22
29
1
24
15
21
7
31
13
10
11
20
28
5
9
30

>  <PUBCHEM_MMFF94_PARTIAL_CHARGES>  (1) 
10
1 -0.16
10 0.27
2 -0.16
3 -0.36
4 -0.36
5 -0.01
6 -0.01
7 0.27
8 0.27
9 0.27

>  <PUBCHEM_EFFECTIVE_ROTOR_COUNT>  (1) 
3.2

>  <PUBCHEM_PHARMACOPHORE_FEATURES>  (1) 
1
6 3 4 7 8 9 10 rings

>  <PUBCHEM_HEAVY_ATOM_COUNT>  (1) 
12

>  <PUBCHEM_ATOM_DEF_STEREO_COUNT>  (1) 
0

>  <PUBCHEM_ATOM_UDEF_STEREO_COUNT>  (1) 
2

>  <PUBCHEM_BOND_DEF_STEREO_COUNT>  (1) 
0

>  <PUBCHEM_BOND_UDEF_STEREO_COUNT>  (1) 
0

>  <PUBCHEM_ISOTOPIC_ATOM_COUNT>  (1) 
0

>  <PUBCHEM_COMPONENT_COUNT>  (1) 
1

>  <PUBCHEM_CACTVS_TAUTO_COUNT>  (1) 
1

>  <PUBCHEM_CONFORMER_ID>  (1) 
0000A1FC00000003

>  <PUBCHEM_MMFF94_ENERGY>  (1) 
26.4456

>  <PUBCHEM_FEATURE_SELFOVERLAP>  (1) 
5.074

>  <PUBCHEM_SHAPE_FINGERPRINT>  (1) 
10219947 1 18341054124101233843
11206711 2 18334299755568510445
12138202 97 18117830015236984461
12423570 1 12143330639997132052
13380535 21 18126300644026943181
13380535 239 18271815553512652887
13380535 76 18194390092052517013
15219456 202 18200033906897175182
15310529 11 14908194018363359098
16945 1 18335425698435341322
18380122 1 18272094876520993343
20201158 50 18408885148561366855
20511035 2 17833558168480968105
20711978 78 17058945341859134463
20871998 184 18341890792357398108
21040471 1 17684376057273221293
21501502 16 18265617572107251338
23402539 116 18337661001422353319
23552423 10 18115881697580215122
241688 4 18120955905103390184
2748010 2 18194973941295461415
5084963 1 18413110567325219008
68250623 7 18191298274124578178

>  <PUBCHEM_SHAPE_MULTIPOLES>  (1) 
215.29
4
1.94
0.92
0.66
0.48
-0.22
-0.16
0.61
-0.89
-0.45
0.23
-0.27
0.44

>  <PUBCHEM_SHAPE_SELFOVERLAP>  (1) 
423.453

>  <PUBCHEM_SHAPE_VOLUME>  (1) 
127.6

>  <PUBCHEM_COORDINATE_TYPE>  (1) 
2
5
10

$$$$
