41474
     RDKit          3D

 19 20  0  0  1  0  0  0  0  0999 V2000
    0.6152    2.4574   -0.6778 O   0  0  0  0  0  0  0  0  0  0  0  0
    0.3136    2.8135    1.5776 O   0  0  0  0  0  0  0  0  0  0  0  0
   -0.9104   -2.9137    1.0834 O   0  0  0  0  0  0  0  0  0  0  0  0
   -1.4133   -1.2675   -0.0980 N   0  0  0  0  0  0  0  0  0  0  0  0
   -1.4497   -1.8029    1.1019 N   0  0  0  0  0  0  0  0  0  0  0  0
   -1.1119    0.1802   -0.1385 C   0  0  0  0  0  0  0  0  0  0  0  0
   -2.3178    1.0373    0.2909 C   0  0  0  0  0  0  0  0  0  0  0  0
    0.1459    0.5632    0.6533 C   0  0  0  0  0  0  0  0  0  0  0  0
   -3.5530    0.7099   -0.5463 C   0  0  0  0  0  0  0  0  0  0  0  0
   -3.8283   -0.7909   -0.5630 C   0  0  0  0  0  0  0  0  0  0  0  0
   -2.5749   -1.5854   -0.9460 C   0  0  0  0  0  0  0  0  0  0  0  0
    1.3698   -0.1982    0.1812 C   0  0  0  0  0  0  0  0  0  0  0  0
    0.3510    2.0689    0.6063 C   0  0  0  0  0  0  0  0  0  0  0  0
    1.4896   -0.5129   -1.1597 C   0  0  0  0  0  0  0  0  0  0  0  0
    2.3350   -0.5579    1.1032 C   0  0  0  0  0  0  0  0  0  0  0  0
    2.6151   -1.2129   -1.5942 C   0  0  0  0  0  0  0  0  0  0  0  0
    3.4605   -1.2578    0.6685 C   0  0  0  0  0  0  0  0  0  0  0  0
    3.6005   -1.5853   -0.6802 C   0  0  0  0  0  0  0  0  0  0  0  0
    0.8632    3.8549   -0.8625 C   0  0  0  0  0  0  0  0  0  0  0  0
  1 13  1  0
  1 19  1  0
  2 13  2  0
  3  5  2  0
  4  5  1  0
  4  6  1  0
  4 11  1  0
  6  7  1  0
  6  8  1  0
  7  9  1  0
  8 12  1  0
  8 13  1  0
  9 10  1  0
 10 11  1  0
 12 14  2  0
 12 15  1  0
 14 16  1  0
 15 17  2  0
 16 18  2  0
 17 18  1  0
M  END
>  <PUBCHEM_COMPOUND_CID>  (1) 
41474

>  <PUBCHEM_CONFORMER_RMSD>  (1) 
0.8

>  <PUBCHEM_CONFORMER_DIVERSEORDER>  (1) 
1
14
20
10
30
35
22
13
32
27
7
25
34
17
9
11
23
24
2
5
3
16
15
21
29
36
31
4
12
19
6
28
33
8
26
18

>  <PUBCHEM_MMFF94_PARTIAL_CHARGES>  (1) 
21
1 -0.43
11 0.27
12 -0.14
13 0.66
14 -0.15
15 -0.15
16 -0.15
17 -0.15
18 -0.15
19 0.28
2 -0.57
3 -0.16
30 0.15
31 0.15
32 0.15
33 0.15
34 0.15
4 -0.36
5 -0.01
6 0.27
8 0.2

>  <PUBCHEM_EFFECTIVE_ROTOR_COUNT>  (1) 
6.2

>  <PUBCHEM_PHARMACOPHORE_FEATURES>  (1) 
3
1 2 acceptor
6 12 14 15 16 17 18 rings
6 4 6 7 9 10 11 rings

>  <PUBCHEM_HEAVY_ATOM_COUNT>  (1) 
19

>  <PUBCHEM_ATOM_DEF_STEREO_COUNT>  (1) 
0

>  <PUBCHEM_ATOM_UDEF_STEREO_COUNT>  (1) 
2

>  <PUBCHEM_BOND_DEF_STEREO_COUNT>  (1) 
0

>  <PUBCHEM_BOND_UDEF_STEREO_COUNT>  (1) 
0

>  <PUBCHEM_ISOTOPIC_ATOM_COUNT>  (1) 
0

>  <PUBCHEM_COMPONENT_COUNT>  (1) 
1

>  <PUBCHEM_CACTVS_TAUTO_COUNT>  (1) 
1

>  <PUBCHEM_CONFORMER_ID>  (1) 
0000A20200000001

>  <PUBCHEM_MMFF94_ENERGY>  (1) 
47.3994

>  <PUBCHEM_FEATURE_SELFOVERLAP>  (1) 
15.223

>  <PUBCHEM_SHAPE_FINGERPRINT>  (1) 
11582403 64 15679626581254755088
11680986 33 18266735968648127921
12788726 201 18191874414212319396
13149001 5 18261673774259255907
13464514 151 18190184666314013908
13681431 1 18341621476702166660
14022347 108 18265065655777269986
14115302 16 18040157309678872454
14181834 199 18057308685959958820
14648413 74 18192429890516580697
15490181 7 17186172963593578288
15848700 24 18272078366687735335
1601671 61 18120936093153126197
16752209 62 18046623395848605044
16945 1 18114186297979175387
17357779 13 18057020446526061653
17990270 104 18270396225561145190
18186145 218 18189319308356612695
20233049 118 18041265574386323967
20510252 161 18123464986749313104
20511035 2 18053928830144599825
20600515 1 18336248103316131992
20711985 344 18125451817045327354
20871999 31 18337395950110140230
21285901 2 17985548849235630453
21501502 16 18197495340981253767
21524375 3 17186461044219395352
22802520 49 18191873537944129939
229495 10 16303509531355645829
23402539 116 18267859493633351502
23419403 2 17982973896146546448
23557571 272 18342459189094079332
23558518 356 18339918333697052761
23559900 14 18193827361258205955
2748010 2 18341326764488381290
3250762 1 17973450085318837715
7364860 26 18128812143301616889
74978 22 18261675981893694459
81228 2 18197793097941723752
9709674 26 18194113247330366607
9981440 41 17407936144186666265

>  <PUBCHEM_SHAPE_MULTIPOLES>  (1) 
363.44
5.51
3.42
1.33
0.52
3.34
0.02
-3.44
1.23
-0.04
-0.04
-0.55
-0.05
0.08

>  <PUBCHEM_SHAPE_SELFOVERLAP>  (1) 
757.888

>  <PUBCHEM_SHAPE_VOLUME>  (1) 
203.7

>  <PUBCHEM_COORDINATE_TYPE>  (1) 
2
5
10

$$$$
