41473
     RDKit          3D

 11 11  0  0  0  0  0  0  0  0999 V2000
    3.0213    1.3415   -0.5825 O   0  0  0  0  0  0  0  0  0  0  0  0
   -3.3905    0.9813    0.3477 O   0  0  0  0  0  0  0  0  0  0  0  0
    1.5937   -0.0557    0.0141 N   0  0  0  0  0  0  0  0  0  0  0  0
   -1.5908   -0.0161   -0.0077 N   0  0  0  0  0  0  0  0  0  0  0  0
    2.8513    0.3094    0.0740 N   0  0  0  0  0  0  0  0  0  0  0  0
   -2.7577    0.3408   -0.4975 N   0  0  0  0  0  0  0  0  0  0  0  0
   -0.0750   -1.9688    0.3102 C   0  0  0  0  0  0  0  0  0  0  0  0
    1.3705   -1.4983    0.1165 C   0  0  0  0  0  0  0  0  0  0  0  0
   -1.1062   -1.2772   -0.5827 C   0  0  0  0  0  0  0  0  0  0  0  0
    0.6848    0.7744    0.7981 C   0  0  0  0  0  0  0  0  0  0  0  0
   -0.6014    1.0685    0.0098 C   0  0  0  0  0  0  0  0  0  0  0  0
  1  5  2  0
  2  6  2  0
  3  5  1  0
  3  8  1  0
  3 10  1  0
  4  6  1  0
  4  9  1  0
  4 11  1  0
  7  8  1  0
  7  9  1  0
 10 11  1  0
M  END
>  <PUBCHEM_COMPOUND_CID>  (1) 
41473

>  <PUBCHEM_CONFORMER_RMSD>  (1) 
0.6

>  <PUBCHEM_CONFORMER_DIVERSEORDER>  (1) 
1
18
14
20
10
19
22
9
23
7
12
16
17
3
4
8
5
6
15
13
11
2
21

>  <PUBCHEM_MMFF94_PARTIAL_CHARGES>  (1) 
10
1 -0.16
10 0.27
11 0.27
2 -0.16
3 -0.36
4 -0.36
5 -0.01
6 -0.01
8 0.27
9 0.27

>  <PUBCHEM_EFFECTIVE_ROTOR_COUNT>  (1) 
3.4

>  <PUBCHEM_PHARMACOPHORE_FEATURES>  (1) 
1
7 3 4 7 8 9 10 11 rings

>  <PUBCHEM_HEAVY_ATOM_COUNT>  (1) 
11

>  <PUBCHEM_ATOM_DEF_STEREO_COUNT>  (1) 
0

>  <PUBCHEM_ATOM_UDEF_STEREO_COUNT>  (1) 
0

>  <PUBCHEM_BOND_DEF_STEREO_COUNT>  (1) 
0

>  <PUBCHEM_BOND_UDEF_STEREO_COUNT>  (1) 
0

>  <PUBCHEM_ISOTOPIC_ATOM_COUNT>  (1) 
0

>  <PUBCHEM_COMPONENT_COUNT>  (1) 
1

>  <PUBCHEM_CACTVS_TAUTO_COUNT>  (1) 
1

>  <PUBCHEM_CONFORMER_ID>  (1) 
0000A20100000001

>  <PUBCHEM_MMFF94_ENERGY>  (1) 
29.3699

>  <PUBCHEM_FEATURE_SELFOVERLAP>  (1) 
5.074

>  <PUBCHEM_SHAPE_FINGERPRINT>  (1) 
12897270 3 18410856568477858468
13380535 21 18411428318698157767
14325111 11 18410855451796742017
15775835 57 18341894082465753589
16945 1 18131627906696517763
20653085 51 18042137612157028676
21040471 1 18339913904826238890
23235685 24 18408879646328329132
23552423 10 18194398883998135011
23559900 14 18201158849991960616
241688 4 16970832485843737226
2748010 2 17042877461225505687
5084963 1 18127966408422115058
528862 383 18189609462707958355
528886 8 18409725179381122640

>  <PUBCHEM_SHAPE_MULTIPOLES>  (1) 
194.71
4.21
1.79
0.73
0.69
0.72
0.02
-2.04
-0.45
-0.25
0.04
-0.02
-0.02
-0.32

>  <PUBCHEM_SHAPE_SELFOVERLAP>  (1) 
380.712

>  <PUBCHEM_SHAPE_VOLUME>  (1) 
115.2

>  <PUBCHEM_COORDINATE_TYPE>  (1) 
2
5
10

$$$$
