41480
     RDKit          3D

 16 17  0  0  0  0  0  0  0  0999 V2000
   -3.0001    0.1276    0.1704 O   0  0  0  0  0  0  0  0  0  0  0  0
   -1.9352   -1.6869   -0.7638 O   0  0  0  0  0  0  0  0  0  0  0  0
    2.9382   -0.3594    0.1749 C   0  0  0  0  0  0  0  0  0  0  0  0
    2.2933   -1.6898    0.6487 C   0  0  0  0  0  0  0  0  0  0  0  0
    1.7052    0.5019    0.0257 C   0  0  0  0  0  0  0  0  0  0  0  0
    0.8847   -1.7454    0.0385 C   0  0  0  0  0  0  0  0  0  0  0  0
    0.5495   -0.2898   -0.0434 C   0  0  0  0  0  0  0  0  0  0  0  0
    3.6377   -0.5324   -1.1798 C   0  0  0  0  0  0  0  0  0  0  0  0
    3.9270    0.1682    1.2177 C   0  0  0  0  0  0  0  0  0  0  0  0
   -0.7023    0.2786   -0.2145 C   0  0  0  0  0  0  0  0  0  0  0  0
    1.6190    1.8836   -0.0684 C   0  0  0  0  0  0  0  0  0  0  0  0
   -0.7931    1.6686   -0.3014 C   0  0  0  0  0  0  0  0  0  0  0  0
    0.3591    2.4655   -0.2285 C   0  0  0  0  0  0  0  0  0  0  0  0
   -1.9034   -0.5358   -0.3087 C   0  0  0  0  0  0  0  0  0  0  0  0
   -4.2480   -0.5731    0.1324 C   0  0  0  0  0  0  0  0  0  0  0  0
   -5.3316    0.3184    0.7004 C   0  0  0  0  0  0  0  0  0  0  0  0
  1 14  1  0
  1 15  1  0
  2 14  2  0
  3  4  1  0
  3  5  1  0
  3  8  1  0
  3  9  1  0
  4  6  1  0
  5  7  2  0
  5 11  1  0
  6  7  1  0
  7 10  1  0
 10 12  2  0
 10 14  1  0
 11 13  2  0
 12 13  1  0
 15 16  1  0
M  END
>  <PUBCHEM_COMPOUND_CID>  (1) 
41480

>  <PUBCHEM_CONFORMER_RMSD>  (1) 
0.6

>  <PUBCHEM_CONFORMER_DIVERSEORDER>  (1) 
1
6
4
10
2
3
17
8
14
7
16
9
5
13
15
12
11

>  <PUBCHEM_MMFF94_PARTIAL_CHARGES>  (1) 
15
1 -0.43
10 0.09
11 -0.15
12 -0.15
13 -0.15
14 0.63
15 0.28
2 -0.57
27 0.15
28 0.15
29 0.15
3 0.14
5 -0.14
6 0.14
7 -0.14

>  <PUBCHEM_EFFECTIVE_ROTOR_COUNT>  (1) 
3.6

>  <PUBCHEM_PHARMACOPHORE_FEATURES>  (1) 
4
1 2 acceptor
3 3 8 9 hydrophobe
5 3 4 5 6 7 rings
6 5 7 10 11 12 13 rings

>  <PUBCHEM_HEAVY_ATOM_COUNT>  (1) 
16

>  <PUBCHEM_ATOM_DEF_STEREO_COUNT>  (1) 
0

>  <PUBCHEM_ATOM_UDEF_STEREO_COUNT>  (1) 
0

>  <PUBCHEM_BOND_DEF_STEREO_COUNT>  (1) 
0

>  <PUBCHEM_BOND_UDEF_STEREO_COUNT>  (1) 
0

>  <PUBCHEM_ISOTOPIC_ATOM_COUNT>  (1) 
0

>  <PUBCHEM_COMPONENT_COUNT>  (1) 
1

>  <PUBCHEM_CACTVS_TAUTO_COUNT>  (1) 
1

>  <PUBCHEM_CONFORMER_ID>  (1) 
0000A20800000001

>  <PUBCHEM_MMFF94_ENERGY>  (1) 
47.7516

>  <PUBCHEM_FEATURE_SELFOVERLAP>  (1) 
20.379

>  <PUBCHEM_SHAPE_FINGERPRINT>  (1) 
10354089 29 18411991247814637219
10967382 1 18409726279051018830
10980938 120 18410012165133183309
11132069 177 18342167886609807026
11471102 20 18408318917194824861
11796584 16 16153978072039926139
12251169 10 18341891909307169379
12553582 1 18409160000324077806
12644460 14 18115033020701441408
13140716 1 18265328597954014442
13221675 6 18410293609834288783
13675066 3 17988645216066730603
14022347 108 18334586711113362026
14115302 16 17458638820988297283
14178342 30 18192982721865020448
14252887 29 18272376351619107674
14790565 3 18336557126113579612
15048467 5 17346596400364334344
15375462 189 18187357723055457347
15490181 8 17543627990376487572
15501101 241 18186800318157899389
15536298 74 18272652401920183204
15848700 24 18413105060955638508
16945 1 18409157805938349598
18785283 64 17896892164577303093
19141452 34 17989485229569993567
200 152 10737284654196720915
20645477 70 18411136982877144175
20871998 22 18339927004455256294
21267235 1 18337680732285800722
21421861 104 17461717303512034651
21501502 16 18120933073120665071
2255824 54 18189899888438607932
23184049 59 18342459235980016823
2334 1 17976817919494140366
23419403 2 15015888863438331976
23463225 33 18409445890595441639
23557571 272 18272374118890027316
23598291 2 18199746019745243279
2748010 2 18047471415861529638
34934 24 18410843365505673990
5104073 3 18338519767685741081
537710 114 18260274044354036820
7364860 26 18200313363281870356
7495541 125 16950573232672175745
7832392 63 18342456001627212319
81228 2 18263650554453441896
84936 182 17769655635365855249

>  <PUBCHEM_SHAPE_MULTIPOLES>  (1) 
317.53
7.7
2.03
0.9
8.58
0.73
-0.02
-1.41
-1.68
-0.55
0.14
-0.53
-0.1
-0.15

>  <PUBCHEM_SHAPE_SELFOVERLAP>  (1) 
672.819

>  <PUBCHEM_SHAPE_VOLUME>  (1) 
182

>  <PUBCHEM_COORDINATE_TYPE>  (1) 
2
5
10

$$$$
