41489
     RDKit          3D

 31 34  0  0  1  0  0  0  0  0999 V2000
    4.0606    1.6968    0.3707 O   0  0  0  0  0  0  0  0  0  0  0  0
   -1.6083    0.2017    2.7537 O   0  0  0  0  0  0  0  0  0  0  0  0
    7.0543   -0.0545   -0.8575 N   0  0  0  0  0  0  0  0  0  0  0  0
    6.9958   -1.4160   -0.3264 C   0  0  0  0  0  0  0  0  0  0  0  0
    8.4766    0.2866   -0.8720 C   0  0  0  0  0  0  0  0  0  0  0  0
    8.1534   -2.1067   -1.0321 C   0  0  0  0  0  0  0  0  0  0  0  0
    9.1281   -0.9882   -1.3876 C   0  0  0  0  0  0  0  0  0  0  0  0
    6.2660    0.8829   -0.0714 C   0  0  0  0  0  0  0  0  0  0  0  0
   -2.3035    0.1321    0.4341 C   0  0  0  0  0  0  0  0  0  0  0  0
   -3.4437    1.1990    0.5227 C   0  0  0  0  0  0  0  0  0  0  0  0
    4.7925    0.7786   -0.4308 C   0  0  0  0  0  0  0  0  0  0  0  0
   -2.8352   -1.2964    0.4706 C   0  0  0  0  0  0  0  0  0  0  0  0
   -4.4452    1.0838   -0.6214 C   0  0  0  0  0  0  0  0  0  0  0  0
   -1.2555    0.3418    1.5645 C   0  0  0  0  0  0  0  0  0  0  0  0
   -2.8740    2.6276    0.5624 C   0  0  0  0  0  0  0  0  0  0  0  0
    0.1220    0.6920    1.2558 C   0  0  0  0  0  0  0  0  0  0  0  0
   -2.1988   -2.2965   -0.2646 C   0  0  0  0  0  0  0  0  0  0  0  0
   -3.9583   -1.6031    1.2388 C   0  0  0  0  0  0  0  0  0  0  0  0
   -5.7932    1.3648   -0.3994 C   0  0  0  0  0  0  0  0  0  0  0  0
   -4.0132    0.6970   -1.8900 C   0  0  0  0  0  0  0  0  0  0  0  0
    2.7636    1.3645    0.6629 C   0  0  0  0  0  0  0  0  0  0  0  0
    0.7002    0.2608    0.0619 C   0  0  0  0  0  0  0  0  0  0  0  0
    0.8646    1.4594    2.1532 C   0  0  0  0  0  0  0  0  0  0  0  0
    2.0210    0.5971   -0.2346 C   0  0  0  0  0  0  0  0  0  0  0  0
    2.1853    1.7956    1.8568 C   0  0  0  0  0  0  0  0  0  0  0  0
   -2.6855   -3.6033   -0.2317 C   0  0  0  0  0  0  0  0  0  0  0  0
   -4.4449   -2.9100    1.2718 C   0  0  0  0  0  0  0  0  0  0  0  0
   -6.7094    1.2591   -1.4459 C   0  0  0  0  0  0  0  0  0  0  0  0
   -4.9293    0.5913   -2.9366 C   0  0  0  0  0  0  0  0  0  0  0  0
   -3.8085   -3.9100    0.5365 C   0  0  0  0  0  0  0  0  0  0  0  0
   -6.2774    0.8724   -2.7145 C   0  0  0  0  0  0  0  0  0  0  0  0
  1 11  1  0
  1 21  1  0
  2 14  2  0
  3  4  1  0
  3  5  1  0
  3  8  1  0
  4  6  1  0
  5  7  1  0
  6  7  1  0
  8 11  1  0
  9 10  1  0
  9 12  1  0
  9 14  1  0
 10 13  1  0
 10 15  1  0
 12 17  2  0
 12 18  1  0
 13 19  2  0
 13 20  1  0
 14 16  1  0
 16 22  2  0
 16 23  1  0
 17 26  1  0
 18 27  2  0
 19 28  1  0
 20 29  2  0
 21 24  2  0
 21 25  1  0
 22 24  1  0
 23 25  2  0
 26 30  2  0
 27 30  1  0
 28 31  2  0
 29 31  1  0
M  END
>  <PUBCHEM_COMPOUND_CID>  (1) 
41489

>  <PUBCHEM_CONFORMER_RMSD>  (1) 
1

>  <PUBCHEM_CONFORMER_DIVERSEORDER>  (1) 
1
189
351
390
345
365
187
220
315
198
62
278
19
282
383
329
386
241
287
355
200
318
340
109
116
196
373
169
344
176
72
371
5
393
337
372
61
202
279
195
334
346
96
356
375
63
339
171
277
141
326
145
125
361
381
77
377
284
68
133
147
129
45
159
374
203
210
14
188
360
317
382
175
151
89
54
353
364
185
140
327
126
162
305
258
266
211
290
205
321
150
24
286
22
107
379
48
15
29
98
66
135
225
170
78
246
13
76
105
213
127
197
111
316
26
121
370
283
16
212
245
95
388
83
389
172
259
307
154
244
85
313
206
149
298
238
65
385
74
178
366
51
23
114
222
123
18
359
235
155
293
128
265
87
314
102
112
106
120
173
100
53
91
292
378
302
193
164
208
146
276
384
43
299
110
71
67
153
291
113
25
272
157
186
280
232
249
285
264
270
139
183
93
296
104
358
115
148
30
160
84
101
226
207
181
130
257
132
367
90
122
350
156
281
301
137
275
42
52
58
143
134
204
167
260
180
124
267
219
341
217
161
254
39
4
397
242
75
35
255
229
2
227
218
237
247
163
330
47
253
342
236
117
369
81
33
59
50
333
380
352
36
300
144
310
138
332
387
55
7
3
256
73
119
395
10
288
312
179
209
9
131
136
190
221
41
306
240
331
230
11
234
308
60
297
32
309
289
94
392
376
184
31
347
335
70
64
191
243
86
118
166
165
336
294
304
394
262
338
354
268
192
99
319
103
233
194
271
21
152
343
251
252
57
108
20
396
328
69
34
357
199
223
250
391
17
8
12
261
325
323
231
348
295
80
182
216
177
88
349
274
322
324
368
320
40
174
44
37
248
214
201
56
49
46
28
303
168
269
239
142
79
273
6
224
215
82
362
311
158
263
97
27
363
228
92
38

>  <PUBCHEM_MMFF94_PARTIAL_CHARGES>  (1) 
42
1 -0.36
10 0.14
11 0.28
12 -0.14
13 -0.14
14 0.42
16 0.09
17 -0.15
18 -0.15
19 -0.15
2 -0.57
20 -0.15
21 0.08
22 -0.15
23 -0.15
24 -0.15
25 -0.15
26 -0.15
27 -0.15
28 -0.15
29 -0.15
3 -0.81
30 -0.15
31 -0.15
4 0.27
49 0.15
5 0.27
50 0.15
51 0.15
52 0.15
53 0.15
54 0.15
55 0.15
56 0.15
57 0.15
58 0.15
59 0.15
60 0.15
61 0.15
62 0.15
8 0.27
9 0.2

>  <PUBCHEM_EFFECTIVE_ROTOR_COUNT>  (1) 
10

>  <PUBCHEM_PHARMACOPHORE_FEATURES>  (1) 
8
1 1 acceptor
1 15 hydrophobe
1 2 acceptor
1 3 cation
5 3 4 5 6 7 rings
6 12 17 18 26 27 30 rings
6 13 19 20 28 29 31 rings
6 16 21 22 23 24 25 rings

>  <PUBCHEM_HEAVY_ATOM_COUNT>  (1) 
31

>  <PUBCHEM_ATOM_DEF_STEREO_COUNT>  (1) 
0

>  <PUBCHEM_ATOM_UDEF_STEREO_COUNT>  (1) 
2

>  <PUBCHEM_BOND_DEF_STEREO_COUNT>  (1) 
0

>  <PUBCHEM_BOND_UDEF_STEREO_COUNT>  (1) 
0

>  <PUBCHEM_ISOTOPIC_ATOM_COUNT>  (1) 
0

>  <PUBCHEM_COMPONENT_COUNT>  (1) 
1

>  <PUBCHEM_CACTVS_TAUTO_COUNT>  (1) 
2

>  <PUBCHEM_CONFORMER_ID>  (1) 
0000A21100000001

>  <PUBCHEM_MMFF94_ENERGY>  (1) 
95.7415

>  <PUBCHEM_FEATURE_SELFOVERLAP>  (1) 
40.597

>  <PUBCHEM_SHAPE_FINGERPRINT>  (1) 
10 15 9079114454024265924
10119406 146 18342459214394664175
10165383 225 18408888409227502361
10369192 42 14851610963996685970
10391435 84 18342171198899900666
105312 117 18260535724612437861
10554248 39 14924208431930601032
10674148 151 17060334103341136753
11135926 11 18341059531866389122
117089 54 17686070791419160026
12120059 9 18270945917984784642
12643181 29 18410571778197838882
13165053 103 17489315152622822415
13690498 29 18335986466630214370
13761468 95 17749946635992663221
13782708 43 18129381673392803430
15064981 113 18192414308264669597
15064986 266 18202007641970416377
15131766 46 14490459894591414805
15183329 4 18260267409252271064
15230672 131 18335136467107163634
15347590 135 10592042474981412164
15439362 3 18046905979491322213
15510800 12 17774738501880261014
18603816 31 17203330061341458527
20505436 4 17241036627230988641
21033650 10 17603585227117601857
21057603 238 18335709338150325751
21223535 225 16298382475056070308
21307412 95 18343297085199317149
22393880 68 18335414720741604378
22956985 138 10300660907542886029
23559900 14 18270955851368564264
23576562 1 17604427526608810629
249057 3 18261111880831132732
25025965 108 16987712386739788358
25269216 80 17458632262763342306
32027 91 17988359368950547584
3610482 184 16660634150910248704
3663271 9 11887683840780738780
44802255 64 17531242830067733175
44880568 143 17676491696347228364
484985 159 18059308655241784459
5104073 3 17131568218977802552
5911458 16 13623540022097150414
6009941 240 18334859420394358678
6697151 62 17917135166209386032
9953998 17 12247684859319638071

>  <PUBCHEM_SHAPE_MULTIPOLES>  (1) 
621.25
23.03
3.26
2.25
58.45
3.89
0.46
3.95
16.83
-4.11
-0.75
-2.92
-0.75
3.71

>  <PUBCHEM_SHAPE_SELFOVERLAP>  (1) 
1329.897

>  <PUBCHEM_SHAPE_VOLUME>  (1) 
343.7

>  <PUBCHEM_COORDINATE_TYPE>  (1) 
2
5
10

$$$$
