41481
     RDKit          3D

 12 11  0  0  1  0  0  0  0  0999 V2000
    1.6207   -1.6651   -0.7170 S   0  0  0  0  0  0  0  0  0  0  0  0
   -2.3938    1.2066   -1.4840 O   0  0  0  0  0  0  0  0  0  0  0  0
   -2.4561    1.6035    0.7413 O   0  0  0  0  0  0  0  0  0  0  0  0
    2.6391    1.2213    1.3032 O   0  0  0  0  0  0  0  0  0  0  0  0
    3.0276    1.1546   -0.9351 O   0  0  0  0  0  0  0  0  0  0  0  0
   -2.5481   -1.0847    1.3825 N   0  0  0  0  0  0  0  0  0  0  0  0
   -1.1105   -1.3439   -0.5896 C   0  0  0  0  0  0  0  0  0  0  0  0
   -2.3712   -0.7015    0.0053 C   0  0  0  0  0  0  0  0  0  0  0  0
    0.1886   -0.8573    0.0566 C   0  0  0  0  0  0  0  0  0  0  0  0
   -2.3933    0.8074   -0.1894 C   0  0  0  0  0  0  0  0  0  0  0  0
    2.9193   -0.9168    0.2927 C   0  0  0  0  0  0  0  0  0  0  0  0
    2.8776    0.5759    0.1335 C   0  0  0  0  0  0  0  0  0  0  0  0
  1  9  1  0
  1 11  1  0
  2 10  1  0
  3 10  2  0
  4 12  1  0
  5 12  2  0
  6  8  1  0
  7  8  1  0
  7  9  1  0
  8 10  1  0
 11 12  1  0
M  END
>  <PUBCHEM_COMPOUND_CID>  (1) 
41481

>  <PUBCHEM_CONFORMER_RMSD>  (1) 
0.6

>  <PUBCHEM_CONFORMER_DIVERSEORDER>  (1) 
1
43
217
133
190
187
11
216
31
169
194
9
150
119
220
62
221
71
197
6
214
161
179
162
50
206
73
224
15
99
182
155
53
203
41
208
167
22
229
173
45
103
140
111
60
226
201
72
233
232
158
3
23
101
183
25
58
223
230
12
95
8
213
218
17
52
227
88
44
153
96
131
138
49
139
123
175
137
19
136
168
189
46
195
212
178
5
86
120
193
209
97
171
132
4
104
207
134
115
106
204
34
172
93
145
215
196
7
28
146
59
2
29
198
89
144
164
174
141
33
147
180
163
127
26
10
38
105
156
211
36
70
130
81
124
47
77
129
114
85
188
100
87
231
76
14
67
228
84
75
151
91
32
128
48
142
148
202
63
149
117
55
166
83
116
90
184
159
51
35
65
176
107
177
13
64
66
57
126
185
143
16
80
154
30
157
102
192
121
20
82
18
92
110
181
21
98
61
222
24
79
113
125
74
165
118
68
69
56
94
78
109
170
205
199
40
225
160
39
200
210
42
112
27
191
152
122
186
37
135
219
54
108

>  <PUBCHEM_MMFF94_PARTIAL_CHARGES>  (1) 
15
1 -0.46
10 0.66
11 0.29
12 0.66
18 0.36
19 0.36
2 -0.65
22 0.5
23 0.5
3 -0.57
4 -0.65
5 -0.57
6 -0.99
8 0.33
9 0.23

>  <PUBCHEM_EFFECTIVE_ROTOR_COUNT>  (1) 
6

>  <PUBCHEM_PHARMACOPHORE_FEATURES>  (1) 
9
1 2 acceptor
1 3 acceptor
1 4 acceptor
1 5 acceptor
1 6 cation
1 6 donor
3 2 3 10 anion
3 4 5 12 anion
4 1 7 9 11 hydrophobe

>  <PUBCHEM_HEAVY_ATOM_COUNT>  (1) 
12

>  <PUBCHEM_ATOM_DEF_STEREO_COUNT>  (1) 
0

>  <PUBCHEM_ATOM_UDEF_STEREO_COUNT>  (1) 
1

>  <PUBCHEM_BOND_DEF_STEREO_COUNT>  (1) 
0

>  <PUBCHEM_BOND_UDEF_STEREO_COUNT>  (1) 
0

>  <PUBCHEM_ISOTOPIC_ATOM_COUNT>  (1) 
0

>  <PUBCHEM_COMPONENT_COUNT>  (1) 
1

>  <PUBCHEM_CACTVS_TAUTO_COUNT>  (1) 
1

>  <PUBCHEM_CONFORMER_ID>  (1) 
0000A20900000001

>  <PUBCHEM_MMFF94_ENERGY>  (1) 
14.0378

>  <PUBCHEM_FEATURE_SELFOVERLAP>  (1) 
45.789

>  <PUBCHEM_SHAPE_FINGERPRINT>  (1) 
12162725 195 18411978035814966774
122479 349 18265620888217675305
124424 183 18190450572298013890
12696612 119 18186809101270885868
12932764 1 18201722894201888158
13618510 140 18412544301699308100
13764800 53 18410301302284064481
14390081 3 18343861121473509078
15775835 57 18201161048060050770
19973954 147 18340492170622442686
20304884 271 18128539271418570433
20653085 51 17915463787990861703
21028194 46 18341611546727313162
22959321 28 18116163344450537206
230 275 18411979170087129670
3248919 1 18341888546073749334
6049 1 18265916703483954638
8050 44 18340194237278345260
81228 2 17265245944587055406

>  <PUBCHEM_SHAPE_MULTIPOLES>  (1) 
222.35
5.9
1.86
1.17
1.29
0.06
0.01
1.79
0.36
0.13
-0.06
-0.33
0.19
0.51

>  <PUBCHEM_SHAPE_SELFOVERLAP>  (1) 
409.458

>  <PUBCHEM_SHAPE_VOLUME>  (1) 
141

>  <PUBCHEM_COORDINATE_TYPE>  (1) 
2
5
10

$$$$
