4149
     RDKit          3D

 22 23  0  0  1  0  0  0  0  0999 V2000
   -7.7025    0.1500   -1.3716 O   0  0  0  0  0  0  0  0  0  0  0  0
   -8.5548    2.1360    0.2545 O   0  0  0  0  0  0  0  0  0  0  0  0
    0.2187   -0.8673    0.1424 N   0  0  0  0  0  0  0  0  0  0  0  0
   -7.5328    1.2613    0.6466 N   0  0  0  0  0  0  0  0  0  0  0  0
   -2.1950   -0.4698   -0.0090 C   0  0  0  0  0  0  0  0  0  0  0  0
   -1.0912   -1.3822    0.5232 C   0  0  0  0  0  0  0  0  0  0  0  0
   -3.5794   -0.9875    0.3871 C   0  0  0  0  0  0  0  0  0  0  0  0
    1.2835   -1.6900    0.7191 C   0  0  0  0  0  0  0  0  0  0  0  0
   -4.6855   -0.0578   -0.1136 C   0  0  0  0  0  0  0  0  0  0  0  0
    2.6498   -1.1454    0.3972 C   0  0  0  0  0  0  0  0  0  0  0  0
   -6.0686   -0.5908    0.2526 C   0  0  0  0  0  0  0  0  0  0  0  0
    0.3490   -0.8170   -1.3148 C   0  0  0  0  0  0  0  0  0  0  0  0
    2.8914    0.2154    0.5270 C   0  0  0  0  0  0  0  0  0  0  0  0
    4.1604    0.7388    0.2305 C   0  0  0  0  0  0  0  0  0  0  0  0
    3.6460   -2.0103   -0.0235 C   0  0  0  0  0  0  0  0  0  0  0  0
    5.1865   -0.1356   -0.2001 C   0  0  0  0  0  0  0  0  0  0  0  0
    4.9129   -1.5078   -0.3220 C   0  0  0  0  0  0  0  0  0  0  0  0
   -7.1875    0.2935   -0.2660 C   0  0  0  0  0  0  0  0  0  0  0  0
    4.4339    2.1109    0.3528 C   0  0  0  0  0  0  0  0  0  0  0  0
    6.4555    0.3879   -0.4966 C   0  0  0  0  0  0  0  0  0  0  0  0
    5.7005    2.6138    0.0540 C   0  0  0  0  0  0  0  0  0  0  0  0
    6.7093    1.7539   -0.3700 C   0  0  0  0  0  0  0  0  0  0  0  0
  1 18  2  0
  2  4  1  0
  3  6  1  0
  3  8  1  0
  3 12  1  0
  4 18  1  0
  5  6  1  0
  5  7  1  0
  7  9  1  0
  8 10  1  0
  9 11  1  0
 10 13  2  0
 10 15  1  0
 11 18  1  0
 13 14  1  0
 14 16  2  0
 14 19  1  0
 15 17  2  0
 16 17  1  0
 16 20  1  0
 19 21  2  0
 20 22  2  0
 21 22  1  0
M  END
>  <PUBCHEM_COMPOUND_CID>  (1) 
4149

>  <PUBCHEM_CONFORMER_RMSD>  (1) 
1

>  <PUBCHEM_CONFORMER_DIVERSEORDER>  (1) 
1
58
211
391
212
315
151
472
3
88
29
515
510
499
481
320
25
180
268
51
202
19
354
47
79
38
342
538
328
304
394
7
4
307
517
214
95
518
164
259
2
33
336
524
265
24
544
457
111
14
388
293
109
322
549
347
335
176
254
233
295
357
70
138
358
36
30
119
12
395
107
105
56
331
301
81
78
8
123
229
321
405
148
528
74
521
311
28
480
438
61
23
35
258
194
246
100
21
169
188
37
80
341
508
9
319
256
76
98
257
298
220
453
378
65
136
412
539
66
348
474
16
338
159
210
280
372
525
404
262
114
555
389
238
156
165
297
15
106
294
83
18
482
439
104
369
330
155
429
31
200
353
75
367
34
218
40
193
278
284
20
352
99
6
425
197
60
17
253
381
225
243
84
27
191
195
48
399
420
112
445
286
11
344
160
513
39
289
241
290
94
554
326
32
5
154
465
206
552
529

>  <PUBCHEM_MMFF94_PARTIAL_CHARGES>  (1) 
26
1 -0.57
10 -0.14
11 0.06
12 0.27
13 -0.15
15 -0.15
17 -0.15
18 0.57
19 -0.15
2 -0.44
20 -0.15
21 -0.15
22 -0.15
3 -0.81
38 0.15
39 0.15
4 -0.39
40 0.15
41 0.15
42 0.15
43 0.15
44 0.15
45 0.37
46 0.4
6 0.27
8 0.41

>  <PUBCHEM_EFFECTIVE_ROTOR_COUNT>  (1) 
9

>  <PUBCHEM_PHARMACOPHORE_FEATURES>  (1) 
6
1 1 acceptor
1 3 cation
1 4 donor
4 5 7 9 11 hydrophobe
6 10 13 14 15 16 17 rings
6 14 16 19 20 21 22 rings

>  <PUBCHEM_HEAVY_ATOM_COUNT>  (1) 
22

>  <PUBCHEM_ATOM_DEF_STEREO_COUNT>  (1) 
0

>  <PUBCHEM_ATOM_UDEF_STEREO_COUNT>  (1) 
0

>  <PUBCHEM_BOND_DEF_STEREO_COUNT>  (1) 
0

>  <PUBCHEM_BOND_UDEF_STEREO_COUNT>  (1) 
0

>  <PUBCHEM_ISOTOPIC_ATOM_COUNT>  (1) 
0

>  <PUBCHEM_COMPONENT_COUNT>  (1) 
1

>  <PUBCHEM_CACTVS_TAUTO_COUNT>  (1) 
3

>  <PUBCHEM_CONFORMER_ID>  (1) 
0000103500000001

>  <PUBCHEM_MMFF94_ENERGY>  (1) 
53.4811

>  <PUBCHEM_FEATURE_SELFOVERLAP>  (1) 
30.472

>  <PUBCHEM_SHAPE_FINGERPRINT>  (1) 
10 15 17458343048687521875
10066227 112 18409445886912358557
10411042 1 17977665304654875730
106641 1 8070031031220672926
10835480 77 18335701663396571547
11315181 36 18409165516538990343
11991303 11 16845002511688188551
125118 31 18409731742497644649
12730499 353 18334863840089948354
13533116 47 17385997313230143091
13668630 136 10952054446498850953
13685833 64 9511461138984986267
13885169 127 10015595995629954459
14178184 131 10954043476499798777
14251757 52 18410291402511158265
14598715 104 17313369120740497829
14933364 13 18410294709820585779
15183329 4 17418379090714899907
15276724 80 18337950087540204557
155225 6 17680720512414933100
15690457 1 8286196133389956529
15716309 27 8142082066511392475
18335252 114 18201719565934478236
20157964 124 18413109455060869742
2026 5 10519717674128296357
20281389 69 18113334185368676989
21033648 29 17676773162105892946
21150785 3 17704071819952683887
21585482 111 18189333485991708397
21781051 124 15266777844683576871
221357 26 18273216391899385552
22224240 67 17240761809105719075
22956985 138 13336668590746601624
23081809 10 17131557159099930579
23569943 247 11670694133779819972
255183 451 17700424576944490278
29717793 49 17846502508585297654
33532 11 9511462217132657789
335352 9 18412833491487140110
4073 2 18114186379563144195
44555599 121 18200601302463839625
445580 37 16988850441482569169
5104073 3 16516510106569714801
5718773 13 10807397190938749004
5758199 1 17967814947115193779
58260988 393 15213287617683657916
59682541 35 17749398057896002121
6025842 7 18343586222851968750
6328613 192 18341895199705831457

>  <PUBCHEM_SHAPE_MULTIPOLES>  (1) 
431.05
24.61
2.26
0.87
48.92
0.89
0.16
16.21
2.41
-2.45
-0.24
0.4
-0.08
-0.05

>  <PUBCHEM_SHAPE_SELFOVERLAP>  (1) 
892.348

>  <PUBCHEM_SHAPE_VOLUME>  (1) 
247.6

>  <PUBCHEM_COORDINATE_TYPE>  (1) 
2
5
10

$$$$
