41497
     RDKit          3D

 12 11  0  0  0  0  0  0  0  0999 V2000
   -3.5937    0.2078    0.0562 C   0  0  0  0  0  0  0  0  0  0  0  0
   -4.2021    1.4900    0.6543 C   0  0  0  0  0  0  0  0  0  0  0  0
   -3.5821    0.3429   -1.4769 C   0  0  0  0  0  0  0  0  0  0  0  0
   -4.4850   -0.9840    0.4491 C   0  0  0  0  0  0  0  0  0  0  0  0
   -2.1730   -0.0872    0.5189 C   0  0  0  0  0  0  0  0  0  0  0  0
    3.6839    0.2413   -0.2099 C   0  0  0  0  0  0  0  0  0  0  0  0
    2.7012   -0.8913    0.0946 C   0  0  0  0  0  0  0  0  0  0  0  0
    5.0807   -0.0778    0.3239 C   0  0  0  0  0  0  0  0  0  0  0  0
   -1.0735   -0.1970   -0.2442 C   0  0  0  0  0  0  0  0  0  0  0  0
    1.3374   -0.5918   -0.4582 C   0  0  0  0  0  0  0  0  0  0  0  0
    0.2363   -0.4812    0.2999 C   0  0  0  0  0  0  0  0  0  0  0  0
    6.0699    1.0282   -0.0075 C   0  0  0  0  0  0  0  0  0  0  0  0
  1  2  1  0
  1  3  1  0
  1  4  1  0
  1  5  1  0
  5  9  2  0
  6  7  1  0
  6  8  1  0
  7 10  1  0
  8 12  1  0
  9 11  1  0
 10 11  2  0
M  END
>  <PUBCHEM_COMPOUND_CID>  (1) 
41497

>  <PUBCHEM_CONFORMER_RMSD>  (1) 
0.6

>  <PUBCHEM_CONFORMER_DIVERSEORDER>  (1) 
1
17
33
10
29
9
35
32
13
19
8
16
28
2
14
25
26
12
24
15
18
23
34
22
11
30
20
21
31
27
3
7
4
5
6

>  <PUBCHEM_MMFF94_PARTIAL_CHARGES>  (1) 
10
1 0.14
10 -0.29
11 -0.15
22 0.15
29 0.15
30 0.15
31 0.15
5 -0.29
7 0.14
9 -0.15

>  <PUBCHEM_EFFECTIVE_ROTOR_COUNT>  (1) 
5

>  <PUBCHEM_PHARMACOPHORE_FEATURES>  (1) 
3
1 12 hydrophobe
4 1 2 3 4 hydrophobe
4 6 7 8 10 hydrophobe

>  <PUBCHEM_HEAVY_ATOM_COUNT>  (1) 
12

>  <PUBCHEM_ATOM_DEF_STEREO_COUNT>  (1) 
0

>  <PUBCHEM_ATOM_UDEF_STEREO_COUNT>  (1) 
0

>  <PUBCHEM_BOND_DEF_STEREO_COUNT>  (1) 
0

>  <PUBCHEM_BOND_UDEF_STEREO_COUNT>  (1) 
2

>  <PUBCHEM_ISOTOPIC_ATOM_COUNT>  (1) 
0

>  <PUBCHEM_COMPONENT_COUNT>  (1) 
1

>  <PUBCHEM_CACTVS_TAUTO_COUNT>  (1) 
1

>  <PUBCHEM_CONFORMER_ID>  (1) 
0000A21900000001

>  <PUBCHEM_MMFF94_ENERGY>  (1) 
12.4359

>  <PUBCHEM_FEATURE_SELFOVERLAP>  (1) 
15.224

>  <PUBCHEM_SHAPE_FINGERPRINT>  (1) 
10680689 15 16845570924644836643
114248 4 14692568832269802834
12091667 2 17847061086462101238
124424 183 12757151290243035255
12507557 5 18040716978419633253
12714333 28 17060337436066628416
13214271 11 18343585123244628741
13675066 3 16009030566515089858
13690532 89 8646769993608275832
14123238 8 18113337522415951594
14251718 22 18412544344422296522
14252887 29 15502372288842823586
14455015 7 10663821905689007436
15242439 84 12679460876328825899
15501527 16 18342743996543561537
17834072 33 16917063386970333440
17834072 8 10231762158523551259
17834076 25 18272933825794947834
19489759 90 16008742515795678117
20325693 3 15267059246809242965
20432913 95 11241967058208670612
20645477 70 18271249314126706814
20767249 13 13984659265562999706
20767249 213 18408040736394622644
23272321 79 18336830896034284540
23402539 116 17917988369503583084
23402655 69 17203329966229146288
23557571 272 12679198093392634106
23590187 198 11530477822604761720
26918003 58 12829206676261396116
2916195 48 18342171202678124176
300161 21 18186515475979517419
42 15 12829206668130436406
42788 4 18412265038926043434
449060 50 18334859420183147414
49783359 22 12251907005302813792
542803 24 18272089392169334320

>  <PUBCHEM_SHAPE_MULTIPOLES>  (1) 
246.95
13.51
1.11
0.92
13.22
0.21
-0.23
3.71
0.8
-0.41
0.14
-0.85
0.08
-0.05

>  <PUBCHEM_SHAPE_SELFOVERLAP>  (1) 
455.178

>  <PUBCHEM_SHAPE_VOLUME>  (1) 
156.9

>  <PUBCHEM_COORDINATE_TYPE>  (1) 
2
5
10

$$$$
