41496
     RDKit          3D

 21 22  0  0  1  0  0  0  0  0999 V2000
    0.8307   -1.1997    1.1987 O   0  0  0  0  0  0  0  0  0  0  0  0
   -1.5223    0.4160    0.5778 O   0  0  0  0  0  0  0  0  0  0  0  0
    2.9334   -0.4164    2.8420 O   0  0  0  0  0  0  0  0  0  0  0  0
   -2.2473    3.1709    0.0966 O   0  0  0  0  0  0  0  0  0  0  0  0
    3.1987    0.5826   -0.7136 N   0  0  0  0  0  0  0  0  0  0  0  0
    3.1522   -0.6333    1.4450 C   0  0  0  0  0  0  0  0  0  0  0  0
    3.0278    0.7127    0.7271 C   0  0  0  0  0  0  0  0  0  0  0  0
    3.0198    1.8668   -1.3772 C   0  0  0  0  0  0  0  0  0  0  0  0
    2.1516   -1.6763    0.9523 C   0  0  0  0  0  0  0  0  0  0  0  0
   -1.2584   -0.8109    0.0464 C   0  0  0  0  0  0  0  0  0  0  0  0
   -2.2710   -1.1825   -0.8322 C   0  0  0  0  0  0  0  0  0  0  0  0
   -0.1421   -1.5958    0.3292 C   0  0  0  0  0  0  0  0  0  0  0  0
   -2.6999    0.8323    0.0435 C   0  0  0  0  0  0  0  0  0  0  0  0
   -3.2003   -0.1090   -0.8261 C   0  0  0  0  0  0  0  0  0  0  0  0
    1.6233    2.4160   -1.0992 C   0  0  0  0  0  0  0  0  0  0  0  0
    3.2553    1.7014   -2.8752 C   0  0  0  0  0  0  0  0  0  0  0  0
   -3.1830    2.1482    0.4850 C   0  0  0  0  0  0  0  0  0  0  0  0
   -2.1738   -2.4253   -1.4819 C   0  0  0  0  0  0  0  0  0  0  0  0
   -0.0658   -2.8275   -0.3280 C   0  0  0  0  0  0  0  0  0  0  0  0
   -1.0621   -3.2371   -1.2176 C   0  0  0  0  0  0  0  0  0  0  0  0
   -3.3669    2.2667    2.0075 C   0  0  0  0  0  0  0  0  0  0  0  0
  1  9  1  0
  1 12  1  0
  2 10  1  0
  2 13  1  0
  3  6  1  0
  4 17  1  0
  5  7  1  0
  5  8  1  0
  6  7  1  0
  6  9  1  0
  8 15  1  0
  8 16  1  0
 10 11  2  0
 10 12  1  0
 11 14  1  0
 11 18  1  0
 12 19  2  0
 13 14  2  0
 13 17  1  0
 17 21  1  0
 18 20  2  0
 19 20  1  0
M  END
>  <PUBCHEM_COMPOUND_CID>  (1) 
41496

>  <PUBCHEM_CONFORMER_RMSD>  (1) 
1

>  <PUBCHEM_CONFORMER_DIVERSEORDER>  (1) 
9
184
66
538
368
363
655
669
541
174
23
628
276
406
230
147
644
327
267
553
497
510
313
612
279
107
96
282
314
397
374
163
676
58
648
414
265
277
15
601
212
73
218
177
53
26
185
592
157
357
532
4
296
237
348
382
657
144
138
19
251
467
54
30
208
86
115
141
25
679
556
37
258
245
22
491
12
95
333
38
70
81
683
652
5
248
259
659
100
323
435
2
546
87
7
135
16
199
17
543
3
1
124
11
120
106
582
114

>  <PUBCHEM_MMFF94_PARTIAL_CHARGES>  (1) 
24
1 -0.36
10 0.14
12 0.08
13 -0.04
14 -0.15
17 0.46
18 -0.15
19 -0.15
2 -0.28
20 -0.15
28 0.36
29 0.15
3 -0.68
37 0.15
38 0.15
39 0.15
4 -0.68
40 0.4
44 0.4
5 -0.9
6 0.28
7 0.27
8 0.27
9 0.28

>  <PUBCHEM_EFFECTIVE_ROTOR_COUNT>  (1) 
7

>  <PUBCHEM_PHARMACOPHORE_FEATURES>  (1) 
11
1 1 acceptor
1 2 acceptor
1 3 acceptor
1 3 donor
1 4 acceptor
1 4 donor
1 5 cation
1 5 donor
3 8 15 16 hydrophobe
5 2 10 11 13 14 rings
6 10 11 12 18 19 20 rings

>  <PUBCHEM_HEAVY_ATOM_COUNT>  (1) 
21

>  <PUBCHEM_ATOM_DEF_STEREO_COUNT>  (1) 
0

>  <PUBCHEM_ATOM_UDEF_STEREO_COUNT>  (1) 
2

>  <PUBCHEM_BOND_DEF_STEREO_COUNT>  (1) 
0

>  <PUBCHEM_BOND_UDEF_STEREO_COUNT>  (1) 
0

>  <PUBCHEM_ISOTOPIC_ATOM_COUNT>  (1) 
0

>  <PUBCHEM_COMPONENT_COUNT>  (1) 
1

>  <PUBCHEM_CACTVS_TAUTO_COUNT>  (1) 
1

>  <PUBCHEM_CONFORMER_ID>  (1) 
0000A21800000009

>  <PUBCHEM_MMFF94_ENERGY>  (1) 
33.7189

>  <PUBCHEM_FEATURE_SELFOVERLAP>  (1) 
55.931

>  <PUBCHEM_SHAPE_FINGERPRINT>  (1) 
11640471 11 18187644764541606300
12173636 292 18058427877470854295
12539773 59 17974294514375197767
12788726 201 18124882510593166151
13009979 54 18118659214766768450
13583140 156 17169268140162956683
13965767 371 17690532231503783450
14123250 116 18046079408223502572
14787075 74 17679866187500501467
15664445 248 17193192761137467534
16752209 62 18272087227548008717
17357990 137 18334290951143996690
17859628 37 17686898315382864877
20539926 19 18409451379637674244
20905425 154 17480840348707465073
21049683 271 17191242829021654591
21524375 3 18269826520004242099
21756936 100 17898035614010394764
22149856 69 17986395478777065825
23419403 2 15024330127373592074
23557571 272 17701250571499196754
23598291 2 18262220167414795498
2637199 183 18117306738070445540
445580 8 18264214625156112857
469060 322 15144909225427114404
474 4 18261954025238885139
5262128 65 17550690128060927852
539174 4 17822284730001518604
57100710 29 18336537266141844800
6287921 2 17840033940382793117
6992083 37 18191279642593390898

>  <PUBCHEM_SHAPE_MULTIPOLES>  (1) 
403.71
6.58
3.85
2.21
2.21
0.1
-0.13
-4.04
0.11
-2.36
0.83
2.21
-0.51
-3.49

>  <PUBCHEM_SHAPE_SELFOVERLAP>  (1) 
837.574

>  <PUBCHEM_SHAPE_VOLUME>  (1) 
233.8

>  <PUBCHEM_COORDINATE_TYPE>  (1) 
2
5
10

$$$$
