41500
     RDKit          3D

 16 17  0  0  0  0  0  0  0  0999 V2000
   -0.8475   -2.0401    0.1105 O   0  0  0  0  0  0  0  0  0  0  0  0
   -2.8426   -0.1818    1.3856 O   0  0  0  0  0  0  0  0  0  0  0  0
    1.3074    2.0116    0.1135 N   0  0  0  0  0  0  0  0  0  0  0  0
   -2.9614   -0.1269   -0.9594 N   0  0  0  0  0  0  0  0  0  0  0  0
    1.5533   -0.2034    0.0101 C   0  0  0  0  0  0  0  0  0  0  0  0
    0.1684    0.1065    0.1139 C   0  0  0  0  0  0  0  0  0  0  0  0
    2.2458    1.0095    0.0120 C   0  0  0  0  0  0  0  0  0  0  0  0
    0.0490    1.4758    0.1756 C   0  0  0  0  0  0  0  0  0  0  0  0
    2.2865   -1.4027   -0.0855 C   0  0  0  0  0  0  0  0  0  0  0  0
    3.6403    1.0830   -0.0774 C   0  0  0  0  0  0  0  0  0  0  0  0
   -0.9422   -0.8022    0.1532 C   0  0  0  0  0  0  0  0  0  0  0  0
    3.6819   -1.3445   -0.1754 C   0  0  0  0  0  0  0  0  0  0  0  0
    4.3464   -0.1197   -0.1712 C   0  0  0  0  0  0  0  0  0  0  0  0
   -2.3745   -0.3300    0.2685 C   0  0  0  0  0  0  0  0  0  0  0  0
   -4.3239    0.3267   -1.1122 C   0  0  0  0  0  0  0  0  0  0  0  0
   -4.9870    0.5381    0.2382 C   0  0  0  0  0  0  0  0  0  0  0  0
  1 11  2  0
  2 14  2  0
  3  7  1  0
  3  8  1  0
  4 14  1  0
  4 15  1  0
  5  6  1  0
  5  7  2  0
  5  9  1  0
  6  8  2  0
  6 11  1  0
  7 10  1  0
  9 12  2  0
 10 13  2  0
 11 14  1  0
 12 13  1  0
 15 16  1  0
M  END
>  <PUBCHEM_COMPOUND_CID>  (1) 
41500

>  <PUBCHEM_CONFORMER_RMSD>  (1) 
0.6

>  <PUBCHEM_CONFORMER_DIVERSEORDER>  (1) 
1
4
14
15
5
13
3
6
9
16
2
17
7
8
10
11
12

>  <PUBCHEM_MMFF94_PARTIAL_CHARGES>  (1) 
21
1 -0.57
10 -0.15
11 0.66
12 -0.15
13 -0.15
14 0.63
15 0.3
17 0.15
18 0.27
19 0.15
2 -0.57
20 0.15
21 0.15
22 0.15
25 0.37
3 0.03
4 -0.73
6 -0.09
7 -0.15
8 -0.3
9 -0.15

>  <PUBCHEM_EFFECTIVE_ROTOR_COUNT>  (1) 
4

>  <PUBCHEM_PHARMACOPHORE_FEATURES>  (1) 
7
1 1 acceptor
1 2 acceptor
1 3 cation
1 3 donor
1 4 donor
5 3 5 6 7 8 rings
6 5 7 9 10 12 13 rings

>  <PUBCHEM_HEAVY_ATOM_COUNT>  (1) 
16

>  <PUBCHEM_ATOM_DEF_STEREO_COUNT>  (1) 
0

>  <PUBCHEM_ATOM_UDEF_STEREO_COUNT>  (1) 
0

>  <PUBCHEM_BOND_DEF_STEREO_COUNT>  (1) 
0

>  <PUBCHEM_BOND_UDEF_STEREO_COUNT>  (1) 
0

>  <PUBCHEM_ISOTOPIC_ATOM_COUNT>  (1) 
0

>  <PUBCHEM_COMPONENT_COUNT>  (1) 
1

>  <PUBCHEM_CACTVS_TAUTO_COUNT>  (1) 
6

>  <PUBCHEM_CONFORMER_ID>  (1) 
0000A21C00000001

>  <PUBCHEM_MMFF94_ENERGY>  (1) 
27.5397

>  <PUBCHEM_FEATURE_SELFOVERLAP>  (1) 
35.613

>  <PUBCHEM_SHAPE_FINGERPRINT>  (1) 
11401426 45 18272081712636018176
11471102 20 18410572890304068860
12236239 1 17704072880967627587
124424 183 18260830401379690826
12654215 9 18334290976940011796
13134695 92 18201714067959965128
13571099 22 18412543214787589526
13675066 3 18113904900243239529
14115302 16 18114473322385987718
14144814 61 18342463650969026994
14251717 144 18343862204048062358
14911166 2 18410293605676374214
14943859 89 16443344269325136337
14993402 34 18060420226731025518
15196674 1 18410856598405524886
15375358 24 18408882962465042450
15653759 3 17385728019138807609
15848700 24 18343578517289573916
16945 1 18411705421746086944
18186145 218 18408875240171814573
200 152 17846494833647174325
20201158 50 18410012135131904110
20279233 1 18186523210862235186
20645477 70 18411418380212484790
21029758 11 18272366468962884216
21267235 1 18339933627717034118
221357 26 18338221692756052237
23402539 116 16415474935680702481
23402655 69 18343298163167517269
23559900 14 18341891939894465872
25 1 18334288747799374047
2748010 2 17979359982119926736
2871803 45 18336550417843511990
34934 24 18340198687518416170
4072396 5 18336529561471623986
5104073 3 18337952393304263586
57005193 9 18412538821495254506
602551 16 16154004546244627953
69090 78 18341609330355383471
74978 22 18269555094913068795
8272917 22 18271248214176878407
9981440 41 17194577016343818849

>  <PUBCHEM_SHAPE_MULTIPOLES>  (1) 
307.57
8.8
1.63
0.83
5.44
0.02
0
0.34
1.11
-1.05
-0.05
0.75
-0.01
0.16

>  <PUBCHEM_SHAPE_SELFOVERLAP>  (1) 
664.681

>  <PUBCHEM_SHAPE_VOLUME>  (1) 
169.9

>  <PUBCHEM_COORDINATE_TYPE>  (1) 
2
5
10

$$$$
