41502
     RDKit          3D

 15 16  0  0  1  0  0  0  0  0999 V2000
   -2.3208   -1.1851    1.4736 O   0  0  0  0  0  0  0  0  0  0  0  0
    1.4298   -1.6268   -0.2687 N   0  0  0  0  0  0  0  0  0  0  0  0
   -3.9955    0.5624   -0.0869 N   0  0  0  0  0  0  0  0  0  0  0  0
   -0.3526   -0.4551    0.3455 C   0  0  0  0  0  0  0  0  0  0  0  0
   -1.7337   -0.1015    0.7315 C   0  0  0  0  0  0  0  0  0  0  0  0
    0.7488    0.4384    0.2295 C   0  0  0  0  0  0  0  0  0  0  0  0
    1.8546   -0.3220   -0.1570 C   0  0  0  0  0  0  0  0  0  0  0  0
    0.0975   -1.7172    0.0329 C   0  0  0  0  0  0  0  0  0  0  0  0
   -2.6352    0.2093   -0.4869 C   0  0  0  0  0  0  0  0  0  0  0  0
    0.9116    1.8255    0.4169 C   0  0  0  0  0  0  0  0  0  0  0  0
    3.1201    0.2375   -0.3662 C   0  0  0  0  0  0  0  0  0  0  0  0
    2.2580   -2.7508   -0.6499 C   0  0  0  0  0  0  0  0  0  0  0  0
    2.1717    2.3989    0.2111 C   0  0  0  0  0  0  0  0  0  0  0  0
    3.2576    1.6153   -0.1744 C   0  0  0  0  0  0  0  0  0  0  0  0
   -4.8121    0.8710   -1.2509 C   0  0  0  0  0  0  0  0  0  0  0  0
  1  5  1  0
  2  7  1  0
  2  8  1  0
  2 12  1  0
  3  9  1  0
  3 15  1  0
  4  5  1  0
  4  6  1  0
  4  8  2  0
  5  9  1  0
  6  7  2  0
  6 10  1  0
  7 11  1  0
 10 13  2  0
 11 14  2  0
 13 14  1  0
M  END
>  <PUBCHEM_COMPOUND_CID>  (1) 
41502

>  <PUBCHEM_CONFORMER_RMSD>  (1) 
0.6

>  <PUBCHEM_CONFORMER_DIVERSEORDER>  (1) 
1
19
12
7
10
2
13
3
17
6
14
16
15
9
18
5
8
11
4

>  <PUBCHEM_MMFF94_PARTIAL_CHARGES>  (1) 
21
1 -0.68
10 -0.15
11 -0.15
12 0.26
13 -0.15
14 -0.15
15 0.27
17 0.15
2 0.05
20 0.15
21 0.15
25 0.36
26 0.15
27 0.15
28 0.4
3 -0.9
4 -0.18
5 0.46
7 -0.15
8 -0.3
9 0.27

>  <PUBCHEM_EFFECTIVE_ROTOR_COUNT>  (1) 
3

>  <PUBCHEM_PHARMACOPHORE_FEATURES>  (1) 
7
1 1 acceptor
1 1 donor
1 2 cation
1 3 cation
1 3 donor
5 2 4 6 7 8 rings
6 6 7 10 11 13 14 rings

>  <PUBCHEM_HEAVY_ATOM_COUNT>  (1) 
15

>  <PUBCHEM_ATOM_DEF_STEREO_COUNT>  (1) 
0

>  <PUBCHEM_ATOM_UDEF_STEREO_COUNT>  (1) 
1

>  <PUBCHEM_BOND_DEF_STEREO_COUNT>  (1) 
0

>  <PUBCHEM_BOND_UDEF_STEREO_COUNT>  (1) 
0

>  <PUBCHEM_ISOTOPIC_ATOM_COUNT>  (1) 
0

>  <PUBCHEM_COMPONENT_COUNT>  (1) 
1

>  <PUBCHEM_CACTVS_TAUTO_COUNT>  (1) 
1

>  <PUBCHEM_CONFORMER_ID>  (1) 
0000A21E00000001

>  <PUBCHEM_MMFF94_ENERGY>  (1) 
23.6375

>  <PUBCHEM_FEATURE_SELFOVERLAP>  (1) 
35.614

>  <PUBCHEM_SHAPE_FINGERPRINT>  (1) 
1 1 18341055219692291358
10608611 8 18334013921484759129
11031198 65 18410577301072016661
11471102 20 18412261727058073260
116883 192 17767970826694705028
12138202 78 18339084778854315438
12654215 9 18409450293258952684
12730499 353 18408326597028892691
13380535 76 18409164449936388338
13464514 151 18335703776119606369
14178000 15 18125999369440752630
14251717 144 18342172237311405783
14911166 2 18341622524948396268
15219456 202 18334020514190908971
15279308 100 18265619973215723852
15442244 35 17982739575610107785
16945 1 18342752822727585546
17134986 127 18267020738049676172
17539 30 17188413768470581222
18186145 218 18057903517735154056
18219364 16 18267600180376639128
193761 8 17979932510040471608
20606313 2 18410852131554933236
20645477 70 18341895152129239151
21639500 275 18341888610682790645
21947302 44 18335414647526660841
22096605 113 18341327872790384097
221357 26 18266448807784155301
22289505 5 18266166254432958701
22892500 29 18409443674339758101
231179 274 17967524675396679077
2334 1 17838061755708700954
23402655 69 18342451526661758133
23493267 7 17749674107432388080
23557571 272 17677061225984181507
23598291 2 17702111266007954583
25 1 18410291432164504917
2748010 2 18052835916098091922
3060560 45 18343580746266720694
4072396 5 18337375073007298384
495365 180 18199734976904712233
6049 1 18042148529900708699
7364860 26 18341895156360668766
77492 1 17274831216263530635
81228 2 17404033526247558658
81539 233 18335139816990964150
84936 182 17988920106426619121
88987 49 16660656180019380883

>  <PUBCHEM_SHAPE_MULTIPOLES>  (1) 
292.86
6.62
2.48
0.95
8.32
0.62
0.06
-2.5
-2.2
-2.51
-0.18
0.74
0.1
0.9

>  <PUBCHEM_SHAPE_SELFOVERLAP>  (1) 
619.363

>  <PUBCHEM_SHAPE_VOLUME>  (1) 
166.3

>  <PUBCHEM_COORDINATE_TYPE>  (1) 
2
5
10

$$$$
