41511
     RDKit          3D

 21 23  0  0  1  0  0  0  0  0999 V2000
   -1.5631    2.1016    0.2715 O   0  0  0  0  0  0  0  0  0  0  0  0
   -1.7385   -2.5324    0.6207 O   0  0  0  0  0  0  0  0  0  0  0  0
    4.3840   -0.4550    0.1484 O   0  0  0  0  0  0  0  0  0  0  0  0
   -1.1888   -0.2317    0.4405 N   0  0  0  0  0  0  0  0  0  0  0  0
   -3.3457    0.5605    0.8259 C   0  0  0  0  0  0  0  0  0  0  0  0
   -3.4359   -0.8622    0.2833 C   0  0  0  0  0  0  0  0  0  0  0  0
   -4.4313    1.5192    0.3455 C   0  0  0  0  0  0  0  0  0  0  0  0
   -3.7954   -0.9653   -1.2076 C   0  0  0  0  0  0  0  0  0  0  0  0
   -1.9255    0.9514    0.4708 C   0  0  0  0  0  0  0  0  0  0  0  0
   -2.0179   -1.3502    0.4781 C   0  0  0  0  0  0  0  0  0  0  0  0
   -4.9363    1.2513   -1.0362 C   0  0  0  0  0  0  0  0  0  0  0  0
   -4.6509    0.1437   -1.7289 C   0  0  0  0  0  0  0  0  0  0  0  0
    0.2386   -0.2888    0.3664 C   0  0  0  0  0  0  0  0  0  0  0  0
    1.0115    0.7325    0.9235 C   0  0  0  0  0  0  0  0  0  0  0  0
    0.8650   -1.3658   -0.2650 C   0  0  0  0  0  0  0  0  0  0  0  0
    2.4033    0.6771    0.8496 C   0  0  0  0  0  0  0  0  0  0  0  0
    2.2568   -1.4213   -0.3388 C   0  0  0  0  0  0  0  0  0  0  0  0
    3.0260   -0.3999    0.2186 C   0  0  0  0  0  0  0  0  0  0  0  0
    5.0832    0.7881    0.1051 C   0  0  0  0  0  0  0  0  0  0  0  0
    6.3575    0.6352   -0.5976 C   0  0  0  0  0  0  0  0  0  0  0  0
    7.4033    0.5119   -1.1739 C   0  0  0  0  0  0  0  0  0  0  0  0
  1  9  2  0
  2 10  2  0
  3 18  1  0
  3 19  1  0
  4  9  1  0
  4 10  1  0
  4 13  1  0
  5  6  1  0
  5  7  1  0
  5  9  1  0
  6  8  1  0
  6 10  1  0
  7 11  1  0
  8 12  1  0
 11 12  2  0
 13 14  2  0
 13 15  1  0
 14 16  1  0
 15 17  2  0
 16 18  2  0
 17 18  1  0
 19 20  1  0
 20 21  3  0
M  END
>  <PUBCHEM_COMPOUND_CID>  (1) 
41511

>  <PUBCHEM_CONFORMER_RMSD>  (1) 
0.6

>  <PUBCHEM_CONFORMER_DIVERSEORDER>  (1) 
1
44
15
24
39
50
6
8
45
28
41
7
47
25
33
29
37
2
35
43
30
11
17
34
46
42
9
16
26
36
27
12
48
32
31
14
5
38
4
10
40
19
3
13
20
21
22
23
49
18

>  <PUBCHEM_MMFF94_PARTIAL_CHARGES>  (1) 
28
1 -0.57
10 0.57
11 -0.29
12 -0.29
13 0.12
14 -0.15
15 -0.15
16 -0.15
17 -0.15
18 0.08
19 0.48
2 -0.57
20 -0.2
21 -0.18
28 0.15
29 0.15
3 -0.36
30 0.15
31 0.15
32 0.15
33 0.15
36 0.18
4 -0.24
5 0.06
6 0.06
7 0.14
8 0.14
9 0.57

>  <PUBCHEM_EFFECTIVE_ROTOR_COUNT>  (1) 
3.6

>  <PUBCHEM_PHARMACOPHORE_FEATURES>  (1) 
7
1 1 acceptor
1 2 acceptor
1 21 hydrophobe
1 3 acceptor
5 4 5 6 9 10 rings
6 13 14 15 16 17 18 rings
6 5 6 7 8 11 12 rings

>  <PUBCHEM_HEAVY_ATOM_COUNT>  (1) 
21

>  <PUBCHEM_ATOM_DEF_STEREO_COUNT>  (1) 
0

>  <PUBCHEM_ATOM_UDEF_STEREO_COUNT>  (1) 
2

>  <PUBCHEM_BOND_DEF_STEREO_COUNT>  (1) 
0

>  <PUBCHEM_BOND_UDEF_STEREO_COUNT>  (1) 
0

>  <PUBCHEM_ISOTOPIC_ATOM_COUNT>  (1) 
0

>  <PUBCHEM_COMPONENT_COUNT>  (1) 
1

>  <PUBCHEM_CACTVS_TAUTO_COUNT>  (1) 
3

>  <PUBCHEM_CONFORMER_ID>  (1) 
0000A22700000001

>  <PUBCHEM_MMFF94_ENERGY>  (1) 
60.3278

>  <PUBCHEM_FEATURE_SELFOVERLAP>  (1) 
35.707

>  <PUBCHEM_SHAPE_FINGERPRINT>  (1) 
10366900 7 18131063835920117370
10906281 52 18342188725611675393
11315181 36 17489591177543905720
12011746 2 18343860026357081996
12236239 1 17530683221577372930
12596602 18 15936411148069377848
12670543 26 18202569458521248558
13288520 33 15985103024652211701
13403585 85 14418131816134193404
13583140 156 16660362593435232281
13631057 29 17096939168311074267
14528608 73 18201434796749383028
15048467 5 17749108898658244308
15183329 4 18411143507533768926
15716309 27 11095883774404725596
17780758 139 11241970373902110223
18222031 100 16559029385853466290
18335252 98 18260835904161634267
200 152 17203601588909569563
20281389 69 17749387079326648972
20567600 247 14979960242532083796
21150785 3 17894627089035146951
21267235 1 18059575840930495631
21637258 2 14117797999315724244
21709351 56 18341330084630164956
22393880 68 17703778249773139303
23402539 116 18411131428993813197
23402655 69 18201997681935397121
23559900 14 18271238426152210776
2838139 119 17967252014183620284
296302 2 17894908512298163595
300161 21 18113896070476242170
3545911 37 18410578396167279896
4028521 119 18338507565562358951
542803 24 17312821589402916904
7226269 152 12901538044711001046
7495541 125 10447920690131187858
9709674 26 18273217478014655199

>  <PUBCHEM_SHAPE_MULTIPOLES>  (1) 
409.58
14.29
1.75
1.15
22.4
0.35
0.36
-4.73
6.55
-1.36
-0.17
-0.67
-0.07
-0.06

>  <PUBCHEM_SHAPE_SELFOVERLAP>  (1) 
884.506

>  <PUBCHEM_SHAPE_VOLUME>  (1) 
221.6

>  <PUBCHEM_COORDINATE_TYPE>  (1) 
2
5
10

$$$$
