41513
     RDKit          3D

 21 23  0  0  1  0  0  0  0  0999 V2000
    2.7246   -1.6212   -1.5587 O   0  0  0  0  0  0  0  0  0  0  0  0
    1.3491   -0.3518    2.6696 O   0  0  0  0  0  0  0  0  0  0  0  0
    1.8247   -1.3016    0.5792 N   0  0  0  0  0  0  0  0  0  0  0  0
   -3.4609   -0.5561   -0.2779 N   0  0  0  0  0  0  0  0  0  0  0  0
    3.5923    0.0689   -0.0292 C   0  0  0  0  0  0  0  0  0  0  0  0
    2.7713    0.7720    1.0571 C   0  0  0  0  0  0  0  0  0  0  0  0
    4.1433    0.9569   -1.1401 C   0  0  0  0  0  0  0  0  0  0  0  0
    1.8462    1.8911    0.5513 C   0  0  0  0  0  0  0  0  0  0  0  0
    2.6680   -1.0411   -0.4851 C   0  0  0  0  0  0  0  0  0  0  0  0
    1.9101   -0.3568    1.5833 C   0  0  0  0  0  0  0  0  0  0  0  0
    3.3169    2.1616   -1.4515 C   0  0  0  0  0  0  0  0  0  0  0  0
    2.2942    2.5769   -0.6977 C   0  0  0  0  0  0  0  0  0  0  0  0
   -4.8607    1.9439    0.2988 C   0  0  0  0  0  0  0  0  0  0  0  0
   -3.4601    1.6569    0.8281 C   0  0  0  0  0  0  0  0  0  0  0  0
   -5.6045    0.6414    0.0265 C   0  0  0  0  0  0  0  0  0  0  0  0
   -2.7064    0.6906   -0.0870 C   0  0  0  0  0  0  0  0  0  0  0  0
   -4.7828   -0.2927   -0.8634 C   0  0  0  0  0  0  0  0  0  0  0  0
    0.9219   -2.4350    0.6119 C   0  0  0  0  0  0  0  0  0  0  0  0
   -2.7063   -1.4874   -1.1162 C   0  0  0  0  0  0  0  0  0  0  0  0
   -0.3623   -2.0960    0.0009 C   0  0  0  0  0  0  0  0  0  0  0  0
   -1.4187   -1.8204   -0.5000 C   0  0  0  0  0  0  0  0  0  0  0  0
  1  9  2  0
  2 10  2  0
  3  9  1  0
  3 10  1  0
  3 18  1  0
  4 16  1  0
  4 17  1  0
  4 19  1  0
  5  6  1  0
  5  7  1  0
  5  9  1  0
  6  8  1  0
  6 10  1  0
  7 11  1  0
  8 12  1  0
 11 12  2  0
 13 14  1  0
 13 15  1  0
 14 16  1  0
 15 17  1  0
 18 20  1  0
 19 21  1  0
 20 21  3  0
M  END
>  <PUBCHEM_COMPOUND_CID>  (1) 
41513

>  <PUBCHEM_CONFORMER_RMSD>  (1) 
0.6

>  <PUBCHEM_CONFORMER_DIVERSEORDER>  (1) 
1
76
80
62
75
43
14
40
36
82
25
74
17
49
44
69
21
52
26
39
47
13
50
35
18
78
55
20
77
58
64
61
10
63
34
71
48
56
27
23
31
41
9
81
32
22
38
65
57
2
60
42
7
68
79
30
16
70
73
15
29
54
8
53
51
6
59
66
28
4
11
33
19
37
45
24
3
46
5
67
12
72

>  <PUBCHEM_MMFF94_PARTIAL_CHARGES>  (1) 
20
1 -0.57
10 0.57
11 -0.29
12 -0.29
16 0.27
17 0.27
18 0.5
19 0.47
2 -0.57
20 -0.2
21 -0.2
28 0.15
29 0.15
3 -0.42
4 -0.81
5 0.06
6 0.06
7 0.14
8 0.14
9 0.57

>  <PUBCHEM_EFFECTIVE_ROTOR_COUNT>  (1) 
3.8

>  <PUBCHEM_PHARMACOPHORE_FEATURES>  (1) 
6
1 1 acceptor
1 2 acceptor
1 4 cation
5 3 5 6 9 10 rings
6 4 13 14 15 16 17 rings
6 5 6 7 8 11 12 rings

>  <PUBCHEM_HEAVY_ATOM_COUNT>  (1) 
21

>  <PUBCHEM_ATOM_DEF_STEREO_COUNT>  (1) 
0

>  <PUBCHEM_ATOM_UDEF_STEREO_COUNT>  (1) 
2

>  <PUBCHEM_BOND_DEF_STEREO_COUNT>  (1) 
0

>  <PUBCHEM_BOND_UDEF_STEREO_COUNT>  (1) 
0

>  <PUBCHEM_ISOTOPIC_ATOM_COUNT>  (1) 
0

>  <PUBCHEM_COMPONENT_COUNT>  (1) 
1

>  <PUBCHEM_CACTVS_TAUTO_COUNT>  (1) 
3

>  <PUBCHEM_CONFORMER_ID>  (1) 
0000A22900000001

>  <PUBCHEM_MMFF94_ENERGY>  (1) 
18.5577

>  <PUBCHEM_FEATURE_SELFOVERLAP>  (1) 
30.627

>  <PUBCHEM_SHAPE_FINGERPRINT>  (1) 
10042902 136 9654761606288566488
10382601 240 17603578651749232484
10498660 4 18340760537754533315
10670039 82 18413671309707921149
10764073 3 17556825119987935746
11615756 256 18410012169333289615
12596602 18 17821732758459246169
12633257 1 18114446946796487990
13464514 151 18263089954300513366
13828863 39 14708638301809600052
15163728 17 17607551290819443052
15210252 30 18410296929997521984
17921350 177 17028516254613808453
20465049 17 18336562541829222446
20775530 9 11742749528710323020
21503847 285 18260551108357123334
21864079 5 18337950211555808827
23557571 272 17058350712565034751
23559900 14 17987798489087311135
238 59 18189063142973798736
251288 83 11674878892209468746
2637199 183 18335990830258581270
38570 142 17677067844571204204
427121 178 16225766341595154850
4409770 3 15958643994458010447
44154327 71 18411135801676741385
474 4 18333729122229722127
5048184 11 18410578413669337549
5161694 15 16343703257156571007
5895379 119 18343582945358917952
633830 44 18409446977623614231
7808743 9 18336547243139857334
8988823 20 13118290308535044151

>  <PUBCHEM_SHAPE_MULTIPOLES>  (1) 
410.47
10.32
2.82
1.53
12.51
0.14
-0.54
5.13
2.04
-0.7
0.4
-1.22
-0.05
-1.38

>  <PUBCHEM_SHAPE_SELFOVERLAP>  (1) 
857.062

>  <PUBCHEM_SHAPE_VOLUME>  (1) 
229.3

>  <PUBCHEM_COORDINATE_TYPE>  (1) 
2
5
10

$$$$
