41520
     RDKit          3D

  9  9  0  0  1  0  0  0  0  0999 V2000
    2.1907   -1.1778   -0.4537 O   0  0  0  0  0  0  0  0  0  0  0  0
   -0.6731    0.8775    0.1459 C   0  0  0  0  0  0  0  0  0  0  0  0
    0.8407    0.8165   -0.1436 C   0  0  0  0  0  0  0  0  0  0  0  0
   -1.0979   -0.5703    0.1905 C   0  0  0  0  0  0  0  0  0  0  0  0
    1.1017   -0.6660   -0.2380 C   0  0  0  0  0  0  0  0  0  0  0  0
   -1.4099    1.6704   -0.9323 C   0  0  0  0  0  0  0  0  0  0  0  0
   -0.1188   -1.4526   -0.0287 C   0  0  0  0  0  0  0  0  0  0  0  0
    1.6769    1.4414    0.9627 C   0  0  0  0  0  0  0  0  0  0  0  0
   -2.5103   -0.9391    0.4972 C   0  0  0  0  0  0  0  0  0  0  0  0
  1  5  2  0
  2  3  1  0
  2  4  1  0
  2  6  1  0
  3  5  1  0
  3  8  1  0
  4  7  2  0
  4  9  1  0
  5  7  1  0
M  END
>  <PUBCHEM_COMPOUND_CID>  (1) 
41520

>  <PUBCHEM_CONFORMER_RMSD>  (1) 
0.4

>  <PUBCHEM_CONFORMER_DIVERSEORDER>  (1) 
2
1
4
3

>  <PUBCHEM_MMFF94_PARTIAL_CHARGES>  (1) 
8
1 -0.57
15 0.15
2 0.14
3 0.06
4 -0.28
5 0.49
7 -0.14
9 0.14

>  <PUBCHEM_EFFECTIVE_ROTOR_COUNT>  (1) 
0.4

>  <PUBCHEM_PHARMACOPHORE_FEATURES>  (1) 
2
1 1 acceptor
5 2 3 4 5 7 rings

>  <PUBCHEM_HEAVY_ATOM_COUNT>  (1) 
9

>  <PUBCHEM_ATOM_DEF_STEREO_COUNT>  (1) 
0

>  <PUBCHEM_ATOM_UDEF_STEREO_COUNT>  (1) 
2

>  <PUBCHEM_BOND_DEF_STEREO_COUNT>  (1) 
0

>  <PUBCHEM_BOND_UDEF_STEREO_COUNT>  (1) 
0

>  <PUBCHEM_ISOTOPIC_ATOM_COUNT>  (1) 
0

>  <PUBCHEM_COMPONENT_COUNT>  (1) 
1

>  <PUBCHEM_CACTVS_TAUTO_COUNT>  (1) 
13

>  <PUBCHEM_CONFORMER_ID>  (1) 
0000A23000000002

>  <PUBCHEM_MMFF94_ENERGY>  (1) 
10.4623

>  <PUBCHEM_FEATURE_SELFOVERLAP>  (1) 
10.148

>  <PUBCHEM_SHAPE_FINGERPRINT>  (1) 
12423570 1 9215548371921079031
137420 1 14800289321766435621
161256 15 18411143562265842487
16945 1 18055357091606977449
20711978 78 17703517648384791068
21040471 1 17908995639803732195
21922407 69 15502376711931384620
23552423 10 18113909242555571278
241688 4 18334586728145388945
2748010 2 18410007728157802997
29004967 10 18116720818473565691
5084963 1 18335148578439391763

>  <PUBCHEM_SHAPE_MULTIPOLES>  (1) 
179.35
2.69
1.86
0.87
0.42
0.27
-0.03
-0.35
-0.4
-0.07
0.26
-0.05
0.24
0.72

>  <PUBCHEM_SHAPE_SELFOVERLAP>  (1) 
361.496

>  <PUBCHEM_SHAPE_VOLUME>  (1) 
108.7

>  <PUBCHEM_COORDINATE_TYPE>  (1) 
2
5
10

$$$$
