4152
     RDKit          3D

 23 24  0  0  0  0  0  0  0  0999 V2000
   -3.7787   -1.0128    0.4498 S   0  0  0  0  0  0  0  0  0  0  0  0
   -5.1433   -1.1110   -0.0337 O   0  0  0  0  0  0  0  0  0  0  0  0
   -3.4723   -1.3751    1.8203 O   0  0  0  0  0  0  0  0  0  0  0  0
    5.5976   -0.9415    0.3623 O   0  0  0  0  0  0  0  0  0  0  0  0
    6.9419    1.3323   -0.0589 O   0  0  0  0  0  0  0  0  0  0  0  0
   -2.7382   -1.8592   -0.6313 N   0  0  0  0  0  0  0  0  0  0  0  0
    5.5394    1.3159   -0.0640 N   0  0  0  0  0  0  0  0  0  0  0  0
   -1.3292   -1.6495   -0.5356 C   0  0  0  0  0  0  0  0  0  0  0  0
   -3.2685    0.6646    0.2075 C   0  0  0  0  0  0  0  0  0  0  0  0
    1.4104   -1.2423   -0.3497 C   0  0  0  0  0  0  0  0  0  0  0  0
   -0.6586   -1.9472    0.6507 C   0  0  0  0  0  0  0  0  0  0  0  0
   -0.6230   -1.1471   -1.6288 C   0  0  0  0  0  0  0  0  0  0  0  0
    0.7179   -1.7424    0.7442 C   0  0  0  0  0  0  0  0  0  0  0  0
    0.7537   -0.9427   -1.5352 C   0  0  0  0  0  0  0  0  0  0  0  0
   -3.8914    1.4243   -0.7661 C   0  0  0  0  0  0  0  0  0  0  0  0
   -2.2569    1.1816    0.9967 C   0  0  0  0  0  0  0  0  0  0  0  0
    2.8598   -1.0277   -0.2514 C   0  0  0  0  0  0  0  0  0  0  0  0
    3.4556    0.1105    0.1548 C   0  0  0  0  0  0  0  0  0  0  0  0
   -3.4889    2.7460   -0.9574 C   0  0  0  0  0  0  0  0  0  0  0  0
   -1.8546    2.5035    0.8053 C   0  0  0  0  0  0  0  0  0  0  0  0
   -2.4706    3.2857   -0.1717 C   0  0  0  0  0  0  0  0  0  0  0  0
    2.7358    1.3418    0.6287 C   0  0  0  0  0  0  0  0  0  0  0  0
    4.9622    0.0924    0.1634 C   0  0  0  0  0  0  0  0  0  0  0  0
  1  2  2  0
  1  3  2  0
  1  6  1  0
  1  9  1  0
  4 23  2  0
  5  7  1  0
  6  8  1  0
  7 23  1  0
  8 11  2  0
  8 12  1  0
  9 15  2  0
  9 16  1  0
 10 13  2  0
 10 14  1  0
 10 17  1  0
 11 13  1  0
 12 14  2  0
 15 19  1  0
 16 20  2  0
 17 18  2  0
 18 22  1  0
 18 23  1  0
 19 21  2  0
 20 21  1  0
M  END
>  <PUBCHEM_COMPOUND_CID>  (1) 
4152

>  <PUBCHEM_CONFORMER_RMSD>  (1) 
0.8

>  <PUBCHEM_CONFORMER_DIVERSEORDER>  (1) 
1
14
32
12
28
22
10
33
8
36
29
35
34
23
26
37
27
2
19
6
25
31
21
5
20
4
18
11
3
17
9
16
30
24
7
15
13

>  <PUBCHEM_MMFF94_PARTIAL_CHARGES>  (1) 
36
1 1.45
10 0.03
11 -0.15
12 -0.15
13 -0.15
14 -0.15
15 -0.15
16 -0.15
17 -0.18
18 -0.12
19 -0.15
2 -0.65
20 -0.15
21 -0.15
22 0.14
23 0.62
24 0.42
25 0.15
26 0.15
27 0.15
28 0.15
29 0.15
3 -0.65
30 0.15
31 0.15
32 0.15
33 0.15
34 0.15
38 0.37
39 0.4
4 -0.57
5 -0.44
6 -0.76
7 -0.39
8 0.2
9 -0.01

>  <PUBCHEM_EFFECTIVE_ROTOR_COUNT>  (1) 
6

>  <PUBCHEM_PHARMACOPHORE_FEATURES>  (1) 
8
1 2 acceptor
1 22 hydrophobe
1 3 acceptor
1 4 acceptor
1 6 donor
1 7 donor
6 8 10 11 12 13 14 rings
6 9 15 16 19 20 21 rings

>  <PUBCHEM_HEAVY_ATOM_COUNT>  (1) 
23

>  <PUBCHEM_ATOM_DEF_STEREO_COUNT>  (1) 
0

>  <PUBCHEM_ATOM_UDEF_STEREO_COUNT>  (1) 
0

>  <PUBCHEM_BOND_DEF_STEREO_COUNT>  (1) 
0

>  <PUBCHEM_BOND_UDEF_STEREO_COUNT>  (1) 
1

>  <PUBCHEM_ISOTOPIC_ATOM_COUNT>  (1) 
0

>  <PUBCHEM_COMPONENT_COUNT>  (1) 
1

>  <PUBCHEM_CACTVS_TAUTO_COUNT>  (1) 
3

>  <PUBCHEM_CONFORMER_ID>  (1) 
0000103800000001

>  <PUBCHEM_MMFF94_ENERGY>  (1) 
57.698

>  <PUBCHEM_FEATURE_SELFOVERLAP>  (1) 
40.613

>  <PUBCHEM_SHAPE_FINGERPRINT>  (1) 
10498660 4 18339642226917876157
10670039 82 18336564767334705300
10730089 173 18343303691186052828
11552529 35 17241619496805294834
11595378 159 18187630410845409928
11961588 58 18189882142324863421
12107183 9 17830445090834549986
12403814 3 18130792278424157243
12596602 18 17386004022443254080
12892183 10 18186806859245859194
13402501 40 18271805748039408905
13965767 371 17246398786219952197
13994607 96 18342167856671819037
14142880 1 18113615643413503821
14251751 93 18412540990258534368
14251764 38 18198343944740848704
14251764 75 17910683068152206329
14466204 15 18340197519456032738
14739800 52 18336811036284739714
15183329 4 17632866300640428998
15209294 21 18114179701041531038
15880784 105 15575001735821413546
17492 54 18055887984658062909
17844677 252 18409736145097618406
20645477 56 18060421347913025806
20775530 9 8284469903691415225
21279426 13 18268433430625026942
21315764 268 18342170098993108128
21652331 79 18341613741233847539
22956985 138 16962682364957175107
23227448 37 18341891909006638661
23402539 116 18272365425549750887
23557571 272 18272093799027650903
23559900 14 17908982110668039835
2838139 119 18271516495114295324
350125 39 18413109484772258520
3524813 1 18202278125940810441
392239 28 18188224203054143899
445580 37 18335432296386329900
469060 322 18116738312286832505
5104073 3 18040703759222089202
574716 61 13038609821423630442
57527585 21 17273407275908141441
9981440 41 18261394386958704019

>  <PUBCHEM_SHAPE_MULTIPOLES>  (1) 
443.74
11.76
3.09
1.21
18.42
1.87
-0.1
4.62
0.74
-2.86
-0.06
-0.78
-0.27
0.69

>  <PUBCHEM_SHAPE_SELFOVERLAP>  (1) 
928.237

>  <PUBCHEM_SHAPE_VOLUME>  (1) 
249.9

>  <PUBCHEM_COORDINATE_TYPE>  (1) 
2
5
10

$$$$
