41531
     RDKit          3D

 20 22  0  0  0  0  0  0  0  0999 V2000
   -0.4278   -1.6344   -0.1403 O   0  0  0  0  0  0  0  0  0  0  0  0
   -1.6091    2.3831    0.8172 O   0  0  0  0  0  0  0  0  0  0  0  0
    6.1950   -0.7393   -0.1827 O   0  0  0  0  0  0  0  0  0  0  0  0
    4.5747   -0.3858    1.3678 O   0  0  0  0  0  0  0  0  0  0  0  0
   -0.0323    0.8008    0.0729 C   0  0  0  0  0  0  0  0  0  0  0  0
   -2.6375   -0.9424    0.3676 C   0  0  0  0  0  0  0  0  0  0  0  0
    0.3640   -0.5197   -0.1836 C   0  0  0  0  0  0  0  0  0  0  0  0
   -2.6215    0.4296    0.1051 C   0  0  0  0  0  0  0  0  0  0  0  0
   -1.4139   -1.6259    0.8847 C   0  0  0  0  0  0  0  0  0  0  0  0
   -1.4240    1.2547    0.3651 C   0  0  0  0  0  0  0  0  0  0  0  0
    2.6396    0.2234   -0.6185 C   0  0  0  0  0  0  0  0  0  0  0  0
    1.6921   -0.7940   -0.5479 C   0  0  0  0  0  0  0  0  0  0  0  0
    0.9411    1.8164    0.0031 C   0  0  0  0  0  0  0  0  0  0  0  0
    2.2649    1.5296   -0.3352 C   0  0  0  0  0  0  0  0  0  0  0  0
   -3.8130   -1.6695    0.1313 C   0  0  0  0  0  0  0  0  0  0  0  0
   -3.7761    1.0697   -0.3672 C   0  0  0  0  0  0  0  0  0  0  0  0
    4.0489   -0.0880   -0.9912 C   0  0  0  0  0  0  0  0  0  0  0  0
   -4.9577   -1.0332   -0.3492 C   0  0  0  0  0  0  0  0  0  0  0  0
   -4.9394    0.3362   -0.5971 C   0  0  0  0  0  0  0  0  0  0  0  0
    4.9321   -0.4113    0.1981 C   0  0  0  0  0  0  0  0  0  0  0  0
  1  7  1  0
  1  9  1  0
  2 10  2  0
  3 20  1  0
  4 20  2  0
  5  7  2  0
  5 10  1  0
  5 13  1  0
  6  8  2  0
  6  9  1  0
  6 15  1  0
  7 12  1  0
  8 10  1  0
  8 16  1  0
 11 12  2  0
 11 14  1  0
 11 17  1  0
 13 14  2  0
 15 18  2  0
 16 19  2  0
 17 20  1  0
 18 19  1  0
M  END
>  <PUBCHEM_COMPOUND_CID>  (1) 
41531

>  <PUBCHEM_CONFORMER_RMSD>  (1) 
0.6

>  <PUBCHEM_CONFORMER_DIVERSEORDER>  (1) 
1
7
11
6
4
10
8
2
9
3
5

>  <PUBCHEM_MMFF94_PARTIAL_CHARGES>  (1) 
28
1 -0.36
10 0.4
11 -0.14
12 -0.15
13 -0.15
14 -0.15
15 -0.15
16 -0.15
17 0.2
18 -0.15
19 -0.15
2 -0.57
20 0.66
23 0.15
24 0.15
25 0.15
26 0.15
27 0.15
3 -0.65
30 0.15
31 0.15
32 0.5
4 -0.57
5 0.09
6 -0.14
7 0.08
8 0.09
9 0.42

>  <PUBCHEM_EFFECTIVE_ROTOR_COUNT>  (1) 
2.4

>  <PUBCHEM_PHARMACOPHORE_FEATURES>  (1) 
8
1 1 acceptor
1 2 acceptor
1 3 acceptor
1 4 acceptor
3 3 4 20 anion
6 5 7 11 12 13 14 rings
6 6 8 15 16 18 19 rings
7 1 5 6 7 8 9 10 rings

>  <PUBCHEM_HEAVY_ATOM_COUNT>  (1) 
20

>  <PUBCHEM_ATOM_DEF_STEREO_COUNT>  (1) 
0

>  <PUBCHEM_ATOM_UDEF_STEREO_COUNT>  (1) 
0

>  <PUBCHEM_BOND_DEF_STEREO_COUNT>  (1) 
0

>  <PUBCHEM_BOND_UDEF_STEREO_COUNT>  (1) 
0

>  <PUBCHEM_ISOTOPIC_ATOM_COUNT>  (1) 
0

>  <PUBCHEM_COMPONENT_COUNT>  (1) 
1

>  <PUBCHEM_CACTVS_TAUTO_COUNT>  (1) 
1

>  <PUBCHEM_CONFORMER_ID>  (1) 
0000A23B00000001

>  <PUBCHEM_MMFF94_ENERGY>  (1) 
68.3522

>  <PUBCHEM_FEATURE_SELFOVERLAP>  (1) 
40.673

>  <PUBCHEM_SHAPE_FINGERPRINT>  (1) 
10 15 18059560422625332914
10062212 137 18410571812315003615
11315181 36 18408610262375659704
11401426 45 18342455945750309527
11796584 16 17603867814607023306
12011746 2 18411980243697032894
12166972 35 17822577213095537925
12236239 1 17894631448796113350
12403259 226 18194400224502678537
12403260 363 18411419531152794301
12403814 3 12679467460698268443
124424 183 18260552242202232554
13140716 1 18268439107896318699
13288520 33 18411703183614289270
13533116 47 18262511499505020042
13862211 1 18412543227730871135
14115302 16 18041287659150338750
14251731 8 18187363224924147310
15099037 51 18408605867943686023
15196674 1 18338238270764941541
15788980 27 17676207969994731413
16945 1 18340785774655317017
17349148 13 18410575089163800644
17802600 8 18411699906607132781
17862501 102 18410291402294808696
18186145 218 18260541256240391965
192875 21 18411984671613493444
19489759 90 18409448063954505330
200 152 17989207053518075261
20374829 77 18411981381989875941
21029758 11 18272371979263428657
21033648 29 17059761235848929706
21267235 1 18409738386891101195
21279426 13 18192149300155687278
21682296 61 17559407859753324534
221490 88 18193002736264452073
23402539 116 18413385436594690791
23536379 177 16515682234353857878
23557571 272 17703514311242726792
23559900 14 18339076098652018520
2748010 2 18124042488036017889
3004659 81 18113338613838636020
3009799 131 18340475712682298061
335352 9 18410012135385047181
351380 180 18413107272890123998
4072396 5 18410002213778685826
4325135 7 12967130523062118738
4921388 177 15575007224942508467
5104073 3 18339085994135109513
559249 180 18187358792692243970
6138700 20 18335420119621516106
67856867 119 18263083382853377212
9709674 26 18341061756305806263

>  <PUBCHEM_SHAPE_MULTIPOLES>  (1) 
388.11
11.01
1.88
0.88
7.25
0.44
0.07
-3.07
-0.98
-1.02
0.29
0.34
-0.03
-0.06

>  <PUBCHEM_SHAPE_SELFOVERLAP>  (1) 
858.671

>  <PUBCHEM_SHAPE_VOLUME>  (1) 
205.3

>  <PUBCHEM_COORDINATE_TYPE>  (1) 
2
5
10

$$$$
