41534
     RDKit          3D

 22 25  0  0  0  0  0  0  0  0999 V2000
    3.6300    1.5122    1.0981 O   0  0  0  0  0  0  0  0  0  0  0  0
    3.6302   -1.5121   -1.0981 O   0  0  0  0  0  0  0  0  0  0  0  0
    3.6310    1.5119   -1.0971 O   0  0  0  0  0  0  0  0  0  0  0  0
    3.6307   -1.5120    1.0972 O   0  0  0  0  0  0  0  0  0  0  0  0
    3.0301    1.4393    0.0002 N   0  0  0  0  0  0  0  0  0  0  0  0
    3.0303   -1.4394   -0.0003 N   0  0  0  0  0  0  0  0  0  0  0  0
   -0.3897    0.0000    0.0000 C   0  0  0  0  0  0  0  0  0  0  0  0
   -1.1825    1.1393    0.0000 C   0  0  0  0  0  0  0  0  0  0  0  0
   -1.1824   -1.1394    0.0002 C   0  0  0  0  0  0  0  0  0  0  0  0
   -2.5749    0.7124    0.0001 C   0  0  0  0  0  0  0  0  0  0  0  0
   -2.5749   -0.7124    0.0001 C   0  0  0  0  0  0  0  0  0  0  0  0
    1.0034    0.0000   -0.0002 C   0  0  0  0  0  0  0  0  0  0  0  0
    1.6172    1.2679   -0.0003 C   0  0  0  0  0  0  0  0  0  0  0  0
    1.6172   -1.2678    0.0000 C   0  0  0  0  0  0  0  0  0  0  0  0
   -0.5759    2.3815    0.0000 C   0  0  0  0  0  0  0  0  0  0  0  0
   -0.5758   -2.3815    0.0006 C   0  0  0  0  0  0  0  0  0  0  0  0
    0.8293    2.4394   -0.0002 C   0  0  0  0  0  0  0  0  0  0  0  0
    0.8294   -2.4393    0.0004 C   0  0  0  0  0  0  0  0  0  0  0  0
   -3.7574    1.4272    0.0000 C   0  0  0  0  0  0  0  0  0  0  0  0
   -3.7574   -1.4273    0.0001 C   0  0  0  0  0  0  0  0  0  0  0  0
   -4.9539    0.7042   -0.0003 C   0  0  0  0  0  0  0  0  0  0  0  0
   -4.9539   -0.7042   -0.0002 C   0  0  0  0  0  0  0  0  0  0  0  0
  1  5  1  0
  2  6  1  0
  3  5  2  0
  4  6  2  0
  5 13  1  0
  6 14  1  0
  7  8  2  0
  7  9  1  0
  7 12  1  0
  8 10  1  0
  8 15  1  0
  9 11  1  0
  9 16  2  0
 10 11  2  0
 10 19  1  0
 11 20  1  0
 12 13  2  0
 12 14  1  0
 13 17  1  0
 14 18  2  0
 15 17  2  0
 16 18  1  0
 19 21  2  0
 20 22  2  0
 21 22  1  0
M  CHG  4   1  -1   2  -1   5   1   6   1
M  END
>  <PUBCHEM_COMPOUND_CID>  (1) 
41534

>  <PUBCHEM_CONFORMER_RMSD>  (1) 
0.6

>  <PUBCHEM_CONFORMER_DIVERSEORDER>  (1) 
1

>  <PUBCHEM_MMFF94_PARTIAL_CHARGES>  (1) 
24
1 -0.52
13 0.13
14 0.13
15 -0.15
16 -0.15
17 -0.15
18 -0.15
19 -0.15
2 -0.52
20 -0.15
21 -0.15
22 -0.15
23 0.15
24 0.15
25 0.15
26 0.15
27 0.15
28 0.15
29 0.15
3 -0.52
30 0.15
4 -0.52
5 0.91
6 0.91

>  <PUBCHEM_EFFECTIVE_ROTOR_COUNT>  (1) 
2

>  <PUBCHEM_PHARMACOPHORE_FEATURES>  (1) 
10
1 1 acceptor
1 1 anion
1 2 acceptor
1 2 anion
1 3 acceptor
1 4 acceptor
5 7 8 9 10 11 rings
6 10 11 19 20 21 22 rings
6 7 8 12 13 15 17 rings
6 7 9 12 14 16 18 rings

>  <PUBCHEM_HEAVY_ATOM_COUNT>  (1) 
22

>  <PUBCHEM_ATOM_DEF_STEREO_COUNT>  (1) 
0

>  <PUBCHEM_ATOM_UDEF_STEREO_COUNT>  (1) 
0

>  <PUBCHEM_BOND_DEF_STEREO_COUNT>  (1) 
0

>  <PUBCHEM_BOND_UDEF_STEREO_COUNT>  (1) 
0

>  <PUBCHEM_ISOTOPIC_ATOM_COUNT>  (1) 
0

>  <PUBCHEM_COMPONENT_COUNT>  (1) 
1

>  <PUBCHEM_CACTVS_TAUTO_COUNT>  (1) 
1

>  <PUBCHEM_CONFORMER_ID>  (1) 
0000A23E00000001

>  <PUBCHEM_MMFF94_ENERGY>  (1) 
101.8429

>  <PUBCHEM_FEATURE_SELFOVERLAP>  (1) 
51.216

>  <PUBCHEM_SHAPE_FINGERPRINT>  (1) 
10616163 171 18194404613658802103
10863032 1 18341896307327326193
10967382 1 18338797921956463717
1100329 8 18408036321174219018
11471102 20 18410570691412695173
11680986 33 18337398248102480547
12236239 1 17847062186659446771
12403259 226 18194115210188124802
12553582 1 18265896852550930499
12592029 89 18336550520547986227
13140716 1 18410853218260735227
14178342 30 17907559673665768234
14790565 3 18410867546203588773
15196674 1 18410855460687285519
15230672 131 13434641279090064027
15442244 35 18411700946395458777
15536298 74 18343021094605511043
1601671 61 18335421313152913101
16945 1 18122344575446541259
1813 80 17313100851960137885
18186145 218 18334292041859799359
19591789 44 18410857646535872199
20645477 70 18413106143751776679
20691752 17 17676487237511122345
20739085 24 18264512618882921353
20905425 154 18341617001188034340
21267235 1 18339370677821758479
21421861 104 17969214534684800729
21452121 103 18343574162261307800
221490 88 18336554905884103627
22182313 1 18263910086352514700
2334 1 18410575119028098530
23463225 33 18408601452738261697
23559900 14 18341899580324540604
2748010 2 18410292510174753591
335352 9 18266458707377206613
34934 24 18268988850972965060
350125 39 18337673018941320460
495365 180 17561075947535288042
5104073 3 18410858759369901827
59755656 215 18412832400164429396
7364860 26 18342738515769457793
9709674 26 18337112388286102331

>  <PUBCHEM_SHAPE_MULTIPOLES>  (1) 
419.31
8.04
2.79
0.76
3.8
0
0
0
0
-1.29
0
-0.57
0
0

>  <PUBCHEM_SHAPE_SELFOVERLAP>  (1) 
969.479

>  <PUBCHEM_SHAPE_VOLUME>  (1) 
217.5

>  <PUBCHEM_COORDINATE_TYPE>  (1) 
2
5
10

$$$$
