41537
     RDKit          3D

 25 27  0  0  1  0  0  0  0  0999 V2000
   -7.4696   -1.3609    1.3312 F   0  0  0  0  0  0  0  0  0  0  0  0
   -6.7433   -1.3856   -0.8882 F   0  0  0  0  0  0  0  0  0  0  0  0
   -0.9126    1.3031    0.1719 O   0  0  0  0  0  0  0  0  0  0  0  0
   -2.7992    2.4565   -0.5052 O   0  0  0  0  0  0  0  0  0  0  0  0
    3.3675    2.0551    0.9584 O   0  0  0  0  0  0  0  0  0  0  0  0
   -3.2407   -0.8648   -0.4421 C   0  0  0  0  0  0  0  0  0  0  0  0
   -4.3775    0.0630   -0.1283 C   0  0  0  0  0  0  0  0  0  0  0  0
   -3.0249    0.3073    0.4606 C   0  0  0  0  0  0  0  0  0  0  0  0
   -2.6935   -0.8350   -1.8297 C   0  0  0  0  0  0  0  0  0  0  0  0
   -3.1957   -2.2207    0.1802 C   0  0  0  0  0  0  0  0  0  0  0  0
   -5.4515   -0.3589    0.7583 C   0  0  0  0  0  0  0  0  0  0  0  0
   -2.2489    1.4809   -0.0150 C   0  0  0  0  0  0  0  0  0  0  0  0
   -6.5500   -1.0322    0.3999 C   0  0  0  0  0  0  0  0  0  0  0  0
   -0.0829    2.3870   -0.2591 C   0  0  0  0  0  0  0  0  0  0  0  0
    1.3492    2.1291   -0.0279 C   0  0  0  0  0  0  0  0  0  0  0  0
    2.2582    1.5107   -0.9191 C   0  0  0  0  0  0  0  0  0  0  0  0
    2.0724    2.4417    1.0996 C   0  0  0  0  0  0  0  0  0  0  0  0
    3.4302    1.5053   -0.2609 C   0  0  0  0  0  0  0  0  0  0  0  0
    4.8027    0.9909   -0.6482 C   0  0  0  0  0  0  0  0  0  0  0  0
    5.0346   -0.4316   -0.2645 C   0  0  0  0  0  0  0  0  0  0  0  0
    4.7071   -1.4558   -1.1531 C   0  0  0  0  0  0  0  0  0  0  0  0
    5.5793   -0.7379    0.9826 C   0  0  0  0  0  0  0  0  0  0  0  0
    4.9240   -2.7863   -0.7945 C   0  0  0  0  0  0  0  0  0  0  0  0
    5.7963   -2.0684    1.3410 C   0  0  0  0  0  0  0  0  0  0  0  0
    5.4686   -3.0925    0.4524 C   0  0  0  0  0  0  0  0  0  0  0  0
  1 13  1  0
  2 13  1  0
  3 12  1  0
  3 14  1  0
  4 12  2  0
  5 17  1  0
  5 18  1  0
  6  7  1  0
  6  8  1  0
  6  9  1  0
  6 10  1  0
  7  8  1  0
  7 11  1  0
  8 12  1  0
 11 13  2  3
 14 15  1  0
 15 16  1  0
 15 17  2  0
 16 18  2  0
 18 19  1  0
 19 20  1  0
 20 21  2  0
 20 22  1  0
 21 23  1  0
 22 24  2  0
 23 25  2  0
 24 25  1  0
M  END
>  <PUBCHEM_COMPOUND_CID>  (1) 
41537

>  <PUBCHEM_CONFORMER_RMSD>  (1) 
1

>  <PUBCHEM_CONFORMER_DIVERSEORDER>  (1) 
1
78
79
59
16
87
172
264
8
261
72
152
270
231
134
48
131
241
50
173
266
214
268
9
100
150
77
80
243
154
279
269
74
234
85
158
13
161
186
26
302
228
256
334
221
51
265
64
166
187
111
322
223
236
142
224
192
145
316
189
204
257
146
156
188
5
65
144
95
101
147
18
97
179
45
215
233
306
127
81
313
318
252
297
320
170
337
25
159
227
163
271
120
118
331
207
171
151
2
119
164
217
47
277
176
55
213
278
181
12
167
311
86
200
123
325
108
341
130
281
53
23
289
319
190
52
230
323
62
102
96
225
242
259
88
330
90
162
222
69
89
20
284
201
143
195
99
56
336
157
290
287
41
314
238
91
305
75
194
117
254
40
283
274
178
209
333
267
206
61
303
121
54
174
34
136
106
212
237
66
39
286
138
253
273
329
109
24
211
149
67
226
35
301
132
3
321
260
247
42
296
124
293
98
44
38
73
251
155
198
300
272
203
30
282
4
339
285
103
29
317
165
49
153
70
7
342
15
43
199
310
17
160
68
33
229
245
104
21
46
335
105
139
240
57
327
258
263
340
219
128
218
294
76
110
312
292
60
288
185
63
197
115
133
304
184
210
276
202
196
112
82
255
182
140
58
244
36
126
220
10
37
168
246
280
14
208
262
324
22
177
27
328
94
315
338
71
125
6
92
248
107
137
332
93
191
32
232
116
307
84
11
309
180
129
169
235
239
175
216
28
31
113
249
299
250
141
122
19
291
275
298
308
326
114
135
148
295
193
205
83
183

>  <PUBCHEM_MMFF94_PARTIAL_CHARGES>  (1) 
35
1 -0.15
10 0.09
11 -0.19
12 0.72
13 0.3
14 0.46
15 -0.18
16 -0.15
17 -0.01
18 -0.04
19 0.32
2 -0.15
20 -0.14
21 -0.15
22 -0.15
23 -0.15
24 -0.15
25 -0.15
26 0.1
27 0.1
3 -0.43
34 0.15
37 0.15
38 0.15
4 -0.57
41 0.15
42 0.15
43 0.15
44 0.15
45 0.15
5 -0.28
6 -0.19
7 -0.06
8 -0.1
9 0.09

>  <PUBCHEM_EFFECTIVE_ROTOR_COUNT>  (1) 
7.6

>  <PUBCHEM_PHARMACOPHORE_FEATURES>  (1) 
5
1 4 acceptor
1 5 acceptor
3 6 9 10 hydrophobe
5 5 15 16 17 18 rings
6 20 21 22 23 24 25 rings

>  <PUBCHEM_HEAVY_ATOM_COUNT>  (1) 
25

>  <PUBCHEM_ATOM_DEF_STEREO_COUNT>  (1) 
2

>  <PUBCHEM_ATOM_UDEF_STEREO_COUNT>  (1) 
0

>  <PUBCHEM_BOND_DEF_STEREO_COUNT>  (1) 
0

>  <PUBCHEM_BOND_UDEF_STEREO_COUNT>  (1) 
0

>  <PUBCHEM_ISOTOPIC_ATOM_COUNT>  (1) 
0

>  <PUBCHEM_COMPONENT_COUNT>  (1) 
1

>  <PUBCHEM_CACTVS_TAUTO_COUNT>  (1) 
1

>  <PUBCHEM_CONFORMER_ID>  (1) 
0000A24100000001

>  <PUBCHEM_MMFF94_ENERGY>  (1) 
43.7477

>  <PUBCHEM_FEATURE_SELFOVERLAP>  (1) 
25.372

>  <PUBCHEM_SHAPE_FINGERPRINT>  (1) 
10670039 82 11747210222241673022
10917259 128 16557641716775785841
117089 54 18125729981041057950
11796584 16 18118960296538197100
12107183 9 18200890469711614473
12422481 6 17918001529114605839
12633257 1 17203050780438713469
13533116 47 18341333374416812576
13551218 46 18342178877752799583
13782708 43 18335420158223026133
13955234 65 18198622331805613088
14216079 64 18408886244152417835
14251751 18 18262795152114162012
14347332 77 18409728435161914437
14528608 73 10737292350672568416
14565420 104 17343489296912378072
14848178 5 18337665296916916540
14848178 96 8790878601989452188
15001296 14 18262233425667491586
15183329 4 18342463659559026339
15475509 35 18343297072641508720
15510800 12 18337395950812370522
17134984 74 18040723584638399634
1768 124 18272931652130546390
17857418 61 18413385432463370524
1979834 28 17203333273850038454
20403669 9 18412547591760275446
20554085 129 14764357011857955879
21344244 181 17822017535759750587
21682296 61 18334580170526860971
22849339 104 15936705864234655321
23424784 1240 18271528581600750238
23522609 53 18122378802300639697
23569943 247 18409448051671731555
270888 7 9655280537253364250
2748736 6 9799404486535223667
2838139 119 9295292698866893592
3004659 81 18333737901501506604
316301 35 18410569596375519240
33382 64 18412830187792392464
34797466 226 11170179957142924761
4073 2 18123753324830763208
437795 160 15482670205137416255
439807 62 18186803556415540810
44062 13 18117274757765415892
46194498 28 17095804425082146428
5104073 3 18059856142980799712
513202 73 18260835869638449737
56633871 153 18339924917744839151
6201460 15 17174883234330660658
7970288 3 18264207079225335675
88748 71 18409731716864633548

>  <PUBCHEM_SHAPE_MULTIPOLES>  (1) 
482.33
18.74
3.45
1.22
13.06
0.13
-0.09
15.66
3.3
-3.64
0.24
-0.29
0.31
0.06

>  <PUBCHEM_SHAPE_SELFOVERLAP>  (1) 
1029.557

>  <PUBCHEM_SHAPE_VOLUME>  (1) 
269.5

>  <PUBCHEM_COORDINATE_TYPE>  (1) 
2
5
10

$$$$
