41538
     RDKit          3D

 26 28  0  0  1  0  0  0  0  0999 V2000
   -0.8187   -1.4023    2.8763 Br  0  0  0  0  0  0  0  0  0  0  0  0
   -0.5700   -2.8061    0.0453 Br  0  0  0  0  0  0  0  0  0  0  0  0
   -2.0015    0.9924   -0.4750 O   0  0  0  0  0  0  0  0  0  0  0  0
   -4.0858    1.9830   -0.6263 O   0  0  0  0  0  0  0  0  0  0  0  0
    3.0115    0.6695   -1.3409 O   0  0  0  0  0  0  0  0  0  0  0  0
   -4.9670   -0.9671   -0.4667 C   0  0  0  0  0  0  0  0  0  0  0  0
   -3.5698   -1.4974   -0.3310 C   0  0  0  0  0  0  0  0  0  0  0  0
   -3.8392   -0.3029   -1.1893 C   0  0  0  0  0  0  0  0  0  0  0  0
   -5.5683   -0.3037    0.7266 C   0  0  0  0  0  0  0  0  0  0  0  0
   -5.9646   -1.7066   -1.2951 C   0  0  0  0  0  0  0  0  0  0  0  0
   -2.8258   -1.3048    0.9048 C   0  0  0  0  0  0  0  0  0  0  0  0
   -3.3401    1.0202   -0.7350 C   0  0  0  0  0  0  0  0  0  0  0  0
   -1.6024   -1.7687    1.2125 C   0  0  0  0  0  0  0  0  0  0  0  0
   -1.4335    2.2217   -0.0326 C   0  0  0  0  0  0  0  0  0  0  0  0
    0.0297    2.0969    0.2264 C   0  0  0  0  0  0  0  0  0  0  0  0
    0.8459    1.4329   -0.6894 C   0  0  0  0  0  0  0  0  0  0  0  0
    0.5824    2.6449    1.3840 C   0  0  0  0  0  0  0  0  0  0  0  0
    2.2147    1.3167   -0.4474 C   0  0  0  0  0  0  0  0  0  0  0  0
    1.9510    2.5287    1.6260 C   0  0  0  0  0  0  0  0  0  0  0  0
    2.7672    1.8648    0.7102 C   0  0  0  0  0  0  0  0  0  0  0  0
    3.9410   -0.2281   -0.8425 C   0  0  0  0  0  0  0  0  0  0  0  0
    3.5537   -1.1248    0.1367 C   0  0  0  0  0  0  0  0  0  0  0  0
    5.2327   -0.2038   -1.3366 C   0  0  0  0  0  0  0  0  0  0  0  0
    4.4902   -2.0283    0.6392 C   0  0  0  0  0  0  0  0  0  0  0  0
    6.1690   -1.1074   -0.8342 C   0  0  0  0  0  0  0  0  0  0  0  0
    5.7977   -2.0196    0.1538 C   0  0  0  0  0  0  0  0  0  0  0  0
  1 13  1  0
  2 13  1  0
  3 12  1  0
  3 14  1  0
  4 12  2  0
  5 18  1  0
  5 21  1  0
  6  7  1  0
  6  8  1  0
  6  9  1  0
  6 10  1  0
  7  8  1  0
  7 11  1  0
  8 12  1  0
 11 13  2  3
 14 15  1  0
 15 16  2  0
 15 17  1  0
 16 18  1  0
 17 19  2  0
 18 20  2  0
 19 20  1  0
 21 22  2  0
 21 23  1  0
 22 24  1  0
 23 25  2  0
 24 26  2  0
 25 26  1  0
M  END
>  <PUBCHEM_COMPOUND_CID>  (1) 
41538

>  <PUBCHEM_CONFORMER_RMSD>  (1) 
1

>  <PUBCHEM_CONFORMER_DIVERSEORDER>  (1) 
2
29
197
386
334
397
134
136
196
409
84
90
108
210
351
259
91
170
153
398
265
115
87
149
332
176
40
345
51
13
365
325
328
380
273
241
244
191
187
327
156
166
248
318
154
215
267
183
227
383
212
82
12
15
221
272
347
111
27
264
50
168
258
193
81
385
116
401
95
123
117
307
62
317
201
381
302
46
211
66
320
49
245
402
224
377
189
336
11
305
3
268
204
202
313
277
234
100
99
353
101
309
295
198
132
63
367
205
65
310
137
195
199
152
33
346
76
208
326
186
280
103
357
403
150
389
69
151
388
80
94
283
142
135
239
20
366
282
226
144
324
352
5
35
399
16
285
102
10
219
250
308
394
163
120
61
350
23
74
57
333
32
344
88
311
172
256
216
110
400
106
59
146
105
370
330
188
182
230
41
24
28
404
235
233
316
98
203
37
72
184
257
393
391
406
293
60
171
217
220
45
260
362
6
291
247
148
269
281
279
177
213
329
236
125
126
147
274
160
34
378
38
331
276
9
228
303
237
128
104
229
396
348
314
297
56
55
93
129
300
349
17
207
371
358
75
321
249
374
97
359
8
131
408
266
275
155
7
25
223
141
112
14
185
143
77
122
290
79
47
48
30
251
200
121
390
296
181
338
22
159
286
157
395
242
340
124
1
355
85
387
54
192
341
369
31
407
92
232
109
96
209
169
360
312
165
21
68
261
392
139
42
173
315
238
240
174
114
287
140
86
180
162
161
262
231
382
322
64
376
127
4
379
190
278
194
246
270
289
255
118
175
206
73
158
58
113
337
361
222
178
375
292
119
167
179
299
343
138
368
252
372
39
294
288
164
373
301
214
342
18
26
354
254
71
405
67
89
130
133
306
253
36
52
384
271
225
218
364
19
83
298
78
356
323
339
70
284
44
53
263
363
243
335
43
107
304
319
145

>  <PUBCHEM_MMFF94_PARTIAL_CHARGES>  (1) 
38
1 -0.11
10 0.09
11 -0.19
12 0.72
13 0.22
14 0.42
15 -0.14
16 -0.15
17 -0.15
18 0.08
19 -0.15
2 -0.11
20 -0.15
21 0.08
22 -0.15
23 -0.15
24 -0.15
25 -0.15
26 -0.15
27 0.1
28 0.1
3 -0.43
35 0.15
38 0.15
39 0.15
4 -0.57
40 0.15
41 0.15
42 0.15
43 0.15
44 0.15
45 0.15
46 0.15
5 -0.17
6 -0.19
7 -0.06
8 -0.1
9 0.09

>  <PUBCHEM_EFFECTIVE_ROTOR_COUNT>  (1) 
7.6

>  <PUBCHEM_PHARMACOPHORE_FEATURES>  (1) 
8
1 1 hydrophobe
1 2 hydrophobe
1 4 acceptor
1 5 acceptor
3 1 2 13 hydrophobe
3 6 9 10 hydrophobe
6 15 16 17 18 19 20 rings
6 21 22 23 24 25 26 rings

>  <PUBCHEM_HEAVY_ATOM_COUNT>  (1) 
26

>  <PUBCHEM_ATOM_DEF_STEREO_COUNT>  (1) 
2

>  <PUBCHEM_ATOM_UDEF_STEREO_COUNT>  (1) 
0

>  <PUBCHEM_BOND_DEF_STEREO_COUNT>  (1) 
0

>  <PUBCHEM_BOND_UDEF_STEREO_COUNT>  (1) 
0

>  <PUBCHEM_ISOTOPIC_ATOM_COUNT>  (1) 
0

>  <PUBCHEM_COMPONENT_COUNT>  (1) 
1

>  <PUBCHEM_CACTVS_TAUTO_COUNT>  (1) 
1

>  <PUBCHEM_CONFORMER_ID>  (1) 
0000A24200000002

>  <PUBCHEM_MMFF94_ENERGY>  (1) 
77.7679

>  <PUBCHEM_FEATURE_SELFOVERLAP>  (1) 
42.071

>  <PUBCHEM_SHAPE_FINGERPRINT>  (1) 
105312 117 12035744114989374992
10693767 8 17983274201072338407
107951 10 17095813131043976771
11796584 16 18267866086424241796
12363563 72 18130516275061649996
12596602 18 15985099734623120470
12633257 1 17846785138886729207
12788726 201 18197501727534631488
13383668 262 16009027349780200723
13402501 40 18410012139073489294
13533116 47 18058728160267395401
13631057 29 18340210696610836380
14068700 675 17917992776129525186
14251740 79 18187932724660665848
14866123 147 18270124496582914113
14910302 57 18260536862082816021
14931854 50 18114462275593426526
15183329 4 17458344122303147958
17138139 8 18334008368261013298
17349148 13 16988853807966886350
17980427 23 10519694605905584457
20028762 73 17775562074106433007
20403669 9 18343025488483798766
20775438 99 17693910279207300679
20832881 197 18413672405151421937
21781051 124 17458627878340198651
221357 26 18409163324918830727
23522609 53 18124910990421968941
23559900 14 18189334739477982789
23569943 247 18411699864449614939
3004659 81 18186520986739043510
3027735 51 18199196087384437242
316301 35 18342169024649468652
3383291 50 18334855017641969506
3729539 64 18186517679277239411
394222 165 15408628115915567832
439807 62 18260551108589322903
463206 1 18341611572233762783
474144 1 17314773127879418658
5104073 3 17775284967253802225
57527585 103 17608691294618949882
6138700 20 18336546032144112023
8863177 126 18341050838730963855
9709674 26 18266173018805755401
9862886 166 18334859407635641244

>  <PUBCHEM_SHAPE_MULTIPOLES>  (1) 
529.34
13.44
3.31
1.73
2.84
0.77
1.07
-7.84
-5.53
0.76
0.96
-0.25
-0.27
0.46

>  <PUBCHEM_SHAPE_SELFOVERLAP>  (1) 
1102.278

>  <PUBCHEM_SHAPE_VOLUME>  (1) 
308.3

>  <PUBCHEM_COORDINATE_TYPE>  (1) 
2
5
10

$$$$
