41541
     RDKit          3D

 15 16  0  0  0  0  0  0  0  0999 V2000
    0.1833   -2.3910   -0.0011 Cl  0  0  0  0  0  0  0  0  0  0  0  0
    3.3258   -2.0241    0.0006 Cl  0  0  0  0  0  0  0  0  0  0  0  0
    4.5344    0.9291   -0.0010 Cl  0  0  0  0  0  0  0  0  0  0  0  0
    0.0518    0.3183    0.0004 C   0  0  0  0  0  0  0  0  0  0  0  0
   -1.3909    0.2070    0.0003 C   0  0  0  0  0  0  0  0  0  0  0  0
    0.8904   -0.7996    0.0001 C   0  0  0  0  0  0  0  0  0  0  0  0
    0.6081    1.5999    0.0005 C   0  0  0  0  0  0  0  0  0  0  0  0
   -2.0861    0.1536   -1.2078 C   0  0  0  0  0  0  0  0  0  0  0  0
   -2.0865    0.1527    1.2083 C   0  0  0  0  0  0  0  0  0  0  0  0
    2.2758   -0.6365    0.0000 C   0  0  0  0  0  0  0  0  0  0  0  0
    1.9933    1.7630    0.0005 C   0  0  0  0  0  0  0  0  0  0  0  0
    2.8272    0.6448    0.0000 C   0  0  0  0  0  0  0  0  0  0  0  0
   -3.4768    0.0460   -1.2082 C   0  0  0  0  0  0  0  0  0  0  0  0
   -3.4773    0.0450    1.2078 C   0  0  0  0  0  0  0  0  0  0  0  0
   -4.1723   -0.0083   -0.0005 C   0  0  0  0  0  0  0  0  0  0  0  0
  1  6  1  0
  2 10  1  0
  3 12  1  0
  4  5  1  0
  4  6  2  0
  4  7  1  0
  5  8  2  0
  5  9  1  0
  6 10  1  0
  7 11  2  0
  8 13  1  0
  9 14  2  0
 10 12  2  0
 11 12  1  0
 13 15  2  0
 14 15  1  0
M  END
>  <PUBCHEM_COMPOUND_CID>  (1) 
41541

>  <PUBCHEM_CONFORMER_RMSD>  (1) 
0.4

>  <PUBCHEM_CONFORMER_DIVERSEORDER>  (1) 
1
2
3

>  <PUBCHEM_MMFF94_PARTIAL_CHARGES>  (1) 
20
1 -0.18
10 0.18
11 -0.15
12 0.18
13 -0.15
14 -0.15
15 -0.15
16 0.15
17 0.15
18 0.15
19 0.15
2 -0.18
20 0.15
21 0.15
22 0.15
3 -0.18
6 0.18
7 -0.15
8 -0.15
9 -0.15

>  <PUBCHEM_EFFECTIVE_ROTOR_COUNT>  (1) 
1

>  <PUBCHEM_PHARMACOPHORE_FEATURES>  (1) 
2
6 4 6 7 10 11 12 rings
6 5 8 9 13 14 15 rings

>  <PUBCHEM_HEAVY_ATOM_COUNT>  (1) 
15

>  <PUBCHEM_ATOM_DEF_STEREO_COUNT>  (1) 
0

>  <PUBCHEM_ATOM_UDEF_STEREO_COUNT>  (1) 
0

>  <PUBCHEM_BOND_DEF_STEREO_COUNT>  (1) 
0

>  <PUBCHEM_BOND_UDEF_STEREO_COUNT>  (1) 
0

>  <PUBCHEM_ISOTOPIC_ATOM_COUNT>  (1) 
0

>  <PUBCHEM_COMPONENT_COUNT>  (1) 
1

>  <PUBCHEM_CACTVS_TAUTO_COUNT>  (1) 
1

>  <PUBCHEM_CONFORMER_ID>  (1) 
0000A24500000001

>  <PUBCHEM_MMFF94_ENERGY>  (1) 
46.1309

>  <PUBCHEM_FEATURE_SELFOVERLAP>  (1) 
10.149

>  <PUBCHEM_SHAPE_FINGERPRINT>  (1) 
10219947 1 18410294696355311658
10980938 120 18411699885459213918
11471102 20 18409727348355424812
11578080 2 12686486906244782295
12119455 92 18187358861158194696
12236239 1 17775568645732805673
13140716 1 18122621915008387528
13296908 3 17967816024418462899
13380535 76 18340205288767358934
14144814 61 18273216391361081329
14251717 144 18411696573649311463
14576447 43 18057871614586211079
14993402 34 18272088318295758572
15219456 202 18040434373860826437
15309172 13 18409451418228966043
15653759 3 17095243626827977881
15775835 57 18412543244899859663
16945 1 18410856594537812480
17844478 74 17967255290874109149
1813 80 17914348887627269982
18175812 5 17603868939872104013
18186145 218 18342741822941755196
19049666 15 17678167205521553357
19422 9 17846779589915771183
200 152 18272363183818869573
20201158 50 18186802457014559427
20279233 1 17748827423180341257
204376 136 18336829813781666704
20645477 70 18337101272441281055
21639500 275 18340197587458376629
21730867 7 18261111880624949423
2334 1 17762055845591320948
23402539 116 17918274264186530364
23402655 69 18341607097257271837
23557571 272 17022618671884286077
23559900 14 16733263444140675378
25 1 18408880745839892063
2748010 2 18265342891890232698
350125 39 17760937641981049224
474 4 17772737514871340288
63268167 104 18341889701388037072
77492 1 17703791422791094817
81228 2 16753513999649638203
8272917 22 18270124505125044343

>  <PUBCHEM_SHAPE_MULTIPOLES>  (1) 
314.3
7.5
1.87
1.01
0.44
0.85
0
-0.64
0
-1.97
0
1.06
-0.03
0

>  <PUBCHEM_SHAPE_SELFOVERLAP>  (1) 
655.458

>  <PUBCHEM_SHAPE_VOLUME>  (1) 
171.7

>  <PUBCHEM_COORDINATE_TYPE>  (1) 
2
5
10

$$$$
