41542
     RDKit          3D

 12 12  0  0  1  0  0  0  0  0999 V2000
   -2.0735    1.2560   -1.2961 O   0  0  0  0  0  0  0  0  0  0  0  0
    0.4120   -0.0658   -0.2303 C   0  0  0  0  0  0  0  0  0  0  0  0
    1.0202    1.2159    0.3552 C   0  0  0  0  0  0  0  0  0  0  0  0
    1.2751   -1.2869    0.1143 C   0  0  0  0  0  0  0  0  0  0  0  0
    2.4702    1.4038   -0.0849 C   0  0  0  0  0  0  0  0  0  0  0  0
    2.7248   -1.0948   -0.3253 C   0  0  0  0  0  0  0  0  0  0  0  0
    3.3230    0.1845    0.2514 C   0  0  0  0  0  0  0  0  0  0  0  0
   -1.0195   -0.2595    0.2665 C   0  0  0  0  0  0  0  0  0  0  0  0
   -1.8929    0.9270   -0.1233 C   0  0  0  0  0  0  0  0  0  0  0  0
   -1.6425   -1.4883   -0.3290 C   0  0  0  0  0  0  0  0  0  0  0  0
   -2.4968    1.7239    1.0057 C   0  0  0  0  0  0  0  0  0  0  0  0
   -2.1003   -2.5158    0.3957 C   0  0  0  0  0  0  0  0  0  0  0  0
  1  9  2  0
  2  3  1  0
  2  4  1  0
  2  8  1  0
  3  5  1  0
  4  6  1  0
  5  7  1  0
  6  7  1  0
  8  9  1  0
  8 10  1  0
  9 11  1  0
 10 12  2  0
M  END
>  <PUBCHEM_COMPOUND_CID>  (1) 
41542

>  <PUBCHEM_CONFORMER_RMSD>  (1) 
0.6

>  <PUBCHEM_CONFORMER_DIVERSEORDER>  (1) 
1
20
29
33
27
19
31
24
28
32
25
15
21
23
18
8
16
26
2
30
12
9
7
22
14
3
6
11
10
5
4
13
17

>  <PUBCHEM_MMFF94_PARTIAL_CHARGES>  (1) 
9
1 -0.57
10 -0.29
11 0.06
12 -0.3
25 0.15
29 0.15
30 0.15
8 0.2
9 0.45

>  <PUBCHEM_EFFECTIVE_ROTOR_COUNT>  (1) 
4.2

>  <PUBCHEM_PHARMACOPHORE_FEATURES>  (1) 
3
1 1 acceptor
1 12 hydrophobe
6 2 3 4 5 6 7 rings

>  <PUBCHEM_HEAVY_ATOM_COUNT>  (1) 
12

>  <PUBCHEM_ATOM_DEF_STEREO_COUNT>  (1) 
0

>  <PUBCHEM_ATOM_UDEF_STEREO_COUNT>  (1) 
1

>  <PUBCHEM_BOND_DEF_STEREO_COUNT>  (1) 
0

>  <PUBCHEM_BOND_UDEF_STEREO_COUNT>  (1) 
0

>  <PUBCHEM_ISOTOPIC_ATOM_COUNT>  (1) 
0

>  <PUBCHEM_COMPONENT_COUNT>  (1) 
1

>  <PUBCHEM_CACTVS_TAUTO_COUNT>  (1) 
5

>  <PUBCHEM_CONFORMER_ID>  (1) 
0000A24600000001

>  <PUBCHEM_MMFF94_ENERGY>  (1) 
12.3573

>  <PUBCHEM_FEATURE_SELFOVERLAP>  (1) 
15.223

>  <PUBCHEM_SHAPE_FINGERPRINT>  (1) 
11206711 2 18337390564400635502
12138202 97 18260816086322323735
12897270 3 18265610081573575862
12932764 1 17894913997166365010
13380535 21 18339093626355063382
13380535 76 18341609278831541703
14325111 11 18411136982903563072
14614273 12 18261661675246582669
15775835 57 18187930521289558933
16945 1 18265050237134574132
17844478 74 18193001632131127866
18186145 218 18126003763097519957
19973954 147 18411702127273964812
20871998 184 18200881776444177023
21501502 16 18336830883017416402
21524375 3 17914336784325189281
23402539 116 18272639130972405341
23552423 10 18261674865238873910
23559900 14 18270688563755366094
25610 137 17975981178075988451
2748010 2 18341612646344189254
3248919 1 18272362058189271776
5084963 1 18189330337268061064
6333449 129 18410290306872452407
74978 22 18411420579361911928
81228 2 18261679289181964995

>  <PUBCHEM_SHAPE_MULTIPOLES>  (1) 
241.09
4.74
2.31
0.86
2.15
0.65
0.08
-0.34
-0.22
-1.52
-0.25
-0.4
-0.23
0.09

>  <PUBCHEM_SHAPE_SELFOVERLAP>  (1) 
471.709

>  <PUBCHEM_SHAPE_VOLUME>  (1) 
143.8

>  <PUBCHEM_COORDINATE_TYPE>  (1) 
2
5
10

$$$$
