41544
     RDKit          3D

 26 28  0  0  0  0  0  0  0  0999 V2000
    5.6408    2.2840   -0.9410 O   0  0  0  0  0  0  0  0  0  0  0  0
    2.8786   -1.8568    0.5033 O   0  0  0  0  0  0  0  0  0  0  0  0
   -2.5096   -0.6428    1.6210 O   0  0  0  0  0  0  0  0  0  0  0  0
    3.8271    0.7315    0.6087 N   0  0  0  0  0  0  0  0  0  0  0  0
    0.6870   -1.0185    0.5811 N   0  0  0  0  0  0  0  0  0  0  0  0
   -2.4185    0.1350   -0.6075 N   0  0  0  0  0  0  0  0  0  0  0  0
    4.2911    2.0502    1.0617 C   0  0  0  0  0  0  0  0  0  0  0  0
    3.8273    0.6748   -0.8597 C   0  0  0  0  0  0  0  0  0  0  0  0
    5.6746    2.3386    0.4857 C   0  0  0  0  0  0  0  0  0  0  0  0
    5.2220    0.9946   -1.3898 C   0  0  0  0  0  0  0  0  0  0  0  0
    2.4971    0.4391    1.1391 C   0  0  0  0  0  0  0  0  0  0  0  0
    2.0736   -0.9526    0.7023 C   0  0  0  0  0  0  0  0  0  0  0  0
   -0.0942   -2.1347    0.1982 C   0  0  0  0  0  0  0  0  0  0  0  0
   -1.4748   -2.0332    0.1278 C   0  0  0  0  0  0  0  0  0  0  0  0
   -2.1756   -0.7934    0.4383 C   0  0  0  0  0  0  0  0  0  0  0  0
    0.5557   -3.3226   -0.1002 C   0  0  0  0  0  0  0  0  0  0  0  0
   -2.2244   -3.1472   -0.2505 C   0  0  0  0  0  0  0  0  0  0  0  0
   -3.1110    1.3771   -0.3192 C   0  0  0  0  0  0  0  0  0  0  0  0
   -0.1940   -4.4364   -0.4786 C   0  0  0  0  0  0  0  0  0  0  0  0
   -1.5839   -4.3486   -0.5537 C   0  0  0  0  0  0  0  0  0  0  0  0
   -1.9749   -0.1501   -1.9814 C   0  0  0  0  0  0  0  0  0  0  0  0
   -4.0245    1.3811    0.6989 C   0  0  0  0  0  0  0  0  0  0  0  0
   -2.8095    2.4720   -1.0818 C   0  0  0  0  0  0  0  0  0  0  0  0
   -4.6899    2.5751    0.9764 C   0  0  0  0  0  0  0  0  0  0  0  0
   -3.4749    3.6661   -0.8041 C   0  0  0  0  0  0  0  0  0  0  0  0
   -4.4151    3.7175    0.2250 C   0  0  0  0  0  0  0  0  0  0  0  0
  1  9  1  0
  1 10  1  0
  2 12  2  0
  3 15  2  0
  4  7  1  0
  4  8  1  0
  4 11  1  0
  5 12  1  0
  5 13  1  0
  6 15  1  0
  6 18  1  0
  6 21  1  0
  7  9  1  0
  8 10  1  0
 11 12  1  0
 13 14  1  0
 13 16  2  0
 14 15  1  0
 14 17  2  0
 16 19  1  0
 17 20  1  0
 18 22  2  0
 18 23  1  0
 19 20  2  0
 22 24  1  0
 23 25  2  0
 24 26  2  0
 25 26  1  0
M  END
>  <PUBCHEM_COMPOUND_CID>  (1) 
41544

>  <PUBCHEM_CONFORMER_RMSD>  (1) 
1

>  <PUBCHEM_CONFORMER_DIVERSEORDER>  (1) 
1
7
10
20
32
19
31
25
15
13
27
29
11
9
26
24
18
30
5
12
21
28
23
22
17
16
4
8
14
6
3
2

>  <PUBCHEM_MMFF94_PARTIAL_CHARGES>  (1) 
36
1 -0.56
10 0.28
11 0.33
12 0.57
13 0.12
14 0.09
15 0.54
16 -0.15
17 -0.15
18 0.12
19 -0.15
2 -0.57
20 -0.15
21 0.3
22 -0.15
23 -0.15
24 -0.15
25 -0.15
26 -0.15
3 -0.57
37 0.37
38 0.15
39 0.15
4 -0.81
40 0.15
41 0.15
45 0.15
46 0.15
47 0.15
48 0.15
49 0.15
5 -0.55
6 -0.48
7 0.27
8 0.27
9 0.28

>  <PUBCHEM_EFFECTIVE_ROTOR_COUNT>  (1) 
8.2

>  <PUBCHEM_PHARMACOPHORE_FEATURES>  (1) 
8
1 1 acceptor
1 2 acceptor
1 3 acceptor
1 4 cation
1 5 donor
6 1 4 7 8 9 10 rings
6 13 14 16 17 19 20 rings
6 18 22 23 24 25 26 rings

>  <PUBCHEM_HEAVY_ATOM_COUNT>  (1) 
26

>  <PUBCHEM_ATOM_DEF_STEREO_COUNT>  (1) 
0

>  <PUBCHEM_ATOM_UDEF_STEREO_COUNT>  (1) 
0

>  <PUBCHEM_BOND_DEF_STEREO_COUNT>  (1) 
0

>  <PUBCHEM_BOND_UDEF_STEREO_COUNT>  (1) 
0

>  <PUBCHEM_ISOTOPIC_ATOM_COUNT>  (1) 
0

>  <PUBCHEM_COMPONENT_COUNT>  (1) 
1

>  <PUBCHEM_CACTVS_TAUTO_COUNT>  (1) 
3

>  <PUBCHEM_CONFORMER_ID>  (1) 
0000A24800000001

>  <PUBCHEM_MMFF94_ENERGY>  (1) 
97.7194

>  <PUBCHEM_FEATURE_SELFOVERLAP>  (1) 
40.597

>  <PUBCHEM_SHAPE_FINGERPRINT>  (1) 
10165383 225 18199767941179350235
102385 1 18411132498747859335
105312 117 18413109485251968660
10615611 76 17459198541701267188
10670039 82 18334859476302611068
10871710 139 18337109093887989183
10937287 8 18339355271399138165
11014199 57 17761777668753731384
11059048 146 18411980252282037020
11386260 185 17042310650835490597
11477941 20 17550667055823830404
11720765 8 17557148303497104206
12107183 9 18263626404590802498
12173636 292 18411692205873468879
12390115 104 18341905090514523137
12741549 16 16673039661455391607
12788726 201 18118948416231648827
13617811 41 17907023120329017654
138480 1 17403452971027648177
13944108 23 17543917797869886252
14114211 80 18270977755849551113
14251764 75 18340212894695939921
14508225 48 17621870316062538855
1454969 45 18411419523628021785
14790565 3 18339646628969561568
14849402 71 17907302048516020387
14950920 106 16588298337587050288
14955137 171 17543078226485108803
15163728 17 18411706443494544975
151778 21 18265612070069632776
15198563 99 18125436660522809823
15230672 131 18336555920156087214
15342168 16 18265893562764224389
15513586 35 17026290108924710076
16988056 13 17256233848662967212
18785283 64 17976820883238307275
21120745 212 17904492040387410439
21133410 127 17753337469813477172
21365058 113 17119740475639254159
21475661 188 17539402133879633261
21756936 100 18413103983251305932
21860390 5 17478601313842447831
22907989 373 18193817444121431783
23559900 14 17689153405900822659
474 4 18052527778038364835
5048184 11 18410007719605077348
508706 21 18198896097173050192
5252454 2 18408036304030941600
5283173 99 18269839890817735080
5895379 119 18117850017564528436
6034566 193 18334008381019451301
6287921 2 18047476630099663365
6700243 42 17478370816238619518
7288768 16 18040436585663593377
7808743 9 18409448119958184192
9849439 229 18269537386847856137

>  <PUBCHEM_SHAPE_MULTIPOLES>  (1) 
502.52
11.16
6.02
1.31
12.52
4.24
0.24
-16.34
0.19
-4.38
0.81
0.11
-0.45
-0.28

>  <PUBCHEM_SHAPE_SELFOVERLAP>  (1) 
1071.265

>  <PUBCHEM_SHAPE_VOLUME>  (1) 
277.1

>  <PUBCHEM_COORDINATE_TYPE>  (1) 
2
5
10

$$$$
