4154
     RDKit          3D

 26 27  0  0  0  0  0  0  0  0999 V2000
    2.9139   -2.2317   -0.7615 S   0  0  0  0  0  0  0  0  0  0  0  0
    4.2376   -2.7545   -0.4787 O   0  0  0  0  0  0  0  0  0  0  0  0
    2.3775   -2.3180   -2.1062 O   0  0  0  0  0  0  0  0  0  0  0  0
    1.1522    2.5479   -1.0951 O   0  0  0  0  0  0  0  0  0  0  0  0
    2.9652    3.4536    0.8078 O   0  0  0  0  0  0  0  0  0  0  0  0
   -5.9255    0.6061    1.1553 O   0  0  0  0  0  0  0  0  0  0  0  0
   -7.3154    1.4448   -1.0082 O   0  0  0  0  0  0  0  0  0  0  0  0
    1.7944   -2.9002    0.3644 N   0  0  0  0  0  0  0  0  0  0  0  0
   -6.0424    0.8722   -1.1377 N   0  0  0  0  0  0  0  0  0  0  0  0
    2.9258   -0.5249   -0.2932 C   0  0  0  0  0  0  0  0  0  0  0  0
    0.4999   -2.3093    0.4808 C   0  0  0  0  0  0  0  0  0  0  0  0
    2.0259    0.3428   -0.8852 C   0  0  0  0  0  0  0  0  0  0  0  0
    3.8352   -0.0931    0.6555 C   0  0  0  0  0  0  0  0  0  0  0  0
    2.0358    1.6878   -0.5159 C   0  0  0  0  0  0  0  0  0  0  0  0
    2.9453    2.1423    0.4390 C   0  0  0  0  0  0  0  0  0  0  0  0
    3.8449    1.2519    1.0248 C   0  0  0  0  0  0  0  0  0  0  0  0
   -0.3464   -2.2598   -0.6269 C   0  0  0  0  0  0  0  0  0  0  0  0
    0.0812   -1.7816    1.7024 C   0  0  0  0  0  0  0  0  0  0  0  0
   -2.0298   -1.1552    0.7081 C   0  0  0  0  0  0  0  0  0  0  0  0
   -1.6111   -1.6827   -0.5133 C   0  0  0  0  0  0  0  0  0  0  0  0
   -1.1836   -1.2046    1.8160 C   0  0  0  0  0  0  0  0  0  0  0  0
   -3.3490   -0.5541    0.8267 C   0  0  0  0  0  0  0  0  0  0  0  0
   -0.1101    2.7110   -0.4517 C   0  0  0  0  0  0  0  0  0  0  0  0
    3.8168    4.3231    0.0642 C   0  0  0  0  0  0  0  0  0  0  0  0
   -4.0960   -0.1018   -0.2053 C   0  0  0  0  0  0  0  0  0  0  0  0
   -5.4424    0.4881    0.0340 C   0  0  0  0  0  0  0  0  0  0  0  0
  1  2  2  0
  1  3  2  0
  1  8  1  0
  1 10  1  0
  4 14  1  0
  4 23  1  0
  5 15  1  0
  5 24  1  0
  6 26  2  0
  7  9  1  0
  8 11  1  0
  9 26  1  0
 10 12  2  0
 10 13  1  0
 11 17  2  0
 11 18  1  0
 12 14  1  0
 13 16  2  0
 14 15  2  0
 15 16  1  0
 17 20  1  0
 18 21  2  0
 19 20  2  0
 19 21  1  0
 19 22  1  0
 22 25  2  0
 25 26  1  0
M  END
>  <PUBCHEM_COMPOUND_CID>  (1) 
4154

>  <PUBCHEM_CONFORMER_RMSD>  (1) 
0.8

>  <PUBCHEM_CONFORMER_DIVERSEORDER>  (1) 
2
70
19
44
81
35
5
73
78
65
24
49
47
21
62
72
42
4
80
18
15
43
1
25
60
11
64
67
79
12
45
82
10
39
3
63
32
6
75
74
8
41
23
66
28
53
56
68
59
83
38
27
9
51
48
22
30
13
54
7
31
61
77
46
69
36
20
76
58
50
40
52
16
34
17
55
37
14
57
33
26
71
29

>  <PUBCHEM_MMFF94_PARTIAL_CHARGES>  (1) 
38
1 1.45
10 -0.01
11 0.2
12 -0.15
13 -0.15
14 0.08
15 0.08
16 -0.15
17 -0.15
18 -0.15
19 0.03
2 -0.65
20 -0.15
21 -0.15
22 -0.18
23 0.28
24 0.28
25 -0.14
26 0.62
27 0.42
28 0.15
29 0.15
3 -0.65
30 0.15
31 0.15
32 0.15
33 0.15
34 0.15
35 0.15
4 -0.36
42 0.15
43 0.37
44 0.4
5 -0.36
6 -0.57
7 -0.44
8 -0.76
9 -0.39

>  <PUBCHEM_EFFECTIVE_ROTOR_COUNT>  (1) 
8

>  <PUBCHEM_PHARMACOPHORE_FEATURES>  (1) 
9
1 2 acceptor
1 3 acceptor
1 4 acceptor
1 5 acceptor
1 6 acceptor
1 8 donor
1 9 donor
6 10 12 13 14 15 16 rings
6 11 17 18 19 20 21 rings

>  <PUBCHEM_HEAVY_ATOM_COUNT>  (1) 
26

>  <PUBCHEM_ATOM_DEF_STEREO_COUNT>  (1) 
0

>  <PUBCHEM_ATOM_UDEF_STEREO_COUNT>  (1) 
0

>  <PUBCHEM_BOND_DEF_STEREO_COUNT>  (1) 
0

>  <PUBCHEM_BOND_UDEF_STEREO_COUNT>  (1) 
1

>  <PUBCHEM_ISOTOPIC_ATOM_COUNT>  (1) 
0

>  <PUBCHEM_COMPONENT_COUNT>  (1) 
1

>  <PUBCHEM_CACTVS_TAUTO_COUNT>  (1) 
3

>  <PUBCHEM_CONFORMER_ID>  (1) 
0000103A00000002

>  <PUBCHEM_MMFF94_ENERGY>  (1) 
84.2188

>  <PUBCHEM_FEATURE_SELFOVERLAP>  (1) 
45.696

>  <PUBCHEM_SHAPE_FINGERPRINT>  (1) 
10675989 125 18341614840957401513
11640471 11 17702396241494138514
12596602 18 12540994966950091973
12633257 1 15502647277933588019
12788726 201 17974021557332231090
13402501 40 18260828180913435780
13965767 371 18116983584873603436
14251764 38 18412549790852622505
14790565 3 17397832757704502516
15081414 286 18409739460411612993
15210252 30 17531829998908869972
15238133 3 17749675177142741662
15420108 30 18056743537917296130
17093844 170 18334574659271949944
20157964 124 18342173371757706903
20554085 129 16153702082680788441
20621476 13 18338800120964297952
20715895 44 18411694379363927273
21033648 29 17603591811935092339
21197605 99 18265334100377170279
21304303 282 17055244648436095822
21388113 180 18336825402798129853
21475661 188 18187080684995974779
23559900 14 18130791174406598298
3014063 31 18263363590576890853
44317340 157 18413109459983441579
474 4 18410575123471148995
495365 180 18200875192237959952
508706 21 17750234708550596405
513532 50 17846790602259222564
574716 61 18271793645559820079
9981440 41 17980759669049139066

>  <PUBCHEM_SHAPE_MULTIPOLES>  (1) 
493.74
11.57
4.43
1.4
24.05
2.47
-0.08
7.63
1.33
-5.99
0.44
0.16
-0.49
1.75

>  <PUBCHEM_SHAPE_SELFOVERLAP>  (1) 
1029.552

>  <PUBCHEM_SHAPE_VOLUME>  (1) 
280.9

>  <PUBCHEM_COORDINATE_TYPE>  (1) 
2
5
10

$$$$
