41547
     RDKit          3D

 27 29  0  0  0  0  0  0  0  0999 V2000
    1.6304   -1.5466    1.8454 O   0  0  0  0  0  0  0  0  0  0  0  0
   -0.9111   -0.2107   -1.4743 O   0  0  0  0  0  0  0  0  0  0  0  0
    3.3983   -1.3808   -0.2115 N   0  0  0  0  0  0  0  0  0  0  0  0
    0.7334    0.5738    1.3926 N   0  0  0  0  0  0  0  0  0  0  0  0
   -2.4146    0.8957   -0.0528 N   0  0  0  0  0  0  0  0  0  0  0  0
    4.0215   -1.4671   -1.5396 C   0  0  0  0  0  0  0  0  0  0  0  0
    4.3321   -0.8260    0.7785 C   0  0  0  0  0  0  0  0  0  0  0  0
    5.2732   -2.3453   -1.5058 C   0  0  0  0  0  0  0  0  0  0  0  0
    5.5940   -1.6835    0.8882 C   0  0  0  0  0  0  0  0  0  0  0  0
    6.2720   -1.8477   -0.4671 C   0  0  0  0  0  0  0  0  0  0  0  0
    2.1778   -0.5770   -0.2703 C   0  0  0  0  0  0  0  0  0  0  0  0
    1.5058   -0.5736    1.0969 C   0  0  0  0  0  0  0  0  0  0  0  0
    0.7230    1.7207    0.5068 C   0  0  0  0  0  0  0  0  0  0  0  0
   -0.0108    0.7127    2.6543 C   0  0  0  0  0  0  0  0  0  0  0  0
   -0.2053    1.7793   -0.4980 C   0  0  0  0  0  0  0  0  0  0  0  0
    1.6619    2.6936    0.7329 C   0  0  0  0  0  0  0  0  0  0  0  0
   -0.1954    2.8920   -1.3391 C   0  0  0  0  0  0  0  0  0  0  0  0
   -1.1989    0.7383   -0.7299 C   0  0  0  0  0  0  0  0  0  0  0  0
    1.6716    3.8062   -0.1082 C   0  0  0  0  0  0  0  0  0  0  0  0
    0.7431    3.9054   -1.1442 C   0  0  0  0  0  0  0  0  0  0  0  0
   -3.5448    0.0417   -0.0644 C   0  0  0  0  0  0  0  0  0  0  0  0
   -3.5094   -1.1159   -0.8229 C   0  0  0  0  0  0  0  0  0  0  0  0
   -4.6588    0.3839    0.6828 C   0  0  0  0  0  0  0  0  0  0  0  0
   -5.7530   -1.6277   -0.0875 C   0  0  0  0  0  0  0  0  0  0  0  0
   -4.6222   -1.9569   -0.8345 C   0  0  0  0  0  0  0  0  0  0  0  0
   -5.7714   -0.4573    0.6713 C   0  0  0  0  0  0  0  0  0  0  0  0
   -6.9426   -2.5273   -0.0994 C   0  0  0  0  0  0  0  0  0  0  0  0
  1 12  2  0
  2 18  2  0
  3  6  1  0
  3  7  1  0
  3 11  1  0
  4 12  1  0
  4 13  1  0
  4 14  1  0
  5 18  1  0
  5 21  1  0
  6  8  1  0
  7  9  1  0
  8 10  1  0
  9 10  1  0
 11 12  1  0
 13 15  1  0
 13 16  2  0
 15 17  2  0
 15 18  1  0
 16 19  1  0
 17 20  1  0
 19 20  2  0
 21 22  2  0
 21 23  1  0
 22 25  1  0
 23 26  2  0
 24 25  2  0
 24 26  1  0
 24 27  1  0
M  END
>  <PUBCHEM_COMPOUND_CID>  (1) 
41547

>  <PUBCHEM_CONFORMER_RMSD>  (1) 
1

>  <PUBCHEM_CONFORMER_DIVERSEORDER>  (1) 
1
16
19
20
31
37
11
21
42
30
7
13
34
22
25
39
9
4
2
10
18
28
40
24
43
35
36
41
32
17
12
5
14
3
38
23
26
8
29
15
27
33
6

>  <PUBCHEM_MMFF94_PARTIAL_CHARGES>  (1) 
33
1 -0.57
11 0.33
12 0.57
13 0.12
14 0.3
15 0.09
16 -0.15
17 -0.15
18 0.54
19 -0.15
2 -0.57
20 -0.15
21 0.12
22 -0.15
23 -0.15
24 -0.14
25 -0.15
26 -0.15
27 0.14
3 -0.81
4 -0.48
43 0.15
44 0.15
45 0.15
46 0.15
47 0.37
48 0.15
49 0.15
5 -0.55
50 0.15
51 0.15
6 0.27
7 0.27

>  <PUBCHEM_EFFECTIVE_ROTOR_COUNT>  (1) 
8.2

>  <PUBCHEM_PHARMACOPHORE_FEATURES>  (1) 
7
1 1 acceptor
1 2 acceptor
1 3 cation
1 5 donor
6 13 15 16 17 19 20 rings
6 21 22 23 24 25 26 rings
6 3 6 7 8 9 10 rings

>  <PUBCHEM_HEAVY_ATOM_COUNT>  (1) 
27

>  <PUBCHEM_ATOM_DEF_STEREO_COUNT>  (1) 
0

>  <PUBCHEM_ATOM_UDEF_STEREO_COUNT>  (1) 
0

>  <PUBCHEM_BOND_DEF_STEREO_COUNT>  (1) 
0

>  <PUBCHEM_BOND_UDEF_STEREO_COUNT>  (1) 
0

>  <PUBCHEM_ISOTOPIC_ATOM_COUNT>  (1) 
0

>  <PUBCHEM_COMPONENT_COUNT>  (1) 
1

>  <PUBCHEM_CACTVS_TAUTO_COUNT>  (1) 
2

>  <PUBCHEM_CONFORMER_ID>  (1) 
0000A24B00000001

>  <PUBCHEM_MMFF94_ENERGY>  (1) 
97.1638

>  <PUBCHEM_FEATURE_SELFOVERLAP>  (1) 
35.522

>  <PUBCHEM_SHAPE_FINGERPRINT>  (1) 
10764073 3 15406982920028806368
11059845 2 17559132990630941985
11421498 54 17823132337444784226
11513181 2 17835242624780703471
11954058 11 18342459287546128543
12107183 9 18269846337547737921
12128747 34 16342303428572735779
12342043 65 17415850094261291550
12553582 1 18262223448558514179
12633257 1 13542452159839146114
12788726 201 17971191417857792592
13009979 54 18201445778907283169
13103583 49 15051718798839076446
13533116 47 18197496436641214227
13540713 4 18190999322979318029
13673619 4 18186240632664362279
13690498 29 18040995120976027965
14068700 675 18343304756042381353
14251740 57 18268145534529731619
14251764 30 18340769251869156918
14347332 77 18119248351405065130
14767858 380 17676496025378668018
14955137 171 18202847647099086249
15238133 3 16988300719907067801
15461852 350 18264213509852109782
17492 54 15213310715764600078
17492 89 18266459991994719751
1813 80 18411703166555849940
20775438 99 18046621484662738946
212916 134 9439107742043662588
21344244 246 18263371446531245324
22950370 63 18410859819567699990
23419403 2 17243616184088234672
23559900 14 18339918325128074271
255183 451 18410575128229956951
2838139 119 11818999594891658826
3388396 114 17315386733267817380
3552219 110 17918003771931618304
3737641 26 18199188377944995486
4017518 198 17836376213718203756
4280585 95 18335693936523461794
469060 322 18267034855796712040
5104073 3 18057622030685834371
57527573 199 15839034936438156665
58260988 114 16771286682380795454
6669772 16 17459743916690769744
6823239 73 18114450249869133329
7970288 3 18408601444428843871
9962374 69 18199180862569749303

>  <PUBCHEM_SHAPE_MULTIPOLES>  (1) 
528.97
14.11
3.96
1.65
9.07
3.96
-0.58
-18.04
1.24
-2.32
1.37
-1.01
0.04
0.22

>  <PUBCHEM_SHAPE_SELFOVERLAP>  (1) 
1121.131

>  <PUBCHEM_SHAPE_VOLUME>  (1) 
295.6

>  <PUBCHEM_COORDINATE_TYPE>  (1) 
2
5
10

$$$$
