41543
     RDKit          3D

 10  9  0  0  0  0  0  0  0  0999 V2000
    2.3550   -0.0916    0.1640 O   0  0  0  0  0  0  0  0  0  0  0  0
   -2.4121   -0.1260   -0.0481 C   0  0  0  0  0  0  0  0  0  0  0  0
   -2.7497   -1.3951   -0.8507 C   0  0  0  0  0  0  0  0  0  0  0  0
   -3.5112    0.9213   -0.3057 C   0  0  0  0  0  0  0  0  0  0  0  0
   -2.4058   -0.4674    1.4527 C   0  0  0  0  0  0  0  0  0  0  0  0
   -1.0123    0.3263   -0.4391 C   0  0  0  0  0  0  0  0  0  0  0  0
    0.0580    0.4586    0.3605 C   0  0  0  0  0  0  0  0  0  0  0  0
    1.3965    0.9173   -0.1221 C   0  0  0  0  0  0  0  0  0  0  0  0
    3.6547    0.2842   -0.2718 C   0  0  0  0  0  0  0  0  0  0  0  0
    4.6269   -0.8277    0.0603 C   0  0  0  0  0  0  0  0  0  0  0  0
  1  8  1  0
  1  9  1  0
  2  3  1  0
  2  4  1  0
  2  5  1  0
  2  6  1  0
  6  7  2  0
  7  8  1  0
  9 10  1  0
M  END
>  <PUBCHEM_COMPOUND_CID>  (1) 
41543

>  <PUBCHEM_CONFORMER_RMSD>  (1) 
0.6

>  <PUBCHEM_CONFORMER_DIVERSEORDER>  (1) 
1
4
7
10
11
8
9
5
3
2
6

>  <PUBCHEM_MMFF94_PARTIAL_CHARGES>  (1) 
8
1 -0.56
2 0.14
20 0.15
21 0.15
6 -0.29
7 -0.29
8 0.42
9 0.28

>  <PUBCHEM_EFFECTIVE_ROTOR_COUNT>  (1) 
4

>  <PUBCHEM_PHARMACOPHORE_FEATURES>  (1) 
2
1 1 acceptor
4 2 3 4 5 hydrophobe

>  <PUBCHEM_HEAVY_ATOM_COUNT>  (1) 
10

>  <PUBCHEM_ATOM_DEF_STEREO_COUNT>  (1) 
0

>  <PUBCHEM_ATOM_UDEF_STEREO_COUNT>  (1) 
0

>  <PUBCHEM_BOND_DEF_STEREO_COUNT>  (1) 
0

>  <PUBCHEM_BOND_UDEF_STEREO_COUNT>  (1) 
1

>  <PUBCHEM_ISOTOPIC_ATOM_COUNT>  (1) 
0

>  <PUBCHEM_COMPONENT_COUNT>  (1) 
1

>  <PUBCHEM_CACTVS_TAUTO_COUNT>  (1) 
1

>  <PUBCHEM_CONFORMER_ID>  (1) 
0000A24700000001

>  <PUBCHEM_MMFF94_ENERGY>  (1) 
16.315

>  <PUBCHEM_FEATURE_SELFOVERLAP>  (1) 
10.148

>  <PUBCHEM_SHAPE_FINGERPRINT>  (1) 
11062470 55 18411418401729239772
124424 183 18343580724644502369
12932764 1 18270408311594029717
14325111 11 18412543249342643196
14577589 140 18408605859654327791
18186145 218 16225765242152300012
190213 19 17203611488772218028
1986462 14 16370729244256057874
20211469 26 16559028281261036785
20279233 1 17989210326014123228
20281407 28 18272088292763292520
20645464 45 13038915442595702029
20645477 70 18411134693680973230
20828058 44 17703789219683966118
20871999 31 15213298677229784219
21119208 17 16226046682679445534
22485316 2 18342171164012634774
23402539 116 17531240648102624748
3248919 1 17604142739494564093
528716 315 16008752424126928971

>  <PUBCHEM_SHAPE_MULTIPOLES>  (1) 
199.93
8.14
1.12
0.95
8.38
0.17
-0.24
1.55
0.4
-0.43
0.17
-0.74
0.18
-0.13

>  <PUBCHEM_SHAPE_SELFOVERLAP>  (1) 
364.1

>  <PUBCHEM_SHAPE_VOLUME>  (1) 
129.9

>  <PUBCHEM_COORDINATE_TYPE>  (1) 
2
5
10

$$$$
