41548
     RDKit          3D

 28 30  0  0  0  0  0  0  0  0999 V2000
    1.2870   -1.7341    1.5290 O   0  0  0  0  0  0  0  0  0  0  0  0
   -0.8303    0.2583   -1.7575 O   0  0  0  0  0  0  0  0  0  0  0  0
    3.2333   -1.3848   -0.3348 N   0  0  0  0  0  0  0  0  0  0  0  0
    0.5400    0.4809    1.3268 N   0  0  0  0  0  0  0  0  0  0  0  0
   -2.4914    1.1473   -0.3328 N   0  0  0  0  0  0  0  0  0  0  0  0
    4.1040   -1.0372    0.7970 C   0  0  0  0  0  0  0  0  0  0  0  0
    3.9647   -1.3178   -1.6078 C   0  0  0  0  0  0  0  0  0  0  0  0
    5.3071   -1.9784    0.8773 C   0  0  0  0  0  0  0  0  0  0  0  0
    5.1632   -2.2679   -1.6062 C   0  0  0  0  0  0  0  0  0  0  0  0
    6.0914   -1.9879   -0.4297 C   0  0  0  0  0  0  0  0  0  0  0  0
    2.0643   -0.5064   -0.3696 C   0  0  0  0  0  0  0  0  0  0  0  0
    1.2769   -0.6578    0.9258 C   0  0  0  0  0  0  0  0  0  0  0  0
    0.6641    1.7417    0.6230 C   0  0  0  0  0  0  0  0  0  0  0  0
   -0.3032    0.4831    2.5326 C   0  0  0  0  0  0  0  0  0  0  0  0
   -0.1692    2.0017   -0.4320 C   0  0  0  0  0  0  0  0  0  0  0  0
    1.6272    2.6116    1.0643 C   0  0  0  0  0  0  0  0  0  0  0  0
   -1.1897    1.0687   -0.8933 C   0  0  0  0  0  0  0  0  0  0  0  0
   -0.0305    3.2210   -1.0951 C   0  0  0  0  0  0  0  0  0  0  0  0
    1.7657    3.8308    0.4010 C   0  0  0  0  0  0  0  0  0  0  0  0
    0.9370    4.1355   -0.6787 C   0  0  0  0  0  0  0  0  0  0  0  0
   -3.3015   -0.0518   -0.2264 C   0  0  0  0  0  0  0  0  0  0  0  0
   -3.0272    2.4333    0.1414 C   0  0  0  0  0  0  0  0  0  0  0  0
   -2.6585   -1.2479   -0.0627 C   0  0  0  0  0  0  0  0  0  0  0  0
   -4.6609    0.0837   -0.2958 C   0  0  0  0  0  0  0  0  0  0  0  0
   -4.8273   -2.3114   -0.0258 C   0  0  0  0  0  0  0  0  0  0  0  0
   -3.4370   -2.4008    0.0394 C   0  0  0  0  0  0  0  0  0  0  0  0
   -5.4394   -1.0692   -0.1934 C   0  0  0  0  0  0  0  0  0  0  0  0
   -5.6599   -3.5440    0.0841 C   0  0  0  0  0  0  0  0  0  0  0  0
  1 12  2  0
  2 17  2  0
  3  6  1  0
  3  7  1  0
  3 11  1  0
  4 12  1  0
  4 13  1  0
  4 14  1  0
  5 17  1  0
  5 21  1  0
  5 22  1  0
  6  8  1  0
  7  9  1  0
  8 10  1  0
  9 10  1  0
 11 12  1  0
 13 15  1  0
 13 16  2  0
 15 17  1  0
 15 18  2  0
 16 19  1  0
 18 20  1  0
 19 20  2  0
 21 23  2  0
 21 24  1  0
 23 26  1  0
 24 27  2  0
 25 26  2  0
 25 27  1  0
 25 28  1  0
M  END
>  <PUBCHEM_COMPOUND_CID>  (1) 
41548

>  <PUBCHEM_CONFORMER_RMSD>  (1) 
1

>  <PUBCHEM_CONFORMER_DIVERSEORDER>  (1) 
1
13
28
41
52
45
29
40
9
65
27
11
68
57
59
47
39
63
60
23
5
25
62
8
72
44
70
20
71
35
69
42
10
43
48
6
51
12
56
4
22
55
17
3
58
36
34
26
31
50
19
37
67
38
24
16
21
15
2
66
54
49
61
18
53
14
46
30
7
64
33
32

>  <PUBCHEM_MMFF94_PARTIAL_CHARGES>  (1) 
33
1 -0.57
11 0.33
12 0.57
13 0.12
14 0.3
15 0.09
16 -0.15
17 0.54
18 -0.15
19 -0.15
2 -0.57
20 -0.15
21 0.12
22 0.3
23 -0.15
24 -0.15
25 -0.14
26 -0.15
27 -0.15
28 0.14
3 -0.81
4 -0.48
44 0.15
45 0.15
46 0.15
47 0.15
5 -0.48
51 0.15
52 0.15
53 0.15
54 0.15
6 0.27
7 0.27

>  <PUBCHEM_EFFECTIVE_ROTOR_COUNT>  (1) 
8.2

>  <PUBCHEM_PHARMACOPHORE_FEATURES>  (1) 
6
1 1 acceptor
1 2 acceptor
1 3 cation
6 13 15 16 18 19 20 rings
6 21 23 24 25 26 27 rings
6 3 6 7 8 9 10 rings

>  <PUBCHEM_HEAVY_ATOM_COUNT>  (1) 
28

>  <PUBCHEM_ATOM_DEF_STEREO_COUNT>  (1) 
0

>  <PUBCHEM_ATOM_UDEF_STEREO_COUNT>  (1) 
0

>  <PUBCHEM_BOND_DEF_STEREO_COUNT>  (1) 
0

>  <PUBCHEM_BOND_UDEF_STEREO_COUNT>  (1) 
0

>  <PUBCHEM_ISOTOPIC_ATOM_COUNT>  (1) 
0

>  <PUBCHEM_COMPONENT_COUNT>  (1) 
1

>  <PUBCHEM_CACTVS_TAUTO_COUNT>  (1) 
1

>  <PUBCHEM_CONFORMER_ID>  (1) 
0000A24C00000001

>  <PUBCHEM_MMFF94_ENERGY>  (1) 
115.7106

>  <PUBCHEM_FEATURE_SELFOVERLAP>  (1) 
30.447

>  <PUBCHEM_SHAPE_FINGERPRINT>  (1) 
10940486 97 18189338983291287229
11014199 57 18411983563717757121
11045515 52 18261960635420686436
11488393 25 18192723464579772896
11513181 2 17908423911017234551
11578080 2 17169801501807653837
11963148 33 17547847916484862623
12107183 9 18341341003106847265
12553582 1 18263349314137046065
12788726 201 17971471806323783122
13009979 54 18201729461512813441
13533116 47 18126284388562411827
13690498 29 18040715845033174277
14068700 675 18343301474866935891
14251740 57 18195808698930099223
14251764 30 18412826867413706366
14790565 3 17546163000260727393
14955137 171 18060699489804944168
15461852 350 18336835174824668118
17349148 13 17242177847407540410
17492 89 18265894847218110079
17686467 74 18341605990047123114
17909252 39 18193850463787129497
1813 80 18343588425684076398
19319366 153 17171239508629674401
20028762 73 17474101480626815917
20600515 1 18128551374515416445
20775438 99 17758951906649228355
21033648 29 17131252568303141451
21344244 246 18264779938159010564
23557571 272 17984978194780980644
23559900 14 18339070592978406325
23566358 27 18194678391842764749
238078 22 18266178336027872552
255183 451 18340207513587013383
329604 57 18409171008858066046
3421961 26 18339358685834984365
4280585 95 18336539448006382186
437815 12 18130784525754701167
4409770 3 17900533476521512189
469060 322 18268443355893475922
5104073 3 18127427842100742563
57527573 199 15839318623291168401
59755656 215 18047471411329568973
6371380 46 18335133147597980037
6823239 73 18335126627209688889
70251023 43 18336551624587008139
9709674 26 18044652238458057187

>  <PUBCHEM_SHAPE_MULTIPOLES>  (1) 
549.55
11.8
4.76
1.5
0.03
3.49
-0.37
-16.14
1.97
-0.4
0.56
-1.2
0
0.91

>  <PUBCHEM_SHAPE_SELFOVERLAP>  (1) 
1164.402

>  <PUBCHEM_SHAPE_VOLUME>  (1) 
307.4

>  <PUBCHEM_COORDINATE_TYPE>  (1) 
2
5
10

$$$$
