41555
     RDKit          3D

 15 16  0  0  0  0  0  0  0  0999 V2000
    0.1019   -2.5738   -0.0007 Cl  0  0  0  0  0  0  0  0  0  0  0  0
    3.3001   -2.4220    0.0003 Cl  0  0  0  0  0  0  0  0  0  0  0  0
    3.0500    2.9375    0.0005 Cl  0  0  0  0  0  0  0  0  0  0  0  0
    0.1843    0.1417   -0.0003 C   0  0  0  0  0  0  0  0  0  0  0  0
   -1.2627    0.1485    0.0001 C   0  0  0  0  0  0  0  0  0  0  0  0
    0.9264   -1.0424   -0.0004 C   0  0  0  0  0  0  0  0  0  0  0  0
    0.8456    1.3724   -0.0003 C   0  0  0  0  0  0  0  0  0  0  0  0
   -1.9603    0.1521   -1.2079 C   0  0  0  0  0  0  0  0  0  0  0  0
   -1.9600    0.1511    1.2082 C   0  0  0  0  0  0  0  0  0  0  0  0
    2.3206   -0.9957   -0.0001 C   0  0  0  0  0  0  0  0  0  0  0  0
    2.2396    1.4191    0.0000 C   0  0  0  0  0  0  0  0  0  0  0  0
    2.9772    0.2351    0.0002 C   0  0  0  0  0  0  0  0  0  0  0  0
   -3.3551    0.1584   -1.2079 C   0  0  0  0  0  0  0  0  0  0  0  0
   -3.3550    0.1572    1.2082 C   0  0  0  0  0  0  0  0  0  0  0  0
   -4.0524    0.1609    0.0001 C   0  0  0  0  0  0  0  0  0  0  0  0
  1  6  1  0
  2 10  1  0
  3 11  1  0
  4  5  1  0
  4  6  2  0
  4  7  1  0
  5  8  2  0
  5  9  1  0
  6 10  1  0
  7 11  2  0
  8 13  1  0
  9 14  2  0
 10 12  2  0
 11 12  1  0
 13 15  2  0
 14 15  1  0
M  END
>  <PUBCHEM_COMPOUND_CID>  (1) 
41555

>  <PUBCHEM_CONFORMER_RMSD>  (1) 
0.4

>  <PUBCHEM_CONFORMER_DIVERSEORDER>  (1) 
1
2
3

>  <PUBCHEM_MMFF94_PARTIAL_CHARGES>  (1) 
20
1 -0.18
10 0.18
11 0.18
12 -0.15
13 -0.15
14 -0.15
15 -0.15
16 0.15
17 0.15
18 0.15
19 0.15
2 -0.18
20 0.15
21 0.15
22 0.15
3 -0.18
6 0.18
7 -0.15
8 -0.15
9 -0.15

>  <PUBCHEM_EFFECTIVE_ROTOR_COUNT>  (1) 
1

>  <PUBCHEM_PHARMACOPHORE_FEATURES>  (1) 
2
6 4 6 7 10 11 12 rings
6 5 8 9 13 14 15 rings

>  <PUBCHEM_HEAVY_ATOM_COUNT>  (1) 
15

>  <PUBCHEM_ATOM_DEF_STEREO_COUNT>  (1) 
0

>  <PUBCHEM_ATOM_UDEF_STEREO_COUNT>  (1) 
0

>  <PUBCHEM_BOND_DEF_STEREO_COUNT>  (1) 
0

>  <PUBCHEM_BOND_UDEF_STEREO_COUNT>  (1) 
0

>  <PUBCHEM_ISOTOPIC_ATOM_COUNT>  (1) 
0

>  <PUBCHEM_COMPONENT_COUNT>  (1) 
1

>  <PUBCHEM_CACTVS_TAUTO_COUNT>  (1) 
1

>  <PUBCHEM_CONFORMER_ID>  (1) 
0000A25300000001

>  <PUBCHEM_MMFF94_ENERGY>  (1) 
43.9225

>  <PUBCHEM_FEATURE_SELFOVERLAP>  (1) 
10.149

>  <PUBCHEM_SHAPE_FINGERPRINT>  (1) 
10608611 8 18187358822809899077
11471102 20 18409445856161863255
11725454 13 16810058953788508917
12236239 1 17703790310410350437
12390115 104 17763198229562118312
12553582 1 18195812851831145646
13134695 92 18263638481521496774
13140716 1 18337390538799942082
13296908 3 17675928685667541707
13380535 21 18264497358863670222
13538477 17 17489579082952754343
13583140 156 16517906641140935952
14251717 144 18411695465695481119
15219456 202 18113054939422107101
15309172 13 18336549412267153265
15342168 16 18263934417532397365
15775835 57 18200877382560660357
16945 1 18410855469213994528
1813 80 17914629258792136758
18175812 5 17822013116301465047
18186145 218 18342460352212669004
19049666 15 17677885739039929229
19422 9 17989486320913426303
200 152 18200865189607066103
20279233 1 17748824129082921441
204376 136 18192995052647633000
20645477 70 18336537244730480927
20671657 1 18340773723377868246
20671657 53 18267022743757146718
20715346 28 17822293508798704429
21041028 32 18197225745562720376
21061003 4 18191032205021322315
21499 59 18267864076194904516
21501502 16 18267297827843697886
21524375 3 18056758952069390956
21639500 275 18411973697834700805
21730867 7 18333733519827671407
22112679 90 17274820233947823665
2255824 54 18342178851893571814
22854114 111 18411702114252166248
23402539 116 18126844885725627334
23419403 2 14495758350541107155
23557571 272 17168148957548158541
23598291 2 18060416902574116133
25 1 18339080505346356412
2748010 2 18050014578004166628
3286 77 18261115127741765503
350125 39 17544763786020173752
458136 41 18264222463850885476
474 4 18199183078118629192
6049 1 17822295652040301877
63268167 104 18342171176354204737
633830 44 18130241414176332645
7364860 26 18412826893741977440
7615 1 17846495915900065233
77492 1 17703790314678989441
81228 2 16895945844250589442
8272917 22 18341902836009906055
84936 182 18131064986935098712

>  <PUBCHEM_SHAPE_MULTIPOLES>  (1) 
314.3
6.59
2.54
1.01
3.09
0.16
0
-0.9
0
-3.85
0
1.01
-0.06
0

>  <PUBCHEM_SHAPE_SELFOVERLAP>  (1) 
654.947

>  <PUBCHEM_SHAPE_VOLUME>  (1) 
173.2

>  <PUBCHEM_COORDINATE_TYPE>  (1) 
2
5
10

$$$$
