41577
     RDKit          3D

 15 15  0  0  0  0  0  0  0  0999 V2000
   -1.3654    1.7448   -0.0018 O   0  0  0  0  0  0  0  0  0  0  0  0
    4.2954   -1.6546    0.1188 O   0  0  0  0  0  0  0  0  0  0  0  0
   -0.3198   -0.3289    0.2443 N   0  0  0  0  0  0  0  0  0  0  0  0
   -2.7705   -0.1896    0.3970 C   0  0  0  0  0  0  0  0  0  0  0  0
   -3.0192   -1.2636   -0.6938 C   0  0  0  0  0  0  0  0  0  0  0  0
   -2.7743   -0.8679    1.7819 C   0  0  0  0  0  0  0  0  0  0  0  0
   -3.9094    0.8509    0.3876 C   0  0  0  0  0  0  0  0  0  0  0  0
   -1.4125    0.5307    0.1885 C   0  0  0  0  0  0  0  0  0  0  0  0
   -3.0140   -0.7381   -2.1254 C   0  0  0  0  0  0  0  0  0  0  0  0
    1.0496   -0.0004    0.0958 C   0  0  0  0  0  0  0  0  0  0  0  0
    1.9998   -1.0036    0.1832 C   0  0  0  0  0  0  0  0  0  0  0  0
    1.4081    1.3171   -0.1343 C   0  0  0  0  0  0  0  0  0  0  0  0
    3.3484   -0.6800    0.0359 C   0  0  0  0  0  0  0  0  0  0  0  0
    2.7568    1.6409   -0.2815 C   0  0  0  0  0  0  0  0  0  0  0  0
    3.7269    0.6423   -0.1964 C   0  0  0  0  0  0  0  0  0  0  0  0
  1  8  2  0
  2 13  1  0
  3  8  1  0
  3 10  1  0
  4  5  1  0
  4  6  1  0
  4  7  1  0
  4  8  1  0
  5  9  1  0
 10 11  2  0
 10 12  1  0
 11 13  1  0
 12 14  2  0
 13 15  2  0
 14 15  1  0
M  END
>  <PUBCHEM_COMPOUND_CID>  (1) 
41577

>  <PUBCHEM_CONFORMER_RMSD>  (1) 
0.6

>  <PUBCHEM_CONFORMER_DIVERSEORDER>  (1) 
1
25
14
24
13
19
7
16
22
10
3
26
11
18
21
8
23
12
20
15
4
9
17
2
5
6

>  <PUBCHEM_MMFF94_PARTIAL_CHARGES>  (1) 
17
1 -0.57
10 0.12
11 -0.15
12 -0.15
13 0.08
14 -0.15
15 -0.15
2 -0.53
27 0.37
28 0.15
29 0.15
3 -0.55
30 0.15
31 0.15
32 0.45
4 0.06
8 0.57

>  <PUBCHEM_EFFECTIVE_ROTOR_COUNT>  (1) 
4

>  <PUBCHEM_PHARMACOPHORE_FEATURES>  (1) 
6
1 1 acceptor
1 2 donor
1 3 donor
1 9 hydrophobe
3 4 6 7 hydrophobe
6 10 11 12 13 14 15 rings

>  <PUBCHEM_HEAVY_ATOM_COUNT>  (1) 
15

>  <PUBCHEM_ATOM_DEF_STEREO_COUNT>  (1) 
0

>  <PUBCHEM_ATOM_UDEF_STEREO_COUNT>  (1) 
0

>  <PUBCHEM_BOND_DEF_STEREO_COUNT>  (1) 
0

>  <PUBCHEM_BOND_UDEF_STEREO_COUNT>  (1) 
0

>  <PUBCHEM_ISOTOPIC_ATOM_COUNT>  (1) 
0

>  <PUBCHEM_COMPONENT_COUNT>  (1) 
1

>  <PUBCHEM_CACTVS_TAUTO_COUNT>  (1) 
13

>  <PUBCHEM_CONFORMER_ID>  (1) 
0000A26900000001

>  <PUBCHEM_MMFF94_ENERGY>  (1) 
43.2922

>  <PUBCHEM_FEATURE_SELFOVERLAP>  (1) 
30.446

>  <PUBCHEM_SHAPE_FINGERPRINT>  (1) 
10062212 137 18201432571513387503
11471102 20 18335139791258206888
11578080 2 17702355464800720753
11769659 78 18343578542937928310
12346177 29 16702014284286399701
12932764 1 17988365956813317712
13296908 3 18040439927058426555
14144814 61 18413390959917423402
14576447 43 18127682936512491406
15375462 189 18130233764649453705
15442244 35 18266180539536012536
15775835 57 18202569500795837477
17041 50 16732699463115288188
18186145 218 17385722504168710464
19050596 39 18343021090437151002
19422 9 18201439211421894999
200 152 18343013402456234077
20279233 1 17095514132268271539
20281475 54 18342455975646314407
20645477 56 16081079377550541671
20645477 70 18335700533556558406
21501925 9 18335693932650286400
221490 88 18260842526563010498
22169311 21 17385436648336082898
22485316 2 18131630097198514408
22646028 28 18273208733450444455
23402539 116 18412258437418930148
23402655 69 18411419492614224212
23557571 272 14836138623501772192
23559900 14 17967816046589547442
5104073 3 18408890641592450400
57096353 35 18340770467518657020
581208 293 18338231669690364368
6049 1 17095806606782886517
633830 44 18186241723148146712
77492 1 17917434262755864404
8809292 202 17967825941477026250

>  <PUBCHEM_SHAPE_MULTIPOLES>  (1) 
291.97
8.02
1.61
1.22
2.21
0.2
-0.28
-1.41
-0.3
0.71
-0.06
-1.71
-0.41
-0.54

>  <PUBCHEM_SHAPE_SELFOVERLAP>  (1) 
595.936

>  <PUBCHEM_SHAPE_VOLUME>  (1) 
169.6

>  <PUBCHEM_COORDINATE_TYPE>  (1) 
2
5
10

$$$$
