41573
     RDKit          3D

 18 18  0  0  0  0  0  0  0  0999 V2000
    0.3760    2.6768    0.5084 Cl  0  0  0  0  0  0  0  0  0  0  0  0
    0.4164   -2.7000    0.4793 Cl  0  0  0  0  0  0  0  0  0  0  0  0
    3.4678   -2.7056   -0.3663 Cl  0  0  0  0  0  0  0  0  0  0  0  0
    3.4268    2.7370   -0.3374 Cl  0  0  0  0  0  0  0  0  0  0  0  0
    4.9677    0.0294   -0.7738 Cl  0  0  0  0  0  0  0  0  0  0  0  0
   -0.7170   -0.0216    0.8025 O   0  0  0  0  0  0  0  0  0  0  0  0
   -3.9800    0.0034   -0.6551 O   0  0  0  0  0  0  0  0  0  0  0  0
   -3.3003   -0.0357    1.5506 O   0  0  0  0  0  0  0  0  0  0  0  0
    0.6000   -0.0098    0.4372 C   0  0  0  0  0  0  0  0  0  0  0  0
    1.2629    1.2041    0.2574 C   0  0  0  0  0  0  0  0  0  0  0  0
    1.2810   -1.2117    0.2442 C   0  0  0  0  0  0  0  0  0  0  0  0
   -1.6768   -0.0229   -0.2497 C   0  0  0  0  0  0  0  0  0  0  0  0
    2.6252   -1.1997   -0.1286 C   0  0  0  0  0  0  0  0  0  0  0  0
    2.6070    1.2162   -0.1154 C   0  0  0  0  0  0  0  0  0  0  0  0
    3.2882    0.0144   -0.3084 C   0  0  0  0  0  0  0  0  0  0  0  0
   -3.0576   -0.0200    0.3515 C   0  0  0  0  0  0  0  0  0  0  0  0
   -5.3486    0.0096   -0.2362 C   0  0  0  0  0  0  0  0  0  0  0  0
   -6.2388    0.0359   -1.4603 C   0  0  0  0  0  0  0  0  0  0  0  0
  1 10  1  0
  2 11  1  0
  3 13  1  0
  4 14  1  0
  5 15  1  0
  6  9  1  0
  6 12  1  0
  7 16  1  0
  7 17  1  0
  8 16  2  0
  9 10  2  0
  9 11  1  0
 10 14  1  0
 11 13  2  0
 12 16  1  0
 13 15  1  0
 14 15  2  0
 17 18  1  0
M  END
>  <PUBCHEM_COMPOUND_CID>  (1) 
41573

>  <PUBCHEM_CONFORMER_RMSD>  (1) 
0.6

>  <PUBCHEM_CONFORMER_DIVERSEORDER>  (1) 
1
36
14
22
39
38
7
11
35
20
23
18
31
37
25
34
43
32
16
28
2
26
15
21
33
13
29
42
10
30
41
24
40
3
12
5
27
6
8
4
19
17
9

>  <PUBCHEM_MMFF94_PARTIAL_CHARGES>  (1) 
17
1 -0.18
10 0.18
11 0.18
12 0.34
13 0.18
14 0.18
15 0.18
16 0.66
17 0.28
2 -0.18
3 -0.18
4 -0.18
5 -0.18
6 -0.36
7 -0.43
8 -0.57
9 0.08

>  <PUBCHEM_EFFECTIVE_ROTOR_COUNT>  (1) 
5

>  <PUBCHEM_PHARMACOPHORE_FEATURES>  (1) 
3
1 6 acceptor
1 8 acceptor
6 9 10 11 13 14 15 rings

>  <PUBCHEM_HEAVY_ATOM_COUNT>  (1) 
18

>  <PUBCHEM_ATOM_DEF_STEREO_COUNT>  (1) 
0

>  <PUBCHEM_ATOM_UDEF_STEREO_COUNT>  (1) 
0

>  <PUBCHEM_BOND_DEF_STEREO_COUNT>  (1) 
0

>  <PUBCHEM_BOND_UDEF_STEREO_COUNT>  (1) 
0

>  <PUBCHEM_ISOTOPIC_ATOM_COUNT>  (1) 
0

>  <PUBCHEM_COMPONENT_COUNT>  (1) 
1

>  <PUBCHEM_CACTVS_TAUTO_COUNT>  (1) 
1

>  <PUBCHEM_CONFORMER_ID>  (1) 
0000A26500000001

>  <PUBCHEM_MMFF94_ENERGY>  (1) 
44.9829

>  <PUBCHEM_FEATURE_SELFOVERLAP>  (1) 
15.23

>  <PUBCHEM_SHAPE_FINGERPRINT>  (1) 
10411042 1 18122344571801186966
10693767 8 18130228151697657686
10967382 1 18410866464599245794
11471102 20 18408886230528946728
11796584 16 16588025693352744042
12236239 1 17632580439705569057
12730499 353 18260269672504733843
13140716 1 18267027344326153314
13836976 161 18343582953753550622
13862211 1 18339925914314667990
14251717 144 18411981360040305179
14576447 43 18202280307662760270
14911166 2 18410304622779041974
15475509 35 14189301405085997470
15475509 84 11314847099476169647
16945 1 18338817662517582850
17834072 33 18342735243621641471
18186145 218 18339934791346963008
200 152 18201717336941143817
20612939 158 18411423938000308100
20645477 70 18409445860731487935
21637258 2 16056600902883912078
221357 26 18337102385465616805
221490 88 18337679740222526923
22289505 5 18336254674690344037
2334 1 17907592668158274226
23402539 116 18202005399938990840
23402655 69 18411135836046918951
23557571 272 13973973086393663283
23559900 14 18411698828512176528
23596394 208 18114171987554470159
23598291 2 18059866013036496425
25 1 18336829792211754762
2748010 2 17979655733968719490
2871803 45 18336546031943249085
29717793 49 17704076183439107197
3060560 45 18410289224540836902
335352 9 18409451406282983382
4072396 5 18334563652024443096
42630746 31 18342452664738134680
5281201 14 18334292024880539901
58051976 378 18412269432424529078
59682541 52 18339908360814530341
7164475 11 18198627622993681616
7471813 234 18130217168943515441
77492 1 17703803495759463611
8272917 22 18412266095461786999
9981440 41 16693831954580502008

>  <PUBCHEM_SHAPE_MULTIPOLES>  (1) 
362.17
10.83
2.76
1
17.24
0.01
0.02
0.07
4.78
-3.82
-0.19
0.9
0
0.03

>  <PUBCHEM_SHAPE_SELFOVERLAP>  (1) 
702.659

>  <PUBCHEM_SHAPE_VOLUME>  (1) 
223.5

>  <PUBCHEM_COORDINATE_TYPE>  (1) 
2
5
10

$$$$
