41583
     RDKit          3D

 20 21  0  0  0  0  0  0  0  0999 V2000
   -0.8422   -0.6546    0.0235 O   0  0  0  0  0  0  0  0  0  0  0  0
    0.3021    1.2775    0.4564 O   0  0  0  0  0  0  0  0  0  0  0  0
    6.7662    0.6729    0.0455 O   0  0  0  0  0  0  0  0  0  0  0  0
   -4.5015   -0.2937    0.2815 N   0  0  0  0  0  0  0  0  0  0  0  0
    1.3993   -0.7187   -0.0834 N   0  0  0  0  0  0  0  0  0  0  0  0
   -5.5976   -1.2702    0.2130 C   0  0  0  0  0  0  0  0  0  0  0  0
   -4.7029    0.7993   -0.6803 C   0  0  0  0  0  0  0  0  0  0  0  0
   -6.9455   -0.6084    0.5045 C   0  0  0  0  0  0  0  0  0  0  0  0
   -6.0214    1.5286   -0.4184 C   0  0  0  0  0  0  0  0  0  0  0  0
   -7.2019    0.5640   -0.4354 C   0  0  0  0  0  0  0  0  0  0  0  0
   -3.2156   -0.9504    0.0475 C   0  0  0  0  0  0  0  0  0  0  0  0
   -2.0693    0.0287    0.2436 C   0  0  0  0  0  0  0  0  0  0  0  0
    0.3055    0.0888    0.1611 C   0  0  0  0  0  0  0  0  0  0  0  0
    2.7673   -0.3643   -0.0512 C   0  0  0  0  0  0  0  0  0  0  0  0
    3.7252   -1.3264   -0.3284 C   0  0  0  0  0  0  0  0  0  0  0  0
    3.1236    0.9387    0.2586 C   0  0  0  0  0  0  0  0  0  0  0  0
    5.4493    0.3310    0.0150 C   0  0  0  0  0  0  0  0  0  0  0  0
    5.0750   -0.9766   -0.2950 C   0  0  0  0  0  0  0  0  0  0  0  0
    4.4735    1.2886    0.2918 C   0  0  0  0  0  0  0  0  0  0  0  0
    7.7110   -0.3548   -0.2497 C   0  0  0  0  0  0  0  0  0  0  0  0
  1 12  1  0
  1 13  1  0
  2 13  2  0
  3 17  1  0
  3 20  1  0
  4  6  1  0
  4  7  1  0
  4 11  1  0
  5 13  1  0
  5 14  1  0
  6  8  1  0
  7  9  1  0
  8 10  1  0
  9 10  1  0
 11 12  1  0
 14 15  2  0
 14 16  1  0
 15 18  1  0
 16 19  2  0
 17 18  2  0
 17 19  1  0
M  END
>  <PUBCHEM_COMPOUND_CID>  (1) 
41583

>  <PUBCHEM_CONFORMER_RMSD>  (1) 
0.8

>  <PUBCHEM_CONFORMER_DIVERSEORDER>  (1) 
1
47
61
41
96
103
106
14
42
91
63
49
6
92
43
78
70
56
101
7
26
74
22
68
104
108
20
12
79
48
55
105
64
65
59
16
21
45
67
39
37
11
76
3
75
57
28
24
80
25
52
85
44
31
72
71
36
97
54
40
35
53
82
10
81
50
98
62
30
93
4
46
88
90
100
32
86
84
15
69
87
99
17
8
27
107
77
2
19
95
13
102
5
89
60
23
94
29
83
9
34
58
66
38
51
33
18
73

>  <PUBCHEM_MMFF94_PARTIAL_CHARGES>  (1) 
22
1 -0.43
11 0.27
12 0.28
13 0.78
14 0.12
15 -0.15
16 -0.15
17 0.08
18 -0.15
19 -0.15
2 -0.57
20 0.28
3 -0.36
35 0.37
36 0.15
37 0.15
38 0.15
39 0.15
4 -0.81
5 -0.55
6 0.27
7 0.27

>  <PUBCHEM_EFFECTIVE_ROTOR_COUNT>  (1) 
8.2

>  <PUBCHEM_PHARMACOPHORE_FEATURES>  (1) 
6
1 2 acceptor
1 3 acceptor
1 4 cation
1 5 donor
6 14 15 16 17 18 19 rings
6 4 6 7 8 9 10 rings

>  <PUBCHEM_HEAVY_ATOM_COUNT>  (1) 
20

>  <PUBCHEM_ATOM_DEF_STEREO_COUNT>  (1) 
0

>  <PUBCHEM_ATOM_UDEF_STEREO_COUNT>  (1) 
0

>  <PUBCHEM_BOND_DEF_STEREO_COUNT>  (1) 
0

>  <PUBCHEM_BOND_UDEF_STEREO_COUNT>  (1) 
0

>  <PUBCHEM_ISOTOPIC_ATOM_COUNT>  (1) 
0

>  <PUBCHEM_COMPONENT_COUNT>  (1) 
1

>  <PUBCHEM_CACTVS_TAUTO_COUNT>  (1) 
2

>  <PUBCHEM_CONFORMER_ID>  (1) 
0000A26F00000001

>  <PUBCHEM_MMFF94_ENERGY>  (1) 
45.4641

>  <PUBCHEM_FEATURE_SELFOVERLAP>  (1) 
30.446

>  <PUBCHEM_SHAPE_FINGERPRINT>  (1) 
10968037 39 18272370876142219855
11315181 36 18343586244589854265
11719270 70 18272086072603557718
12091667 2 18334013909032425955
12516196 113 17846495941548452377
13533116 47 14979684243459541726
13668630 136 16702304567966760509
14123256 10 17918275346306987144
14251752 14 18411696569554550993
14251764 18 17894345583692919867
14251764 46 18410573989446424931
14933364 13 18408886235214382101
15183329 4 18412543189355565177
17844677 252 18408891741505185661
18006028 8 16988843877891624624
19489759 90 17676206875484868345
20238998 120 18410573985405841124
20281389 69 17968093101781504053
21150785 3 16988839493014819237
21236236 1 18060141982055590097
21267235 1 18272940406206993830
21315763 28 18408322211413576765
220451 1 15841832235752586671
22224240 67 14345794967971243328
23035841 295 12175904351028444407
23521765 1 18341895198988497418
23536379 177 18334012779044401643
23559900 14 18201432618636540001
28498 318 18343303639883854846
29717793 49 17203615878329209884
300161 21 18060413633961695622
3004659 81 18407476665628966488
335352 9 18343022212214815236
33684 2 18410011030908486747
3545911 37 18411136943700088290
4073 2 17968382359059782826
4325135 7 18413952784526226748
4463277 17 18410855460434181881
59755656 215 18410295779257159478
59755656 520 17603862334002153651
8209 1 18410856563934769870

>  <PUBCHEM_SHAPE_MULTIPOLES>  (1) 
384.02
23.15
1.35
0.69
4.42
0.11
0.02
1.06
1.53
0.42
0.02
0.25
0.03
1

>  <PUBCHEM_SHAPE_SELFOVERLAP>  (1) 
786.157

>  <PUBCHEM_SHAPE_VOLUME>  (1) 
222

>  <PUBCHEM_COORDINATE_TYPE>  (1) 
2
5
10

$$$$
