41601
     RDKit          3D

 24 25  0  0  0  0  0  0  0  0999 V2000
   -1.3572    0.2507    0.0116 O   0  0  0  0  0  0  0  0  0  0  0  0
    3.3008    0.0923   -0.7367 O   0  0  0  0  0  0  0  0  0  0  0  0
   -1.0225    2.4505    0.5396 O   0  0  0  0  0  0  0  0  0  0  0  0
   -4.8752   -0.8152    0.2852 N   0  0  0  0  0  0  0  0  0  0  0  0
    0.7391    1.0464   -0.0973 N   0  0  0  0  0  0  0  0  0  0  0  0
   -5.5208   -2.1303    0.1683 C   0  0  0  0  0  0  0  0  0  0  0  0
   -5.4931    0.1624   -0.6217 C   0  0  0  0  0  0  0  0  0  0  0  0
   -7.0133   -2.0431    0.4912 C   0  0  0  0  0  0  0  0  0  0  0  0
   -6.9846    0.3245   -0.3247 C   0  0  0  0  0  0  0  0  0  0  0  0
   -7.7119   -1.0138   -0.3898 C   0  0  0  0  0  0  0  0  0  0  0  0
   -3.4409   -0.9239    0.0197 C   0  0  0  0  0  0  0  0  0  0  0  0
   -2.7474    0.4068    0.2644 C   0  0  0  0  0  0  0  0  0  0  0  0
    5.1397   -3.0121    0.3274 C   0  0  0  0  0  0  0  0  0  0  0  0
    4.2135   -2.1117   -0.4871 C   0  0  0  0  0  0  0  0  0  0  0  0
    5.2130   -4.4181   -0.2675 C   0  0  0  0  0  0  0  0  0  0  0  0
    4.1676   -0.6976    0.0742 C   0  0  0  0  0  0  0  0  0  0  0  0
   -0.5744    1.3666    0.1861 C   0  0  0  0  0  0  0  0  0  0  0  0
    1.8712    1.8912   -0.0470 C   0  0  0  0  0  0  0  0  0  0  0  0
    3.1244    1.3931   -0.3689 C   0  0  0  0  0  0  0  0  0  0  0  0
    6.1605   -5.3080    0.5212 C   0  0  0  0  0  0  0  0  0  0  0  0
    1.6991    3.2154    0.3271 C   0  0  0  0  0  0  0  0  0  0  0  0
    4.2321    2.2391   -0.3154 C   0  0  0  0  0  0  0  0  0  0  0  0
    2.8070    4.0614    0.3806 C   0  0  0  0  0  0  0  0  0  0  0  0
    4.0734    3.5733    0.0594 C   0  0  0  0  0  0  0  0  0  0  0  0
  1 12  1  0
  1 17  1  0
  2 16  1  0
  2 19  1  0
  3 17  2  0
  4  6  1  0
  4  7  1  0
  4 11  1  0
  5 17  1  0
  5 18  1  0
  6  8  1  0
  7  9  1  0
  8 10  1  0
  9 10  1  0
 11 12  1  0
 13 14  1  0
 13 15  1  0
 14 16  1  0
 15 20  1  0
 18 19  2  0
 18 21  1  0
 19 22  1  0
 21 23  2  0
 22 24  2  0
 23 24  1  0
M  END
>  <PUBCHEM_COMPOUND_CID>  (1) 
41601

>  <PUBCHEM_CONFORMER_RMSD>  (1) 
1

>  <PUBCHEM_CONFORMER_DIVERSEORDER>  (1) 
1
124
95
31
99
88
72
75
76
131
42
112
97
84
121
168
98
128
110
106
113
19
23
152
104
161
102
120
108
171
166
59
67
167
140
175
57
123
158
28
79
51
127
94
40
35
134
116
109
87
160
135
139
119
137
144
136
44
96
70
41
22
129
145
61
93
34
163
114
74
43
159
151
33
9
2
18
92
20
14
48
170
53
130
77
155
125
47
154
141
69
146
8
63
89
126
64
90
83
50
169
122
174
54
13
52
107
148
132
4
142
115
91
138
157
173
55
65
6
68
78
58
147
149
117
85
11
86
27
81
37
103
26
29
143
71
38
80
24
39
16
105
162
25
46
66
60
32
56
82
45
15
150
62
164
101
133
172
5
153
49
36
17
73
10
165
100
3
21
12
118
111
30
156
7

>  <PUBCHEM_MMFF94_PARTIAL_CHARGES>  (1) 
22
1 -0.43
11 0.27
12 0.28
16 0.28
17 0.78
18 0.12
19 0.08
2 -0.36
21 -0.15
22 -0.15
23 -0.15
24 -0.15
3 -0.57
4 -0.81
47 0.37
5 -0.55
51 0.15
52 0.15
53 0.15
54 0.15
6 0.27
7 0.27

>  <PUBCHEM_EFFECTIVE_ROTOR_COUNT>  (1) 
12.2

>  <PUBCHEM_PHARMACOPHORE_FEATURES>  (1) 
7
1 2 acceptor
1 20 hydrophobe
1 3 acceptor
1 4 cation
1 5 donor
6 18 19 21 22 23 24 rings
6 4 6 7 8 9 10 rings

>  <PUBCHEM_HEAVY_ATOM_COUNT>  (1) 
24

>  <PUBCHEM_ATOM_DEF_STEREO_COUNT>  (1) 
0

>  <PUBCHEM_ATOM_UDEF_STEREO_COUNT>  (1) 
0

>  <PUBCHEM_BOND_DEF_STEREO_COUNT>  (1) 
0

>  <PUBCHEM_BOND_UDEF_STEREO_COUNT>  (1) 
0

>  <PUBCHEM_ISOTOPIC_ATOM_COUNT>  (1) 
0

>  <PUBCHEM_COMPONENT_COUNT>  (1) 
1

>  <PUBCHEM_CACTVS_TAUTO_COUNT>  (1) 
2

>  <PUBCHEM_CONFORMER_ID>  (1) 
0000A28100000001

>  <PUBCHEM_MMFF94_ENERGY>  (1) 
44.1265

>  <PUBCHEM_FEATURE_SELFOVERLAP>  (1) 
35.52

>  <PUBCHEM_SHAPE_FINGERPRINT>  (1) 
10050765 1 18339362968002605944
10319688 140 18410294731416747986
10411042 1 18267021653373634134
11088757 655 18190733130260955754
11135609 149 18266155323429772340
11719270 70 18267019643371397720
11963148 33 18197774621030073999
12107183 9 18126861403937726721
13073987 5 18342182215301604465
13533116 47 18411420643739033161
1361 4 18266178525566343211
13785724 45 18199478666531746630
13911852 28 18338518530323968598
13955234 65 18270960279817436960
14344974 204 17690557491046753426
14933364 13 18266179616551002157
15183329 4 18342180016288820417
15400415 2 17906735061235812073
15483637 11 17907017635661139382
15927050 60 18124877025862478574
16991971 28 18271821073300541934
16992752 21 18124043339273545054
17492 89 18411418376007045224
17859628 70 18411138073994054792
19427546 62 17834396001138408984
20645477 70 18336826489092169608
21130935 74 18339083800345973523
21279426 13 18334853910130431949
21344244 78 18130496484111040944
220451 1 17844817082462548797
22956985 138 18337947880485930144
23081809 10 17703232923136078657
255183 451 18270689667118544358
3004659 81 18260829323379920128
3014965 18 18411416233229483477
32027 91 18409725141059057511
3421961 26 18412261740438899200
345986 75 17704079494526771833
34797466 226 16878225385113760093
4073 2 18045503273099939865
5104073 3 17988931050266949009
5309563 4 18195247720218993270
5364581 5 10087634910775549191
6441014 3 17906733597069163434
70251023 43 18408605833948068264
7970288 3 18194119621273187738

>  <PUBCHEM_SHAPE_MULTIPOLES>  (1) 
466.34
20.51
6.35
0.72
34.43
4.3
-0.01
22.01
-0.72
-18.26
0.97
0
0.06
-0.04

>  <PUBCHEM_SHAPE_SELFOVERLAP>  (1) 
937.636

>  <PUBCHEM_SHAPE_VOLUME>  (1) 
273.8

>  <PUBCHEM_COORDINATE_TYPE>  (1) 
2
5
10

$$$$
