41607
     RDKit          3D

 25 26  0  0  0  0  0  0  0  0999 V2000
    2.8184   -0.2497    0.1407 O   0  0  0  0  0  0  0  0  0  0  0  0
   -4.1240    0.3140    1.0352 O   0  0  0  0  0  0  0  0  0  0  0  0
    2.1157    1.7071   -0.8118 O   0  0  0  0  0  0  0  0  0  0  0  0
    6.4543   -0.8179   -0.2003 N   0  0  0  0  0  0  0  0  0  0  0  0
    0.6227    0.2435    0.2509 N   0  0  0  0  0  0  0  0  0  0  0  0
    7.2211   -2.0712   -0.2352 C   0  0  0  0  0  0  0  0  0  0  0  0
    7.0779    0.1616    0.7006 C   0  0  0  0  0  0  0  0  0  0  0  0
    8.6572   -1.8269   -0.7017 C   0  0  0  0  0  0  0  0  0  0  0  0
    8.5093    0.4787    0.2649 C   0  0  0  0  0  0  0  0  0  0  0  0
    9.3534   -0.7870    0.1688 C   0  0  0  0  0  0  0  0  0  0  0  0
    5.0718   -1.0750    0.2018 C   0  0  0  0  0  0  0  0  0  0  0  0
    4.1606    0.0516   -0.2584 C   0  0  0  0  0  0  0  0  0  0  0  0
   -7.6183   -0.3926   -0.1509 C   0  0  0  0  0  0  0  0  0  0  0  0
   -8.6014   -1.5517    0.0356 C   0  0  0  0  0  0  0  0  0  0  0  0
   -6.2816   -0.6098    0.5563 C   0  0  0  0  0  0  0  0  0  0  0  0
   -9.9301   -1.3451   -0.6926 C   0  0  0  0  0  0  0  0  0  0  0  0
   -5.3509    0.5812    0.3700 C   0  0  0  0  0  0  0  0  0  0  0  0
    1.8675    0.6745   -0.2015 C   0  0  0  0  0  0  0  0  0  0  0  0
  -10.8963   -2.4874   -0.4173 C   0  0  0  0  0  0  0  0  0  0  0  0
   -2.9990    0.9018    0.5175 C   0  0  0  0  0  0  0  0  0  0  0  0
   -0.6161    0.8719    0.1209 C   0  0  0  0  0  0  0  0  0  0  0  0
   -1.7606    0.2734    0.6477 C   0  0  0  0  0  0  0  0  0  0  0  0
   -3.0929    2.1287   -0.1393 C   0  0  0  0  0  0  0  0  0  0  0  0
   -0.7101    2.0988   -0.5359 C   0  0  0  0  0  0  0  0  0  0  0  0
   -1.9485    2.7273   -0.6661 C   0  0  0  0  0  0  0  0  0  0  0  0
  1 12  1  0
  1 18  1  0
  2 17  1  0
  2 20  1  0
  3 18  2  0
  4  6  1  0
  4  7  1  0
  4 11  1  0
  5 18  1  0
  5 21  1  0
  6  8  1  0
  7  9  1  0
  8 10  1  0
  9 10  1  0
 11 12  1  0
 13 14  1  0
 13 15  1  0
 14 16  1  0
 15 17  1  0
 16 19  1  0
 20 22  2  0
 20 23  1  0
 21 22  1  0
 21 24  2  0
 23 25  2  0
 24 25  1  0
M  END
>  <PUBCHEM_COMPOUND_CID>  (1) 
41607

>  <PUBCHEM_CONFORMER_RMSD>  (1) 
1.4

>  <PUBCHEM_CONFORMER_DIVERSEORDER>  (1) 
2
15
10
32
12
26
37
16
4
14
11
30
33
23
6
5
28
29
13
27
7
36
22
31
8
19
24
34
25
21
9
1
18
3
17
20
35

>  <PUBCHEM_MMFF94_PARTIAL_CHARGES>  (1) 
22
1 -0.43
11 0.27
12 0.28
17 0.28
18 0.78
2 -0.36
20 0.08
21 0.12
22 -0.15
23 -0.15
24 -0.15
25 -0.15
3 -0.57
4 -0.81
5 -0.55
53 0.37
54 0.15
55 0.15
56 0.15
57 0.15
6 0.27
7 0.27

>  <PUBCHEM_EFFECTIVE_ROTOR_COUNT>  (1) 
13.2

>  <PUBCHEM_PHARMACOPHORE_FEATURES>  (1) 
8
1 19 hydrophobe
1 2 acceptor
1 3 acceptor
1 4 cation
1 5 donor
4 13 14 15 16 hydrophobe
6 20 21 22 23 24 25 rings
6 4 6 7 8 9 10 rings

>  <PUBCHEM_HEAVY_ATOM_COUNT>  (1) 
25

>  <PUBCHEM_ATOM_DEF_STEREO_COUNT>  (1) 
0

>  <PUBCHEM_ATOM_UDEF_STEREO_COUNT>  (1) 
0

>  <PUBCHEM_BOND_DEF_STEREO_COUNT>  (1) 
0

>  <PUBCHEM_BOND_UDEF_STEREO_COUNT>  (1) 
0

>  <PUBCHEM_ISOTOPIC_ATOM_COUNT>  (1) 
0

>  <PUBCHEM_COMPONENT_COUNT>  (1) 
1

>  <PUBCHEM_CACTVS_TAUTO_COUNT>  (1) 
2

>  <PUBCHEM_CONFORMER_ID>  (1) 
0000A28700000002

>  <PUBCHEM_MMFF94_ENERGY>  (1) 
41.1487

>  <PUBCHEM_FEATURE_SELFOVERLAP>  (1) 
40.594

>  <PUBCHEM_SHAPE_FINGERPRINT>  (1) 
10 15 12679467482769073645
10411042 1 18410856573316963157
106641 1 17561363993448120544
11135609 99 18201437047634214231
11211813 128 18273217482283210102
11315181 36 18337957792036592560
11408170 108 18272660021999853079
11463208 3 18129948876203411198
12539745 222 17918277524699854561
14150022 121 17346325834747760617
14251764 46 17748826319648228147
14344974 52 13118290300118805771
14918687 75 17632289125307203287
15198563 99 16732977592798058749
15510794 2 18131071502705733405
155225 1 8358263644813533751
15690457 1 18412825789381708843
15706992 2 9007059098012329015
1818759 1 18412827993259295771
18335252 98 17632861910366441062
20105231 36 18130233654220423246
20721686 146 11026058181342026707
20771845 65 18272372027510934777
21095086 128 18201439152046863202
21267235 1 18334018280560248409
21315763 28 18262238821064033496
21360443 89 18341889701388297139
21792961 116 17167866366465513673
232437 2 18343584049360665683
23524908 199 12396569712279377584
335352 9 18040719181505558899
3711267 37 8069748537826075463
4760202 170 13623820461797657526
54039377 194 18409728478754886831
5758199 1 10231761089846892485
58083652 198 15864364545063757620
59682541 35 17775001301700961978
67123 10 18342739615660880914
9953998 17 13398627265325776485

>  <PUBCHEM_SHAPE_MULTIPOLES>  (1) 
486.92
37.8
2.38
0.82
17.34
0.31
-0.01
-35.16
2.91
2.53
0.65
0.19
0.06
-0.1

>  <PUBCHEM_SHAPE_SELFOVERLAP>  (1) 
973.505

>  <PUBCHEM_SHAPE_VOLUME>  (1) 
287.4

>  <PUBCHEM_COORDINATE_TYPE>  (1) 
2
5
10

$$$$
