41617
     RDKit          3D

 27 28  0  0  0  0  0  0  0  0999 V2000
   -0.3415   -2.4331   -0.5496 O   0  0  0  0  0  0  0  0  0  0  0  0
   -2.8052    1.5707   -1.0248 O   0  0  0  0  0  0  0  0  0  0  0  0
   -2.1360   -3.2020    0.6418 O   0  0  0  0  0  0  0  0  0  0  0  0
    2.4919   -2.5590   -0.4743 N   0  0  0  0  0  0  0  0  0  0  0  0
   -2.0938   -1.0456   -0.2787 N   0  0  0  0  0  0  0  0  0  0  0  0
    3.5453   -2.1759   -1.4249 C   0  0  0  0  0  0  0  0  0  0  0  0
    3.0629   -2.9508    0.8218 C   0  0  0  0  0  0  0  0  0  0  0  0
    4.3764   -1.0099   -0.8873 C   0  0  0  0  0  0  0  0  0  0  0  0
    3.8785   -1.8103    1.4329 C   0  0  0  0  0  0  0  0  0  0  0  0
    4.9686   -1.3349    0.4792 C   0  0  0  0  0  0  0  0  0  0  0  0
    1.6771   -3.6427   -1.0230 C   0  0  0  0  0  0  0  0  0  0  0  0
    0.3173   -3.6883   -0.3446 C   0  0  0  0  0  0  0  0  0  0  0  0
    0.9340    3.6257   -0.4224 C   0  0  0  0  0  0  0  0  0  0  0  0
    2.0449    3.0550    0.4638 C   0  0  0  0  0  0  0  0  0  0  0  0
   -0.4336    2.9866   -0.1713 C   0  0  0  0  0  0  0  0  0  0  0  0
    3.4259    3.6409    0.1623 C   0  0  0  0  0  0  0  0  0  0  0  0
   -1.4977    3.5756   -1.0964 C   0  0  0  0  0  0  0  0  0  0  0  0
    4.5056    2.9846    1.0241 C   0  0  0  0  0  0  0  0  0  0  0  0
   -2.8707    2.9762   -0.8268 C   0  0  0  0  0  0  0  0  0  0  0  0
    5.8859    3.5351    0.7027 C   0  0  0  0  0  0  0  0  0  0  0  0
   -1.5883   -2.3110    0.0040 C   0  0  0  0  0  0  0  0  0  0  0  0
   -3.6665    0.8014   -0.2862 C   0  0  0  0  0  0  0  0  0  0  0  0
   -3.3248   -0.4978    0.0897 C   0  0  0  0  0  0  0  0  0  0  0  0
   -4.8996    1.3345    0.0892 C   0  0  0  0  0  0  0  0  0  0  0  0
   -4.2163   -1.2635    0.8412 C   0  0  0  0  0  0  0  0  0  0  0  0
   -5.7909    0.5688    0.8408 C   0  0  0  0  0  0  0  0  0  0  0  0
   -5.4493   -0.7302    1.2168 C   0  0  0  0  0  0  0  0  0  0  0  0
  1 12  1  0
  1 21  1  0
  2 19  1  0
  2 22  1  0
  3 21  2  0
  4  6  1  0
  4  7  1  0
  4 11  1  0
  5 21  1  0
  5 23  1  0
  6  8  1  0
  7  9  1  0
  8 10  1  0
  9 10  1  0
 11 12  1  0
 13 14  1  0
 13 15  1  0
 14 16  1  0
 15 17  1  0
 16 18  1  0
 17 19  1  0
 18 20  1  0
 22 23  2  0
 22 24  1  0
 23 25  1  0
 24 26  2  0
 25 27  2  0
 26 27  1  0
M  END
>  <PUBCHEM_COMPOUND_CID>  (1) 
41617

>  <PUBCHEM_CONFORMER_RMSD>  (1) 
1.4

>  <PUBCHEM_CONFORMER_DIVERSEORDER>  (1) 
2
9
46
42
26
49
43
12
53
7
32
34
15
1
4
54
37
14
47
27
45
52
28
11
3
20
31
44
25
22
33
50
21
23
18
41
35
29
8
55
24
6
30
40
5
39
13
17
36
19
10
48
38
16
51

>  <PUBCHEM_MMFF94_PARTIAL_CHARGES>  (1) 
22
1 -0.43
11 0.27
12 0.28
19 0.28
2 -0.36
21 0.78
22 0.08
23 0.12
24 -0.15
25 -0.15
26 -0.15
27 -0.15
3 -0.57
4 -0.81
5 -0.55
59 0.37
6 0.27
60 0.15
61 0.15
62 0.15
63 0.15
7 0.27

>  <PUBCHEM_EFFECTIVE_ROTOR_COUNT>  (1) 
15.2

>  <PUBCHEM_PHARMACOPHORE_FEATURES>  (1) 
9
1 2 acceptor
1 20 hydrophobe
1 3 acceptor
1 4 cation
1 5 donor
3 13 15 17 hydrophobe
3 14 16 18 hydrophobe
6 22 23 24 25 26 27 rings
6 4 6 7 8 9 10 rings

>  <PUBCHEM_HEAVY_ATOM_COUNT>  (1) 
27

>  <PUBCHEM_ATOM_DEF_STEREO_COUNT>  (1) 
0

>  <PUBCHEM_ATOM_UDEF_STEREO_COUNT>  (1) 
0

>  <PUBCHEM_BOND_DEF_STEREO_COUNT>  (1) 
0

>  <PUBCHEM_BOND_UDEF_STEREO_COUNT>  (1) 
0

>  <PUBCHEM_ISOTOPIC_ATOM_COUNT>  (1) 
0

>  <PUBCHEM_COMPONENT_COUNT>  (1) 
1

>  <PUBCHEM_CACTVS_TAUTO_COUNT>  (1) 
2

>  <PUBCHEM_CONFORMER_ID>  (1) 
0000A29100000002

>  <PUBCHEM_MMFF94_ENERGY>  (1) 
41.2636

>  <PUBCHEM_FEATURE_SELFOVERLAP>  (1) 
45.683

>  <PUBCHEM_SHAPE_FINGERPRINT>  (1) 
10290309 65 18265610077495925869
10670039 82 18047773506840147622
12596602 18 16878519933475476059
13402501 40 18339361851136295118
14363568 33 18337684082560751953
14647877 51 18412544310700835708
14725015 67 18188767232759068969
14747282 125 18198642084343824990
15274700 259 17388811987012321045
20721686 56 18335699493957773001
20764821 26 18267561629187910188
21344244 246 18267009739519308671
229767 44 18050565449950915176
325973 47 17906729203205706380
437795 96 18408601491635658072
5047190 48 18266737072882510388
5265222 85 17832154084071027796
6176135 31 18339076124627875640
6433294 58 18410854344043839604
9543594 6 18337954614377588732

>  <PUBCHEM_SHAPE_MULTIPOLES>  (1) 
528.08
12.88
6.97
1.2
1.83
2.22
-0.01
3.68
-4.24
-7.27
0.76
-0.38
-0.21
2.36

>  <PUBCHEM_SHAPE_SELFOVERLAP>  (1) 
1051.341

>  <PUBCHEM_SHAPE_VOLUME>  (1) 
312.3

>  <PUBCHEM_COORDINATE_TYPE>  (1) 
2
5
10

$$$$
