41611
     RDKit          3D

 26 27  0  0  0  0  0  0  0  0999 V2000
    0.2837   -2.2877   -0.5507 O   0  0  0  0  0  0  0  0  0  0  0  0
   -2.8124    1.2457   -1.0567 O   0  0  0  0  0  0  0  0  0  0  0  0
   -1.3652   -3.3435    0.6311 O   0  0  0  0  0  0  0  0  0  0  0  0
    3.0977   -1.9370   -0.4560 N   0  0  0  0  0  0  0  0  0  0  0  0
   -1.6781   -1.2128   -0.2966 N   0  0  0  0  0  0  0  0  0  0  0  0
    4.0789   -1.3850   -1.4006 C   0  0  0  0  0  0  0  0  0  0  0  0
    3.7168   -2.2246    0.8455 C   0  0  0  0  0  0  0  0  0  0  0  0
    4.6989   -0.0949   -0.8615 C   0  0  0  0  0  0  0  0  0  0  0  0
    4.3252   -0.9621    1.4581 C   0  0  0  0  0  0  0  0  0  0  0  0
    5.3273   -0.3130    0.5101 C   0  0  0  0  0  0  0  0  0  0  0  0
    2.4799   -3.1432   -1.0062 C   0  0  0  0  0  0  0  0  0  0  0  0
    1.1420   -3.4142   -0.3369 C   0  0  0  0  0  0  0  0  0  0  0  0
    0.5060    3.9045   -0.3075 C   0  0  0  0  0  0  0  0  0  0  0  0
   -0.7460    3.0489   -0.1026 C   0  0  0  0  0  0  0  0  0  0  0  0
    1.6534    3.5408    0.6392 C   0  0  0  0  0  0  0  0  0  0  0  0
   -1.8486    3.4375   -1.0865 C   0  0  0  0  0  0  0  0  0  0  0  0
    2.9291    4.3453    0.3857 C   0  0  0  0  0  0  0  0  0  0  0  0
   -3.1137    2.6209   -0.8641 C   0  0  0  0  0  0  0  0  0  0  0  0
   -0.9698   -2.3750   -0.0062 C   0  0  0  0  0  0  0  0  0  0  0  0
    4.0580    3.8972    1.3017 C   0  0  0  0  0  0  0  0  0  0  0  0
   -3.5379    0.3446   -0.3214 C   0  0  0  0  0  0  0  0  0  0  0  0
   -2.9862   -0.8781    0.0615 C   0  0  0  0  0  0  0  0  0  0  0  0
   -4.8456    0.6646    0.0439 C   0  0  0  0  0  0  0  0  0  0  0  0
   -3.7422   -1.7806    0.8096 C   0  0  0  0  0  0  0  0  0  0  0  0
   -5.6014   -0.2379    0.7921 C   0  0  0  0  0  0  0  0  0  0  0  0
   -5.0498   -1.4604    1.1749 C   0  0  0  0  0  0  0  0  0  0  0  0
  1 12  1  0
  1 19  1  0
  2 18  1  0
  2 21  1  0
  3 19  2  0
  4  6  1  0
  4  7  1  0
  4 11  1  0
  5 19  1  0
  5 22  1  0
  6  8  1  0
  7  9  1  0
  8 10  1  0
  9 10  1  0
 11 12  1  0
 13 14  1  0
 13 15  1  0
 14 16  1  0
 15 17  1  0
 16 18  1  0
 17 20  1  0
 21 22  2  0
 21 23  1  0
 22 24  1  0
 23 25  2  0
 24 26  2  0
 25 26  1  0
M  END
>  <PUBCHEM_COMPOUND_CID>  (1) 
41611

>  <PUBCHEM_CONFORMER_RMSD>  (1) 
1.2

>  <PUBCHEM_CONFORMER_DIVERSEORDER>  (1) 
3
46
56
8
59
54
53
63
66
50
31
34
51
6
48
64
26
55
49
5
71
60
20
61
37
57
15
2
4
69
35
62
38
65
52
68
44
11
10
19
27
41
29
33
9
32
18
25
45
70
58
39
42
36
40
12
7
14
30
22
28
67
1
24
16
43
23
17
47
21
13

>  <PUBCHEM_MMFF94_PARTIAL_CHARGES>  (1) 
22
1 -0.43
11 0.27
12 0.28
18 0.28
19 0.78
2 -0.36
21 0.08
22 0.12
23 -0.15
24 -0.15
25 -0.15
26 -0.15
3 -0.57
4 -0.81
5 -0.55
56 0.37
57 0.15
58 0.15
59 0.15
6 0.27
60 0.15
7 0.27

>  <PUBCHEM_EFFECTIVE_ROTOR_COUNT>  (1) 
14.2

>  <PUBCHEM_PHARMACOPHORE_FEATURES>  (1) 
8
1 2 acceptor
1 20 hydrophobe
1 3 acceptor
1 4 cation
1 5 donor
5 13 14 15 16 17 hydrophobe
6 21 22 23 24 25 26 rings
6 4 6 7 8 9 10 rings

>  <PUBCHEM_HEAVY_ATOM_COUNT>  (1) 
26

>  <PUBCHEM_ATOM_DEF_STEREO_COUNT>  (1) 
0

>  <PUBCHEM_ATOM_UDEF_STEREO_COUNT>  (1) 
0

>  <PUBCHEM_BOND_DEF_STEREO_COUNT>  (1) 
0

>  <PUBCHEM_BOND_UDEF_STEREO_COUNT>  (1) 
0

>  <PUBCHEM_ISOTOPIC_ATOM_COUNT>  (1) 
0

>  <PUBCHEM_COMPONENT_COUNT>  (1) 
1

>  <PUBCHEM_CACTVS_TAUTO_COUNT>  (1) 
2

>  <PUBCHEM_CONFORMER_ID>  (1) 
0000A28B00000003

>  <PUBCHEM_MMFF94_ENERGY>  (1) 
41.7218

>  <PUBCHEM_FEATURE_SELFOVERLAP>  (1) 
40.595

>  <PUBCHEM_SHAPE_FINGERPRINT>  (1) 
10290309 65 18049999193174096821
10670039 82 18191605068324006462
12596602 18 16950288394631006146
13402501 40 18411419492592767738
13561361 72 18191023409165592596
14363568 33 18337964505085949769
14725015 67 18261384525418048617
14747282 125 18126582338716854446
15081414 286 18271815579551819574
15274700 259 17605543363987780885
18785283 64 18266466575535883075
20764821 26 18196068136207633260
21344244 246 18051398859323882287
229767 44 17762611094304708848
325973 47 18051124801164581116
5047190 48 17978787140889218244
5265222 85 17471304319021065812
532947 4 18338794641324292253
6433294 58 18410854395567791772
9543594 6 18194401328278066964

>  <PUBCHEM_SHAPE_MULTIPOLES>  (1) 
507.5
12.03
6.61
1.23
1.48
5.96
-0.05
-2.04
-2.8
-4.94
-0.05
-0.61
0.02
2.75

>  <PUBCHEM_SHAPE_SELFOVERLAP>  (1) 
1013.51

>  <PUBCHEM_SHAPE_VOLUME>  (1) 
299.3

>  <PUBCHEM_COORDINATE_TYPE>  (1) 
2
5
10

$$$$
