41615
     RDKit          3D

 26 27  0  0  0  0  0  0  0  0999 V2000
    3.5530   -0.3412    0.4971 O   0  0  0  0  0  0  0  0  0  0  0  0
   -3.9747    1.4317    0.1125 O   0  0  0  0  0  0  0  0  0  0  0  0
    2.4263    0.8858   -1.0699 O   0  0  0  0  0  0  0  0  0  0  0  0
    7.1684   -0.6447   -0.2075 N   0  0  0  0  0  0  0  0  0  0  0  0
    1.3334   -0.0688    0.7727 N   0  0  0  0  0  0  0  0  0  0  0  0
    8.1253   -1.6941    0.1705 C   0  0  0  0  0  0  0  0  0  0  0  0
    7.7189    0.6937    0.0487 C   0  0  0  0  0  0  0  0  0  0  0  0
    9.4361   -1.5510   -0.6047 C   0  0  0  0  0  0  0  0  0  0  0  0
    9.0163    0.9148   -0.7303 C   0  0  0  0  0  0  0  0  0  0  0  0
   10.0441   -0.1661   -0.4148 C   0  0  0  0  0  0  0  0  0  0  0  0
    5.9046   -0.8232    0.5069 C   0  0  0  0  0  0  0  0  0  0  0  0
    4.7701   -0.1260   -0.2267 C   0  0  0  0  0  0  0  0  0  0  0  0
   -8.5798   -0.1408   -0.5994 C   0  0  0  0  0  0  0  0  0  0  0  0
   -7.3278   -0.2576    0.2727 C   0  0  0  0  0  0  0  0  0  0  0  0
   -9.7266   -1.0470   -0.1426 C   0  0  0  0  0  0  0  0  0  0  0  0
   -6.2259    0.6831   -0.2126 C   0  0  0  0  0  0  0  0  0  0  0  0
  -11.0022   -0.8766   -0.9686 C   0  0  0  0  0  0  0  0  0  0  0  0
   -4.9609    0.5448    0.6225 C   0  0  0  0  0  0  0  0  0  0  0  0
    2.4273    0.2271   -0.0371 C   0  0  0  0  0  0  0  0  0  0  0  0
  -12.1305   -1.7439   -0.4310 C   0  0  0  0  0  0  0  0  0  0  0  0
   -2.6653    1.0598    0.2744 C   0  0  0  0  0  0  0  0  0  0  0  0
    0.0002    0.3067    0.6061 C   0  0  0  0  0  0  0  0  0  0  0  0
   -2.2914    0.2829    1.3709 C   0  0  0  0  0  0  0  0  0  0  0  0
   -1.7065    1.4602   -0.6562 C   0  0  0  0  0  0  0  0  0  0  0  0
   -0.9587   -0.0936    1.5368 C   0  0  0  0  0  0  0  0  0  0  0  0
   -0.3737    1.0837   -0.4903 C   0  0  0  0  0  0  0  0  0  0  0  0
  1 12  1  0
  1 19  1  0
  2 18  1  0
  2 21  1  0
  3 19  2  0
  4  6  1  0
  4  7  1  0
  4 11  1  0
  5 19  1  0
  5 22  1  0
  6  8  1  0
  7  9  1  0
  8 10  1  0
  9 10  1  0
 11 12  1  0
 13 14  1  0
 13 15  1  0
 14 16  1  0
 15 17  1  0
 16 18  1  0
 17 20  1  0
 21 23  2  0
 21 24  1  0
 22 25  2  0
 22 26  1  0
 23 25  1  0
 24 26  2  0
M  END
>  <PUBCHEM_COMPOUND_CID>  (1) 
41615

>  <PUBCHEM_CONFORMER_RMSD>  (1) 
1.2

>  <PUBCHEM_CONFORMER_DIVERSEORDER>  (1) 
1
61
40
57
49
46
8
62
42
15
54
32
21
28
52
41
53
48
55
20
59
24
43
35
5
60
38
14
13
22
56
44
51
39
3
27
50
65
47
25
10
9
4
45
64
37
26
12
36
23
6
2
34
30
33
63
31
19
58
7
16
18
17
29
11

>  <PUBCHEM_MMFF94_PARTIAL_CHARGES>  (1) 
22
1 -0.43
11 0.27
12 0.28
18 0.28
19 0.78
2 -0.36
21 0.08
22 0.12
23 -0.15
24 -0.15
25 -0.15
26 -0.15
3 -0.57
4 -0.81
5 -0.55
56 0.37
57 0.15
58 0.15
59 0.15
6 0.27
60 0.15
7 0.27

>  <PUBCHEM_EFFECTIVE_ROTOR_COUNT>  (1) 
14.2

>  <PUBCHEM_PHARMACOPHORE_FEATURES>  (1) 
8
1 2 acceptor
1 20 hydrophobe
1 3 acceptor
1 4 cation
1 5 donor
5 13 14 15 16 17 hydrophobe
6 21 22 23 24 25 26 rings
6 4 6 7 8 9 10 rings

>  <PUBCHEM_HEAVY_ATOM_COUNT>  (1) 
26

>  <PUBCHEM_ATOM_DEF_STEREO_COUNT>  (1) 
0

>  <PUBCHEM_ATOM_UDEF_STEREO_COUNT>  (1) 
0

>  <PUBCHEM_BOND_DEF_STEREO_COUNT>  (1) 
0

>  <PUBCHEM_BOND_UDEF_STEREO_COUNT>  (1) 
0

>  <PUBCHEM_ISOTOPIC_ATOM_COUNT>  (1) 
0

>  <PUBCHEM_COMPONENT_COUNT>  (1) 
1

>  <PUBCHEM_CACTVS_TAUTO_COUNT>  (1) 
2

>  <PUBCHEM_CONFORMER_ID>  (1) 
0000A28F00000001

>  <PUBCHEM_MMFF94_ENERGY>  (1) 
40.9544

>  <PUBCHEM_FEATURE_SELFOVERLAP>  (1) 
40.594

>  <PUBCHEM_SHAPE_FINGERPRINT>  (1) 
106641 1 17418373592808776484
11315181 36 18187373107676024896
11463208 3 18059579036539976966
12498461 61 16486967441742136287
12539745 222 17704075067491643177
12664476 115 12035445056490641599
12741549 16 16486973999782527721
12838862 33 16298383578667609400
13383668 1 17895187750336125666
14117953 113 16298391249062553174
14202775 3 18201725041612359271
14251764 46 18410856559645064327
14251920 17 18412262879180570408
14344974 52 15791736338981996407
15247644 1 18060421304599973807
15461852 350 18410857637708632197
15510794 2 17917714570076418845
155225 1 11241967076011025671
15690457 1 18412824672658459415
16120349 18 18040720290578065740
16728433 110 17703502272434007616
18335252 98 17060342902805661436
21095086 128 18273214188048055328
21150785 3 18412263922445549600
21267235 1 15051731980489288464
21362267 2 14635156784300649638
21792934 111 13479135718487967230
232437 2 18202282507345320703
249057 3 16226057703750143284
3092352 35 17703794705195915110
335352 9 17312823775314469169
54039377 194 18342454860004389501
57828716 72 16443348715333745988
57828716 8 18335696127458475602
59521270 166 18334853893688807437
59682541 35 15195283131985016087
636775 8 18409167736931775723
67123 10 18410012130515072996
9663363 56 15574714708338206420

>  <PUBCHEM_SHAPE_MULTIPOLES>  (1) 
507.5
44.99
1.42
1.02
37.69
0.26
0.16
24.78
-13.23
0.22
-0.2
0.37
-0.04
-0.91

>  <PUBCHEM_SHAPE_SELFOVERLAP>  (1) 
1011.379

>  <PUBCHEM_SHAPE_VOLUME>  (1) 
300

>  <PUBCHEM_COORDINATE_TYPE>  (1) 
2
5
10

$$$$
