41623
     RDKit          3D

 28 29  0  0  0  0  0  0  0  0999 V2000
    4.4452   -0.3394   -0.1324 O   0  0  0  0  0  0  0  0  0  0  0  0
   -2.5756   -0.2019   -0.0509 O   0  0  0  0  0  0  0  0  0  0  0  0
    3.7568    1.8409   -0.1834 O   0  0  0  0  0  0  0  0  0  0  0  0
    8.1218   -0.7124   -0.1862 N   0  0  0  0  0  0  0  0  0  0  0  0
    2.2285    0.0630   -0.1163 N   0  0  0  0  0  0  0  0  0  0  0  0
    8.9578   -1.8167   -0.6778 C   0  0  0  0  0  0  0  0  0  0  0  0
    8.5694   -0.2556    1.1370 C   0  0  0  0  0  0  0  0  0  0  0  0
   10.4247   -1.3955   -0.7793 C   0  0  0  0  0  0  0  0  0  0  0  0
   10.0235    0.2164    1.0949 C   0  0  0  0  0  0  0  0  0  0  0  0
   10.9446   -0.8715    0.5544 C   0  0  0  0  0  0  0  0  0  0  0  0
    6.7167   -1.1159   -0.1398 C   0  0  0  0  0  0  0  0  0  0  0  0
    5.8074    0.1024   -0.1617 C   0  0  0  0  0  0  0  0  0  0  0  0
   -8.8367   -0.0674   -0.0045 C   0  0  0  0  0  0  0  0  0  0  0  0
   -7.4810   -0.7766   -0.0116 C   0  0  0  0  0  0  0  0  0  0  0  0
  -10.0279   -1.0289    0.0473 C   0  0  0  0  0  0  0  0  0  0  0  0
   -6.3287    0.2309   -0.0316 C   0  0  0  0  0  0  0  0  0  0  0  0
  -11.4130   -0.3757    0.0789 C   0  0  0  0  0  0  0  0  0  0  0  0
   -4.9711   -0.4777   -0.0090 C   0  0  0  0  0  0  0  0  0  0  0  0
  -12.5586   -1.3824    0.1869 C   0  0  0  0  0  0  0  0  0  0  0  0
   -3.8074    0.5051   -0.0549 C   0  0  0  0  0  0  0  0  0  0  0  0
  -13.9033   -0.6813    0.3061 C   0  0  0  0  0  0  0  0  0  0  0  0
    3.4934    0.6452   -0.1473 C   0  0  0  0  0  0  0  0  0  0  0  0
   -1.4299    0.5503   -0.0851 C   0  0  0  0  0  0  0  0  0  0  0  0
    0.9818    0.6895   -0.1180 C   0  0  0  0  0  0  0  0  0  0  0  0
   -0.1836   -0.0762   -0.0833 C   0  0  0  0  0  0  0  0  0  0  0  0
   -1.5107    1.9422   -0.1216 C   0  0  0  0  0  0  0  0  0  0  0  0
    0.9010    2.0815   -0.1545 C   0  0  0  0  0  0  0  0  0  0  0  0
   -0.3453    2.7080   -0.1563 C   0  0  0  0  0  0  0  0  0  0  0  0
  1 12  1  0
  1 22  1  0
  2 20  1  0
  2 23  1  0
  3 22  2  0
  4  6  1  0
  4  7  1  0
  4 11  1  0
  5 22  1  0
  5 24  1  0
  6  8  1  0
  7  9  1  0
  8 10  1  0
  9 10  1  0
 11 12  1  0
 13 14  1  0
 13 15  1  0
 14 16  1  0
 15 17  1  0
 16 18  1  0
 17 19  1  0
 18 20  1  0
 19 21  1  0
 23 25  2  0
 23 26  1  0
 24 25  1  0
 24 27  2  0
 26 28  2  0
 27 28  1  0
M  END
>  <PUBCHEM_COMPOUND_CID>  (1) 
41623

>  <PUBCHEM_CONFORMER_RMSD>  (1) 
1.6

>  <PUBCHEM_CONFORMER_DIVERSEORDER>  (1) 
2
35
49
51
45
1
40
36
25
16
48
7
23
41
28
52
10
50
53
22
43
12
19
54
31
9
29
13
46
11
14
57
34
3
24
39
32
30
17
47
4
33
56
8
27
37
38
21
5
55
15
20
26
42
44
18
6

>  <PUBCHEM_MMFF94_PARTIAL_CHARGES>  (1) 
22
1 -0.43
11 0.27
12 0.28
2 -0.36
20 0.28
22 0.78
23 0.08
24 0.12
25 -0.15
26 -0.15
27 -0.15
28 -0.15
3 -0.57
4 -0.81
5 -0.55
6 0.27
62 0.37
63 0.15
64 0.15
65 0.15
66 0.15
7 0.27

>  <PUBCHEM_EFFECTIVE_ROTOR_COUNT>  (1) 
16.2

>  <PUBCHEM_PHARMACOPHORE_FEATURES>  (1) 
7
1 2 acceptor
1 21 hydrophobe
1 3 acceptor
1 4 cation
1 5 donor
6 23 24 25 26 27 28 rings
6 4 6 7 8 9 10 rings

>  <PUBCHEM_HEAVY_ATOM_COUNT>  (1) 
28

>  <PUBCHEM_ATOM_DEF_STEREO_COUNT>  (1) 
0

>  <PUBCHEM_ATOM_UDEF_STEREO_COUNT>  (1) 
0

>  <PUBCHEM_BOND_DEF_STEREO_COUNT>  (1) 
0

>  <PUBCHEM_BOND_UDEF_STEREO_COUNT>  (1) 
0

>  <PUBCHEM_ISOTOPIC_ATOM_COUNT>  (1) 
0

>  <PUBCHEM_COMPONENT_COUNT>  (1) 
1

>  <PUBCHEM_CACTVS_TAUTO_COUNT>  (1) 
2

>  <PUBCHEM_CONFORMER_ID>  (1) 
0000A29700000002

>  <PUBCHEM_MMFF94_ENERGY>  (1) 
41.1851

>  <PUBCHEM_FEATURE_SELFOVERLAP>  (1) 
35.52

>  <PUBCHEM_SHAPE_FINGERPRINT>  (1) 
10 15 12247680465583964300
106641 1 17489867137982931528
11408170 108 17918000433951238815
11463208 3 18271529673076942430
12498461 61 17775000233684174423
12539745 222 17917434181400088569
12741549 16 17203891864522866313
14251764 46 18410573985151457635
14251920 1 18410573980862025003
14344974 52 11747227869882178453
15061470 23 12391520772571134995
15219723 13 13973693789677691356
15247644 1 18335140886238478259
155225 1 9511461121963405151
16728433 110 18413105086710098561
16992610 120 13623530165384920569
1754911 235 11746939801793208002
20771845 65 18341613745524735361
20812841 46 16773791520561366888
21102433 48 18412259532415005983
21267235 1 18410012122426512820
21792934 111 18342452668606412584
21792961 116 17967531260261954453
232437 2 18410012139748592383
23399689 5 10879991376346589770
23524908 199 12179838378617490024
23581129 1 18409448089539588803
33684 2 18260266352394663527
3991529 128 12895352201204937778
44389302 135 17704075097319199751
57828716 72 15574724625797605710
57828716 8 17385998440104549858
59521099 67 17458349667422920508
59521270 166 17676201357338305007
59584819 99 14907602559725914370
9663363 56 18409446990397213241
9937071 3 18272093794205539846

>  <PUBCHEM_SHAPE_MULTIPOLES>  (1) 
548.66
55.26
1.79
0.76
82.29
0.99
-0.08
-37.02
-7.01
-1.15
0.23
-1.3
-0.07
0.95

>  <PUBCHEM_SHAPE_SELFOVERLAP>  (1) 
1086.612

>  <PUBCHEM_SHAPE_VOLUME>  (1) 
326.3

>  <PUBCHEM_COORDINATE_TYPE>  (1) 
2
5
10

$$$$
