41621
     RDKit          3D

 28 29  0  0  0  0  0  0  0  0999 V2000
   -0.0277    1.3696   -0.3452 O   0  0  0  0  0  0  0  0  0  0  0  0
   -4.0236   -1.0984   -0.8636 O   0  0  0  0  0  0  0  0  0  0  0  0
   -1.3599    3.0414    0.4677 O   0  0  0  0  0  0  0  0  0  0  0  0
    3.5573    2.2649   -0.4223 N   0  0  0  0  0  0  0  0  0  0  0  0
   -2.2443    0.9889   -0.2420 N   0  0  0  0  0  0  0  0  0  0  0  0
    4.6394    1.7799   -1.2904 C   0  0  0  0  0  0  0  0  0  0  0  0
    3.9745    2.2834    0.9867 C   0  0  0  0  0  0  0  0  0  0  0  0
    5.8847    2.6588   -1.1636 C   0  0  0  0  0  0  0  0  0  0  0  0
    5.1981    3.1786    1.1881 C   0  0  0  0  0  0  0  0  0  0  0  0
    6.3505    2.7545    0.2847 C   0  0  0  0  0  0  0  0  0  0  0  0
    2.3592    1.4429   -0.5902 C   0  0  0  0  0  0  0  0  0  0  0  0
    1.1197    2.2038   -0.1475 C   0  0  0  0  0  0  0  0  0  0  0  0
    0.6666   -3.2650    0.3055 C   0  0  0  0  0  0  0  0  0  0  0  0
   -0.7025   -3.8062   -0.1113 C   0  0  0  0  0  0  0  0  0  0  0  0
    1.8094   -4.2603    0.0828 C   0  0  0  0  0  0  0  0  0  0  0  0
   -1.8001   -2.7609    0.1029 C   0  0  0  0  0  0  0  0  0  0  0  0
    3.2090   -3.7663    0.4613 C   0  0  0  0  0  0  0  0  0  0  0  0
   -3.1665   -3.2912   -0.3414 C   0  0  0  0  0  0  0  0  0  0  0  0
    4.3137   -4.7807    0.1647 C   0  0  0  0  0  0  0  0  0  0  0  0
   -4.2803   -2.2766   -0.1132 C   0  0  0  0  0  0  0  0  0  0  0  0
    5.6891   -4.2086    0.4730 C   0  0  0  0  0  0  0  0  0  0  0  0
   -1.2342    1.9130    0.0078 C   0  0  0  0  0  0  0  0  0  0  0  0
   -4.4915    0.0809   -0.3439 C   0  0  0  0  0  0  0  0  0  0  0  0
   -3.6186    1.1232   -0.0315 C   0  0  0  0  0  0  0  0  0  0  0  0
   -5.8615    0.2302   -0.1280 C   0  0  0  0  0  0  0  0  0  0  0  0
   -4.1159    2.3147    0.4966 C   0  0  0  0  0  0  0  0  0  0  0  0
   -6.3587    1.4217    0.4000 C   0  0  0  0  0  0  0  0  0  0  0  0
   -5.4859    2.4639    0.7123 C   0  0  0  0  0  0  0  0  0  0  0  0
  1 12  1  0
  1 22  1  0
  2 20  1  0
  2 23  1  0
  3 22  2  0
  4  6  1  0
  4  7  1  0
  4 11  1  0
  5 22  1  0
  5 24  1  0
  6  8  1  0
  7  9  1  0
  8 10  1  0
  9 10  1  0
 11 12  1  0
 13 14  1  0
 13 15  1  0
 14 16  1  0
 15 17  1  0
 16 18  1  0
 17 19  1  0
 18 20  1  0
 19 21  1  0
 23 24  2  0
 23 25  1  0
 24 26  1  0
 25 27  2  0
 26 28  2  0
 27 28  1  0
M  END
>  <PUBCHEM_COMPOUND_CID>  (1) 
41621

>  <PUBCHEM_CONFORMER_RMSD>  (1) 
1.4

>  <PUBCHEM_CONFORMER_DIVERSEORDER>  (1) 
1
56
81
63
40
75
18
64
52
31
62
61
68
5
49
21
58
60
48
39
7
6
47
65
10
25
42
33
54
85
23
3
84
30
35
36
20
38
72
50
80
70
59
53
55
8
27
67
22
66
74
71
46
12
82
57
11
45
73
13
83
26
43
2
41
76
24
34
28
15
32
79
44
37
29
14
4
78
77
51
17
19
9
16
69

>  <PUBCHEM_MMFF94_PARTIAL_CHARGES>  (1) 
22
1 -0.43
11 0.27
12 0.28
2 -0.36
20 0.28
22 0.78
23 0.08
24 0.12
25 -0.15
26 -0.15
27 -0.15
28 -0.15
3 -0.57
4 -0.81
5 -0.55
6 0.27
62 0.37
63 0.15
64 0.15
65 0.15
66 0.15
7 0.27

>  <PUBCHEM_EFFECTIVE_ROTOR_COUNT>  (1) 
16.2

>  <PUBCHEM_PHARMACOPHORE_FEATURES>  (1) 
7
1 2 acceptor
1 21 hydrophobe
1 3 acceptor
1 4 cation
1 5 donor
6 23 24 25 26 27 28 rings
6 4 6 7 8 9 10 rings

>  <PUBCHEM_HEAVY_ATOM_COUNT>  (1) 
28

>  <PUBCHEM_ATOM_DEF_STEREO_COUNT>  (1) 
0

>  <PUBCHEM_ATOM_UDEF_STEREO_COUNT>  (1) 
0

>  <PUBCHEM_BOND_DEF_STEREO_COUNT>  (1) 
0

>  <PUBCHEM_BOND_UDEF_STEREO_COUNT>  (1) 
0

>  <PUBCHEM_ISOTOPIC_ATOM_COUNT>  (1) 
0

>  <PUBCHEM_COMPONENT_COUNT>  (1) 
1

>  <PUBCHEM_CACTVS_TAUTO_COUNT>  (1) 
2

>  <PUBCHEM_CONFORMER_ID>  (1) 
0000A29500000001

>  <PUBCHEM_MMFF94_ENERGY>  (1) 
42.0251

>  <PUBCHEM_FEATURE_SELFOVERLAP>  (1) 
35.52

>  <PUBCHEM_SHAPE_FINGERPRINT>  (1) 
10049733 162 17831873708974424404
1100329 8 18266180530888490815
11135926 11 18408597084772580157
11200772 71 17466239938899269484
11513181 2 18272650185855008462
14251757 5 17614572857594029214
14659021 117 17552905635226771455
15001296 14 18334573512415331898
15927050 60 18340487858486307982
16719943 64 18120372313970089570
17627616 140 18409729573344085202
18336668 15 17825397275584800039
18738133 686 18264745750251055066
20609170 92 18114730587523478007
20771845 165 17969488335130440893
21057603 95 18052823538451842273
21344244 246 18337379522952691447
21360443 120 18335145327133324781
21796203 349 17474712392475231970
23516275 137 18189354427998185888
23559900 14 18050556344978833457
3383291 50 18123469651384951011
373842 8 18408882953543506754
4073 2 18270122451904531500
5265222 85 18048045352035943316
57676310 188 18335708260724586838
9961470 85 18411130316718862955

>  <PUBCHEM_SHAPE_MULTIPOLES>  (1) 
548.66
16.58
7.86
0.92
1.75
9.72
0.03
-9.3
-0.79
11.65
-1.05
0.84
-0.52
-1.76

>  <PUBCHEM_SHAPE_SELFOVERLAP>  (1) 
1087.314

>  <PUBCHEM_SHAPE_VOLUME>  (1) 
325.9

>  <PUBCHEM_COORDINATE_TYPE>  (1) 
2
5
10

$$$$
