41639
     RDKit          3D

 23 24  0  0  0  0  0  0  0  0999 V2000
   -0.9497   -2.6582   -0.1752 Cl  0  0  0  0  0  0  0  0  0  0  0  0
   -1.0546    2.2266   -0.7748 O   0  0  0  0  0  0  0  0  0  0  0  0
    2.0396   -2.2598   -0.4020 O   0  0  0  0  0  0  0  0  0  0  0  0
   -4.1087   -0.1746    0.8191 O   0  0  0  0  0  0  0  0  0  0  0  0
   -3.7003   -1.4518   -1.0521 O   0  0  0  0  0  0  0  0  0  0  0  0
    4.0738    0.0349    0.5214 N   0  0  0  0  0  0  0  0  0  0  0  0
    3.4296    0.1674   -0.7846 C   0  0  0  0  0  0  0  0  0  0  0  0
    1.9382    0.1060   -0.6890 C   0  0  0  0  0  0  0  0  0  0  0  0
   -0.8507   -0.0078   -0.5095 C   0  0  0  0  0  0  0  0  0  0  0  0
   -0.1714    1.1914   -0.6987 C   0  0  0  0  0  0  0  0  0  0  0  0
    3.6447    1.1105    1.4146 C   0  0  0  0  0  0  0  0  0  0  0  0
    5.5291    0.0407    0.3765 C   0  0  0  0  0  0  0  0  0  0  0  0
    1.2150    1.2978   -0.7936 C   0  0  0  0  0  0  0  0  0  0  0  0
    1.2932   -1.1189   -0.4992 C   0  0  0  0  0  0  0  0  0  0  0  0
   -2.2289    0.3316   -0.4695 C   0  0  0  0  0  0  0  0  0  0  0  0
   -0.1033   -1.1940   -0.4069 C   0  0  0  0  0  0  0  0  0  0  0  0
   -2.2972    1.6957   -0.6346 C   0  0  0  0  0  0  0  0  0  0  0  0
    4.3049    0.9885    2.7776 C   0  0  0  0  0  0  0  0  0  0  0  0
    5.9982   -1.1084   -0.4997 C   0  0  0  0  0  0  0  0  0  0  0  0
   -3.3772   -0.5116   -0.2959 C   0  0  0  0  0  0  0  0  0  0  0  0
   -3.4128    2.6534   -0.6863 C   0  0  0  0  0  0  0  0  0  0  0  0
   -5.2809   -0.9465    1.1017 C   0  0  0  0  0  0  0  0  0  0  0  0
   -5.9308   -0.4131    2.3606 C   0  0  0  0  0  0  0  0  0  0  0  0
  1 16  1  0
  2 10  1  0
  2 17  1  0
  3 14  1  0
  4 20  1  0
  4 22  1  0
  5 20  2  0
  6  7  1  0
  6 11  1  0
  6 12  1  0
  7  8  1  0
  8 13  2  0
  8 14  1  0
  9 10  2  0
  9 15  1  0
  9 16  1  0
 10 13  1  0
 11 18  1  0
 12 19  1  0
 14 16  2  0
 15 17  2  0
 15 20  1  0
 17 21  1  0
 22 23  1  0
M  END
>  <PUBCHEM_COMPOUND_CID>  (1) 
41639

>  <PUBCHEM_CONFORMER_RMSD>  (1) 
0.8

>  <PUBCHEM_CONFORMER_DIVERSEORDER>  (1) 
1
37
12
33
5
19
46
24
42
27
21
41
40
38
16
30
26
3
44
31
36
39
29
28
45
23
20
43
25
9
13
11
35
34
8
22
10
6
32
4
18
17
14
15
2
7

>  <PUBCHEM_MMFF94_PARTIAL_CHARGES>  (1) 
21
1 -0.18
10 0.14
11 0.27
12 0.27
13 -0.15
14 0.08
15 -0.09
16 0.18
17 -0.04
2 -0.28
20 0.81
21 0.18
22 0.28
3 -0.53
30 0.15
4 -0.43
40 0.45
5 -0.57
6 -0.81
7 0.41
8 -0.14

>  <PUBCHEM_EFFECTIVE_ROTOR_COUNT>  (1) 
7

>  <PUBCHEM_PHARMACOPHORE_FEATURES>  (1) 
6
1 2 acceptor
1 3 donor
1 5 acceptor
1 6 cation
5 2 9 10 15 17 rings
6 8 9 10 13 14 16 rings

>  <PUBCHEM_HEAVY_ATOM_COUNT>  (1) 
23

>  <PUBCHEM_ATOM_DEF_STEREO_COUNT>  (1) 
0

>  <PUBCHEM_ATOM_UDEF_STEREO_COUNT>  (1) 
0

>  <PUBCHEM_BOND_DEF_STEREO_COUNT>  (1) 
0

>  <PUBCHEM_BOND_UDEF_STEREO_COUNT>  (1) 
0

>  <PUBCHEM_ISOTOPIC_ATOM_COUNT>  (1) 
0

>  <PUBCHEM_COMPONENT_COUNT>  (1) 
1

>  <PUBCHEM_CACTVS_TAUTO_COUNT>  (1) 
3

>  <PUBCHEM_CONFORMER_ID>  (1) 
0000A2A700000001

>  <PUBCHEM_MMFF94_ENERGY>  (1) 
44.6172

>  <PUBCHEM_FEATURE_SELFOVERLAP>  (1) 
30.548

>  <PUBCHEM_SHAPE_FINGERPRINT>  (1) 
11132069 177 18342173397221601231
11545043 162 18340199705341548720
11796584 16 16226044505347473755
12236239 1 17240202119327452220
12403259 415 18272644645821280328
12422481 6 18412271661628671915
12553582 1 18336272339911450885
12596602 18 17095240328615114344
12633257 1 18127391553146579360
13140716 1 18120097440062466951
13540713 4 18193281784727228279
13862211 1 18334861662230104479
14178342 30 18190184494652511077
15042514 8 18263648531629684759
15099037 37 18186516588291839637
15196674 1 18336825278385964254
15209294 21 17918280865645807347
15295992 7 17489018370888349498
15475509 35 16588303959830778377
16945 1 18336548312692144543
17138139 8 16154558755744481890
17349148 13 17967247615651461206
19784866 240 15646770089644972577
200 152 14201114608979481412
20028762 73 18267872864125987679
20261772 1 18409451422466144878
20645477 70 13768192884196579944
21033648 29 18271229561265852248
21069387 34 14201396071287678281
21150785 3 13407084729471546658
21267235 1 18260278438395919390
21637258 2 15647328706076716515
22122407 14 16056329413384944411
22182313 1 18337674096856526855
23402539 116 18410565202048995439
23557571 272 18411704257414298164
23559900 14 18192427459839437182
23569914 2 15838699632461791265
23845131 108 17477781082595853017
2748010 2 18264769848584110495
2838139 119 15267064718576408449
33382 64 15502376751039667641
392239 28 18060131055035907176
465052 167 17603877735712061602
5104073 3 18264489477324317570
57724786 102 16987990726342594504
59755656 215 18337106778563032959

>  <PUBCHEM_SHAPE_MULTIPOLES>  (1) 
446.74
12.27
2.3
1.66
2.08
0.03
1.61
-1.67
6.8
-1.34
-0.6
0.01
0.37
1.73

>  <PUBCHEM_SHAPE_SELFOVERLAP>  (1) 
931.224

>  <PUBCHEM_SHAPE_VOLUME>  (1) 
257.6

>  <PUBCHEM_COORDINATE_TYPE>  (1) 
2
5
10

$$$$
