41633
     RDKit          3D

 19 20  0  0  0  0  0  0  0  0999 V2000
   -3.8866   -1.1975    1.0445 O   0  0  0  0  0  0  0  0  0  0  0  0
    2.1924   -1.4660   -0.4064 O   0  0  0  0  0  0  0  0  0  0  0  0
   -3.8700    0.9332   -0.1384 C   0  0  0  0  0  0  0  0  0  0  0  0
   -3.2401   -0.3584    0.4185 C   0  0  0  0  0  0  0  0  0  0  0  0
   -2.8780    1.8229   -0.9023 C   0  0  0  0  0  0  0  0  0  0  0  0
   -4.4044    1.7419    1.0602 C   0  0  0  0  0  0  0  0  0  0  0  0
   -5.0472    0.5583   -1.0481 C   0  0  0  0  0  0  0  0  0  0  0  0
   -1.8110   -0.6491    0.2005 C   0  0  0  0  0  0  0  0  0  0  0  0
   -0.8816   -0.2066    1.1268 C   0  0  0  0  0  0  0  0  0  0  0  0
   -1.4275   -1.3592   -0.9251 C   0  0  0  0  0  0  0  0  0  0  0  0
    0.4705   -0.4818    0.9215 C   0  0  0  0  0  0  0  0  0  0  0  0
   -0.0755   -1.6345   -1.1302 C   0  0  0  0  0  0  0  0  0  0  0  0
    0.8734   -1.1958   -0.2069 C   0  0  0  0  0  0  0  0  0  0  0  0
    3.0980   -0.4382   -0.2033 C   0  0  0  0  0  0  0  0  0  0  0  0
    2.8201    0.8158   -0.7165 C   0  0  0  0  0  0  0  0  0  0  0  0
    4.2574   -0.6924    0.5067 C   0  0  0  0  0  0  0  0  0  0  0  0
    3.7327    1.8508   -0.5128 C   0  0  0  0  0  0  0  0  0  0  0  0
    5.1700    0.3425    0.7105 C   0  0  0  0  0  0  0  0  0  0  0  0
    4.9076    1.6141    0.2008 C   0  0  0  0  0  0  0  0  0  0  0  0
  1  4  2  0
  2 13  1  0
  2 14  1  0
  3  4  1  0
  3  5  1  0
  3  6  1  0
  3  7  1  0
  4  8  1  0
  8  9  2  0
  8 10  1  0
  9 11  1  0
 10 12  2  0
 11 13  2  0
 12 13  1  0
 14 15  2  0
 14 16  1  0
 15 17  1  0
 16 18  2  0
 17 19  2  0
 18 19  1  0
M  END
>  <PUBCHEM_COMPOUND_CID>  (1) 
41633

>  <PUBCHEM_CONFORMER_RMSD>  (1) 
0.6

>  <PUBCHEM_CONFORMER_DIVERSEORDER>  (1) 
1
3
13
17
8
18
10
16
4
2
14
12
15
7
9
6
11
5

>  <PUBCHEM_MMFF94_PARTIAL_CHARGES>  (1) 
25
1 -0.57
10 -0.15
11 -0.15
12 -0.15
13 0.08
14 0.08
15 -0.15
16 -0.15
17 -0.15
18 -0.15
19 -0.15
2 -0.17
29 0.15
3 0.06
30 0.15
31 0.15
32 0.15
33 0.15
34 0.15
35 0.15
36 0.15
37 0.15
4 0.42
8 0.09
9 -0.15

>  <PUBCHEM_EFFECTIVE_ROTOR_COUNT>  (1) 
4

>  <PUBCHEM_PHARMACOPHORE_FEATURES>  (1) 
5
1 1 acceptor
1 2 acceptor
4 3 5 6 7 hydrophobe
6 14 15 16 17 18 19 rings
6 8 9 10 11 12 13 rings

>  <PUBCHEM_HEAVY_ATOM_COUNT>  (1) 
19

>  <PUBCHEM_ATOM_DEF_STEREO_COUNT>  (1) 
0

>  <PUBCHEM_ATOM_UDEF_STEREO_COUNT>  (1) 
0

>  <PUBCHEM_BOND_DEF_STEREO_COUNT>  (1) 
0

>  <PUBCHEM_BOND_UDEF_STEREO_COUNT>  (1) 
0

>  <PUBCHEM_ISOTOPIC_ATOM_COUNT>  (1) 
0

>  <PUBCHEM_COMPONENT_COUNT>  (1) 
1

>  <PUBCHEM_CACTVS_TAUTO_COUNT>  (1) 
1

>  <PUBCHEM_CONFORMER_ID>  (1) 
0000A2A100000001

>  <PUBCHEM_MMFF94_ENERGY>  (1) 
71.4731

>  <PUBCHEM_FEATURE_SELFOVERLAP>  (1) 
25.371

>  <PUBCHEM_SHAPE_FINGERPRINT>  (1) 
10498660 4 17632580495846047194
10646746 165 18186522072896257916
11089746 13 17676475130172511919
11128504 68 15769773580678342784
11132069 177 17603308133239219447
12403259 118 18336261327256672400
12403814 3 18339644542031875231
12507557 5 18040434408252538285
12553582 1 11819273395156930946
12596602 18 14707217629676279100
12633257 1 16298385807676494852
12670546 177 16845564348833739389
12670546 56 17894904118393619699
12892183 10 17748829630814831850
13103583 49 12468644868090522845
13544653 18 9367339340769702617
13583140 156 18186521007712967107
13675066 3 18407762551563535170
14123255 352 18408601483030139540
14178342 30 16153439345786625651
14251764 38 18334579023022325252
14252887 29 12901543534148553786
14576447 43 9655582916078698908
15188451 53 15430327987654928089
15209294 21 17095239190195241867
15238133 3 17821734940376810620
15239154 128 18412267246017059112
15880784 105 13335030407898089596
1813 80 8502372282199145962
18186145 218 18339938003824634471
18222031 100 13912610497514293987
193927 3 7925637738831463352
20281475 54 9583527511915085286
20645477 56 18113904819071533219
20715895 44 18196652895731066513
20871999 31 17203036482750905159
21503847 285 18040716970351619580
22646028 28 8430323437220102316
22950370 63 7997966890376062910
23227448 37 18341049738923703262
23402539 116 18041272248987268903
235170 7 14476964449801064160
23557571 272 18191331367127123183
23559900 14 18268151968127471250
2838139 119 18336254670226649685
2871803 45 11671782659065647220
3323516 105 10879990250858819068
33382 64 10663816412257076541
351380 180 18187361021516435532
351380 3 8214141862923583448
4175511 318 18060137669396221543
4259306 186 9799689281426793096
46194498 28 14117216395897447633
465052 167 11314318225750543497
474 4 18260548948231250944
4921388 177 14764341686823676949
5104073 3 18261115166306612770
633830 44 17702397160458767663
76465 3 11170209691190945761
7970288 3 11097851908724834592

>  <PUBCHEM_SHAPE_MULTIPOLES>  (1) 
379.27
11.48
1.93
1.15
2.66
0.43
0.03
5.71
0.89
-0.03
-0.31
-0.66
-0.01
-0.06

>  <PUBCHEM_SHAPE_SELFOVERLAP>  (1) 
810.154

>  <PUBCHEM_SHAPE_VOLUME>  (1) 
212

>  <PUBCHEM_COORDINATE_TYPE>  (1) 
2
5
10

$$$$
