41638
     RDKit          3D

 11 10  0  0  1  0  0  0  0  0999 V2000
   -2.3961    1.9472    0.1122 O   0  0  0  0  0  0  0  0  0  0  0  0
   -0.6360   -0.0404   -1.5163 O   0  0  0  0  0  0  0  0  0  0  0  0
    1.6960   -0.8095   -0.2269 N   0  0  0  0  0  0  0  0  0  0  0  0
    0.4630   -0.7539    0.4018 N   0  0  0  0  0  0  0  0  0  0  0  0
   -2.4653   -1.7246    0.3994 N   0  0  0  0  0  0  0  0  0  0  0  0
    2.6449    0.0647    0.4492 C   0  0  0  0  0  0  0  0  0  0  0  0
   -1.9209   -0.3735    0.5115 C   0  0  0  0  0  0  0  0  0  0  0  0
   -0.6470   -0.3568   -0.3280 C   0  0  0  0  0  0  0  0  0  0  0  0
    2.1819    1.5161    0.3623 C   0  0  0  0  0  0  0  0  0  0  0  0
    4.0268   -0.1079   -0.1731 C   0  0  0  0  0  0  0  0  0  0  0  0
   -2.9473    0.6387    0.0079 C   0  0  0  0  0  0  0  0  0  0  0  0
  1 11  1  0
  2  8  2  0
  3  4  1  0
  3  6  1  0
  4  8  1  0
  5  7  1  0
  6  9  1  0
  6 10  1  0
  7  8  1  0
  7 11  1  0
M  END
>  <PUBCHEM_COMPOUND_CID>  (1) 
41638

>  <PUBCHEM_CONFORMER_RMSD>  (1) 
0.6

>  <PUBCHEM_CONFORMER_DIVERSEORDER>  (1) 
2
92
74
87
102
21
15
98
90
79
17
96
31
47
53
95
72
49
101
86
84
42
77
57
70
48
46
75
18
22
67
23
99
61
54
14
43
73
65
81
88
94
11
76
59
33
103
66
56
20
28
51
100
97
30
8
60
3
91
44
24
9
7
1
63
35
78
41
89
45
69
25
19
50
29
6
82
55
68
58
40
12
36
80
93
5
32
27
4
38
16
83
34
39
62
26
37
71
10
64
52
13
85

>  <PUBCHEM_MMFF94_PARTIAL_CHARGES>  (1) 
14
1 -0.68
11 0.28
14 0.36
2 -0.57
21 0.37
24 0.36
25 0.36
26 0.4
3 -0.64
4 -0.42
5 -0.99
6 0.27
7 0.33
8 0.57

>  <PUBCHEM_EFFECTIVE_ROTOR_COUNT>  (1) 
5

>  <PUBCHEM_PHARMACOPHORE_FEATURES>  (1) 
8
1 1 acceptor
1 1 donor
1 2 acceptor
1 3 donor
1 4 donor
1 5 cation
1 5 donor
3 6 9 10 hydrophobe

>  <PUBCHEM_HEAVY_ATOM_COUNT>  (1) 
11

>  <PUBCHEM_ATOM_DEF_STEREO_COUNT>  (1) 
0

>  <PUBCHEM_ATOM_UDEF_STEREO_COUNT>  (1) 
1

>  <PUBCHEM_BOND_DEF_STEREO_COUNT>  (1) 
0

>  <PUBCHEM_BOND_UDEF_STEREO_COUNT>  (1) 
0

>  <PUBCHEM_ISOTOPIC_ATOM_COUNT>  (1) 
0

>  <PUBCHEM_COMPONENT_COUNT>  (1) 
1

>  <PUBCHEM_CACTVS_TAUTO_COUNT>  (1) 
2

>  <PUBCHEM_CONFORMER_ID>  (1) 
0000A2A600000002

>  <PUBCHEM_MMFF94_ENERGY>  (1) 
4.6203

>  <PUBCHEM_FEATURE_SELFOVERLAP>  (1) 
42.088

>  <PUBCHEM_SHAPE_FINGERPRINT>  (1) 
10857977 72 17168142385710099243
11062470 55 12324231784945408058
12932764 1 17489302044608720970
14325111 11 18410293644425992842
14390081 3 18413105043886538921
15775835 57 17748824090290994466
19973954 147 18410857697843371240
20645464 45 18409733928440663495
21028194 46 18131353046206845738
21293036 1 15769484383260645977
23402539 116 18342450444603916391
3248919 1 18336816550643159774
6333449 129 18408321086274647943

>  <PUBCHEM_SHAPE_MULTIPOLES>  (1) 
199.69
5.94
1.49
0.85
3.07
0.45
-0.22
0.62
0.4
-0.83
0.19
-0.09
-0.04
0.28

>  <PUBCHEM_SHAPE_SELFOVERLAP>  (1) 
370.112

>  <PUBCHEM_SHAPE_VOLUME>  (1) 
126

>  <PUBCHEM_COORDINATE_TYPE>  (1) 
2
5
10

$$$$
