41649
     RDKit          3D

 26 28  0  0  0  0  0  0  0  0999 V2000
    1.1627   -3.1006   -0.6446 Cl  0  0  0  0  0  0  0  0  0  0  0  0
   -0.2442    1.5984   -0.2283 O   0  0  0  0  0  0  0  0  0  0  0  0
    3.9342   -1.8910   -0.6847 O   0  0  0  0  0  0  0  0  0  0  0  0
   -2.0023   -2.2039    0.8491 O   0  0  0  0  0  0  0  0  0  0  0  0
   -2.2316   -2.1890   -1.4413 O   0  0  0  0  0  0  0  0  0  0  0  0
    5.2118    0.9147    0.8238 N   0  0  0  0  0  0  0  0  0  0  0  0
    0.5493   -0.5079   -0.4225 C   0  0  0  0  0  0  0  0  0  0  0  0
    0.8828    0.8400   -0.3377 C   0  0  0  0  0  0  0  0  0  0  0  0
    3.2041    0.3708   -0.4815 C   0  0  0  0  0  0  0  0  0  0  0  0
   -0.8683   -0.5595   -0.3593 C   0  0  0  0  0  0  0  0  0  0  0  0
    4.6234    0.8413   -0.5129 C   0  0  0  0  0  0  0  0  0  0  0  0
   -1.2987    0.7419   -0.2422 C   0  0  0  0  0  0  0  0  0  0  0  0
    2.1892    1.3250   -0.3625 C   0  0  0  0  0  0  0  0  0  0  0  0
    1.5859   -1.4501   -0.5414 C   0  0  0  0  0  0  0  0  0  0  0  0
    2.9105   -0.9924   -0.5696 C   0  0  0  0  0  0  0  0  0  0  0  0
   -2.5877    1.3686   -0.1347 C   0  0  0  0  0  0  0  0  0  0  0  0
   -1.7448   -1.6960   -0.4025 C   0  0  0  0  0  0  0  0  0  0  0  0
    4.4577    1.8444    1.6640 C   0  0  0  0  0  0  0  0  0  0  0  0
    6.6144    1.3209    0.7435 C   0  0  0  0  0  0  0  0  0  0  0  0
   -3.7066    0.7817   -0.7319 C   0  0  0  0  0  0  0  0  0  0  0  0
   -2.7295    2.5686    0.5678 C   0  0  0  0  0  0  0  0  0  0  0  0
   -4.9577    1.3897   -0.6273 C   0  0  0  0  0  0  0  0  0  0  0  0
   -3.9806    3.1765    0.6724 C   0  0  0  0  0  0  0  0  0  0  0  0
   -5.0947    2.5872    0.0749 C   0  0  0  0  0  0  0  0  0  0  0  0
   -2.8653   -3.3427    0.9377 C   0  0  0  0  0  0  0  0  0  0  0  0
   -3.0142   -3.7366    2.3918 C   0  0  0  0  0  0  0  0  0  0  0  0
  1 14  1  0
  2  8  1  0
  2 12  1  0
  3 15  1  0
  4 17  1  0
  4 25  1  0
  5 17  2  0
  6 11  1  0
  6 18  1  0
  6 19  1  0
  7  8  2  0
  7 10  1  0
  7 14  1  0
  8 13  1  0
  9 11  1  0
  9 13  2  0
  9 15  1  0
 10 12  2  0
 10 17  1  0
 12 16  1  0
 14 15  2  0
 16 20  2  0
 16 21  1  0
 20 22  1  0
 21 23  2  0
 22 24  2  0
 23 24  1  0
 25 26  1  0
M  END
>  <PUBCHEM_COMPOUND_CID>  (1) 
41649

>  <PUBCHEM_CONFORMER_RMSD>  (1) 
0.8

>  <PUBCHEM_CONFORMER_DIVERSEORDER>  (1) 
1
13
9
8
11
3
2
14
12
5
4
15
7
10
6

>  <PUBCHEM_MMFF94_PARTIAL_CHARGES>  (1) 
31
1 -0.18
10 -0.09
11 0.41
12 0.09
13 -0.15
14 0.18
15 0.08
16 0.05
17 0.81
18 0.27
19 0.27
2 -0.28
20 -0.15
21 -0.15
22 -0.15
23 -0.15
24 -0.15
25 0.28
29 0.15
3 -0.53
36 0.15
37 0.15
38 0.45
39 0.15
4 -0.43
40 0.15
41 0.15
5 -0.57
6 -0.81
8 0.14
9 -0.14

>  <PUBCHEM_EFFECTIVE_ROTOR_COUNT>  (1) 
6

>  <PUBCHEM_PHARMACOPHORE_FEATURES>  (1) 
7
1 2 acceptor
1 3 donor
1 5 acceptor
1 6 cation
5 2 7 8 10 12 rings
6 16 20 21 22 23 24 rings
6 7 8 9 13 14 15 rings

>  <PUBCHEM_HEAVY_ATOM_COUNT>  (1) 
26

>  <PUBCHEM_ATOM_DEF_STEREO_COUNT>  (1) 
0

>  <PUBCHEM_ATOM_UDEF_STEREO_COUNT>  (1) 
0

>  <PUBCHEM_BOND_DEF_STEREO_COUNT>  (1) 
0

>  <PUBCHEM_BOND_UDEF_STEREO_COUNT>  (1) 
0

>  <PUBCHEM_ISOTOPIC_ATOM_COUNT>  (1) 
0

>  <PUBCHEM_COMPONENT_COUNT>  (1) 
1

>  <PUBCHEM_CACTVS_TAUTO_COUNT>  (1) 
3

>  <PUBCHEM_CONFORMER_ID>  (1) 
0000A2B100000001

>  <PUBCHEM_MMFF94_ENERGY>  (1) 
72.0481

>  <PUBCHEM_FEATURE_SELFOVERLAP>  (1) 
35.623

>  <PUBCHEM_SHAPE_FINGERPRINT>  (1) 
10319926 262 18339910585749955938
10411042 1 17693367150580574527
1100329 8 17973726866129169123
11578080 2 17059196207195069251
12236239 1 17845367753052249637
12403259 415 18191866721399158132
12553582 1 17907590472607586262
12788726 201 17826246373338791738
12930653 34 18411421738966568030
13140716 1 18338515236432426534
13540713 4 18270697410660171014
13583140 156 17917428774230927672
14178342 30 18333734641141345758
14790565 3 18055919796858747089
14844126 61 18264485268473184443
15196674 1 18342456985127231061
16087824 20 18272644685346333943
17980427 23 17968376861881276980
19246450 95 17322077076612451480
20642791 13 18409450319208449007
21033648 144 18337100173092930796
21033648 29 17969217833214961445
21049683 118 18262784165339887073
22182313 1 18128840644926172286
23558518 356 17897733303551407432
23559900 14 17985545546728058990
24893989 43 12991450599568093321
335352 9 18268713797299637590
34797466 226 16774076262959176173
34934 24 18413101745578476588
376196 1 18054786191980535589
4073 2 18408323302984207554
4340502 62 18411702045564338085
474 4 18409732837519379732
5104073 3 18338801113096111779
633830 44 18054226523571987325
7288768 16 18335699399995915541
9709674 26 18341619200121716751
9981440 41 18342450443902803035

>  <PUBCHEM_SHAPE_MULTIPOLES>  (1) 
508.48
11.48
4.28
1.28
10.05
3.11
-0.64
-8.53
-2.62
-5.25
-1.82
-0.2
0.85
2.2

>  <PUBCHEM_SHAPE_SELFOVERLAP>  (1) 
1096.02

>  <PUBCHEM_SHAPE_VOLUME>  (1) 
283.6

>  <PUBCHEM_COORDINATE_TYPE>  (1) 
2
5
10

$$$$
