41647
     RDKit          3D

 13 13  0  0  0  0  0  0  0  0999 V2000
    3.9398    0.8153    0.9698 Cl  0  0  0  0  0  0  0  0  0  0  0  0
   -1.1917    2.0210   -0.5485 O   0  0  0  0  0  0  0  0  0  0  0  0
    2.1488   -1.7963   -0.0341 O   0  0  0  0  0  0  0  0  0  0  0  0
    0.9268    0.1887   -0.3573 N   0  0  0  0  0  0  0  0  0  0  0  0
   -0.3970   -0.2086   -0.1551 C   0  0  0  0  0  0  0  0  0  0  0  0
   -1.4392    0.7130   -0.2543 C   0  0  0  0  0  0  0  0  0  0  0  0
   -0.6717   -1.5422    0.1478 C   0  0  0  0  0  0  0  0  0  0  0  0
   -2.7562    0.3011   -0.0506 C   0  0  0  0  0  0  0  0  0  0  0  0
   -1.9887   -1.9541    0.3516 C   0  0  0  0  0  0  0  0  0  0  0  0
   -3.0309   -1.0325    0.2525 C   0  0  0  0  0  0  0  0  0  0  0  0
    2.0839   -0.5984   -0.2973 C   0  0  0  0  0  0  0  0  0  0  0  0
    3.3399    0.1932   -0.5755 C   0  0  0  0  0  0  0  0  0  0  0  0
   -0.9640    2.8998    0.5509 C   0  0  0  0  0  0  0  0  0  0  0  0
  1 12  1  0
  2  6  1  0
  2 13  1  0
  3 11  2  0
  4  5  1  0
  4 11  1  0
  5  6  2  0
  5  7  1  0
  6  8  1  0
  7  9  2  0
  8 10  2  0
  9 10  1  0
 11 12  1  0
M  END
>  <PUBCHEM_COMPOUND_CID>  (1) 
41647

>  <PUBCHEM_CONFORMER_RMSD>  (1) 
0.6

>  <PUBCHEM_CONFORMER_DIVERSEORDER>  (1) 
2
18
10
9
16
6
11
5
14
12
17
1
8
7
4
19
13
3
15

>  <PUBCHEM_MMFF94_PARTIAL_CHARGES>  (1) 
18
1 -0.29
10 -0.15
11 0.57
12 0.35
13 0.28
14 0.15
15 0.37
16 0.15
17 0.15
18 0.15
2 -0.36
3 -0.57
4 -0.55
5 0.12
6 0.08
7 -0.15
8 -0.15
9 -0.15

>  <PUBCHEM_EFFECTIVE_ROTOR_COUNT>  (1) 
4

>  <PUBCHEM_PHARMACOPHORE_FEATURES>  (1) 
4
1 2 acceptor
1 3 acceptor
1 4 donor
6 5 6 7 8 9 10 rings

>  <PUBCHEM_HEAVY_ATOM_COUNT>  (1) 
13

>  <PUBCHEM_ATOM_DEF_STEREO_COUNT>  (1) 
0

>  <PUBCHEM_ATOM_UDEF_STEREO_COUNT>  (1) 
0

>  <PUBCHEM_BOND_DEF_STEREO_COUNT>  (1) 
0

>  <PUBCHEM_BOND_UDEF_STEREO_COUNT>  (1) 
0

>  <PUBCHEM_ISOTOPIC_ATOM_COUNT>  (1) 
0

>  <PUBCHEM_COMPONENT_COUNT>  (1) 
1

>  <PUBCHEM_CACTVS_TAUTO_COUNT>  (1) 
2

>  <PUBCHEM_CONFORMER_ID>  (1) 
0000A2AF00000002

>  <PUBCHEM_MMFF94_ENERGY>  (1) 
45.6422

>  <PUBCHEM_FEATURE_SELFOVERLAP>  (1) 
20.297

>  <PUBCHEM_SHAPE_FINGERPRINT>  (1) 
10608611 8 18341328903672218948
11132069 177 18411982493911658354
12382932 28 18337956791319229354
12932764 1 17774997982007675422
13024252 1 17676489458283780839
14614273 12 18042115475626579509
16945 1 18335427871604410167
17846911 113 18410288120749851553
19049666 15 18127976313059720222
193761 8 17688594858141387927
19973954 147 18339365141413371492
20510252 161 18340488872256364657
20528008 55 18412821399808931911
20871998 184 18343026609612999591
21029758 11 18341045324419983165
21061003 4 18198348544402675729
21501502 16 18265901254750036142
21524375 3 17550385138012034357
2297311 6 18340220673503425524
23402539 116 18340475755278673071
23557571 272 18341628026305643382
23559900 14 18411134706750185918
2748010 2 18119253861187982679
3312278 4 18261399974199329043
6333449 129 18411135848488845567
7364860 26 17764596803888000065
81228 2 18335717008876759785

>  <PUBCHEM_SHAPE_MULTIPOLES>  (1) 
252.68
5.64
2.44
0.79
4.91
1.43
0.07
-0.5
0.81
-1.19
0.33
0.34
0.12
0.45

>  <PUBCHEM_SHAPE_SELFOVERLAP>  (1) 
507.865

>  <PUBCHEM_SHAPE_VOLUME>  (1) 
148.9

>  <PUBCHEM_COORDINATE_TYPE>  (1) 
2
5
10

$$$$
