4164
     RDKit          3D

 19 21  0  0  0  0  0  0  0  0999 V2000
   -1.6813    2.1474   -0.1366 S   0  0  0  0  0  0  0  0  0  0  0  0
    5.7061   -1.1913    0.5518 O   0  0  0  0  0  0  0  0  0  0  0  0
    3.9041   -0.5631    1.7816 O   0  0  0  0  0  0  0  0  0  0  0  0
   -1.0324   -0.8419   -0.6916 N   0  0  0  0  0  0  0  0  0  0  0  0
    0.0885    0.0159   -0.5566 C   0  0  0  0  0  0  0  0  0  0  0  0
   -2.3270   -0.5790   -0.1767 C   0  0  0  0  0  0  0  0  0  0  0  0
   -0.0761    1.3878   -0.2807 C   0  0  0  0  0  0  0  0  0  0  0  0
   -2.7309    0.7339    0.1369 C   0  0  0  0  0  0  0  0  0  0  0  0
    1.4131   -0.4634   -0.6551 C   0  0  0  0  0  0  0  0  0  0  0  0
    2.5182    0.3797   -0.5099 C   0  0  0  0  0  0  0  0  0  0  0  0
    1.0393    2.2327   -0.1405 C   0  0  0  0  0  0  0  0  0  0  0  0
   -0.8189   -2.1334   -1.3575 C   0  0  0  0  0  0  0  0  0  0  0  0
    2.3310    1.7299   -0.2557 C   0  0  0  0  0  0  0  0  0  0  0  0
   -3.2543   -1.6129    0.0789 C   0  0  0  0  0  0  0  0  0  0  0  0
    3.8988   -0.1742   -0.6223 C   0  0  0  0  0  0  0  0  0  0  0  0
   -4.0136    0.9882    0.6542 C   0  0  0  0  0  0  0  0  0  0  0  0
   -4.5261   -1.3550    0.5977 C   0  0  0  0  0  0  0  0  0  0  0  0
   -4.9074   -0.0528    0.8825 C   0  0  0  0  0  0  0  0  0  0  0  0
    4.4688   -0.6484    0.6998 C   0  0  0  0  0  0  0  0  0  0  0  0
  1  7  1  0
  1  8  1  0
  2 19  1  0
  3 19  2  0
  4  5  1  0
  4  6  1  0
  4 12  1  0
  5  7  2  0
  5  9  1  0
  6  8  2  0
  6 14  1  0
  7 11  1  0
  8 16  1  0
  9 10  2  0
 10 13  1  0
 10 15  1  0
 11 13  2  0
 14 17  2  0
 15 19  1  0
 16 18  2  0
 17 18  1  0
M  END
>  <PUBCHEM_COMPOUND_CID>  (1) 
4164

>  <PUBCHEM_CONFORMER_RMSD>  (1) 
0.6

>  <PUBCHEM_CONFORMER_DIVERSEORDER>  (1) 
3
11
7
2
12
9
6
5
1
10
8
4

>  <PUBCHEM_MMFF94_PARTIAL_CHARGES>  (1) 
27
1 -0.2
10 -0.14
11 -0.15
12 0.37
13 -0.15
14 -0.15
15 0.2
16 -0.15
17 -0.15
18 -0.15
19 0.66
2 -0.65
20 0.15
21 0.15
25 0.15
26 0.15
29 0.15
3 -0.57
30 0.15
31 0.15
32 0.5
4 -0.57
5 0.1
6 0.1
7 0.1
8 0.1
9 -0.15

>  <PUBCHEM_EFFECTIVE_ROTOR_COUNT>  (1) 
2.4

>  <PUBCHEM_PHARMACOPHORE_FEATURES>  (1) 
7
1 2 acceptor
1 3 acceptor
1 4 cation
3 2 3 19 anion
6 1 4 5 6 7 8 rings
6 5 7 9 10 11 13 rings
6 6 8 14 16 17 18 rings

>  <PUBCHEM_HEAVY_ATOM_COUNT>  (1) 
19

>  <PUBCHEM_ATOM_DEF_STEREO_COUNT>  (1) 
0

>  <PUBCHEM_ATOM_UDEF_STEREO_COUNT>  (1) 
0

>  <PUBCHEM_BOND_DEF_STEREO_COUNT>  (1) 
0

>  <PUBCHEM_BOND_UDEF_STEREO_COUNT>  (1) 
0

>  <PUBCHEM_ISOTOPIC_ATOM_COUNT>  (1) 
0

>  <PUBCHEM_COMPONENT_COUNT>  (1) 
1

>  <PUBCHEM_CACTVS_TAUTO_COUNT>  (1) 
1

>  <PUBCHEM_CONFORMER_ID>  (1) 
0000104400000003

>  <PUBCHEM_MMFF94_ENERGY>  (1) 
64.1853

>  <PUBCHEM_FEATURE_SELFOVERLAP>  (1) 
35.609

>  <PUBCHEM_SHAPE_FINGERPRINT>  (1) 
10062212 137 18340769329631748591
11132069 177 18131637776905806517
11796584 16 17312821563374930051
12236239 1 17967538948052707492
12251169 10 18342459248463985735
12403260 363 18272089457031784677
12553582 1 18410849984598864718
12633257 1 18409460184710820153
12670546 177 11097861782769634714
12839892 36 18273496792960608263
13140716 1 18270398428852922799
13551218 46 18338517434959972386
13675066 3 17704076187359274607
13862211 1 18412262865699303391
14178342 30 18055929705126564753
14251764 38 15195296299890523323
14420673 8 17978792312209327122
15042514 8 18192431870839726908
15196674 1 18340494464578220373
15209289 33 18040716965323585530
15209294 21 17417817210050105579
15375462 189 18114175324611975970
15442244 35 18340771562576912261
15685185 35 17246133074644462404
15885798 251 18407761434645262844
16945 1 18342176661154263573
17804303 29 18341337750846179317
17862501 102 18412828018859911183
1813 80 17676214537464035814
200 152 16153708696070451004
20028762 73 18130226085728931727
20261772 1 18343865536747375222
20871999 31 8430313528751701327
21033648 29 17417515922378755032
21267235 1 18337685173218557959
21637258 2 16805316708629763122
22182313 1 18057330483008378046
22950370 63 18259706683854330714
2297311 6 18270410395481012468
23184049 59 18342181106624652381
23227448 37 10447628215305116282
23366157 5 17972320878155951620
23402539 116 18272928332742734263
23463225 33 18339371876122857109
23559900 14 17845671291037920812
24859131 72 18410858746179102421
25147074 1 18127124401901469060
2748010 2 18055924181745361845
2838139 119 13470682638206580602
296302 2 12247684863651444157
33382 64 16515406248424427904
335352 9 18410015412440040189
351380 3 18040152899127060074
4072396 5 18412827963146616743
42 15 18334298668830741566
4340502 62 14476969999452218381
4409770 3 17752473266263060301
465052 167 18261685856144723483
5104073 3 18269284606942782529
58807428 26 18271254837195855083
7064713 232 17917160441854039113
7097593 13 18194678396000809116
76465 3 18260265269677848217
7970288 3 18040989601843774514
9862522 239 18271236115427851573

>  <PUBCHEM_SHAPE_MULTIPOLES>  (1) 
378.14
10.01
2.17
1.06
4.12
0.52
0.16
-3.7
4.33
-0.56
-0.33
0.51
-0.35
-0.61

>  <PUBCHEM_SHAPE_SELFOVERLAP>  (1) 
811.075

>  <PUBCHEM_SHAPE_VOLUME>  (1) 
209.1

>  <PUBCHEM_COORDINATE_TYPE>  (1) 
2
5
10

$$$$
