41658
     RDKit          3D

 20 21  0  0  0  0  0  0  0  0999 V2000
    1.2077   -2.0746   -1.6612 Cl  0  0  0  0  0  0  0  0  0  0  0  0
   -1.9772   -1.8610   -1.7419 Cl  0  0  0  0  0  0  0  0  0  0  0  0
    5.3951    1.6105   -0.6588 S   0  0  0  0  0  0  0  0  0  0  0  0
   -3.1007   -0.3513    0.5442 O   0  0  0  0  0  0  0  0  0  0  0  0
    3.0109   -1.6504    1.3263 O   0  0  0  0  0  0  0  0  0  0  0  0
   -5.5151    2.1911   -0.2094 O   0  0  0  0  0  0  0  0  0  0  0  0
   -5.5153   -0.0380   -0.6771 O   0  0  0  0  0  0  0  0  0  0  0  0
    1.0415   -0.6412    0.6270 C   0  0  0  0  0  0  0  0  0  0  0  0
   -1.7412   -0.4603    0.5499 C   0  0  0  0  0  0  0  0  0  0  0  0
    2.4961   -0.7025    0.7177 C   0  0  0  0  0  0  0  0  0  0  0  0
    0.3330   -1.2321   -0.4192 C   0  0  0  0  0  0  0  0  0  0  0  0
    0.3586    0.0402    1.6346 C   0  0  0  0  0  0  0  0  0  0  0  0
    3.3362    0.3333    0.0868 C   0  0  0  0  0  0  0  0  0  0  0  0
   -1.0585   -1.1416   -0.4578 C   0  0  0  0  0  0  0  0  0  0  0  0
   -1.0327    0.1307    1.5961 C   0  0  0  0  0  0  0  0  0  0  0  0
    2.8325    1.4302   -0.6307 C   0  0  0  0  0  0  0  0  0  0  0  0
    4.6916    0.2838    0.1640 C   0  0  0  0  0  0  0  0  0  0  0  0
   -3.6435    0.9662    0.5026 C   0  0  0  0  0  0  0  0  0  0  0  0
    3.8576    2.2211   -1.1008 C   0  0  0  0  0  0  0  0  0  0  0  0
   -4.9767    0.9459   -0.1923 C   0  0  0  0  0  0  0  0  0  0  0  0
  1 11  1  0
  2 14  1  0
  3 17  1  0
  3 19  1  0
  4  9  1  0
  4 18  1  0
  5 10  2  0
  6 20  1  0
  7 20  2  0
  8 10  1  0
  8 11  2  0
  8 12  1  0
  9 14  2  0
  9 15  1  0
 10 13  1  0
 11 14  1  0
 12 15  2  0
 13 16  1  0
 13 17  2  0
 16 19  2  0
 18 20  1  0
M  END
>  <PUBCHEM_COMPOUND_CID>  (1) 
41658

>  <PUBCHEM_CONFORMER_RMSD>  (1) 
0.8

>  <PUBCHEM_CONFORMER_DIVERSEORDER>  (1) 
1
45
7
50
49
44
17
47
39
30
41
53
61
33
13
46
25
52
40
59
38
22
11
58
24
48
37
12
51
34
5
19
54
27
36
26
15
60
10
32
29
9
42
28
23
55
43
14
56
18
4
31
35
16
21
62
3
6
20
57
8
63
2

>  <PUBCHEM_MMFF94_PARTIAL_CHARGES>  (1) 
26
1 -0.18
10 0.57
11 0.18
12 -0.15
13 -0.09
14 0.18
15 -0.15
16 -0.15
17 -0.11
18 0.34
19 -0.11
2 -0.18
20 0.66
21 0.15
22 0.15
23 0.15
24 0.15
27 0.15
28 0.5
3 -0.08
4 -0.36
5 -0.57
6 -0.65
7 -0.57
8 0.09
9 0.08

>  <PUBCHEM_EFFECTIVE_ROTOR_COUNT>  (1) 
5

>  <PUBCHEM_PHARMACOPHORE_FEATURES>  (1) 
7
1 4 acceptor
1 5 acceptor
1 6 acceptor
1 7 acceptor
3 6 7 20 anion
5 3 13 16 17 19 rings
6 8 9 11 12 14 15 rings

>  <PUBCHEM_HEAVY_ATOM_COUNT>  (1) 
20

>  <PUBCHEM_ATOM_DEF_STEREO_COUNT>  (1) 
0

>  <PUBCHEM_ATOM_UDEF_STEREO_COUNT>  (1) 
0

>  <PUBCHEM_BOND_DEF_STEREO_COUNT>  (1) 
0

>  <PUBCHEM_BOND_UDEF_STEREO_COUNT>  (1) 
0

>  <PUBCHEM_ISOTOPIC_ATOM_COUNT>  (1) 
0

>  <PUBCHEM_COMPONENT_COUNT>  (1) 
1

>  <PUBCHEM_CACTVS_TAUTO_COUNT>  (1) 
1

>  <PUBCHEM_CONFORMER_ID>  (1) 
0000A2BA00000001

>  <PUBCHEM_MMFF94_ENERGY>  (1) 
54.583

>  <PUBCHEM_FEATURE_SELFOVERLAP>  (1) 
35.585

>  <PUBCHEM_SHAPE_FINGERPRINT>  (1) 
10498660 4 17775288308895957480
10759866 29 18342173354130048775
11796584 16 10087644797442390609
11961588 58 18059567048483594160
12236239 1 18412541042262313602
12616999 72 17917992746033202535
12633257 1 15575276626750702052
12895836 83 18200875187784931788
13103583 49 11025799761026671501
13583140 156 18186811304731683123
13675066 3 16226053258485379003
14178342 30 15213312974695683689
14251751 18 10807935951140298341
14251764 38 18118121377350372877
14420673 8 12400179404696075744
14911166 2 17131832079523491651
15209294 21 16660078910602562721
15342168 16 17677057952923742140
15475509 35 9222936059399952021
16752209 62 17346324756172106026
16945 1 17203613683068392851
1813 80 18050285869883437962
193927 3 10375598139149423372
19784866 140 15626230091551911563
20567600 247 11239993439000242829
20645476 183 18270963560971964654
20871999 31 17702943771987303870
21344244 181 14907897210880962589
21637258 2 11455891317199570420
22713019 99 14979961375775584726
23227448 37 18262242230402825469
23402655 69 18409449210942959880
23559900 14 17844811390924688599
2838139 119 18334292084620204908
3060560 45 17561360682328996128
3286 77 12103851146415529274
33382 64 11312052167019988317
3472631 163 18043525015954917397
351380 3 9439405717958287400
3759504 43 18412262869783585751
4325135 7 18334015038687868023
474 4 17894633698879123488
4990 188 15123509194418882763
5104073 3 17095244709312952161
56616090 13 18187928451442753480
56616090 284 15985111820370609607
633830 44 18114748243538010102
76465 3 13110699198509795844
8272917 22 18187645769796484522

>  <PUBCHEM_SHAPE_MULTIPOLES>  (1) 
395.7
11.19
2.16
1.5
5.76
0.14
0.11
-8.32
-3.03
0.07
-1.07
-0.32
0.38
-1.19

>  <PUBCHEM_SHAPE_SELFOVERLAP>  (1) 
821.391

>  <PUBCHEM_SHAPE_VOLUME>  (1) 
228.5

>  <PUBCHEM_COORDINATE_TYPE>  (1) 
2
5
10

$$$$
