41659
     RDKit          3D

 21 22  0  0  0  0  0  0  0  0999 V2000
    0.7862   -2.0635   -1.7942 Cl  0  0  0  0  0  0  0  0  0  0  0  0
   -2.3792   -1.6600   -1.9101 Cl  0  0  0  0  0  0  0  0  0  0  0  0
    4.6681   -0.2022    0.3662 S   0  0  0  0  0  0  0  0  0  0  0  0
   -3.4667   -0.2946    0.4818 O   0  0  0  0  0  0  0  0  0  0  0  0
    2.5437   -2.0083    1.2496 O   0  0  0  0  0  0  0  0  0  0  0  0
   -5.7176    2.4395   -0.0838 O   0  0  0  0  0  0  0  0  0  0  0  0
   -5.8323    0.2638   -0.7479 O   0  0  0  0  0  0  0  0  0  0  0  0
    0.6499   -0.8295    0.6093 C   0  0  0  0  0  0  0  0  0  0  0  0
    3.0070    0.0545    0.1973 C   0  0  0  0  0  0  0  0  0  0  0  0
    2.0964   -0.9825    0.7190 C   0  0  0  0  0  0  0  0  0  0  0  0
   -0.0672   -1.2843   -0.4973 C   0  0  0  0  0  0  0  0  0  0  0  0
   -0.0159   -0.2010    1.6617 C   0  0  0  0  0  0  0  0  0  0  0  0
   -2.1159   -0.4820    0.5011 C   0  0  0  0  0  0  0  0  0  0  0  0
   -1.4503   -1.1105   -0.5515 C   0  0  0  0  0  0  0  0  0  0  0  0
   -1.3987   -0.0272    1.6076 C   0  0  0  0  0  0  0  0  0  0  0  0
    4.9889    1.2922   -0.4059 C   0  0  0  0  0  0  0  0  0  0  0  0
    2.6662    1.2076   -0.4110 C   0  0  0  0  0  0  0  0  0  0  0  0
    3.8316    1.9444   -0.7707 C   0  0  0  0  0  0  0  0  0  0  0  0
    6.3897    1.7244   -0.6011 C   0  0  0  0  0  0  0  0  0  0  0  0
   -3.9338    1.0506    0.5483 C   0  0  0  0  0  0  0  0  0  0  0  0
   -5.2502    1.1685   -0.1684 C   0  0  0  0  0  0  0  0  0  0  0  0
  1 11  1  0
  2 14  1  0
  3  9  1  0
  3 16  1  0
  4 13  1  0
  4 20  1  0
  5 10  2  0
  6 21  1  0
  7 21  2  0
  8 10  1  0
  8 11  2  0
  8 12  1  0
  9 10  1  0
  9 17  2  0
 11 14  1  0
 12 15  2  0
 13 14  2  0
 13 15  1  0
 16 18  2  0
 16 19  1  0
 17 18  1  0
 20 21  1  0
M  END
>  <PUBCHEM_COMPOUND_CID>  (1) 
41659

>  <PUBCHEM_CONFORMER_RMSD>  (1) 
0.8

>  <PUBCHEM_CONFORMER_DIVERSEORDER>  (1) 
1
37
32
30
49
39
13
60
26
43
59
35
17
7
52
56
54
38
8
23
40
25
57
41
70
53
28
65
63
51
71
10
29
69
14
55
62
68
6
36
34
12
58
11
2
61
33
66
19
22
15
16
42
48
64
5
24
67
46
9
3
50
27
18
44
47
4
31
20
45
21

>  <PUBCHEM_MMFF94_PARTIAL_CHARGES>  (1) 
26
1 -0.18
10 0.57
11 0.18
12 -0.15
13 0.08
14 0.18
15 -0.15
16 -0.14
17 -0.15
18 -0.15
19 0.18
2 -0.18
20 0.34
21 0.66
22 0.15
23 0.15
24 0.15
25 0.15
3 -0.08
31 0.5
4 -0.36
5 -0.57
6 -0.65
7 -0.57
8 0.09
9 -0.05

>  <PUBCHEM_EFFECTIVE_ROTOR_COUNT>  (1) 
5

>  <PUBCHEM_PHARMACOPHORE_FEATURES>  (1) 
7
1 4 acceptor
1 5 acceptor
1 6 acceptor
1 7 acceptor
3 6 7 21 anion
5 3 9 16 17 18 rings
6 8 11 12 13 14 15 rings

>  <PUBCHEM_HEAVY_ATOM_COUNT>  (1) 
21

>  <PUBCHEM_ATOM_DEF_STEREO_COUNT>  (1) 
0

>  <PUBCHEM_ATOM_UDEF_STEREO_COUNT>  (1) 
0

>  <PUBCHEM_BOND_DEF_STEREO_COUNT>  (1) 
0

>  <PUBCHEM_BOND_UDEF_STEREO_COUNT>  (1) 
0

>  <PUBCHEM_ISOTOPIC_ATOM_COUNT>  (1) 
0

>  <PUBCHEM_COMPONENT_COUNT>  (1) 
1

>  <PUBCHEM_CACTVS_TAUTO_COUNT>  (1) 
1

>  <PUBCHEM_CONFORMER_ID>  (1) 
0000A2BB00000001

>  <PUBCHEM_MMFF94_ENERGY>  (1) 
56.0365

>  <PUBCHEM_FEATURE_SELFOVERLAP>  (1) 
35.585

>  <PUBCHEM_SHAPE_FINGERPRINT>  (1) 
10498660 4 17632578283653118154
11796584 16 9727636103295831393
11961588 58 17917703638720096449
12236239 1 18413386562308918162
12596602 18 7853858282580462670
12633257 1 15864354709050279900
12788726 201 17917998226253691657
12892183 10 12685353189734336784
12895836 83 18201998871340839644
13103583 49 11458430094528881525
13583140 156 18261401069906431667
14178342 30 15575009410875257619
14251751 18 10447926161766548665
14251764 38 18120373151468048701
14420673 8 12760470656203670000
14911166 2 16917064464864765259
15209294 21 16877660154347880073
15342168 16 17895199943045794982
15475509 35 8790588300480986829
15961568 22 18334297535471916949
1813 80 17980200791084228354
18335252 114 18410568453313228268
193927 3 9871472057729653464
20567600 247 10663809768027448589
20645476 183 18200593708555640270
20871999 31 17560517420913209759
21033648 29 16153702077742106597
21344244 181 14404894826187170245
21637258 2 10879992423917247556
21756936 100 18263362654500756682
23402539 116 17560805485118643788
23402655 69 18411418431999628728
23559900 14 17630890400166563359
2838139 119 18408038520049761917
33382 64 10879985878788028269
3472631 163 18341898545243086876
351380 3 9511461108583033961
3759504 43 18341893017646797263
4325135 7 18334577988699337619
439807 62 10159395641112051669
474 4 18040437723798394712
4990 188 14764343821464594611
5104073 3 17095525097309385680
56616090 284 15554451807674170327
5718773 13 12966584006403139620
59755656 520 17603301583377481738
633830 44 18260551160392882438
76465 3 10664103350126095803
7970288 3 10375333097198122660
8272917 22 18261110725738202754

>  <PUBCHEM_SHAPE_MULTIPOLES>  (1) 
416.28
12.76
2.19
1.49
2.2
0.02
-0.05
10.55
3.32
0.42
0.88
0.12
-0.6
-1.28

>  <PUBCHEM_SHAPE_SELFOVERLAP>  (1) 
862.163

>  <PUBCHEM_SHAPE_VOLUME>  (1) 
241.6

>  <PUBCHEM_COORDINATE_TYPE>  (1) 
2
5
10

$$$$
