41666
     RDKit          3D

 24 25  0  0  1  0  0  0  0  0999 V2000
   -6.1235   -0.4831   -0.3693 O   0  0  0  0  0  0  0  0  0  0  0  0
    6.7994   -1.1606   -0.4560 O   0  0  0  0  0  0  0  0  0  0  0  0
    7.0888    0.9283    0.4670 O   0  0  0  0  0  0  0  0  0  0  0  0
   -4.9777   -1.3209    1.4625 O   0  0  0  0  0  0  0  0  0  0  0  0
   -5.3572    0.6753   -0.2382 N   0  0  0  0  0  0  0  0  0  0  0  0
    0.2295    0.5893   -0.5943 N   0  0  0  0  0  0  0  0  0  0  0  0
    0.7181    0.0990    0.4507 N   0  0  0  0  0  0  0  0  0  0  0  0
   -3.9598    0.6541   -0.3271 C   0  0  0  0  0  0  0  0  0  0  0  0
   -3.2053    1.7445    0.1220 C   0  0  0  0  0  0  0  0  0  0  0  0
   -3.3021   -0.4582   -0.8659 C   0  0  0  0  0  0  0  0  0  0  0  0
   -1.1659    0.6113   -0.5049 C   0  0  0  0  0  0  0  0  0  0  0  0
   -1.8135    1.7232    0.0332 C   0  0  0  0  0  0  0  0  0  0  0  0
   -1.9101   -0.4794   -0.9545 C   0  0  0  0  0  0  0  0  0  0  0  0
    2.1205    0.0765    0.3611 C   0  0  0  0  0  0  0  0  0  0  0  0
    4.8975    0.0319    0.1856 C   0  0  0  0  0  0  0  0  0  0  0  0
   -6.1314    1.9023   -0.3117 C   0  0  0  0  0  0  0  0  0  0  0  0
    2.8587    1.1670    0.8109 C   0  0  0  0  0  0  0  0  0  0  0  0
    2.7607   -1.0363   -0.1756 C   0  0  0  0  0  0  0  0  0  0  0  0
    4.2506    1.1446    0.7227 C   0  0  0  0  0  0  0  0  0  0  0  0
    4.1527   -1.0587   -0.2636 C   0  0  0  0  0  0  0  0  0  0  0  0
    6.3486    0.0083    0.0941 C   0  0  0  0  0  0  0  0  0  0  0  0
   -5.8172   -1.4221    0.5778 C   0  0  0  0  0  0  0  0  0  0  0  0
   -6.6778   -2.6318    0.3723 C   0  0  0  0  0  0  0  0  0  0  0  0
    8.2167   -1.3045   -0.5984 C   0  0  0  0  0  0  0  0  0  0  0  0
  1  5  1  0
  1 22  1  0
  2 21  1  0
  2 24  1  0
  3 21  2  0
  4 22  2  0
  5  8  1  0
  5 16  1  0
  6  7  2  0
  6 11  1  0
  7 14  1  0
  8  9  2  0
  8 10  1  0
  9 12  1  0
 10 13  2  0
 11 12  2  0
 11 13  1  0
 14 17  2  0
 14 18  1  0
 15 19  2  0
 15 20  1  0
 15 21  1  0
 17 19  1  0
 18 20  2  0
 22 23  1  0
M  END
>  <PUBCHEM_COMPOUND_CID>  (1) 
41666

>  <PUBCHEM_CONFORMER_RMSD>  (1) 
0.8

>  <PUBCHEM_CONFORMER_DIVERSEORDER>  (1) 
3
22
19
10
25
27
17
26
14
24
13
20
15
6
11
23
12
18
21
9
4
5
8
16
2
7
1

>  <PUBCHEM_MMFF94_PARTIAL_CHARGES>  (1) 
32
1 -0.13
10 -0.15
11 0.18
12 -0.15
13 -0.15
14 0.18
15 0.09
16 0.37
17 -0.15
18 -0.15
19 -0.15
2 -0.43
20 -0.15
21 0.63
22 0.66
23 0.06
24 0.28
25 0.15
26 0.15
27 0.15
28 0.15
3 -0.57
32 0.15
33 0.15
34 0.15
35 0.15
4 -0.57
5 -0.49
6 -0.18
7 -0.18
8 0.1
9 -0.15

>  <PUBCHEM_EFFECTIVE_ROTOR_COUNT>  (1) 
7

>  <PUBCHEM_PHARMACOPHORE_FEATURES>  (1) 
4
1 3 acceptor
1 4 acceptor
6 14 15 17 18 19 20 rings
6 8 9 10 11 12 13 rings

>  <PUBCHEM_HEAVY_ATOM_COUNT>  (1) 
24

>  <PUBCHEM_ATOM_DEF_STEREO_COUNT>  (1) 
0

>  <PUBCHEM_ATOM_UDEF_STEREO_COUNT>  (1) 
0

>  <PUBCHEM_BOND_DEF_STEREO_COUNT>  (1) 
0

>  <PUBCHEM_BOND_UDEF_STEREO_COUNT>  (1) 
0

>  <PUBCHEM_ISOTOPIC_ATOM_COUNT>  (1) 
0

>  <PUBCHEM_COMPONENT_COUNT>  (1) 
1

>  <PUBCHEM_CACTVS_TAUTO_COUNT>  (1) 
1

>  <PUBCHEM_CONFORMER_ID>  (1) 
0000A2C200000003

>  <PUBCHEM_MMFF94_ENERGY>  (1) 
76.2146

>  <PUBCHEM_FEATURE_SELFOVERLAP>  (1) 
20.297

>  <PUBCHEM_SHAPE_FINGERPRINT>  (1) 
10 15 18341038714571148104
10299344 5 18260550009288717630
11089746 13 13326848941859698106
11315181 36 18186521021241258501
11524674 6 16272203102460265159
11646440 116 17203888561692281024
11963148 33 18334569140592987362
12091667 2 17988920068378106709
12166972 35 17967254213112047116
12236239 1 18187365432453259892
12730499 353 18272932726726717538
13288520 33 18260829319986825037
13533116 47 16153978059608912640
13685833 64 18343865515805132670
13914758 101 10735882763770075214
1420 363 18410293622576544906
14251732 16 18409729586323620800
14251764 18 16845853511738385374
14341114 176 18201717383832765416
14344974 204 18057043721292267695
14933364 13 18413950585756295424
15183329 4 16630808798901541068
15510800 12 17750527337573543715
15716309 27 18271807943020631599
17093844 174 18334009485210959721
17844677 252 18412830209272574937
18608769 82 18412262869403751570
20511986 3 10809344481581148336
21054139 6 17531245079928989635
21150785 3 16950286209172770614
21267235 1 18344149189778842084
21315759 40 17749108855898390888
21623969 137 18131919260093163414
21792961 116 17845653643344387452
220451 1 17313098623130398601
22224240 67 17095520713081283328
2297311 6 18411419492456020580
23035841 295 17967530160269960440
23081809 10 15719380707782680360
23402539 116 13117994488250987575
23559900 14 18058998584008748328
23569943 247 17900538974670638090
328311 84 18201722851689922278
3545911 37 18201715137649161660
4073 2 18261115166306813675
4325135 7 16660081109362301439
5104073 3 18271802372110361393
5385378 56 14404916768953435332
5718773 13 18048035457724062331
59755656 215 18341332210834285238
59755656 520 17894908525035730042
636775 8 18335148612942237206
999808 66 18411143549787486467

>  <PUBCHEM_SHAPE_MULTIPOLES>  (1) 
455.49
22.47
1.95
0.9
16.03
0.36
-0.07
8.07
-0.42
-2.97
-0.22
-0.35
0.12
1.82

>  <PUBCHEM_SHAPE_SELFOVERLAP>  (1) 
965.014

>  <PUBCHEM_SHAPE_VOLUME>  (1) 
254.9

>  <PUBCHEM_COORDINATE_TYPE>  (1) 
2
5
10

$$$$
