41660
     RDKit          3D

 20 21  0  0  0  0  0  0  0  0999 V2000
    1.2072   -2.1670   -1.5078 Cl  0  0  0  0  0  0  0  0  0  0  0  0
   -1.9809   -2.0009   -1.5764 Cl  0  0  0  0  0  0  0  0  0  0  0  0
   -3.1048   -0.3088    0.5780 O   0  0  0  0  0  0  0  0  0  0  0  0
    4.6403    0.2905    0.1429 O   0  0  0  0  0  0  0  0  0  0  0  0
    3.0300   -1.4575    1.4129 O   0  0  0  0  0  0  0  0  0  0  0  0
   -5.5589    2.1267   -0.3742 O   0  0  0  0  0  0  0  0  0  0  0  0
   -5.5336   -0.1349   -0.6429 O   0  0  0  0  0  0  0  0  0  0  0  0
    1.0415   -0.5388    0.6461 C   0  0  0  0  0  0  0  0  0  0  0  0
   -1.7439   -0.4000    0.5802 C   0  0  0  0  0  0  0  0  0  0  0  0
    0.3320   -1.2288   -0.3369 C   0  0  0  0  0  0  0  0  0  0  0  0
    0.3583    0.2206    1.5961 C   0  0  0  0  0  0  0  0  0  0  0  0
    2.4975   -0.5738    0.7278 C   0  0  0  0  0  0  0  0  0  0  0  0
   -1.0608   -1.1593   -0.3698 C   0  0  0  0  0  0  0  0  0  0  0  0
   -1.0344    0.2900    1.5631 C   0  0  0  0  0  0  0  0  0  0  0  0
    3.3184    0.4125   -0.0002 C   0  0  0  0  0  0  0  0  0  0  0  0
    2.9422    1.4259   -0.7943 C   0  0  0  0  0  0  0  0  0  0  0  0
   -3.6653    0.9930    0.4253 C   0  0  0  0  0  0  0  0  0  0  0  0
    4.1577    2.0215   -1.2073 C   0  0  0  0  0  0  0  0  0  0  0  0
    5.1612    1.2944   -0.6103 C   0  0  0  0  0  0  0  0  0  0  0  0
   -5.0039    0.8946   -0.2522 C   0  0  0  0  0  0  0  0  0  0  0  0
  1 10  1  0
  2 13  1  0
  3  9  1  0
  3 17  1  0
  4 15  1  0
  4 19  1  0
  5 12  2  0
  6 20  1  0
  7 20  2  0
  8 10  2  0
  8 11  1  0
  8 12  1  0
  9 13  2  0
  9 14  1  0
 10 13  1  0
 11 14  2  0
 12 15  1  0
 15 16  2  0
 16 18  1  0
 17 20  1  0
 18 19  2  0
M  END
>  <PUBCHEM_COMPOUND_CID>  (1) 
41660

>  <PUBCHEM_CONFORMER_RMSD>  (1) 
0.8

>  <PUBCHEM_CONFORMER_DIVERSEORDER>  (1) 
1
23
49
31
26
19
50
16
8
52
25
41
55
54
43
14
9
59
17
46
32
51
47
33
53
45
29
57
30
37
24
34
40
6
22
60
28
38
13
36
11
12
35
10
18
15
20
56
48
58
44
39
2
42
4
27
7
21
3
5

>  <PUBCHEM_MMFF94_PARTIAL_CHARGES>  (1) 
26
1 -0.18
10 0.18
11 -0.15
12 0.57
13 0.18
14 -0.15
15 0.05
16 -0.15
17 0.34
18 -0.15
19 -0.01
2 -0.18
20 0.66
21 0.15
22 0.15
23 0.15
26 0.15
27 0.15
28 0.5
3 -0.36
4 -0.28
5 -0.57
6 -0.65
7 -0.57
8 0.09
9 0.08

>  <PUBCHEM_EFFECTIVE_ROTOR_COUNT>  (1) 
5

>  <PUBCHEM_PHARMACOPHORE_FEATURES>  (1) 
8
1 3 acceptor
1 4 acceptor
1 5 acceptor
1 6 acceptor
1 7 acceptor
3 6 7 20 anion
5 4 15 16 18 19 rings
6 8 9 10 11 13 14 rings

>  <PUBCHEM_HEAVY_ATOM_COUNT>  (1) 
20

>  <PUBCHEM_ATOM_DEF_STEREO_COUNT>  (1) 
0

>  <PUBCHEM_ATOM_UDEF_STEREO_COUNT>  (1) 
0

>  <PUBCHEM_BOND_DEF_STEREO_COUNT>  (1) 
0

>  <PUBCHEM_BOND_UDEF_STEREO_COUNT>  (1) 
0

>  <PUBCHEM_ISOTOPIC_ATOM_COUNT>  (1) 
0

>  <PUBCHEM_COMPONENT_COUNT>  (1) 
1

>  <PUBCHEM_CACTVS_TAUTO_COUNT>  (1) 
1

>  <PUBCHEM_CONFORMER_ID>  (1) 
0000A2BC00000001

>  <PUBCHEM_MMFF94_ENERGY>  (1) 
51.7322

>  <PUBCHEM_FEATURE_SELFOVERLAP>  (1) 
40.668

>  <PUBCHEM_SHAPE_FINGERPRINT>  (1) 
10498660 4 17917997221584083056
10759866 29 18412823573310790683
11796584 16 10592049050924572505
11961588 58 18201713011202454697
12236239 1 18411132563572152290
12616999 72 17988641865675942895
12633257 1 15358259424028166308
13103583 49 10665230315902493245
13583140 156 18113909290063787323
13675066 3 15936415507434250739
14178342 30 14924238169366449361
14251764 38 18117275848624149941
14420673 8 12111384987642927608
14911166 2 17346598586281109227
15209294 21 16370722638860100609
15342168 16 17531255014493936404
15475509 35 9655282723139127989
16752209 62 17489312944829491504
16945 1 17418379086014166634
1813 80 18048877391172177714
193927 3 10807943703313687548
19784866 140 15913334567828409707
20645476 183 18341614879595749526
20871999 31 17845652689002025791
21033648 29 15719656732461431445
21344244 181 15267342955179426701
21637258 2 11815895613452566917
22079108 93 17168146771288394841
22713019 99 15267065851951869078
23227448 37 18261680379982111493
23402655 69 18335985345812262440
23559900 14 17987799575302950423
2838139 119 18260827115756733045
3060560 45 17775565342966271632
316301 35 9582358731445643365
33382 64 11671778286767841013
3472631 163 17970058947511252485
3759504 43 18410856598722438743
4325135 7 18260831540474477927
474 4 17676491691397807804
4990 188 15482672364155259339
5104073 3 17022903462375458513
56616090 13 18114464586327906264
56616090 284 16272216292341629935
58779409 8 17631725092842941815
633830 44 18041284374133424942
76465 3 13470141639946871268
8272917 22 18114462271535628218

>  <PUBCHEM_SHAPE_MULTIPOLES>  (1) 
385.98
10.91
2.09
1.46
6.18
0.53
0.18
-7.53
-3.56
0.27
-1.07
-0.53
0.16
-1.04

>  <PUBCHEM_SHAPE_SELFOVERLAP>  (1) 
816.795

>  <PUBCHEM_SHAPE_VOLUME>  (1) 
218

>  <PUBCHEM_COORDINATE_TYPE>  (1) 
2
5
10

$$$$
