41667
     RDKit          3D

 21 22  0  0  1  0  0  0  0  0999 V2000
    6.8908    1.2984    0.2006 O   0  0  0  0  0  0  0  0  0  0  0  0
   -6.0563    1.0181   -0.1056 O   0  0  0  0  0  0  0  0  0  0  0  0
   -6.1836   -1.2787   -0.1930 O   0  0  0  0  0  0  0  0  0  0  0  0
    6.2043    0.1059    0.1060 N   0  0  0  0  0  0  0  0  0  0  0  0
    0.6458   -0.0441   -0.5479 N   0  0  0  0  0  0  0  0  0  0  0  0
    0.0838   -0.0912    0.5715 N   0  0  0  0  0  0  0  0  0  0  0  0
    4.8039    0.0679   -0.0586 C   0  0  0  0  0  0  0  0  0  0  0  0
    2.0412   -0.0072   -0.3835 C   0  0  0  0  0  0  0  0  0  0  0  0
    4.1479   -1.1579   -0.1725 C   0  0  0  0  0  0  0  0  0  0  0  0
    4.0749    1.2561   -0.1074 C   0  0  0  0  0  0  0  0  0  0  0  0
    2.7631   -1.1955   -0.3355 C   0  0  0  0  0  0  0  0  0  0  0  0
    2.6901    1.2185   -0.2703 C   0  0  0  0  0  0  0  0  0  0  0  0
   -1.3047   -0.1278    0.4084 C   0  0  0  0  0  0  0  0  0  0  0  0
   -4.0747   -0.2015    0.0847 C   0  0  0  0  0  0  0  0  0  0  0  0
   -1.9613   -1.3532    0.2942 C   0  0  0  0  0  0  0  0  0  0  0  0
   -2.0332    1.0609    0.3610 C   0  0  0  0  0  0  0  0  0  0  0  0
   -3.3463   -1.3900    0.1322 C   0  0  0  0  0  0  0  0  0  0  0  0
   -3.4182    1.0240    0.1991 C   0  0  0  0  0  0  0  0  0  0  0  0
    7.0270   -1.0751    0.1661 C   0  0  0  0  0  0  0  0  0  0  0  0
   -5.5187   -0.2399   -0.0837 C   0  0  0  0  0  0  0  0  0  0  0  0
   -7.4759    1.1123   -0.2658 C   0  0  0  0  0  0  0  0  0  0  0  0
  1  4  1  0
  2 20  1  0
  2 21  1  0
  3 20  2  0
  4  7  1  0
  4 19  1  0
  5  6  2  0
  5  8  1  0
  6 13  1  0
  7  9  2  0
  7 10  1  0
  8 11  2  0
  8 12  1  0
  9 11  1  0
 10 12  2  0
 13 15  2  0
 13 16  1  0
 14 17  2  0
 14 18  1  0
 14 20  1  0
 15 17  1  0
 16 18  2  0
M  END
>  <PUBCHEM_COMPOUND_CID>  (1) 
41667

>  <PUBCHEM_CONFORMER_RMSD>  (1) 
0.8

>  <PUBCHEM_CONFORMER_DIVERSEORDER>  (1) 
1
3
2
4

>  <PUBCHEM_MMFF94_PARTIAL_CHARGES>  (1) 
30
1 -0.38
10 -0.15
11 -0.15
12 -0.15
13 0.18
14 0.09
15 -0.15
16 -0.15
17 -0.15
18 -0.15
19 0.37
2 -0.43
20 0.63
21 0.28
22 0.15
23 0.15
24 0.15
25 0.15
26 0.15
27 0.15
28 0.15
29 0.15
3 -0.57
33 0.4
4 -0.49
5 -0.18
6 -0.18
7 0.1
8 0.18
9 -0.15

>  <PUBCHEM_EFFECTIVE_ROTOR_COUNT>  (1) 
5

>  <PUBCHEM_PHARMACOPHORE_FEATURES>  (1) 
4
1 1 anion
1 3 acceptor
6 13 14 15 16 17 18 rings
6 7 8 9 10 11 12 rings

>  <PUBCHEM_HEAVY_ATOM_COUNT>  (1) 
21

>  <PUBCHEM_ATOM_DEF_STEREO_COUNT>  (1) 
0

>  <PUBCHEM_ATOM_UDEF_STEREO_COUNT>  (1) 
0

>  <PUBCHEM_BOND_DEF_STEREO_COUNT>  (1) 
0

>  <PUBCHEM_BOND_UDEF_STEREO_COUNT>  (1) 
0

>  <PUBCHEM_ISOTOPIC_ATOM_COUNT>  (1) 
0

>  <PUBCHEM_COMPONENT_COUNT>  (1) 
1

>  <PUBCHEM_CACTVS_TAUTO_COUNT>  (1) 
1

>  <PUBCHEM_CONFORMER_ID>  (1) 
0000A2C300000001

>  <PUBCHEM_MMFF94_ENERGY>  (1) 
67.7008

>  <PUBCHEM_FEATURE_SELFOVERLAP>  (1) 
20.297

>  <PUBCHEM_SHAPE_FINGERPRINT>  (1) 
10 15 18271235119697020128
10968037 39 18343584053650065879
11315181 36 17988647410895271961
11719270 70 18202281386422738462
12091667 2 18408324398142800203
12107183 9 17690564083155336722
12166972 35 18333734640957379212
12236239 1 18260266356336332979
12516196 113 17918556834163403096
13533116 47 18131068178311979458
14123256 10 17560801026789544597
1420 363 11167941368205289597
14251764 18 18333731334090192470
14251764 46 17131832058201609670
15183329 4 18410291385426299497
17093844 174 18333731330338563905
19489759 90 18412827979957227417
200 152 18060420213745857715
20281389 69 18113616781226779300
20645477 70 18271249322373587686
21150785 3 15339114646161190905
21267235 1 18410019839918059362
21315763 28 18409166640886530983
220451 1 14851603297369435865
22224240 67 14189569733072842702
23402539 116 18412542124525247175
23536379 177 18409167701632793787
23559900 14 18341326798753440769
26918003 58 18410577309704266130
29717793 49 18272094889996492390
300161 21 18412543219077496426
3004659 81 18334575746051292992
335352 9 18408041818605088309
34797466 226 17203055174997319972
351380 180 18411420617737029781
3545911 37 18410012139015174404
4073 2 17968383450192479074
4214541 1 18410013238521546929
4325135 7 18131349700437878325
542803 24 16732704960414911830
559249 180 18409447007788631083
59755656 215 18334297539713765878
59755656 520 17022900172863143067
67856867 119 18265335178039584340
8209 1 18411136930815212436

>  <PUBCHEM_SHAPE_MULTIPOLES>  (1) 
399.62
20.05
1.49
0.67
0.42
0.05
0
-2.08
-0.56
0.02
0
0.01
0
0.11

>  <PUBCHEM_SHAPE_SELFOVERLAP>  (1) 
850.44

>  <PUBCHEM_SHAPE_VOLUME>  (1) 
223

>  <PUBCHEM_COORDINATE_TYPE>  (1) 
2
5
10

$$$$
