41665
     RDKit          3D

 29 31  0  0  1  0  0  0  0  0999 V2000
   -4.6779    1.1632    0.3174 O   0  0  0  0  0  0  0  0  0  0  0  0
   -3.7556   -0.0600   -1.4110 O   0  0  0  0  0  0  0  0  0  0  0  0
    8.3805    0.0520    0.0954 O   0  0  0  0  0  0  0  0  0  0  0  0
    8.0594   -2.2274    0.0799 O   0  0  0  0  0  0  0  0  0  0  0  0
   -3.6804    2.1131    0.0966 N   0  0  0  0  0  0  0  0  0  0  0  0
    1.7566    0.8606    0.5621 N   0  0  0  0  0  0  0  0  0  0  0  0
    2.1273    0.1865   -0.4275 N   0  0  0  0  0  0  0  0  0  0  0  0
   -2.3205    1.7994    0.2131 C   0  0  0  0  0  0  0  0  0  0  0  0
   -1.3487    2.6583   -0.3144 C   0  0  0  0  0  0  0  0  0  0  0  0
   -1.9179    0.6239    0.8581 C   0  0  0  0  0  0  0  0  0  0  0  0
    0.3984    1.1727    0.4460 C   0  0  0  0  0  0  0  0  0  0  0  0
    0.0058    2.3460   -0.1983 C   0  0  0  0  0  0  0  0  0  0  0  0
   -0.5634    0.3118    0.9742 C   0  0  0  0  0  0  0  0  0  0  0  0
   -4.1713    3.4793    0.0495 C   0  0  0  0  0  0  0  0  0  0  0  0
   -5.6703   -0.8718   -0.2466 C   0  0  0  0  0  0  0  0  0  0  0  0
    3.4925   -0.1272   -0.3114 C   0  0  0  0  0  0  0  0  0  0  0  0
   -4.6077    0.0813   -0.5240 C   0  0  0  0  0  0  0  0  0  0  0  0
    6.1951   -0.7499   -0.0824 C   0  0  0  0  0  0  0  0  0  0  0  0
    3.8792   -1.2987    0.3323 C   0  0  0  0  0  0  0  0  0  0  0  0
    4.4472    0.7352   -0.8415 C   0  0  0  0  0  0  0  0  0  0  0  0
    5.2339   -1.6107    0.4472 C   0  0  0  0  0  0  0  0  0  0  0  0
    5.8018    0.4230   -0.7268 C   0  0  0  0  0  0  0  0  0  0  0  0
   -6.1902   -1.6558   -1.2766 C   0  0  0  0  0  0  0  0  0  0  0  0
   -6.1694   -1.0025    1.0494 C   0  0  0  0  0  0  0  0  0  0  0  0
   -7.2094   -2.5704   -1.0107 C   0  0  0  0  0  0  0  0  0  0  0  0
   -7.1885   -1.9172    1.3153 C   0  0  0  0  0  0  0  0  0  0  0  0
   -7.7084   -2.7010    0.2852 C   0  0  0  0  0  0  0  0  0  0  0  0
    7.6075   -1.0754    0.0371 C   0  0  0  0  0  0  0  0  0  0  0  0
    9.7945   -0.1383    0.2129 C   0  0  0  0  0  0  0  0  0  0  0  0
  1  5  1  0
  1 17  1  0
  2 17  2  0
  3 28  1  0
  3 29  1  0
  4 28  2  0
  5  8  1  0
  5 14  1  0
  6  7  2  0
  6 11  1  0
  7 16  1  0
  8  9  2  0
  8 10  1  0
  9 12  1  0
 10 13  2  0
 11 12  2  0
 11 13  1  0
 15 17  1  0
 15 23  2  0
 15 24  1  0
 16 19  2  0
 16 20  1  0
 18 21  2  0
 18 22  1  0
 18 28  1  0
 19 21  1  0
 20 22  2  0
 23 25  1  0
 24 26  2  0
 25 27  2  0
 26 27  1  0
M  END
>  <PUBCHEM_COMPOUND_CID>  (1) 
41665

>  <PUBCHEM_CONFORMER_RMSD>  (1) 
1

>  <PUBCHEM_CONFORMER_DIVERSEORDER>  (1) 
2
7
15
16
21
10
5
19
12
11
17
25
27
6
26
14
22
4
20
18
3
23
1
24
9
13
8

>  <PUBCHEM_MMFF94_PARTIAL_CHARGES>  (1) 
42
1 -0.13
10 -0.15
11 0.18
12 -0.15
13 -0.15
14 0.37
15 0.09
16 0.18
17 0.63
18 0.09
19 -0.15
2 -0.57
20 -0.15
21 -0.15
22 -0.15
23 -0.15
24 -0.15
25 -0.15
26 -0.15
27 -0.15
28 0.63
29 0.28
3 -0.43
30 0.15
31 0.15
32 0.15
33 0.15
37 0.15
38 0.15
39 0.15
4 -0.57
40 0.15
41 0.15
42 0.15
43 0.15
44 0.15
45 0.15
5 -0.49
6 -0.18
7 -0.18
8 0.1
9 -0.15

>  <PUBCHEM_EFFECTIVE_ROTOR_COUNT>  (1) 
8

>  <PUBCHEM_PHARMACOPHORE_FEATURES>  (1) 
5
1 2 acceptor
1 4 acceptor
6 15 23 24 25 26 27 rings
6 16 18 19 20 21 22 rings
6 8 9 10 11 12 13 rings

>  <PUBCHEM_HEAVY_ATOM_COUNT>  (1) 
29

>  <PUBCHEM_ATOM_DEF_STEREO_COUNT>  (1) 
0

>  <PUBCHEM_ATOM_UDEF_STEREO_COUNT>  (1) 
0

>  <PUBCHEM_BOND_DEF_STEREO_COUNT>  (1) 
0

>  <PUBCHEM_BOND_UDEF_STEREO_COUNT>  (1) 
0

>  <PUBCHEM_ISOTOPIC_ATOM_COUNT>  (1) 
0

>  <PUBCHEM_COMPONENT_COUNT>  (1) 
1

>  <PUBCHEM_CACTVS_TAUTO_COUNT>  (1) 
1

>  <PUBCHEM_CONFORMER_ID>  (1) 
0000A2C100000002

>  <PUBCHEM_MMFF94_ENERGY>  (1) 
99.1227

>  <PUBCHEM_FEATURE_SELFOVERLAP>  (1) 
25.373

>  <PUBCHEM_SHAPE_FINGERPRINT>  (1) 
10 15 12175630572628048219
10076449 9 18131072653851959850
10162869 55 17821730555700147212
10411042 1 18338799018149635465
10674148 151 18260832597173739521
11211813 128 18272092691353545014
11386260 185 16009038319537806334
11410812 94 16226314946331440926
11475781 23 10953737768757226610
11497681 19 18334857174247671542
11809386 21 18335697209747464313
11963148 33 18340481188597750430
12082328 90 18411135801539500708
12760667 363 18411139173790538851
1361 4 18337107852721964850
13631057 29 18411698773163028241
13673619 4 18131632313982083065
13690498 29 18187637017111863597
13692114 37 18335135424115835250
13782708 43 18272929423047430817
14178184 131 18130504257902243399
14347332 77 18411139152073460037
14400156 96 17749956683113347236
15082195 135 17605288469935787388
15142383 8 8070027766766179918
15183329 4 17022618671979140482
15461852 350 18411424986705252724
1577012 14 17968093054620987352
15876981 60 18113905923190073877
16992610 120 17458892758063794829
16992779 147 15983675949012136168
17686467 74 18411412934832464912
17780758 139 17561086882981206769
18335252 98 17989490715261186110
19246450 95 18128839508041376699
20105231 36 15985108514179612020
21095123 293 12535345727588632778
21130935 74 18269837511463790978
21150785 3 17385724703329187546
21267235 1 18411139160335820753
21298829 104 8357993177680065695
21344244 246 17969508280489350556
23389318 12 18040441018892587252
23424782 7 18342453751744656016
23522609 53 18053417463414061881
23523787 8 15430863458929894507
23559900 14 17968103036447411872
23569917 315 18341056199848045374
23576562 1 13552054272226028303
2748736 6 8790614689123848575
2835820 83 18267866280511029999
2838139 119 12324237291652521135
306946 40 13984947385661317838
3178227 256 16486974003760781110
3383291 50 18408603690570126707
393628 194 8142094178256896775
395649 100 18335135367785017581
397830 11 17631719564940229648
4015057 19 17749966542870881704
4169191 19 9943532886415700977
4339292 15 18131059455570472719
439807 62 18335703858251155031
44280117 145 18409450263052257356
4461854 278 17917715742081349758
44802255 64 13912328988589211633
44880568 143 16588018009207742045
5372103 7 11095343854926445451
54039377 194 18410575124009310071
5470011 282 17749674090331419583
5718773 13 18410575097547993806
58083652 198 16056585565408369257
59682541 35 17846776334779012162
5969126 39 18407478851720224005
636775 8 18409454699642522326
6700243 42 17913802481308339420
7970288 3 18339357578593693783
999808 66 18411421726477285343

>  <PUBCHEM_SHAPE_MULTIPOLES>  (1) 
558.39
28.61
3.06
1.02
34.05
1.23
-0.05
-23.71
-0.21
-5.77
-0.05
-1.38
-0.28
-0.66

>  <PUBCHEM_SHAPE_SELFOVERLAP>  (1) 
1206.527

>  <PUBCHEM_SHAPE_VOLUME>  (1) 
306.2

>  <PUBCHEM_COORDINATE_TYPE>  (1) 
2
5
10

$$$$
