41672
     RDKit          3D

 13 13  0  0  0  0  0  0  0  0999 V2000
   -1.2462    2.4907    0.3066 O   0  0  0  0  0  0  0  0  0  0  0  0
   -2.5315   -0.7240    0.3130 N   0  0  0  0  0  0  0  0  0  0  0  0
   -0.4537    0.3552   -0.4385 C   0  0  0  0  0  0  0  0  0  0  0  0
   -1.8509   -0.0701   -0.8042 C   0  0  0  0  0  0  0  0  0  0  0  0
    1.8933   -0.1549   -0.3126 C   0  0  0  0  0  0  0  0  0  0  0  0
    0.5931   -0.5331   -0.6474 C   0  0  0  0  0  0  0  0  0  0  0  0
   -0.2238    1.6145    0.0992 C   0  0  0  0  0  0  0  0  0  0  0  0
    3.0254   -1.1004   -0.5327 C   0  0  0  0  0  0  0  0  0  0  0  0
    2.1350    1.1080    0.2280 C   0  0  0  0  0  0  0  0  0  0  0  0
    1.0764    1.9926    0.4339 C   0  0  0  0  0  0  0  0  0  0  0  0
   -1.7972   -1.9180    0.7303 C   0  0  0  0  0  0  0  0  0  0  0  0
   -3.9033   -1.0706   -0.0564 C   0  0  0  0  0  0  0  0  0  0  0  0
    3.2834   -1.9899    0.6808 C   0  0  0  0  0  0  0  0  0  0  0  0
  1  7  1  0
  2  4  1  0
  2 11  1  0
  2 12  1  0
  3  4  1  0
  3  6  2  0
  3  7  1  0
  5  6  1  0
  5  8  1  0
  5  9  2  0
  7 10  2  0
  8 13  1  0
  9 10  1  0
M  END
>  <PUBCHEM_COMPOUND_CID>  (1) 
41672

>  <PUBCHEM_CONFORMER_RMSD>  (1) 
0.6

>  <PUBCHEM_CONFORMER_DIVERSEORDER>  (1) 
3
6
1
10
9
5
7
4
8
2
11

>  <PUBCHEM_MMFF94_PARTIAL_CHARGES>  (1) 
16
1 -0.53
10 -0.15
11 0.27
12 0.27
16 0.15
19 0.15
2 -0.81
20 0.15
3 -0.14
30 0.45
4 0.41
5 -0.14
6 -0.15
7 0.08
8 0.14
9 -0.15

>  <PUBCHEM_EFFECTIVE_ROTOR_COUNT>  (1) 
3

>  <PUBCHEM_PHARMACOPHORE_FEATURES>  (1) 
4
1 1 donor
1 13 hydrophobe
1 2 cation
6 3 5 6 7 9 10 rings

>  <PUBCHEM_HEAVY_ATOM_COUNT>  (1) 
13

>  <PUBCHEM_ATOM_DEF_STEREO_COUNT>  (1) 
0

>  <PUBCHEM_ATOM_UDEF_STEREO_COUNT>  (1) 
0

>  <PUBCHEM_BOND_DEF_STEREO_COUNT>  (1) 
0

>  <PUBCHEM_BOND_UDEF_STEREO_COUNT>  (1) 
0

>  <PUBCHEM_ISOTOPIC_ATOM_COUNT>  (1) 
0

>  <PUBCHEM_COMPONENT_COUNT>  (1) 
1

>  <PUBCHEM_CACTVS_TAUTO_COUNT>  (1) 
3

>  <PUBCHEM_CONFORMER_ID>  (1) 
0000A2C800000003

>  <PUBCHEM_MMFF94_ENERGY>  (1) 
33.9226

>  <PUBCHEM_FEATURE_SELFOVERLAP>  (1) 
20.297

>  <PUBCHEM_SHAPE_FINGERPRINT>  (1) 
10130415 120 18410577279533967411
11471102 22 18197786698224070947
11769659 78 18187925036932988998
12824470 246 17750788849082942866
13380535 76 17766554655728653125
161256 15 18272092742228442740
16945 1 18197488726383854596
17841504 4 18413387656976731552
17990270 104 18120937471246206467
20201158 50 18263643029491124827
20645477 70 18341329002451647191
20711983 138 18334017194096877499
20871998 184 17987230028484724398
20871998 22 18129953290690403310
21296965 67 18412824668347648398
21501502 16 18340215115220099936
23500284 5 18263362486601653242
23526113 38 18120902171258433533
23552423 10 18334863818171701300
23559900 14 17909824337576995790
2748010 2 18200582614945128684
3071541 236 17834671596066858504
81228 2 17912084945698419224
8809292 202 18336549322078036871

>  <PUBCHEM_SHAPE_MULTIPOLES>  (1) 
256.68
5.22
2.45
0.85
1.49
0.7
0.03
-3.66
-0.29
-0.44
-0.68
-0.05
-0.15
0.12

>  <PUBCHEM_SHAPE_SELFOVERLAP>  (1) 
519.906

>  <PUBCHEM_SHAPE_VOLUME>  (1) 
152.3

>  <PUBCHEM_COORDINATE_TYPE>  (1) 
2
5
10

$$$$
