41671
     RDKit          3D

 17 16  0  0  1  0  0  0  0  0999 V2000
   -5.1152   -1.0616   -0.8421 O   0  0  0  0  0  0  0  0  0  0  0  0
   -5.1991   -1.1600    1.4598 O   0  0  0  0  0  0  0  0  0  0  0  0
    0.3180    0.2817    0.4009 C   0  0  0  0  0  0  0  0  0  0  0  0
    1.6172    0.5631   -0.3595 C   0  0  0  0  0  0  0  0  0  0  0  0
   -0.8920    0.8569   -0.3392 C   0  0  0  0  0  0  0  0  0  0  0  0
    2.8239   -0.0391    0.3640 C   0  0  0  0  0  0  0  0  0  0  0  0
   -2.2240    0.5965    0.3735 C   0  0  0  0  0  0  0  0  0  0  0  0
    4.1488    0.1865   -0.3701 C   0  0  0  0  0  0  0  0  0  0  0  0
   -3.4236    1.2435   -0.3304 C   0  0  0  0  0  0  0  0  0  0  0  0
    5.3642   -0.3503    0.3889 C   0  0  0  0  0  0  0  0  0  0  0  0
   -4.7835    0.9596    0.3314 C   0  0  0  0  0  0  0  0  0  0  0  0
    6.6646   -0.0341   -0.3534 C   0  0  0  0  0  0  0  0  0  0  0  0
    7.8831   -0.5353    0.4216 C   0  0  0  0  0  0  0  0  0  0  0  0
   -5.9368    1.6900   -0.3552 C   0  0  0  0  0  0  0  0  0  0  0  0
   -5.0554   -0.5348    0.4172 C   0  0  0  0  0  0  0  0  0  0  0  0
    9.1791   -0.1943   -0.2963 C   0  0  0  0  0  0  0  0  0  0  0  0
   -5.3692   -2.4683   -0.9109 C   0  0  0  0  0  0  0  0  0  0  0  0
  1 15  1  0
  1 17  1  0
  2 15  2  0
  3  4  1  0
  3  5  1  0
  4  6  1  0
  5  7  1  0
  6  8  1  0
  7  9  1  0
  8 10  1  0
  9 11  1  0
 10 12  1  0
 11 14  1  0
 11 15  1  0
 12 13  1  0
 13 16  1  0
M  END
>  <PUBCHEM_COMPOUND_CID>  (1) 
41671

>  <PUBCHEM_CONFORMER_RMSD>  (1) 
1.2

>  <PUBCHEM_CONFORMER_DIVERSEORDER>  (1) 
1
63
25
151
98
42
18
53
89
117
15
20
8
169
7
95
32
4
175
93
10
71
78
81
21
191
43
14
177
38
45
41
125
70
130
206
138
36
133
184
126
156
40
179
26
3
148
192
205
22
203
28
185
159
100
11
2
153
182
164
82
143
111
34
127
193
183
57
39
33
90
167
209
86
91
154
67
12
74
77
97
101
6
9
87
141
136
161
48
178
54
131
37
158
83
92
44
96
46
16
116
176
150
119
113
189
52
112
49
171
128
35
103
118
204
180
210
30
31
23
123
172
134
5
76
110
109
160
139
79
122
200
75
186
173
99
65
208
62
64
106
121
190
55
187
146
207
174
197
108
13
84
166
115
80
105
120
195
162
17
94
85
145
163
102
24
132
198
66
155
147
50
201
47
72
129
104
73
60
194
165
124
19
29
168
196
152
181
27
149
59
58
188
51
142
140
88
202
69
114
157
199
61
107
144
170
56
68
135
137

>  <PUBCHEM_MMFF94_PARTIAL_CHARGES>  (1) 
5
1 -0.43
11 0.06
15 0.66
17 0.28
2 -0.57

>  <PUBCHEM_EFFECTIVE_ROTOR_COUNT>  (1) 
12

>  <PUBCHEM_PHARMACOPHORE_FEATURES>  (1) 
3
1 14 hydrophobe
1 16 hydrophobe
1 2 acceptor

>  <PUBCHEM_HEAVY_ATOM_COUNT>  (1) 
17

>  <PUBCHEM_ATOM_DEF_STEREO_COUNT>  (1) 
0

>  <PUBCHEM_ATOM_UDEF_STEREO_COUNT>  (1) 
1

>  <PUBCHEM_BOND_DEF_STEREO_COUNT>  (1) 
0

>  <PUBCHEM_BOND_UDEF_STEREO_COUNT>  (1) 
0

>  <PUBCHEM_ISOTOPIC_ATOM_COUNT>  (1) 
0

>  <PUBCHEM_COMPONENT_COUNT>  (1) 
1

>  <PUBCHEM_CACTVS_TAUTO_COUNT>  (1) 
1

>  <PUBCHEM_CONFORMER_ID>  (1) 
0000A2C700000001

>  <PUBCHEM_MMFF94_ENERGY>  (1) 
6.6692

>  <PUBCHEM_FEATURE_SELFOVERLAP>  (1) 
15.223

>  <PUBCHEM_SHAPE_FINGERPRINT>  (1) 
10066227 49 18339364034156672318
11315181 36 18272089392528478913
12091667 2 17821731615491893937
13288520 33 18334576859096545537
13533116 47 16733255760961135232
14251732 16 18272366520797728392
14251764 18 18113335311272652834
14251764 46 16558747901833406412
15183329 4 16588299492885065114
15716309 27 18411420622010898097
17093844 174 18343862204359240273
17780758 139 17275110535641509995
20281389 69 11887949943452396146
21054139 6 18334290989609136082
21095123 145 16486690376762609236
21150785 3 15502377841861003730
220451 1 18261391113623509136
22224240 67 15626215807065698428
23402539 116 17821729425343364149
23521765 1 18341894065945442696
23559900 14 18272080604861965097
33532 11 18337671911636596482
33684 2 17167864140586030321
4325135 7 18334574637648985374
8209 1 17676209048517059732

>  <PUBCHEM_SHAPE_MULTIPOLES>  (1) 
338.11
25.86
1.54
0.89
45.24
0.73
-0.09
5.58
0.83
-4.31
0.35
-0.75
0.22
-0.36

>  <PUBCHEM_SHAPE_SELFOVERLAP>  (1) 
617.494

>  <PUBCHEM_SHAPE_VOLUME>  (1) 
215.9

>  <PUBCHEM_COORDINATE_TYPE>  (1) 
2
5
10

$$$$
