4167
     RDKit          3D

 22 25  0  0  1  0  0  0  0  0999 V2000
    2.5136   -1.0552   -1.6055 S   0  0  0  0  0  0  0  0  0  0  0  0
   -4.2146    0.6988   -0.8378 N   0  0  0  0  0  0  0  0  0  0  0  0
   -1.8406    0.5240   -0.1324 C   0  0  0  0  0  0  0  0  0  0  0  0
   -0.4194    0.9972   -0.4320 C   0  0  0  0  0  0  0  0  0  0  0  0
   -2.2354    0.8744    1.3065 C   0  0  0  0  0  0  0  0  0  0  0  0
   -2.8402    1.1321   -1.1308 C   0  0  0  0  0  0  0  0  0  0  0  0
    0.5956    0.3276    0.5031 C   0  0  0  0  0  0  0  0  0  0  0  0
   -3.6888    0.4946    1.5690 C   0  0  0  0  0  0  0  0  0  0  0  0
   -4.6198    1.0971    0.5168 C   0  0  0  0  0  0  0  0  0  0  0  0
    0.5330   -1.1836    0.3610 C   0  0  0  0  0  0  0  0  0  0  0  0
    1.9793    0.9195    0.2975 C   0  0  0  0  0  0  0  0  0  0  0  0
   -5.1443    1.2400   -1.8294 C   0  0  0  0  0  0  0  0  0  0  0  0
    1.3296   -1.8831   -0.5606 C   0  0  0  0  0  0  0  0  0  0  0  0
    2.8912    0.3882   -0.6294 C   0  0  0  0  0  0  0  0  0  0  0  0
   -0.3849   -1.9019    1.1481 C   0  0  0  0  0  0  0  0  0  0  0  0
    2.3434    2.0645    1.0284 C   0  0  0  0  0  0  0  0  0  0  0  0
    1.1999   -3.2744   -0.6797 C   0  0  0  0  0  0  0  0  0  0  0  0
    4.1397    1.0013   -0.8096 C   0  0  0  0  0  0  0  0  0  0  0  0
   -0.5028   -3.2860    1.0276 C   0  0  0  0  0  0  0  0  0  0  0  0
    3.5893    2.6640    0.8477 C   0  0  0  0  0  0  0  0  0  0  0  0
    0.2894   -3.9718    0.1134 C   0  0  0  0  0  0  0  0  0  0  0  0
    4.4868    2.1327   -0.0719 C   0  0  0  0  0  0  0  0  0  0  0  0
  1 13  1  0
  1 14  1  0
  2  6  1  0
  2  9  1  0
  2 12  1  0
  3  4  1  0
  3  5  1  0
  3  6  1  0
  4  7  1  0
  5  8  1  0
  7 10  1  0
  7 11  1  0
  8  9  1  0
 10 13  2  0
 10 15  1  0
 11 14  2  0
 11 16  1  0
 13 17  1  0
 14 18  1  0
 15 19  2  0
 16 20  2  0
 17 21  2  0
 18 22  2  0
 19 21  1  0
 20 22  1  0
M  END
>  <PUBCHEM_COMPOUND_CID>  (1) 
4167

>  <PUBCHEM_CONFORMER_RMSD>  (1) 
0.6

>  <PUBCHEM_CONFORMER_DIVERSEORDER>  (1) 
1
8
10
4
6
2
9
3
11
7
5

>  <PUBCHEM_MMFF94_PARTIAL_CHARGES>  (1) 
26
1 -0.2
10 -0.14
11 -0.14
12 0.27
13 0.1
14 0.1
15 -0.15
16 -0.15
17 -0.15
18 -0.15
19 -0.15
2 -0.81
20 -0.15
21 -0.15
22 -0.15
38 0.15
39 0.15
40 0.15
41 0.15
42 0.15
43 0.15
44 0.15
45 0.15
6 0.27
7 0.29
9 0.27

>  <PUBCHEM_EFFECTIVE_ROTOR_COUNT>  (1) 
3.6

>  <PUBCHEM_PHARMACOPHORE_FEATURES>  (1) 
5
1 2 cation
6 1 7 10 11 13 14 rings
6 10 13 15 17 19 21 rings
6 11 14 16 18 20 22 rings
6 2 3 5 6 8 9 rings

>  <PUBCHEM_HEAVY_ATOM_COUNT>  (1) 
22

>  <PUBCHEM_ATOM_DEF_STEREO_COUNT>  (1) 
0

>  <PUBCHEM_ATOM_UDEF_STEREO_COUNT>  (1) 
1

>  <PUBCHEM_BOND_DEF_STEREO_COUNT>  (1) 
0

>  <PUBCHEM_BOND_UDEF_STEREO_COUNT>  (1) 
0

>  <PUBCHEM_ISOTOPIC_ATOM_COUNT>  (1) 
0

>  <PUBCHEM_COMPONENT_COUNT>  (1) 
1

>  <PUBCHEM_CACTVS_TAUTO_COUNT>  (1) 
1

>  <PUBCHEM_CONFORMER_ID>  (1) 
0000104700000001

>  <PUBCHEM_MMFF94_ENERGY>  (1) 
59.2986

>  <PUBCHEM_FEATURE_SELFOVERLAP>  (1) 
25.403

>  <PUBCHEM_SHAPE_FINGERPRINT>  (1) 
10165383 225 18118996691615965836
105312 117 18262240031469494268
10688039 33 17542229403049276323
10871710 139 16673340390744084140
10930396 42 17973978711023265234
1100329 8 18411139091923059266
11582403 64 17677871557142379201
11725454 13 17967533484289830811
121448 382 18196920270324285047
12532896 13 18338230578446930878
12553582 1 17546736945762443139
12643181 29 18339932597874247892
12730499 353 18408891711524401473
12788726 201 17693917992999705606
12969540 114 18335413603865880549
13009979 54 16843042988361996963
13034934 17 18188789339156260291
13140716 1 18409736153133788730
13533116 47 18268430123737533633
13540713 4 17842008972952544348
13583140 156 16154535635846239004
13681431 1 17833260926843104154
13911987 19 18335706086791413365
15842332 3 17630889292523189809
16945 1 18270404858566794346
17138139 8 17555980871003691911
1813 80 17268920078222648719
18186145 218 18342744030761147704
18915476 22 18335981952993690521
204376 136 18408605893829625201
20567600 347 18261664918031533759
20645477 70 18193546784446644799
21033648 29 18335409205783069476
21285901 2 17766295536083767591
21452121 199 17687738338124811154
22182313 1 18265637517782795986
2255824 54 18199748042342796039
22907989 373 17762345012469324476
23419403 2 17196065583151796814
23559900 14 16806168722645872131
23598291 2 17702670921642559449
238 59 18339642235444552695
25 1 18272378572396761592
25222932 49 14930755108429372121
2748010 2 18194709126850657438
3060560 45 18409442566491396764
3380486 145 16542130217908848930
4340502 62 18410862074942222145
4409770 3 17907569582044952694
469060 322 17896319306645974479
474 4 18272089421986776792
495365 180 18116136789084529533
633830 44 18130240275994278833
6442390 28 18338244872061331099
6669772 16 18410573977337515942
70251023 43 18052533267054093911
7471813 234 17837484159437181039
81228 2 17758395562375659130
84936 182 18269556044122317264
9862522 239 18191312769507379155

>  <PUBCHEM_SHAPE_MULTIPOLES>  (1) 
451.62
8.42
3.89
1.5
6.25
4.58
-0.2
-8.43
-2.19
-2.48
0.65
1.03
-0.15
1.42

>  <PUBCHEM_SHAPE_SELFOVERLAP>  (1) 
962.975

>  <PUBCHEM_SHAPE_VOLUME>  (1) 
251

>  <PUBCHEM_COORDINATE_TYPE>  (1) 
2
5
10

$$$$
