41677
     RDKit          3D

  9  9  0  0  1  0  0  0  0  0999 V2000
    0.1468    0.3875   -0.3770 C   0  0  0  0  0  0  0  0  0  0  0  0
   -0.1465   -1.0199    0.1740 C   0  0  0  0  0  0  0  0  0  0  0  0
   -1.5369   -1.4981   -0.2358 C   0  0  0  0  0  0  0  0  0  0  0  0
   -2.6202   -0.5443    0.2711 C   0  0  0  0  0  0  0  0  0  0  0  0
   -1.0295    1.3189   -0.2252 C   0  0  0  0  0  0  0  0  0  0  0  0
    1.3906    0.9659    0.2982 C   0  0  0  0  0  0  0  0  0  0  0  0
   -2.2655    0.8997    0.0804 C   0  0  0  0  0  0  0  0  0  0  0  0
    2.5517    0.0975    0.0896 C   0  0  0  0  0  0  0  0  0  0  0  0
    3.5095   -0.6072   -0.0753 C   0  0  0  0  0  0  0  0  0  0  0  0
  1  2  1  0
  1  5  1  0
  1  6  1  0
  2  3  1  0
  3  4  1  0
  4  7  1  0
  5  7  2  0
  6  8  1  0
  8  9  3  0
M  END
>  <PUBCHEM_COMPOUND_CID>  (1) 
41677

>  <PUBCHEM_CONFORMER_RMSD>  (1) 
0.4

>  <PUBCHEM_CONFORMER_DIVERSEORDER>  (1) 
1
4
2
3

>  <PUBCHEM_MMFF94_PARTIAL_CHARGES>  (1) 
10
1 0.14
17 0.15
20 0.15
21 0.18
4 0.14
5 -0.29
6 0.2
7 -0.29
8 -0.2
9 -0.18

>  <PUBCHEM_EFFECTIVE_ROTOR_COUNT>  (1) 
1.8

>  <PUBCHEM_PHARMACOPHORE_FEATURES>  (1) 
2
1 9 hydrophobe
6 1 2 3 4 5 7 rings

>  <PUBCHEM_HEAVY_ATOM_COUNT>  (1) 
9

>  <PUBCHEM_ATOM_DEF_STEREO_COUNT>  (1) 
0

>  <PUBCHEM_ATOM_UDEF_STEREO_COUNT>  (1) 
1

>  <PUBCHEM_BOND_DEF_STEREO_COUNT>  (1) 
0

>  <PUBCHEM_BOND_UDEF_STEREO_COUNT>  (1) 
0

>  <PUBCHEM_ISOTOPIC_ATOM_COUNT>  (1) 
0

>  <PUBCHEM_COMPONENT_COUNT>  (1) 
1

>  <PUBCHEM_CACTVS_TAUTO_COUNT>  (1) 
1

>  <PUBCHEM_CONFORMER_ID>  (1) 
0000A2CD00000001

>  <PUBCHEM_MMFF94_ENERGY>  (1) 
3.3707

>  <PUBCHEM_FEATURE_SELFOVERLAP>  (1) 
10.148

>  <PUBCHEM_SHAPE_FINGERPRINT>  (1) 
12932764 1 17560518525062442588
13024252 1 15791731893073770481
14325111 11 18410292497543247560
16945 1 18411132528505363017
20201158 50 18201440246809810662
20645464 45 18060703866270961486
20871998 184 18200598115165549975
21040471 1 18338237063910799341
23235685 24 18339918208594530905
23402539 116 17774995766084196949
23552423 10 18115868671134135100
29004967 10 16845579720526816820
369184 2 15410894067508725494
5084963 1 18412544331516198265

>  <PUBCHEM_SHAPE_MULTIPOLES>  (1) 
185.22
4.64
1.46
0.67
3.13
0.09
0
0.69
-0.19
-0.6
0.04
-0.02
-0.01
0.06

>  <PUBCHEM_SHAPE_SELFOVERLAP>  (1) 
361.839

>  <PUBCHEM_SHAPE_VOLUME>  (1) 
108.7

>  <PUBCHEM_COORDINATE_TYPE>  (1) 
2
5
10

$$$$
