41686
     RDKit          3D

 20 19  0  0  0  0  0  0  0  0999 V2000
    2.9135    0.3450    2.1003 O   0  0  0  0  0  0  0  0  0  0  0  0
    0.3791    2.3020    0.1528 O   0  0  0  0  0  0  0  0  0  0  0  0
    1.2145   -0.7684   -1.9847 O   0  0  0  0  0  0  0  0  0  0  0  0
    3.8156    1.0368    0.2240 O   0  0  0  0  0  0  0  0  0  0  0  0
    1.5497    1.8253   -1.6386 O   0  0  0  0  0  0  0  0  0  0  0  0
    2.7653   -1.6243   -0.6901 O   0  0  0  0  0  0  0  0  0  0  0  0
   -3.9037    1.1540    0.5710 O   0  0  0  0  0  0  0  0  0  0  0  0
   -2.1746   -2.3727    0.5663 O   0  0  0  0  0  0  0  0  0  0  0  0
   -0.1460   -2.6802   -0.2323 O   0  0  0  0  0  0  0  0  0  0  0  0
   -2.8675    0.0367   -1.1597 O   0  0  0  0  0  0  0  0  0  0  0  0
   -0.7624   -0.6265    0.4440 N   0  0  0  0  0  0  0  0  0  0  0  0
    2.8714    0.5803    0.8832 N   0  0  0  0  0  0  0  0  0  0  0  0
    1.1424    1.5717   -0.4969 N   0  0  0  0  0  0  0  0  0  0  0  0
    1.8900   -0.7844   -0.9461 N   0  0  0  0  0  0  0  0  0  0  0  0
   -1.0512   -1.9772    0.2327 N   0  0  0  0  0  0  0  0  0  0  0  0
    1.5764    0.2506    0.1352 C   0  0  0  0  0  0  0  0  0  0  0  0
    0.5210   -0.3404    1.0889 C   0  0  0  0  0  0  0  0  0  0  0  0
   -1.8377    0.1698    1.0427 C   0  0  0  0  0  0  0  0  0  0  0  0
   -2.8994    0.4217    0.0012 C   0  0  0  0  0  0  0  0  0  0  0  0
   -4.9962    1.4805   -0.2940 C   0  0  0  0  0  0  0  0  0  0  0  0
  1 12  1  0
  2 13  1  0
  3 14  1  0
  4 12  2  0
  5 13  2  0
  6 14  2  0
  7 19  1  0
  7 20  1  0
  8 15  1  0
  9 15  2  0
 10 19  2  0
 11 15  1  0
 11 17  1  0
 11 18  1  0
 12 16  1  0
 13 16  1  0
 14 16  1  0
 16 17  1  0
 18 19  1  0
M  CHG  8   1  -1   2  -1   3  -1   8  -1  12   1  13   1  14   1  15   1
M  END
>  <PUBCHEM_COMPOUND_CID>  (1) 
41686

>  <PUBCHEM_CONFORMER_RMSD>  (1) 
0.8

>  <PUBCHEM_CONFORMER_DIVERSEORDER>  (1) 
1
11
37
21
26
20
7
24
34
13
5
9
35
18
32
36
6
17
2
31
30
4
29
27
10
25
8
28
15
12
16
22
33
23
19
3
14

>  <PUBCHEM_MMFF94_PARTIAL_CHARGES>  (1) 
20
1 -0.52
10 -0.57
11 -0.53
12 0.8
13 0.8
14 0.8
15 1.03
16 0.72
17 0.27
18 0.33
19 0.66
2 -0.52
20 0.28
3 -0.52
4 -0.52
5 -0.52
6 -0.52
7 -0.43
8 -0.52
9 -0.52

>  <PUBCHEM_EFFECTIVE_ROTOR_COUNT>  (1) 
9

>  <PUBCHEM_PHARMACOPHORE_FEATURES>  (1) 
12
1 1 acceptor
1 1 anion
1 10 acceptor
1 2 acceptor
1 2 anion
1 3 acceptor
1 3 anion
1 4 acceptor
1 5 acceptor
1 6 acceptor
1 8 acceptor
1 9 acceptor

>  <PUBCHEM_HEAVY_ATOM_COUNT>  (1) 
20

>  <PUBCHEM_ATOM_DEF_STEREO_COUNT>  (1) 
0

>  <PUBCHEM_ATOM_UDEF_STEREO_COUNT>  (1) 
0

>  <PUBCHEM_BOND_DEF_STEREO_COUNT>  (1) 
0

>  <PUBCHEM_BOND_UDEF_STEREO_COUNT>  (1) 
0

>  <PUBCHEM_ISOTOPIC_ATOM_COUNT>  (1) 
0

>  <PUBCHEM_COMPONENT_COUNT>  (1) 
1

>  <PUBCHEM_CACTVS_TAUTO_COUNT>  (1) 
1

>  <PUBCHEM_CONFORMER_ID>  (1) 
0000A2D600000001

>  <PUBCHEM_MMFF94_ENERGY>  (1) 
64.562

>  <PUBCHEM_FEATURE_SELFOVERLAP>  (1) 
61.247

>  <PUBCHEM_SHAPE_FINGERPRINT>  (1) 
12011746 2 18202006487024477492
12500047 106 18271522095666915586
13132413 78 17604139424244171820
14344429 50 17603308158888028444
15775835 57 17894630374605909489
15852999 172 18059856185750675690
16945 1 17676763193307223011
18186145 218 18270973340880957801
18511873 20 18040990760993703272
20082192 1 18124058950329185202
20233049 118 17677341506380008381
21069387 34 16056047813774904367
21501502 16 17970913494687108213
21524375 3 18260543438131082211
22892500 29 17418085521142231120
23402539 116 18271230677603661057
23419403 2 17195136251356107274
23557571 272 18201161073861782547
23559900 14 18271812302845031678
2748010 2 18270982213745931702
3060560 45 18337668595272478079
54040823 5 15985092025283184185

>  <PUBCHEM_SHAPE_MULTIPOLES>  (1) 
327.99
6.53
2.28
1.4
5.63
0.89
-0.11
-3.01
0.3
0.24
-0.3
-0.93
-0.1
0.41

>  <PUBCHEM_SHAPE_SELFOVERLAP>  (1) 
653.395

>  <PUBCHEM_SHAPE_VOLUME>  (1) 
189.5

>  <PUBCHEM_COORDINATE_TYPE>  (1) 
2
5
10

$$$$
