4169
     RDKit          3D

 19 19  0  0  1  0  0  0  0  0999 V2000
    0.4753    3.9581   -1.3052 Cl  0  0  0  0  0  0  0  0  0  0  0  0
   -3.8625   -0.9202    0.7643 O   0  0  0  0  0  0  0  0  0  0  0  0
   -1.4882    2.4307    0.0579 O   0  0  0  0  0  0  0  0  0  0  0  0
   -0.4412    0.3278    0.1890 N   0  0  0  0  0  0  0  0  0  0  0  0
   -1.5176   -0.3627    0.8973 C   0  0  0  0  0  0  0  0  0  0  0  0
    0.7600   -0.4155   -0.1538 C   0  0  0  0  0  0  0  0  0  0  0  0
    1.7861   -0.4326    0.7514 C   0  0  0  0  0  0  0  0  0  0  0  0
   -2.7973   -0.2898    0.0635 C   0  0  0  0  0  0  0  0  0  0  0  0
    0.7965   -1.0567   -1.3623 C   0  0  0  0  0  0  0  0  0  0  0  0
   -1.1114   -1.8075    1.1895 C   0  0  0  0  0  0  0  0  0  0  0  0
    1.7292    0.2740    2.0672 C   0  0  0  0  0  0  0  0  0  0  0  0
   -0.5248    1.6973   -0.1766 C   0  0  0  0  0  0  0  0  0  0  0  0
    2.9385   -1.1464    0.4227 C   0  0  0  0  0  0  0  0  0  0  0  0
    1.9489   -1.7707   -1.6910 C   0  0  0  0  0  0  0  0  0  0  0  0
   -0.3340   -1.0274   -2.3393 C   0  0  0  0  0  0  0  0  0  0  0  0
    3.0198   -1.8154   -0.7986 C   0  0  0  0  0  0  0  0  0  0  0  0
    3.0131    1.0412    2.3667 C   0  0  0  0  0  0  0  0  0  0  0  0
    0.6719    2.2297   -0.9459 C   0  0  0  0  0  0  0  0  0  0  0  0
   -5.0622   -0.9139    0.0031 C   0  0  0  0  0  0  0  0  0  0  0  0
  1 18  1  0
  2  8  1  0
  2 19  1  0
  3 12  2  0
  4  5  1  0
  4  6  1  0
  4 12  1  0
  5  8  1  0
  5 10  1  0
  6  7  2  0
  6  9  1  0
  7 11  1  0
  7 13  1  0
  9 14  2  0
  9 15  1  0
 11 17  1  0
 12 18  1  0
 13 16  2  0
 14 16  1  0
M  END
>  <PUBCHEM_COMPOUND_CID>  (1) 
4169

>  <PUBCHEM_CONFORMER_RMSD>  (1) 
0.8

>  <PUBCHEM_CONFORMER_DIVERSEORDER>  (1) 
3
25
50
8
68
57
27
63
41
66
21
22
48
42
43
40
70
31
56
19
5
49
39
54
12
47
64
16
60
36
35
15
30
32
14
6
67
7
62
26
44
55
9
65
51
29
46
33
37
53
38
69
24
20
59
73
4
13
10
28
23
2
11
58
74
61
17
72
18
34
71
52
45
1

>  <PUBCHEM_MMFF94_PARTIAL_CHARGES>  (1) 
20
1 -0.29
11 0.14
12 0.57
13 -0.15
14 -0.15
15 0.14
16 -0.15
18 0.35
19 0.28
2 -0.56
28 0.15
29 0.15
3 -0.57
33 0.15
4 -0.48
5 0.3
6 0.12
7 -0.14
8 0.28
9 -0.14

>  <PUBCHEM_EFFECTIVE_ROTOR_COUNT>  (1) 
7

>  <PUBCHEM_PHARMACOPHORE_FEATURES>  (1) 
4
1 17 hydrophobe
1 2 acceptor
1 3 acceptor
6 6 7 9 13 14 16 rings

>  <PUBCHEM_HEAVY_ATOM_COUNT>  (1) 
19

>  <PUBCHEM_ATOM_DEF_STEREO_COUNT>  (1) 
0

>  <PUBCHEM_ATOM_UDEF_STEREO_COUNT>  (1) 
1

>  <PUBCHEM_BOND_DEF_STEREO_COUNT>  (1) 
0

>  <PUBCHEM_BOND_UDEF_STEREO_COUNT>  (1) 
0

>  <PUBCHEM_ISOTOPIC_ATOM_COUNT>  (1) 
0

>  <PUBCHEM_COMPONENT_COUNT>  (1) 
1

>  <PUBCHEM_CACTVS_TAUTO_COUNT>  (1) 
1

>  <PUBCHEM_CONFORMER_ID>  (1) 
0000104900000003

>  <PUBCHEM_MMFF94_ENERGY>  (1) 
81.7231

>  <PUBCHEM_FEATURE_SELFOVERLAP>  (1) 
20.297

>  <PUBCHEM_SHAPE_FINGERPRINT>  (1) 
10165383 225 17702656817286594784
11582403 64 16323358813262124240
12617007 42 18337404789664518567
13583140 156 17908393915577094874
13898156 1 17098078034713035268
14142880 1 16695505342774427064
14817 1 15297209281371672884
15163728 17 16157115159187279653
15501101 241 17917999351566277355
15881359 60 18124563557341388260
16752209 62 17822010853080618491
16945 1 17560789996933960838
17357779 13 18270954636171971957
20233049 118 17675927594851609771
20344682 1 18272656731600736622
20600515 1 18261382373549899353
20645476 183 16308538933770096116
22112679 90 17900856801469338821
229495 10 16987980735562724785
23402539 116 18336831870781137199
23419403 2 18058441024033366381
23557571 272 18337108969032990928
23559900 14 18262235504647875334
2748010 2 18339913810310688541
298252 57 17331704824920150820
3052486 1 17970068842630410449
31174 14 17775281634337704266
3286 77 17632298930137349458
394222 165 17684372033015979145
4175511 376 17973469846273391261
6442390 28 17114677215698000993
7364860 26 18192445275115997149
77492 1 14116651143804599226
81228 2 18264219010665505337
81539 233 17755874356643993973
9841814 1 18040718108249103473
9999458 23 17346319349124810450

>  <PUBCHEM_SHAPE_MULTIPOLES>  (1) 
376.16
5.44
3.1
2.08
6.7
4.09
-0.08
-3.07
-1.84
-0.75
1.61
-1.52
-0.14
0.99

>  <PUBCHEM_SHAPE_SELFOVERLAP>  (1) 
754.965

>  <PUBCHEM_SHAPE_VOLUME>  (1) 
224.5

>  <PUBCHEM_COORDINATE_TYPE>  (1) 
2
5
10

$$$$
