41699
     RDKit          3D

 26 28  0  0  1  0  0  0  0  0999 V2000
   -4.3115   -1.8330    2.8665 Cl  0  0  0  0  0  0  0  0  0  0  0  0
   -2.0078    1.2117   -2.7213 Cl  0  0  0  0  0  0  0  0  0  0  0  0
    2.7859   -0.6088   -0.5571 O   0  0  0  0  0  0  0  0  0  0  0  0
    5.4185   -0.9836    0.3847 O   0  0  0  0  0  0  0  0  0  0  0  0
    1.6368   -1.7946   -2.5995 O   0  0  0  0  0  0  0  0  0  0  0  0
    6.8273    1.2239    1.2958 O   0  0  0  0  0  0  0  0  0  0  0  0
   -0.2893   -2.2770   -1.4719 N   0  0  0  0  0  0  0  0  0  0  0  0
    0.5888    0.4046   -0.4154 N   0  0  0  0  0  0  0  0  0  0  0  0
    1.3817   -0.8119   -0.4143 C   0  0  0  0  0  0  0  0  0  0  0  0
   -1.3883   -0.8958    0.2822 C   0  0  0  0  0  0  0  0  0  0  0  0
   -0.6547    0.3534   -0.0801 C   0  0  0  0  0  0  0  0  0  0  0  0
   -1.2484   -2.0809   -0.4571 C   0  0  0  0  0  0  0  0  0  0  0  0
    3.3103    0.1584    0.5164 C   0  0  0  0  0  0  0  0  0  0  0  0
    0.9255   -1.6370   -1.6054 C   0  0  0  0  0  0  0  0  0  0  0  0
    4.8181    0.3133    0.3534 C   0  0  0  0  0  0  0  0  0  0  0  0
   -1.4027    1.6435   -0.0959 C   0  0  0  0  0  0  0  0  0  0  0  0
   -2.3272   -0.8354    1.3253 C   0  0  0  0  0  0  0  0  0  0  0  0
   -2.1241   -3.1484   -0.2087 C   0  0  0  0  0  0  0  0  0  0  0  0
    5.4189    1.1367    1.4851 C   0  0  0  0  0  0  0  0  0  0  0  0
   -3.1574   -1.9230    1.5930 C   0  0  0  0  0  0  0  0  0  0  0  0
   -3.0681   -3.0724    0.8153 C   0  0  0  0  0  0  0  0  0  0  0  0
   -2.0417    2.1033   -1.2425 C   0  0  0  0  0  0  0  0  0  0  0  0
   -1.4457    2.3824    1.0822 C   0  0  0  0  0  0  0  0  0  0  0  0
   -2.7314    3.3153   -1.2110 C   0  0  0  0  0  0  0  0  0  0  0  0
   -2.1354    3.5944    1.1134 C   0  0  0  0  0  0  0  0  0  0  0  0
   -2.7781    4.0610   -0.0331 C   0  0  0  0  0  0  0  0  0  0  0  0
  1 20  1  0
  2 22  1  0
  3  9  1  0
  3 13  1  0
  4 15  1  0
  5 14  2  0
  6 19  1  0
  7 12  1  0
  7 14  1  0
  8  9  1  0
  8 11  2  0
  9 14  1  0
 10 11  1  0
 10 12  2  0
 10 17  1  0
 11 16  1  0
 12 18  1  0
 13 15  1  0
 15 19  1  0
 16 22  2  0
 16 23  1  0
 17 20  2  0
 18 21  2  0
 20 21  1  0
 22 24  1  0
 23 25  2  0
 24 26  2  0
 25 26  1  0
M  END
>  <PUBCHEM_COMPOUND_CID>  (1) 
41699

>  <PUBCHEM_CONFORMER_RMSD>  (1) 
0.8

>  <PUBCHEM_CONFORMER_DIVERSEORDER>  (1) 
1
35
14
53
19
27
76
29
18
63
82
75
55
81
20
37
56
36
68
32
60
59
9
23
84
22
79
51
2
28
65
85
71
80
24
38
52
31
8
48
72
15
54
30
61
57
34
70
78
83
12
44
62
17
33
49
45
74
67
43
41
16
66
42
11
73
5
50
25
26
4
77
87
3
69
10
47
64
46
6
7
40
13
21
86
58
39

>  <PUBCHEM_MMFF94_PARTIAL_CHARGES>  (1) 
36
1 -0.18
10 0.09
11 0.28
12 0.12
13 0.28
14 0.57
15 0.28
16 0.09
17 -0.15
18 -0.15
19 0.28
2 -0.18
20 0.18
21 -0.15
22 0.18
23 -0.15
24 -0.15
25 -0.15
26 -0.15
3 -0.56
31 0.37
32 0.15
33 0.15
36 0.15
37 0.15
38 0.15
39 0.15
4 -0.68
40 0.4
41 0.15
42 0.4
5 -0.57
6 -0.68
7 -0.55
8 -0.7
9 0.59

>  <PUBCHEM_EFFECTIVE_ROTOR_COUNT>  (1) 
5.4

>  <PUBCHEM_PHARMACOPHORE_FEATURES>  (1) 
11
1 3 acceptor
1 4 acceptor
1 4 donor
1 5 acceptor
1 6 acceptor
1 6 donor
1 7 donor
1 8 acceptor
6 10 12 17 18 20 21 rings
6 16 22 23 24 25 26 rings
7 7 8 9 10 11 12 14 rings

>  <PUBCHEM_HEAVY_ATOM_COUNT>  (1) 
26

>  <PUBCHEM_ATOM_DEF_STEREO_COUNT>  (1) 
0

>  <PUBCHEM_ATOM_UDEF_STEREO_COUNT>  (1) 
2

>  <PUBCHEM_BOND_DEF_STEREO_COUNT>  (1) 
0

>  <PUBCHEM_BOND_UDEF_STEREO_COUNT>  (1) 
0

>  <PUBCHEM_ISOTOPIC_ATOM_COUNT>  (1) 
0

>  <PUBCHEM_COMPONENT_COUNT>  (1) 
1

>  <PUBCHEM_CACTVS_TAUTO_COUNT>  (1) 
3

>  <PUBCHEM_CONFORMER_ID>  (1) 
0000A2E300000001

>  <PUBCHEM_MMFF94_ENERGY>  (1) 
91.2733

>  <PUBCHEM_FEATURE_SELFOVERLAP>  (1) 
55.884

>  <PUBCHEM_SHAPE_FINGERPRINT>  (1) 
10074138 170 18041007211092928913
10165383 225 17038432745937062213
10930396 42 18192691544166480304
11595378 159 18188226389229316462
12035758 1 18335998531931424635
12422481 6 18340502160763872473
12643181 29 18049163273059685846
12788726 201 18043553756867908682
12930653 34 18334290942686249466
13004483 165 18189911974851092889
13134695 92 17902520612266106079
13140716 1 18266187308256680515
13583140 156 18336812148929312178
13965767 371 17912120233139505787
14178342 30 18115319877451222986
14787075 74 18199738164503850661
14955137 171 17186209694264637671
15775530 1 18057058921033087910
17980427 23 17558847315071148659
17980427 26 15983445974513796303
20600515 1 18118141378970508467
21033648 144 17129840955020076896
21049683 118 18046325462594588625
21304303 282 17823674409989012621
21344244 78 17908460109718283659
21401589 2 18268987600810980369
22182313 1 18128272111578452670
22907989 373 18340760546207760116
22956985 138 16745650894121114946
23419403 2 16483279773113425807
283562 15 18260819445082182130
3380486 145 18341051934232785687
3380486 77 17170140228861845939
376196 1 17910374105458069404
3886686 26 17754173081254023826
4409770 3 18335406994222162503
469060 322 17773864466896944623
474 4 17838606760888320092
495365 180 16598167335368302765
497634 4 15410323485752282444
5104073 3 18261943073905471082
59554788 62 18130240332008481191
7288768 16 18193834843086623533
81228 2 18044123222824924595
90316 7 18267311000376577923
9981440 41 17986086566440887762

>  <PUBCHEM_SHAPE_MULTIPOLES>  (1) 
505.37
9.28
4.7
2.27
22.46
2.92
-0.48
0.47
6.84
-7.16
0.16
-1.17
-0.47
2.82

>  <PUBCHEM_SHAPE_SELFOVERLAP>  (1) 
1069.52

>  <PUBCHEM_SHAPE_VOLUME>  (1) 
281.6

>  <PUBCHEM_COORDINATE_TYPE>  (1) 
2
5
10

$$$$
