41695
     RDKit          3D

 18 17  0  0  0  0  0  0  0  0999 V2000
   -1.2109    1.2927   -0.0674 O   0  0  0  0  0  0  0  0  0  0  0  0
    0.6956   -1.4412    0.4199 O   0  0  0  0  0  0  0  0  0  0  0  0
   -3.4204    1.7695    0.3907 O   0  0  0  0  0  0  0  0  0  0  0  0
   -0.4368   -2.3449   -1.3748 O   0  0  0  0  0  0  0  0  0  0  0  0
   -2.9261   -1.4498   -0.1289 C   0  0  0  0  0  0  0  0  0  0  0  0
   -2.8202   -0.1600   -0.9651 C   0  0  0  0  0  0  0  0  0  0  0  0
   -1.6238   -1.7055    0.6515 C   0  0  0  0  0  0  0  0  0  0  0  0
   -4.0982   -1.3590    0.8559 C   0  0  0  0  0  0  0  0  0  0  0  0
   -2.5577    1.0717   -0.1244 C   0  0  0  0  0  0  0  0  0  0  0  0
   -0.4162   -1.8727   -0.2464 C   0  0  0  0  0  0  0  0  0  0  0  0
    0.7110    2.5523    0.6343 C   0  0  0  0  0  0  0  0  0  0  0  0
    3.0600   -1.0460    0.5820 C   0  0  0  0  0  0  0  0  0  0  0  0
   -0.8073    2.4523    0.6681 C   0  0  0  0  0  0  0  0  0  0  0  0
    1.9296   -1.5672   -0.2940 C   0  0  0  0  0  0  0  0  0  0  0  0
    1.2353    2.6877   -0.7924 C   0  0  0  0  0  0  0  0  0  0  0  0
    4.4089   -1.1359   -0.1259 C   0  0  0  0  0  0  0  0  0  0  0  0
    2.7485    2.8307   -0.8188 C   0  0  0  0  0  0  0  0  0  0  0  0
    5.5288   -0.5747    0.7357 C   0  0  0  0  0  0  0  0  0  0  0  0
  1  9  1  0
  1 13  1  0
  2 10  1  0
  2 14  1  0
  3  9  2  0
  4 10  2  0
  5  6  1  0
  5  7  1  0
  5  8  1  0
  6  9  1  0
  7 10  1  0
 11 13  1  0
 11 15  1  0
 12 14  1  0
 12 16  1  0
 15 17  1  0
 16 18  1  0
M  END
>  <PUBCHEM_COMPOUND_CID>  (1) 
41695

>  <PUBCHEM_CONFORMER_RMSD>  (1) 
1.2

>  <PUBCHEM_CONFORMER_DIVERSEORDER>  (1) 
1
8
36
5
62
19
78
7
60
10
44
55
76
61
13
57
85
32
18
51
73
25
69
9
72
30
37
12
59
50
22
81
29
49
21
84
4
82
80
79
38
75
70
52
66
3
83
56
31
14
40
2
24
35
58
48
54
63
23
71
53
65
17
42
77
41
68
28
47
39
45
43
67
11
74
26
16
34
46
6
27
33
20
15
64

>  <PUBCHEM_MMFF94_PARTIAL_CHARGES>  (1) 
10
1 -0.43
10 0.66
13 0.28
14 0.28
2 -0.43
3 -0.57
4 -0.57
6 0.06
7 0.06
9 0.66

>  <PUBCHEM_EFFECTIVE_ROTOR_COUNT>  (1) 
12

>  <PUBCHEM_PHARMACOPHORE_FEATURES>  (1) 
5
1 17 hydrophobe
1 18 hydrophobe
1 3 acceptor
1 4 acceptor
1 8 hydrophobe

>  <PUBCHEM_HEAVY_ATOM_COUNT>  (1) 
18

>  <PUBCHEM_ATOM_DEF_STEREO_COUNT>  (1) 
0

>  <PUBCHEM_ATOM_UDEF_STEREO_COUNT>  (1) 
0

>  <PUBCHEM_BOND_DEF_STEREO_COUNT>  (1) 
0

>  <PUBCHEM_BOND_UDEF_STEREO_COUNT>  (1) 
0

>  <PUBCHEM_ISOTOPIC_ATOM_COUNT>  (1) 
0

>  <PUBCHEM_COMPONENT_COUNT>  (1) 
1

>  <PUBCHEM_CACTVS_TAUTO_COUNT>  (1) 
1

>  <PUBCHEM_CONFORMER_ID>  (1) 
0000A2DF00000001

>  <PUBCHEM_MMFF94_ENERGY>  (1) 
9.7314

>  <PUBCHEM_FEATURE_SELFOVERLAP>  (1) 
25.373

>  <PUBCHEM_SHAPE_FINGERPRINT>  (1) 
10493431 412 17982738476235948665
10498660 4 18267300928762424518
10730089 173 18411422800614404046
10730089 88 17698748933986660054
10989021 7 18410857706696965491
11595378 159 18117813570498227122
13140716 1 18411987948884608633
13544592 271 18268990891156413615
14022349 108 18194416691217342107
14142880 1 18058735672012027395
18336668 15 18186239541901288452
20671657 1 18126846237980448899
20905425 154 18124888012161169486
21041028 32 18412271657328332457
21249577 28 18337676416228673300
23402539 116 18341883049006376910
23419403 2 18115856559907012447
23557571 272 18270977755928646438
3524813 1 18059559266493451898
5282940 2 18189346838986489668
59554788 191 18410009931660596831
9925002 15 17628898312671894638

>  <PUBCHEM_SHAPE_MULTIPOLES>  (1) 
346.95
8.06
3.76
1
6.82
2.53
-0.1
-3.02
1.45
0.87
-0.3
-0.06
-0.02
-0.57

>  <PUBCHEM_SHAPE_SELFOVERLAP>  (1) 
650.898

>  <PUBCHEM_SHAPE_VOLUME>  (1) 
216

>  <PUBCHEM_COORDINATE_TYPE>  (1) 
2
5
10

$$$$
