41690
     RDKit          3D

 13 14  0  0  0  0  0  0  0  0999 V2000
   -4.3965   -0.0099   -0.4544 O   0  0  0  0  0  0  0  0  0  0  0  0
    1.0773    0.0072   -0.2406 C   0  0  0  0  0  0  0  0  0  0  0  0
   -0.3543    0.0084    0.2923 C   0  0  0  0  0  0  0  0  0  0  0  0
    1.8284    1.2637    0.2207 C   0  0  0  0  0  0  0  0  0  0  0  0
    1.8176   -1.2635    0.1977 C   0  0  0  0  0  0  0  0  0  0  0  0
   -1.1062    1.2609   -0.1815 C   0  0  0  0  0  0  0  0  0  0  0  0
   -1.0989   -1.2573   -0.1565 C   0  0  0  0  0  0  0  0  0  0  0  0
    3.2792    1.2597   -0.2555 C   0  0  0  0  0  0  0  0  0  0  0  0
    3.2685   -1.2633   -0.2782 C   0  0  0  0  0  0  0  0  0  0  0  0
    4.0092   -0.0089    0.1746 C   0  0  0  0  0  0  0  0  0  0  0  0
   -2.5402    1.2878    0.3312 C   0  0  0  0  0  0  0  0  0  0  0  0
   -2.5331   -1.2822    0.3562 C   0  0  0  0  0  0  0  0  0  0  0  0
   -3.2511   -0.0025   -0.0061 C   0  0  0  0  0  0  0  0  0  0  0  0
  1 13  2  0
  2  3  1  0
  2  4  1  0
  2  5  1  0
  3  6  1  0
  3  7  1  0
  4  8  1  0
  5  9  1  0
  6 11  1  0
  7 12  1  0
  8 10  1  0
  9 10  1  0
 11 13  1  0
 12 13  1  0
M  END
>  <PUBCHEM_COMPOUND_CID>  (1) 
41690

>  <PUBCHEM_CONFORMER_RMSD>  (1) 
0.6

>  <PUBCHEM_CONFORMER_DIVERSEORDER>  (1) 
1
9
7
6
4
5
3
8
2

>  <PUBCHEM_MMFF94_PARTIAL_CHARGES>  (1) 
4
1 -0.57
11 0.06
12 0.06
13 0.45

>  <PUBCHEM_EFFECTIVE_ROTOR_COUNT>  (1) 
3.2

>  <PUBCHEM_PHARMACOPHORE_FEATURES>  (1) 
3
1 1 acceptor
6 2 4 5 8 9 10 rings
6 3 6 7 11 12 13 rings

>  <PUBCHEM_HEAVY_ATOM_COUNT>  (1) 
13

>  <PUBCHEM_ATOM_DEF_STEREO_COUNT>  (1) 
0

>  <PUBCHEM_ATOM_UDEF_STEREO_COUNT>  (1) 
0

>  <PUBCHEM_BOND_DEF_STEREO_COUNT>  (1) 
0

>  <PUBCHEM_BOND_UDEF_STEREO_COUNT>  (1) 
0

>  <PUBCHEM_ISOTOPIC_ATOM_COUNT>  (1) 
0

>  <PUBCHEM_COMPONENT_COUNT>  (1) 
1

>  <PUBCHEM_CACTVS_TAUTO_COUNT>  (1) 
2

>  <PUBCHEM_CONFORMER_ID>  (1) 
0000A2DA00000001

>  <PUBCHEM_MMFF94_ENERGY>  (1) 
15.4845

>  <PUBCHEM_FEATURE_SELFOVERLAP>  (1) 
15.223

>  <PUBCHEM_SHAPE_FINGERPRINT>  (1) 
10608611 8 18410571786307985400
11132069 177 18409443721742608192
11471102 20 18410853265763831550
12032990 46 18410017636583940803
12162725 195 18341615897228295816
12251169 10 18410854365254405670
12932764 1 17489302027180860456
13221675 6 18410293614097568538
13296908 3 18261397783876719587
13380535 76 18410856564088166426
14144814 61 18411421687289323194
14251717 144 18411417302228168046
14325111 11 18411420591967375400
14897335 6 18411416237033879158
15196674 1 18410856559650339089
15219456 202 18410295838858862458
15442244 35 18195247707122412834
15536298 74 18342176661491639366
15775835 57 18411705391248584776
16945 1 18410583885051068488
17802600 8 18410568479172455584
17834074 16 18410577288145046474
18186145 218 18040715848700542950
18522853 276 18342172263371476848
200 152 18060132141952529541
20201158 50 18412546500490571866
20279233 1 18334580148144793002
20510252 161 18200877275328916049
20528008 55 18410852178978869501
20645477 70 18412544284287746222
21267235 1 18410865351538396082
21501502 16 18412548673743939232
21501925 9 18410848842100536538
23402539 116 18272923917458455069
23402655 69 18341327812460635549
23463225 33 18409449172198382076
23559900 14 18411979127232558130
2748010 2 18337396057532022350
3312278 4 18336831991061171083
5104073 3 18410857659156693105
57096353 35 18339361988691072836
57812782 119 18410011030982261792
581208 293 18410290333090525576
69090 78 18341890796858152111
7364860 26 18343582954170080112
8809292 202 18260834825217449226
93112 12 18410577300998195934
9709674 26 18411987961442605638

>  <PUBCHEM_SHAPE_MULTIPOLES>  (1) 
261.66
7.3
1.62
0.68
0.5
0
-0.01
-0.01
0.38
-0.27
-0.03
0.02
0
0.02

>  <PUBCHEM_SHAPE_SELFOVERLAP>  (1) 
527.457

>  <PUBCHEM_SHAPE_VOLUME>  (1) 
150.9

>  <PUBCHEM_COORDINATE_TYPE>  (1) 
2
5
10

$$$$
