4170
     RDKit          3D

 24 26  0  0  1  0  0  0  0  0999 V2000
   -4.7772    1.7921    0.7310 Cl  0  0  0  0  0  0  0  0  0  0  0  0
   -4.4850   -1.2855   -0.2154 S   0  0  0  0  0  0  0  0  0  0  0  0
    0.7238   -1.7093   -0.6592 O   0  0  0  0  0  0  0  0  0  0  0  0
   -5.6289   -0.4202   -0.4879 O   0  0  0  0  0  0  0  0  0  0  0  0
   -4.0731   -2.2921   -1.1877 O   0  0  0  0  0  0  0  0  0  0  0  0
    1.7379    0.3733   -0.2363 N   0  0  0  0  0  0  0  0  0  0  0  0
    0.2858    2.2204    0.3224 N   0  0  0  0  0  0  0  0  0  0  0  0
   -4.7755   -2.0739    1.2846 N   0  0  0  0  0  0  0  0  0  0  0  0
    1.5082    1.8271   -0.3578 C   0  0  0  0  0  0  0  0  0  0  0  0
   -0.8286    1.4068    0.2088 C   0  0  0  0  0  0  0  0  0  0  0  0
   -0.7035    0.0683   -0.1797 C   0  0  0  0  0  0  0  0  0  0  0  0
    0.6502   -0.5134   -0.3866 C   0  0  0  0  0  0  0  0  0  0  0  0
    3.0940   -0.1162   -0.1002 C   0  0  0  0  0  0  0  0  0  0  0  0
    1.4393    2.2768   -1.8212 C   0  0  0  0  0  0  0  0  0  0  0  0
   -1.8383   -0.7441   -0.3085 C   0  0  0  0  0  0  0  0  0  0  0  0
   -2.1050    1.9077    0.4992 C   0  0  0  0  0  0  0  0  0  0  0  0
   -3.1026   -0.2233   -0.0376 C   0  0  0  0  0  0  0  0  0  0  0  0
    3.6252   -0.3942    1.1560 C   0  0  0  0  0  0  0  0  0  0  0  0
   -3.2360    1.1002    0.3719 C   0  0  0  0  0  0  0  0  0  0  0  0
    3.8601   -0.3049   -1.2469 C   0  0  0  0  0  0  0  0  0  0  0  0
    4.9336   -0.8646    1.2665 C   0  0  0  0  0  0  0  0  0  0  0  0
    2.8216   -0.1997    2.4007 C   0  0  0  0  0  0  0  0  0  0  0  0
    5.1684   -0.7757   -1.1364 C   0  0  0  0  0  0  0  0  0  0  0  0
    5.7054   -1.0554    0.1203 C   0  0  0  0  0  0  0  0  0  0  0  0
  1 19  1  0
  2  4  2  0
  2  5  2  0
  2  8  1  0
  2 17  1  0
  3 12  2  0
  6  9  1  0
  6 12  1  0
  6 13  1  0
  7  9  1  0
  7 10  1  0
  9 14  1  0
 10 11  2  0
 10 16  1  0
 11 12  1  0
 11 15  1  0
 13 18  2  0
 13 20  1  0
 15 17  2  0
 16 19  2  0
 17 19  1  0
 18 21  1  0
 18 22  1  0
 20 23  2  0
 21 24  2  0
 23 24  1  0
M  END
>  <PUBCHEM_COMPOUND_CID>  (1) 
4170

>  <PUBCHEM_CONFORMER_RMSD>  (1) 
0.6

>  <PUBCHEM_CONFORMER_DIVERSEORDER>  (1) 
3
1
6
4
2
5

>  <PUBCHEM_MMFF94_PARTIAL_CHARGES>  (1) 
32
1 -0.18
10 0.1
11 0.09
12 0.54
13 0.12
15 -0.15
16 -0.15
17 -0.01
18 -0.14
19 0.18
2 1.45
20 -0.15
21 -0.15
22 0.14
23 -0.15
24 -0.15
26 0.4
3 -0.57
30 0.15
31 0.15
32 0.15
33 0.15
37 0.15
38 0.15
39 0.42
4 -0.65
40 0.42
5 -0.65
6 -0.48
7 -0.87
8 -0.98
9 0.67

>  <PUBCHEM_EFFECTIVE_ROTOR_COUNT>  (1) 
2.6

>  <PUBCHEM_PHARMACOPHORE_FEATURES>  (1) 
9
1 3 acceptor
1 4 acceptor
1 5 acceptor
1 7 cation
1 7 donor
1 8 donor
6 10 11 15 16 17 19 rings
6 13 18 20 21 23 24 rings
6 6 7 9 10 11 12 rings

>  <PUBCHEM_HEAVY_ATOM_COUNT>  (1) 
24

>  <PUBCHEM_ATOM_DEF_STEREO_COUNT>  (1) 
0

>  <PUBCHEM_ATOM_UDEF_STEREO_COUNT>  (1) 
1

>  <PUBCHEM_BOND_DEF_STEREO_COUNT>  (1) 
0

>  <PUBCHEM_BOND_UDEF_STEREO_COUNT>  (1) 
0

>  <PUBCHEM_ISOTOPIC_ATOM_COUNT>  (1) 
0

>  <PUBCHEM_COMPONENT_COUNT>  (1) 
1

>  <PUBCHEM_CACTVS_TAUTO_COUNT>  (1) 
2

>  <PUBCHEM_CONFORMER_ID>  (1) 
0000104A00000003

>  <PUBCHEM_MMFF94_ENERGY>  (1) 
88.4239

>  <PUBCHEM_FEATURE_SELFOVERLAP>  (1) 
45.714

>  <PUBCHEM_SHAPE_FINGERPRINT>  (1) 
10062212 137 18410013247617981149
11045977 3 17489580143329797657
11545043 162 17989204832640298858
11552529 35 14763477496205960271
11796584 16 17603580833529783307
12236239 1 18113340782749628118
12403259 415 17561360682244535354
12553582 1 17821444638688379552
13009979 54 18337966644027401977
13140716 1 18412266150990855137
13583140 156 16558742395363443348
13675066 3 17632293479828813629
13760787 5 17458350723430199892
13782708 43 17703791367315710534
13862211 1 18413105069561793567
14178342 30 18199756855710548585
15183329 4 17895182278515375757
15196674 1 18341615931614713260
15537594 2 18040720212302790314
15788980 27 18342458162180242095
1601671 61 18337674105420217076
17138139 8 17460027590063417691
17349148 13 18409730677129301959
17804303 29 18272368659464607944
17844677 252 18060421321884512608
1813 80 18186805747202238164
18222031 100 18409442605040503270
18681886 176 18411421747783070068
18785283 64 17273677936383437856
18927931 339 18343867723408098463
193927 3 18410864282065048687
200 152 16660647298353956160
20028762 73 18059571463911286423
20626108 58 18261106400289254640
21033648 29 17203030907577237610
21267235 1 18341058484205228303
22182313 1 17845383158508460551
22950370 63 18186803548078696834
23402539 116 18335138661333544598
23557571 272 17846788381798111685
23559900 14 18188769573595528761
25147074 1 18337125534880620437
3004659 81 18334573581725106631
312423 11 18261967352643821293
335352 9 18413390926254257973
351380 3 18259704488577513899
4340502 62 13470413300786011589
465052 167 18261117404032494054
5104073 3 18341337768395444201
559249 180 18409728422830523705
59755656 215 18201720604952807799
7970288 3 18407758140501000626
8863177 126 17825399737081199643
9981440 41 17398676091491193688

>  <PUBCHEM_SHAPE_MULTIPOLES>  (1) 
467.08
12.33
2.25
1.45
0.47
0.53
-0.36
-5.8
-0.95
2.18
0.32
-1.31
-0.05
-0.99

>  <PUBCHEM_SHAPE_SELFOVERLAP>  (1) 
993.668

>  <PUBCHEM_SHAPE_VOLUME>  (1) 
262.8

>  <PUBCHEM_COORDINATE_TYPE>  (1) 
2
5
10

$$$$
