41715
     RDKit          3D

 11 10  0  0  1  0  0  0  0  0999 V2000
    2.3418    1.4484   -1.0504 N   0  0  0  0  0  0  0  0  0  0  0  0
    1.4402    0.9550    0.0058 C   0  0  0  0  0  0  0  0  0  0  0  0
    0.0313    0.8226   -0.6279 C   0  0  0  0  0  0  0  0  0  0  0  0
    2.0041   -0.3786    0.5602 C   0  0  0  0  0  0  0  0  0  0  0  0
   -1.0677    0.3213    0.3184 C   0  0  0  0  0  0  0  0  0  0  0  0
    1.4338    2.0014    1.1359 C   0  0  0  0  0  0  0  0  0  0  0  0
   -2.3948    0.1430   -0.4250 C   0  0  0  0  0  0  0  0  0  0  0  0
    2.0081   -1.5506   -0.4296 C   0  0  0  0  0  0  0  0  0  0  0  0
   -3.4845   -0.3933    0.5030 C   0  0  0  0  0  0  0  0  0  0  0  0
    2.4997   -2.8295    0.2330 C   0  0  0  0  0  0  0  0  0  0  0  0
   -4.8121   -0.5398   -0.2233 C   0  0  0  0  0  0  0  0  0  0  0  0
  1  2  1  0
  2  3  1  0
  2  4  1  0
  2  6  1  0
  3  5  1  0
  4  8  1  0
  5  7  1  0
  7  9  1  0
  8 10  1  0
  9 11  1  0
M  END
>  <PUBCHEM_COMPOUND_CID>  (1) 
41715

>  <PUBCHEM_CONFORMER_RMSD>  (1) 
0.6

>  <PUBCHEM_CONFORMER_DIVERSEORDER>  (1) 
5
76
87
85
43
74
49
41
60
89
57
69
63
40
82
14
66
7
80
9
92
32
13
75
47
29
84
25
86
2
54
15
62
22
81
61
78
8
35
79
45
68
90
48
26
83
20
67
38
71
88
37
70
77
17
3
51
24
1
56
64
91
27
30
36
52
73
16
4
44
65
39
53
42
10
58
11
28
21
72
19
59
23
46
50
12
31
33
6
55
18
34

>  <PUBCHEM_MMFF94_PARTIAL_CHARGES>  (1) 
4
1 -0.99
2 0.27
25 0.36
26 0.36

>  <PUBCHEM_EFFECTIVE_ROTOR_COUNT>  (1) 
6

>  <PUBCHEM_PHARMACOPHORE_FEATURES>  (1) 
5
1 1 cation
1 1 donor
1 10 hydrophobe
1 11 hydrophobe
4 3 5 7 9 hydrophobe

>  <PUBCHEM_HEAVY_ATOM_COUNT>  (1) 
11

>  <PUBCHEM_ATOM_DEF_STEREO_COUNT>  (1) 
0

>  <PUBCHEM_ATOM_UDEF_STEREO_COUNT>  (1) 
1

>  <PUBCHEM_BOND_DEF_STEREO_COUNT>  (1) 
0

>  <PUBCHEM_BOND_UDEF_STEREO_COUNT>  (1) 
0

>  <PUBCHEM_ISOTOPIC_ATOM_COUNT>  (1) 
0

>  <PUBCHEM_COMPONENT_COUNT>  (1) 
1

>  <PUBCHEM_CACTVS_TAUTO_COUNT>  (1) 
1

>  <PUBCHEM_CONFORMER_ID>  (1) 
0000A2F300000005

>  <PUBCHEM_MMFF94_ENERGY>  (1) 
0.9131

>  <PUBCHEM_FEATURE_SELFOVERLAP>  (1) 
25.372

>  <PUBCHEM_SHAPE_FINGERPRINT>  (1) 
12346645 6 18334857268014109620
12616999 72 18042131006164927189
12932764 1 18131067177737314117
13533116 47 18413111671897043019
14251717 144 18410571786519040435
14252887 29 18113343046018201161
15477762 27 18335984190139135630
18186145 218 17821442435849892537
20201158 50 18333453131541360723
20559304 39 18202282502464862601
20645477 70 18261106379389424503
20708731 107 18408327687438837510
20711985 344 16734384889897394037
20871998 22 18265609892784886418
21665056 4 15961464241841245934
23380061 451 18272655649052602609
23500284 5 17908140980140932218
23530152 11 18193000550131691598
23557571 272 16950275204881022429
3248919 1 17968373546050388097
522135 26 18410294718415665133
581208 293 18336261340320935199
7364860 26 18343017813456218864
81539 233 18114466781008273612
94968 8 18335424521493522026

>  <PUBCHEM_SHAPE_MULTIPOLES>  (1) 
221.39
6.63
2.31
0.95
10.23
1.05
0.01
2.86
-0.06
-3.14
0.3
-0.3
-0.31
-0.05

>  <PUBCHEM_SHAPE_SELFOVERLAP>  (1) 
396.317

>  <PUBCHEM_SHAPE_VOLUME>  (1) 
145.2

>  <PUBCHEM_COORDINATE_TYPE>  (1) 
2
5
10

$$$$
