4172
     RDKit          3D

 32 32  0  0  1  0  0  0  0  0999 V2000
   -0.0907   -2.6733   -0.5637 I   0  0  0  0  0  0  0  0  0  0  0  0
    0.8934    3.3460   -0.8810 I   0  0  0  0  0  0  0  0  0  0  0  0
    5.6126   -0.4995   -0.4228 I   0  0  0  0  0  0  0  0  0  0  0  0
   -3.0610   -1.1153    1.8410 O   0  0  0  0  0  0  0  0  0  0  0  0
   -5.6347   -1.5437    1.1534 O   0  0  0  0  0  0  0  0  0  0  0  0
   -7.2365    0.3721   -0.0801 O   0  0  0  0  0  0  0  0  0  0  0  0
   -6.3464    0.1618   -2.6693 O   0  0  0  0  0  0  0  0  0  0  0  0
   -2.3427    1.8083    2.6988 O   0  0  0  0  0  0  0  0  0  0  0  0
   -1.2211    0.5401   -1.8874 O   0  0  0  0  0  0  0  0  0  0  0  0
    3.7063   -4.3792    0.9562 O   0  0  0  0  0  0  0  0  0  0  0  0
    4.1491    2.7880    1.6052 O   0  0  0  0  0  0  0  0  0  0  0  0
   -1.3437    0.6584    0.4256 N   0  0  0  0  0  0  0  0  0  0  0  0
    3.1258   -2.5508   -0.4170 N   0  0  0  0  0  0  0  0  0  0  0  0
    3.9061    2.2240   -0.6693 N   0  0  0  0  0  0  0  0  0  0  0  0
   -3.5640   -0.4322    0.6839 C   0  0  0  0  0  0  0  0  0  0  0  0
   -5.0845   -0.2503    0.8680 C   0  0  0  0  0  0  0  0  0  0  0  0
   -2.7675    0.8676    0.5094 C   0  0  0  0  0  0  0  0  0  0  0  0
   -5.8302    0.3589   -0.3311 C   0  0  0  0  0  0  0  0  0  0  0  0
   -5.6027   -0.4398   -1.6139 C   0  0  0  0  0  0  0  0  0  0  0  0
   -3.0022    1.8253    1.6623 C   0  0  0  0  0  0  0  0  0  0  0  0
   -0.6810    0.5101   -0.7847 C   0  0  0  0  0  0  0  0  0  0  0  0
    0.7835    0.2751   -0.7002 C   0  0  0  0  0  0  0  0  0  0  0  0
    1.2548   -1.0224   -0.5992 C   0  0  0  0  0  0  0  0  0  0  0  0
    2.6298   -1.2431   -0.5201 C   0  0  0  0  0  0  0  0  0  0  0  0
    1.6439    1.3588   -0.7247 C   0  0  0  0  0  0  0  0  0  0  0  0
    3.0190    1.1382   -0.6457 C   0  0  0  0  0  0  0  0  0  0  0  0
    3.5120   -0.1628   -0.5433 C   0  0  0  0  0  0  0  0  0  0  0  0
    3.3451   -3.3228   -1.6754 C   0  0  0  0  0  0  0  0  0  0  0  0
    3.3444   -3.2055    0.8398 C   0  0  0  0  0  0  0  0  0  0  0  0
    4.3965    2.9550    0.4153 C   0  0  0  0  0  0  0  0  0  0  0  0
    3.1544   -2.3966    2.1024 C   0  0  0  0  0  0  0  0  0  0  0  0
    5.3321    4.0497   -0.0326 C   0  0  0  0  0  0  0  0  0  0  0  0
  1 23  1  0
  2 25  1  0
  3 27  1  0
  4 15  1  0
  5 16  1  0
  6 18  1  0
  7 19  1  0
  8 20  2  0
  9 21  2  0
 10 29  2  0
 11 30  2  0
 12 17  1  0
 12 21  1  0
 13 24  1  0
 13 28  1  0
 13 29  1  0
 14 26  1  0
 14 30  1  0
 15 16  1  0
 15 17  1  0
 16 18  1  0
 17 20  1  0
 18 19  1  0
 21 22  1  0
 22 23  2  0
 22 25  1  0
 23 24  1  0
 24 27  2  0
 25 26  2  0
 26 27  1  0
 29 31  1  0
 30 32  1  0
M  END
>  <PUBCHEM_COMPOUND_CID>  (1) 
4172

>  <PUBCHEM_CONFORMER_RMSD>  (1) 
1.2

>  <PUBCHEM_CONFORMER_DIVERSEORDER>  (1) 
1
112
197
207
4
142
119
43
72
154
38
108
83
215
93
143
121
55
21
50
102
116
182
87
34
39
75
135
173
91
58
24
3
18
156
132
152
10
90
16
206
5
66
191
65
123
84
15
13
155
158
188
37
208
110
19
166
180
174
49
27
95
60
8
176
212
56
30
199
53
92
111
159
54
69
7
124
181
125
96
88
48
164
41
115
133
168
179
79
74
81
113
185
40
200
22
146
2
14
117
47
80
9
26
44
128
169
98
134
118
192
195
23
6
86
67
198
94
175
213
64
127
171
33
177
89
57
210
186
62
172
100
42
25
138
97
28
190
162
170
178
103
61
99
148
193
36
187
68
136
194
202
204
120
52
189
105
203
163
70
51
139
214
63
183
122
153
17
78
114
71
29
109
149
82
147
141
45
73
140
59
144
130
201
12
150
137
46
101
11
145
151
104
76
31
196
129
35
77
167
85
209
184
161
106
126
107
160
131
32
20
165
157
205
211

>  <PUBCHEM_MMFF94_PARTIAL_CHARGES>  (1) 
39
1 -0.08
10 -0.57
11 -0.57
12 -0.73
13 -0.48
14 -0.55
15 0.28
16 0.28
17 0.36
18 0.28
19 0.28
2 -0.08
20 0.45
21 0.54
22 0.09
23 0.08
24 0.12
25 0.08
26 0.12
27 0.08
28 0.3
29 0.57
3 -0.08
30 0.57
31 0.06
32 0.06
37 0.37
4 -0.68
40 0.06
41 0.4
42 0.4
43 0.4
44 0.4
45 0.37
5 -0.68
6 -0.68
7 -0.68
8 -0.57
9 -0.57

>  <PUBCHEM_EFFECTIVE_ROTOR_COUNT>  (1) 
12

>  <PUBCHEM_PHARMACOPHORE_FEATURES>  (1) 
18
1 1 hydrophobe
1 10 acceptor
1 11 acceptor
1 12 donor
1 14 donor
1 2 hydrophobe
1 3 hydrophobe
1 4 acceptor
1 4 donor
1 5 acceptor
1 5 donor
1 6 acceptor
1 6 donor
1 7 acceptor
1 7 donor
1 8 acceptor
1 9 acceptor
6 22 23 24 25 26 27 rings

>  <PUBCHEM_HEAVY_ATOM_COUNT>  (1) 
32

>  <PUBCHEM_ATOM_DEF_STEREO_COUNT>  (1) 
0

>  <PUBCHEM_ATOM_UDEF_STEREO_COUNT>  (1) 
4

>  <PUBCHEM_BOND_DEF_STEREO_COUNT>  (1) 
0

>  <PUBCHEM_BOND_UDEF_STEREO_COUNT>  (1) 
0

>  <PUBCHEM_ISOTOPIC_ATOM_COUNT>  (1) 
0

>  <PUBCHEM_COMPONENT_COUNT>  (1) 
1

>  <PUBCHEM_CACTVS_TAUTO_COUNT>  (1) 
8

>  <PUBCHEM_CONFORMER_ID>  (1) 
0000104C00000001

>  <PUBCHEM_MMFF94_ENERGY>  (1) 
142.4638

>  <PUBCHEM_FEATURE_SELFOVERLAP>  (1) 
91.391

>  <PUBCHEM_SHAPE_FINGERPRINT>  (1) 
11475781 23 17095787851272706661
11796584 16 14779557793965347360
12236239 1 17846780741199303893
12633257 1 17977119958716274843
13140716 1 17617093608760852276
13533116 47 18408889503700273331
14787075 74 17703234021883010433
14790565 3 17541955620765162084
14955137 171 18269565944945126582
15183329 4 16443060617454010931
17349148 13 18270686364130626007
17809404 112 17895205440746430419
20511986 3 18270954752278500607
21033648 29 17458061573874439213
21049683 118 17912341420182275272
2132832 1 18199468779590786761
21703447 108 18335134246313139592
23559900 14 18260835899338658913
23845131 108 18192430990576925842
3178227 256 18408599267670637296
32027 91 18115020788956517915
3633792 109 18410853227520764573
4073 2 18115315591548440147
5104073 3 18339093596770451449
59755656 215 18260551117337357364
8988823 20 18408601435548012014

>  <PUBCHEM_SHAPE_MULTIPOLES>  (1) 
632.45
14.51
4.71
1.9
20.81
0.29
0.36
-1.49
-0.84
-9.33
0.71
1.71
0.15
-0.22

>  <PUBCHEM_SHAPE_SELFOVERLAP>  (1) 
1235.446

>  <PUBCHEM_SHAPE_VOLUME>  (1) 
389.4

>  <PUBCHEM_COORDINATE_TYPE>  (1) 
2
5
10

$$$$
