41728
     RDKit          3D

 14 15  0  0  1  0  0  0  0  0999 V2000
    1.2567   -1.5153    0.5768 O   0  0  0  0  0  0  0  0  0  0  0  0
    2.1306    1.4579    1.4508 N   0  0  0  0  0  0  0  0  0  0  0  0
    1.5936    1.3707    0.0893 C   0  0  0  0  0  0  0  0  0  0  0  0
    2.6344    0.8097   -0.8960 C   0  0  0  0  0  0  0  0  0  0  0  0
    0.2701    0.6334    0.0454 C   0  0  0  0  0  0  0  0  0  0  0  0
    3.1822   -0.5858   -0.5875 C   0  0  0  0  0  0  0  0  0  0  0  0
    0.1612   -0.7440    0.2890 C   0  0  0  0  0  0  0  0  0  0  0  0
    2.1035   -1.6591   -0.5659 C   0  0  0  0  0  0  0  0  0  0  0  0
   -0.9102    1.3536   -0.2028 C   0  0  0  0  0  0  0  0  0  0  0  0
   -2.1543    0.7184   -0.1989 C   0  0  0  0  0  0  0  0  0  0  0  0
   -1.0846   -1.3778    0.3185 C   0  0  0  0  0  0  0  0  0  0  0  0
   -2.2414   -0.6458    0.0654 C   0  0  0  0  0  0  0  0  0  0  0  0
   -3.3803    1.5273   -0.4710 C   0  0  0  0  0  0  0  0  0  0  0  0
   -3.5615   -1.3433    0.0869 C   0  0  0  0  0  0  0  0  0  0  0  0
  1  7  1  0
  1  8  1  0
  2  3  1  0
  3  4  1  0
  3  5  1  0
  4  6  1  0
  5  7  2  0
  5  9  1  0
  6  8  1  0
  7 11  1  0
  9 10  2  0
 10 12  1  0
 10 13  1  0
 11 12  2  0
 12 14  1  0
M  END
>  <PUBCHEM_COMPOUND_CID>  (1) 
41728

>  <PUBCHEM_CONFORMER_RMSD>  (1) 
0.4

>  <PUBCHEM_CONFORMER_DIVERSEORDER>  (1) 
1
3
2
4

>  <PUBCHEM_MMFF94_PARTIAL_CHARGES>  (1) 
16
1 -0.36
10 -0.14
11 -0.15
12 -0.14
13 0.14
14 0.14
2 -0.99
22 0.15
23 0.15
24 0.36
25 0.36
3 0.41
5 -0.14
7 0.08
8 0.28
9 -0.15

>  <PUBCHEM_EFFECTIVE_ROTOR_COUNT>  (1) 
1

>  <PUBCHEM_PHARMACOPHORE_FEATURES>  (1) 
5
1 1 acceptor
1 2 cation
1 2 donor
6 5 7 9 10 11 12 rings
7 1 3 4 5 6 7 8 rings

>  <PUBCHEM_HEAVY_ATOM_COUNT>  (1) 
14

>  <PUBCHEM_ATOM_DEF_STEREO_COUNT>  (1) 
0

>  <PUBCHEM_ATOM_UDEF_STEREO_COUNT>  (1) 
1

>  <PUBCHEM_BOND_DEF_STEREO_COUNT>  (1) 
0

>  <PUBCHEM_BOND_UDEF_STEREO_COUNT>  (1) 
0

>  <PUBCHEM_ISOTOPIC_ATOM_COUNT>  (1) 
0

>  <PUBCHEM_COMPONENT_COUNT>  (1) 
1

>  <PUBCHEM_CACTVS_TAUTO_COUNT>  (1) 
1

>  <PUBCHEM_CONFORMER_ID>  (1) 
0000A30000000001

>  <PUBCHEM_MMFF94_ENERGY>  (1) 
40.58

>  <PUBCHEM_FEATURE_SELFOVERLAP>  (1) 
25.382

>  <PUBCHEM_SHAPE_FINGERPRINT>  (1) 
10608611 8 18410571803482534389
10967382 1 18192431861996149415
11206711 2 18334862722812408319
12032990 46 18263934387562220875
12932764 1 17988926720839161053
13140716 1 18337104558518108339
13380535 21 18336554832753290097
13897977 150 18409448046864346101
14325111 11 18407762542593812045
14911166 2 18194118517212521429
15219456 202 18343016717975983145
15279308 100 18190735337150978373
15775835 57 18187936014610688069
161256 15 18412545452455020739
16945 1 18192710261834337335
17844478 74 18114761424528832515
18186145 218 18265043648887156293
20201158 50 18341616958354360414
20645477 70 18060697299513840805
21501502 16 18335703823353443783
22802520 49 18341896272872778709
2334 1 18408601478893128843
23402655 69 18339071576436389653
23552423 10 18259988162661836911
23559900 14 18341055134541947422
25 1 18190461545859950781
2748010 2 18408881837173009399
5084963 1 18339370754635031360
528886 8 18187930538606597716
53812653 166 18410852127428868480
63268167 104 18339088077041026304
7364860 26 18273209798786657618

>  <PUBCHEM_SHAPE_MULTIPOLES>  (1) 
277.26
5.39
1.99
0.88
1.65
0.09
0.12
0.1
-0.89
0.16
0.07
-0.47
-0.18
0.57

>  <PUBCHEM_SHAPE_SELFOVERLAP>  (1) 
582.934

>  <PUBCHEM_SHAPE_VOLUME>  (1) 
156.5

>  <PUBCHEM_COORDINATE_TYPE>  (1) 
2
5
10

$$$$
