41720
     RDKit          3D

 21 23  0  0  1  0  0  0  0  0999 V2000
    1.4443    2.2081   -0.4173 O   0  0  0  0  0  0  0  0  0  0  0  0
   -0.2613   -1.0072    1.6248 O   0  0  0  0  0  0  0  0  0  0  0  0
   -2.2503    0.2303    0.2559 N   0  0  0  0  0  0  0  0  0  0  0  0
   -4.7952   -0.7309   -0.7231 N   0  0  0  0  0  0  0  0  0  0  0  0
   -0.8927    0.7390    0.0707 C   0  0  0  0  0  0  0  0  0  0  0  0
   -2.3874   -1.1123   -0.3220 C   0  0  0  0  0  0  0  0  0  0  0  0
   -3.2350    1.1454   -0.3340 C   0  0  0  0  0  0  0  0  0  0  0  0
   -3.8114   -1.6457   -0.1312 C   0  0  0  0  0  0  0  0  0  0  0  0
   -4.6591    0.6115   -0.1446 C   0  0  0  0  0  0  0  0  0  0  0  0
   -0.7633    2.1583    0.6179 C   0  0  0  0  0  0  0  0  0  0  0  0
    0.0778   -0.2036    0.7606 C   0  0  0  0  0  0  0  0  0  0  0  0
    0.6850    2.6246    0.7182 C   0  0  0  0  0  0  0  0  0  0  0  0
    1.5059   -0.1378    0.3396 C   0  0  0  0  0  0  0  0  0  0  0  0
   -6.1531   -1.2397   -0.5400 C   0  0  0  0  0  0  0  0  0  0  0  0
    2.0808    1.0054   -0.2380 C   0  0  0  0  0  0  0  0  0  0  0  0
    2.2812   -1.2958    0.4947 C   0  0  0  0  0  0  0  0  0  0  0  0
    3.3995    0.9588   -0.7045 C   0  0  0  0  0  0  0  0  0  0  0  0
    3.6042   -1.3228    0.0513 C   0  0  0  0  0  0  0  0  0  0  0  0
    4.1603   -0.1997   -0.5551 C   0  0  0  0  0  0  0  0  0  0  0  0
    4.4003   -2.5748    0.2252 C   0  0  0  0  0  0  0  0  0  0  0  0
    5.5696   -0.2110   -1.0490 C   0  0  0  0  0  0  0  0  0  0  0  0
  1 12  1  0
  1 15  1  0
  2 11  2  0
  3  5  1  0
  3  6  1  0
  3  7  1  0
  4  8  1  0
  4  9  1  0
  4 14  1  0
  5 10  1  0
  5 11  1  0
  6  8  1  0
  7  9  1  0
 10 12  1  0
 11 13  1  0
 13 15  2  0
 13 16  1  0
 15 17  1  0
 16 18  2  0
 17 19  2  0
 18 19  1  0
 18 20  1  0
 19 21  1  0
M  END
>  <PUBCHEM_COMPOUND_CID>  (1) 
41720

>  <PUBCHEM_CONFORMER_RMSD>  (1) 
0.6

>  <PUBCHEM_CONFORMER_DIVERSEORDER>  (1) 
4
42
30
21
55
14
60
13
1
36
47
8
22
20
43
19
57
5
35
29
40
2
15
53
3
7
58
16
18
12
48
59
27
23
54
17
46
9
10
33
38
11
28
25
41
32
49
37
52
50
34
56
44
31
45
6
24
51
26
39

>  <PUBCHEM_MMFF94_PARTIAL_CHARGES>  (1) 
22
1 -0.36
11 0.42
12 0.28
13 0.09
14 0.27
15 0.08
16 -0.15
17 -0.15
18 -0.14
19 -0.14
2 -0.57
20 0.14
21 0.14
3 -0.81
38 0.15
39 0.15
4 -0.81
5 0.33
6 0.27
7 0.27
8 0.27
9 0.27

>  <PUBCHEM_EFFECTIVE_ROTOR_COUNT>  (1) 
3

>  <PUBCHEM_PHARMACOPHORE_FEATURES>  (1) 
7
1 1 acceptor
1 2 acceptor
1 3 cation
1 4 cation
6 13 15 16 17 18 19 rings
6 3 4 6 7 8 9 rings
7 1 5 10 11 12 13 15 rings

>  <PUBCHEM_HEAVY_ATOM_COUNT>  (1) 
21

>  <PUBCHEM_ATOM_DEF_STEREO_COUNT>  (1) 
0

>  <PUBCHEM_ATOM_UDEF_STEREO_COUNT>  (1) 
1

>  <PUBCHEM_BOND_DEF_STEREO_COUNT>  (1) 
0

>  <PUBCHEM_BOND_UDEF_STEREO_COUNT>  (1) 
0

>  <PUBCHEM_ISOTOPIC_ATOM_COUNT>  (1) 
0

>  <PUBCHEM_COMPONENT_COUNT>  (1) 
1

>  <PUBCHEM_CACTVS_TAUTO_COUNT>  (1) 
2

>  <PUBCHEM_CONFORMER_ID>  (1) 
0000A2F800000004

>  <PUBCHEM_MMFF94_ENERGY>  (1) 
68.9468

>  <PUBCHEM_FEATURE_SELFOVERLAP>  (1) 
35.532

>  <PUBCHEM_SHAPE_FINGERPRINT>  (1) 
11089746 13 11891335386856657207
11796584 16 17632300081462878695
12236239 1 18335985285292167900
12553582 1 18272639156304398191
12596602 18 12535335810134404895
12670546 177 18186803577721481534
12788726 201 18200881660279320776
12892183 10 11455880386681622269
13955234 65 17984417709711890273
14576447 43 18411139130360772478
14790565 3 17619914959260937377
14931854 50 18261112954478024470
15183329 4 18411980235550190645
15188451 53 15194705940436870437
15196674 1 18410011005164946317
15352361 1 18412824663984161383
15536298 74 18341889748786028593
17349148 13 17418376917646148831
17492 89 18196653982663909934
1798214 20 18412544305883440630
18186145 218 17749100110828095955
18222031 100 17917989490289587335
19784866 140 18335416859793618323
19784866 240 17918002689014179703
19862831 5 18187365419568026465
200 152 18412265021313605570
20281475 54 18341613672440582872
20369508 70 18272647991046948432
204376 136 8214138568857519857
20612939 158 18261115222273491061
20626108 58 17273964916975257223
20645477 70 18272091642394801988
20871999 31 18408602544013311271
21250096 35 18343581836924662688
21267235 1 18412552032983351631
21285901 2 17603862274151757782
21634736 98 18410574028101442461
21756936 100 10954328262531576290
221357 26 18408035226352554213
221490 88 18264211494335535147
22854114 59 9511465523914376535
22950370 63 18413672396460935451
23379529 103 18200603604007550214
23402539 116 18340486677622898340
23402655 69 18260549978833634452
23522609 53 18126033618212266737
23557571 272 17702952413841402296
23559900 14 18264766734622414281
23622692 118 18265332799360951090
25147074 1 18117570522630524384
2748010 2 17686075185385928664
2871803 45 18261108586406138964
3004659 81 18260546680673596198
314194 84 18412826902026411763
3323516 105 18335135444751205985
335352 9 18341611487273024093
351380 3 18131070441453451983
46194498 28 17603865658453923581
465052 167 18130792304088440479
5104073 3 18343301448632759585
6786 2 16263453429476676025
7164475 11 18264770948523174476
7808743 9 8573840482475894342
7970288 3 18342452608477201751
8863177 126 18118411876496347899
9709674 26 18192710274977981555
9981440 41 17401198370801230945

>  <PUBCHEM_SHAPE_MULTIPOLES>  (1) 
410.47
11.57
2.41
0.94
6.37
0.57
-0.11
-6.35
4.02
-0.74
-0.33
-0.28
-0.03
-0.67

>  <PUBCHEM_SHAPE_SELFOVERLAP>  (1) 
871.128

>  <PUBCHEM_SHAPE_VOLUME>  (1) 
229.5

>  <PUBCHEM_COORDINATE_TYPE>  (1) 
2
5
10

$$$$
