41722
     RDKit          3D

 20 22  0  0  1  0  0  0  0  0999 V2000
    1.0319   -2.2169    0.3512 O   0  0  0  0  0  0  0  0  0  0  0  0
   -0.5468    1.1530   -1.5378 O   0  0  0  0  0  0  0  0  0  0  0  0
   -2.5676   -0.0251   -0.1619 N   0  0  0  0  0  0  0  0  0  0  0  0
   -1.2341   -0.6110   -0.0281 C   0  0  0  0  0  0  0  0  0  0  0  0
   -2.6112    1.3025    0.4671 C   0  0  0  0  0  0  0  0  0  0  0  0
   -3.5819   -0.9193    0.4138 C   0  0  0  0  0  0  0  0  0  0  0  0
   -3.9857    1.9507    0.2931 C   0  0  0  0  0  0  0  0  0  0  0  0
   -4.9881   -0.3438    0.2384 C   0  0  0  0  0  0  0  0  0  0  0  0
   -5.0935    1.0549    0.8355 C   0  0  0  0  0  0  0  0  0  0  0  0
   -1.1933   -2.0151   -0.6259 C   0  0  0  0  0  0  0  0  0  0  0  0
   -0.2310    0.3030   -0.7101 C   0  0  0  0  0  0  0  0  0  0  0  0
    0.2253   -2.5530   -0.7783 C   0  0  0  0  0  0  0  0  0  0  0  0
    1.2009    0.1476   -0.3275 C   0  0  0  0  0  0  0  0  0  0  0  0
    1.7274   -1.0437    0.1966 C   0  0  0  0  0  0  0  0  0  0  0  0
    2.0331    1.2679   -0.4629 C   0  0  0  0  0  0  0  0  0  0  0  0
    3.0572   -1.0829    0.6311 C   0  0  0  0  0  0  0  0  0  0  0  0
    3.3656    1.2101   -0.0523 C   0  0  0  0  0  0  0  0  0  0  0  0
    3.8750    0.0387    0.5018 C   0  0  0  0  0  0  0  0  0  0  0  0
    4.2230    2.4238   -0.2039 C   0  0  0  0  0  0  0  0  0  0  0  0
    5.2940   -0.0413    0.9602 C   0  0  0  0  0  0  0  0  0  0  0  0
  1 12  1  0
  1 14  1  0
  2 11  2  0
  3  4  1  0
  3  5  1  0
  3  6  1  0
  4 10  1  0
  4 11  1  0
  5  7  1  0
  6  8  1  0
  7  9  1  0
  8  9  1  0
 10 12  1  0
 11 13  1  0
 13 14  2  0
 13 15  1  0
 14 16  1  0
 15 17  2  0
 16 18  2  0
 17 18  1  0
 17 19  1  0
 18 20  1  0
M  END
>  <PUBCHEM_COMPOUND_CID>  (1) 
41722

>  <PUBCHEM_CONFORMER_RMSD>  (1) 
0.6

>  <PUBCHEM_CONFORMER_DIVERSEORDER>  (1) 
1
6
25
18
41
27
17
3
44
24
31
23
10
33
5
40
2
20
35
9
22
13
12
7
34
37
16
14
36
11
21
43
8
39
19
38
30
32
26
42
29
28
4
15

>  <PUBCHEM_MMFF94_PARTIAL_CHARGES>  (1) 
18
1 -0.36
11 0.42
12 0.28
13 0.09
14 0.08
15 -0.15
16 -0.15
17 -0.14
18 -0.14
19 0.14
2 -0.57
20 0.14
3 -0.81
36 0.15
37 0.15
4 0.33
5 0.27
6 0.27

>  <PUBCHEM_EFFECTIVE_ROTOR_COUNT>  (1) 
3

>  <PUBCHEM_PHARMACOPHORE_FEATURES>  (1) 
6
1 1 acceptor
1 2 acceptor
1 3 cation
6 13 14 15 16 17 18 rings
6 3 5 6 7 8 9 rings
7 1 4 10 11 12 13 14 rings

>  <PUBCHEM_HEAVY_ATOM_COUNT>  (1) 
20

>  <PUBCHEM_ATOM_DEF_STEREO_COUNT>  (1) 
0

>  <PUBCHEM_ATOM_UDEF_STEREO_COUNT>  (1) 
1

>  <PUBCHEM_BOND_DEF_STEREO_COUNT>  (1) 
0

>  <PUBCHEM_BOND_UDEF_STEREO_COUNT>  (1) 
0

>  <PUBCHEM_ISOTOPIC_ATOM_COUNT>  (1) 
0

>  <PUBCHEM_COMPONENT_COUNT>  (1) 
1

>  <PUBCHEM_CACTVS_TAUTO_COUNT>  (1) 
2

>  <PUBCHEM_CONFORMER_ID>  (1) 
0000A2FA00000001

>  <PUBCHEM_MMFF94_ENERGY>  (1) 
57.1291

>  <PUBCHEM_FEATURE_SELFOVERLAP>  (1) 
30.456

>  <PUBCHEM_SHAPE_FINGERPRINT>  (1) 
10493431 412 18338234989436398540
11370993 70 18411699859731699339
11796584 16 12973606620938360009
12107183 9 17760365492139024393
12173636 292 18200584929663112174
12236239 1 18408602586583215171
12251169 10 18335137596213407534
12390115 104 18198643183454421200
12403259 118 18336537257409790873
12592029 89 18409452462022434170
12596602 18 17749390412063171625
12633257 1 17385722499942302384
12788726 201 17469623152661524382
12892183 10 18114468937150362953
13140716 1 18262233438842231834
13583140 156 17168687666284128999
14178342 30 18114756979433093739
14341114 176 18337678516034976234
14341114 328 18201727262336622225
14739800 52 17986380312619887408
14787075 74 18202280351218828291
14790565 3 18263091062149433508
15188451 53 16154004555509692019
15196674 1 18410012160505854713
15209294 21 18342736329631175672
15238133 3 18060702792999136584
15536298 74 18270687458935842951
16945 1 18189036656337394646
1798214 20 8646768884921313608
1813 80 16660651721526563534
18222031 100 12685095907902053937
19784866 9 18412544275692023864
20157964 124 18195806272542407685
20261772 1 18335982051377141602
204376 136 18342741827495347559
20626108 58 13335321826093050665
20715895 44 17905886981853169665
20739085 24 17967818253923533164
21267235 1 18408611361370472250
21524375 3 18342457053720217343
21756936 100 18057880432623788644
22182313 1 18043804286726747014
22854114 59 18410012113482845017
23184049 59 18260830414275109852
23402539 116 17988916790869608405
23503953 91 18340758334636712400
23558518 356 17833828652884418084
23559900 14 18056765329789864055
25147074 1 18189887807507721150
2748010 2 17760347913159745254
2838139 119 15410311335516143290
2916195 48 17489294322136210600
335352 9 18411418406678218230
350125 39 18335138679199566844
38570 142 17460902802205129724
4409770 3 15959786386749061183
474 4 18410294696413379627
474229 33 18342457071511977351
5104073 3 18189888889617999360
633830 44 18131074796740116341
7064713 232 18412539929248514456
7364860 26 18128262185645417151
7808743 9 18197779010597088712
8272917 22 18199755751914425015
9709674 26 18338244769499197603

>  <PUBCHEM_SHAPE_MULTIPOLES>  (1) 
394.87
10.27
2.39
0.94
2.49
0.42
-0.09
-4.65
3.5
-0.34
-0.31
-0.12
-0.03
-0.73

>  <PUBCHEM_SHAPE_SELFOVERLAP>  (1) 
840.6

>  <PUBCHEM_SHAPE_VOLUME>  (1) 
219.3

>  <PUBCHEM_COORDINATE_TYPE>  (1) 
2
5
10

$$$$
