41745
     RDKit          3D

 37 39  0  0  1  0  0  0  0  0999 V2000
    4.0506    0.7472    2.8501 Cl  0  0  0  0  0  0  0  0  0  0  0  0
    5.2137   -3.5336   -1.5413 Cl  0  0  0  0  0  0  0  0  0  0  0  0
   -5.3843   -3.4930   -0.9826 Cl  0  0  0  0  0  0  0  0  0  0  0  0
   -5.4344   -0.4403    3.4531 Cl  0  0  0  0  0  0  0  0  0  0  0  0
    2.8179    1.7244    0.2635 O   0  0  0  0  0  0  0  0  0  0  0  0
   -2.7701    2.1380   -0.1549 O   0  0  0  0  0  0  0  0  0  0  0  0
    4.5915   -0.6540   -2.0421 O   0  0  0  0  0  0  0  0  0  0  0  0
   -4.1284   -1.0872   -2.2392 O   0  0  0  0  0  0  0  0  0  0  0  0
    4.8377    2.0342   -0.7965 O   0  0  0  0  0  0  0  0  0  0  0  0
   -3.6866    1.5902   -2.1943 O   0  0  0  0  0  0  0  0  0  0  0  0
    0.0690    2.3805   -0.1381 N   0  0  0  0  0  0  0  0  0  0  0  0
    1.0247    3.3095    0.4662 C   0  0  0  0  0  0  0  0  0  0  0  0
   -0.7388    2.8428   -1.2428 C   0  0  0  0  0  0  0  0  0  0  0  0
   -0.0575    1.0782    0.3642 C   0  0  0  0  0  0  0  0  0  0  0  0
    2.4192    3.0463   -0.0762 C   0  0  0  0  0  0  0  0  0  0  0  0
   -2.1103    3.2641   -0.7433 C   0  0  0  0  0  0  0  0  0  0  0  0
   -0.4223    0.8764    1.6953 C   0  0  0  0  0  0  0  0  0  0  0  0
    0.1812   -0.0161   -0.4671 C   0  0  0  0  0  0  0  0  0  0  0  0
   -0.5482   -0.4198    2.1952 C   0  0  0  0  0  0  0  0  0  0  0  0
    0.0550   -1.3122    0.0327 C   0  0  0  0  0  0  0  0  0  0  0  0
   -0.3095   -1.5141    1.3639 C   0  0  0  0  0  0  0  0  0  0  0  0
    4.0552    1.3457   -0.1601 C   0  0  0  0  0  0  0  0  0  0  0  0
   -3.5364    1.3692   -0.9865 C   0  0  0  0  0  0  0  0  0  0  0  0
    4.3493   -0.0491    0.2553 C   0  0  0  0  0  0  0  0  0  0  0  0
   -4.1528    0.2605   -0.2709 C   0  0  0  0  0  0  0  0  0  0  0  0
    4.6103   -1.0079   -0.7237 C   0  0  0  0  0  0  0  0  0  0  0  0
   -4.4343   -0.9434   -0.9167 C   0  0  0  0  0  0  0  0  0  0  0  0
    4.3660   -0.4064    1.6035 C   0  0  0  0  0  0  0  0  0  0  0  0
   -4.4622    0.4161    1.0803 C   0  0  0  0  0  0  0  0  0  0  0  0
    4.8877   -2.3240   -0.3545 C   0  0  0  0  0  0  0  0  0  0  0  0
   -5.0251   -1.9917   -0.2114 C   0  0  0  0  0  0  0  0  0  0  0  0
    4.6435   -1.7225    1.9728 C   0  0  0  0  0  0  0  0  0  0  0  0
   -5.0529   -0.6323    1.7858 C   0  0  0  0  0  0  0  0  0  0  0  0
    4.9042   -2.6813    0.9938 C   0  0  0  0  0  0  0  0  0  0  0  0
   -5.3342   -1.8362    1.1399 C   0  0  0  0  0  0  0  0  0  0  0  0
    3.3444   -0.7656   -2.7224 C   0  0  0  0  0  0  0  0  0  0  0  0
   -2.8330   -1.5925   -2.5508 C   0  0  0  0  0  0  0  0  0  0  0  0
  1 28  1  0
  2 30  1  0
  3 31  1  0
  4 33  1  0
  5 15  1  0
  5 22  1  0
  6 16  1  0
  6 23  1  0
  7 26  1  0
  7 36  1  0
  8 27  1  0
  8 37  1  0
  9 22  2  0
 10 23  2  0
 11 12  1  0
 11 13  1  0
 11 14  1  0
 12 15  1  0
 13 16  1  0
 14 17  2  0
 14 18  1  0
 17 19  1  0
 18 20  2  0
 19 21  2  0
 20 21  1  0
 22 24  1  0
 23 25  1  0
 24 26  2  0
 24 28  1  0
 25 27  2  0
 25 29  1  0
 26 30  1  0
 27 31  1  0
 28 32  2  0
 29 33  2  0
 30 34  2  0
 31 35  2  0
 32 34  1  0
 33 35  1  0
M  END
>  <PUBCHEM_COMPOUND_CID>  (1) 
41745

>  <PUBCHEM_CONFORMER_RMSD>  (1) 
1.4

>  <PUBCHEM_CONFORMER_DIVERSEORDER>  (1) 
2
127
110
162
179
14
172
190
64
136
120
74
103
84
170
86
58
112
147
91
174
59
118
92
83
180
75
114
48
168
122
188
149
22
129
27
93
65
6
98
85
87
52
26
163
77
29
137
189
119
79
101
144
151
141
169
123
135
132
171
50
131
90
69
89
126
53
191
3
121
55
57
143
100
67
165
150
51
166
31
117
146
152
43
99
157
159
134
60
88
28
160
44
185
8
184
54
36
107
46
133
18
80
148
158
94
161
17
19
173
106
81
42
183
140
1
176
145
4
128
37
82
153
164
187
78
96
30
182
175
20
56
71
33
125
47
49
178
39
16
66
116
111
9
115
95
186
38
124
72
32
13
61
130
108
139
102
62
167
154
177
12
25
5
68
73
23
155
105
15
34
113
24
45
156
70
11
97
142
41
104
63
10
40
109
21
181
7
76
138
35

>  <PUBCHEM_MMFF94_PARTIAL_CHARGES>  (1) 
46
1 -0.18
10 -0.57
11 -0.84
12 0.37
13 0.37
14 0.1
15 0.28
16 0.28
17 -0.15
18 -0.15
19 -0.15
2 -0.18
20 -0.15
21 -0.15
22 0.63
23 0.63
24 0.09
25 0.09
26 0.08
27 0.08
28 0.18
29 -0.15
3 -0.18
30 0.18
31 0.18
32 -0.15
33 0.18
34 -0.15
35 -0.15
36 0.28
37 0.28
4 -0.18
46 0.15
47 0.15
48 0.15
49 0.15
5 -0.43
50 0.15
51 0.15
52 0.15
53 0.15
54 0.15
6 -0.43
7 -0.36
8 -0.36
9 -0.57

>  <PUBCHEM_EFFECTIVE_ROTOR_COUNT>  (1) 
13

>  <PUBCHEM_PHARMACOPHORE_FEATURES>  (1) 
8
1 10 acceptor
1 11 cation
1 7 acceptor
1 8 acceptor
1 9 acceptor
6 14 17 18 19 20 21 rings
6 24 26 28 30 32 34 rings
6 25 27 29 31 33 35 rings

>  <PUBCHEM_HEAVY_ATOM_COUNT>  (1) 
37

>  <PUBCHEM_ATOM_DEF_STEREO_COUNT>  (1) 
0

>  <PUBCHEM_ATOM_UDEF_STEREO_COUNT>  (1) 
0

>  <PUBCHEM_BOND_DEF_STEREO_COUNT>  (1) 
0

>  <PUBCHEM_BOND_UDEF_STEREO_COUNT>  (1) 
0

>  <PUBCHEM_ISOTOPIC_ATOM_COUNT>  (1) 
0

>  <PUBCHEM_COMPONENT_COUNT>  (1) 
1

>  <PUBCHEM_CACTVS_TAUTO_COUNT>  (1) 
1

>  <PUBCHEM_CONFORMER_ID>  (1) 
0000A31100000002

>  <PUBCHEM_MMFF94_ENERGY>  (1) 
133.8395

>  <PUBCHEM_FEATURE_SELFOVERLAP>  (1) 
40.605

>  <PUBCHEM_SHAPE_FINGERPRINT>  (1) 
10928967 22 18335985341338109559
11991303 11 17532930490280559821
12422481 6 18130797719941687671
13692114 37 17697600992023519137
13782708 43 17531529888512751539
14950920 106 16845568708061878251
17349148 13 17531256006457561478
17909252 39 18267014136363065520
25222932 49 18409726305400961292
2838139 119 7925643180523385389
460360 51 18261099764580307708
50009960 94 17970317414020747482

>  <PUBCHEM_SHAPE_MULTIPOLES>  (1) 
728.72
14.77
4.01
2.8
1.13
0.59
-0.85
-10.86
-1.52
-1.15
1.57
1.03
-0.77
0.58

>  <PUBCHEM_SHAPE_SELFOVERLAP>  (1) 
1519.597

>  <PUBCHEM_SHAPE_VOLUME>  (1) 
415.6

>  <PUBCHEM_COORDINATE_TYPE>  (1) 
2
5
10

$$$$
