41751
     RDKit          3D

 11 10  0  0  0  0  0  0  0  0999 V2000
   -3.3005    0.6081   -1.3446 N   0  0  0  0  0  0  0  0  0  0  0  0
   -3.1568    0.0000   -0.0169 C   0  0  0  0  0  0  0  0  0  0  0  0
   -1.7648   -0.6620    0.1456 C   0  0  0  0  0  0  0  0  0  0  0  0
   -0.5578    0.2749   -0.0095 C   0  0  0  0  0  0  0  0  0  0  0  0
    0.7575   -0.5019    0.1112 C   0  0  0  0  0  0  0  0  0  0  0  0
    2.0014    0.3851    0.0030 C   0  0  0  0  0  0  0  0  0  0  0  0
    3.3146   -0.3991    0.0496 C   0  0  0  0  0  0  0  0  0  0  0  0
   -4.2405   -1.0831    0.1119 C   0  0  0  0  0  0  0  0  0  0  0  0
   -3.4029    1.0833    1.0421 C   0  0  0  0  0  0  0  0  0  0  0  0
    4.5211    0.5353   -0.0499 C   0  0  0  0  0  0  0  0  0  0  0  0
    5.8287   -0.2406   -0.0425 C   0  0  0  0  0  0  0  0  0  0  0  0
  1  2  1  0
  2  3  1  0
  2  8  1  0
  2  9  1  0
  3  4  1  0
  4  5  1  0
  5  6  1  0
  6  7  1  0
  7 10  1  0
 10 11  1  0
M  END
>  <PUBCHEM_COMPOUND_CID>  (1) 
41751

>  <PUBCHEM_CONFORMER_RMSD>  (1) 
0.6

>  <PUBCHEM_CONFORMER_DIVERSEORDER>  (1) 
1
26
78
56
77
3
87
82
39
59
19
85
22
23
21
29
74
72
88
33
2
71
32
15
75
27
16
69
76
28
73
45
79
65
81
42
30
36
66
86
84
51
12
14
83
68
31
6
80
8
24
13
89
18
53
64
9
20
43
62
55
35
17
11
48
34
57
10
44
25
41
70
7
54
47
40
37
49
4
63
50
38
52
67
5
58
46
60
61

>  <PUBCHEM_MMFF94_PARTIAL_CHARGES>  (1) 
4
1 -0.99
2 0.27
28 0.36
29 0.36

>  <PUBCHEM_EFFECTIVE_ROTOR_COUNT>  (1) 
6

>  <PUBCHEM_PHARMACOPHORE_FEATURES>  (1) 
6
1 1 cation
1 1 donor
1 11 hydrophobe
3 2 8 9 hydrophobe
3 3 4 5 hydrophobe
3 6 7 10 hydrophobe

>  <PUBCHEM_HEAVY_ATOM_COUNT>  (1) 
11

>  <PUBCHEM_ATOM_DEF_STEREO_COUNT>  (1) 
0

>  <PUBCHEM_ATOM_UDEF_STEREO_COUNT>  (1) 
0

>  <PUBCHEM_BOND_DEF_STEREO_COUNT>  (1) 
0

>  <PUBCHEM_BOND_UDEF_STEREO_COUNT>  (1) 
0

>  <PUBCHEM_ISOTOPIC_ATOM_COUNT>  (1) 
0

>  <PUBCHEM_COMPONENT_COUNT>  (1) 
1

>  <PUBCHEM_CACTVS_TAUTO_COUNT>  (1) 
1

>  <PUBCHEM_CONFORMER_ID>  (1) 
0000A31700000001

>  <PUBCHEM_MMFF94_ENERGY>  (1) 
-0.2569

>  <PUBCHEM_FEATURE_SELFOVERLAP>  (1) 
30.461

>  <PUBCHEM_SHAPE_FINGERPRINT>  (1) 
10680689 15 17458347441827174843
11062470 55 18343866619400711698
12091667 2 17167863063139627922
14123238 8 17967252013966848006
17834072 33 18337954597028518158
17834076 25 17917994970841865274
1986462 14 18410013247343668159
20279233 1 11891327634667177761
20645477 56 17895188858226067893
20645477 70 18342462487592715118
20671657 1 18118974825869422812
20719005 15 18409730677392935530
20828058 21 17240481407902064798
22485316 2 17894907421539987818
23380061 127 18202566185502948289
23402539 116 17489867120507799632
42788 4 18272934929917969616

>  <PUBCHEM_SHAPE_MULTIPOLES>  (1) 
221.39
11.87
0.99
0.84
12
0.05
-0.14
-0.31
-0.02
-0.78
0.13
-0.72
0.14
-0.12

>  <PUBCHEM_SHAPE_SELFOVERLAP>  (1) 
395.342

>  <PUBCHEM_SHAPE_VOLUME>  (1) 
145.5

>  <PUBCHEM_COORDINATE_TYPE>  (1) 
2
5
10

$$$$
