41762
     RDKit          3D

 16 15  0  0  1  0  0  0  0  0999 V2000
   -6.9956   -2.4945    0.1209 O   0  0  0  0  0  0  0  0  0  0  0  0
   -4.1658   -0.1771   -0.2570 N   0  0  0  0  0  0  0  0  0  0  0  0
    0.0605    1.1544   -0.1601 C   0  0  0  0  0  0  0  0  0  0  0  0
   -1.3146    0.6366    0.2686 C   0  0  0  0  0  0  0  0  0  0  0  0
    1.2012    0.1802    0.1532 C   0  0  0  0  0  0  0  0  0  0  0  0
   -2.4689    1.5676   -0.1265 C   0  0  0  0  0  0  0  0  0  0  0  0
    2.5856    0.7254   -0.2048 C   0  0  0  0  0  0  0  0  0  0  0  0
   -3.8692    1.1311    0.3368 C   0  0  0  0  0  0  0  0  0  0  0  0
    3.6883   -0.2562    0.1991 C   0  0  0  0  0  0  0  0  0  0  0  0
    5.0715    0.2714   -0.1860 C   0  0  0  0  0  0  0  0  0  0  0  0
    6.1708   -0.7245    0.1876 C   0  0  0  0  0  0  0  0  0  0  0  0
   -4.9627    2.1247   -0.0511 C   0  0  0  0  0  0  0  0  0  0  0  0
    7.5497   -0.2116   -0.2275 C   0  0  0  0  0  0  0  0  0  0  0  0
   -5.4406   -0.6800    0.2259 C   0  0  0  0  0  0  0  0  0  0  0  0
    8.6419   -1.2133    0.1121 C   0  0  0  0  0  0  0  0  0  0  0  0
   -5.7518   -2.0342   -0.3912 C   0  0  0  0  0  0  0  0  0  0  0  0
  1 16  1  0
  2  8  1  0
  2 14  1  0
  3  4  1  0
  3  5  1  0
  4  6  1  0
  5  7  1  0
  6  8  1  0
  7  9  1  0
  8 12  1  0
  9 10  1  0
 10 11  1  0
 11 13  1  0
 13 15  1  0
 14 16  1  0
M  END
>  <PUBCHEM_COMPOUND_CID>  (1) 
41762

>  <PUBCHEM_CONFORMER_RMSD>  (1) 
1.2

>  <PUBCHEM_CONFORMER_DIVERSEORDER>  (1) 
1
313
327
3
90
660
9
460
5
20
10
581
7
315
44
210
231
600
747
329
275
244
252
227
469
177
65
397
54
777
380
719
680
8
520
19
240
734
14
370
418
39
49
195
457
254
29
440
724
40
489
79
288
34
656
449
12
318
731
93
627
351
347
106
118
546
248
119
326
139
28
217
476
495
50
338
73
197
11
246
670
4
466
415
21
300
124
662
125
87
758
59
89
167
722
276
522
715
748
99
75
490
452
743
271
689
78

>  <PUBCHEM_MMFF94_PARTIAL_CHARGES>  (1) 
7
1 -0.68
14 0.27
16 0.28
2 -0.9
34 0.36
47 0.4
8 0.27

>  <PUBCHEM_EFFECTIVE_ROTOR_COUNT>  (1) 
12

>  <PUBCHEM_PHARMACOPHORE_FEATURES>  (1) 
5
1 1 acceptor
1 1 donor
1 15 hydrophobe
1 2 cation
1 2 donor

>  <PUBCHEM_HEAVY_ATOM_COUNT>  (1) 
16

>  <PUBCHEM_ATOM_DEF_STEREO_COUNT>  (1) 
0

>  <PUBCHEM_ATOM_UDEF_STEREO_COUNT>  (1) 
1

>  <PUBCHEM_BOND_DEF_STEREO_COUNT>  (1) 
0

>  <PUBCHEM_BOND_UDEF_STEREO_COUNT>  (1) 
0

>  <PUBCHEM_ISOTOPIC_ATOM_COUNT>  (1) 
0

>  <PUBCHEM_COMPONENT_COUNT>  (1) 
1

>  <PUBCHEM_CACTVS_TAUTO_COUNT>  (1) 
1

>  <PUBCHEM_CONFORMER_ID>  (1) 
0000A32200000001

>  <PUBCHEM_MMFF94_ENERGY>  (1) 
-1.4526

>  <PUBCHEM_FEATURE_SELFOVERLAP>  (1) 
25.371

>  <PUBCHEM_SHAPE_FINGERPRINT>  (1) 
11315181 36 18413390925790274529
12091667 2 17385729058273499385
13288520 33 18410855465151389189
1420 363 17418095404083433972
14251732 16 18341611546991128832
14251764 18 18186804682498572172
14251764 46 14836115538522196724
15716309 27 18131069354779064525
17780758 139 17632865213902900841
21054139 6 18187364337368507098
21150785 3 17675925413298094550
21267235 1 18409169943690092307
21304253 13 10159690296963546946
21315763 28 18408886231404880348
22288116 15 12685377422372299547
22896161 15 18410856586116630984
23081809 10 17822017488757838772
23402539 116 18261109651748419789
33532 11 18335419007942443802
59682541 35 17917703614105541698
8209 1 18261112933688820756

>  <PUBCHEM_SHAPE_MULTIPOLES>  (1) 
318.42
24.84
2.01
0.65
29.53
0.71
0
14.58
0.15
-5.34
0.08
0
0
-0.34

>  <PUBCHEM_SHAPE_SELFOVERLAP>  (1) 
571.158

>  <PUBCHEM_SHAPE_VOLUME>  (1) 
206

>  <PUBCHEM_COORDINATE_TYPE>  (1) 
2
5
10

$$$$
