4176
     RDKit          3D

 15 14  0  0  0  0  0  0  0  0999 V2000
   -2.6740   -0.1537    0.2219 P   0  0  0  0  0  0  0  0  0  0  0  0
   -1.2611    0.5988    0.1080 O   0  0  0  0  0  0  0  0  0  0  0  0
   -3.7124    0.9717   -0.3074 O   0  0  0  0  0  0  0  0  0  0  0  0
   -2.6347   -1.2226   -0.9952 O   0  0  0  0  0  0  0  0  0  0  0  0
    3.3555    0.5690   -0.2052 O   0  0  0  0  0  0  0  0  0  0  0  0
   -2.9931   -0.7316    1.5712 O   0  0  0  0  0  0  0  0  0  0  0  0
    2.5200   -1.5245    0.2937 O   0  0  0  0  0  0  0  0  0  0  0  0
   -0.0606   -0.0388    0.3482 C   0  0  0  0  0  0  0  0  0  0  0  0
    1.0767    0.3212   -0.2666 C   0  0  0  0  0  0  0  0  0  0  0  0
   -0.1161   -1.1594    1.3410 C   0  0  0  0  0  0  0  0  0  0  0  0
    4.6915    0.0944   -0.0070 C   0  0  0  0  0  0  0  0  0  0  0  0
    2.3727   -0.3543   -0.0195 C   0  0  0  0  0  0  0  0  0  0  0  0
    5.6601    1.2323   -0.2495 C   0  0  0  0  0  0  0  0  0  0  0  0
   -3.8846    2.1473    0.4645 C   0  0  0  0  0  0  0  0  0  0  0  0
   -2.3399   -0.7498   -2.2981 C   0  0  0  0  0  0  0  0  0  0  0  0
  1  2  1  0
  1  3  1  0
  1  4  1  0
  1  6  2  0
  2  8  1  0
  3 14  1  0
  4 15  1  0
  5 11  1  0
  5 12  1  0
  7 12  2  0
  8  9  2  0
  8 10  1  0
  9 12  1  0
 11 13  1  0
M  END
>  <PUBCHEM_COMPOUND_CID>  (1) 
4176

>  <PUBCHEM_CONFORMER_RMSD>  (1) 
0.8

>  <PUBCHEM_CONFORMER_DIVERSEORDER>  (1) 
9
33
67
28
12
70
72
87
86
93
92
25
65
52
81
124
19
131
66
63
102
112
139
114
15
121
98
39
122
136
84
64
34
118
59
7
55
95
68
128
17
82
129
80
75
141
2
94
32
135
46
29
140
88
23
117
90
126
50
96
5
104
77
11
83
100
3
105
134
42
48
132
18
61
138
40
44
137
123
36
58
14
97
60
4
119
20
53
99
31
16
110
13
79
51
24
69
47
27
127
1
57
56
106
71
120
43
111
6
30
108
130
125
54
107
37
35
74
91
142
89
73
22
76
115
26
109
41
8
49
21
45
38
143
133
113
144
101
116
145
10
85
62
78
103

>  <PUBCHEM_MMFF94_PARTIAL_CHARGES>  (1) 
15
1 1.51
10 0.14
11 0.28
12 0.71
14 0.28
15 0.28
16 0.15
2 -0.35
3 -0.55
4 -0.55
5 -0.43
6 -0.7
7 -0.57
8 -0.06
9 -0.14

>  <PUBCHEM_EFFECTIVE_ROTOR_COUNT>  (1) 
7

>  <PUBCHEM_PHARMACOPHORE_FEATURES>  (1) 
2
1 6 acceptor
1 7 acceptor

>  <PUBCHEM_HEAVY_ATOM_COUNT>  (1) 
15

>  <PUBCHEM_ATOM_DEF_STEREO_COUNT>  (1) 
0

>  <PUBCHEM_ATOM_UDEF_STEREO_COUNT>  (1) 
0

>  <PUBCHEM_BOND_DEF_STEREO_COUNT>  (1) 
0

>  <PUBCHEM_BOND_UDEF_STEREO_COUNT>  (1) 
1

>  <PUBCHEM_ISOTOPIC_ATOM_COUNT>  (1) 
0

>  <PUBCHEM_COMPONENT_COUNT>  (1) 
1

>  <PUBCHEM_CACTVS_TAUTO_COUNT>  (1) 
1

>  <PUBCHEM_CONFORMER_ID>  (1) 
0000105000000009

>  <PUBCHEM_MMFF94_ENERGY>  (1) 
26.9988

>  <PUBCHEM_FEATURE_SELFOVERLAP>  (1) 
10.149

>  <PUBCHEM_SHAPE_FINGERPRINT>  (1) 
10014705 185 18202843257626873905
10680689 15 18131355236608459640
11132069 177 16660651734669973155
11543360 7 17632292428152604724
12091667 2 18341615945343348048
12500047 106 17561357361981620935
12932764 1 17989201555574990082
13214271 11 18334299772911708137
167882 2 17486498096779498591
17862501 102 8070023367870498780
18186145 218 17530964644677164562
200 152 18343862238470766218
20112054 13 17822014177031780017
20325693 3 17060623312746630997
20645476 183 17988637502158034263
20645477 56 18060139821491562177
20645477 70 18199187295850250038
20871999 31 17775275084744368293
2306618 200 16515398577955884205
23402539 116 18411133645819469172
23402655 69 18271807900208160604
23559900 14 18186804656765990714
4175511 318 17847059965470589877
42 15 11746936482173852092
5104073 3 18040155106824594896
58051976 100 17846771945037280893
633830 44 18334013857144762678

>  <PUBCHEM_SHAPE_MULTIPOLES>  (1) 
277.33
9.84
1.52
1.34
11.19
0.47
-0.38
4.4
-1.12
-1.1
0.02
-1.41
-0.63
-0.76

>  <PUBCHEM_SHAPE_SELFOVERLAP>  (1) 
515.111

>  <PUBCHEM_SHAPE_VOLUME>  (1) 
175

>  <PUBCHEM_COORDINATE_TYPE>  (1) 
2
5
10

$$$$
