41774
     RDKit          3D

 44 47  0  0  1  0  0  0  0  0999 V2000
   -0.3664    0.8415    0.0690 O   0  0  0  0  0  0  0  0  0  0  0  0
    1.6777    1.4891    1.0118 O   0  0  0  0  0  0  0  0  0  0  0  0
   -3.2457    0.3720    0.6852 O   0  0  0  0  0  0  0  0  0  0  0  0
   -4.8018   -0.0491   -1.0142 O   0  0  0  0  0  0  0  0  0  0  0  0
    2.9835    2.1745   -2.2648 O   0  0  0  0  0  0  0  0  0  0  0  0
    1.6710   -0.8374   -0.6980 O   0  0  0  0  0  0  0  0  0  0  0  0
   -2.5681    3.6143   -0.7311 O   0  0  0  0  0  0  0  0  0  0  0  0
   -6.7036   -2.5117    0.9622 O   0  0  0  0  0  0  0  0  0  0  0  0
   -2.2489    0.2378   -2.0334 O   0  0  0  0  0  0  0  0  0  0  0  0
    5.2987   -2.4689    1.2122 O   0  0  0  0  0  0  0  0  0  0  0  0
    7.0304   -2.3268   -2.0081 O   0  0  0  0  0  0  0  0  0  0  0  0
   -7.2887    1.2995   -0.5152 O   0  0  0  0  0  0  0  0  0  0  0  0
    8.2554   -2.5577    1.3892 O   0  0  0  0  0  0  0  0  0  0  0  0
   -2.2124    3.0838    2.9101 O   0  0  0  0  0  0  0  0  0  0  0  0
   -9.5147   -0.5429   -0.3523 O   0  0  0  0  0  0  0  0  0  0  0  0
   -8.2427   -3.0090   -0.7712 O   0  0  0  0  0  0  0  0  0  0  0  0
   -4.3059   -3.8169    0.9483 O   0  0  0  0  0  0  0  0  0  0  0  0
   10.1213    0.2004   -0.1159 O   0  0  0  0  0  0  0  0  0  0  0  0
    4.2656    0.0114    0.4284 N   0  0  0  0  0  0  0  0  0  0  0  0
    3.8333    1.2803   -0.1731 C   0  0  0  0  0  0  0  0  0  0  0  0
    3.0599    0.9890   -1.4737 C   0  0  0  0  0  0  0  0  0  0  0  0
   -1.3149    1.8650    0.3861 C   0  0  0  0  0  0  0  0  0  0  0  0
    1.6352    0.4949   -1.2089 C   0  0  0  0  0  0  0  0  0  0  0  0
    2.9870    2.0519    0.8632 C   0  0  0  0  0  0  0  0  0  0  0  0
    0.9230    1.3922   -0.1946 C   0  0  0  0  0  0  0  0  0  0  0  0
   -1.9170    2.3640   -0.9339 C   0  0  0  0  0  0  0  0  0  0  0  0
   -2.3568    1.2764    1.3531 C   0  0  0  0  0  0  0  0  0  0  0  0
    5.4476   -0.5112   -0.2629 C   0  0  0  0  0  0  0  0  0  0  0  0
   -2.9345    1.3746   -1.5065 C   0  0  0  0  0  0  0  0  0  0  0  0
   -3.9315    0.9227   -0.4374 C   0  0  0  0  0  0  0  0  0  0  0  0
    5.5257   -2.0476   -0.1329 C   0  0  0  0  0  0  0  0  0  0  0  0
   -5.7696   -0.5038   -0.0714 C   0  0  0  0  0  0  0  0  0  0  0  0
    6.8839   -2.5783   -0.6114 C   0  0  0  0  0  0  0  0  0  0  0  0
   -7.1560   -0.1218   -0.5939 C   0  0  0  0  0  0  0  0  0  0  0  0
    2.9085    3.5550    0.5879 C   0  0  0  0  0  0  0  0  0  0  0  0
   -5.6498   -2.0211    0.1257 C   0  0  0  0  0  0  0  0  0  0  0  0
    6.7031    0.1846    0.1942 C   0  0  0  0  0  0  0  0  0  0  0  0
    8.0631   -1.9185    0.1278 C   0  0  0  0  0  0  0  0  0  0  0  0
   -3.1315    2.3327    2.1386 C   0  0  0  0  0  0  0  0  0  0  0  0
   -8.2475   -0.7728    0.2534 C   0  0  0  0  0  0  0  0  0  0  0  0
    7.8796   -0.4393    0.3856 C   0  0  0  0  0  0  0  0  0  0  0  0
   -8.0074   -2.2733    0.4280 C   0  0  0  0  0  0  0  0  0  0  0  0
   -4.3334   -2.4100    0.7932 C   0  0  0  0  0  0  0  0  0  0  0  0
    9.0955    0.3107    0.8516 C   0  0  0  0  0  0  0  0  0  0  0  0
  1 22  1  0
  1 25  1  0
  2 24  1  0
  2 25  1  0
  3 27  1  0
  3 30  1  0
  4 30  1  0
  4 32  1  0
  5 21  1  0
  6 23  1  0
  7 26  1  0
  8 36  1  0
  8 42  1  0
  9 29  1  0
 10 31  1  0
 11 33  1  0
 12 34  1  0
 13 38  1  0
 14 39  1  0
 15 40  1  0
 16 42  1  0
 17 43  1  0
 18 44  1  0
 19 20  1  0
 19 28  1  0
 20 21  1  0
 20 24  1  0
 21 23  1  0
 22 26  1  0
 22 27  1  0
 23 25  1  0
 24 35  1  0
 26 29  1  0
 27 39  1  0
 28 31  1  0
 28 37  1  0
 29 30  1  0
 31 33  1  0
 32 34  1  0
 32 36  1  0
 33 38  1  0
 34 40  1  0
 36 43  1  0
 37 41  2  0
 38 41  1  0
 40 42  1  0
 41 44  1  0
M  END
>  <PUBCHEM_COMPOUND_CID>  (1) 
41774

>  <PUBCHEM_CONFORMER_RMSD>  (1) 
1.2

>  <PUBCHEM_CONFORMER_DIVERSEORDER>  (1) 
2
32
33
16
29
21
17
36
20
12
30
34
35
27
15
39
37
26
18
4
24
19
23
9
8
38
10
3
7
6
31
13
25
14
28
11
22
5
1

>  <PUBCHEM_MMFF94_PARTIAL_CHARGES>  (1) 
58
1 -0.56
10 -0.68
11 -0.68
12 -0.68
13 -0.68
14 -0.68
15 -0.68
16 -0.68
17 -0.68
18 -0.68
19 -0.9
2 -0.56
20 0.27
21 0.28
22 0.28
23 0.28
24 0.28
25 0.56
26 0.28
27 0.28
28 0.41
29 0.28
3 -0.56
30 0.56
31 0.28
32 0.28
33 0.28
34 0.28
36 0.28
37 -0.29
38 0.42
39 0.28
4 -0.56
40 0.28
41 -0.28
42 0.56
43 0.28
44 0.42
5 -0.68
55 0.36
6 -0.68
65 0.15
7 -0.68
70 0.4
72 0.4
73 0.4
74 0.4
77 0.4
8 -0.56
80 0.4
81 0.4
82 0.4
83 0.4
84 0.4
85 0.4
86 0.4
87 0.4
9 -0.68

>  <PUBCHEM_EFFECTIVE_ROTOR_COUNT>  (1) 
13.4

>  <PUBCHEM_PHARMACOPHORE_FEATURES>  (1) 
37
1 1 acceptor
1 10 acceptor
1 10 donor
1 11 acceptor
1 11 donor
1 12 acceptor
1 12 donor
1 13 acceptor
1 13 donor
1 14 acceptor
1 14 donor
1 15 acceptor
1 15 donor
1 16 acceptor
1 16 donor
1 17 acceptor
1 17 donor
1 18 acceptor
1 18 donor
1 19 cation
1 19 donor
1 2 acceptor
1 3 acceptor
1 4 acceptor
1 5 acceptor
1 5 donor
1 6 acceptor
1 6 donor
1 7 acceptor
1 7 donor
1 8 acceptor
1 9 acceptor
1 9 donor
6 2 20 21 23 24 25 rings
6 28 31 33 37 38 41 rings
6 3 22 26 27 29 30 rings
6 8 32 34 36 40 42 rings

>  <PUBCHEM_HEAVY_ATOM_COUNT>  (1) 
44

>  <PUBCHEM_ATOM_DEF_STEREO_COUNT>  (1) 
18

>  <PUBCHEM_ATOM_UDEF_STEREO_COUNT>  (1) 
1

>  <PUBCHEM_BOND_DEF_STEREO_COUNT>  (1) 
0

>  <PUBCHEM_BOND_UDEF_STEREO_COUNT>  (1) 
0

>  <PUBCHEM_ISOTOPIC_ATOM_COUNT>  (1) 
0

>  <PUBCHEM_COMPONENT_COUNT>  (1) 
1

>  <PUBCHEM_CACTVS_TAUTO_COUNT>  (1) 
1

>  <PUBCHEM_CONFORMER_ID>  (1) 
0000A32E00000002

>  <PUBCHEM_MMFF94_ENERGY>  (1) 
121.661

>  <PUBCHEM_FEATURE_SELFOVERLAP>  (1) 
188.023

>  <PUBCHEM_SHAPE_FINGERPRINT>  (1) 
10 15 16630524016705248908
10369192 42 7997976765539864739
10674148 151 17603301549661464029
10677351 14 18113625595290864292
11135609 12 18409445916613172012
11135609 201 10879990233462788677
11135609 99 18410856602990662350
12013929 94 18412266151855349048
12120059 9 17775001298429232655
13560911 43 18412259532683518344
13782708 43 18410577283723550244
13811026 1 18334575758629992720
14040222 275 17458924668542455148
14068700 675 17967252000665845637
14664723 55 8358255977732622294
15064986 266 18411976936831431653
15510800 12 18272941487716405014
18603816 31 18059285570225156703
18608769 82 18335416894122039330
19302320 297 11239992369854300386
19841028 212 18409165524020967618
2026 5 18115303372235348386
20505436 4 9151174229537198557
21033650 10 16660638502203393045
21130935 74 18200314291722598778
23576562 1 11170496663762932651
3178227 256 18059855078065513726
3383291 50 18343019990873808414
439807 62 18408324392998448389
4461854 278 17346880065980640742
504579 68 14056720153946390576
5718773 13 18410012139004624908
58083652 198 17417805184775329553
6081469 158 18333731330169895389
6691757 9 15410885263237745933
9896288 288 17630899200870563833
9962374 69 18059563741506287926

>  <PUBCHEM_SHAPE_MULTIPOLES>  (1) 
794.87
30.43
3.93
1.61
11.37
0.46
-0.12
25.94
-1.49
-1.57
-0.97
-0.05
-0.81
0.29

>  <PUBCHEM_SHAPE_SELFOVERLAP>  (1) 
1651.984

>  <PUBCHEM_SHAPE_VOLUME>  (1) 
441.4

>  <PUBCHEM_COORDINATE_TYPE>  (1) 
2
5
10

$$$$
