41772
     RDKit          3D

 15 16  0  0  0  0  0  0  0  0999 V2000
   -1.3874   -0.3075   -0.3236 N   0  0  0  0  0  0  0  0  0  0  0  0
   -0.3368    1.7868   -0.0524 N   0  0  0  0  0  0  0  0  0  0  0  0
    0.7703    2.5566    0.1174 N   0  0  0  0  0  0  0  0  0  0  0  0
   -2.5745    0.3110   -0.3885 N   0  0  0  0  0  0  0  0  0  0  0  0
    1.0251   -0.2041   -0.0831 C   0  0  0  0  0  0  0  0  0  0  0  0
    2.1679    0.5905    0.0914 C   0  0  0  0  0  0  0  0  0  0  0  0
   -0.2022    0.4463   -0.1485 C   0  0  0  0  0  0  0  0  0  0  0  0
    1.1576   -1.5992   -0.1835 C   0  0  0  0  0  0  0  0  0  0  0  0
    3.4325   -0.0173    0.1632 C   0  0  0  0  0  0  0  0  0  0  0  0
    2.4180   -2.1932   -0.1110 C   0  0  0  0  0  0  0  0  0  0  0  0
    1.9827    1.9653    0.1857 C   0  0  0  0  0  0  0  0  0  0  0  0
    3.5532   -1.4038    0.0620 C   0  0  0  0  0  0  0  0  0  0  0  0
   -3.6059   -0.3497    0.0421 C   0  0  0  0  0  0  0  0  0  0  0  0
   -5.0264    0.1616    0.0574 C   0  0  0  0  0  0  0  0  0  0  0  0
   -3.3742   -1.7434    0.5714 C   0  0  0  0  0  0  0  0  0  0  0  0
  1  4  1  0
  1  7  1  0
  2  3  2  0
  2  7  1  0
  3 11  1  0
  4 13  2  3
  5  6  1  0
  5  7  2  0
  5  8  1  0
  6  9  1  0
  6 11  2  0
  8 10  2  0
  9 12  2  0
 10 12  1  0
 13 14  1  0
 13 15  1  0
M  END
>  <PUBCHEM_COMPOUND_CID>  (1) 
41772

>  <PUBCHEM_CONFORMER_RMSD>  (1) 
0.6

>  <PUBCHEM_CONFORMER_DIVERSEORDER>  (1) 
1
3
2
4

>  <PUBCHEM_MMFF94_PARTIAL_CHARGES>  (1) 
19
1 -0.46
10 -0.15
11 0.16
12 -0.15
13 0.33
14 0.06
15 0.06
16 0.15
17 0.15
18 0.15
19 0.15
2 -0.31
20 0.15
21 0.4
3 -0.31
4 -0.49
7 0.41
8 -0.15
9 -0.15

>  <PUBCHEM_EFFECTIVE_ROTOR_COUNT>  (1) 
2

>  <PUBCHEM_PHARMACOPHORE_FEATURES>  (1) 
6
1 1 donor
1 3 acceptor
1 4 acceptor
3 1 2 7 cation
6 2 3 5 6 7 11 rings
6 5 6 8 9 10 12 rings

>  <PUBCHEM_HEAVY_ATOM_COUNT>  (1) 
15

>  <PUBCHEM_ATOM_DEF_STEREO_COUNT>  (1) 
0

>  <PUBCHEM_ATOM_UDEF_STEREO_COUNT>  (1) 
0

>  <PUBCHEM_BOND_DEF_STEREO_COUNT>  (1) 
0

>  <PUBCHEM_BOND_UDEF_STEREO_COUNT>  (1) 
0

>  <PUBCHEM_ISOTOPIC_ATOM_COUNT>  (1) 
0

>  <PUBCHEM_COMPONENT_COUNT>  (1) 
1

>  <PUBCHEM_CACTVS_TAUTO_COUNT>  (1) 
2

>  <PUBCHEM_CONFORMER_ID>  (1) 
0000A32C00000001

>  <PUBCHEM_MMFF94_ENERGY>  (1) 
59.8464

>  <PUBCHEM_FEATURE_SELFOVERLAP>  (1) 
30.473

>  <PUBCHEM_SHAPE_FINGERPRINT>  (1) 
10967382 1 18411417340982951038
11471102 20 18411133649607917437
116883 192 18267869380368589397
12032990 46 18411420566503572286
12251169 10 18343864420335427111
12346645 6 18343582970848796036
13140716 1 18195797695012156594
14115302 16 17822022994610448255
14251717 144 18411979178313223247
14252887 29 18060424582033877774
14790565 3 17977391855996134196
15442244 35 18341335474977710097
15501101 241 18333730251394690645
16945 1 18341600534636634812
17834074 16 18335140912350296179
18186145 218 17676762137183157043
200 152 18059568118711068911
20201158 50 18335139786789348315
20645477 70 18411978083460559911
20871998 22 18200036114510527910
21267235 1 18339932523499099366
221490 88 18263651817005060859
2255824 54 18339644571838216092
2748010 2 18125708007786884988
33824 294 18337950198465211242
5104073 3 18410857707045015467
54173680 148 17619347607112821070
7364860 26 18341330093019613224
8809292 202 18187650214850161531
9709674 26 18262803007477893587

>  <PUBCHEM_SHAPE_MULTIPOLES>  (1) 
288.77
7.57
2.33
0.64
8.82
0.47
-0.02
-2.42
-0.53
-1.46
-0.13
0.07
-0.06
0.36

>  <PUBCHEM_SHAPE_SELFOVERLAP>  (1) 
614.26

>  <PUBCHEM_SHAPE_VOLUME>  (1) 
160.5

>  <PUBCHEM_COORDINATE_TYPE>  (1) 
2
5
10

$$$$
