41771
     RDKit          3D

 16 15  0  0  0  0  0  0  0  0999 V2000
    1.1063   -0.7097    0.3665 O   0  0  0  0  0  0  0  0  0  0  0  0
    3.1029   -1.8663    0.4885 O   0  0  0  0  0  0  0  0  0  0  0  0
   -3.4249   -1.2095   -0.0974 C   0  0  0  0  0  0  0  0  0  0  0  0
   -3.7016    0.2642   -0.4231 C   0  0  0  0  0  0  0  0  0  0  0  0
   -1.9658   -1.5970   -0.2162 C   0  0  0  0  0  0  0  0  0  0  0  0
   -2.9707    1.2058    0.4936 C   0  0  0  0  0  0  0  0  0  0  0  0
   -1.0706   -1.5431    0.7894 C   0  0  0  0  0  0  0  0  0  0  0  0
   -1.5297   -2.0368   -1.5905 C   0  0  0  0  0  0  0  0  0  0  0  0
   -1.9889    2.0732    0.1832 C   0  0  0  0  0  0  0  0  0  0  0  0
    0.3866   -1.8761    0.7428 C   0  0  0  0  0  0  0  0  0  0  0  0
   -1.3693    2.9342    1.2518 C   0  0  0  0  0  0  0  0  0  0  0  0
   -1.4269    2.2942   -1.1922 C   0  0  0  0  0  0  0  0  0  0  0  0
    2.4610   -0.8494    0.2780 C   0  0  0  0  0  0  0  0  0  0  0  0
    3.0299    0.4562   -0.1204 C   0  0  0  0  0  0  0  0  0  0  0  0
    4.3533    0.5893   -0.2773 C   0  0  0  0  0  0  0  0  0  0  0  0
    5.0084    1.8707   -0.6768 C   0  0  0  0  0  0  0  0  0  0  0  0
  1 10  1  0
  1 13  1  0
  2 13  2  0
  3  4  1  0
  3  5  1  0
  4  6  1  0
  5  7  2  0
  5  8  1  0
  6  9  2  3
  7 10  1  0
  9 11  1  0
  9 12  1  0
 13 14  1  0
 14 15  2  0
 15 16  1  0
M  END
>  <PUBCHEM_COMPOUND_CID>  (1) 
41771

>  <PUBCHEM_CONFORMER_RMSD>  (1) 
0.8

>  <PUBCHEM_CONFORMER_DIVERSEORDER>  (1) 
7
3
96
155
151
66
18
183
201
91
189
205
97
221
93
27
250
264
118
115
35
15
213
83
122
274
29
263
142
45
119
192
199
259
273
223
19
52
112
41
174
70
245
50
216
117
149
272
134
114
54
51
42
159
57
137
6
125
101
120
190
228
22
234
251
242
84
32
58
28
144
138
89
124
63
247
2
188
129
182
106
227
11
231
202
252
116
169
111
107
243
275
99
23
73
164
271
8
268
197
103
266
130
80
68
10
94
47
90
38
133
157
167
131
44
235
74
158
36
113
25
59
143
154
195
128
71
224
87
198
76
13
239
244
179
220
37
249
17
31
146
147
98
166
105
121
12
79
64
160
260
237
136
265
109
21
229
34
102
165
77
141
267
191
168
262
217
218
20
82
177
256
241
257
173
178
207
211
163
61
85
187
204
33
206
261
55
92
193
181
171
126
135
253
53
123
81
110
258
16
43
14
148
67
222
208
72
60
9
170
240
232
140
175
108
215
172
196
95
46
152
40
233
203
78
200
254
127
176
88
184
246
150
62
270
139
212
48
65
56
230
248
86
156
1
210
30
161
238
269
4
49
219
104
100
225
185
24
226
26
194
214
180
39
162
186
75
236
5
132
153
145
69
255
209

>  <PUBCHEM_MMFF94_PARTIAL_CHARGES>  (1) 
20
1 -0.43
10 0.42
11 0.14
12 0.14
13 0.71
14 -0.14
15 -0.29
16 0.14
2 -0.57
21 0.15
22 0.15
3 0.14
34 0.15
35 0.15
4 0.14
5 -0.28
6 -0.29
7 -0.29
8 0.14
9 -0.28

>  <PUBCHEM_EFFECTIVE_ROTOR_COUNT>  (1) 
7

>  <PUBCHEM_PHARMACOPHORE_FEATURES>  (1) 
5
1 16 hydrophobe
1 2 acceptor
1 8 hydrophobe
3 9 11 12 hydrophobe
4 3 4 5 6 hydrophobe

>  <PUBCHEM_HEAVY_ATOM_COUNT>  (1) 
16

>  <PUBCHEM_ATOM_DEF_STEREO_COUNT>  (1) 
0

>  <PUBCHEM_ATOM_UDEF_STEREO_COUNT>  (1) 
0

>  <PUBCHEM_BOND_DEF_STEREO_COUNT>  (1) 
0

>  <PUBCHEM_BOND_UDEF_STEREO_COUNT>  (1) 
2

>  <PUBCHEM_ISOTOPIC_ATOM_COUNT>  (1) 
0

>  <PUBCHEM_COMPONENT_COUNT>  (1) 
1

>  <PUBCHEM_CACTVS_TAUTO_COUNT>  (1) 
1

>  <PUBCHEM_CONFORMER_ID>  (1) 
0000A32B00000007

>  <PUBCHEM_MMFF94_ENERGY>  (1) 
17.0031

>  <PUBCHEM_FEATURE_SELFOVERLAP>  (1) 
25.38

>  <PUBCHEM_SHAPE_FINGERPRINT>  (1) 
10498660 4 18335699429528105597
10730089 173 18339930406670903868
12054548 360 18272362126555489921
14123250 116 18341901740398204664
14123260 362 17968391116655841438
14251745 187 18339639070217361608
14251764 75 18194973937059698681
15442244 35 18192427472835426962
17834072 32 18120936105441779813
18785283 64 17624995832704750047
20300324 65 18342176716888539807
20510252 161 18333734645405022171
21141583 151 18273217512622274736
21421566 26 17487047023232389575
21524375 3 18196084435466174491
21623110 236 18265342887310994032
21652331 79 18335422365535386387
22959321 54 18334011683548257162
23114952 82 17344645746124556991
23557571 272 18268721669510655422
23590187 71 18411136961149125904
4028521 119 18407754841764695765
4175511 318 17775566467836539078
44154327 71 18124033421566128849
9965369 4 18334287644667700776

>  <PUBCHEM_SHAPE_MULTIPOLES>  (1) 
317.53
8.16
3.28
1.13
10.37
1.37
-0.19
2.53
-1.44
-1.28
0.22
-0.4
0.08
-1.13

>  <PUBCHEM_SHAPE_SELFOVERLAP>  (1) 
602.852

>  <PUBCHEM_SHAPE_VOLUME>  (1) 
196

>  <PUBCHEM_COORDINATE_TYPE>  (1) 
2
5
10

$$$$
