41780
     RDKit          3D

 14 14  0  0  0  0  0  0  0  0999 V2000
    3.3914   -1.4891    0.0009 O   0  0  0  0  0  0  0  0  0  0  0  0
    3.4440    0.7056    0.0002 O   0  0  0  0  0  0  0  0  0  0  0  0
   -3.4079   -1.4635    0.0008 O   0  0  0  0  0  0  0  0  0  0  0  0
   -3.4464    0.7313    0.0006 O   0  0  0  0  0  0  0  0  0  0  0  0
   -1.3948    2.1059    0.0007 N   0  0  0  0  0  0  0  0  0  0  0  0
    2.8124   -0.3773    0.0005 N   0  0  0  0  0  0  0  0  0  0  0  0
   -2.8226   -0.3555    0.0001 N   0  0  0  0  0  0  0  0  0  0  0  0
    0.6984    0.8680   -0.0003 C   0  0  0  0  0  0  0  0  0  0  0  0
   -0.6966    0.8745   -0.0006 C   0  0  0  0  0  0  0  0  0  0  0  0
    1.3903   -0.3432   -0.0003 C   0  0  0  0  0  0  0  0  0  0  0  0
   -1.3995   -0.3305   -0.0009 C   0  0  0  0  0  0  0  0  0  0  0  0
    0.6875   -1.5480   -0.0005 C   0  0  0  0  0  0  0  0  0  0  0  0
   -0.7073   -1.5416   -0.0009 C   0  0  0  0  0  0  0  0  0  0  0  0
    1.4511    2.1633   -0.0004 C   0  0  0  0  0  0  0  0  0  0  0  0
  1  6  1  0
  2  6  2  0
  3  7  1  0
  4  7  2  0
  5  9  1  0
  6 10  1  0
  7 11  1  0
  8  9  2  0
  8 10  1  0
  8 14  1  0
  9 11  1  0
 10 12  2  0
 11 13  2  0
 12 13  1  0
M  CHG  4   1  -1   3  -1   6   1   7   1
M  END
>  <PUBCHEM_COMPOUND_CID>  (1) 
41780

>  <PUBCHEM_CONFORMER_RMSD>  (1) 
0.6

>  <PUBCHEM_CONFORMER_DIVERSEORDER>  (1) 
1

>  <PUBCHEM_MMFF94_PARTIAL_CHARGES>  (1) 
18
1 -0.52
10 0.13
11 0.13
12 -0.15
13 -0.15
14 0.14
15 0.15
16 0.15
2 -0.52
20 0.4
21 0.4
3 -0.52
4 -0.52
5 -0.9
6 0.91
7 0.91
8 -0.14
9 0.1

>  <PUBCHEM_EFFECTIVE_ROTOR_COUNT>  (1) 
2

>  <PUBCHEM_PHARMACOPHORE_FEATURES>  (1) 
9
1 1 acceptor
1 1 anion
1 2 acceptor
1 3 acceptor
1 3 anion
1 4 acceptor
1 5 cation
1 5 donor
6 8 9 10 11 12 13 rings

>  <PUBCHEM_HEAVY_ATOM_COUNT>  (1) 
14

>  <PUBCHEM_ATOM_DEF_STEREO_COUNT>  (1) 
0

>  <PUBCHEM_ATOM_UDEF_STEREO_COUNT>  (1) 
0

>  <PUBCHEM_BOND_DEF_STEREO_COUNT>  (1) 
0

>  <PUBCHEM_BOND_UDEF_STEREO_COUNT>  (1) 
0

>  <PUBCHEM_ISOTOPIC_ATOM_COUNT>  (1) 
0

>  <PUBCHEM_COMPONENT_COUNT>  (1) 
1

>  <PUBCHEM_CACTVS_TAUTO_COUNT>  (1) 
1

>  <PUBCHEM_CONFORMER_ID>  (1) 
0000A33400000001

>  <PUBCHEM_MMFF94_ENERGY>  (1) 
73.5292

>  <PUBCHEM_FEATURE_SELFOVERLAP>  (1) 
45.834

>  <PUBCHEM_SHAPE_FINGERPRINT>  (1) 
10219947 1 18413672404676531518
10967382 1 18266740366573241446
11132069 177 18411695452710079768
11206711 2 18336265647967476677
11471102 20 18410005529398122677
12032990 46 18410862057219456198
12423570 1 16115677417525244861
13380535 76 18049155859132846704
14144814 61 18411700988991548002
14325111 11 18410855468718102883
15536298 74 18271807973117090104
16945 1 18410855464449619782
193761 8 17545883092935549318
20201158 50 18410291389483876751
20645477 70 18339357578277104975
21501502 16 18410862065835712589
2334 1 17978511167216409414
23402539 116 18342163450077590470
23402655 69 18268412557258022477
23463225 33 18409450292921108726
23552423 10 18190742131461881020
23559900 14 18413669098442958318
2748010 2 18122345949762333438
5084963 1 18273496771005035136
528886 8 18411695508539444795
53812653 166 18341608200694458800
7364860 26 18198343055709135064
8809292 202 18260554415645803059

>  <PUBCHEM_SHAPE_MULTIPOLES>  (1) 
249.69
5.1
2.1
0.57
0.39
0.53
0
-0.92
0
-0.2
0
-0.01
0
0

>  <PUBCHEM_SHAPE_SELFOVERLAP>  (1) 
532.27

>  <PUBCHEM_SHAPE_VOLUME>  (1) 
139.5

>  <PUBCHEM_COORDINATE_TYPE>  (1) 
2
5
10

$$$$
