41781
     RDKit          3D

 24 25  0  0  0  0  0  0  0  0999 V2000
    1.4943   -1.6191    1.4458 S   0  0  0  0  0  0  0  0  0  0  0  0
    2.7815   -2.2857    1.4048 O   0  0  0  0  0  0  0  0  0  0  0  0
    0.6048   -1.8065    2.5756 O   0  0  0  0  0  0  0  0  0  0  0  0
    3.5836   -0.0402   -0.2240 O   0  0  0  0  0  0  0  0  0  0  0  0
    2.6748    2.0129    0.3265 N   0  0  0  0  0  0  0  0  0  0  0  0
   -1.3985   -0.8808    0.7474 N   0  0  0  0  0  0  0  0  0  0  0  0
    1.7138    0.0541    1.1724 N   0  0  0  0  0  0  0  0  0  0  0  0
    0.5960   -3.2649   -2.0871 N   0  0  0  0  0  0  0  0  0  0  0  0
    3.6020    2.8250   -0.4258 C   0  0  0  0  0  0  0  0  0  0  0  0
    0.5888   -2.0819    0.0001 C   0  0  0  0  0  0  0  0  0  0  0  0
   -0.7159   -1.6807   -0.1942 C   0  0  0  0  0  0  0  0  0  0  0  0
   -2.4227    0.0766    0.6199 C   0  0  0  0  0  0  0  0  0  0  0  0
    3.7986    4.1748    0.2584 C   0  0  0  0  0  0  0  0  0  0  0  0
    3.0824    3.0026   -1.8489 C   0  0  0  0  0  0  0  0  0  0  0  0
    2.7437    0.6335    0.3651 C   0  0  0  0  0  0  0  0  0  0  0  0
    1.2057   -2.8609   -0.9500 C   0  0  0  0  0  0  0  0  0  0  0  0
   -1.3767   -2.0763   -1.3519 C   0  0  0  0  0  0  0  0  0  0  0  0
   -2.5303    0.8366   -0.5465 C   0  0  0  0  0  0  0  0  0  0  0  0
   -3.5456    1.7849   -0.6723 C   0  0  0  0  0  0  0  0  0  0  0  0
   -3.3344    0.2688    1.6599 C   0  0  0  0  0  0  0  0  0  0  0  0
   -0.6827   -2.8608   -2.2588 C   0  0  0  0  0  0  0  0  0  0  0  0
   -4.4552    1.9750    0.3680 C   0  0  0  0  0  0  0  0  0  0  0  0
   -4.3497    1.2170    1.5340 C   0  0  0  0  0  0  0  0  0  0  0  0
   -3.6584    2.5959   -1.9184 C   0  0  0  0  0  0  0  0  0  0  0  0
  1  2  2  0
  1  3  2  0
  1  7  1  0
  1 10  1  0
  4 15  2  0
  5  9  1  0
  5 15  1  0
  6 11  1  0
  6 12  1  0
  7 15  1  0
  8 16  2  0
  8 21  1  0
  9 13  1  0
  9 14  1  0
 10 11  2  0
 10 16  1  0
 11 17  1  0
 12 18  2  0
 12 20  1  0
 17 21  2  0
 18 19  1  0
 19 22  2  0
 19 24  1  0
 20 23  2  0
 22 23  1  0
M  END
>  <PUBCHEM_COMPOUND_CID>  (1) 
41781

>  <PUBCHEM_CONFORMER_RMSD>  (1) 
0.8

>  <PUBCHEM_CONFORMER_DIVERSEORDER>  (1) 
1
249
269
276
346
146
199
201
11
348
222
159
27
81
357
16
352
189
345
308
244
92
61
221
82
107
68
238
351
306
144
23
186
261
247
264
336
190
119
299
349
140
216
19
356
32
150
203
18
284
160
17
241
138
136
104
285
234
123
184
197
161
103
151
364
101
106
333
52
26
108
163
328
262
329
360
147
278
283
337
202
322
183
233
124
316
15
116
361
217
347
325
84
204
176
224
127
331
168
315
115
139
122
69
208
321
158
70
113
236
344
112
366
188
173
354
367
207
294
35
317
228
341
182
326
34
196
170
175
235
145
37
12
368
156
24
130
179
275
73
56
258
40
129
38
21
121
215
167
177
88
305
60
289
245
153
195
77
274
131
169
307
64
28
50
187
323
14
365
206
110
330
335
157
252
263
95
334
85
155
152
301
295
319
72
44
54
8
132
102
111
55
353
99
164
89
74
251
200
87
266
43
257
320
49
297
214
178
166
211
31
67
248
42
114
237
359
165
90
282
100
212
135
243
311
148
260
312
118
310
296
181
318
279
75
191
97
213
293
192
93
20
141
240
143
80
287
13
362
94
162
149
267
250
218
350
125
126
268
303
219
271
339
22
185
6
223
133
29
180
83
239
86
96
105
255
290
291
174
355
58
9
62
142
242
128
363
324
304
209
63
47
134
154
25
256
171
98
194
91
79
281
286
302
254
193
288
342
338
51
272
246
2
33
30
36
76
172
137
10
300
57
7
340
309
5
232
230
65
270
205
4
226
332
220
3
198
229
292
66
314
59
39
277
120
117
280
109
327
45
48
225
231
298
210
71
78
53
265
41
259
313
253
343
46
273
227
358

>  <PUBCHEM_MMFF94_PARTIAL_CHARGES>  (1) 
32
1 1.45
10 -0.01
11 0.1
12 0.1
15 0.87
16 0.16
17 -0.15
18 -0.15
19 -0.14
2 -0.65
20 -0.15
21 0.16
22 -0.15
23 -0.15
24 0.14
26 0.37
27 0.4
28 0.42
3 -0.65
35 0.15
36 0.15
37 0.15
38 0.15
39 0.15
4 -0.57
40 0.15
41 0.15
5 -0.73
6 -0.6
7 -0.79
8 -0.62
9 0.3

>  <PUBCHEM_EFFECTIVE_ROTOR_COUNT>  (1) 
7

>  <PUBCHEM_PHARMACOPHORE_FEATURES>  (1) 
11
1 2 acceptor
1 3 acceptor
1 4 acceptor
1 5 donor
1 6 cation
1 6 donor
1 7 donor
1 8 acceptor
3 9 13 14 hydrophobe
6 12 18 19 20 22 23 rings
6 8 10 11 16 17 21 rings

>  <PUBCHEM_HEAVY_ATOM_COUNT>  (1) 
24

>  <PUBCHEM_ATOM_DEF_STEREO_COUNT>  (1) 
0

>  <PUBCHEM_ATOM_UDEF_STEREO_COUNT>  (1) 
0

>  <PUBCHEM_BOND_DEF_STEREO_COUNT>  (1) 
0

>  <PUBCHEM_BOND_UDEF_STEREO_COUNT>  (1) 
0

>  <PUBCHEM_ISOTOPIC_ATOM_COUNT>  (1) 
0

>  <PUBCHEM_COMPONENT_COUNT>  (1) 
1

>  <PUBCHEM_CACTVS_TAUTO_COUNT>  (1) 
6

>  <PUBCHEM_CONFORMER_ID>  (1) 
0000A33500000001

>  <PUBCHEM_MMFF94_ENERGY>  (1) 
52.5984

>  <PUBCHEM_FEATURE_SELFOVERLAP>  (1) 
55.883

>  <PUBCHEM_SHAPE_FINGERPRINT>  (1) 
10291535 26 17255960599139614808
10871710 139 17977100485445395909
10937287 8 18341614888059005656
12403259 327 17389093448211851403
12788726 201 17770202066758680359
13134695 92 17833548998837126383
13583140 156 17823976719936835699
13899415 180 17262432904127093223
14123250 116 18051971716827663068
151778 21 18340779181833538697
15210252 30 17471598532806570164
15806764 133 17832723279074851277
15848702 68 17825370899979040512
17134986 127 18343867701537538478
20567600 299 17982715399102607057
20600515 1 17176311477910534574
21756936 100 17898299557041548108
21860390 5 18049713019238439845
22907989 373 18057308695045668431
23419403 2 17257720667646388690
26353 1 16618962943569595783
340366 18 18271811185985145774
469060 322 17539700513498864451
474 4 17986385582364832571
5048184 11 18338799051665478444
5081480 168 17411638903731755621
5252454 2 18340208616876922984
531348 171 17839761588386553276
5939293 188 18119518843585299968
6438718 38 17906188586924371724
7288768 16 17460594968528534144

>  <PUBCHEM_SHAPE_MULTIPOLES>  (1) 
460.23
7.93
5.05
2.17
2.3
1.2
0.21
10.38
-0.83
-4.28
2.45
0.56
-1.06
-0.78

>  <PUBCHEM_SHAPE_SELFOVERLAP>  (1) 
949.891

>  <PUBCHEM_SHAPE_VOLUME>  (1) 
264.1

>  <PUBCHEM_COORDINATE_TYPE>  (1) 
2
5
10

$$$$
