41797
     RDKit          3D

 17 19  0  0  1  0  0  0  0  0999 V2000
   -3.9201    1.1687   -0.3037 O   0  0  0  0  0  0  0  0  0  0  0  0
    2.6341    1.1862    0.4897 N   0  0  0  0  0  0  0  0  0  0  0  0
    0.7828   -0.2581   -0.1289 C   0  0  0  0  0  0  0  0  0  0  0  0
    3.0309   -0.2319    0.5898 C   0  0  0  0  0  0  0  0  0  0  0  0
    1.7261   -0.9739    0.8481 C   0  0  0  0  0  0  0  0  0  0  0  0
    1.1867    1.2074    0.1756 C   0  0  0  0  0  0  0  0  0  0  0  0
    1.1783   -0.6805   -1.5740 C   0  0  0  0  0  0  0  0  0  0  0  0
    3.6028   -0.6749   -0.7686 C   0  0  0  0  0  0  0  0  0  0  0  0
    2.6425   -0.3984   -1.9298 C   0  0  0  0  0  0  0  0  0  0  0  0
   -0.7002   -0.5303    0.0848 C   0  0  0  0  0  0  0  0  0  0  0  0
    2.9263    1.9275    1.7122 C   0  0  0  0  0  0  0  0  0  0  0  0
   -1.6439    0.4555   -0.2114 C   0  0  0  0  0  0  0  0  0  0  0  0
   -1.1211   -1.7667    0.5792 C   0  0  0  0  0  0  0  0  0  0  0  0
   -3.0021    0.2061   -0.0143 C   0  0  0  0  0  0  0  0  0  0  0  0
   -2.4792   -2.0160    0.7767 C   0  0  0  0  0  0  0  0  0  0  0  0
   -3.4199   -1.0296    0.4798 C   0  0  0  0  0  0  0  0  0  0  0  0
   -3.4241    2.4088   -0.8054 C   0  0  0  0  0  0  0  0  0  0  0  0
  1 14  1  0
  1 17  1  0
  2  4  1  0
  2  6  1  0
  2 11  1  0
  3  5  1  0
  3  6  1  0
  3  7  1  0
  3 10  1  0
  4  5  1  0
  4  8  1  0
  7  9  1  0
  8  9  1  0
 10 12  2  0
 10 13  1  0
 12 14  1  0
 13 15  2  0
 14 16  2  0
 15 16  1  0
M  END
>  <PUBCHEM_COMPOUND_CID>  (1) 
41797

>  <PUBCHEM_CONFORMER_RMSD>  (1) 
0.6

>  <PUBCHEM_CONFORMER_DIVERSEORDER>  (1) 
1
17
5
10
22
20
23
14
4
18
12
19
24
15
16
13
21
11
9
2
7
8
3
6

>  <PUBCHEM_MMFF94_PARTIAL_CHARGES>  (1) 
17
1 -0.36
10 -0.14
11 0.27
12 -0.15
13 -0.15
14 0.08
15 -0.15
16 -0.15
17 0.28
2 -0.81
3 0.14
32 0.15
33 0.15
34 0.15
35 0.15
4 0.27
6 0.27

>  <PUBCHEM_EFFECTIVE_ROTOR_COUNT>  (1) 
3.2

>  <PUBCHEM_PHARMACOPHORE_FEATURES>  (1) 
4
1 1 acceptor
1 2 cation
6 10 12 13 14 15 16 rings
8 2 3 4 5 6 7 8 9 rings

>  <PUBCHEM_HEAVY_ATOM_COUNT>  (1) 
17

>  <PUBCHEM_ATOM_DEF_STEREO_COUNT>  (1) 
0

>  <PUBCHEM_ATOM_UDEF_STEREO_COUNT>  (1) 
2

>  <PUBCHEM_BOND_DEF_STEREO_COUNT>  (1) 
0

>  <PUBCHEM_BOND_UDEF_STEREO_COUNT>  (1) 
0

>  <PUBCHEM_ISOTOPIC_ATOM_COUNT>  (1) 
0

>  <PUBCHEM_COMPONENT_COUNT>  (1) 
1

>  <PUBCHEM_CACTVS_TAUTO_COUNT>  (1) 
1

>  <PUBCHEM_CONFORMER_ID>  (1) 
0000A34500000001

>  <PUBCHEM_MMFF94_ENERGY>  (1) 
63.0862

>  <PUBCHEM_FEATURE_SELFOVERLAP>  (1) 
20.297

>  <PUBCHEM_SHAPE_FINGERPRINT>  (1) 
10608611 8 18412541050235095689
10646746 165 18408039606649542112
10922523 26 18343305898245199239
1100329 8 16682882459370993024
11725454 13 17698681974824061761
12173636 292 18260823774883508687
12236239 1 16805326612502659095
124424 183 18342739576937837214
12500047 106 18334011657736404743
12507560 40 18340763844805446544
12654215 9 18272933787192957268
12932764 1 18409738382284975715
13134695 92 17560804273784891900
13296908 3 18342744047756101779
13464514 151 17982455888878012469
13538477 17 17531254988581954343
13581323 91 17968096455950456643
14115302 16 18115035099808114214
14178342 30 17968084373927943554
14289901 80 18115309011014925450
15219456 202 18201159948400742986
15775835 57 18040720221135375963
16752209 62 18114181964816447555
16945 1 18115311205859537411
17041 50 18271815600857578180
1813 80 15552237327285261396
18186145 218 18271529710712509617
18522853 266 18186805759581042575
19049666 15 18341336595600002003
19422 9 17095530599178399611
19786989 88 17345761922320074482
200 152 15985102964232558199
20233049 118 18262520286643662164
20279233 1 18272655644720848535
20361792 2 14924487732899751458
20510252 161 18410576223462428601
20645477 70 17489592229584020606
20715346 28 18272375320731881186
21486144 27 17917161575572437323
21524375 3 18043527214682208255
21639500 275 16845286193782196696
22112679 90 16950561116374216230
22943178 12 18343303703448527571
23526113 38 17914910746163138822
23557571 272 18339084907761311043
23559900 14 18338240358736446958
25 1 18196373615740528741
2748010 2 18341898536146346921
495365 180 17845637192759787905
6049 1 18270978923869054635
69090 78 18272647983016293591
74978 22 18260553341750673245
7615 1 17023182777136313503
77492 1 16660646288393063439
81228 2 18189907598469484755
88987 49 18260270767288858095
9709674 26 18341890844086851071

>  <PUBCHEM_SHAPE_MULTIPOLES>  (1) 
339
6.88
2.06
1.39
2.35
0.69
0.3
1.65
0.15
1.38
-0.4
-1.28
0.11
1.76

>  <PUBCHEM_SHAPE_SELFOVERLAP>  (1) 
725.998

>  <PUBCHEM_SHAPE_VOLUME>  (1) 
190.3

>  <PUBCHEM_COORDINATE_TYPE>  (1) 
2
5
10

$$$$
