41793
     RDKit          3D

 20 20  0  0  0  0  0  0  0  0999 V2000
    2.3870   -3.1927   -0.3884 O   0  0  0  0  0  0  0  0  0  0  0  0
    0.2286   -2.8023   -0.2994 O   0  0  0  0  0  0  0  0  0  0  0  0
    4.8561    2.4515    0.2772 O   0  0  0  0  0  0  0  0  0  0  0  0
    5.5504    0.3866    0.0072 O   0  0  0  0  0  0  0  0  0  0  0  0
   -4.2870    0.4828    0.1857 N   0  0  0  0  0  0  0  0  0  0  0  0
   -0.7161   -0.5213    0.0039 N   0  0  0  0  0  0  0  0  0  0  0  0
    1.4177   -2.4069   -0.2713 N   0  0  0  0  0  0  0  0  0  0  0  0
    4.6267    1.2269    0.1282 N   0  0  0  0  0  0  0  0  0  0  0  0
   -3.1385   -0.4086    0.0267 C   0  0  0  0  0  0  0  0  0  0  0  0
   -1.8382    0.3772    0.1357 C   0  0  0  0  0  0  0  0  0  0  0  0
   -5.5356   -0.2758    0.1201 C   0  0  0  0  0  0  0  0  0  0  0  0
   -4.2691    1.5271   -0.8378 C   0  0  0  0  0  0  0  0  0  0  0  0
    0.6069   -0.1094    0.0324 C   0  0  0  0  0  0  0  0  0  0  0  0
   -5.5718   -1.3662    1.1775 C   0  0  0  0  0  0  0  0  0  0  0  0
   -5.4219    2.4989   -0.6510 C   0  0  0  0  0  0  0  0  0  0  0  0
    1.6759   -1.0181   -0.1003 C   0  0  0  0  0  0  0  0  0  0  0  0
    0.9134    1.2552    0.1974 C   0  0  0  0  0  0  0  0  0  0  0  0
    2.9993   -0.5782   -0.0687 C   0  0  0  0  0  0  0  0  0  0  0  0
    2.2366    1.6949    0.2289 C   0  0  0  0  0  0  0  0  0  0  0  0
    3.2796    0.7782    0.0959 C   0  0  0  0  0  0  0  0  0  0  0  0
  1  7  1  0
  2  7  2  0
  3  8  1  0
  4  8  2  0
  5  9  1  0
  5 11  1  0
  5 12  1  0
  6 10  1  0
  6 13  1  0
  7 16  1  0
  8 20  1  0
  9 10  1  0
 11 14  1  0
 12 15  1  0
 13 16  2  0
 13 17  1  0
 16 18  1  0
 17 19  2  0
 18 20  2  0
 19 20  1  0
M  CHG  4   1  -1   3  -1   7   1   8   1
M  END
>  <PUBCHEM_COMPOUND_CID>  (1) 
41793

>  <PUBCHEM_CONFORMER_RMSD>  (1) 
0.8

>  <PUBCHEM_CONFORMER_DIVERSEORDER>  (1) 
1
12
11
4
6
3
13
19
15
16
5
17
18
7
9
10
14
8
2

>  <PUBCHEM_MMFF94_PARTIAL_CHARGES>  (1) 
22
1 -0.52
10 0.37
11 0.27
12 0.27
13 0.1
16 0.13
17 -0.15
18 -0.15
19 -0.15
2 -0.52
20 0.13
29 0.4
3 -0.52
36 0.15
37 0.15
38 0.15
4 -0.52
5 -0.81
6 -0.87
7 0.91
8 0.91
9 0.27

>  <PUBCHEM_EFFECTIVE_ROTOR_COUNT>  (1) 
8

>  <PUBCHEM_PHARMACOPHORE_FEATURES>  (1) 
10
1 1 acceptor
1 1 anion
1 2 acceptor
1 3 acceptor
1 3 anion
1 4 acceptor
1 5 cation
1 6 cation
1 6 donor
6 13 16 17 18 19 20 rings

>  <PUBCHEM_HEAVY_ATOM_COUNT>  (1) 
20

>  <PUBCHEM_ATOM_DEF_STEREO_COUNT>  (1) 
0

>  <PUBCHEM_ATOM_UDEF_STEREO_COUNT>  (1) 
0

>  <PUBCHEM_BOND_DEF_STEREO_COUNT>  (1) 
0

>  <PUBCHEM_BOND_UDEF_STEREO_COUNT>  (1) 
0

>  <PUBCHEM_ISOTOPIC_ATOM_COUNT>  (1) 
0

>  <PUBCHEM_COMPONENT_COUNT>  (1) 
1

>  <PUBCHEM_CACTVS_TAUTO_COUNT>  (1) 
1

>  <PUBCHEM_CONFORMER_ID>  (1) 
0000A34100000001

>  <PUBCHEM_MMFF94_ENERGY>  (1) 
65.8502

>  <PUBCHEM_FEATURE_SELFOVERLAP>  (1) 
50.909

>  <PUBCHEM_SHAPE_FINGERPRINT>  (1) 
10411042 1 17691687788540580278
11405975 8 18191024504862184307
11471102 20 18341328916293448228
12236239 1 17418099823298657657
12403259 415 18342734169379203337
12507560 40 18336549335553802039
12730499 353 18411706499350335699
12769317 202 18343291565871313008
13836976 161 18336270136413899252
13911882 115 18335997436293270859
14790565 3 18337955722178957916
15196674 1 18409729522025620885
20600515 1 16515696532727481989
20645477 56 18187365381926508445
20645477 70 18130792205019329927
21065199 12 18335424543743168931
21709351 56 18410287047287901685
221490 88 18338241440619844807
23402539 116 18201150048659621820
23402655 69 18272646823127080413
23557571 272 17603586296759332253
23559900 14 18194397788950630499
293599 30 18340487880567506776
335352 9 18412828019440114820
33824 294 18410857650783386218
3545911 37 18411138035302516849
4072396 5 18338503159036696410
4073 2 18113907048396930691
4214541 1 18335138679283871777
42630746 31 18343867710370189582
474229 33 18338237166974209747
5104073 3 18261678061100627393
59755656 215 18410858720556972558
81539 233 18410855456170967262
8272917 22 18342175505681304350
9709674 26 18334863801398150387

>  <PUBCHEM_SHAPE_MULTIPOLES>  (1) 
368.19
13.18
2.84
0.74
9.12
1.16
0.04
-5.57
0.92
-0.89
-0.41
0.64
0.02
1.75

>  <PUBCHEM_SHAPE_SELFOVERLAP>  (1) 
748.477

>  <PUBCHEM_SHAPE_VOLUME>  (1) 
216

>  <PUBCHEM_COORDINATE_TYPE>  (1) 
2
5
10

$$$$
