41798
     RDKit          3D

 16 18  0  0  1  0  0  0  0  0999 V2000
   -3.9527    1.4730   -1.0770 O   0  0  0  0  0  0  0  0  0  0  0  0
    2.5363    1.1806    0.1034 N   0  0  0  0  0  0  0  0  0  0  0  0
    0.5590   -0.2153   -0.0903 C   0  0  0  0  0  0  0  0  0  0  0  0
    2.7732   -0.1377    0.7234 C   0  0  0  0  0  0  0  0  0  0  0  0
    1.3881   -0.6168    1.1377 C   0  0  0  0  0  0  0  0  0  0  0  0
    1.1102    1.2192   -0.2952 C   0  0  0  0  0  0  0  0  0  0  0  0
    0.9507   -1.1604   -1.2636 C   0  0  0  0  0  0  0  0  0  0  0  0
    3.3353   -1.0869   -0.3497 C   0  0  0  0  0  0  0  0  0  0  0  0
    2.4471   -1.1580   -1.5960 C   0  0  0  0  0  0  0  0  0  0  0  0
   -0.9507   -0.2575    0.1047 C   0  0  0  0  0  0  0  0  0  0  0  0
    2.8695    2.2802    1.0030 C   0  0  0  0  0  0  0  0  0  0  0  0
   -1.7718    0.6379   -0.5841 C   0  0  0  0  0  0  0  0  0  0  0  0
   -1.5188   -1.1918    0.9734 C   0  0  0  0  0  0  0  0  0  0  0  0
   -3.1545    0.5991   -0.4052 C   0  0  0  0  0  0  0  0  0  0  0  0
   -2.9015   -1.2305    1.1525 C   0  0  0  0  0  0  0  0  0  0  0  0
   -3.7195   -0.3351    0.4630 C   0  0  0  0  0  0  0  0  0  0  0  0
  1 14  1  0
  2  4  1  0
  2  6  1  0
  2 11  1  0
  3  5  1  0
  3  6  1  0
  3  7  1  0
  3 10  1  0
  4  5  1  0
  4  8  1  0
  7  9  1  0
  8  9  1  0
 10 12  2  0
 10 13  1  0
 12 14  1  0
 13 15  2  0
 14 16  2  0
 15 16  1  0
M  END
>  <PUBCHEM_COMPOUND_CID>  (1) 
41798

>  <PUBCHEM_CONFORMER_RMSD>  (1) 
0.6

>  <PUBCHEM_CONFORMER_DIVERSEORDER>  (1) 
2
10
7
9
4
5
8
11
1
6
3

>  <PUBCHEM_MMFF94_PARTIAL_CHARGES>  (1) 
17
1 -0.53
10 -0.14
11 0.27
12 -0.15
13 -0.15
14 0.08
15 -0.15
16 -0.15
2 -0.81
3 0.14
31 0.15
32 0.15
33 0.15
34 0.15
35 0.45
4 0.27
6 0.27

>  <PUBCHEM_EFFECTIVE_ROTOR_COUNT>  (1) 
2.2

>  <PUBCHEM_PHARMACOPHORE_FEATURES>  (1) 
4
1 1 donor
1 2 cation
6 10 12 13 14 15 16 rings
8 2 3 4 5 6 7 8 9 rings

>  <PUBCHEM_HEAVY_ATOM_COUNT>  (1) 
16

>  <PUBCHEM_ATOM_DEF_STEREO_COUNT>  (1) 
0

>  <PUBCHEM_ATOM_UDEF_STEREO_COUNT>  (1) 
2

>  <PUBCHEM_BOND_DEF_STEREO_COUNT>  (1) 
0

>  <PUBCHEM_BOND_UDEF_STEREO_COUNT>  (1) 
0

>  <PUBCHEM_ISOTOPIC_ATOM_COUNT>  (1) 
0

>  <PUBCHEM_COMPONENT_COUNT>  (1) 
1

>  <PUBCHEM_CACTVS_TAUTO_COUNT>  (1) 
3

>  <PUBCHEM_CONFORMER_ID>  (1) 
0000A34600000002

>  <PUBCHEM_MMFF94_ENERGY>  (1) 
50.6056

>  <PUBCHEM_FEATURE_SELFOVERLAP>  (1) 
20.297

>  <PUBCHEM_SHAPE_FINGERPRINT>  (1) 
10219947 1 17988923353674549622
10608611 8 18335698364518829209
10646746 165 18113617884748154289
107287 299 18200604712314086808
11543360 7 17845917616113173869
11578080 2 15142627644436975735
12236239 1 15841555149984525743
124424 183 18335699395252821506
12500047 106 17895189974453386331
12507560 40 18334853956720911904
12654215 9 18411135797334197492
12932764 1 18187090554841584987
13134695 92 18201717293854431292
13296908 3 18334580161187846483
13538477 17 16371018433226270571
13581323 91 17312822688772158899
14115302 16 17604437280004453838
14144814 61 17530963583793569955
14178342 30 17240755228978081227
14289901 80 17822577225611135377
15219456 202 18411140259409566056
15653759 3 18187087256142995835
15775835 57 16056883528431965603
16752209 62 17458628938896329579
16945 1 17846227639552916966
17804303 29 17822848671971410098
1813 80 16556250838228515774
18175812 5 18409729568837712207
18186145 218 18335985272882234009
18522853 266 17603588499919578427
19049666 15 18264210218687855123
19422 9 16008757900431965931
19786989 88 17988086702376728034
200 152 17131827625853376055
20233049 118 17895474713583870236
20279233 1 18410013221600406959
20510252 161 18334296487662790209
20559304 39 15051459271171745134
20645477 70 18131632253219447343
20715346 28 18410016567237310859
21524375 3 17766837604401496104
21639500 275 17703784868323004209
21730867 7 18202009853767231854
22112679 90 15936408970003558751
2255824 54 17561093483781613686
22892500 29 18339069415613925012
22943178 12 18408888459828164947
23419403 2 16100308903922970540
23526113 38 18125446306328272646
23557571 272 18261961846532372209
23559900 14 18114463358378547118
2748010 2 18335144223469160693
3248919 1 17775007881727944619
474 4 15983952991329473442
495365 180 18200011993910850865
6049 1 18336563675906238947
69090 78 18410852192360052783
7364860 26 18131074865744481160
74978 22 17821736043634447885
7615 1 16200157560311481043
77492 1 15841557357602945063
81228 2 17409106703173540264
88987 49 17821733848901138191

>  <PUBCHEM_SHAPE_MULTIPOLES>  (1) 
318.42
6.55
1.73
1.31
3.58
0.7
0.08
0.92
0.05
-1.05
-0.02
-0.02
-0.26
1.56

>  <PUBCHEM_SHAPE_SELFOVERLAP>  (1) 
687.096

>  <PUBCHEM_SHAPE_VOLUME>  (1) 
177.2

>  <PUBCHEM_COORDINATE_TYPE>  (1) 
2
5
10

$$$$
