41801
     RDKit          3D

 20 23  0  0  1  0  0  0  0  0999 V2000
    4.7801   -0.6740   -1.8048 O   0  0  0  0  0  0  0  0  0  0  0  0
   -1.8552   -0.2836    0.0026 N   0  0  0  0  0  0  0  0  0  0  0  0
    0.4125    0.5415    0.1037 C   0  0  0  0  0  0  0  0  0  0  0  0
   -1.7988    0.8854    0.8832 C   0  0  0  0  0  0  0  0  0  0  0  0
   -0.5288   -0.4871   -0.6215 C   0  0  0  0  0  0  0  0  0  0  0  0
   -0.3738    0.7631    1.4117 C   0  0  0  0  0  0  0  0  0  0  0  0
    0.4090    1.9205   -0.6411 C   0  0  0  0  0  0  0  0  0  0  0  0
   -1.9754    2.2495    0.1973 C   0  0  0  0  0  0  0  0  0  0  0  0
   -2.9834   -0.3583   -0.9052 C   0  0  0  0  0  0  0  0  0  0  0  0
   -4.2989   -0.3813   -0.1455 C   0  0  0  0  0  0  0  0  0  0  0  0
   -0.9836    2.4787   -0.9407 C   0  0  0  0  0  0  0  0  0  0  0  0
   -4.5235   -1.4791    0.8264 C   0  0  0  0  0  0  0  0  0  0  0  0
   -5.2743   -1.4501   -0.4725 C   0  0  0  0  0  0  0  0  0  0  0  0
    1.8653    0.1052    0.2677 C   0  0  0  0  0  0  0  0  0  0  0  0
   -0.1795   -1.9646   -0.4009 C   0  0  0  0  0  0  0  0  0  0  0  0
    2.6691   -0.0882   -0.8573 C   0  0  0  0  0  0  0  0  0  0  0  0
    2.3945   -0.1007    1.5431 C   0  0  0  0  0  0  0  0  0  0  0  0
    3.9976   -0.4864   -0.7073 C   0  0  0  0  0  0  0  0  0  0  0  0
    3.7227   -0.4988    1.6931 C   0  0  0  0  0  0  0  0  0  0  0  0
    4.5244   -0.6915    0.5680 C   0  0  0  0  0  0  0  0  0  0  0  0
  1 18  1  0
  2  4  1  0
  2  5  1  0
  2  9  1  0
  3  5  1  0
  3  6  1  0
  3  7  1  0
  3 14  1  0
  4  6  1  0
  4  8  1  0
  5 15  1  0
  7 11  1  0
  8 11  1  0
  9 10  1  0
 10 12  1  0
 10 13  1  0
 12 13  1  0
 14 16  2  0
 14 17  1  0
 16 18  1  0
 17 19  2  0
 18 20  2  0
 19 20  1  0
M  END
>  <PUBCHEM_COMPOUND_CID>  (1) 
41801

>  <PUBCHEM_CONFORMER_RMSD>  (1) 
0.6

>  <PUBCHEM_CONFORMER_DIVERSEORDER>  (1) 
1
25
55
54
43
39
56
6
36
50
49
24
51
5
18
52
22
38
58
29
4
8
53
48
3
15
57
30
37
17
28
23
12
9
14
35
44
47
19
16
27
40
34
11
46
20
45
32
42
26
41
31
33
2
21
10
7
13

>  <PUBCHEM_MMFF94_PARTIAL_CHARGES>  (1) 
25
1 -0.53
10 -0.19
12 -0.2
13 -0.2
14 -0.14
16 -0.15
17 -0.15
18 0.08
19 -0.15
2 -0.81
20 -0.15
3 0.14
31 0.1
34 0.1
35 0.1
36 0.1
37 0.1
4 0.27
41 0.15
42 0.15
43 0.15
44 0.15
45 0.45
5 0.27
9 0.37

>  <PUBCHEM_EFFECTIVE_ROTOR_COUNT>  (1) 
4.8

>  <PUBCHEM_PHARMACOPHORE_FEATURES>  (1) 
4
1 1 donor
1 2 cation
6 14 16 17 18 19 20 rings
8 2 3 4 5 6 7 8 11 rings

>  <PUBCHEM_HEAVY_ATOM_COUNT>  (1) 
20

>  <PUBCHEM_ATOM_DEF_STEREO_COUNT>  (1) 
0

>  <PUBCHEM_ATOM_UDEF_STEREO_COUNT>  (1) 
3

>  <PUBCHEM_BOND_DEF_STEREO_COUNT>  (1) 
0

>  <PUBCHEM_BOND_UDEF_STEREO_COUNT>  (1) 
0

>  <PUBCHEM_ISOTOPIC_ATOM_COUNT>  (1) 
0

>  <PUBCHEM_COMPONENT_COUNT>  (1) 
1

>  <PUBCHEM_CACTVS_TAUTO_COUNT>  (1) 
3

>  <PUBCHEM_CONFORMER_ID>  (1) 
0000A34900000001

>  <PUBCHEM_MMFF94_ENERGY>  (1) 
65.4346

>  <PUBCHEM_FEATURE_SELFOVERLAP>  (1) 
20.297

>  <PUBCHEM_SHAPE_FINGERPRINT>  (1) 
11045515 52 17240479208831740021
11132069 177 17846489361806280159
11543360 7 15719388456103856579
11796584 16 17385717007138683819
12236239 1 17821725010269776138
12403259 415 17632292350769431560
12507560 40 16702020855312140408
12553582 1 18409722997775489911
12633257 1 17345734404733946738
12670546 177 16226043401129538539
12714826 92 18342451513238701409
12788726 201 18186802452450664393
12892183 10 15554450734127778635
13009979 54 18199484306319464073
13140716 1 18125993004146596627
13544653 18 17917988395384059109
13675066 3 17703789245353491083
13862211 1 18411975888658749743
14178342 30 18199187278390546144
15848700 24 18341889731779914455
16752209 62 18335414638752129282
16945 1 18272360984294454029
17349148 13 18407763637974041727
17357779 13 18270665529107058541
17804303 29 18272650155968740233
1813 80 18412542145557244805
18222031 100 18339920510918456839
19141452 34 17203604930489416175
193927 3 18341339967365672171
19784866 240 17386273295455189858
200 152 17240197716421510312
20028762 73 17986390216783226119
204376 136 10592049076609700941
21029758 27 18335422395869306365
22182313 1 18058736780266609549
23402539 116 18260823778967323241
23557571 272 18270971128625017885
23559900 14 17846218903710743084
296302 2 13479142301949975690
314173 85 18343020004116503633
45790113 50 16630529535542941768
465052 167 18262242226319380915
474 4 17386862784428414100
495365 180 11891324357829190128
5104073 3 16916788410427361626
57096353 35 17458639882351316444
7164475 11 17604981529786215676
7495541 125 17677336151199322779
77492 1 17604431782799664832
7970288 3 18408601487288917667

>  <PUBCHEM_SHAPE_MULTIPOLES>  (1) 
400.74
9.35
1.97
1.41
0.95
1.05
-0.17
-5.64
0.67
1.6
0.31
-1.22
-0.07
-0.01

>  <PUBCHEM_SHAPE_SELFOVERLAP>  (1) 
860.765

>  <PUBCHEM_SHAPE_VOLUME>  (1) 
224.5

>  <PUBCHEM_COORDINATE_TYPE>  (1) 
2
5
10

$$$$
