4181
     RDKit          3D

 16 15  0  0  1  0  0  0  0  0999 V2000
    3.1402   -2.0358    0.8637 S   0  0  0  0  0  0  0  0  0  0  0  0
    5.2929   -0.7883   -0.7351 S   0  0  0  0  0  0  0  0  0  0  0  0
   -0.9516    1.7015    1.1359 O   0  0  0  0  0  0  0  0  0  0  0  0
   -2.0515    0.9981   -1.4241 O   0  0  0  0  0  0  0  0  0  0  0  0
    0.7347   -1.0012   -0.6676 O   0  0  0  0  0  0  0  0  0  0  0  0
   -3.3727   -0.7548    1.4970 O   0  0  0  0  0  0  0  0  0  0  0  0
   -4.5159   -1.4068   -0.9892 O   0  0  0  0  0  0  0  0  0  0  0  0
    2.9862    0.5530    0.0676 N   0  0  0  0  0  0  0  0  0  0  0  0
   -0.8007    0.3963    0.5803 C   0  0  0  0  0  0  0  0  0  0  0  0
   -2.0184    0.0907   -0.3240 C   0  0  0  0  0  0  0  0  0  0  0  0
    0.5525    0.3181   -0.1585 C   0  0  0  0  0  0  0  0  0  0  0  0
   -3.3664    0.1841    0.4237 C   0  0  0  0  0  0  0  0  0  0  0  0
    1.7296    0.6497    0.7633 C   0  0  0  0  0  0  0  0  0  0  0  0
   -4.5780   -0.0891   -0.4679 C   0  0  0  0  0  0  0  0  0  0  0  0
    3.4256    1.8024   -0.5845 C   0  0  0  0  0  0  0  0  0  0  0  0
    3.7936   -0.6180    0.0194 C   0  0  0  0  0  0  0  0  0  0  0  0
  1 16  1  0
  2 16  2  0
  3  9  1  0
  4 10  1  0
  5 11  1  0
  6 12  1  0
  7 14  1  0
  8 13  1  0
  8 15  1  0
  8 16  1  0
  9 10  1  0
  9 11  1  0
 10 12  1  0
 11 13  1  0
 12 14  1  0
M  END
>  <PUBCHEM_COMPOUND_CID>  (1) 
4181

>  <PUBCHEM_CONFORMER_RMSD>  (1) 
1

>  <PUBCHEM_CONFORMER_DIVERSEORDER>  (1) 
2
227
412
30
539
122
78
321
285
549
460
215
324
114
557
407
404
411
430
372
541
394
380
24
112
9
44
247
123
402
119
217
56
109
458
91
309
418
447
70
54
51
150
125
383
260
490
277
240
58
325
395
250
262
33
566
355
244
77
185
212
323
391
224
10
55
72
59
37
554
15
157
293
221
57
67
205
76
542
89
375
361
105
535
73
32
213
299
85
193
29
339
272
271
14
249
307
27
349
347
101
3
31
492
132
266
74
514
186
6
483
478
39
296
40
392
153
127
363
17
276
503
201
327
42
513
144
350
4
35
524
95
476
509
60
214
146
415
129
254
47
526
320
190
7
43
80
34
366
23
202
19
506
117
259
28
87
308
82
86
49
139
1
8
209
130
162

>  <PUBCHEM_MMFF94_PARTIAL_CHARGES>  (1) 
22
1 -0.32
10 0.28
11 0.28
12 0.28
13 0.3
14 0.28
15 0.3
16 0.58
2 -0.38
25 0.4
26 0.4
27 0.4
28 0.4
3 -0.68
32 0.4
33 0.18
4 -0.68
5 -0.68
6 -0.68
7 -0.68
8 -0.66
9 0.28

>  <PUBCHEM_EFFECTIVE_ROTOR_COUNT>  (1) 
7

>  <PUBCHEM_PHARMACOPHORE_FEATURES>  (1) 
12
1 2 acceptor
1 3 acceptor
1 3 donor
1 4 acceptor
1 4 donor
1 5 acceptor
1 5 donor
1 6 acceptor
1 6 donor
1 7 acceptor
1 7 donor
3 1 2 16 anion

>  <PUBCHEM_HEAVY_ATOM_COUNT>  (1) 
16

>  <PUBCHEM_ATOM_DEF_STEREO_COUNT>  (1) 
0

>  <PUBCHEM_ATOM_UDEF_STEREO_COUNT>  (1) 
4

>  <PUBCHEM_BOND_DEF_STEREO_COUNT>  (1) 
0

>  <PUBCHEM_BOND_UDEF_STEREO_COUNT>  (1) 
0

>  <PUBCHEM_ISOTOPIC_ATOM_COUNT>  (1) 
0

>  <PUBCHEM_COMPONENT_COUNT>  (1) 
1

>  <PUBCHEM_CACTVS_TAUTO_COUNT>  (1) 
1

>  <PUBCHEM_CONFORMER_ID>  (1) 
0000105500000002

>  <PUBCHEM_MMFF94_ENERGY>  (1) 
45.854

>  <PUBCHEM_FEATURE_SELFOVERLAP>  (1) 
60.913

>  <PUBCHEM_SHAPE_FINGERPRINT>  (1) 
10366900 7 17894914027104535744
11089746 13 12468643863226372414
11543360 7 17240490225047884934
11615757 297 18343304760121076880
12616999 72 17894635816936375354
13167823 11 18341610434172554119
13675066 3 13686303482314617825
13690532 89 18343866589568088254
13760787 5 18342746242579394081
14252887 29 17988646247217811526
14576447 43 18410572864835218234
14993402 34 13551194381123223560
15375462 6 18040434386840829964
15477762 27 18335420132827645154
17834072 33 18411984667856109316
17834074 16 18187367635892782514
17834076 25 13623531263962598268
18186145 218 16732700558321567513
18222031 100 17274810377003108437
18915474 69 18271240624747912318
19026448 4 17603868931129338041
200 152 18411699876515838609
20279233 1 16515695407656786994
20281475 54 17917715699035638947
20645477 56 17168142296185881349
20645477 70 18411698785989998758
20871999 31 17531251621443470036
22485316 2 18412821404525762425
22646028 1 18413385423699375466
23402539 116 18202562852112668845
23557571 272 17240198803069504493
23559900 14 17676770959040864248
23596394 208 17603861161802732690
3060560 45 18113903771574292894
3286 77 17704068503947904704
42 15 16774081739474254374
465052 167 17917714638184310279
58051976 378 17894629257993592418

>  <PUBCHEM_SHAPE_MULTIPOLES>  (1) 
302.64
10.39
1.65
1.15
0.76
0.09
0.05
3.11
-2.39
-1.25
0.13
0.54
0.04
-0.38

>  <PUBCHEM_SHAPE_SELFOVERLAP>  (1) 
557.499

>  <PUBCHEM_SHAPE_VOLUME>  (1) 
192.9

>  <PUBCHEM_COORDINATE_TYPE>  (1) 
2
5
10

$$$$
