41825
     RDKit          3D

 21 21  0  0  0  0  0  0  0  0999 V2000
   -2.7828   -4.3961   -2.3182 Br  0  0  0  0  0  0  0  0  0  0  0  0
   -2.4428   -1.0296    4.0328 Br  0  0  0  0  0  0  0  0  0  0  0  0
   -1.2485    2.8000   -0.9529 O   0  0  0  0  0  0  0  0  0  0  0  0
    2.9070   -2.1357    0.0421 O   0  0  0  0  0  0  0  0  0  0  0  0
   -1.4656   -1.1663   -0.0240 N   0  0  0  0  0  0  0  0  0  0  0  0
    3.4863    0.1450    0.1886 N   0  0  0  0  0  0  0  0  0  0  0  0
   -1.2909   -0.0623   -0.9671 C   0  0  0  0  0  0  0  0  0  0  0  0
   -0.0542    0.7419   -0.6664 C   0  0  0  0  0  0  0  0  0  0  0  0
   -2.3545   -2.1827   -0.5856 C   0  0  0  0  0  0  0  0  0  0  0  0
   -1.9923   -0.6731    1.2481 C   0  0  0  0  0  0  0  0  0  0  0  0
   -0.0920    2.1362   -0.6733 C   0  0  0  0  0  0  0  0  0  0  0  0
    1.1384    0.0781   -0.3790 C   0  0  0  0  0  0  0  0  0  0  0  0
   -1.5792   -3.0836   -1.5286 C   0  0  0  0  0  0  0  0  0  0  0  0
   -1.6856   -1.6651    2.3542 C   0  0  0  0  0  0  0  0  0  0  0  0
    2.2931    0.8086   -0.0984 C   0  0  0  0  0  0  0  0  0  0  0  0
    1.0626    2.8669   -0.3930 C   0  0  0  0  0  0  0  0  0  0  0  0
    2.2552    2.2030   -0.1055 C   0  0  0  0  0  0  0  0  0  0  0  0
   -1.7569    3.6694    0.0569 C   0  0  0  0  0  0  0  0  0  0  0  0
    3.7169   -1.2362    0.2421 C   0  0  0  0  0  0  0  0  0  0  0  0
   -3.2649    3.7327   -0.0604 C   0  0  0  0  0  0  0  0  0  0  0  0
    5.1507   -1.5509    0.5876 C   0  0  0  0  0  0  0  0  0  0  0  0
  1 13  1  0
  2 14  1  0
  3 11  1  0
  3 18  1  0
  4 19  2  0
  5  7  1  0
  5  9  1  0
  5 10  1  0
  6 15  1  0
  6 19  1  0
  7  8  1  0
  8 11  2  0
  8 12  1  0
  9 13  1  0
 10 14  1  0
 11 16  1  0
 12 15  2  0
 15 17  1  0
 16 17  2  0
 18 20  1  0
 19 21  1  0
M  END
>  <PUBCHEM_COMPOUND_CID>  (1) 
41825

>  <PUBCHEM_CONFORMER_RMSD>  (1) 
1

>  <PUBCHEM_CONFORMER_DIVERSEORDER>  (1) 
1
19
25
42
43
15
4
11
41
12
32
44
3
34
45
10
28
39
37
24
36
26
7
5
21
23
22
9
31
33
17
38
46
13
35
29
27
18
40
8
47
20
14
2
16
6
30

>  <PUBCHEM_MMFF94_PARTIAL_CHARGES>  (1) 
24
1 -0.23
10 0.27
11 0.08
12 -0.15
13 0.23
14 0.23
15 0.12
16 -0.15
17 -0.15
18 0.28
19 0.57
2 -0.23
21 0.06
28 0.15
3 -0.36
33 0.15
34 0.15
35 0.37
4 -0.57
5 -0.81
6 -0.55
7 0.41
8 -0.14
9 0.27

>  <PUBCHEM_EFFECTIVE_ROTOR_COUNT>  (1) 
10

>  <PUBCHEM_PHARMACOPHORE_FEATURES>  (1) 
7
1 1 hydrophobe
1 2 hydrophobe
1 3 acceptor
1 4 acceptor
1 5 cation
1 6 donor
6 8 11 12 15 16 17 rings

>  <PUBCHEM_HEAVY_ATOM_COUNT>  (1) 
21

>  <PUBCHEM_ATOM_DEF_STEREO_COUNT>  (1) 
0

>  <PUBCHEM_ATOM_UDEF_STEREO_COUNT>  (1) 
0

>  <PUBCHEM_BOND_DEF_STEREO_COUNT>  (1) 
0

>  <PUBCHEM_BOND_UDEF_STEREO_COUNT>  (1) 
0

>  <PUBCHEM_ISOTOPIC_ATOM_COUNT>  (1) 
0

>  <PUBCHEM_COMPONENT_COUNT>  (1) 
1

>  <PUBCHEM_CACTVS_TAUTO_COUNT>  (1) 
2

>  <PUBCHEM_CONFORMER_ID>  (1) 
0000A36100000001

>  <PUBCHEM_MMFF94_ENERGY>  (1) 
55.508

>  <PUBCHEM_FEATURE_SELFOVERLAP>  (1) 
35.52

>  <PUBCHEM_SHAPE_FINGERPRINT>  (1) 
107951 10 17392212719576391162
11578080 2 17774142626027495440
11725454 13 14475581199811551259
12553582 1 18263933301041035558
12596599 1 17988374770598321438
13004483 165 18198043953991495615
13009979 54 17773043179156719326
13583140 156 17398415481860895499
13965767 371 17770258055841535841
14787075 74 16461949896005996511
14844126 61 18192412092726494746
20028762 73 18129089027786489901
20645477 70 17468173979214301439
23558518 356 18261106379104828332
23598288 3 18335150747872877150
23598291 2 17696497421228673967
23728640 28 18196359339000412910
238 59 17036963179668625543
266924 78 16892594022035145407
283562 15 17978792642679384972
3383291 50 17331670250771664678
6438718 38 18263922133793633626
7097593 13 17613194009740981179
81228 2 18114731698601799501

>  <PUBCHEM_SHAPE_MULTIPOLES>  (1) 
422.35
6.51
5.56
2.6
2.4
4.11
3.74
-7.93
0.09
-0.83
-2.52
-4.64
-1.24
-2.95

>  <PUBCHEM_SHAPE_SELFOVERLAP>  (1) 
814.896

>  <PUBCHEM_SHAPE_VOLUME>  (1) 
263.9

>  <PUBCHEM_COORDINATE_TYPE>  (1) 
2
5
10

$$$$
