41823
     RDKit          3D

 20 21  0  0  1  0  0  0  0  0999 V2000
   -4.4322   -0.4057   -0.1050 O   0  0  0  0  0  0  0  0  0  0  0  0
    0.9363    1.3083   -0.3721 C   0  0  0  0  0  0  0  0  0  0  0  0
    1.2739    2.5101    0.5728 C   0  0  0  0  0  0  0  0  0  0  0  0
    1.8753    0.1120   -0.2254 C   0  0  0  0  0  0  0  0  0  0  0  0
   -0.5174    0.8440   -0.2997 C   0  0  0  0  0  0  0  0  0  0  0  0
    2.6931    3.0452    0.3215 C   0  0  0  0  0  0  0  0  0  0  0  0
    0.2863    3.6730    0.3834 C   0  0  0  0  0  0  0  0  0  0  0  0
    2.1925   -0.6213   -1.3470 C   0  0  0  0  0  0  0  0  0  0  0  0
    2.3707   -0.1898    1.0235 C   0  0  0  0  0  0  0  0  0  0  0  0
   -1.3135    0.9889   -1.4135 C   0  0  0  0  0  0  0  0  0  0  0  0
   -0.9786    0.2973    0.8770 C   0  0  0  0  0  0  0  0  0  0  0  0
    3.0497   -1.7135   -1.2127 C   0  0  0  0  0  0  0  0  0  0  0  0
    3.2280   -1.2819    1.1578 C   0  0  0  0  0  0  0  0  0  0  0  0
    3.5675   -2.0437    0.0396 C   0  0  0  0  0  0  0  0  0  0  0  0
   -2.6408    0.5652   -1.3475 C   0  0  0  0  0  0  0  0  0  0  0  0
   -2.3059   -0.1266    0.9432 C   0  0  0  0  0  0  0  0  0  0  0  0
   -3.1371    0.0073   -0.1691 C   0  0  0  0  0  0  0  0  0  0  0  0
    4.4848   -3.2108    0.1829 C   0  0  0  0  0  0  0  0  0  0  0  0
   -4.7239   -1.4954    0.7686 C   0  0  0  0  0  0  0  0  0  0  0  0
   -5.9088   -2.2625    0.2217 C   0  0  0  0  0  0  0  0  0  0  0  0
  1 17  1  0
  1 19  1  0
  2  3  1  0
  2  4  1  0
  2  5  1  0
  3  6  1  0
  3  7  1  0
  4  8  2  0
  4  9  1  0
  5 10  2  0
  5 11  1  0
  8 12  1  0
  9 13  2  0
 10 15  1  0
 11 16  2  0
 12 14  2  0
 13 14  1  0
 14 18  1  0
 15 17  2  0
 16 17  1  0
 19 20  1  0
M  END
>  <PUBCHEM_COMPOUND_CID>  (1) 
41823

>  <PUBCHEM_CONFORMER_RMSD>  (1) 
0.8

>  <PUBCHEM_CONFORMER_DIVERSEORDER>  (1) 
1
7
6
10
11
8
2
9
3
4
5

>  <PUBCHEM_MMFF94_PARTIAL_CHARGES>  (1) 
24
1 -0.36
10 -0.15
11 -0.15
12 -0.15
13 -0.15
14 -0.14
15 -0.15
16 -0.15
17 0.08
18 0.14
19 0.28
2 0.29
29 0.15
30 0.15
31 0.15
32 0.15
33 0.15
34 0.15
35 0.15
36 0.15
4 -0.14
5 -0.14
8 -0.15
9 -0.15

>  <PUBCHEM_EFFECTIVE_ROTOR_COUNT>  (1) 
5

>  <PUBCHEM_PHARMACOPHORE_FEATURES>  (1) 
4
1 1 acceptor
3 3 6 7 hydrophobe
6 4 8 9 12 13 14 rings
6 5 10 11 15 16 17 rings

>  <PUBCHEM_HEAVY_ATOM_COUNT>  (1) 
20

>  <PUBCHEM_ATOM_DEF_STEREO_COUNT>  (1) 
0

>  <PUBCHEM_ATOM_UDEF_STEREO_COUNT>  (1) 
1

>  <PUBCHEM_BOND_DEF_STEREO_COUNT>  (1) 
0

>  <PUBCHEM_BOND_UDEF_STEREO_COUNT>  (1) 
0

>  <PUBCHEM_ISOTOPIC_ATOM_COUNT>  (1) 
0

>  <PUBCHEM_COMPONENT_COUNT>  (1) 
1

>  <PUBCHEM_CACTVS_TAUTO_COUNT>  (1) 
1

>  <PUBCHEM_CONFORMER_ID>  (1) 
0000A35F00000001

>  <PUBCHEM_MMFF94_ENERGY>  (1) 
63.403

>  <PUBCHEM_FEATURE_SELFOVERLAP>  (1) 
20.297

>  <PUBCHEM_SHAPE_FINGERPRINT>  (1) 
11405975 8 18412267233960527353
114674 6 18114741650225537299
11578080 2 17677603169369383076
11796584 16 17896310320783054807
12107183 9 18198637549264145817
12363563 72 18339081475934956342
12403259 226 18334571335225141149
12553582 1 18201718423172419798
12623949 98 18266472082127600935
12644460 14 18129954506007898665
12707595 3 18409446955852943102
13103583 49 18058182643475498139
13140716 1 18198904712666657336
13533116 47 18339647866827225067
13955234 65 18126006202849954113
13965767 371 11239708627018462026
14178342 30 17772764774949139475
14251764 30 17915479224156598118
14341114 328 14979374236693485570
14347424 109 18342465867963312969
14787075 74 18187367636625810570
14866123 147 17906734696479492785
15422964 175 18128540362139881758
16752209 62 16081355359417074221
17492 89 18412546548368312403
17859628 70 18339365278610069595
1813 80 18130796599007919148
20361792 2 18271521988298137868
20626108 58 17096072594439986610
20645477 70 18337669827780411691
20671657 53 18411140203596233361
20693207 138 18040713680069164767
20832881 197 18334863762537248945
23526113 38 18040442108975984440
23557571 272 17697027051638163420
23559900 14 17894628166987432045
31174 14 18337950207266350269
3286 77 18407760343902632079
3380486 145 17486173847981179032
3421961 26 18411981385878674401
463206 1 18261112928893441251
5104073 3 18271817852063987771
5309563 4 18340205168081565423
621550 34 18119522387165999557
633830 44 12325085972288445589
7364860 26 18340770458997397632
76465 3 18334858299112533943
7808743 9 9726191344795751234
7970288 3 18339362946353865102
81228 2 17766555755673356016
8988823 20 18269835492623160567
960060 61 17458633341063831935
9658208 31 17388228214698323725
9709674 26 18262520424346580819

>  <PUBCHEM_SHAPE_MULTIPOLES>  (1) 
405.72
9.37
3.65
1.26
11.03
1.7
0.24
-10.7
-1.09
-3.31
-0.61
-0.13
-0.08
0.84

>  <PUBCHEM_SHAPE_SELFOVERLAP>  (1) 
850.039

>  <PUBCHEM_SHAPE_VOLUME>  (1) 
231.2

>  <PUBCHEM_COORDINATE_TYPE>  (1) 
2
5
10

$$$$
