41828
     RDKit          3D

 21 22  0  0  1  0  0  0  0  0999 V2000
   -4.5392    3.6184    0.5278 Cl  0  0  0  0  0  0  0  0  0  0  0  0
   -2.4130   -0.9982    1.3188 O   0  0  0  0  0  0  0  0  0  0  0  0
   -2.3989   -1.5754   -1.0215 O   0  0  0  0  0  0  0  0  0  0  0  0
    1.6113   -1.3079    0.2070 O   0  0  0  0  0  0  0  0  0  0  0  0
    4.7504    0.5689   -0.1921 N   0  0  0  0  0  0  0  0  0  0  0  0
   -2.0725   -1.9971    0.3258 C   0  0  0  0  0  0  0  0  0  0  0  0
   -0.5685   -2.2572    0.3992 C   0  0  0  0  0  0  0  0  0  0  0  0
    0.2276   -0.9917    0.1408 C   0  0  0  0  0  0  0  0  0  0  0  0
   -2.8572   -3.2715    0.6355 C   0  0  0  0  0  0  0  0  0  0  0  0
    3.8821   -0.5718    0.0586 C   0  0  0  0  0  0  0  0  0  0  0  0
   -2.9307   -0.0089    0.5390 C   0  0  0  0  0  0  0  0  0  0  0  0
   -2.9225   -0.3383   -0.7971 C   0  0  0  0  0  0  0  0  0  0  0  0
    2.4203   -0.1628   -0.0266 C   0  0  0  0  0  0  0  0  0  0  0  0
    6.1585    0.1672   -0.1516 C   0  0  0  0  0  0  0  0  0  0  0  0
    4.5007    1.6343    0.7820 C   0  0  0  0  0  0  0  0  0  0  0  0
   -3.4208    1.2008    0.9856 C   0  0  0  0  0  0  0  0  0  0  0  0
   -3.4035    0.5238   -1.7606 C   0  0  0  0  0  0  0  0  0  0  0  0
    6.4431   -0.9381   -1.1543 C   0  0  0  0  0  0  0  0  0  0  0  0
    5.3527    2.8573    0.4884 C   0  0  0  0  0  0  0  0  0  0  0  0
   -3.9142    2.0924    0.0302 C   0  0  0  0  0  0  0  0  0  0  0  0
   -3.9056    1.7559   -1.3350 C   0  0  0  0  0  0  0  0  0  0  0  0
  1 20  1  0
  2  6  1  0
  2 11  1  0
  3  6  1  0
  3 12  1  0
  4  8  1  0
  4 13  1  0
  5 10  1  0
  5 14  1  0
  5 15  1  0
  6  7  1  0
  6  9  1  0
  7  8  1  0
 10 13  1  0
 11 12  2  0
 11 16  1  0
 12 17  1  0
 14 18  1  0
 15 19  1  0
 16 20  2  0
 17 21  2  0
 20 21  1  0
M  END
>  <PUBCHEM_COMPOUND_CID>  (1) 
41828

>  <PUBCHEM_CONFORMER_RMSD>  (1) 
0.8

>  <PUBCHEM_CONFORMER_DIVERSEORDER>  (1) 
2
51
60
16
6
68
44
191
127
137
75
148
169
205
103
88
115
242
50
189
46
149
39
218
101
15
154
7
174
32
128
213
37
72
90
21
161
124
81
198
5
182
62
31
153
187
216
22
122
126
136
59
173
129
38
111
116
93
150
20
135
34
184
152
181
109
114
29
141
162
214
97
120
219
82
56
104
36
102
52
71
55
225
118
33
24
231
19
99
92
234
134
119
155
74
121
45
14
151
233
236
87
30
96
47
105
17
227
23
158
41
132
94
172
188
229
217
66
222
160
28
143
125
12
232
64
176
53
73
18
91
108
123
107
65
209
206
221
238
140
61
80
144
235
54
85
106
100
40
43
159
190
208
67
69
203
239
200
224
167
215
98
26
3
70
110
95
48
194
13
117
79
220
131
4
58
226
196
84
183
25
241
142
83
78
195
156
1
139
112
212
27
170
77
57
207
199
165
164
228
223
202
63
42
178
175
180
49
113
193
35
76
157
11
177
201
9
166
89
237
197
179
86
185
168
145
8
210
204
171
163
192
130
147
10
138
133
186
146
243
240
230
211

>  <PUBCHEM_MMFF94_PARTIAL_CHARGES>  (1) 
20
1 -0.18
10 0.27
11 0.08
12 0.08
13 0.28
14 0.27
15 0.27
16 -0.15
17 -0.15
2 -0.36
20 0.18
21 -0.15
3 -0.36
37 0.15
38 0.15
4 -0.56
45 0.15
5 -0.81
6 0.56
8 0.28

>  <PUBCHEM_EFFECTIVE_ROTOR_COUNT>  (1) 
8.6

>  <PUBCHEM_PHARMACOPHORE_FEATURES>  (1) 
6
1 2 acceptor
1 3 acceptor
1 4 acceptor
1 5 cation
5 2 3 6 11 12 rings
6 11 12 16 17 20 21 rings

>  <PUBCHEM_HEAVY_ATOM_COUNT>  (1) 
21

>  <PUBCHEM_ATOM_DEF_STEREO_COUNT>  (1) 
0

>  <PUBCHEM_ATOM_UDEF_STEREO_COUNT>  (1) 
1

>  <PUBCHEM_BOND_DEF_STEREO_COUNT>  (1) 
0

>  <PUBCHEM_BOND_UDEF_STEREO_COUNT>  (1) 
0

>  <PUBCHEM_ISOTOPIC_ATOM_COUNT>  (1) 
0

>  <PUBCHEM_COMPONENT_COUNT>  (1) 
1

>  <PUBCHEM_CACTVS_TAUTO_COUNT>  (1) 
1

>  <PUBCHEM_CONFORMER_ID>  (1) 
0000A36400000002

>  <PUBCHEM_MMFF94_ENERGY>  (1) 
43.4385

>  <PUBCHEM_FEATURE_SELFOVERLAP>  (1) 
30.6

>  <PUBCHEM_SHAPE_FINGERPRINT>  (1) 
11089746 13 18411409610527160326
11370993 144 18409730621553014838
11405975 8 18407755933277531610
12107183 9 18190169084737160498
12390115 104 18261681384920341863
14142880 1 18260266331246887895
14251764 38 18339922748554843540
14251764 75 17984427330702812721
14848178 96 18411129230424420392
15183329 4 18410856517618888878
17834072 32 18410291376324791800
17844677 252 18336834207818073106
18927931 339 10231757811821247752
20645477 56 18335708225790212115
21054139 6 12175620656002327228
21279426 13 18341618101480078358
21315759 148 13768212632350737680
21401589 2 18188493476176439873
22182937 141 18408887339094745825
22956985 138 15952461062349158755
270888 7 18194119621172766097
27216 239 18259707800551128627
283562 15 18261386823600968979
2838139 119 18341890740759924084
3472631 163 18129095620329394653
474 4 17977378340376397747
497634 4 16987446510445849099
5104073 3 18040709269338283962
5283173 99 18412825811436859328
531348 171 18060416881062785462
57724786 102 18116996572443094202
59124914 9 18337392622032692736
633830 44 18411411839583779006
7288768 16 18042133063834180897
90127 26 18335144249877385170

>  <PUBCHEM_SHAPE_MULTIPOLES>  (1) 
411.45
14.75
3.62
1.2
25.9
1.04
-0.34
9.12
-1.9
-3.73
0.99
-0.92
0.1
1.18

>  <PUBCHEM_SHAPE_SELFOVERLAP>  (1) 
835.506

>  <PUBCHEM_SHAPE_VOLUME>  (1) 
241.8

>  <PUBCHEM_COORDINATE_TYPE>  (1) 
2
5
10

$$$$
