41833
     RDKit          3D

 19 20  0  0  0  0  0  0  0  0999 V2000
   -2.2606   -0.7149   -1.3314 O   0  0  0  0  0  0  0  0  0  0  0  0
   -2.5194   -0.9980    1.0484 O   0  0  0  0  0  0  0  0  0  0  0  0
    1.5593   -1.4858    0.2412 O   0  0  0  0  0  0  0  0  0  0  0  0
    4.9545    0.9859   -0.2096 N   0  0  0  0  0  0  0  0  0  0  0  0
   -2.1609   -1.6246   -0.2079 C   0  0  0  0  0  0  0  0  0  0  0  0
   -0.7157   -2.1116   -0.1087 C   0  0  0  0  0  0  0  0  0  0  0  0
    0.2379   -0.9671    0.1792 C   0  0  0  0  0  0  0  0  0  0  0  0
   -3.1108   -2.7966   -0.4506 C   0  0  0  0  0  0  0  0  0  0  0  0
   -2.6761    0.4273   -0.7168 C   0  0  0  0  0  0  0  0  0  0  0  0
   -2.8239    0.2658    0.6417 C   0  0  0  0  0  0  0  0  0  0  0  0
    3.8989   -1.0842    0.5624 C   0  0  0  0  0  0  0  0  0  0  0  0
    2.5095   -0.4634    0.5092 C   0  0  0  0  0  0  0  0  0  0  0  0
    4.9714   -0.0336    0.8324 C   0  0  0  0  0  0  0  0  0  0  0  0
   -2.9328    1.6326   -1.3370 C   0  0  0  0  0  0  0  0  0  0  0  0
   -3.2368    1.3003    1.4555 C   0  0  0  0  0  0  0  0  0  0  0  0
   -3.3530    2.6968   -0.5357 C   0  0  0  0  0  0  0  0  0  0  0  0
   -3.5040    2.5316    0.8525 C   0  0  0  0  0  0  0  0  0  0  0  0
    5.9175    2.0468    0.0914 C   0  0  0  0  0  0  0  0  0  0  0  0
    5.2450    0.3928   -1.5162 C   0  0  0  0  0  0  0  0  0  0  0  0
  1  5  1  0
  1  9  1  0
  2  5  1  0
  2 10  1  0
  3  7  1  0
  3 12  1  0
  4 13  1  0
  4 18  1  0
  4 19  1  0
  5  6  1  0
  5  8  1  0
  6  7  1  0
  9 10  2  0
  9 14  1  0
 10 15  1  0
 11 12  1  0
 11 13  1  0
 14 16  2  0
 15 17  2  0
 16 17  1  0
M  END
>  <PUBCHEM_COMPOUND_CID>  (1) 
41833

>  <PUBCHEM_CONFORMER_RMSD>  (1) 
0.8

>  <PUBCHEM_CONFORMER_DIVERSEORDER>  (1) 
7
94
109
60
72
104
23
97
47
37
66
81
2
58
26
71
16
33
25
8
45
19
54
17
76
46
14
63
18
90
99
15
62
3
103
39
113
53
10
88
52
87
77
9
61
106
12
27
89
31
30
92
69
42
96
34
41
24
110
22
101
93
28
70
105
85
86
20
107
91
11
51
78
36
38
95
112
75
13
50
74
35
1
57
108
43
67
49
80
102
44
29
6
40
98
68
21
111
56
82
73
4
84
48
32
79
5
83
65
55
59
64
100

>  <PUBCHEM_MMFF94_PARTIAL_CHARGES>  (1) 
20
1 -0.36
10 0.08
12 0.28
13 0.27
14 -0.15
15 -0.15
16 -0.15
17 -0.15
18 0.27
19 0.27
2 -0.36
3 -0.56
33 0.15
34 0.15
35 0.15
36 0.15
4 -0.81
5 0.56
7 0.28
9 0.08

>  <PUBCHEM_EFFECTIVE_ROTOR_COUNT>  (1) 
7.6

>  <PUBCHEM_PHARMACOPHORE_FEATURES>  (1) 
6
1 1 acceptor
1 2 acceptor
1 3 acceptor
1 4 cation
5 1 2 5 9 10 rings
6 9 10 14 15 16 17 rings

>  <PUBCHEM_HEAVY_ATOM_COUNT>  (1) 
19

>  <PUBCHEM_ATOM_DEF_STEREO_COUNT>  (1) 
0

>  <PUBCHEM_ATOM_UDEF_STEREO_COUNT>  (1) 
0

>  <PUBCHEM_BOND_DEF_STEREO_COUNT>  (1) 
0

>  <PUBCHEM_BOND_UDEF_STEREO_COUNT>  (1) 
0

>  <PUBCHEM_ISOTOPIC_ATOM_COUNT>  (1) 
0

>  <PUBCHEM_COMPONENT_COUNT>  (1) 
1

>  <PUBCHEM_CACTVS_TAUTO_COUNT>  (1) 
1

>  <PUBCHEM_CONFORMER_ID>  (1) 
0000A36900000007

>  <PUBCHEM_MMFF94_ENERGY>  (1) 
44.7272

>  <PUBCHEM_FEATURE_SELFOVERLAP>  (1) 
30.6

>  <PUBCHEM_SHAPE_FINGERPRINT>  (1) 
10014705 185 18261384525238583383
10615611 76 17749687267354556172
10670039 82 18335709373158027004
11056379 131 18340772649209653518
11370993 144 15285910300420870944
11405975 8 18335698283368391402
12107183 9 18047177563169393954
12390115 104 18340218409343588243
12788726 201 18264752415624144467
13887833 79 16200432421291977604
13994607 96 18131350782943937425
14142880 1 18260825969659139799
14251764 75 17911807873121931017
14848178 5 10231751150817848348
14950920 106 16443345326188252856
15239154 128 18335138704984791960
15342168 16 18125441908851395433
16994733 274 16662303158902535509
17780758 139 12035720999295637308
17834072 32 18338234869098238416
17844677 252 18411705422078454698
20645477 56 18343589520843084803
23403322 49 10015568511321402209
27216 239 18260270707475612777
283562 15 18336258046366758979
2838139 119 17680972012640226749
312425 54 10665768041723832588
341906 21 18341599443915291696
350125 39 18412263973716177457
5104073 3 18186515502097546602
57724786 102 18123473773967408424
633830 44 18334292025144731794
90127 26 18334020488822298250

>  <PUBCHEM_SHAPE_MULTIPOLES>  (1) 
368.42
12.32
3.01
1.26
22.81
0.26
-0.15
7.09
-0.46
-3.16
-0.16
-0.33
0.36
-0.71

>  <PUBCHEM_SHAPE_SELFOVERLAP>  (1) 
757.544

>  <PUBCHEM_SHAPE_VOLUME>  (1) 
214.4

>  <PUBCHEM_COORDINATE_TYPE>  (1) 
2
5
10

$$$$
