41831
     RDKit          3D

 20 22  0  0  0  0  0  0  0  0999 V2000
   -1.1581   -1.4106    0.0578 O   0  0  0  0  0  0  0  0  0  0  0  0
    2.7430   -0.7254   -1.2977 O   0  0  0  0  0  0  0  0  0  0  0  0
    2.8918   -0.9833    1.0944 O   0  0  0  0  0  0  0  0  0  0  0  0
   -4.5087    0.0739    0.3827 N   0  0  0  0  0  0  0  0  0  0  0  0
   -5.8636   -0.4696    0.4724 C   0  0  0  0  0  0  0  0  0  0  0  0
   -4.5413    0.9883   -0.7584 C   0  0  0  0  0  0  0  0  0  0  0  0
   -6.7371    0.7526    0.2317 C   0  0  0  0  0  0  0  0  0  0  0  0
   -5.8694    1.7093   -0.5803 C   0  0  0  0  0  0  0  0  0  0  0  0
   -3.5018   -0.9661    0.2327 C   0  0  0  0  0  0  0  0  0  0  0  0
    2.5788   -1.6195   -0.1693 C   0  0  0  0  0  0  0  0  0  0  0  0
   -2.1077   -0.3609    0.1872 C   0  0  0  0  0  0  0  0  0  0  0  0
    1.1230   -2.0824   -0.1286 C   0  0  0  0  0  0  0  0  0  0  0  0
    0.1705   -0.9094    0.0093 C   0  0  0  0  0  0  0  0  0  0  0  0
    3.5193   -2.8093   -0.3562 C   0  0  0  0  0  0  0  0  0  0  0  0
    3.1496    0.4175   -0.6785 C   0  0  0  0  0  0  0  0  0  0  0  0
    3.2344    0.2703    0.6871 C   0  0  0  0  0  0  0  0  0  0  0  0
    3.4533    1.6108   -1.3005 C   0  0  0  0  0  0  0  0  0  0  0  0
    3.6276    1.3082    1.5064 C   0  0  0  0  0  0  0  0  0  0  0  0
    3.8548    2.6781   -0.4937 C   0  0  0  0  0  0  0  0  0  0  0  0
    3.9415    2.5276    0.9017 C   0  0  0  0  0  0  0  0  0  0  0  0
  1 11  1  0
  1 13  1  0
  2 10  1  0
  2 15  1  0
  3 10  1  0
  3 16  1  0
  4  5  1  0
  4  6  1  0
  4  9  1  0
  5  7  1  0
  6  8  1  0
  7  8  1  0
  9 11  1  0
 10 12  1  0
 10 14  1  0
 12 13  1  0
 15 16  2  0
 15 17  1  0
 16 18  1  0
 17 19  2  0
 18 20  2  0
 19 20  1  0
M  END
>  <PUBCHEM_COMPOUND_CID>  (1) 
41831

>  <PUBCHEM_CONFORMER_RMSD>  (1) 
0.8

>  <PUBCHEM_CONFORMER_DIVERSEORDER>  (1) 
1
9
16
25
29
63
65
12
13
40
31
51
54
7
57
2
8
52
34
53
46
14
45
22
41
17
66
4
61
21
19
24
50
6
5
33
55
48
26
10
32
43
11
15
58
56
62
36
3
28
39
20
18
35
47
38
23
27
44
49
30
42
67
59
37
64
60

>  <PUBCHEM_MMFF94_PARTIAL_CHARGES>  (1) 
20
1 -0.56
10 0.56
11 0.28
13 0.28
15 0.08
16 0.08
17 -0.15
18 -0.15
19 -0.15
2 -0.36
20 -0.15
3 -0.36
4 -0.81
40 0.15
41 0.15
42 0.15
43 0.15
5 0.27
6 0.27
9 0.27

>  <PUBCHEM_EFFECTIVE_ROTOR_COUNT>  (1) 
7.6

>  <PUBCHEM_PHARMACOPHORE_FEATURES>  (1) 
7
1 1 acceptor
1 2 acceptor
1 3 acceptor
1 4 cation
5 2 3 10 15 16 rings
5 4 5 6 7 8 rings
6 15 16 17 18 19 20 rings

>  <PUBCHEM_HEAVY_ATOM_COUNT>  (1) 
20

>  <PUBCHEM_ATOM_DEF_STEREO_COUNT>  (1) 
0

>  <PUBCHEM_ATOM_UDEF_STEREO_COUNT>  (1) 
0

>  <PUBCHEM_BOND_DEF_STEREO_COUNT>  (1) 
0

>  <PUBCHEM_BOND_UDEF_STEREO_COUNT>  (1) 
0

>  <PUBCHEM_ISOTOPIC_ATOM_COUNT>  (1) 
0

>  <PUBCHEM_COMPONENT_COUNT>  (1) 
1

>  <PUBCHEM_CACTVS_TAUTO_COUNT>  (1) 
1

>  <PUBCHEM_CONFORMER_ID>  (1) 
0000A36700000001

>  <PUBCHEM_MMFF94_ENERGY>  (1) 
41.1942

>  <PUBCHEM_FEATURE_SELFOVERLAP>  (1) 
35.676

>  <PUBCHEM_SHAPE_FINGERPRINT>  (1) 
10498660 4 18058736934526807208
11595378 159 15791725270360957221
125118 31 18335423414520925493
12616971 3 17988634165221672199
12633257 1 16154265160412310804
12730499 353 18341060699749203986
12769317 202 18201151156645282768
13533116 47 18341054025744188959
13551218 46 8574706906661078545
13561361 72 17677605355238867381
13878862 14 18264750117763029949
13955234 65 18336265626699109243
13965767 371 18116133645358470340
14170010 4 18343581811988757042
1420 369 8214150655048354629
14251764 38 18337672997472142001
14251764 75 17900266604233557156
14461889 52 18189058758323775835
14528608 73 18201719574508374231
14774955 27 18410853308555437349
14848178 96 18412266142405760001
15183329 4 10303821977955807943
15210252 30 18337676437604095112
15342168 16 18337390551383767335
17810953 82 18409446990038893844
17844677 252 18339367358059536329
17868525 174 18045209445428280554
17959699 21 18411699851358049049
20157964 124 18411416198838167959
21304303 282 16841602925152215494
21315764 268 18187921730209065613
21452121 103 18409162216949065762
22289505 5 18342741801736177764
22849339 104 15123214599066403933
23081809 10 12612757913510473499
23559900 14 18341050709682017451
270888 7 18194964265151576308
34797466 226 18060427919671509111
465052 167 7997975686490502905
495365 180 18342737420843408978
5104073 3 18260552208486092699
57359948 33 12967129380811965011
633830 44 18334852814481748295
7808743 9 18048319143864527652
90127 26 18187092724148203211
960060 61 13470692572127981193

>  <PUBCHEM_SHAPE_MULTIPOLES>  (1) 
389
15.17
2.82
1.1
29.08
0.11
-0.03
7.34
-0.42
-4.16
0.23
-1.08
0.39
0.92

>  <PUBCHEM_SHAPE_SELFOVERLAP>  (1) 
817.874

>  <PUBCHEM_SHAPE_VOLUME>  (1) 
222

>  <PUBCHEM_COORDINATE_TYPE>  (1) 
2
5
10

$$$$
