41830
     RDKit          3D

 21 23  0  0  0  0  0  0  0  0999 V2000
   -3.0864    0.6687   -1.3099 O   0  0  0  0  0  0  0  0  0  0  0  0
   -3.2415    0.9725    1.0764 O   0  0  0  0  0  0  0  0  0  0  0  0
    0.7899    1.5187    0.0233 O   0  0  0  0  0  0  0  0  0  0  0  0
    6.5762   -1.1725   -0.4434 O   0  0  0  0  0  0  0  0  0  0  0  0
    4.1950    0.1554    0.3742 N   0  0  0  0  0  0  0  0  0  0  0  0
   -2.9523    1.5921   -0.2012 C   0  0  0  0  0  0  0  0  0  0  0  0
   -1.5135    2.1063   -0.1732 C   0  0  0  0  0  0  0  0  0  0  0  0
    3.1478    1.1602    0.2032 C   0  0  0  0  0  0  0  0  0  0  0  0
    4.2006   -0.7892   -0.7515 C   0  0  0  0  0  0  0  0  0  0  0  0
    5.5131    0.7922    0.5035 C   0  0  0  0  0  0  0  0  0  0  0  0
   -0.5205    0.9705   -0.0121 C   0  0  0  0  0  0  0  0  0  0  0  0
    1.7758    0.5059    0.1733 C   0  0  0  0  0  0  0  0  0  0  0  0
    5.3085   -1.8203   -0.5564 C   0  0  0  0  0  0  0  0  0  0  0  0
    6.5906   -0.2758    0.6679 C   0  0  0  0  0  0  0  0  0  0  0  0
   -3.9340    2.7441   -0.4117 C   0  0  0  0  0  0  0  0  0  0  0  0
   -3.4521   -0.4741   -0.6656 C   0  0  0  0  0  0  0  0  0  0  0  0
   -3.5405   -0.3007    0.6966 C   0  0  0  0  0  0  0  0  0  0  0  0
   -3.7146   -1.6903   -1.2614 C   0  0  0  0  0  0  0  0  0  0  0  0
   -3.8963   -1.3339    1.5387 C   0  0  0  0  0  0  0  0  0  0  0  0
   -4.0777   -2.7534   -0.4312 C   0  0  0  0  0  0  0  0  0  0  0  0
   -4.1680   -2.5762    0.9607 C   0  0  0  0  0  0  0  0  0  0  0  0
  1  6  1  0
  1 16  1  0
  2  6  1  0
  2 17  1  0
  3 11  1  0
  3 12  1  0
  4 13  1  0
  4 14  1  0
  5  8  1  0
  5  9  1  0
  5 10  1  0
  6  7  1  0
  6 15  1  0
  7 11  1  0
  8 12  1  0
  9 13  1  0
 10 14  1  0
 16 17  2  0
 16 18  1  0
 17 19  1  0
 18 20  2  0
 19 21  2  0
 20 21  1  0
M  END
>  <PUBCHEM_COMPOUND_CID>  (1) 
41830

>  <PUBCHEM_CONFORMER_RMSD>  (1) 
0.8

>  <PUBCHEM_CONFORMER_DIVERSEORDER>  (1) 
1
21
13
42
78
2
11
68
74
3
52
33
14
67
44
38
55
63
62
15
12
16
47
37
10
61
79
27
8
71
65
28
39
17
5
51
34
18
6
56
76
69
4
43
9
49
19
32
53
45
58
22
36
77
60
66
46
20
7
81
80
23
26
64
29
30
25
24
35
75
70
31
54
40
50
41
48
82
72
57
73
59

>  <PUBCHEM_MMFF94_PARTIAL_CHARGES>  (1) 
23
1 -0.36
10 0.27
11 0.28
12 0.28
13 0.28
14 0.28
16 0.08
17 0.08
18 -0.15
19 -0.15
2 -0.36
20 -0.15
21 -0.15
3 -0.56
4 -0.56
41 0.15
42 0.15
43 0.15
44 0.15
5 -0.81
6 0.56
8 0.27
9 0.27

>  <PUBCHEM_EFFECTIVE_ROTOR_COUNT>  (1) 
7.8

>  <PUBCHEM_PHARMACOPHORE_FEATURES>  (1) 
8
1 1 acceptor
1 2 acceptor
1 3 acceptor
1 4 acceptor
1 5 cation
5 1 2 6 16 17 rings
6 16 17 18 19 20 21 rings
6 4 5 9 10 13 14 rings

>  <PUBCHEM_HEAVY_ATOM_COUNT>  (1) 
21

>  <PUBCHEM_ATOM_DEF_STEREO_COUNT>  (1) 
0

>  <PUBCHEM_ATOM_UDEF_STEREO_COUNT>  (1) 
0

>  <PUBCHEM_BOND_DEF_STEREO_COUNT>  (1) 
0

>  <PUBCHEM_BOND_UDEF_STEREO_COUNT>  (1) 
0

>  <PUBCHEM_ISOTOPIC_ATOM_COUNT>  (1) 
0

>  <PUBCHEM_COMPONENT_COUNT>  (1) 
1

>  <PUBCHEM_CACTVS_TAUTO_COUNT>  (1) 
1

>  <PUBCHEM_CONFORMER_ID>  (1) 
0000A36600000001

>  <PUBCHEM_MMFF94_ENERGY>  (1) 
46.4602

>  <PUBCHEM_FEATURE_SELFOVERLAP>  (1) 
40.751

>  <PUBCHEM_SHAPE_FINGERPRINT>  (1) 
11036077 4 18059586771722224995
11315181 36 17418085512241365193
11545043 162 18343577447879829192
11796584 16 18339077078320799712
11809386 21 18113611287931719179
12616971 3 16950856833816265628
12633257 1 16127819711199488111
12760667 363 18339922718879910487
13167823 11 18410291411180213804
13941219 33 18271537433179830603
14251740 79 17458345294507454243
14251751 18 18412266138458796190
14461889 52 18340196493365037696
14950920 106 16558470919208079531
15183329 4 8142094160986297676
15250474 111 18042390366582397722
15348495 7 18201715163561540192
17093844 174 18341323418946598488
17627616 140 17968931981656429586
17780758 139 17917999373199226929
17844677 252 18343586248405280104
17870717 6 17749383789323593447
18927931 339 18409171017057473975
193927 3 18188214307006050241
21054139 6 17894627068082615218
21403212 168 18271259223090278857
21623969 137 17847064376845101606
220451 1 17894915067014336960
2303208 19 17989212530128866100
23081809 10 12751233706357847448
23402539 116 17821446833643618348
23424784 1240 18200887192767546894
23559900 14 18339630222284382617
25122255 55 18412549808011080766
27216 239 10951778508067242453
4073 2 18411418376497369904
44062 13 18408323254901018053
5104073 3 18272929415064223064
531348 171 17096632219893255834
5365585 94 18188497985454569043
559249 180 18336543833526908325
56633871 153 18126009514644993167
6431902 208 18410854395335520742
7495541 125 18131066061409905168
7970288 3 18122625221875320339

>  <PUBCHEM_SHAPE_MULTIPOLES>  (1) 
403.71
16.19
2.86
1.11
28.41
0.3
-0.07
7.29
-0.7
-4.2
0.23
-1.02
0.39
1.15

>  <PUBCHEM_SHAPE_SELFOVERLAP>  (1) 
845.685

>  <PUBCHEM_SHAPE_VOLUME>  (1) 
229

>  <PUBCHEM_COORDINATE_TYPE>  (1) 
2
5
10

$$$$
