41839
     RDKit          3D

 24 26  0  0  1  0  0  0  0  0999 V2000
    3.1027    1.8119   -0.8298 Cl  0  0  0  0  0  0  0  0  0  0  0  0
    1.0803   -1.8959   -1.6099 S   0  0  0  0  0  0  0  0  0  0  0  0
   -1.0710    3.6249   -0.2242 O   0  0  0  0  0  0  0  0  0  0  0  0
    0.4307    2.7182   -1.6550 O   0  0  0  0  0  0  0  0  0  0  0  0
   -2.4579    1.1853   -0.1634 N   0  0  0  0  0  0  0  0  0  0  0  0
   -0.5730    0.0575   -0.4832 C   0  0  0  0  0  0  0  0  0  0  0  0
    0.8338   -0.2747   -0.7954 C   0  0  0  0  0  0  0  0  0  0  0  0
   -1.5814   -0.8649   -0.0867 C   0  0  0  0  0  0  0  0  0  0  0  0
   -2.7540   -0.1315    0.1077 C   0  0  0  0  0  0  0  0  0  0  0  0
   -1.1422    1.3095   -0.5213 C   0  0  0  0  0  0  0  0  0  0  0  0
    1.6501   -0.0859    0.4815 C   0  0  0  0  0  0  0  0  0  0  0  0
   -1.6094   -2.2574    0.1262 C   0  0  0  0  0  0  0  0  0  0  0  0
   -3.9577   -0.7236    0.5059 C   0  0  0  0  0  0  0  0  0  0  0  0
   -3.4025    2.2806   -0.0813 C   0  0  0  0  0  0  0  0  0  0  0  0
   -0.5150    2.5499   -0.8682 C   0  0  0  0  0  0  0  0  0  0  0  0
   -2.8064   -2.8633    0.5245 C   0  0  0  0  0  0  0  0  0  0  0  0
   -3.9613   -2.1063    0.7109 C   0  0  0  0  0  0  0  0  0  0  0  0
    2.6768    0.8323    0.5258 C   0  0  0  0  0  0  0  0  0  0  0  0
    1.3116   -0.8676    1.5668 C   0  0  0  0  0  0  0  0  0  0  0  0
    2.8546   -1.7542   -1.9105 C   0  0  0  0  0  0  0  0  0  0  0  0
    3.3996    0.9767    1.7102 C   0  0  0  0  0  0  0  0  0  0  0  0
    2.0346   -0.7232    2.7509 C   0  0  0  0  0  0  0  0  0  0  0  0
    3.0786    0.1989    2.8226 C   0  0  0  0  0  0  0  0  0  0  0  0
    3.3785   -2.9973   -2.6044 C   0  0  0  0  0  0  0  0  0  0  0  0
  1 18  1  0
  2  7  1  0
  2 20  1  0
  3 15  1  0
  4 15  2  0
  5  9  1  0
  5 10  1  0
  5 14  1  0
  6  7  1  0
  6  8  1  0
  6 10  2  0
  7 11  1  0
  8  9  2  0
  8 12  1  0
  9 13  1  0
 10 15  1  0
 11 18  2  0
 11 19  1  0
 12 16  2  0
 13 17  2  0
 16 17  1  0
 18 21  1  0
 19 22  2  0
 20 24  1  0
 21 23  2  0
 22 23  1  0
M  END
>  <PUBCHEM_COMPOUND_CID>  (1) 
41839

>  <PUBCHEM_CONFORMER_RMSD>  (1) 
0.8

>  <PUBCHEM_CONFORMER_DIVERSEORDER>  (1) 
1
26
13
22
27
15
9
18
25
12
19
23
24
20
28
21
10
17
7
14
5
16
6
8
4
3
11
2

>  <PUBCHEM_MMFF94_PARTIAL_CHARGES>  (1) 
31
1 -0.18
10 -0.24
11 -0.14
12 -0.15
13 -0.15
14 0.26
15 0.81
16 -0.15
17 -0.15
18 0.18
19 -0.15
2 -0.46
20 0.23
21 -0.15
22 -0.15
23 -0.15
26 0.15
27 0.15
3 -0.65
31 0.15
32 0.15
33 0.15
36 0.15
37 0.15
38 0.15
4 -0.57
42 0.5
5 0.05
6 -0.18
7 0.55
9 -0.15

>  <PUBCHEM_EFFECTIVE_ROTOR_COUNT>  (1) 
5

>  <PUBCHEM_PHARMACOPHORE_FEATURES>  (1) 
8
1 24 hydrophobe
1 3 acceptor
1 4 acceptor
1 5 cation
3 3 4 15 anion
5 5 6 8 9 10 rings
6 11 18 19 21 22 23 rings
6 8 9 12 13 16 17 rings

>  <PUBCHEM_HEAVY_ATOM_COUNT>  (1) 
24

>  <PUBCHEM_ATOM_DEF_STEREO_COUNT>  (1) 
0

>  <PUBCHEM_ATOM_UDEF_STEREO_COUNT>  (1) 
1

>  <PUBCHEM_BOND_DEF_STEREO_COUNT>  (1) 
0

>  <PUBCHEM_BOND_UDEF_STEREO_COUNT>  (1) 
0

>  <PUBCHEM_ISOTOPIC_ATOM_COUNT>  (1) 
0

>  <PUBCHEM_COMPONENT_COUNT>  (1) 
1

>  <PUBCHEM_CACTVS_TAUTO_COUNT>  (1) 
1

>  <PUBCHEM_CONFORMER_ID>  (1) 
0000A36F00000001

>  <PUBCHEM_MMFF94_ENERGY>  (1) 
69.51

>  <PUBCHEM_FEATURE_SELFOVERLAP>  (1) 
40.746

>  <PUBCHEM_SHAPE_FINGERPRINT>  (1) 
10165383 225 17403482679306541133
10906281 52 18410565211277499581
1100329 8 17176302046484378800
11578080 2 17775018881271097689
11582403 64 16613002074650622360
12553582 1 18190175879106188947
12633257 1 18121194524870366593
12716301 132 17975974263241867514
12788726 201 18334859472049744377
13083527 12 17902494219502044619
13140716 1 18191583039462663747
14022347 108 18187098242975527971
14341114 328 17969495086254312840
14787075 74 17463128294763565416
14856354 85 17898818406476347874
15375462 189 17750507563036943715
15420108 30 17335339819483898949
16945 1 18058156400956085753
17349148 13 18055060224116740271
20600515 1 18261945276369644565
20905425 154 17901669589833846709
21421861 104 17968948616459495953
22182313 1 18412826867835244951
23419403 2 17702379538360978230
23526113 38 17556017983267651702
23557571 272 18411135822871957561
23559900 14 18340775848922631943
25222932 49 17319863055004554267
2748010 2 18339928121611074591
3286 77 17203051777150674799
392239 28 17826215578602952896
484985 159 16161811976529396826
495365 180 17488448690320176863
6442390 28 17128731607284320022
7097593 13 17752740482063515880
81228 2 18337107861432549493
90316 7 18042385998405465313
9925002 15 16760263390763522246

>  <PUBCHEM_SHAPE_MULTIPOLES>  (1) 
482.91
6.57
3.64
2.34
2.3
0.51
-0.98
-1.79
-1.41
0.69
2.18
-3.43
-0.82
2.41

>  <PUBCHEM_SHAPE_SELFOVERLAP>  (1) 
1031.079

>  <PUBCHEM_SHAPE_VOLUME>  (1) 
273.1

>  <PUBCHEM_COORDINATE_TYPE>  (1) 
2
5
10

$$$$
