41836
     RDKit          3D

 16 15  0  0  1  0  0  0  0  0999 V2000
   -2.5684    0.5700    0.1139 C   0  0  0  0  0  0  0  0  0  0  0  0
   -1.2832   -0.2449   -0.1590 C   0  0  0  0  0  0  0  0  0  0  0  0
   -3.7953   -0.3358   -0.1429 C   0  0  0  0  0  0  0  0  0  0  0  0
    0.0073    0.5148    0.1658 C   0  0  0  0  0  0  0  0  0  0  0  0
   -5.0776    0.1520    0.5440 C   0  0  0  0  0  0  0  0  0  0  0  0
    1.2745   -0.3109   -0.0829 C   0  0  0  0  0  0  0  0  0  0  0  0
   -6.3124   -0.7137    0.2234 C   0  0  0  0  0  0  0  0  0  0  0  0
    2.5985    0.3868    0.2446 C   0  0  0  0  0  0  0  0  0  0  0  0
   -2.6146    1.8436   -0.7364 C   0  0  0  0  0  0  0  0  0  0  0  0
    3.8313   -0.4603   -0.0816 C   0  0  0  0  0  0  0  0  0  0  0  0
    5.1217    0.2905    0.2580 C   0  0  0  0  0  0  0  0  0  0  0  0
   -7.5266   -0.1889    0.9946 C   0  0  0  0  0  0  0  0  0  0  0  0
   -6.6326   -0.7508   -1.2718 C   0  0  0  0  0  0  0  0  0  0  0  0
    6.3910   -0.5016   -0.0683 C   0  0  0  0  0  0  0  0  0  0  0  0
    7.6796    0.2756    0.2026 C   0  0  0  0  0  0  0  0  0  0  0  0
    8.9067   -0.5264   -0.2039 C   0  0  0  0  0  0  0  0  0  0  0  0
  1  2  1  0
  1  3  1  0
  1  9  1  0
  2  4  1  0
  3  5  1  0
  4  6  1  0
  5  7  1  0
  6  8  1  0
  7 12  1  0
  7 13  1  0
  8 10  1  0
 10 11  1  0
 11 14  1  0
 14 15  1  0
 15 16  1  0
M  END
>  <PUBCHEM_COMPOUND_CID>  (1) 
41836

>  <PUBCHEM_CONFORMER_RMSD>  (1) 
1.2

>  <PUBCHEM_CONFORMER_DIVERSEORDER>  (1) 
1
74
4
87
106
3
6
24
81
58
53
44
96
62
34
35
75
42
101
56
9
41
39
7
54
82
61
104
19
20
107
26
52
46
84
8
5
92
48
2
69
99
93
100
65
57
15
50
55
83
37
66
51
14
90
17
72
67
89
77
63
105
12
86
60
73
59
23
30
43
29
64
36
25
11
47
68
80
31
78
71
70
79
21
76
97
45
108
38
10
32
28
49
95
13
16
40
103
91
102
94
88
18
98
85
22
33
27

>  <PUBCHEM_MMFF94_PARTIAL_CHARGES>  (1) 
0

>  <PUBCHEM_EFFECTIVE_ROTOR_COUNT>  (1) 
11

>  <PUBCHEM_PHARMACOPHORE_FEATURES>  (1) 
3
1 16 hydrophobe
1 9 hydrophobe
3 7 12 13 hydrophobe

>  <PUBCHEM_HEAVY_ATOM_COUNT>  (1) 
16

>  <PUBCHEM_ATOM_DEF_STEREO_COUNT>  (1) 
0

>  <PUBCHEM_ATOM_UDEF_STEREO_COUNT>  (1) 
1

>  <PUBCHEM_BOND_DEF_STEREO_COUNT>  (1) 
0

>  <PUBCHEM_BOND_UDEF_STEREO_COUNT>  (1) 
0

>  <PUBCHEM_ISOTOPIC_ATOM_COUNT>  (1) 
0

>  <PUBCHEM_COMPONENT_COUNT>  (1) 
1

>  <PUBCHEM_CACTVS_TAUTO_COUNT>  (1) 
1

>  <PUBCHEM_CONFORMER_ID>  (1) 
0000A36C00000001

>  <PUBCHEM_MMFF94_ENERGY>  (1) 
7.0289

>  <PUBCHEM_FEATURE_SELFOVERLAP>  (1) 
15.223

>  <PUBCHEM_SHAPE_FINGERPRINT>  (1) 
10066227 49 16878215360765911690
10299344 5 17918275355076360710
10968037 39 17894348887129379931
11315181 36 16226054387650574245
12091667 2 18412544310885198561
13073987 5 18130229233880832410
13533116 47 17531235132937498922
13968360 50 15213012735550123824
14123256 10 17749108889635806018
1420 363 18333453144763547707
14251764 18 18412824677428225970
14251764 46 17132115740559369414
14729087 3 11167947944027339619
155225 1 10880003445980131971
15716309 27 18131350812586455503
17834076 25 15841551877414423562
18006028 8 18407759243990486820
20281389 69 12031790253642601954
20621476 8 11743844655645318720
21095086 128 17632293480145571886
21150785 3 15646772293047604170
21267235 1 18333735718951524044
21315763 28 18260547806376774100
220451 1 14692565499586340668
22224240 67 17775563152622855542
23035841 295 18060700597732420286
23402539 116 18333729118435772037
23521765 1 18341895195120720130
23559900 14 17531812484227810905
246663 6 18411141333610397498
28498 318 9871756789193375312
33532 11 17989208110608135806
33684 2 18341895186398994706
3545911 37 18272650143474137334
4325135 7 18410292514527866750
57583515 80 13045944598930818237
59682541 35 18341894130016362354
59755656 520 16056872537837450701
67123 10 17846779624918821304
8209 1 12251901503612990866

>  <PUBCHEM_SHAPE_MULTIPOLES>  (1) 
329.27
27.13
1.02
0.85
27.41
0.34
-0.08
-6.26
1.05
-0.7
-0.19
-1.27
-0.02
0.08

>  <PUBCHEM_SHAPE_SELFOVERLAP>  (1) 
589.701

>  <PUBCHEM_SHAPE_VOLUME>  (1) 
215.2

>  <PUBCHEM_COORDINATE_TYPE>  (1) 
2
5
10

$$$$
