41846
     RDKit          3D

 17 17  0  0  1  0  0  0  0  0999 V2000
   -2.9478    3.2084   -0.1630 I   0  0  0  0  0  0  0  0  0  0  0  0
   -3.7695   -2.1031    0.7239 F   0  0  0  0  0  0  0  0  0  0  0  0
    0.8369   -0.5425   -2.2190 O   0  0  0  0  0  0  0  0  0  0  0  0
    3.0573   -0.5213   -0.3879 N   0  0  0  0  0  0  0  0  0  0  0  0
   -4.6405    0.5032    0.6968 N   0  0  0  0  0  0  0  0  0  0  0  0
    4.0523    0.1729    0.4361 C   0  0  0  0  0  0  0  0  0  0  0  0
    1.7115   -0.1484    0.0137 C   0  0  0  0  0  0  0  0  0  0  0  0
    0.6661   -0.8745   -0.8417 C   0  0  0  0  0  0  0  0  0  0  0  0
    5.4507   -0.2438   -0.0317 C   0  0  0  0  0  0  0  0  0  0  0  0
    3.8662    1.6834    0.2566 C   0  0  0  0  0  0  0  0  0  0  0  0
    3.8524   -0.2115    1.9068 C   0  0  0  0  0  0  0  0  0  0  0  0
   -0.7415   -0.4967   -0.4354 C   0  0  0  0  0  0  0  0  0  0  0  0
   -1.1217    0.8338   -0.4696 C   0  0  0  0  0  0  0  0  0  0  0  0
   -1.6188   -1.4905   -0.0377 C   0  0  0  0  0  0  0  0  0  0  0  0
   -2.4196    1.1812   -0.0946 C   0  0  0  0  0  0  0  0  0  0  0  0
   -2.9168   -1.1433    0.3376 C   0  0  0  0  0  0  0  0  0  0  0  0
   -3.3171    0.1926    0.3091 C   0  0  0  0  0  0  0  0  0  0  0  0
  1 15  1  0
  2 16  1  0
  3  8  1  0
  4  6  1  0
  4  7  1  0
  5 17  1  0
  6  9  1  0
  6 10  1  0
  6 11  1  0
  7  8  1  0
  8 12  1  0
 12 13  2  0
 12 14  1  0
 13 15  1  0
 14 16  2  0
 15 17  2  0
 16 17  1  0
M  END
>  <PUBCHEM_COMPOUND_CID>  (1) 
41846

>  <PUBCHEM_CONFORMER_RMSD>  (1) 
0.6

>  <PUBCHEM_CONFORMER_DIVERSEORDER>  (1) 
2
24
29
7
20
14
10
15
12
19
11
1
28
3
8
16
9
18
25
13
6
22
26
23
21
27
4
17
5

>  <PUBCHEM_MMFF94_PARTIAL_CHARGES>  (1) 
20
1 -0.08
12 -0.14
13 -0.15
14 -0.15
15 0.08
16 0.19
17 0.1
18 0.36
2 -0.19
3 -0.68
31 0.15
32 0.15
33 0.4
34 0.4
35 0.4
4 -0.9
5 -0.9
6 0.27
7 0.27
8 0.42

>  <PUBCHEM_EFFECTIVE_ROTOR_COUNT>  (1) 
4

>  <PUBCHEM_PHARMACOPHORE_FEATURES>  (1) 
9
1 1 hydrophobe
1 3 acceptor
1 3 donor
1 4 cation
1 4 donor
1 5 cation
1 5 donor
4 6 9 10 11 hydrophobe
6 12 13 14 15 16 17 rings

>  <PUBCHEM_HEAVY_ATOM_COUNT>  (1) 
17

>  <PUBCHEM_ATOM_DEF_STEREO_COUNT>  (1) 
0

>  <PUBCHEM_ATOM_UDEF_STEREO_COUNT>  (1) 
1

>  <PUBCHEM_BOND_DEF_STEREO_COUNT>  (1) 
0

>  <PUBCHEM_BOND_UDEF_STEREO_COUNT>  (1) 
0

>  <PUBCHEM_ISOTOPIC_ATOM_COUNT>  (1) 
0

>  <PUBCHEM_COMPONENT_COUNT>  (1) 
1

>  <PUBCHEM_CACTVS_TAUTO_COUNT>  (1) 
1

>  <PUBCHEM_CONFORMER_ID>  (1) 
0000A37600000002

>  <PUBCHEM_MMFF94_ENERGY>  (1) 
47.0262

>  <PUBCHEM_FEATURE_SELFOVERLAP>  (1) 
45.673

>  <PUBCHEM_SHAPE_FINGERPRINT>  (1) 
10366900 7 18336540603210270618
10608611 8 18270683064925699876
11132069 177 18341903986924004327
11543360 7 10735865210323203730
12077114 3 18342171133446957284
12107183 9 17684075890952007224
12119455 92 17418373588645736734
12236239 1 17313108544298941806
122479 349 18270675355454310701
12251169 10 18334014990630851196
12390115 104 18127425449224021433
12507560 40 18339644417309018830
12596602 18 17386012792408140000
12633257 1 18411706478023504345
12707595 3 13551472579345836246
12892183 10 18334008415378851402
13140716 1 18263940989311862489
13214271 11 18201720669651227287
13296909 8 17967529047805080293
13533116 47 17822000974181272923
13675066 3 18059849576439254082
13965767 371 17247243198191900805
14178342 30 18114753637621528671
14289901 80 18335139795521474050
14341114 176 18334862710143920408
14420673 8 18046623400740548746
15099037 37 18340771537208229879
15219456 202 18060146396685565990
16945 1 18263665999761993111
1813 80 16153997829100867166
18186145 218 15769773589568860146
18915476 22 17130712660743365709
19433438 15 12823296827575223226
200 152 14562525189262948510
20432913 95 15285358397112843968
20510252 161 18269278972046163233
20645477 56 18131634469517361343
20645477 70 16844734110465423302
20671657 53 11602816887482929166
21033648 29 17703211950293886152
21065198 48 18113330895539760088
21065198 57 18410573946929502534
21065199 12 18411134740888352282
21650355 55 18335424629484506243
21652331 79 18339922731279730040
22079108 93 15482394269634932391
22182937 141 18199754648166437161
22854114 59 17917714612419598934
23402539 116 18341606053896652151
23402655 69 12103568602155524442
23403322 49 11602812493456857752
23503958 25 18201710782642189696
23557571 272 18270690770244962453
23559900 14 18268996371687826774
2748010 2 17686080309693005669
4214541 1 18408885101290437344
474 4 14764340578975341290
5104073 3 18409728504002412560
573450 72 18041271097735242464
7097593 13 17825373095081934074
7615 1 17386303054919301301
77779 3 18408603665247708394
90316 7 17531526473327896989

>  <PUBCHEM_SHAPE_MULTIPOLES>  (1) 
338.68
10.12
2.35
1.2
8.64
1.67
-0.13
1.9
3.03
-3.38
0.07
0.75
-0.21
0.6

>  <PUBCHEM_SHAPE_SELFOVERLAP>  (1) 
670.109

>  <PUBCHEM_SHAPE_VOLUME>  (1) 
207.5

>  <PUBCHEM_COORDINATE_TYPE>  (1) 
2
5
10

$$$$
