41840
     RDKit          3D

 12 13  0  0  1  0  0  0  0  0999 V2000
   -1.2251   -0.1779   -0.2798 C   0  0  0  0  0  0  0  0  0  0  0  0
   -1.3159    1.3175   -0.6865 C   0  0  0  0  0  0  0  0  0  0  0  0
    0.2704   -0.3249   -0.1186 C   0  0  0  0  0  0  0  0  0  0  0  0
   -0.1267    2.0325   -0.0277 C   0  0  0  0  0  0  0  0  0  0  0  0
   -1.9355   -0.4348    1.0558 C   0  0  0  0  0  0  0  0  0  0  0  0
    0.8829    0.9296    0.0162 C   0  0  0  0  0  0  0  0  0  0  0  0
   -1.8111   -1.0758   -1.3723 C   0  0  0  0  0  0  0  0  0  0  0  0
    1.0268   -1.4871   -0.0685 C   0  0  0  0  0  0  0  0  0  0  0  0
   -3.4377   -0.3237    0.9051 C   0  0  0  0  0  0  0  0  0  0  0  0
    2.2499    1.0451    0.2098 C   0  0  0  0  0  0  0  0  0  0  0  0
    2.4074   -1.3788    0.1141 C   0  0  0  0  0  0  0  0  0  0  0  0
    3.0146   -0.1217    0.2526 C   0  0  0  0  0  0  0  0  0  0  0  0
  1  2  1  0
  1  3  1  0
  1  5  1  0
  1  7  1  0
  2  4  1  0
  3  6  2  0
  3  8  1  0
  4  6  1  0
  5  9  1  0
  6 10  1  0
  8 11  2  0
 10 12  2  0
 11 12  1  0
M  END
>  <PUBCHEM_COMPOUND_CID>  (1) 
41840

>  <PUBCHEM_CONFORMER_RMSD>  (1) 
0.4

>  <PUBCHEM_CONFORMER_DIVERSEORDER>  (1) 
3
2
1
4

>  <PUBCHEM_MMFF94_PARTIAL_CHARGES>  (1) 
12
1 0.14
10 -0.15
11 -0.15
12 -0.15
22 0.15
26 0.15
27 0.15
28 0.15
3 -0.14
4 0.14
6 -0.14
8 -0.15

>  <PUBCHEM_EFFECTIVE_ROTOR_COUNT>  (1) 
1.6

>  <PUBCHEM_PHARMACOPHORE_FEATURES>  (1) 
3
1 9 hydrophobe
5 1 2 3 4 6 rings
6 3 6 8 10 11 12 rings

>  <PUBCHEM_HEAVY_ATOM_COUNT>  (1) 
12

>  <PUBCHEM_ATOM_DEF_STEREO_COUNT>  (1) 
0

>  <PUBCHEM_ATOM_UDEF_STEREO_COUNT>  (1) 
1

>  <PUBCHEM_BOND_DEF_STEREO_COUNT>  (1) 
0

>  <PUBCHEM_BOND_UDEF_STEREO_COUNT>  (1) 
0

>  <PUBCHEM_ISOTOPIC_ATOM_COUNT>  (1) 
0

>  <PUBCHEM_COMPONENT_COUNT>  (1) 
1

>  <PUBCHEM_CACTVS_TAUTO_COUNT>  (1) 
1

>  <PUBCHEM_CONFORMER_ID>  (1) 
0000A37000000003

>  <PUBCHEM_MMFF94_ENERGY>  (1) 
37.625

>  <PUBCHEM_FEATURE_SELFOVERLAP>  (1) 
15.304

>  <PUBCHEM_SHAPE_FINGERPRINT>  (1) 
10219947 1 18410581716308894435
11471102 22 18335715965067721514
12423570 1 11835510664668798529
12524768 44 18052533275174458622
12932764 1 18272927220061348100
13024252 1 17677331602211498461
15219456 202 18334292041728053681
15775835 57 18131072683536968032
161256 15 18340497677002462404
16945 1 18336258046054586996
17844478 74 18186807967283591673
20201158 50 18186240632142311139
20871998 184 18198622129413576836
20871998 22 18339657628375317379
23552423 10 18261387802625638910
241688 4 18197481008174279026
2748010 2 18267012865432391540
276578 36 16127834988419518687
29004967 10 18334017211065587720
369184 2 18341041943621325174
5084963 1 18058996402164874398
528886 8 18339921614334622882
63268167 104 18270673289606332385
77492 1 17846779658682636095

>  <PUBCHEM_SHAPE_MULTIPOLES>  (1) 
246.95
4.28
1.74
0.99
0.28
0.44
0.08
-0.97
-1.04
-0.37
0.19
0.73
-0.18
0.04

>  <PUBCHEM_SHAPE_SELFOVERLAP>  (1) 
524.659

>  <PUBCHEM_SHAPE_VOLUME>  (1) 
134.2

>  <PUBCHEM_COORDINATE_TYPE>  (1) 
2
5
10

$$$$
