41842
     RDKit          3D

 12 11  0  0  0  0  0  0  0  0999 V2000
   -2.3897    1.4659   -0.4964 O   0  0  0  0  0  0  0  0  0  0  0  0
    2.5677    0.1930   -0.1874 C   0  0  0  0  0  0  0  0  0  0  0  0
    3.9619   -0.1703    0.3356 C   0  0  0  0  0  0  0  0  0  0  0  0
    1.5032    0.2128    0.9153 C   0  0  0  0  0  0  0  0  0  0  0  0
    5.0282   -0.2028   -0.7623 C   0  0  0  0  0  0  0  0  0  0  0  0
    0.1517    0.6386    0.4159 C   0  0  0  0  0  0  0  0  0  0  0  0
    6.4098   -0.5850   -0.2539 C   0  0  0  0  0  0  0  0  0  0  0  0
   -3.4069   -0.6389    0.1095 C   0  0  0  0  0  0  0  0  0  0  0  0
   -4.7411   -0.0722   -0.3727 C   0  0  0  0  0  0  0  0  0  0  0  0
   -0.9373   -0.1377    0.4902 C   0  0  0  0  0  0  0  0  0  0  0  0
   -2.2522    0.3401   -0.0248 C   0  0  0  0  0  0  0  0  0  0  0  0
   -5.8953   -1.0436   -0.1690 C   0  0  0  0  0  0  0  0  0  0  0  0
  1 11  2  0
  2  3  1  0
  2  4  1  0
  3  5  1  0
  4  6  1  0
  5  7  1  0
  6 10  2  0
  8  9  1  0
  8 11  1  0
  9 12  1  0
 10 11  1  0
M  END
>  <PUBCHEM_COMPOUND_CID>  (1) 
41842

>  <PUBCHEM_CONFORMER_RMSD>  (1) 
0.8

>  <PUBCHEM_CONFORMER_DIVERSEORDER>  (1) 
1
97
172
37
127
14
57
17
181
176
32
34
66
158
80
131
150
126
33
141
36
11
156
135
4
29
187
46
138
168
90
153
49
157
71
50
183
64
169
167
24
82
102
171
65
22
86
68
184
146
94
13
162
140
125
178
6
88
72
114
51
61
143
56
7
182
16
130
95
12
185
129
2
116
91
128
148
41
137
81
10
27
179
98
104
117
79
177
149
139
20
134
165
43
186
174
100
38
118
92
85
173
120
25
99
180
35
170
123
145
31
105
28
48
30
9
111
3
44
54
106
77
151
42
133
67
152
52
89
23
119
161
5
69
108
110
39
103
166
8
122
101
175
87
55
15
58
147
159
53
113
155
93
136
26
45
18
78
74
73
160
96
164
21
142
124
70
76
107
112
62
84
83
144
40
163
115
59
19
47
109
63
154
75
121
60
132

>  <PUBCHEM_MMFF94_PARTIAL_CHARGES>  (1) 
8
1 -0.57
10 -0.14
11 0.49
21 0.15
29 0.15
4 0.14
6 -0.29
8 0.06

>  <PUBCHEM_EFFECTIVE_ROTOR_COUNT>  (1) 
7

>  <PUBCHEM_PHARMACOPHORE_FEATURES>  (1) 
4
1 1 acceptor
1 12 hydrophobe
1 7 hydrophobe
5 2 3 4 5 6 hydrophobe

>  <PUBCHEM_HEAVY_ATOM_COUNT>  (1) 
12

>  <PUBCHEM_ATOM_DEF_STEREO_COUNT>  (1) 
0

>  <PUBCHEM_ATOM_UDEF_STEREO_COUNT>  (1) 
0

>  <PUBCHEM_BOND_DEF_STEREO_COUNT>  (1) 
0

>  <PUBCHEM_BOND_UDEF_STEREO_COUNT>  (1) 
1

>  <PUBCHEM_ISOTOPIC_ATOM_COUNT>  (1) 
0

>  <PUBCHEM_COMPONENT_COUNT>  (1) 
1

>  <PUBCHEM_CACTVS_TAUTO_COUNT>  (1) 
5

>  <PUBCHEM_CONFORMER_ID>  (1) 
0000A37200000001

>  <PUBCHEM_MMFF94_ENERGY>  (1) 
1.9822

>  <PUBCHEM_FEATURE_SELFOVERLAP>  (1) 
20.298

>  <PUBCHEM_SHAPE_FINGERPRINT>  (1) 
100836 57 12251905893285929558
10354089 29 10735877270950170846
114248 4 18334576845710386240
117890 112 8070036570684349751
12714333 28 15213017158981400110
13288520 33 18343584049444710869
13533116 47 8069764974444000740
14123238 8 18186522098813663648
1420 363 17489590065189476286
14251718 22 18333169470716063278
14252887 29 14764359223544352780
14350574 20 18272651263906739768
14455015 7 17561085808305640742
15048467 5 11602534325810764791
15501527 24 17458345259999684171
17834072 33 17676487267628744902
17834072 8 15791736291690130254
17834076 25 10809342243433246899
18342897 14 8214139651558459126
187816 3 17675925399827792777
20281389 69 8358262531889431654
20605781 2 12612753523346768338
20645477 70 14779812829365717488
20767249 213 11674880000189568943
20828058 44 11743831465732304236
20871999 31 18114175307384971741
21130983 4 11169912775205510142
2297311 6 18412547604566244245
23402539 116 18334574620521948205
23402655 69 16370718219101298131
23557571 272 18410295774381995564
23559900 14 18261953075845553400
26918003 58 15626223532757204879
42 15 14908181966890744449
42788 4 18412263939024096960

>  <PUBCHEM_SHAPE_MULTIPOLES>  (1) 
241.09
15.1
0.96
0.81
5.98
0.07
0.03
-5.73
-2.72
-0.64
-0.07
0.24
0.04
0.31

>  <PUBCHEM_SHAPE_SELFOVERLAP>  (1) 
438.275

>  <PUBCHEM_SHAPE_VOLUME>  (1) 
154.2

>  <PUBCHEM_COORDINATE_TYPE>  (1) 
2
5
10

$$$$
