41858
     RDKit          3D

 16 18  0  0  1  0  0  0  0  0999 V2000
    4.0056    0.8739    0.8047 O   0  0  0  0  0  0  0  0  0  0  0  0
   -0.6516   -2.2223    0.9818 O   0  0  0  0  0  0  0  0  0  0  0  0
    0.5876   -0.6077   -0.1370 N   0  0  0  0  0  0  0  0  0  0  0  0
    2.2386    0.9418   -0.7954 C   0  0  0  0  0  0  0  0  0  0  0  0
    2.8608   -0.4414   -0.7980 C   0  0  0  0  0  0  0  0  0  0  0  0
    0.7408    0.6878   -0.7973 C   0  0  0  0  0  0  0  0  0  0  0  0
    1.8722   -1.2767    0.0179 C   0  0  0  0  0  0  0  0  0  0  0  0
    2.7815    1.5542    0.4889 C   0  0  0  0  0  0  0  0  0  0  0  0
    4.1908   -0.2070   -0.1197 C   0  0  0  0  0  0  0  0  0  0  0  0
   -0.5794   -1.1573    0.3717 C   0  0  0  0  0  0  0  0  0  0  0  0
   -1.8282   -0.4031    0.1788 C   0  0  0  0  0  0  0  0  0  0  0  0
   -2.6004   -0.6232   -0.9579 C   0  0  0  0  0  0  0  0  0  0  0  0
   -2.2295    0.5257    1.1347 C   0  0  0  0  0  0  0  0  0  0  0  0
   -3.7843    0.0916   -1.1403 C   0  0  0  0  0  0  0  0  0  0  0  0
   -3.4134    1.2403    0.9524 C   0  0  0  0  0  0  0  0  0  0  0  0
   -4.1909    1.0232   -0.1851 C   0  0  0  0  0  0  0  0  0  0  0  0
  1  8  1  0
  1  9  1  0
  2 10  2  0
  3  6  1  0
  3  7  1  0
  3 10  1  0
  4  5  1  0
  4  6  1  0
  4  8  1  0
  5  7  1  0
  5  9  1  0
 10 11  1  0
 11 12  2  0
 11 13  1  0
 12 14  1  0
 13 15  2  0
 14 16  2  0
 15 16  1  0
M  END
>  <PUBCHEM_COMPOUND_CID>  (1) 
41858

>  <PUBCHEM_CONFORMER_RMSD>  (1) 
0.6

>  <PUBCHEM_CONFORMER_DIVERSEORDER>  (1) 
1
7
8
3
5
2
4
9
6

>  <PUBCHEM_MMFF94_PARTIAL_CHARGES>  (1) 
19
1 -0.56
10 0.54
11 0.09
12 -0.15
13 -0.15
14 -0.15
15 -0.15
16 -0.15
2 -0.57
27 0.15
28 0.15
29 0.15
3 -0.66
30 0.15
31 0.15
6 0.3
7 0.3
8 0.28
9 0.28

>  <PUBCHEM_EFFECTIVE_ROTOR_COUNT>  (1) 
3.2

>  <PUBCHEM_PHARMACOPHORE_FEATURES>  (1) 
5
1 1 acceptor
1 2 acceptor
5 1 4 5 8 9 rings
5 3 4 5 6 7 rings
6 11 12 13 14 15 16 rings

>  <PUBCHEM_HEAVY_ATOM_COUNT>  (1) 
16

>  <PUBCHEM_ATOM_DEF_STEREO_COUNT>  (1) 
0

>  <PUBCHEM_ATOM_UDEF_STEREO_COUNT>  (1) 
2

>  <PUBCHEM_BOND_DEF_STEREO_COUNT>  (1) 
0

>  <PUBCHEM_BOND_UDEF_STEREO_COUNT>  (1) 
0

>  <PUBCHEM_ISOTOPIC_ATOM_COUNT>  (1) 
0

>  <PUBCHEM_COMPONENT_COUNT>  (1) 
1

>  <PUBCHEM_CACTVS_TAUTO_COUNT>  (1) 
1

>  <PUBCHEM_CONFORMER_ID>  (1) 
0000A38200000001

>  <PUBCHEM_MMFF94_ENERGY>  (1) 
52.5028

>  <PUBCHEM_FEATURE_SELFOVERLAP>  (1) 
25.848

>  <PUBCHEM_SHAPE_FINGERPRINT>  (1) 
10618630 7 10231759980679544331
10646746 165 17988924470292355960
11370993 70 17203889647649230534
11543360 7 16988838397528990493
12077114 3 17022894640897279501
12119455 92 17385998464782089263
12162725 195 17989209256556911512
12236239 1 18201435844763477989
124424 183 16298380271136473005
12500047 106 18334859471791326690
128620 24 16487256594748376893
13581323 91 13118003305444306173
13583140 156 15864348099090310413
13922767 16 18411136944196077380
14004511 7 18408042900868229317
14252887 29 9223226360317651596
14897335 6 18411417314954885743
15239191 94 10665220467014988376
15309172 13 17822014202917693267
15653759 3 15430039872184056037
15775835 57 18342178834676714277
16945 1 18114186336939738886
17802600 8 18342735195765493505
18186145 218 18409735032162758695
18219364 16 17967819344802768005
19107657 47 17748824103112806865
200 152 17203607086119548836
20300324 65 17632572769189461965
21524375 3 18408042905422029643
22079108 93 18337967735707984491
22169311 14 15140680297558976237
22892500 29 18202559601376508492
23402539 116 17703784808225078029
23402655 69 18059859432640443373
23557571 272 15985106279920846393
23559900 14 16773800234533220686
25 1 18335143050943309743
3082319 5 17561363959193844791
3472631 163 17632019637690204305
351380 180 17988638601664412920
4028521 119 18343299237062575181
42 15 13262677019467494309
474 4 18411701010361175193
69090 78 18202280303562880967
7364860 26 18197218053339810910
74978 22 18114751558767348900
81228 2 17535763119468745179
83771 10 8430321237948926858
9971528 1 18272370841872223964
9981440 41 17768513238562981832

>  <PUBCHEM_SHAPE_MULTIPOLES>  (1) 
312.55
8.07
1.57
1.12
0.14
0.22
0.02
-2.68
0.48
0.15
-0.4
-0.49
-0.02
-0.11

>  <PUBCHEM_SHAPE_SELFOVERLAP>  (1) 
676.322

>  <PUBCHEM_SHAPE_VOLUME>  (1) 
173.9

>  <PUBCHEM_COORDINATE_TYPE>  (1) 
2
5
10

$$$$
