41853
     RDKit          3D

 17 18  0  0  0  0  0  0  0  0999 V2000
   -2.7454   -2.0459    1.7941 Cl  0  0  0  0  0  0  0  0  0  0  0  0
    2.7428   -2.0464   -1.7941 Cl  0  0  0  0  0  0  0  0  0  0  0  0
   -5.0479   -1.1849   -0.3107 Cl  0  0  0  0  0  0  0  0  0  0  0  0
    5.0454   -1.1856    0.3107 Cl  0  0  0  0  0  0  0  0  0  0  0  0
   -0.0010    1.8136   -0.0001 O   0  0  0  0  0  0  0  0  0  0  0  0
   -1.1643    1.1096   -0.0608 C   0  0  0  0  0  0  0  0  0  0  0  0
    1.1823    1.0972    0.0617 C   0  0  0  0  0  0  0  0  0  0  0  0
   -1.3643    0.0179    0.7841 C   0  0  0  0  0  0  0  0  0  0  0  0
    1.3619    0.0176   -0.7843 C   0  0  0  0  0  0  0  0  0  0  0  0
   -2.1569    1.4802   -0.9683 C   0  0  0  0  0  0  0  0  0  0  0  0
    2.1547    1.4800    0.9680 C   0  0  0  0  0  0  0  0  0  0  0  0
   -2.5569   -0.7032    0.7217 C   0  0  0  0  0  0  0  0  0  0  0  0
    2.5544   -0.7036   -0.7218 C   0  0  0  0  0  0  0  0  0  0  0  0
   -3.3492    0.7594   -1.0307 C   0  0  0  0  0  0  0  0  0  0  0  0
    3.3469    0.7590    1.0306 C   0  0  0  0  0  0  0  0  0  0  0  0
   -3.5494   -0.3322   -0.1858 C   0  0  0  0  0  0  0  0  0  0  0  0
    3.5469   -0.3327    0.1856 C   0  0  0  0  0  0  0  0  0  0  0  0
  1 12  1  0
  2 13  1  0
  3 16  1  0
  4 17  1  0
  5  6  1  0
  5  7  1  0
  6  8  2  0
  6 10  1  0
  7  9  2  0
  7 11  1  0
  8 12  1  0
  9 13  1  0
 10 14  2  0
 11 15  2  0
 12 16  2  0
 13 17  2  0
 14 16  1  0
 15 17  1  0
M  END
>  <PUBCHEM_COMPOUND_CID>  (1) 
41853

>  <PUBCHEM_CONFORMER_RMSD>  (1) 
0.6

>  <PUBCHEM_CONFORMER_DIVERSEORDER>  (1) 
1
4
11
6
8
10
2
3
5
9
7

>  <PUBCHEM_MMFF94_PARTIAL_CHARGES>  (1) 
23
1 -0.18
10 -0.15
11 -0.15
12 0.18
13 0.18
14 -0.15
15 -0.15
16 0.18
17 0.18
18 0.15
19 0.15
2 -0.18
20 0.15
21 0.15
22 0.15
23 0.15
3 -0.18
4 -0.18
5 -0.17
6 0.08
7 0.08
8 -0.15
9 -0.15

>  <PUBCHEM_EFFECTIVE_ROTOR_COUNT>  (1) 
2

>  <PUBCHEM_PHARMACOPHORE_FEATURES>  (1) 
3
1 5 acceptor
6 6 8 10 12 14 16 rings
6 7 9 11 13 15 17 rings

>  <PUBCHEM_HEAVY_ATOM_COUNT>  (1) 
17

>  <PUBCHEM_ATOM_DEF_STEREO_COUNT>  (1) 
0

>  <PUBCHEM_ATOM_UDEF_STEREO_COUNT>  (1) 
0

>  <PUBCHEM_BOND_DEF_STEREO_COUNT>  (1) 
0

>  <PUBCHEM_BOND_UDEF_STEREO_COUNT>  (1) 
0

>  <PUBCHEM_ISOTOPIC_ATOM_COUNT>  (1) 
0

>  <PUBCHEM_COMPONENT_COUNT>  (1) 
1

>  <PUBCHEM_CACTVS_TAUTO_COUNT>  (1) 
1

>  <PUBCHEM_CONFORMER_ID>  (1) 
0000A37D00000001

>  <PUBCHEM_MMFF94_ENERGY>  (1) 
51.3669

>  <PUBCHEM_FEATURE_SELFOVERLAP>  (1) 
15.223

>  <PUBCHEM_SHAPE_FINGERPRINT>  (1) 
10366900 7 18342745130314603250
11471102 22 17917993850077057540
11543360 7 17386299744021722556
11582403 64 16609333141519188045
11796584 16 17896315827548385122
12363563 72 18410018736074398062
12596602 18 15697993071918195979
13296908 3 18410572889935037505
13965767 371 14618587032168598507
14115302 16 16950279645940385939
14252887 29 18273217507973359586
14341114 328 15267058198304570290
14386348 63 18410577283686548839
15375358 24 18411129242834438473
15375462 189 16487249976034916651
15635459 17 18341617009704330030
16752209 62 17458613515615762065
17870717 6 18041566840651650766
19141452 34 18341613785017308071
19862831 5 15719113573585375689
200 152 17703781518433090413
20279233 1 18410856559639802563
20374829 77 18334853914108738599
20403669 9 18409451388212109427
204376 136 17630592634747761232
20603629 256 16773238358422161982
20645476 183 15140961764214615729
20645477 70 18272366486200327326
20871999 31 17748831808236689220
23402539 116 18113889438814758741
23403322 49 18335698304241405658
23557571 272 18334010583963153293
23559900 14 18187076265775658304
26918003 58 17917988373914536425
3060560 45 13912321266301069560
3082319 5 15719114673075832997
33824 294 18130784577320870838
474 4 15839556366905342856
4921388 177 17095533889365818307
5104073 3 18130497536193080888
7097593 13 14619130135130599958
81228 2 18267029349137857921
8809292 202 18260548922123791785
9709674 26 18335135449003981745

>  <PUBCHEM_SHAPE_MULTIPOLES>  (1) 
351.46
9.31
2.01
1.42
0.03
0.32
0
4.35
0
0
0
0
0.6
1.83

>  <PUBCHEM_SHAPE_SELFOVERLAP>  (1) 
722.887

>  <PUBCHEM_SHAPE_VOLUME>  (1) 
206.6

>  <PUBCHEM_COORDINATE_TYPE>  (1) 
2
5
10

$$$$
