41854
     RDKit          3D

  8  8  0  0  1  0  0  0  0  0999 V2000
    2.1749    0.6721   -0.7687 O   0  0  0  0  0  0  0  0  0  0  0  0
    0.3101   -0.0246    0.4520 N   0  0  0  0  0  0  0  0  0  0  0  0
    2.1767   -1.3556    0.3117 N   0  0  0  0  0  0  0  0  0  0  0  0
   -3.1295   -0.6600   -0.1320 N   0  0  0  0  0  0  0  0  0  0  0  0
   -0.7886    0.4403   -0.3428 C   0  0  0  0  0  0  0  0  0  0  0  0
   -0.2588    1.2518    0.7715 C   0  0  0  0  0  0  0  0  0  0  0  0
    1.5978   -0.1555   -0.0647 C   0  0  0  0  0  0  0  0  0  0  0  0
   -2.0827   -0.1685   -0.2269 C   0  0  0  0  0  0  0  0  0  0  0  0
  1  7  2  0
  2  5  1  0
  2  6  1  0
  2  7  1  0
  3  7  1  0
  4  8  3  0
  5  6  1  0
  5  8  1  0
M  END
>  <PUBCHEM_COMPOUND_CID>  (1) 
41854

>  <PUBCHEM_CONFORMER_RMSD>  (1) 
0.4

>  <PUBCHEM_CONFORMER_DIVERSEORDER>  (1) 
2
1
8
6
3
4
5
7

>  <PUBCHEM_MMFF94_PARTIAL_CHARGES>  (1) 
13
1 -0.57
10 0.1
11 0.1
12 0.37
13 0.37
2 -0.36
3 -0.8
4 -0.56
5 0.15
6 -0.05
7 0.69
8 0.45
9 0.1

>  <PUBCHEM_EFFECTIVE_ROTOR_COUNT>  (1) 
1.6

>  <PUBCHEM_PHARMACOPHORE_FEATURES>  (1) 
3
1 1 acceptor
1 3 donor
1 4 acceptor

>  <PUBCHEM_HEAVY_ATOM_COUNT>  (1) 
8

>  <PUBCHEM_ATOM_DEF_STEREO_COUNT>  (1) 
0

>  <PUBCHEM_ATOM_UDEF_STEREO_COUNT>  (1) 
1

>  <PUBCHEM_BOND_DEF_STEREO_COUNT>  (1) 
0

>  <PUBCHEM_BOND_UDEF_STEREO_COUNT>  (1) 
0

>  <PUBCHEM_ISOTOPIC_ATOM_COUNT>  (1) 
0

>  <PUBCHEM_COMPONENT_COUNT>  (1) 
1

>  <PUBCHEM_CACTVS_TAUTO_COUNT>  (1) 
2

>  <PUBCHEM_CONFORMER_ID>  (1) 
0000A37E00000002

>  <PUBCHEM_MMFF94_ENERGY>  (1) 
19.8688

>  <PUBCHEM_FEATURE_SELFOVERLAP>  (1) 
15.223

>  <PUBCHEM_SHAPE_FINGERPRINT>  (1) 
10857977 72 17060613395630156139
12897270 3 17313100847854794951
14390081 3 13767916932231274687
15310529 11 18333729126281856245
20096714 4 8718532930992913978
23552333 60 18409167705695594162
23552423 10 18262802839330233323
23552449 11 17560224938130270921
29004967 10 18131627902459501313

>  <PUBCHEM_SHAPE_MULTIPOLES>  (1) 
143.82
3.72
1.12
0.77
1.35
0.06
0.01
-1.38
0.41
-0.24
-0.19
-0.16
0.12
-0.28

>  <PUBCHEM_SHAPE_SELFOVERLAP>  (1) 
283.795

>  <PUBCHEM_SHAPE_VOLUME>  (1) 
84.8

>  <PUBCHEM_COORDINATE_TYPE>  (1) 
2
5
10

$$$$
