41868
     RDKit          3D

 21 23  0  0  1  0  0  0  0  0999 V2000
   -1.4326    2.1107   -0.3784 O   0  0  0  0  0  0  0  0  0  0  0  0
   -0.6456   -1.7734    1.2788 O   0  0  0  0  0  0  0  0  0  0  0  0
    5.4627   -1.4287   -0.5254 O   0  0  0  0  0  0  0  0  0  0  0  0
    3.3652   -1.5753   -1.3712 O   0  0  0  0  0  0  0  0  0  0  0  0
    2.4473    0.6794    0.0623 C   0  0  0  0  0  0  0  0  0  0  0  0
    0.0523    0.2446    0.2869 C   0  0  0  0  0  0  0  0  0  0  0  0
    3.8575    0.2174    0.2132 C   0  0  0  0  0  0  0  0  0  0  0  0
   -0.2052    1.5337   -0.2012 C   0  0  0  0  0  0  0  0  0  0  0  0
    1.3937   -0.1628    0.4233 C   0  0  0  0  0  0  0  0  0  0  0  0
   -2.3872   -0.6964    0.2040 C   0  0  0  0  0  0  0  0  0  0  0  0
   -3.0836    0.5146    0.2094 C   0  0  0  0  0  0  0  0  0  0  0  0
   -0.9757   -0.7812    0.6319 C   0  0  0  0  0  0  0  0  0  0  0  0
   -2.3968    1.7782    0.6131 C   0  0  0  0  0  0  0  0  0  0  0  0
    2.1805    1.9416   -0.4498 C   0  0  0  0  0  0  0  0  0  0  0  0
    0.8607    2.3632   -0.5854 C   0  0  0  0  0  0  0  0  0  0  0  0
    4.2603   -0.0974    1.6682 C   0  0  0  0  0  0  0  0  0  0  0  0
   -3.0396   -1.8821   -0.1623 C   0  0  0  0  0  0  0  0  0  0  0  0
   -4.4317    0.5291   -0.1762 C   0  0  0  0  0  0  0  0  0  0  0  0
    4.1752   -1.0102   -0.6478 C   0  0  0  0  0  0  0  0  0  0  0  0
   -4.3807   -1.8552   -0.5426 C   0  0  0  0  0  0  0  0  0  0  0  0
   -5.0765   -0.6498   -0.5509 C   0  0  0  0  0  0  0  0  0  0  0  0
  1  8  1  0
  1 13  1  0
  2 12  2  0
  3 19  1  0
  4 19  2  0
  5  7  1  0
  5  9  2  0
  5 14  1  0
  6  8  2  0
  6  9  1  0
  6 12  1  0
  7 16  1  0
  7 19  1  0
  8 15  1  0
 10 11  2  0
 10 12  1  0
 10 17  1  0
 11 13  1  0
 11 18  1  0
 14 15  2  0
 17 20  2  0
 18 21  2  0
 20 21  1  0
M  END
>  <PUBCHEM_COMPOUND_CID>  (1) 
41868

>  <PUBCHEM_CONFORMER_RMSD>  (1) 
0.6

>  <PUBCHEM_CONFORMER_DIVERSEORDER>  (1) 
2
4
7
5
11
9
6
3
10
1
8

>  <PUBCHEM_MMFF94_PARTIAL_CHARGES>  (1) 
28
1 -0.36
10 0.09
11 -0.14
12 0.4
13 0.42
14 -0.15
15 -0.15
17 -0.15
18 -0.15
19 0.66
2 -0.57
20 -0.15
21 -0.15
23 0.15
26 0.15
27 0.15
3 -0.65
31 0.15
32 0.15
33 0.15
34 0.15
35 0.5
4 -0.57
5 -0.14
6 0.09
7 0.2
8 0.08
9 -0.15

>  <PUBCHEM_EFFECTIVE_ROTOR_COUNT>  (1) 
2.4

>  <PUBCHEM_PHARMACOPHORE_FEATURES>  (1) 
9
1 1 acceptor
1 16 hydrophobe
1 2 acceptor
1 3 acceptor
1 4 acceptor
3 3 4 19 anion
6 10 11 17 18 20 21 rings
6 5 6 8 9 14 15 rings
7 1 6 8 10 11 12 13 rings

>  <PUBCHEM_HEAVY_ATOM_COUNT>  (1) 
21

>  <PUBCHEM_ATOM_DEF_STEREO_COUNT>  (1) 
0

>  <PUBCHEM_ATOM_UDEF_STEREO_COUNT>  (1) 
1

>  <PUBCHEM_BOND_DEF_STEREO_COUNT>  (1) 
0

>  <PUBCHEM_BOND_UDEF_STEREO_COUNT>  (1) 
0

>  <PUBCHEM_ISOTOPIC_ATOM_COUNT>  (1) 
0

>  <PUBCHEM_COMPONENT_COUNT>  (1) 
1

>  <PUBCHEM_CACTVS_TAUTO_COUNT>  (1) 
1

>  <PUBCHEM_CONFORMER_ID>  (1) 
0000A38C00000002

>  <PUBCHEM_MMFF94_ENERGY>  (1) 
74.3639

>  <PUBCHEM_FEATURE_SELFOVERLAP>  (1) 
45.749

>  <PUBCHEM_SHAPE_FINGERPRINT>  (1) 
10062212 137 18339355379264086835
10693767 8 18341597240524216255
10906281 52 18261686977363452192
11132069 177 18411133628080528409
11458722 379 18333452023576805347
116883 192 18410578374835134588
12236239 1 17167863028737678754
12403259 118 13758082878446828442
12553582 1 18113622265889103256
12596602 18 14405174084433410118
13140716 1 18334862770321059161
13288520 33 18341896268414222756
13583140 156 16200143245116944240
13862211 1 18261103080485133483
14790565 3 17259631339656604705
15196674 1 18336263548118923533
15238133 3 13118816961049473301
15239154 128 8070035466766907039
15352361 1 18412546504917265278
15420108 30 17691974761048881137
15536298 74 18338232781717791401
15848700 24 18409165515510238388
15848702 151 18343303660715067639
16752209 62 17968089781513198032
17349148 13 18411419522504493107
17492 89 18195247943193347879
1813 80 17967253100314181596
18186145 218 17822564014718974615
18222031 100 18408600362217586080
19141452 34 18272092682235634847
19862831 5 17749105612412157339
200 152 17989486337882123275
20374829 77 18410292489069416054
20645477 70 18263643025153745174
20871999 31 18260841358389895780
21267235 1 18408610283940290467
221490 88 18118409676981727923
22393880 68 18115009884360853805
23402539 116 18410283727214598543
23557571 272 18202285762355602576
23559900 14 18342172323385325296
29717793 49 18341887533178554917
3004659 81 18260828223900006076
3286 77 17632576080176815313
335352 9 18410012109705063605
4463277 69 17846509105876454942
463206 1 17916863659472149671
5104073 3 18337673134952885193
59755656 215 18339641119021841079
633830 44 17822567321907057013
67856867 119 18192987343054957064
7364860 26 18268151044793762152
7808743 9 9727047860316933654
9709674 26 18264774431177168635
9971528 1 18411417332551440864
9981440 41 17183900814288908849

>  <PUBCHEM_SHAPE_MULTIPOLES>  (1) 
408.69
10.21
2.31
1.02
1.72
0.53
0.16
-4.97
-1.33
-0.27
-0.41
0.79
-0.23
0.09

>  <PUBCHEM_SHAPE_SELFOVERLAP>  (1) 
901.351

>  <PUBCHEM_SHAPE_VOLUME>  (1) 
217.2

>  <PUBCHEM_COORDINATE_TYPE>  (1) 
2
5
10

$$$$
