41869
     RDKit          3D

 17 18  0  0  0  0  0  0  0  0999 V2000
   -6.0038   -1.8872    0.0003 Cl  0  0  0  0  0  0  0  0  0  0  0  0
    5.9996   -1.8906   -0.0003 Cl  0  0  0  0  0  0  0  0  0  0  0  0
    0.0031    0.8790    0.0000 O   0  0  0  0  0  0  0  0  0  0  0  0
   -1.1742    1.6769   -0.0001 C   0  0  0  0  0  0  0  0  0  0  0  0
    1.1758    1.6812    0.0001 C   0  0  0  0  0  0  0  0  0  0  0  0
   -2.3736    0.7901   -0.0002 C   0  0  0  0  0  0  0  0  0  0  0  0
    2.3808    0.7871    0.0002 C   0  0  0  0  0  0  0  0  0  0  0  0
   -2.9351    0.3765   -1.2080 C   0  0  0  0  0  0  0  0  0  0  0  0
    2.9345    0.3779    1.2081 C   0  0  0  0  0  0  0  0  0  0  0  0
   -2.9342    0.3756    1.2080 C   0  0  0  0  0  0  0  0  0  0  0  0
    2.9336    0.3771   -1.2079 C   0  0  0  0  0  0  0  0  0  0  0  0
   -4.0575   -0.4518   -1.2079 C   0  0  0  0  0  0  0  0  0  0  0  0
    4.0556   -0.4521    1.2079 C   0  0  0  0  0  0  0  0  0  0  0  0
   -4.0565   -0.4528    1.2080 C   0  0  0  0  0  0  0  0  0  0  0  0
    4.0547   -0.4531   -1.2081 C   0  0  0  0  0  0  0  0  0  0  0  0
   -4.6182   -0.8663    0.0002 C   0  0  0  0  0  0  0  0  0  0  0  0
    4.6156   -0.8676   -0.0002 C   0  0  0  0  0  0  0  0  0  0  0  0
  1 16  1  0
  2 17  1  0
  3  4  1  0
  3  5  1  0
  4  6  1  0
  5  7  1  0
  6  8  2  0
  6 10  1  0
  7  9  2  0
  7 11  1  0
  8 12  1  0
  9 13  1  0
 10 14  2  0
 11 15  2  0
 12 16  2  0
 13 17  2  0
 14 16  1  0
 15 17  1  0
M  END
>  <PUBCHEM_COMPOUND_CID>  (1) 
41869

>  <PUBCHEM_CONFORMER_RMSD>  (1) 
0.6

>  <PUBCHEM_CONFORMER_DIVERSEORDER>  (1) 
1
7
8
5
2
6
3
4

>  <PUBCHEM_MMFF94_PARTIAL_CHARGES>  (1) 
25
1 -0.18
10 -0.15
11 -0.15
12 -0.15
13 -0.15
14 -0.15
15 -0.15
16 0.18
17 0.18
2 -0.18
22 0.15
23 0.15
24 0.15
25 0.15
26 0.15
27 0.15
28 0.15
29 0.15
3 -0.56
4 0.42
5 0.42
6 -0.14
7 -0.14
8 -0.15
9 -0.15

>  <PUBCHEM_EFFECTIVE_ROTOR_COUNT>  (1) 
4

>  <PUBCHEM_PHARMACOPHORE_FEATURES>  (1) 
3
1 3 acceptor
6 6 8 10 12 14 16 rings
6 7 9 11 13 15 17 rings

>  <PUBCHEM_HEAVY_ATOM_COUNT>  (1) 
17

>  <PUBCHEM_ATOM_DEF_STEREO_COUNT>  (1) 
0

>  <PUBCHEM_ATOM_UDEF_STEREO_COUNT>  (1) 
0

>  <PUBCHEM_BOND_DEF_STEREO_COUNT>  (1) 
0

>  <PUBCHEM_BOND_UDEF_STEREO_COUNT>  (1) 
0

>  <PUBCHEM_ISOTOPIC_ATOM_COUNT>  (1) 
0

>  <PUBCHEM_COMPONENT_COUNT>  (1) 
1

>  <PUBCHEM_CACTVS_TAUTO_COUNT>  (1) 
1

>  <PUBCHEM_CONFORMER_ID>  (1) 
0000A38D00000001

>  <PUBCHEM_MMFF94_ENERGY>  (1) 
40.1421

>  <PUBCHEM_FEATURE_SELFOVERLAP>  (1) 
15.223

>  <PUBCHEM_SHAPE_FINGERPRINT>  (1) 
10354089 29 14117516545782123466
10498660 4 11746936490357501173
11543360 7 15719397247590837504
11796584 16 17979353067555116926
12363563 72 18409452487591848868
12403259 118 12535334736313049833
12596602 18 17704070702823538970
12633257 1 15625935482222272891
12670546 177 15647051560020760458
12892183 10 15841280250507825608
13533116 47 18200875209655154049
13583140 156 15913039863941341337
13668630 136 18187366531965082259
13675066 3 15625949711396566760
14123255 352 9367339332359116150
1420 369 18342458153352891591
14341114 176 15339126727745705152
14341114 328 14979671143265637952
14528608 73 12685089315306706315
14576447 43 17603867763578553226
14849402 71 16127793293562409906
15188451 53 17632289095268701655
15210252 30 7853570214924736390
15342168 16 9583527520726540137
15575132 122 12252443533435510743
15880784 105 18059855081928016466
17780758 139 17489587822773364971
17870717 6 17240202127817263747
1798214 20 17603863395090501800
1813 80 18342749523787157117
19050596 39 15626219143258482264
193927 3 18410583885051107393
19784866 240 18408324410806039069
19784866 34 9367348128136023573
20325693 3 16008749100518632401
20645477 70 18187925126937437148
20871999 31 16153426138656662109
21065199 12 15769784519685816824
212847 35 8502379914651078948
22289505 5 12973601136655434854
22646028 1 18410856559639945477
23402655 69 14201399352906417036
23403322 49 18260545623989873857
23503953 91 15410892980897960381
23559900 14 16878228674478719701
26918003 58 16917063317945031784
2838139 119 9293361961625058579
2916195 48 8862645911729938446
29717793 49 17749111071642664358
3004659 81 17748824120324110226
312423 11 18409739468753894084
3472631 163 8214137456313388467
351380 3 18410573989446717254
4028521 119 12324236170328290733
42 15 17060341820431925264
4259306 186 18186519890826128538
465052 167 18339367460611562319
5104073 3 17846780706317163920
559249 180 18341612582336346105
5924683 9 14979662334952612661
59682541 52 14201663231243926090
76465 3 18410856563934938756
7970288 3 18410856559640601571
960060 61 17023183850730275391

>  <PUBCHEM_SHAPE_MULTIPOLES>  (1) 
347.72
14.56
1.69
1.31
0.04
0.24
0
10.69
0
-0.01
0
0
0.02
0

>  <PUBCHEM_SHAPE_SELFOVERLAP>  (1) 
717.753

>  <PUBCHEM_SHAPE_VOLUME>  (1) 
201.5

>  <PUBCHEM_COORDINATE_TYPE>  (1) 
2
5
10

$$$$
