41861
     RDKit          3D

 18 19  0  0  0  0  0  0  0  0999 V2000
   -0.4841    2.5061    0.1184 O   0  0  0  0  0  0  0  0  0  0  0  0
    0.8962   -2.8137    0.1700 O   0  0  0  0  0  0  0  0  0  0  0  0
   -3.5402   -1.5404    0.1368 O   0  0  0  0  0  0  0  0  0  0  0  0
   -2.4794    0.5652    0.1237 N   0  0  0  0  0  0  0  0  0  0  0  0
    2.1615    1.7972    0.1372 N   0  0  0  0  0  0  0  0  0  0  0  0
    2.8699   -0.8893    0.1625 N   0  0  0  0  0  0  0  0  0  0  0  0
   -1.1285    0.2101    0.1339 C   0  0  0  0  0  0  0  0  0  0  0  0
   -0.1316    1.1839    0.1310 C   0  0  0  0  0  0  0  0  0  0  0  0
    1.2180    0.8392    0.1404 C   0  0  0  0  0  0  0  0  0  0  0  0
    1.5768   -0.5212    0.1532 C   0  0  0  0  0  0  0  0  0  0  0  0
    0.5727   -1.4866    0.1561 C   0  0  0  0  0  0  0  0  0  0  0  0
   -0.7749   -1.1310    0.1465 C   0  0  0  0  0  0  0  0  0  0  0  0
    3.4491    1.4083    0.1467 C   0  0  0  0  0  0  0  0  0  0  0  0
   -3.5543   -0.3142    0.1249 C   0  0  0  0  0  0  0  0  0  0  0  0
    3.7984    0.0841    0.1592 C   0  0  0  0  0  0  0  0  0  0  0  0
   -0.6432    3.1160   -1.1580 C   0  0  0  0  0  0  0  0  0  0  0  0
    1.0561   -3.4512   -1.0940 C   0  0  0  0  0  0  0  0  0  0  0  0
   -4.8624    0.4375    0.1118 C   0  0  0  0  0  0  0  0  0  0  0  0
  1  8  1  0
  1 16  1  0
  2 11  1  0
  2 17  1  0
  3 14  2  0
  4  7  1  0
  4 14  1  0
  5  9  2  0
  5 13  1  0
  6 10  2  0
  6 15  1  0
  7  8  2  0
  7 12  1  0
  8  9  1  0
  9 10  1  0
 10 11  1  0
 11 12  2  0
 13 15  2  0
 14 18  1  0
M  END
>  <PUBCHEM_COMPOUND_CID>  (1) 
41861

>  <PUBCHEM_CONFORMER_RMSD>  (1) 
0.6

>  <PUBCHEM_CONFORMER_DIVERSEORDER>  (1) 
1
6
5
3
4
2

>  <PUBCHEM_MMFF94_PARTIAL_CHARGES>  (1) 
22
1 -0.36
10 0.31
11 0.08
12 -0.15
13 0.16
14 0.57
15 0.16
16 0.28
17 0.28
18 0.06
19 0.15
2 -0.36
20 0.37
21 0.15
22 0.15
3 -0.57
4 -0.55
5 -0.62
6 -0.62
7 0.12
8 0.08
9 0.31

>  <PUBCHEM_EFFECTIVE_ROTOR_COUNT>  (1) 
4

>  <PUBCHEM_PHARMACOPHORE_FEATURES>  (1) 
8
1 1 acceptor
1 2 acceptor
1 3 acceptor
1 4 donor
1 5 acceptor
1 6 acceptor
6 5 6 9 10 13 15 rings
6 7 8 9 10 11 12 rings

>  <PUBCHEM_HEAVY_ATOM_COUNT>  (1) 
18

>  <PUBCHEM_ATOM_DEF_STEREO_COUNT>  (1) 
0

>  <PUBCHEM_ATOM_UDEF_STEREO_COUNT>  (1) 
0

>  <PUBCHEM_BOND_DEF_STEREO_COUNT>  (1) 
0

>  <PUBCHEM_BOND_UDEF_STEREO_COUNT>  (1) 
0

>  <PUBCHEM_ISOTOPIC_ATOM_COUNT>  (1) 
0

>  <PUBCHEM_COMPONENT_COUNT>  (1) 
1

>  <PUBCHEM_CACTVS_TAUTO_COUNT>  (1) 
3

>  <PUBCHEM_CONFORMER_ID>  (1) 
0000A38500000001

>  <PUBCHEM_MMFF94_ENERGY>  (1) 
78.4729

>  <PUBCHEM_FEATURE_SELFOVERLAP>  (1) 
40.65

>  <PUBCHEM_SHAPE_FINGERPRINT>  (1) 
10411042 1 17835523713204958911
10967382 1 18410573998142010562
11132069 177 18412257358965349233
11471102 20 18411133632549399877
11578080 2 16736071497605459638
116883 192 18050846616037711373
13140716 1 18338791320792450130
13380535 76 18409449210558189043
14178342 30 18053092926962599928
14223421 5 18194399996157138429
14251717 144 18412542128377277883
14790565 3 18337681934972303804
15042514 8 18337667641827200794
15196674 1 18338516446990335195
16945 1 18338515210203238690
193761 8 18050004385461334192
19591789 44 18339643455162777062
20510252 161 18343862204312125072
20588541 1 18409451379616523435
20645477 70 18411415082057260095
20739085 24 18191047709985487305
21267235 1 18410865364660596995
21421861 104 17825666651701324443
21501502 16 18121219770735416224
22182313 1 17910665476255597398
2334 1 18194682789873581234
23402539 116 18270673281322320614
23463225 33 18335700567715485984
23557571 272 17531811242934361477
23559900 14 18195236711663172122
23566358 2 18050283661330289733
2748010 2 18338241595080139138
3060560 45 18341611550705626751
3250762 1 17977099059331689180
33824 294 18411136926736854379
350125 39 18410009906392264616
4072396 5 18262780909216489035
5104073 3 18410011078590847987
589210 1 17977665307782868996
7364860 26 18270965626598019870
81228 2 17970925349124250057
8272917 22 18270686368314758551

>  <PUBCHEM_SHAPE_MULTIPOLES>  (1) 
337.88
6.34
3.32
0.76
4.94
0.9
-0.18
-0.45
0.73
-0.99
-1.23
-0.03
-0.01
0.44

>  <PUBCHEM_SHAPE_SELFOVERLAP>  (1) 
726.085

>  <PUBCHEM_SHAPE_VOLUME>  (1) 
186.1

>  <PUBCHEM_COORDINATE_TYPE>  (1) 
2
5
10

$$$$
