41875
     RDKit          3D

 31 35  0  0  0  0  0  0  0  0999 V2000
   -2.8458   -3.5093   -0.2987 O   0  0  0  0  0  0  0  0  0  0  0  0
    6.4658    2.2650   -0.1946 O   0  0  0  0  0  0  0  0  0  0  0  0
    6.8413    0.2072    0.4715 O   0  0  0  0  0  0  0  0  0  0  0  0
    2.4602   -2.0758    0.2964 N   0  0  0  0  0  0  0  0  0  0  0  0
   -2.7977    2.3508    2.0774 N   0  0  0  0  0  0  0  0  0  0  0  0
    6.0647    1.1044    0.0634 N   0  0  0  0  0  0  0  0  0  0  0  0
    0.6491   -0.1799   -0.5974 C   0  0  0  0  0  0  0  0  0  0  0  0
   -0.3334    0.8497   -1.0814 C   0  0  0  0  0  0  0  0  0  0  0  0
    0.2096   -1.4752   -0.3059 C   0  0  0  0  0  0  0  0  0  0  0  0
    1.9951    0.1664   -0.4417 C   0  0  0  0  0  0  0  0  0  0  0  0
   -1.2314    1.3855    0.0089 C   0  0  0  0  0  0  0  0  0  0  0  0
    1.1627   -2.4041    0.1446 C   0  0  0  0  0  0  0  0  0  0  0  0
    2.8783   -0.8268    0.0142 C   0  0  0  0  0  0  0  0  0  0  0  0
   -2.5267    1.8253   -0.2588 C   0  0  0  0  0  0  0  0  0  0  0  0
   -1.1370   -1.8507   -0.4532 C   0  0  0  0  0  0  0  0  0  0  0  0
    2.4645    1.4605   -0.7271 C   0  0  0  0  0  0  0  0  0  0  0  0
    4.2197   -0.4880    0.1714 C   0  0  0  0  0  0  0  0  0  0  0  0
    0.7312   -3.6954    0.4366 C   0  0  0  0  0  0  0  0  0  0  0  0
   -1.5427   -3.1480   -0.1545 C   0  0  0  0  0  0  0  0  0  0  0  0
   -0.7134    1.4221    1.2886 C   0  0  0  0  0  0  0  0  0  0  0  0
   -3.2895    2.3092    0.8247 C   0  0  0  0  0  0  0  0  0  0  0  0
    4.6894    0.7969   -0.1114 C   0  0  0  0  0  0  0  0  0  0  0  0
    3.8103    1.7735   -0.5615 C   0  0  0  0  0  0  0  0  0  0  0  0
   -0.6063   -4.0719    0.2914 C   0  0  0  0  0  0  0  0  0  0  0  0
   -3.0720    1.7962   -1.5536 C   0  0  0  0  0  0  0  0  0  0  0  0
   -1.5348    1.9120    2.2835 C   0  0  0  0  0  0  0  0  0  0  0  0
   -4.5846    2.7509    0.5681 C   0  0  0  0  0  0  0  0  0  0  0  0
   -4.3700    2.2442   -1.7815 C   0  0  0  0  0  0  0  0  0  0  0  0
   -5.1269    2.7222   -0.7190 C   0  0  0  0  0  0  0  0  0  0  0  0
   -3.8279   -2.4913   -0.1082 C   0  0  0  0  0  0  0  0  0  0  0  0
   -5.1019   -3.1257    0.4077 C   0  0  0  0  0  0  0  0  0  0  0  0
  1 19  1  0
  1 30  1  0
  2  6  1  0
  3  6  2  0
  4 12  2  0
  4 13  1  0
  5 21  2  0
  5 26  1  0
  6 22  1  0
  7  8  1  0
  7  9  2  0
  7 10  1  0
  8 11  1  0
  9 12  1  0
  9 15  1  0
 10 13  2  0
 10 16  1  0
 11 14  2  0
 11 20  1  0
 12 18  1  0
 13 17  1  0
 14 21  1  0
 14 25  1  0
 15 19  2  0
 16 23  2  0
 17 22  2  0
 18 24  2  0
 19 24  1  0
 20 26  2  0
 21 27  1  0
 22 23  1  0
 25 28  2  0
 27 29  2  0
 28 29  1  0
 30 31  1  0
M  CHG  2   2  -1   6   1
M  END
>  <PUBCHEM_COMPOUND_CID>  (1) 
41875

>  <PUBCHEM_CONFORMER_RMSD>  (1) 
0.8

>  <PUBCHEM_CONFORMER_DIVERSEORDER>  (1) 
1
6
16
15
12
8
18
7
14
5
13
9
11
2
10
17
3
4

>  <PUBCHEM_MMFF94_PARTIAL_CHARGES>  (1) 
39
1 -0.36
11 -0.14
12 0.31
13 0.31
15 -0.15
16 -0.15
17 -0.15
18 -0.15
19 0.08
2 -0.52
20 -0.15
21 0.31
22 0.13
23 -0.15
24 -0.15
25 -0.15
26 0.16
27 -0.15
28 -0.15
29 -0.15
3 -0.52
30 0.28
34 0.15
35 0.15
36 0.15
37 0.15
38 0.15
39 0.15
4 -0.62
40 0.15
41 0.15
42 0.15
43 0.15
44 0.15
45 0.15
5 -0.62
6 0.91
7 -0.14
8 0.29

>  <PUBCHEM_EFFECTIVE_ROTOR_COUNT>  (1) 
5

>  <PUBCHEM_PHARMACOPHORE_FEATURES>  (1) 
11
1 1 acceptor
1 2 acceptor
1 2 anion
1 3 acceptor
1 4 acceptor
1 5 acceptor
6 10 13 16 17 22 23 rings
6 14 21 25 27 28 29 rings
6 4 7 9 10 12 13 rings
6 5 11 14 20 21 26 rings
6 9 12 15 18 19 24 rings

>  <PUBCHEM_HEAVY_ATOM_COUNT>  (1) 
31

>  <PUBCHEM_ATOM_DEF_STEREO_COUNT>  (1) 
0

>  <PUBCHEM_ATOM_UDEF_STEREO_COUNT>  (1) 
0

>  <PUBCHEM_BOND_DEF_STEREO_COUNT>  (1) 
0

>  <PUBCHEM_BOND_UDEF_STEREO_COUNT>  (1) 
0

>  <PUBCHEM_ISOTOPIC_ATOM_COUNT>  (1) 
0

>  <PUBCHEM_COMPONENT_COUNT>  (1) 
1

>  <PUBCHEM_CACTVS_TAUTO_COUNT>  (1) 
1

>  <PUBCHEM_CONFORMER_ID>  (1) 
0000A39300000001

>  <PUBCHEM_MMFF94_ENERGY>  (1) 
120.6719

>  <PUBCHEM_FEATURE_SELFOVERLAP>  (1) 
55.999

>  <PUBCHEM_SHAPE_FINGERPRINT>  (1) 
10050765 1 18409728444390386422
10090160 65 18196650700944541617
1100329 8 18194398884030348690
11007060 377 18189060961931966440
11135609 127 17904747892144167461
11135609 187 18266167350140417621
11513181 2 18201719522711344191
11582403 64 16662868272950014301
11646440 116 18052551142481919323
12107183 9 18262788555376802802
12156800 1 18194088967927534331
12160290 23 18049757214314771606
12236239 1 17773590525114081309
12390115 104 18411710893724209356
12788726 201 18122924275883317014
13140716 1 18264769865875326938
13583140 156 17458349602138196496
1361 2 18263076618216433109
13631057 29 18340762741267837903
13782708 43 13181867287251139085
13911987 19 18335711502687248852
14787075 74 18058999580847108757
15324884 4 17317340406125817405
16988056 13 17114646975228675487
17138139 8 17914019141628800615
17980427 23 17022915569924968164
19319366 153 18127116486672316279
20642791 105 18337668714935489184
21033648 144 18336824174051972220
21033648 29 18265035969602428900
21236236 1 18410571820799306974
21796203 349 17185906903165466179
23419403 2 17344621772001855777
23569917 315 18341331089632179870
23576562 1 18114757026941829900
283562 15 18337951306836422443
3380486 145 18114477677546791533
350125 39 18337955722225787420
392239 28 18200890572489460601
4058900 60 18195532488913380704
4258327 124 18115317794698533948
4340502 62 18340210670398388677
4409770 3 18339355374964130919
469060 322 18189349007923342211
474 4 18268710498210794128
5104073 3 18337094762447019976
5171179 24 17557406971685984305
59755656 520 18411139100227520812
6034566 193 18188225285264862388
7226269 152 18194400215274914734
7399639 24 17971198023924124045

>  <PUBCHEM_SHAPE_MULTIPOLES>  (1) 
605.41
11.62
5.2
1.31
12.69
5.31
-0.4
-8.44
0.52
-5.53
-0.44
-1.45
-1.16
-0.2

>  <PUBCHEM_SHAPE_SELFOVERLAP>  (1) 
1371.083

>  <PUBCHEM_SHAPE_VOLUME>  (1) 
316.3

>  <PUBCHEM_COORDINATE_TYPE>  (1) 
2
5
10

$$$$
