41878
     RDKit          3D

 20 19  0  0  0  0  0  0  0  0999 V2000
    3.7342   -1.3914   -0.2744 O   0  0  0  0  0  0  0  0  0  0  0  0
    4.7911    0.7207   -0.4916 O   0  0  0  0  0  0  0  0  0  0  0  0
    5.8051   -1.6711    0.7103 O   0  0  0  0  0  0  0  0  0  0  0  0
    4.6383    2.4310    1.0558 O   0  0  0  0  0  0  0  0  0  0  0  0
   -2.7000    0.4914   -0.1935 C   0  0  0  0  0  0  0  0  0  0  0  0
   -1.3989   -0.1662    0.2735 C   0  0  0  0  0  0  0  0  0  0  0  0
   -3.9554   -0.2171    0.3278 C   0  0  0  0  0  0  0  0  0  0  0  0
   -0.1438    0.5040   -0.2947 C   0  0  0  0  0  0  0  0  0  0  0  0
   -5.2563    0.3949   -0.1988 C   0  0  0  0  0  0  0  0  0  0  0  0
    1.1589   -0.1359    0.1913 C   0  0  0  0  0  0  0  0  0  0  0  0
   -6.5098   -0.3495    0.2747 C   0  0  0  0  0  0  0  0  0  0  0  0
   -7.8115    0.2785   -0.2308 C   0  0  0  0  0  0  0  0  0  0  0  0
    2.3787    0.5966   -0.3749 C   0  0  0  0  0  0  0  0  0  0  0  0
   -9.0634   -0.4584    0.2524 C   0  0  0  0  0  0  0  0  0  0  0  0
    3.7010   -0.0025    0.1182 C   0  0  0  0  0  0  0  0  0  0  0  0
  -10.3613    0.1749   -0.2243 C   0  0  0  0  0  0  0  0  0  0  0  0
    4.8421   -2.0978    0.0881 C   0  0  0  0  0  0  0  0  0  0  0  0
    5.1488    1.9078    0.0748 C   0  0  0  0  0  0  0  0  0  0  0  0
    4.7119   -3.5117   -0.3909 C   0  0  0  0  0  0  0  0  0  0  0  0
    6.2902    2.5021   -0.6930 C   0  0  0  0  0  0  0  0  0  0  0  0
  1 15  1  0
  1 17  1  0
  2 15  1  0
  2 18  1  0
  3 17  2  0
  4 18  2  0
  5  6  1  0
  5  7  1  0
  6  8  1  0
  7  9  1  0
  8 10  1  0
  9 11  1  0
 10 13  1  0
 11 12  1  0
 12 14  1  0
 13 15  1  0
 14 16  1  0
 17 19  1  0
 18 20  1  0
M  END
>  <PUBCHEM_COMPOUND_CID>  (1) 
41878

>  <PUBCHEM_CONFORMER_RMSD>  (1) 
1.2

>  <PUBCHEM_CONFORMER_DIVERSEORDER>  (1) 
1
29
122
70
14
66
2
71
89
61
11
105
68
93
120
35
127
101
17
113
45
24
12
58
46
59
92
53
10
21
81
126
125
41
111
103
124
55
7
119
106
69
54
51
3
22
40
90
20
49
116
74
96
52
57
114
19
16
87
6
65
80
5
73
107
72
38
95
91
108
30
26
123
75
79
39
43
86
32
78
110
23
44
8
15
97
102
99
98
37
36
50
109
76
117
94
28
13
25
48
84
63
104
115
18
56
100
82
77
67
64
47
62
121
34
33
60
4
118
9
42
88
83
27
112
85
31

>  <PUBCHEM_MMFF94_PARTIAL_CHARGES>  (1) 
9
1 -0.43
15 0.56
17 0.66
18 0.66
19 0.06
2 -0.43
20 0.06
3 -0.57
4 -0.57

>  <PUBCHEM_EFFECTIVE_ROTOR_COUNT>  (1) 
14

>  <PUBCHEM_PHARMACOPHORE_FEATURES>  (1) 
3
1 16 hydrophobe
1 3 acceptor
1 4 acceptor

>  <PUBCHEM_HEAVY_ATOM_COUNT>  (1) 
20

>  <PUBCHEM_ATOM_DEF_STEREO_COUNT>  (1) 
0

>  <PUBCHEM_ATOM_UDEF_STEREO_COUNT>  (1) 
0

>  <PUBCHEM_BOND_DEF_STEREO_COUNT>  (1) 
0

>  <PUBCHEM_BOND_UDEF_STEREO_COUNT>  (1) 
0

>  <PUBCHEM_ISOTOPIC_ATOM_COUNT>  (1) 
0

>  <PUBCHEM_COMPONENT_COUNT>  (1) 
1

>  <PUBCHEM_CACTVS_TAUTO_COUNT>  (1) 
1

>  <PUBCHEM_CONFORMER_ID>  (1) 
0000A39600000001

>  <PUBCHEM_MMFF94_ENERGY>  (1) 
8.1359

>  <PUBCHEM_FEATURE_SELFOVERLAP>  (1) 
15.223

>  <PUBCHEM_SHAPE_FINGERPRINT>  (1) 
10066227 49 18338235960774799287
10411042 1 18122908626041134406
11315181 36 18343588469810123145
12089408 11 10881402037871108217
13533116 47 18341894074055199682
13955234 65 18341608223108142930
14251764 18 17918277554759012513
14251764 46 15482676788024776428
15183329 4 17489875942686981193
15510794 2 17895197723217928107
15716309 27 18343863317230328671
16120349 18 18412259562785024009
20157964 124 18410012143711061838
20165401 70 18271803463333897519
20645477 70 18336264553500038390
21315763 28 18412262801459208753
21344244 78 18059000689280786480
21362267 20 18411419558511604323
220451 1 17989204876017181175
22224240 67 17676766552868441115
23081809 10 17989207032280732545
28498 318 18335983078718422287
33532 11 18410572856461938215
34797466 226 17603587443167570461
4073 2 18187369890771894003
6025842 7 18411984663830420718
67123 10 18410856595244447445
8209 1 18409730677873093909

>  <PUBCHEM_SHAPE_MULTIPOLES>  (1) 
388.11
29.35
2.51
0.75
73.22
1.28
0.03
-0.84
-0.73
-9.53
-0.14
-0.38
-0.11
0.2

>  <PUBCHEM_SHAPE_SELFOVERLAP>  (1) 
719.928

>  <PUBCHEM_SHAPE_VOLUME>  (1) 
242.6

>  <PUBCHEM_COORDINATE_TYPE>  (1) 
2
5
10

$$$$
