41882
     RDKit          3D

 28 29  0  0  0  0  0  0  0  0999 V2000
    3.6484   -0.0222    0.8322 O   0  0  0  0  0  0  0  0  0  0  0  0
   -3.1584   -0.6208   -0.9926 O   0  0  0  0  0  0  0  0  0  0  0  0
    3.5303    5.8197   -0.9377 O   0  0  0  0  0  0  0  0  0  0  0  0
   -5.6244    4.4679    1.2963 O   0  0  0  0  0  0  0  0  0  0  0  0
    5.3717    4.6580   -0.2917 O   0  0  0  0  0  0  0  0  0  0  0  0
   -6.5862    3.0905   -0.2317 O   0  0  0  0  0  0  0  0  0  0  0  0
    5.3260   -2.2401    0.4006 N   0  0  0  0  0  0  0  0  0  0  0  0
   -4.4558   -3.0562   -0.4200 N   0  0  0  0  0  0  0  0  0  0  0  0
    1.1522   -2.5729    0.0507 C   0  0  0  0  0  0  0  0  0  0  0  0
   -0.2845   -2.6928   -0.0710 C   0  0  0  0  0  0  0  0  0  0  0  0
    3.1091   -1.2302    0.5036 C   0  0  0  0  0  0  0  0  0  0  0  0
   -2.4295   -1.7112   -0.5933 C   0  0  0  0  0  0  0  0  0  0  0  0
    1.7240   -1.3456    0.3861 C   0  0  0  0  0  0  0  0  0  0  0  0
   -1.0444   -1.5953   -0.4758 C   0  0  0  0  0  0  0  0  0  0  0  0
    3.9085    2.2877    0.1731 C   0  0  0  0  0  0  0  0  0  0  0  0
   -4.3823    1.3249   -0.2626 C   0  0  0  0  0  0  0  0  0  0  0  0
    2.9361    1.1400    0.4137 C   0  0  0  0  0  0  0  0  0  0  0  0
   -3.0814    0.5371   -0.1736 C   0  0  0  0  0  0  0  0  0  0  0  0
    1.9655   -3.6848   -0.1674 C   0  0  0  0  0  0  0  0  0  0  0  0
   -0.9097   -3.9061    0.2165 C   0  0  0  0  0  0  0  0  0  0  0  0
    3.9226   -2.3422    0.2856 C   0  0  0  0  0  0  0  0  0  0  0  0
   -3.0547   -2.9245   -0.3058 C   0  0  0  0  0  0  0  0  0  0  0  0
    3.3507   -3.5694   -0.0501 C   0  0  0  0  0  0  0  0  0  0  0  0
   -2.2948   -4.0218    0.0992 C   0  0  0  0  0  0  0  0  0  0  0  0
    3.1994    3.5588   -0.2974 C   0  0  0  0  0  0  0  0  0  0  0  0
   -4.3629    2.5763    0.6169 C   0  0  0  0  0  0  0  0  0  0  0  0
    4.1667    4.7031   -0.4965 C   0  0  0  0  0  0  0  0  0  0  0  0
   -5.6421    3.3722    0.4929 C   0  0  0  0  0  0  0  0  0  0  0  0
  1 11  1  0
  1 17  1  0
  2 12  1  0
  2 18  1  0
  3 27  1  0
  4 28  1  0
  5 27  2  0
  6 28  2  0
  7 21  1  0
  8 22  1  0
  9 10  1  0
  9 13  1  0
  9 19  2  0
 10 14  1  0
 10 20  2  0
 11 13  2  0
 11 21  1  0
 12 14  2  0
 12 22  1  0
 15 17  1  0
 15 25  1  0
 16 18  1  0
 16 26  1  0
 19 23  1  0
 20 24  1  0
 21 23  2  0
 22 24  2  0
 25 27  1  0
 26 28  1  0
M  END
>  <PUBCHEM_COMPOUND_CID>  (1) 
41882

>  <PUBCHEM_CONFORMER_RMSD>  (1) 
1

>  <PUBCHEM_CONFORMER_DIVERSEORDER>  (1) 
1
19
128
15
22
94
115
100
60
153
90
44
53
152
116
120
47
91
143
65
106
101
48
32
85
33
109
103
78
136
70
8
123
82
74
104
124
117
64
129
134
88
119
4
77
43
71
147
73
144
113
107
137
36
96
75
118
38
150
105
81
72
17
102
141
16
89
42
130
45
112
110
148
57
149
99
63
67
133
126
93
92
27
98
111
35
121
66
50
139
34
95
58
122
62
56
79
25
9
24
86
138
140
23
51
6
135
68
87
146
11
61
69
20
132
108
26
21
84
127
114
2
37
49
125
28
10
39
142
145
40
54
46
80
97
76
7
12
83
18
41
131
59
29
31
14
55
52
30
151
3
13
5

>  <PUBCHEM_MMFF94_PARTIAL_CHARGES>  (1) 
36
1 -0.36
11 0.08
12 0.08
13 -0.15
14 -0.15
17 0.28
18 0.28
19 -0.15
2 -0.36
20 -0.15
21 0.1
22 0.1
23 -0.15
24 -0.15
25 0.06
26 0.06
27 0.66
28 0.66
29 0.15
3 -0.65
30 0.15
39 0.15
4 -0.65
40 0.15
41 0.15
42 0.15
47 0.4
48 0.4
49 0.4
5 -0.57
50 0.4
51 0.5
52 0.5
6 -0.57
7 -0.9
8 -0.9

>  <PUBCHEM_EFFECTIVE_ROTOR_COUNT>  (1) 
11

>  <PUBCHEM_PHARMACOPHORE_FEATURES>  (1) 
14
1 1 acceptor
1 2 acceptor
1 3 acceptor
1 4 acceptor
1 5 acceptor
1 6 acceptor
1 7 cation
1 7 donor
1 8 cation
1 8 donor
3 3 5 27 anion
3 4 6 28 anion
6 10 12 14 20 22 24 rings
6 9 11 13 19 21 23 rings

>  <PUBCHEM_HEAVY_ATOM_COUNT>  (1) 
28

>  <PUBCHEM_ATOM_DEF_STEREO_COUNT>  (1) 
0

>  <PUBCHEM_ATOM_UDEF_STEREO_COUNT>  (1) 
0

>  <PUBCHEM_BOND_DEF_STEREO_COUNT>  (1) 
0

>  <PUBCHEM_BOND_UDEF_STEREO_COUNT>  (1) 
0

>  <PUBCHEM_ISOTOPIC_ATOM_COUNT>  (1) 
0

>  <PUBCHEM_COMPONENT_COUNT>  (1) 
1

>  <PUBCHEM_CACTVS_TAUTO_COUNT>  (1) 
1

>  <PUBCHEM_CONFORMER_ID>  (1) 
0000A39A00000001

>  <PUBCHEM_MMFF94_ENERGY>  (1) 
101.1757

>  <PUBCHEM_FEATURE_SELFOVERLAP>  (1) 
71.164

>  <PUBCHEM_SHAPE_FINGERPRINT>  (1) 
10411042 1 16395777962422914799
11059048 146 18339930419018164204
11273773 38 18338239258855495412
11479125 193 18411146848412522161
12925494 130 18412256225394630947
14251764 75 18412554210405865497
14844126 61 11203957495160447201
14849402 71 18266463105297318197
15320467 1 18194399991862950676
155225 5 17690000459009087668
16087824 20 17979074877853737424
16990350 14 18337953523577591568
23845131 108 18046348527540009155
245318 6 18262814994631546149
3103668 31 17186445638604539982
335352 9 17981603771583358742
4487111 67 17978789339363997281
5104073 3 18188199893186710642
53794403 172 18410575059173149037
57527585 21 18054771039082935711
6036956 94 18046907362450128077
7808743 9 17400355041857359498
9961470 85 18411693283931709717

>  <PUBCHEM_SHAPE_MULTIPOLES>  (1) 
531.05
13.55
9.4
0.82
10.23
10.71
-0.03
18.02
-1.13
-4.03
0.75
0.24
0.36
-3.15

>  <PUBCHEM_SHAPE_SELFOVERLAP>  (1) 
1112.434

>  <PUBCHEM_SHAPE_VOLUME>  (1) 
299.7

>  <PUBCHEM_COORDINATE_TYPE>  (1) 
2
5
10

$$$$
