41880
     RDKit          3D

 27 27  0  0  1  0  0  0  0  0999 V2000
   -2.7123   -2.6410    0.5266 O   0  0  0  0  0  0  0  0  0  0  0  0
    2.4749    1.0996    0.2105 O   0  0  0  0  0  0  0  0  0  0  0  0
    0.4243   -0.5062   -1.8885 O   0  0  0  0  0  0  0  0  0  0  0  0
   -1.8498   -1.6868   -1.3901 O   0  0  0  0  0  0  0  0  0  0  0  0
    3.3118   -0.1188   -1.5598 O   0  0  0  0  0  0  0  0  0  0  0  0
    8.1069   -1.0830    0.0368 O   0  0  0  0  0  0  0  0  0  0  0  0
    7.0997    0.0311    1.7417 O   0  0  0  0  0  0  0  0  0  0  0  0
   -4.1528    2.7280   -0.4326 C   0  0  0  0  0  0  0  0  0  0  0  0
   -4.6734    2.1539    0.8889 C   0  0  0  0  0  0  0  0  0  0  0  0
   -3.1709    3.8892   -0.2414 C   0  0  0  0  0  0  0  0  0  0  0  0
   -5.3855    0.8040    0.7354 C   0  0  0  0  0  0  0  0  0  0  0  0
   -1.8344    3.5191    0.4186 C   0  0  0  0  0  0  0  0  0  0  0  0
   -4.4261   -0.2911    0.2636 C   0  0  0  0  0  0  0  0  0  0  0  0
   -1.0193    2.4858   -0.3685 C   0  0  0  0  0  0  0  0  0  0  0  0
   -4.9634   -1.7025    0.5121 C   0  0  0  0  0  0  0  0  0  0  0  0
    0.3172    2.1861    0.3272 C   0  0  0  0  0  0  0  0  0  0  0  0
   -4.0296   -2.7871   -0.0525 C   0  0  0  0  0  0  0  0  0  0  0  0
    1.2459    1.2730   -0.4800 C   0  0  0  0  0  0  0  0  0  0  0  0
   -4.5322   -4.1791    0.3095 C   0  0  0  0  0  0  0  0  0  0  0  0
    0.6558   -0.1077   -0.7501 C   0  0  0  0  0  0  0  0  0  0  0  0
    0.4441   -0.9830    0.4385 C   0  0  0  0  0  0  0  0  0  0  0  0
   -1.7497   -2.0368   -0.2271 C   0  0  0  0  0  0  0  0  0  0  0  0
    3.4358    0.3756   -0.4480 C   0  0  0  0  0  0  0  0  0  0  0  0
   -0.5768   -1.8226    0.6536 C   0  0  0  0  0  0  0  0  0  0  0  0
    4.6718    0.2837    0.4207 C   0  0  0  0  0  0  0  0  0  0  0  0
    5.8311   -0.4321   -0.2621 C   0  0  0  0  0  0  0  0  0  0  0  0
    7.0570   -0.4513    0.6174 C   0  0  0  0  0  0  0  0  0  0  0  0
  1 17  1  0
  1 22  1  0
  2 18  1  0
  2 23  1  0
  3 20  2  0
  4 22  2  0
  5 23  2  0
  6 27  1  0
  7 27  2  0
  8  9  1  0
  8 10  1  0
  9 11  1  0
 10 12  1  0
 11 13  1  0
 12 14  1  0
 13 15  1  0
 14 16  1  0
 15 17  1  0
 16 18  1  0
 17 19  1  0
 18 20  1  0
 20 21  1  0
 21 24  2  0
 22 24  1  0
 23 25  1  0
 25 26  1  0
 26 27  1  0
M  END
>  <PUBCHEM_COMPOUND_CID>  (1) 
41880

>  <PUBCHEM_CONFORMER_RMSD>  (1) 
0.8

>  <PUBCHEM_CONFORMER_DIVERSEORDER>  (1) 
1
9
25
26
22
24
20
17
29
3
11
2
19
16
14
8
7
6
12
4
28
27
21
18
23
5
15
13
10

>  <PUBCHEM_MMFF94_PARTIAL_CHARGES>  (1) 
20
1 -0.43
17 0.28
18 0.34
2 -0.43
20 0.49
21 -0.14
22 0.71
23 0.66
24 -0.14
25 0.06
26 0.06
27 0.66
3 -0.57
4 -0.57
5 -0.57
51 0.15
52 0.15
57 0.5
6 -0.65
7 -0.57

>  <PUBCHEM_EFFECTIVE_ROTOR_COUNT>  (1) 
7.4

>  <PUBCHEM_PHARMACOPHORE_FEATURES>  (1) 
6
1 3 acceptor
1 4 acceptor
1 5 acceptor
1 6 acceptor
1 7 acceptor
3 6 7 27 anion

>  <PUBCHEM_HEAVY_ATOM_COUNT>  (1) 
27

>  <PUBCHEM_ATOM_DEF_STEREO_COUNT>  (1) 
0

>  <PUBCHEM_ATOM_UDEF_STEREO_COUNT>  (1) 
0

>  <PUBCHEM_BOND_DEF_STEREO_COUNT>  (1) 
0

>  <PUBCHEM_BOND_UDEF_STEREO_COUNT>  (1) 
1

>  <PUBCHEM_ISOTOPIC_ATOM_COUNT>  (1) 
0

>  <PUBCHEM_COMPONENT_COUNT>  (1) 
1

>  <PUBCHEM_CACTVS_TAUTO_COUNT>  (1) 
2

>  <PUBCHEM_CONFORMER_ID>  (1) 
0000A39800000001

>  <PUBCHEM_MMFF94_ENERGY>  (1) 
43.678

>  <PUBCHEM_FEATURE_SELFOVERLAP>  (1) 
30.52

>  <PUBCHEM_SHAPE_FINGERPRINT>  (1) 
100830 39 18410293580033469712
10411042 1 18194120948602464707
10838868 229 17904193734052072018
12166972 35 17606399006987036191
12645989 146 18198061585222882767
12788726 201 18263942079864290620
12838862 33 18338227160444773665
12838863 1 18342169021367741159
13402501 40 18342464721144253937
14466204 15 18411704296000490290
14725015 67 18338799026833931313
14866123 147 18408039593717401658
15021287 119 17095249103090849820
15042514 8 18410573976846944372
15183329 4 17822285812713682490
17980427 23 13182749194149385746
19930381 70 16897931060488362899
20765182 40 18412825759280118601
20766409 102 18192991746177573340
21236236 1 18412261727068648636
22182313 1 17703524198827142084
23522609 53 17677636249127816956
24893992 56 18188775067898294523
25147074 1 17967827063302377628
397830 11 18272079540095236776
4409770 3 18336259073005711509
5047190 69 18342450448261191184
552612 73 18058157501143792160
59755656 520 18263076618258397212
7226269 152 18407758140178259596

>  <PUBCHEM_SHAPE_MULTIPOLES>  (1) 
514.56
16.14
4.55
1.1
33.02
0.47
-0.18
-4.88
4.98
-10.06
0.22
0.67
-0.08
0

>  <PUBCHEM_SHAPE_SELFOVERLAP>  (1) 
1015.099

>  <PUBCHEM_SHAPE_VOLUME>  (1) 
301.1

>  <PUBCHEM_COORDINATE_TYPE>  (1) 
2
5
10

$$$$
