41885
     RDKit          3D

 17 18  0  0  0  0  0  0  0  0999 V2000
    5.4840    0.2257   -0.0236 F   0  0  0  0  0  0  0  0  0  0  0  0
   -4.6207    0.0109   -0.5356 O   0  0  0  0  0  0  0  0  0  0  0  0
   -0.6797   -1.4805    0.1372 N   0  0  0  0  0  0  0  0  0  0  0  0
   -0.8655    2.0296   -0.2116 N   0  0  0  0  0  0  0  0  0  0  0  0
   -0.0664   -0.2594    0.0167 C   0  0  0  0  0  0  0  0  0  0  0  0
   -2.3017    0.0290   -0.0141 C   0  0  0  0  0  0  0  0  0  0  0  0
   -2.0404   -1.3167    0.1201 C   0  0  0  0  0  0  0  0  0  0  0  0
   -1.0544    0.6977   -0.0794 C   0  0  0  0  0  0  0  0  0  0  0  0
    1.3706   -0.1339    0.0056 C   0  0  0  0  0  0  0  0  0  0  0  0
   -2.9455   -2.4772    0.2348 C   0  0  0  0  0  0  0  0  0  0  0  0
   -3.6185    0.6002   -0.0722 C   0  0  0  0  0  0  0  0  0  0  0  0
    2.0634    0.0463    1.2026 C   0  0  0  0  0  0  0  0  0  0  0  0
    2.0672   -0.1927   -1.2016 C   0  0  0  0  0  0  0  0  0  0  0  0
   -3.8516    2.0154    0.4544 C   0  0  0  0  0  0  0  0  0  0  0  0
    3.4529    0.1679    1.1927 C   0  0  0  0  0  0  0  0  0  0  0  0
    3.4568   -0.0712   -1.2115 C   0  0  0  0  0  0  0  0  0  0  0  0
    4.1497    0.1089   -0.0144 C   0  0  0  0  0  0  0  0  0  0  0  0
  1 17  1  0
  2 11  2  0
  3  5  1  0
  3  7  1  0
  4  8  1  0
  5  8  2  0
  5  9  1  0
  6  7  2  0
  6  8  1  0
  6 11  1  0
  7 10  1  0
  9 12  2  0
  9 13  1  0
 11 14  1  0
 12 15  1  0
 13 16  2  0
 15 17  2  0
 16 17  1  0
M  END
>  <PUBCHEM_COMPOUND_CID>  (1) 
41885

>  <PUBCHEM_CONFORMER_RMSD>  (1) 
0.6

>  <PUBCHEM_CONFORMER_DIVERSEORDER>  (1) 
1
4
5
3
2

>  <PUBCHEM_MMFF94_PARTIAL_CHARGES>  (1) 
24
1 -0.19
10 0.18
11 0.6
12 -0.15
13 -0.15
14 0.06
15 -0.15
16 -0.15
17 0.19
18 0.27
2 -0.57
22 0.15
23 0.15
24 0.4
25 0.4
29 0.15
3 0.03
30 0.15
4 -0.88
5 -0.2
6 -0.09
7 -0.33
8 0.08
9 0.05

>  <PUBCHEM_EFFECTIVE_ROTOR_COUNT>  (1) 
2

>  <PUBCHEM_PHARMACOPHORE_FEATURES>  (1) 
7
1 2 acceptor
1 3 cation
1 3 donor
1 4 cation
1 4 donor
5 3 5 6 7 8 rings
6 9 12 13 15 16 17 rings

>  <PUBCHEM_HEAVY_ATOM_COUNT>  (1) 
17

>  <PUBCHEM_ATOM_DEF_STEREO_COUNT>  (1) 
0

>  <PUBCHEM_ATOM_UDEF_STEREO_COUNT>  (1) 
0

>  <PUBCHEM_BOND_DEF_STEREO_COUNT>  (1) 
0

>  <PUBCHEM_BOND_UDEF_STEREO_COUNT>  (1) 
0

>  <PUBCHEM_ISOTOPIC_ATOM_COUNT>  (1) 
0

>  <PUBCHEM_COMPONENT_COUNT>  (1) 
1

>  <PUBCHEM_CACTVS_TAUTO_COUNT>  (1) 
20

>  <PUBCHEM_CONFORMER_ID>  (1) 
0000A39D00000001

>  <PUBCHEM_MMFF94_ENERGY>  (1) 
36.5636

>  <PUBCHEM_FEATURE_SELFOVERLAP>  (1) 
35.52

>  <PUBCHEM_SHAPE_FINGERPRINT>  (1) 
11132069 177 18409731755150171525
11471102 20 16415479350954295736
11796584 16 18342745075092640438
12236239 1 17603302657029342114
12390115 104 18056774143601150681
12403814 3 17167859747377533061
12500047 106 18342174462020322287
13140716 1 18265621064443106081
13214271 11 18272367602686115623
13538477 17 18040715882954727866
13760787 19 18186799188581695346
13760787 5 16008745836348918182
15219456 202 17846779645839854306
15375358 24 18060418010533103942
16945 1 18409451375748719977
18175812 5 17988640834909951364
200 152 16153421766126474290
20279233 1 17918278662074656198
20510252 161 18271244902889072433
20645477 56 18412830170569935289
20645477 70 16630252402983733758
23175994 123 17132122359278163336
23402539 116 18411974758812760652
23402655 69 16630244714654903448
23557571 272 18271813453210425782
23559900 14 18342745074981292582
2748010 2 18122618616420411989
474 4 16951702478765179188
5104073 3 18334856160450592144
573450 72 18260821609856157090
69090 78 17632570561396982599
77492 1 17530964704669381130
9709674 26 18201445739746110326

>  <PUBCHEM_SHAPE_MULTIPOLES>  (1) 
326.75
9.05
1.71
0.99
4.01
0.29
-0.01
-1.33
0.17
-2.65
-0.17
0.88
-0.01
0.1

>  <PUBCHEM_SHAPE_SELFOVERLAP>  (1) 
709.357

>  <PUBCHEM_SHAPE_VOLUME>  (1) 
181.5

>  <PUBCHEM_COORDINATE_TYPE>  (1) 
2
5
10

$$$$
