41887
     RDKit          3D

 17 18  0  0  0  0  0  0  0  0999 V2000
    5.8426    0.2452   -0.0263 Cl  0  0  0  0  0  0  0  0  0  0  0  0
   -4.6429    0.0188   -0.5366 O   0  0  0  0  0  0  0  0  0  0  0  0
   -0.7053   -1.4811    0.1372 N   0  0  0  0  0  0  0  0  0  0  0  0
   -0.8835    2.0294   -0.2109 N   0  0  0  0  0  0  0  0  0  0  0  0
   -0.0893   -0.2613    0.0172 C   0  0  0  0  0  0  0  0  0  0  0  0
   -2.3241    0.0318   -0.0144 C   0  0  0  0  0  0  0  0  0  0  0  0
   -2.0656   -1.3144    0.1197 C   0  0  0  0  0  0  0  0  0  0  0  0
   -1.0752    0.6979   -0.0791 C   0  0  0  0  0  0  0  0  0  0  0  0
    1.3479   -0.1388    0.0067 C   0  0  0  0  0  0  0  0  0  0  0  0
   -2.9732   -2.4729    0.2339 C   0  0  0  0  0  0  0  0  0  0  0  0
   -3.6396    0.6058   -0.0728 C   0  0  0  0  0  0  0  0  0  0  0  0
    2.0413    0.0396    1.2035 C   0  0  0  0  0  0  0  0  0  0  0  0
    2.0441   -0.1986   -1.2007 C   0  0  0  0  0  0  0  0  0  0  0  0
   -3.8699    2.0214    0.4540 C   0  0  0  0  0  0  0  0  0  0  0  0
    3.4312    0.1585    1.1933 C   0  0  0  0  0  0  0  0  0  0  0  0
    3.4340   -0.0799   -1.2109 C   0  0  0  0  0  0  0  0  0  0  0  0
    4.1275    0.0986   -0.0139 C   0  0  0  0  0  0  0  0  0  0  0  0
  1 17  1  0
  2 11  2  0
  3  5  1  0
  3  7  1  0
  4  8  1  0
  5  8  2  0
  5  9  1  0
  6  7  2  0
  6  8  1  0
  6 11  1  0
  7 10  1  0
  9 12  2  0
  9 13  1  0
 11 14  1  0
 12 15  1  0
 13 16  2  0
 15 17  2  0
 16 17  1  0
M  END
>  <PUBCHEM_COMPOUND_CID>  (1) 
41887

>  <PUBCHEM_CONFORMER_RMSD>  (1) 
0.6

>  <PUBCHEM_CONFORMER_DIVERSEORDER>  (1) 
1
4
5
3
2

>  <PUBCHEM_MMFF94_PARTIAL_CHARGES>  (1) 
24
1 -0.18
10 0.18
11 0.6
12 -0.15
13 -0.15
14 0.06
15 -0.15
16 -0.15
17 0.18
18 0.27
2 -0.57
22 0.15
23 0.15
24 0.4
25 0.4
29 0.15
3 0.03
30 0.15
4 -0.88
5 -0.2
6 -0.09
7 -0.33
8 0.08
9 0.05

>  <PUBCHEM_EFFECTIVE_ROTOR_COUNT>  (1) 
2

>  <PUBCHEM_PHARMACOPHORE_FEATURES>  (1) 
7
1 2 acceptor
1 3 cation
1 3 donor
1 4 cation
1 4 donor
5 3 5 6 7 8 rings
6 9 12 13 15 16 17 rings

>  <PUBCHEM_HEAVY_ATOM_COUNT>  (1) 
17

>  <PUBCHEM_ATOM_DEF_STEREO_COUNT>  (1) 
0

>  <PUBCHEM_ATOM_UDEF_STEREO_COUNT>  (1) 
0

>  <PUBCHEM_BOND_DEF_STEREO_COUNT>  (1) 
0

>  <PUBCHEM_BOND_UDEF_STEREO_COUNT>  (1) 
0

>  <PUBCHEM_ISOTOPIC_ATOM_COUNT>  (1) 
0

>  <PUBCHEM_COMPONENT_COUNT>  (1) 
1

>  <PUBCHEM_CACTVS_TAUTO_COUNT>  (1) 
20

>  <PUBCHEM_CONFORMER_ID>  (1) 
0000A39F00000001

>  <PUBCHEM_MMFF94_ENERGY>  (1) 
37.2699

>  <PUBCHEM_FEATURE_SELFOVERLAP>  (1) 
35.52

>  <PUBCHEM_SHAPE_FINGERPRINT>  (1) 
10366900 7 17846493729671722448
11132069 177 18409731755129066021
11471102 20 16415479355275630296
11796584 16 18342462504909805766
12236239 1 17603302657076808386
12390115 104 18128267679410106017
12403814 3 17167859747366983549
12500047 106 18342455937018164446
13140716 1 18265339585134569809
13214271 11 18272368697892220119
13538477 17 18040715882938910098
13760787 19 18259700108090868530
13760787 5 15936408966405001478
14386348 63 17846501439396539926
15219456 202 17847062211727734546
15375358 24 18060419110071118462
16945 1 18409451375759275977
18175812 5 17988640834904670124
18186145 218 17632297826704995457
200 152 16298099904266508278
20279233 1 17918279761617932494
20510252 161 18270963423564672905
20645477 56 18412547596023581073
20645477 70 16702028522081887294
21267235 1 18334583481150353371
23175994 123 17060345140779145328
23402539 116 18335979844080430406
23402655 69 16630244710359936144
23557571 272 18271531978323379374
23559900 14 18342745075002398062
2748010 2 18122618616430961493
300161 21 17822001034721913606
474 4 16951702478770453932
5104073 3 18334574685500287704
542803 24 17676491640211413876
573450 72 18260821609945821370
77492 1 17530964704648288618
9709674 26 18201445735445881278

>  <PUBCHEM_SHAPE_MULTIPOLES>  (1) 
335.89
9.91
1.69
0.99
6.18
0.24
-0.01
-1.47
0.17
-2.73
-0.16
0.84
-0.01
0.1

>  <PUBCHEM_SHAPE_SELFOVERLAP>  (1) 
717.345

>  <PUBCHEM_SHAPE_VOLUME>  (1) 
190

>  <PUBCHEM_COORDINATE_TYPE>  (1) 
2
5
10

$$$$
