41892
     RDKit          3D

 16 18  0  0  1  0  0  0  0  0999 V2000
   -1.9764    0.8366    0.1799 O   0  0  0  0  0  0  0  0  0  0  0  0
   -1.4773   -1.9898   -0.0541 O   0  0  0  0  0  0  0  0  0  0  0  0
   -4.5109    1.7229   -0.4568 O   0  0  0  0  0  0  0  0  0  0  0  0
   -2.9791   -0.0978   -0.2420 C   0  0  0  0  0  0  0  0  0  0  0  0
   -2.7219   -1.4525    0.4041 C   0  0  0  0  0  0  0  0  0  0  0  0
   -0.7143    0.3087    0.1045 C   0  0  0  0  0  0  0  0  0  0  0  0
   -0.4731   -1.0581   -0.0196 C   0  0  0  0  0  0  0  0  0  0  0  0
    1.6772    0.7449    0.0767 C   0  0  0  0  0  0  0  0  0  0  0  0
    1.9215   -0.6412   -0.0760 C   0  0  0  0  0  0  0  0  0  0  0  0
   -4.3345    0.4616    0.1647 C   0  0  0  0  0  0  0  0  0  0  0  0
    0.3534    1.2050    0.1679 C   0  0  0  0  0  0  0  0  0  0  0  0
    0.8358   -1.5309   -0.1245 C   0  0  0  0  0  0  0  0  0  0  0  0
    2.7649    1.6317    0.1304 C   0  0  0  0  0  0  0  0  0  0  0  0
    3.2460   -1.0983   -0.1717 C   0  0  0  0  0  0  0  0  0  0  0  0
    4.0742    1.1598    0.0339 C   0  0  0  0  0  0  0  0  0  0  0  0
    4.3143   -0.2026   -0.1173 C   0  0  0  0  0  0  0  0  0  0  0  0
  1  4  1  0
  1  6  1  0
  2  5  1  0
  2  7  1  0
  3 10  1  0
  4  5  1  0
  4 10  1  0
  6  7  2  0
  6 11  1  0
  7 12  1  0
  8  9  1  0
  8 11  2  0
  8 13  1  0
  9 12  2  0
  9 14  1  0
 13 15  2  0
 14 16  2  0
 15 16  1  0
M  END
>  <PUBCHEM_COMPOUND_CID>  (1) 
41892

>  <PUBCHEM_CONFORMER_RMSD>  (1) 
0.6

>  <PUBCHEM_CONFORMER_DIVERSEORDER>  (1) 
1
2
3

>  <PUBCHEM_MMFF94_PARTIAL_CHARGES>  (1) 
21
1 -0.36
10 0.28
11 -0.15
12 -0.15
13 -0.15
14 -0.15
15 -0.15
16 -0.15
2 -0.36
22 0.15
23 0.15
24 0.15
25 0.15
26 0.15
27 0.15
28 0.4
3 -0.68
4 0.28
5 0.28
6 0.08
7 0.08

>  <PUBCHEM_EFFECTIVE_ROTOR_COUNT>  (1) 
1.8

>  <PUBCHEM_PHARMACOPHORE_FEATURES>  (1) 
7
1 1 acceptor
1 2 acceptor
1 3 acceptor
1 3 donor
6 1 2 4 5 6 7 rings
6 6 7 8 9 11 12 rings
6 8 9 13 14 15 16 rings

>  <PUBCHEM_HEAVY_ATOM_COUNT>  (1) 
16

>  <PUBCHEM_ATOM_DEF_STEREO_COUNT>  (1) 
0

>  <PUBCHEM_ATOM_UDEF_STEREO_COUNT>  (1) 
1

>  <PUBCHEM_BOND_DEF_STEREO_COUNT>  (1) 
0

>  <PUBCHEM_BOND_UDEF_STEREO_COUNT>  (1) 
0

>  <PUBCHEM_ISOTOPIC_ATOM_COUNT>  (1) 
0

>  <PUBCHEM_COMPONENT_COUNT>  (1) 
1

>  <PUBCHEM_CACTVS_TAUTO_COUNT>  (1) 
1

>  <PUBCHEM_CONFORMER_ID>  (1) 
0000A3A400000001

>  <PUBCHEM_MMFF94_ENERGY>  (1) 
51.575

>  <PUBCHEM_FEATURE_SELFOVERLAP>  (1) 
35.593

>  <PUBCHEM_SHAPE_FINGERPRINT>  (1) 
10411042 1 17041761985948576135
10608611 8 18339359772467088936
10967382 1 18411702054359734586
11132069 177 18412259566858127088
11401426 45 18273208699153723472
11471102 20 18413669093520308580
11543360 7 15554439738689675913
12500047 106 18340200885929755027
13380535 76 18413390929663053551
13571099 22 18201443571177573734
13675066 3 18261398874697945667
13760787 19 18113339730256151082
13922767 16 18342173371414854432
14325111 11 18411419557043624968
14897335 6 18412824698364881719
14911166 2 18341056229062392542
15196674 1 18411419539900763466
15219456 202 18411141367527141106
15375358 24 18342457036529558390
15442244 35 18268432330743886970
15536298 74 18343585161762132242
16945 1 18341342089100595826
18186145 218 18040710377091640470
200 152 17704351078356842167
20645477 56 18334293188758771317
20645477 70 18201440237866584878
21267235 1 18339371841309567754
21501502 16 18339076115736662710
231179 274 18040710334057454565
23402539 116 18272643545739752220
23402655 69 18272931609170044516
23463225 33 18409730690309401454
23493267 7 18186517730668497851
23559900 14 18342457024425527558
25 1 18409725128094768103
2748010 2 18340210798972893006
296302 2 18413672430430303196
335352 9 18338798910184226486
34934 24 18412256251333408434
3545911 37 18411985775271999208
4214541 1 18410293622940652209
474 4 17024597913442827132
495365 180 17489010643978446368
4990 188 17988929963433981236
5104073 3 18410012164806169114
528886 8 18412541033245007106
53812653 166 18341610447273409048
633830 44 17676206905169844170
6430166 295 18408882927783641505
69090 78 18342172280340375359
7364860 26 18340487742949491086
77779 3 18409169943220626298
8809292 202 18334299802744682746
9709674 26 18340774822483931358

>  <PUBCHEM_SHAPE_MULTIPOLES>  (1) 
311.66
8.2
1.85
0.64
2.22
0.14
0
-2.48
-0.37
0.29
-0.02
0.05
0
0.36

>  <PUBCHEM_SHAPE_SELFOVERLAP>  (1) 
689.738

>  <PUBCHEM_SHAPE_VOLUME>  (1) 
167

>  <PUBCHEM_COORDINATE_TYPE>  (1) 
2
5
10

$$$$
