41907
     RDKit          3D

 25 26  0  0  1  0  0  0  0  0999 V2000
    0.9290    2.5462   -0.9748 O   0  0  0  0  0  0  0  0  0  0  0  0
   -2.0326    2.1401    0.6961 O   0  0  0  0  0  0  0  0  0  0  0  0
   -1.2317    4.7956    0.9295 O   0  0  0  0  0  0  0  0  0  0  0  0
   -3.2187   -3.9997    0.7540 O   0  0  0  0  0  0  0  0  0  0  0  0
   -4.4560   -3.5093   -1.0886 O   0  0  0  0  0  0  0  0  0  0  0  0
    4.2316   -1.8721    0.2098 C   0  0  0  0  0  0  0  0  0  0  0  0
    3.3315   -0.6680   -0.1129 C   0  0  0  0  0  0  0  0  0  0  0  0
    5.1370   -1.6625    1.4448 C   0  0  0  0  0  0  0  0  0  0  0  0
    3.3577   -3.1137    0.4909 C   0  0  0  0  0  0  0  0  0  0  0  0
    5.1581   -2.1645   -0.9903 C   0  0  0  0  0  0  0  0  0  0  0  0
    2.4886   -0.7562   -1.1922 C   0  0  0  0  0  0  0  0  0  0  0  0
    3.4123    0.4398    0.6928 C   0  0  0  0  0  0  0  0  0  0  0  0
    1.7259    1.4804   -0.6892 C   0  0  0  0  0  0  0  0  0  0  0  0
    1.6722    0.3362   -1.4853 C   0  0  0  0  0  0  0  0  0  0  0  0
    2.5959    1.5322    0.3998 C   0  0  0  0  0  0  0  0  0  0  0  0
   -0.8257    4.0119   -0.1949 C   0  0  0  0  0  0  0  0  0  0  0  0
    0.5156    3.3602    0.1216 C   0  0  0  0  0  0  0  0  0  0  0  0
   -1.9043    2.9685   -0.4547 C   0  0  0  0  0  0  0  0  0  0  0  0
   -2.4443    0.8512    0.4841 C   0  0  0  0  0  0  0  0  0  0  0  0
   -3.2795    0.5624   -0.5897 C   0  0  0  0  0  0  0  0  0  0  0  0
   -2.0234   -0.1570    1.3446 C   0  0  0  0  0  0  0  0  0  0  0  0
   -3.2803   -1.7664    0.0535 C   0  0  0  0  0  0  0  0  0  0  0  0
   -3.6988   -0.7503   -0.8057 C   0  0  0  0  0  0  0  0  0  0  0  0
   -2.4426   -1.4698    1.1286 C   0  0  0  0  0  0  0  0  0  0  0  0
   -3.7174   -3.1350   -0.1717 C   0  0  0  0  0  0  0  0  0  0  0  0
  1 13  1  0
  1 17  1  0
  2 18  1  0
  2 19  1  0
  3 16  1  0
  4 25  1  0
  5 25  2  0
  6  7  1  0
  6  8  1  0
  6  9  1  0
  6 10  1  0
  7 11  2  0
  7 12  1  0
 11 14  1  0
 12 15  2  0
 13 14  2  0
 13 15  1  0
 16 17  1  0
 16 18  1  0
 19 20  2  0
 19 21  1  0
 20 23  1  0
 21 24  2  0
 22 23  2  0
 22 24  1  0
 22 25  1  0
M  END
>  <PUBCHEM_COMPOUND_CID>  (1) 
41907

>  <PUBCHEM_CONFORMER_RMSD>  (1) 
1

>  <PUBCHEM_CONFORMER_DIVERSEORDER>  (1) 
1
35
10
6
69
70
63
30
61
25
60
16
2
67
13
36
58
24
40
57
33
18
42
46
19
11
14
32
53
29
74
17
38
21
22
51
8
68
54
43
26
3
12
28
65
31
9
47
41
45
73
23
56
20
66
7
27
72
71
50
4
52
48
5
15
44
55
39
59
49
64
62
34
37

>  <PUBCHEM_MMFF94_PARTIAL_CHARGES>  (1) 
32
1 -0.36
11 -0.15
12 -0.15
13 0.08
14 -0.15
15 -0.15
16 0.28
17 0.28
18 0.28
19 0.08
2 -0.36
20 -0.15
21 -0.15
22 0.09
23 -0.15
24 -0.15
25 0.63
3 -0.68
35 0.15
36 0.15
37 0.15
38 0.15
4 -0.65
44 0.4
45 0.15
46 0.15
47 0.15
48 0.15
49 0.5
5 -0.57
6 0.14
7 -0.14

>  <PUBCHEM_EFFECTIVE_ROTOR_COUNT>  (1) 
8

>  <PUBCHEM_PHARMACOPHORE_FEATURES>  (1) 
10
1 1 acceptor
1 2 acceptor
1 3 acceptor
1 3 donor
1 4 acceptor
1 5 acceptor
3 4 5 25 anion
4 6 8 9 10 hydrophobe
6 19 20 21 22 23 24 rings
6 7 11 12 13 14 15 rings

>  <PUBCHEM_HEAVY_ATOM_COUNT>  (1) 
25

>  <PUBCHEM_ATOM_DEF_STEREO_COUNT>  (1) 
0

>  <PUBCHEM_ATOM_UDEF_STEREO_COUNT>  (1) 
1

>  <PUBCHEM_BOND_DEF_STEREO_COUNT>  (1) 
0

>  <PUBCHEM_BOND_UDEF_STEREO_COUNT>  (1) 
0

>  <PUBCHEM_ISOTOPIC_ATOM_COUNT>  (1) 
0

>  <PUBCHEM_COMPONENT_COUNT>  (1) 
1

>  <PUBCHEM_CACTVS_TAUTO_COUNT>  (1) 
1

>  <PUBCHEM_CONFORMER_ID>  (1) 
0000A3B300000001

>  <PUBCHEM_MMFF94_ENERGY>  (1) 
93.7283

>  <PUBCHEM_FEATURE_SELFOVERLAP>  (1) 
50.809

>  <PUBCHEM_SHAPE_FINGERPRINT>  (1) 
10764073 3 17679901179068145233
10940486 97 18045797697598935372
11014199 57 18410299124614819602
114674 6 17690568906256137205
11513181 2 17475786559617473527
11552529 35 18339642209986004712
12156800 1 16116762790347744157
12293681 25 18049968316716944677
12553582 1 18266199338254478149
12633257 1 18270697367335490049
12990986 174 18409728426714073490
138480 1 15383874256519722765
14100547 121 17832135031257609098
14429380 30 18335138730581256850
14508693 111 18041270020268696674
14659021 117 18336535028579986840
14844126 61 18191305979126953176
14848160 33 18051414264722362335
14863182 85 17615693268069346765
15927050 60 17188972320536240509
16728300 4 17245832542084416699
17492 89 18338236092990338199
19930381 70 18048596216320340443
20621476 51 18338229362976642706
20775530 9 18335987553061618291
21133410 171 17614508853486255283
21133410 52 17479999236188687150
23559900 14 18337664338627649547
23728640 28 18120944893050362713
444735 79 18196068145240309706
463206 1 18262240022779729227
508706 21 18127981797401044822
5265222 85 17184497329806413030
5309563 4 18196655318023393527
56633871 153 18341062860750652891
59682541 52 17837187636029631655
602551 16 18121500146949442304
613672 6 18338781407802299659
6433294 58 17688874563243822291

>  <PUBCHEM_SHAPE_MULTIPOLES>  (1) 
485.14
9.91
5.84
1.26
7.07
2.23
-0.01
-10.83
0.14
-5.55
0.43
0.37
-0.23
-0.67

>  <PUBCHEM_SHAPE_SELFOVERLAP>  (1) 
1022.229

>  <PUBCHEM_SHAPE_VOLUME>  (1) 
274.1

>  <PUBCHEM_COORDINATE_TYPE>  (1) 
2
5
10

$$$$
