41900
     RDKit          3D

 14 15  0  0  1  0  0  0  0  0999 V2000
   -1.8826    0.8719   -0.5325 N   0  0  0  0  0  0  0  0  0  0  0  0
   -1.8115    0.0807    0.6972 C   0  0  0  0  0  0  0  0  0  0  0  0
   -2.0364   -1.4104    0.4108 C   0  0  0  0  0  0  0  0  0  0  0  0
   -0.5206    0.3695    1.4814 C   0  0  0  0  0  0  0  0  0  0  0  0
   -0.9859   -2.1018   -0.4594 C   0  0  0  0  0  0  0  0  0  0  0  0
    0.3923   -2.1868    0.1944 C   0  0  0  0  0  0  0  0  0  0  0  0
    0.7592    0.2871    0.6817 C   0  0  0  0  0  0  0  0  0  0  0  0
    1.1850   -0.9095    0.0772 C   0  0  0  0  0  0  0  0  0  0  0  0
    1.5510    1.4416    0.5479 C   0  0  0  0  0  0  0  0  0  0  0  0
    2.3896   -0.9203   -0.6478 C   0  0  0  0  0  0  0  0  0  0  0  0
   -1.8547    2.2973   -0.2174 C   0  0  0  0  0  0  0  0  0  0  0  0
   -3.0887    0.5318   -1.2820 C   0  0  0  0  0  0  0  0  0  0  0  0
    2.7421    1.4153   -0.1763 C   0  0  0  0  0  0  0  0  0  0  0  0
    3.1612    0.2338   -0.7753 C   0  0  0  0  0  0  0  0  0  0  0  0
  1  2  1  0
  1 11  1  0
  1 12  1  0
  2  3  1  0
  2  4  1  0
  3  5  1  0
  4  7  1  0
  5  6  1  0
  6  8  1  0
  7  8  2  0
  7  9  1  0
  8 10  1  0
  9 13  2  0
 10 14  2  0
 13 14  1  0
M  END
>  <PUBCHEM_COMPOUND_CID>  (1) 
41900

>  <PUBCHEM_CONFORMER_RMSD>  (1) 
0.6

>  <PUBCHEM_CONFORMER_DIVERSEORDER>  (1) 
3
6
7
8
9
10
5
4
11
1
2

>  <PUBCHEM_MMFF94_PARTIAL_CHARGES>  (1) 
16
1 -0.81
10 -0.15
11 0.27
12 0.27
13 -0.15
14 -0.15
2 0.27
24 0.15
25 0.15
32 0.15
33 0.15
4 0.14
6 0.14
7 -0.14
8 -0.14
9 -0.15

>  <PUBCHEM_EFFECTIVE_ROTOR_COUNT>  (1) 
2

>  <PUBCHEM_PHARMACOPHORE_FEATURES>  (1) 
3
1 1 cation
6 7 8 9 10 13 14 rings
7 2 3 4 5 6 7 8 rings

>  <PUBCHEM_HEAVY_ATOM_COUNT>  (1) 
14

>  <PUBCHEM_ATOM_DEF_STEREO_COUNT>  (1) 
0

>  <PUBCHEM_ATOM_UDEF_STEREO_COUNT>  (1) 
1

>  <PUBCHEM_BOND_DEF_STEREO_COUNT>  (1) 
0

>  <PUBCHEM_BOND_UDEF_STEREO_COUNT>  (1) 
0

>  <PUBCHEM_ISOTOPIC_ATOM_COUNT>  (1) 
0

>  <PUBCHEM_COMPONENT_COUNT>  (1) 
1

>  <PUBCHEM_CACTVS_TAUTO_COUNT>  (1) 
1

>  <PUBCHEM_CONFORMER_ID>  (1) 
0000A3AC00000003

>  <PUBCHEM_MMFF94_ENERGY>  (1) 
41.1102

>  <PUBCHEM_FEATURE_SELFOVERLAP>  (1) 
15.23

>  <PUBCHEM_SHAPE_FINGERPRINT>  (1) 
11206711 2 18268718383918403902
12138202 97 18262227919286893606
12491281 212 18114471067285550980
12897270 3 18410291432222520621
13299463 15 18270403909225898338
13764800 53 18040438802125063417
14614273 12 18125159595986498130
14817 1 14902526925054361619
15775835 57 18337122219080828662
16945 1 18411418380048629650
17357779 13 17837758294911220095
17844478 74 18190759710868830683
18186145 218 18343033181049728892
20361792 2 15554441911974854289
21501502 16 18265049129149049923
21947302 44 18189889816787686999
22802520 49 18271245031357834710
23559900 14 18200884990018451502
238 59 17249175057217149821
25 1 18121505652469963105
2748010 2 18053944236223939138
305870 269 17822282488192405954
353137 74 18412545439580675050
5084963 1 18268440185991054066
5255222 1 18199471145795695098
528886 8 18411703149286329448
549884 4 18059563655570219645
63268167 104 18341060635667306506
81228 2 17835241525152427082

>  <PUBCHEM_SHAPE_MULTIPOLES>  (1) 
283.13
4.4
2.31
1.11
0.85
0.31
-0.07
-1.28
1.58
-0.55
0.14
-0.34
-0.13
0.38

>  <PUBCHEM_SHAPE_SELFOVERLAP>  (1) 
587.019

>  <PUBCHEM_SHAPE_VOLUME>  (1) 
161.6

>  <PUBCHEM_COORDINATE_TYPE>  (1) 
2
5
10

$$$$
