41913
     RDKit          3D

 18 20  0  0  0  0  0  0  0  0999 V2000
   -0.4570   -1.1418   -1.0443 O   0  0  0  0  0  0  0  0  0  0  0  0
   -2.6488    0.1728   -0.4675 N   0  0  0  0  0  0  0  0  0  0  0  0
    0.9109    0.5693   -0.2394 N   0  0  0  0  0  0  0  0  0  0  0  0
   -2.5619   -0.5107    0.8306 C   0  0  0  0  0  0  0  0  0  0  0  0
   -3.8567    1.0060   -0.5494 C   0  0  0  0  0  0  0  0  0  0  0  0
   -3.7833   -1.3997    1.0689 C   0  0  0  0  0  0  0  0  0  0  0  0
   -5.1205    0.1664   -0.3564 C   0  0  0  0  0  0  0  0  0  0  0  0
   -5.0789   -0.6037    0.9585 C   0  0  0  0  0  0  0  0  0  0  0  0
   -1.4526    0.9814   -0.7009 C   0  0  0  0  0  0  0  0  0  0  0  0
    1.1136    1.9671    0.1961 C   0  0  0  0  0  0  0  0  0  0  0  0
    2.5862    2.1251    0.5901 C   0  0  0  0  0  0  0  0  0  0  0  0
   -0.2860    0.0221   -0.6812 C   0  0  0  0  0  0  0  0  0  0  0  0
    2.1403   -0.1130   -0.1277 C   0  0  0  0  0  0  0  0  0  0  0  0
    3.1263    0.7537    0.3485 C   0  0  0  0  0  0  0  0  0  0  0  0
    2.4427   -1.4359   -0.4159 C   0  0  0  0  0  0  0  0  0  0  0  0
    4.4295    0.3237    0.5474 C   0  0  0  0  0  0  0  0  0  0  0  0
    3.7546   -1.8780   -0.2177 C   0  0  0  0  0  0  0  0  0  0  0  0
    4.7416   -1.0049    0.2603 C   0  0  0  0  0  0  0  0  0  0  0  0
  1 12  2  0
  2  4  1  0
  2  5  1  0
  2  9  1  0
  3 10  1  0
  3 12  1  0
  3 13  1  0
  4  6  1  0
  5  7  1  0
  6  8  1  0
  7  8  1  0
  9 12  1  0
 10 11  1  0
 11 14  1  0
 13 14  2  0
 13 15  1  0
 14 16  1  0
 15 17  2  0
 16 18  2  0
 17 18  1  0
M  END
>  <PUBCHEM_COMPOUND_CID>  (1) 
41913

>  <PUBCHEM_CONFORMER_RMSD>  (1) 
0.6

>  <PUBCHEM_CONFORMER_DIVERSEORDER>  (1) 
2
18
3
5
7
15
17
4
19
8
6
10
12
9
11
13
22
14
16
21
1
20

>  <PUBCHEM_MMFF94_PARTIAL_CHARGES>  (1) 
19
1 -0.57
10 0.3
11 0.14
12 0.57
13 0.12
14 -0.14
15 -0.15
16 -0.15
17 -0.15
18 -0.15
2 -0.81
3 -0.48
35 0.15
36 0.15
37 0.15
38 0.15
4 0.27
5 0.27
9 0.33

>  <PUBCHEM_EFFECTIVE_ROTOR_COUNT>  (1) 
4.8

>  <PUBCHEM_PHARMACOPHORE_FEATURES>  (1) 
5
1 1 acceptor
1 2 cation
5 3 10 11 13 14 rings
6 13 14 15 16 17 18 rings
6 2 4 5 6 7 8 rings

>  <PUBCHEM_HEAVY_ATOM_COUNT>  (1) 
18

>  <PUBCHEM_ATOM_DEF_STEREO_COUNT>  (1) 
0

>  <PUBCHEM_ATOM_UDEF_STEREO_COUNT>  (1) 
0

>  <PUBCHEM_BOND_DEF_STEREO_COUNT>  (1) 
0

>  <PUBCHEM_BOND_UDEF_STEREO_COUNT>  (1) 
0

>  <PUBCHEM_ISOTOPIC_ATOM_COUNT>  (1) 
0

>  <PUBCHEM_COMPONENT_COUNT>  (1) 
1

>  <PUBCHEM_CACTVS_TAUTO_COUNT>  (1) 
1

>  <PUBCHEM_CONFORMER_ID>  (1) 
0000A3B900000002

>  <PUBCHEM_MMFF94_ENERGY>  (1) 
45.2437

>  <PUBCHEM_FEATURE_SELFOVERLAP>  (1) 
25.458

>  <PUBCHEM_SHAPE_FINGERPRINT>  (1) 
10 15 18337378444804961616
11045977 3 18334858320555429531
11471102 20 18342451539446179692
11552529 35 17914621798418417763
11796584 16 17314215662778373962
12236239 1 16845289445030157013
12251169 10 18272933842563412511
12507560 40 18408039636909667485
12596602 18 16773791536702343107
12916748 109 13542468678747375695
13140716 1 18127679642704955368
13675066 3 18409725175123201973
14252887 29 18060140895333522134
14341114 176 18410581690565613857
14386348 63 18259987067387167219
14790565 3 17616537701958866756
14866123 147 17259345466617013346
15653759 3 18187083957660905389
17804303 29 18186242822870758135
17834074 16 18333450936860376123
1813 80 16805324404884051807
18785283 64 18191301779166440864
19141452 34 18408608093464966363
200 152 18060132137889696781
20279233 1 18334579035922278095
20374829 77 17821727226082543395
20645477 70 18271519819207778326
21033648 29 18271507737565352137
21065198 57 18408604781781157673
21065199 12 18336547213412839401
21065201 7 17530959190158239601
21267235 1 18270966748375450230
21279426 13 18045496413868525479
21682296 61 17986679168833229614
2215653 11 18334006173558773871
22854114 59 18272370879978238279
23184049 59 18202002122715199564
23557571 272 17458337524916929348
23559900 14 18040997358132002645
239999 70 18259705597412331674
26918003 58 18410291410942726785
351380 180 18412260640853184537
42 15 18408042909568946669
4214541 1 18334575711860456965
465052 167 18412832390630521862
5104073 3 18269548343852299240
5924683 9 18270961379677386327
59755656 215 17530960273033570635
602551 16 17167864196430921274
7495541 125 18113338626502134612
9709674 26 18042691778844463539

>  <PUBCHEM_SHAPE_MULTIPOLES>  (1) 
354.6
11.08
1.85
0.96
6.21
0.26
-0.06
-2.71
-2.08
-1.41
-0.15
0.56
-0.1
1.19

>  <PUBCHEM_SHAPE_SELFOVERLAP>  (1) 
753.056

>  <PUBCHEM_SHAPE_VOLUME>  (1) 
199

>  <PUBCHEM_COORDINATE_TYPE>  (1) 
2
5
10

$$$$
