41914
     RDKit          3D

 19 19  0  0  0  0  0  0  0  0999 V2000
   -5.7693    0.5788   -1.2240 Br  0  0  0  0  0  0  0  0  0  0  0  0
   -1.2909   -4.1543    1.7221 Br  0  0  0  0  0  0  0  0  0  0  0  0
   -0.3723    2.6840    0.5703 O   0  0  0  0  0  0  0  0  0  0  0  0
    4.7507   -0.8554   -0.1944 O   0  0  0  0  0  0  0  0  0  0  0  0
    3.2765   -2.0924   -1.2507 O   0  0  0  0  0  0  0  0  0  0  0  0
   -1.9130   -0.3752    0.0602 N   0  0  0  0  0  0  0  0  0  0  0  0
    3.5809   -1.0657   -0.5966 N   0  0  0  0  0  0  0  0  0  0  0  0
   -1.1249    0.3677   -0.9225 C   0  0  0  0  0  0  0  0  0  0  0  0
   -3.2875   -0.5445   -0.4096 C   0  0  0  0  0  0  0  0  0  0  0  0
   -1.3006   -1.6758    0.3288 C   0  0  0  0  0  0  0  0  0  0  0  0
    0.2814    0.6130   -0.4441 C   0  0  0  0  0  0  0  0  0  0  0  0
    0.5850    1.7595    0.2781 C   0  0  0  0  0  0  0  0  0  0  0  0
    1.2624   -0.3251   -0.7381 C   0  0  0  0  0  0  0  0  0  0  0  0
   -3.9203    0.8120   -0.6567 C   0  0  0  0  0  0  0  0  0  0  0  0
   -2.1447   -2.4491    1.3244 C   0  0  0  0  0  0  0  0  0  0  0  0
    2.5702   -0.1127   -0.3020 C   0  0  0  0  0  0  0  0  0  0  0  0
    1.8929    1.9718    0.7142 C   0  0  0  0  0  0  0  0  0  0  0  0
    2.8854    1.0358    0.4241 C   0  0  0  0  0  0  0  0  0  0  0  0
    0.0380    3.8277    1.3168 C   0  0  0  0  0  0  0  0  0  0  0  0
  1 14  1  0
  2 15  1  0
  3 12  1  0
  3 19  1  0
  4  7  1  0
  5  7  2  0
  6  8  1  0
  6  9  1  0
  6 10  1  0
  7 16  1  0
  8 11  1  0
  9 14  1  0
 10 15  1  0
 11 12  2  0
 11 13  1  0
 12 17  1  0
 13 16  2  0
 16 18  1  0
 17 18  2  0
M  CHG  2   4  -1   7   1
M  END
>  <PUBCHEM_COMPOUND_CID>  (1) 
41914

>  <PUBCHEM_CONFORMER_RMSD>  (1) 
0.8

>  <PUBCHEM_CONFORMER_DIVERSEORDER>  (1) 
3
22
7
12
2
9
11
26
14
8
17
24
10
27
20
1
23
6
5
19
25
16
4
13
15
21
18

>  <PUBCHEM_MMFF94_PARTIAL_CHARGES>  (1) 
22
1 -0.23
10 0.27
11 -0.14
12 0.08
13 -0.15
14 0.23
15 0.23
16 0.13
17 -0.15
18 -0.15
19 0.28
2 -0.23
26 0.15
3 -0.36
31 0.15
32 0.15
4 -0.52
5 -0.52
6 -0.81
7 0.91
8 0.41
9 0.27

>  <PUBCHEM_EFFECTIVE_ROTOR_COUNT>  (1) 
8

>  <PUBCHEM_PHARMACOPHORE_FEATURES>  (1) 
8
1 1 hydrophobe
1 2 hydrophobe
1 3 acceptor
1 4 acceptor
1 4 anion
1 5 acceptor
1 6 cation
6 11 12 13 16 17 18 rings

>  <PUBCHEM_HEAVY_ATOM_COUNT>  (1) 
19

>  <PUBCHEM_ATOM_DEF_STEREO_COUNT>  (1) 
0

>  <PUBCHEM_ATOM_UDEF_STEREO_COUNT>  (1) 
0

>  <PUBCHEM_BOND_DEF_STEREO_COUNT>  (1) 
0

>  <PUBCHEM_BOND_UDEF_STEREO_COUNT>  (1) 
0

>  <PUBCHEM_ISOTOPIC_ATOM_COUNT>  (1) 
0

>  <PUBCHEM_COMPONENT_COUNT>  (1) 
1

>  <PUBCHEM_CACTVS_TAUTO_COUNT>  (1) 
1

>  <PUBCHEM_CONFORMER_ID>  (1) 
0000A3BA00000003

>  <PUBCHEM_MMFF94_ENERGY>  (1) 
61.4065

>  <PUBCHEM_FEATURE_SELFOVERLAP>  (1) 
40.676

>  <PUBCHEM_SHAPE_FINGERPRINT>  (1) 
10906281 52 18200330852246099700
116883 192 18201159836853334996
12500047 106 18187924040442515063
12507560 18 18409444761362057681
12553582 1 18198646404985458534
12788726 201 18269273461360217672
13134695 92 18059847394190407037
13544592 145 18334853918113542719
14115302 16 18186810174928320398
14223421 5 17760652868369105195
14648413 74 18051967310275821473
14866123 147 17693948392640888331
15279308 132 18333447638578635399
15848700 24 18201148884449282028
16752209 62 18190737535915712377
18186145 218 18261939804944949309
19049666 15 18265334095791728027
20600515 1 18335432256829628668
20642791 13 18128817439370910604
20645477 70 18131349717422575614
20832881 197 18339918208810581431
21029758 11 18343017770411918693
221357 26 18270386219147728357
23402539 116 17845648149838908853
23526113 38 18340477971776956449
23558518 356 17909281178020082044
23559900 14 18408322216135955028
2748010 2 18269840985358766022
3084891 72 18337389331713671619
3250762 1 17976821205391970225
59755656 215 18187356581601498119
621550 34 17330279879794602571
633830 44 18337936953624782445
7399639 24 17258496077020893153
81228 2 18126864710904145520
8809292 202 18408888438242467622
9709674 26 18121496014795641431
9981440 41 17121949871330672161

>  <PUBCHEM_SHAPE_MULTIPOLES>  (1) 
375.33
8.01
4.2
1.36
4.86
2.24
0.25
-0.06
-3.73
0.86
3.25
0.23
0.31
2.56

>  <PUBCHEM_SHAPE_SELFOVERLAP>  (1) 
732.64

>  <PUBCHEM_SHAPE_VOLUME>  (1) 
233.7

>  <PUBCHEM_COORDINATE_TYPE>  (1) 
2
5
10

$$$$
