41915
     RDKit          3D

 16 16  0  0  0  0  0  0  0  0999 V2000
    6.0250   -1.5309   -0.2183 Cl  0  0  0  0  0  0  0  0  0  0  0  0
    0.5115    2.5777    0.3967 O   0  0  0  0  0  0  0  0  0  0  0  0
   -4.4849   -1.0874   -0.5533 O   0  0  0  0  0  0  0  0  0  0  0  0
   -3.0239   -2.5984    0.0949 O   0  0  0  0  0  0  0  0  0  0  0  0
    2.1597   -0.4308   -0.1114 N   0  0  0  0  0  0  0  0  0  0  0  0
   -3.3370   -1.4124   -0.1667 N   0  0  0  0  0  0  0  0  0  0  0  0
    1.2707   -0.1082    1.0051 C   0  0  0  0  0  0  0  0  0  0  0  0
   -0.1011    0.2651    0.5485 C   0  0  0  0  0  0  0  0  0  0  0  0
   -0.4204    1.5927    0.2638 C   0  0  0  0  0  0  0  0  0  0  0  0
   -1.0675   -0.7307    0.4064 C   0  0  0  0  0  0  0  0  0  0  0  0
    3.4865   -0.7789    0.3718 C   0  0  0  0  0  0  0  0  0  0  0  0
   -2.3534   -0.3988   -0.0203 C   0  0  0  0  0  0  0  0  0  0  0  0
   -1.7063    1.9246   -0.1627 C   0  0  0  0  0  0  0  0  0  0  0  0
   -2.6727    0.9289   -0.3048 C   0  0  0  0  0  0  0  0  0  0  0  0
    4.4037   -1.0850   -0.8021 C   0  0  0  0  0  0  0  0  0  0  0  0
    1.3100    2.8727   -0.7475 C   0  0  0  0  0  0  0  0  0  0  0  0
  1 15  1  0
  2  9  1  0
  2 16  1  0
  3  6  1  0
  4  6  2  0
  5  7  1  0
  5 11  1  0
  6 12  1  0
  7  8  1  0
  8  9  2  0
  8 10  1  0
  9 13  1  0
 10 12  2  0
 11 15  1  0
 12 14  1  0
 13 14  2  0
M  CHG  2   3  -1   6   1
M  END
>  <PUBCHEM_COMPOUND_CID>  (1) 
41915

>  <PUBCHEM_CONFORMER_RMSD>  (1) 
0.8

>  <PUBCHEM_CONFORMER_DIVERSEORDER>  (1) 
1
17
7
19
9
12
13
5
10
11
4
16
18
8
2
6
14
3
15

>  <PUBCHEM_MMFF94_PARTIAL_CHARGES>  (1) 
20
1 -0.29
10 -0.15
11 0.27
12 0.13
13 -0.15
14 -0.15
15 0.29
16 0.28
19 0.36
2 -0.36
20 0.15
23 0.15
24 0.15
3 -0.52
4 -0.52
5 -0.9
6 0.91
7 0.41
8 -0.14
9 0.08

>  <PUBCHEM_EFFECTIVE_ROTOR_COUNT>  (1) 
6

>  <PUBCHEM_PHARMACOPHORE_FEATURES>  (1) 
7
1 2 acceptor
1 3 acceptor
1 3 anion
1 4 acceptor
1 5 cation
1 5 donor
6 8 9 10 12 13 14 rings

>  <PUBCHEM_HEAVY_ATOM_COUNT>  (1) 
16

>  <PUBCHEM_ATOM_DEF_STEREO_COUNT>  (1) 
0

>  <PUBCHEM_ATOM_UDEF_STEREO_COUNT>  (1) 
0

>  <PUBCHEM_BOND_DEF_STEREO_COUNT>  (1) 
0

>  <PUBCHEM_BOND_UDEF_STEREO_COUNT>  (1) 
0

>  <PUBCHEM_ISOTOPIC_ATOM_COUNT>  (1) 
0

>  <PUBCHEM_COMPONENT_COUNT>  (1) 
1

>  <PUBCHEM_CACTVS_TAUTO_COUNT>  (1) 
1

>  <PUBCHEM_CONFORMER_ID>  (1) 
0000A3BB00000001

>  <PUBCHEM_MMFF94_ENERGY>  (1) 
45.5455

>  <PUBCHEM_FEATURE_SELFOVERLAP>  (1) 
35.6

>  <PUBCHEM_SHAPE_FINGERPRINT>  (1) 
10465860 71 18407759231258279816
10756046 5 18261674860812531917
10989021 7 18410292553182728064
12553582 1 18335412465794525315
12841375 25 18411418422966484995
14790565 3 17691128132289056769
16945 1 18262500512846567361
200 152 17967820410176339978
20300324 65 18336552603981651200
20374829 77 18413385415146598066
20388580 30 18339081596104311604
20645477 70 18120641690277180567
20671657 53 18409452513488006604
20871998 22 18340763861758637785
20871999 31 18262231123496072245
21339142 51 18337668616182980956
21501502 16 18339368577588097001
21728266 224 18190166907288948370
221490 88 18118690047856769290
22213442 358 18411418418872107728
23402539 116 18336826386571941902
23557571 272 18272092635075358190
23559900 14 18341040814851976688
2748010 2 18190723418896313009
3071541 250 18337675333622737985
335352 9 18410854335675087589
7364860 26 18197211666438507904

>  <PUBCHEM_SHAPE_MULTIPOLES>  (1) 
303.57
9.02
2.77
0.82
12.4
1.41
0.03
-7.62
-2.15
-1.3
-0.37
0.27
0.07
-0.05

>  <PUBCHEM_SHAPE_SELFOVERLAP>  (1) 
607.239

>  <PUBCHEM_SHAPE_VOLUME>  (1) 
181.2

>  <PUBCHEM_COORDINATE_TYPE>  (1) 
2
5
10

$$$$
