41912
     RDKit          3D

 20 23  0  0  1  0  0  0  0  0999 V2000
   -2.7035   -2.6920   -0.5644 O   0  0  0  0  0  0  0  0  0  0  0  0
   -3.8319   -1.8908    1.2469 O   0  0  0  0  0  0  0  0  0  0  0  0
    0.1327    0.4921   -0.0487 C   0  0  0  0  0  0  0  0  0  0  0  0
   -2.2249   -0.4877    0.1030 C   0  0  0  0  0  0  0  0  0  0  0  0
   -1.8123    1.8548    0.9168 C   0  0  0  0  0  0  0  0  0  0  0  0
   -1.7469    1.3606   -1.5455 C   0  0  0  0  0  0  0  0  0  0  0  0
   -0.7159   -0.7893    0.2047 C   0  0  0  0  0  0  0  0  0  0  0  0
   -0.3076    1.5499    1.0103 C   0  0  0  0  0  0  0  0  0  0  0  0
   -0.2408    1.0624   -1.4490 C   0  0  0  0  0  0  0  0  0  0  0  0
   -2.6061    0.5632    1.1587 C   0  0  0  0  0  0  0  0  0  0  0  0
   -2.5374    0.0651   -1.3004 C   0  0  0  0  0  0  0  0  0  0  0  0
   -2.1316    2.3987   -0.4825 C   0  0  0  0  0  0  0  0  0  0  0  0
    1.6306    0.1513    0.0000 C   0  0  0  0  0  0  0  0  0  0  0  0
   -3.0170   -1.7405    0.3487 C   0  0  0  0  0  0  0  0  0  0  0  0
    2.4574    0.7736    0.9353 C   0  0  0  0  0  0  0  0  0  0  0  0
    2.1633   -0.7804   -0.8910 C   0  0  0  0  0  0  0  0  0  0  0  0
    3.8169    0.4644    0.9795 C   0  0  0  0  0  0  0  0  0  0  0  0
    3.5227   -1.0898   -0.8467 C   0  0  0  0  0  0  0  0  0  0  0  0
    4.3496   -0.4673    0.0885 C   0  0  0  0  0  0  0  0  0  0  0  0
    5.8029   -0.7984    0.1360 C   0  0  0  0  0  0  0  0  0  0  0  0
  1 14  1  0
  2 14  2  0
  3  7  1  0
  3  8  1  0
  3  9  1  0
  3 13  1  0
  4  7  1  0
  4 10  1  0
  4 11  1  0
  4 14  1  0
  5  8  1  0
  5 10  1  0
  5 12  1  0
  6  9  1  0
  6 11  1  0
  6 12  1  0
 13 15  2  0
 13 16  1  0
 15 17  1  0
 16 18  2  0
 17 19  2  0
 18 19  1  0
 19 20  1  0
M  END
>  <PUBCHEM_COMPOUND_CID>  (1) 
41912

>  <PUBCHEM_CONFORMER_RMSD>  (1) 
0.6

>  <PUBCHEM_CONFORMER_DIVERSEORDER>  (1) 
1
2
3

>  <PUBCHEM_MMFF94_PARTIAL_CHARGES>  (1) 
17
1 -0.65
13 -0.14
14 0.66
15 -0.15
16 -0.15
17 -0.15
18 -0.15
19 -0.14
2 -0.57
20 0.14
3 0.14
35 0.15
36 0.15
37 0.5
38 0.15
39 0.15
4 0.06

>  <PUBCHEM_EFFECTIVE_ROTOR_COUNT>  (1) 
3.2

>  <PUBCHEM_PHARMACOPHORE_FEATURES>  (1) 
8
1 1 acceptor
1 2 acceptor
3 1 2 14 anion
6 13 15 16 17 18 19 rings
6 3 4 5 7 8 10 rings
6 3 4 6 7 9 11 rings
6 3 5 6 8 9 12 rings
6 4 5 6 10 11 12 rings

>  <PUBCHEM_HEAVY_ATOM_COUNT>  (1) 
20

>  <PUBCHEM_ATOM_DEF_STEREO_COUNT>  (1) 
0

>  <PUBCHEM_ATOM_UDEF_STEREO_COUNT>  (1) 
2

>  <PUBCHEM_BOND_DEF_STEREO_COUNT>  (1) 
0

>  <PUBCHEM_BOND_UDEF_STEREO_COUNT>  (1) 
0

>  <PUBCHEM_ISOTOPIC_ATOM_COUNT>  (1) 
0

>  <PUBCHEM_COMPONENT_COUNT>  (1) 
1

>  <PUBCHEM_CACTVS_TAUTO_COUNT>  (1) 
1

>  <PUBCHEM_CONFORMER_ID>  (1) 
0000A3B800000001

>  <PUBCHEM_MMFF94_ENERGY>  (1) 
65.2709

>  <PUBCHEM_FEATURE_SELFOVERLAP>  (1) 
53.114

>  <PUBCHEM_SHAPE_FINGERPRINT>  (1) 
10366900 7 17917700276177331144
10680689 15 17968381152463700116
10948715 1 17557428678561857609
11046707 91 18260830414507419626
11315181 36 18260828181809961600
11552529 35 16916500500993743822
11578080 2 18042112314568391773
121448 382 17676203572322877714
12173636 292 18122345666469026693
12236239 1 16370725894519079556
12500047 106 18265046929888677420
12633257 1 17631745966088445075
12714826 92 18259980500693342947
12916754 54 18187649128344631292
12969540 37 17331389286742620343
13024252 1 14057010382124745733
13214271 11 17917992746080649296
13224815 77 18060134345518945052
13288520 33 18113337501104710378
13296908 3 18202280290941586446
13544653 18 18267865162810898895
13583140 156 17846775179142509704
13675066 3 17275101709462442034
14178342 30 18337680702463473370
14223421 5 18272365412490333784
14289901 80 17560791131074046854
15099037 37 18409165519694507326
15653759 3 18343304751815965920
15788980 27 17240766134601678146
16752209 62 17603852429912589635
16945 1 18261391114082678645
17357779 13 18267002029314481975
1813 80 18041570255371976359
18927931 339 17988645156137772222
19141452 34 18200598111361394151
19862831 5 15791726412642753366
200 152 17131253706210842932
21452121 199 17901101133731968589
2306618 200 18261108522003170277
23402539 116 16877943811431766622
23419403 2 18049978272477341413
23493267 7 18267856203651499088
23557571 272 18334575737223754116
23559900 14 18340194267807522024
26918003 58 18272649035013801074
312423 11 17822306707523362220
4921388 177 18261112933029067488
5104073 3 18202278070897351418
59755656 520 18118960300505980701
633830 44 12463568487645899776
7970288 3 17896609559718785003
9709674 26 18059294245510130190

>  <PUBCHEM_SHAPE_MULTIPOLES>  (1) 
399.85
8.2
2.15
1.35
11.61
0.45
0.19
3.32
-1.06
-2.63
-0.08
-0.61
-0.28
0.84

>  <PUBCHEM_SHAPE_SELFOVERLAP>  (1) 
886.33

>  <PUBCHEM_SHAPE_VOLUME>  (1) 
207.9

>  <PUBCHEM_COORDINATE_TYPE>  (1) 
2
5
10

$$$$
