41911
     RDKit          3D

 21 24  0  0  1  0  0  0  0  0999 V2000
   -2.7077   -2.8275   -0.1585 O   0  0  0  0  0  0  0  0  0  0  0  0
   -3.9667   -1.8273    1.4571 O   0  0  0  0  0  0  0  0  0  0  0  0
   -0.0992    0.5835   -0.0613 C   0  0  0  0  0  0  0  0  0  0  0  0
   -2.3968   -0.5177    0.1608 C   0  0  0  0  0  0  0  0  0  0  0  0
   -2.1672    1.9468    0.5998 C   0  0  0  0  0  0  0  0  0  0  0  0
   -1.9564    1.0733   -1.7463 C   0  0  0  0  0  0  0  0  0  0  0  0
   -0.8786   -0.6961    0.3648 C   0  0  0  0  0  0  0  0  0  0  0  0
   -0.6526    1.7637    0.7960 C   0  0  0  0  0  0  0  0  0  0  0  0
   -0.4410    0.8973   -1.5481 C   0  0  0  0  0  0  0  0  0  0  0  0
   -2.8907    0.6591    1.0182 C   0  0  0  0  0  0  0  0  0  0  0  0
   -2.6765   -0.2175   -1.3240 C   0  0  0  0  0  0  0  0  0  0  0  0
   -2.4533    2.2385   -0.8797 C   0  0  0  0  0  0  0  0  0  0  0  0
    1.4128    0.3574    0.0963 C   0  0  0  0  0  0  0  0  0  0  0  0
   -3.1213   -1.7666    0.5768 C   0  0  0  0  0  0  0  0  0  0  0  0
    2.0429   -0.6651   -0.6132 C   0  0  0  0  0  0  0  0  0  0  0  0
    2.1554    1.1751    0.9482 C   0  0  0  0  0  0  0  0  0  0  0  0
    3.4153   -0.8698   -0.4709 C   0  0  0  0  0  0  0  0  0  0  0  0
    3.5278    0.9702    1.0907 C   0  0  0  0  0  0  0  0  0  0  0  0
    4.1578   -0.0522    0.3811 C   0  0  0  0  0  0  0  0  0  0  0  0
    4.0680   -1.9720   -1.2388 C   0  0  0  0  0  0  0  0  0  0  0  0
    5.6280   -0.2530    0.5510 C   0  0  0  0  0  0  0  0  0  0  0  0
  1 14  1  0
  2 14  2  0
  3  7  1  0
  3  8  1  0
  3  9  1  0
  3 13  1  0
  4  7  1  0
  4 10  1  0
  4 11  1  0
  4 14  1  0
  5  8  1  0
  5 10  1  0
  5 12  1  0
  6  9  1  0
  6 11  1  0
  6 12  1  0
 13 15  2  0
 13 16  1  0
 15 17  1  0
 16 18  2  0
 17 19  2  0
 17 20  1  0
 18 19  1  0
 19 21  1  0
M  END
>  <PUBCHEM_COMPOUND_CID>  (1) 
41911

>  <PUBCHEM_CONFORMER_RMSD>  (1) 
0.6

>  <PUBCHEM_CONFORMER_DIVERSEORDER>  (1) 
1
5
6
2
3
4

>  <PUBCHEM_MMFF94_PARTIAL_CHARGES>  (1) 
17
1 -0.65
13 -0.14
14 0.66
15 -0.15
16 -0.15
17 -0.14
18 -0.15
19 -0.14
2 -0.57
20 0.14
21 0.14
3 0.14
36 0.15
37 0.15
38 0.5
39 0.15
4 0.06

>  <PUBCHEM_EFFECTIVE_ROTOR_COUNT>  (1) 
3.2

>  <PUBCHEM_PHARMACOPHORE_FEATURES>  (1) 
8
1 1 acceptor
1 2 acceptor
3 1 2 14 anion
6 13 15 16 17 18 19 rings
6 3 4 5 7 8 10 rings
6 3 4 6 7 9 11 rings
6 3 5 6 8 9 12 rings
6 4 5 6 10 11 12 rings

>  <PUBCHEM_HEAVY_ATOM_COUNT>  (1) 
21

>  <PUBCHEM_ATOM_DEF_STEREO_COUNT>  (1) 
0

>  <PUBCHEM_ATOM_UDEF_STEREO_COUNT>  (1) 
2

>  <PUBCHEM_BOND_DEF_STEREO_COUNT>  (1) 
0

>  <PUBCHEM_BOND_UDEF_STEREO_COUNT>  (1) 
0

>  <PUBCHEM_ISOTOPIC_ATOM_COUNT>  (1) 
0

>  <PUBCHEM_COMPONENT_COUNT>  (1) 
1

>  <PUBCHEM_CACTVS_TAUTO_COUNT>  (1) 
1

>  <PUBCHEM_CONFORMER_ID>  (1) 
0000A3B700000001

>  <PUBCHEM_MMFF94_ENERGY>  (1) 
69.2244

>  <PUBCHEM_FEATURE_SELFOVERLAP>  (1) 
53.114

>  <PUBCHEM_SHAPE_FINGERPRINT>  (1) 
10366900 7 18131339826439888016
11315181 36 18113894958243359672
11370993 144 17987810613315439042
11552529 35 17130986636570715639
11578080 2 17386835278756458285
121448 382 17603301548970160242
12173636 292 18119809106097169253
12236239 1 15719388404569452420
12403814 3 17131832079692283561
12500047 106 18262791844293141956
12592029 89 16629681721957440637
12633257 1 17845386581624087251
12714826 92 18114178657469609211
12916754 54 18040715904698810516
13024252 1 13479138956508387229
13224815 77 18407759235880197350
13296908 3 18202562848244781078
13544653 18 18266458891871071251
13583140 156 17917989469105031112
14178342 30 18262237724992609994
14223421 5 18343299305613000072
14289901 80 17703497861844952592
15099037 37 18334007320003798714
15309172 13 16271927116620588956
15653759 3 18413674599668434104
16752209 62 17095792304631513611
16945 1 18114175316191080141
17357779 13 18192693747885850103
1813 80 17822582719238323199
18186145 218 18336548197213297740
19141452 34 18270405013729403779
193927 3 17969801828550090579
200 152 17274243002964561501
20645477 70 17488454179647142942
20775530 9 17831582350513736755
221490 88 18273218578216879150
23402539 116 16370722604843143140
23419403 2 17684619393357309141
23557571 272 18261105287924250044
23559900 14 18411693301322185824
26918003 58 18342452638746739576
312423 11 17458920317750866740
4921388 177 18187365393803458356
5104073 3 18272929385194527026
6049 1 18413389834757486444
77492 1 15719389504154972196
7970288 3 17604720008980455339
9709674 26 18272647914148786070

>  <PUBCHEM_SHAPE_MULTIPOLES>  (1) 
420.43
8.63
2.28
1.42
10.09
0.75
0.35
2.88
-1.3
-1.93
-0.13
-0.64
-0.11
1.63

>  <PUBCHEM_SHAPE_SELFOVERLAP>  (1) 
929.5

>  <PUBCHEM_SHAPE_VOLUME>  (1) 
220.3

>  <PUBCHEM_COORDINATE_TYPE>  (1) 
2
5
10

$$$$
