41929
     RDKit          3D

 20 22  0  0  0  0  0  0  0  0999 V2000
    1.4087   -3.4901   -0.0497 Cl  0  0  0  0  0  0  0  0  0  0  0  0
   -0.4635    2.6218   -0.1064 O   0  0  0  0  0  0  0  0  0  0  0  0
   -1.2201   -2.6632    0.0489 O   0  0  0  0  0  0  0  0  0  0  0  0
    4.8580    0.8652    1.0361 O   0  0  0  0  0  0  0  0  0  0  0  0
    2.1184    2.3995   -0.2190 N   0  0  0  0  0  0  0  0  0  0  0  0
    0.5659    0.4852   -0.1046 C   0  0  0  0  0  0  0  0  0  0  0  0
    0.3731   -0.8972   -0.0636 C   0  0  0  0  0  0  0  0  0  0  0  0
    1.8628    1.0076   -0.1753 C   0  0  0  0  0  0  0  0  0  0  0  0
   -1.9532    0.8396    0.0017 C   0  0  0  0  0  0  0  0  0  0  0  0
   -2.1460   -0.5429    0.0424 C   0  0  0  0  0  0  0  0  0  0  0  0
   -0.5903    1.4042   -0.0735 C   0  0  0  0  0  0  0  0  0  0  0  0
   -0.9899   -1.4618    0.0112 C   0  0  0  0  0  0  0  0  0  0  0  0
    2.9605    0.1468   -0.2049 C   0  0  0  0  0  0  0  0  0  0  0  0
    1.4772   -1.7574   -0.0934 C   0  0  0  0  0  0  0  0  0  0  0  0
    2.7681   -1.2327   -0.1639 C   0  0  0  0  0  0  0  0  0  0  0  0
   -3.0574    1.6997    0.0325 C   0  0  0  0  0  0  0  0  0  0  0  0
   -3.4431   -1.0653    0.1133 C   0  0  0  0  0  0  0  0  0  0  0  0
    4.3593    0.6700   -0.2802 C   0  0  0  0  0  0  0  0  0  0  0  0
   -4.3481    1.1752    0.1043 C   0  0  0  0  0  0  0  0  0  0  0  0
   -4.5405   -0.2043    0.1441 C   0  0  0  0  0  0  0  0  0  0  0  0
  1 14  1  0
  2 11  2  0
  3 12  2  0
  4 18  1  0
  5  8  1  0
  6  7  1  0
  6  8  2  0
  6 11  1  0
  7 12  1  0
  7 14  2  0
  8 13  1  0
  9 10  2  0
  9 11  1  0
  9 16  1  0
 10 12  1  0
 10 17  1  0
 13 15  2  0
 13 18  1  0
 14 15  1  0
 16 19  2  0
 17 20  2  0
 19 20  1  0
M  END
>  <PUBCHEM_COMPOUND_CID>  (1) 
41929

>  <PUBCHEM_CONFORMER_RMSD>  (1) 
0.6

>  <PUBCHEM_CONFORMER_DIVERSEORDER>  (1) 
1

>  <PUBCHEM_MMFF94_PARTIAL_CHARGES>  (1) 
28
1 -0.18
10 0.09
11 0.4
12 0.4
13 -0.14
14 0.18
15 -0.15
16 -0.15
17 -0.15
18 0.42
19 -0.15
2 -0.57
20 -0.15
21 0.15
22 0.15
23 0.15
26 0.4
27 0.4
28 0.15
29 0.15
3 -0.57
30 0.4
4 -0.68
5 -0.9
6 0.09
7 0.09
8 0.1
9 0.09

>  <PUBCHEM_EFFECTIVE_ROTOR_COUNT>  (1) 
1

>  <PUBCHEM_PHARMACOPHORE_FEATURES>  (1) 
9
1 2 acceptor
1 3 acceptor
1 4 acceptor
1 4 donor
1 5 cation
1 5 donor
6 6 7 8 13 14 15 rings
6 6 7 9 10 11 12 rings
6 9 10 16 17 19 20 rings

>  <PUBCHEM_HEAVY_ATOM_COUNT>  (1) 
20

>  <PUBCHEM_ATOM_DEF_STEREO_COUNT>  (1) 
0

>  <PUBCHEM_ATOM_UDEF_STEREO_COUNT>  (1) 
0

>  <PUBCHEM_BOND_DEF_STEREO_COUNT>  (1) 
0

>  <PUBCHEM_BOND_UDEF_STEREO_COUNT>  (1) 
0

>  <PUBCHEM_ISOTOPIC_ATOM_COUNT>  (1) 
0

>  <PUBCHEM_COMPONENT_COUNT>  (1) 
1

>  <PUBCHEM_CACTVS_TAUTO_COUNT>  (1) 
3

>  <PUBCHEM_CONFORMER_ID>  (1) 
0000A3C900000001

>  <PUBCHEM_MMFF94_ENERGY>  (1) 
79.4624

>  <PUBCHEM_FEATURE_SELFOVERLAP>  (1) 
45.713

>  <PUBCHEM_SHAPE_FINGERPRINT>  (1) 
10411042 1 17545603349195454847
10608611 8 18336828593937186181
10616163 171 18338240469814856623
10967382 1 18410295765833959855
10980938 120 18408889499015143058
1100329 8 18267304420354545360
11132069 177 18410575088979327128
11471102 20 18410291380682802839
11680986 33 18336558109396949938
12011746 2 18410859845405906924
12236239 1 17748827449636116068
12403814 3 17530960297974952645
12592029 89 18408610257384445066
12839892 36 18337655456814876826
13140716 1 18193838364806221512
13221675 6 18410294709224428359
13380535 76 18408887347241906474
138480 1 17906172854311674486
14223421 5 18193275195819965463
14787075 74 17988072421610774368
14790565 3 18337120076267474044
15196674 1 18410576149920593327
15442244 35 18051133584029790627
15536298 74 18342460292172862502
16945 1 18410017623746511734
1813 80 16806161044136000754
19591789 44 18338802328714514591
19784866 170 18409169904761034562
200 152 18131063845027120325
20028762 73 18056763367159303815
20510252 161 18272090457094838481
20739085 24 17976569137993545065
20905425 154 18196938764252988742
21267235 1 18338247036845985623
21421861 104 17898005737611079954
221490 88 18264781956144922723
22182313 1 18043806485618140069
2334 1 17978232982321654718
23366157 5 17897453796076023618
23402539 116 18342449378613302447
23463225 33 18337112276463601517
23559900 14 18268146462021050046
2748010 2 18194127545038754446
335352 9 18266180530513496622
33824 294 18409731720674596451
34934 24 18411694370700282303
350125 39 18193844966318706721
352729 6 18265343991117075823
43471831 8 18336263457771772570
4409770 3 15951602752227147062
5104073 3 18338238154827153691
57005193 9 18409724071279495215
58051976 378 18412261714289281053
58807428 26 18337377314869782106
69090 78 18412261752933261559
7364860 26 18268712710367137798
9709674 26 18410582781461335903

>  <PUBCHEM_SHAPE_MULTIPOLES>  (1) 
390.87
7.75
3
0.66
0.65
1.5
0.04
-2.29
0.8
-0.94
-0.06
-0.22
-0.03
0.17

>  <PUBCHEM_SHAPE_SELFOVERLAP>  (1) 
871.075

>  <PUBCHEM_SHAPE_VOLUME>  (1) 
208.3

>  <PUBCHEM_COORDINATE_TYPE>  (1) 
2
5
10

$$$$
