41933
     RDKit          3D

 21 23  0  0  0  0  0  0  0  0999 V2000
    4.4104   -0.0976   -0.4352 O   0  0  0  0  0  0  0  0  0  0  0  0
   -0.7709   -2.4032    0.3197 O   0  0  0  0  0  0  0  0  0  0  0  0
   -2.0301    2.7625   -0.2143 O   0  0  0  0  0  0  0  0  0  0  0  0
    1.7479   -1.8784    0.6519 N   0  0  0  0  0  0  0  0  0  0  0  0
    0.0113   -0.1646    0.2829 C   0  0  0  0  0  0  0  0  0  0  0  0
   -0.3286    1.1826    0.1425 C   0  0  0  0  0  0  0  0  0  0  0  0
    1.3449   -0.5291    0.5029 C   0  0  0  0  0  0  0  0  0  0  0  0
    2.3322    0.4535    0.5818 C   0  0  0  0  0  0  0  0  0  0  0  0
   -2.4306   -0.8132   -0.0325 C   0  0  0  0  0  0  0  0  0  0  0  0
   -2.7703    0.5338   -0.1734 C   0  0  0  0  0  0  0  0  0  0  0  0
   -1.0275   -1.2116    0.2011 C   0  0  0  0  0  0  0  0  0  0  0  0
   -1.7317    1.5811   -0.0905 C   0  0  0  0  0  0  0  0  0  0  0  0
    0.6654    2.1653    0.2223 C   0  0  0  0  0  0  0  0  0  0  0  0
    1.9932    1.7978    0.4419 C   0  0  0  0  0  0  0  0  0  0  0  0
    3.7666    0.1014    0.8159 C   0  0  0  0  0  0  0  0  0  0  0  0
   -3.4245   -1.7961   -0.1128 C   0  0  0  0  0  0  0  0  0  0  0  0
   -4.1039    0.8982   -0.3947 C   0  0  0  0  0  0  0  0  0  0  0  0
   -4.7522   -1.4287   -0.3336 C   0  0  0  0  0  0  0  0  0  0  0  0
   -5.0911   -0.0844   -0.4743 C   0  0  0  0  0  0  0  0  0  0  0  0
    5.7809   -0.4356   -0.2691 C   0  0  0  0  0  0  0  0  0  0  0  0
    6.4085   -0.6339   -1.6323 C   0  0  0  0  0  0  0  0  0  0  0  0
  1 15  1  0
  1 20  1  0
  2 11  2  0
  3 12  2  0
  4  7  1  0
  5  6  1  0
  5  7  2  0
  5 11  1  0
  6 12  1  0
  6 13  2  0
  7  8  1  0
  8 14  2  0
  8 15  1  0
  9 10  2  0
  9 11  1  0
  9 16  1  0
 10 12  1  0
 10 17  1  0
 13 14  1  0
 16 18  2  0
 17 19  2  0
 18 19  1  0
 20 21  1  0
M  END
>  <PUBCHEM_COMPOUND_CID>  (1) 
41933

>  <PUBCHEM_CONFORMER_RMSD>  (1) 
0.6

>  <PUBCHEM_CONFORMER_DIVERSEORDER>  (1) 
1
6
3
5
8
7
4
2

>  <PUBCHEM_MMFF94_PARTIAL_CHARGES>  (1) 
28
1 -0.56
10 0.09
11 0.4
12 0.4
13 -0.15
14 -0.15
15 0.42
16 -0.15
17 -0.15
18 -0.15
19 -0.15
2 -0.57
20 0.28
22 0.15
23 0.15
26 0.15
27 0.15
28 0.4
29 0.4
3 -0.57
30 0.15
31 0.15
4 -0.9
5 0.09
6 0.09
7 0.1
8 -0.14
9 0.09

>  <PUBCHEM_EFFECTIVE_ROTOR_COUNT>  (1) 
3

>  <PUBCHEM_PHARMACOPHORE_FEATURES>  (1) 
8
1 1 acceptor
1 2 acceptor
1 3 acceptor
1 4 cation
1 4 donor
6 5 6 7 8 13 14 rings
6 5 6 9 10 11 12 rings
6 9 10 16 17 18 19 rings

>  <PUBCHEM_HEAVY_ATOM_COUNT>  (1) 
21

>  <PUBCHEM_ATOM_DEF_STEREO_COUNT>  (1) 
0

>  <PUBCHEM_ATOM_UDEF_STEREO_COUNT>  (1) 
0

>  <PUBCHEM_BOND_DEF_STEREO_COUNT>  (1) 
0

>  <PUBCHEM_BOND_UDEF_STEREO_COUNT>  (1) 
0

>  <PUBCHEM_ISOTOPIC_ATOM_COUNT>  (1) 
0

>  <PUBCHEM_COMPONENT_COUNT>  (1) 
1

>  <PUBCHEM_CACTVS_TAUTO_COUNT>  (1) 
4

>  <PUBCHEM_CONFORMER_ID>  (1) 
0000A3CD00000001

>  <PUBCHEM_MMFF94_ENERGY>  (1) 
74.5397

>  <PUBCHEM_FEATURE_SELFOVERLAP>  (1) 
40.637

>  <PUBCHEM_SHAPE_FINGERPRINT>  (1) 
10366900 7 18113334232386561955
10967382 1 18337381730079993393
11458722 379 18408884040090487514
11578080 2 17097759172278440727
12011746 2 18410288108054853895
12236239 1 17603303735308784970
12390115 104 18127979594468144833
12553582 1 18337656590527610291
12954195 1 18271814458396491704
13140716 1 18120359119439751003
13288520 33 18342459244179678301
13544592 145 18273212028048764202
13862211 1 18410282627513391658
14115302 16 18041563649432615878
14790565 3 18408608088447572328
14911166 2 18409448094161590776
15099037 51 18411418431799279070
15183329 4 18261682476728395022
15196674 1 18337948012727836137
15536298 74 18269265927771510377
16945 1 18337377310179123585
17804303 29 18412259566547183040
17870717 6 18342748390221103070
19141452 34 17775001344613789943
19591789 44 18265328598297301899
200 152 17561080323753573681
20871999 31 18409172082620832876
21267235 1 18410295852456109187
21279426 13 18412258441297575445
21637258 2 16272200882025404438
221357 26 18342454846323064700
221490 88 18191306185480353971
2297311 6 18413394236787566253
23175994 123 17346878953267293936
2334 1 17760080014131233665
23402539 116 18412818101374262599
23557571 272 18201443532422875300
23559900 14 18341887549931734080
23566358 2 18267863878478495286
25147074 1 18043245743768252994
2748010 2 18194389005620794529
2838139 119 15719115769020416796
2871803 45 18336536192262929153
3004659 81 18187928331985626162
335352 9 18411134732551813845
350125 39 18336263462109126117
5104073 3 18338228388219326177
59755656 215 18411416185552670999
6138700 20 18412546475211683950
9709674 26 18122339340023949339

>  <PUBCHEM_SHAPE_MULTIPOLES>  (1) 
409.58
11.39
2.29
0.87
11.39
0.54
-0.17
-3.75
-4.55
-1.25
0.11
0.99
-0.12
0.54

>  <PUBCHEM_SHAPE_SELFOVERLAP>  (1) 
905.335

>  <PUBCHEM_SHAPE_VOLUME>  (1) 
219.5

>  <PUBCHEM_COORDINATE_TYPE>  (1) 
2
5
10

$$$$
