41931
     RDKit          3D

 20 22  0  0  0  0  0  0  0  0999 V2000
    1.3831   -3.5004   -0.0572 Cl  0  0  0  0  0  0  0  0  0  0  0  0
    5.0306    0.9093    1.2664 Cl  0  0  0  0  0  0  0  0  0  0  0  0
   -0.4605    2.6200   -0.1353 O   0  0  0  0  0  0  0  0  0  0  0  0
   -1.2404   -2.6600    0.0673 O   0  0  0  0  0  0  0  0  0  0  0  0
    2.1188    2.3844   -0.2774 N   0  0  0  0  0  0  0  0  0  0  0  0
    0.5587    0.4785   -0.1304 C   0  0  0  0  0  0  0  0  0  0  0  0
    0.3597   -0.9027   -0.0772 C   0  0  0  0  0  0  0  0  0  0  0  0
   -1.9572    0.8460    0.0037 C   0  0  0  0  0  0  0  0  0  0  0  0
    1.8572    0.9941   -0.2206 C   0  0  0  0  0  0  0  0  0  0  0  0
   -2.1561   -0.5353    0.0567 C   0  0  0  0  0  0  0  0  0  0  0  0
   -0.5926    1.4033   -0.0920 C   0  0  0  0  0  0  0  0  0  0  0  0
   -1.0049   -1.4600    0.0182 C   0  0  0  0  0  0  0  0  0  0  0  0
    2.9502    0.1278   -0.2573 C   0  0  0  0  0  0  0  0  0  0  0  0
    1.4594   -1.7684   -0.1142 C   0  0  0  0  0  0  0  0  0  0  0  0
    2.7517   -1.2505   -0.2040 C   0  0  0  0  0  0  0  0  0  0  0  0
   -3.0569    1.7116    0.0417 C   0  0  0  0  0  0  0  0  0  0  0  0
   -3.4547   -1.0508    0.1471 C   0  0  0  0  0  0  0  0  0  0  0  0
    4.3506    0.6436   -0.3533 C   0  0  0  0  0  0  0  0  0  0  0  0
   -4.3491    1.1939    0.1329 C   0  0  0  0  0  0  0  0  0  0  0  0
   -4.5476   -0.1844    0.1849 C   0  0  0  0  0  0  0  0  0  0  0  0
  1 14  1  0
  2 18  1  0
  3 11  2  0
  4 12  2  0
  5  9  1  0
  6  7  1  0
  6  9  2  0
  6 11  1  0
  7 12  1  0
  7 14  2  0
  8 10  2  0
  8 11  1  0
  8 16  1  0
  9 13  1  0
 10 12  1  0
 10 17  1  0
 13 15  2  0
 13 18  1  0
 14 15  1  0
 16 19  2  0
 17 20  2  0
 19 20  1  0
M  END
>  <PUBCHEM_COMPOUND_CID>  (1) 
41931

>  <PUBCHEM_CONFORMER_RMSD>  (1) 
0.6

>  <PUBCHEM_CONFORMER_DIVERSEORDER>  (1) 
1
2

>  <PUBCHEM_MMFF94_PARTIAL_CHARGES>  (1) 
27
1 -0.18
10 0.09
11 0.4
12 0.4
13 -0.14
14 0.18
15 -0.15
16 -0.15
17 -0.15
18 0.43
19 -0.15
2 -0.29
20 -0.15
21 0.15
22 0.15
23 0.15
26 0.15
27 0.15
28 0.4
29 0.4
3 -0.57
4 -0.57
5 -0.9
6 0.09
7 0.09
8 0.09
9 0.1

>  <PUBCHEM_EFFECTIVE_ROTOR_COUNT>  (1) 
1

>  <PUBCHEM_PHARMACOPHORE_FEATURES>  (1) 
7
1 3 acceptor
1 4 acceptor
1 5 cation
1 5 donor
6 6 7 8 10 11 12 rings
6 6 7 9 13 14 15 rings
6 8 10 16 17 19 20 rings

>  <PUBCHEM_HEAVY_ATOM_COUNT>  (1) 
20

>  <PUBCHEM_ATOM_DEF_STEREO_COUNT>  (1) 
0

>  <PUBCHEM_ATOM_UDEF_STEREO_COUNT>  (1) 
0

>  <PUBCHEM_BOND_DEF_STEREO_COUNT>  (1) 
0

>  <PUBCHEM_BOND_UDEF_STEREO_COUNT>  (1) 
0

>  <PUBCHEM_ISOTOPIC_ATOM_COUNT>  (1) 
0

>  <PUBCHEM_COMPONENT_COUNT>  (1) 
1

>  <PUBCHEM_CACTVS_TAUTO_COUNT>  (1) 
3

>  <PUBCHEM_CONFORMER_ID>  (1) 
0000A3CB00000001

>  <PUBCHEM_MMFF94_ENERGY>  (1) 
77.1166

>  <PUBCHEM_FEATURE_SELFOVERLAP>  (1) 
35.562

>  <PUBCHEM_SHAPE_FINGERPRINT>  (1) 
10319926 262 18126826413656460808
10411042 1 17473546850416378911
10608611 8 18336548218477384557
10616163 171 18337958994832864727
10967382 1 18410296865361418399
10980938 120 18336831904966665610
1100329 8 18267021850134625056
11132069 177 18410575089026812896
11370993 70 18411978091712624400
11471102 20 18410011005265218743
11680986 33 18336558105112532138
12236239 1 17748826350129788964
12403814 3 17603299362657713661
12592029 89 18408327682938317650
12839892 36 18337375089939696042
13140716 1 18193838364827333480
13221675 6 18410014333780470487
13380535 76 18408888446742991226
138480 1 17905891375024172294
14223421 5 18193275195798853471
14787075 74 17916575578608494304
14790565 3 18337120080583527372
15196674 1 18410577249395258871
15375358 24 18410575088963320968
15442244 35 17978795614537335795
15536298 74 18342178817206701358
16945 1 18410016524250721222
1813 80 16805879577749133666
19591789 44 18338521953259981223
19784866 170 18409730655749196650
200 152 18131064944533466837
20028762 73 18056763367138204807
20510252 161 18272091556580105489
20739085 24 17976569133677478745
21267235 1 18338248136368162919
212916 134 18271508888980149354
21421861 104 17897724262692411050
221490 88 18264500481184042811
22182313 1 18044087960563189212
2334 1 18050010196583708238
23366157 5 17897454895566552414
23402539 116 18342167903641873023
23463225 33 18336831896719369117
23559900 14 18268146462031625566
2748010 2 18194128640255421446
335352 9 18265899055536798974
33824 294 18409731720653490923
34934 24 18411975841381999679
350125 39 18194126436900203785
352729 6 18265345090602336335
4072396 5 18334844009819150170
43471831 8 18336263457792871570
5104073 3 18338239250075449667
57005193 9 18409442596302784567
58051976 378 18411980239302027389
58807428 26 18337378410107567546
69090 78 18412544327411063511
7364860 26 18268712710361863054
9709674 26 18410302401711841735

>  <PUBCHEM_SHAPE_MULTIPOLES>  (1) 
398.61
8.16
2.99
0.72
0.36
1.65
-0.11
-2.83
-1.5
0.7
0.09
0.48
-0.09
0.29

>  <PUBCHEM_SHAPE_SELFOVERLAP>  (1) 
876.858

>  <PUBCHEM_SHAPE_VOLUME>  (1) 
216.6

>  <PUBCHEM_COORDINATE_TYPE>  (1) 
2
5
10

$$$$
