41942
     RDKit          3D

 16 16  0  0  0  0  0  0  0  0999 V2000
    2.2250    1.8110   -0.8868 O   0  0  0  0  0  0  0  0  0  0  0  0
    2.6050    0.2208    0.7718 N   0  0  0  0  0  0  0  0  0  0  0  0
   -0.3942    0.0089   -0.4228 C   0  0  0  0  0  0  0  0  0  0  0  0
    0.3569    0.9049    0.2573 C   0  0  0  0  0  0  0  0  0  0  0  0
    4.0330    0.1645    0.6419 C   0  0  0  0  0  0  0  0  0  0  0  0
    4.4830   -0.8857   -0.3665 C   0  0  0  0  0  0  0  0  0  0  0  0
   -1.8465   -0.1638   -0.1848 C   0  0  0  0  0  0  0  0  0  0  0  0
    1.8223    1.0484   -0.0133 C   0  0  0  0  0  0  0  0  0  0  0  0
    0.1466   -0.8872   -1.5083 C   0  0  0  0  0  0  0  0  0  0  0  0
   -0.1446    1.8435    1.3166 C   0  0  0  0  0  0  0  0  0  0  0  0
    4.0161   -2.2882   -0.0034 C   0  0  0  0  0  0  0  0  0  0  0  0
   -2.7403    0.5940   -0.9166 C   0  0  0  0  0  0  0  0  0  0  0  0
   -2.2667   -1.0777    0.7623 C   0  0  0  0  0  0  0  0  0  0  0  0
   -4.1074    0.4318   -0.6925 C   0  0  0  0  0  0  0  0  0  0  0  0
   -3.6339   -1.2399    0.9862 C   0  0  0  0  0  0  0  0  0  0  0  0
   -4.5542   -0.4851    0.2588 C   0  0  0  0  0  0  0  0  0  0  0  0
  1  8  2  0
  2  5  1  0
  2  8  1  0
  3  4  2  0
  3  7  1  0
  3  9  1  0
  4  8  1  0
  4 10  1  0
  5  6  1  0
  6 11  1  0
  7 12  2  0
  7 13  1  0
 12 14  1  0
 13 15  2  0
 14 16  2  0
 15 16  1  0
M  END
>  <PUBCHEM_COMPOUND_CID>  (1) 
41942

>  <PUBCHEM_CONFORMER_RMSD>  (1) 
0.6

>  <PUBCHEM_CONFORMER_DIVERSEORDER>  (1) 
1
2
11
15
9
12
17
8
13
16
7
5
10
14
6
4
3

>  <PUBCHEM_MMFF94_PARTIAL_CHARGES>  (1) 
20
1 -0.57
10 0.14
12 -0.15
13 -0.15
14 -0.15
15 -0.15
16 -0.15
2 -0.73
21 0.37
3 -0.17
31 0.15
32 0.15
33 0.15
34 0.15
35 0.15
4 -0.12
5 0.3
7 0.03
8 0.62
9 0.14

>  <PUBCHEM_EFFECTIVE_ROTOR_COUNT>  (1) 
5

>  <PUBCHEM_PHARMACOPHORE_FEATURES>  (1) 
6
1 1 acceptor
1 10 hydrophobe
1 11 hydrophobe
1 2 donor
1 9 hydrophobe
6 7 12 13 14 15 16 rings

>  <PUBCHEM_HEAVY_ATOM_COUNT>  (1) 
16

>  <PUBCHEM_ATOM_DEF_STEREO_COUNT>  (1) 
0

>  <PUBCHEM_ATOM_UDEF_STEREO_COUNT>  (1) 
0

>  <PUBCHEM_BOND_DEF_STEREO_COUNT>  (1) 
0

>  <PUBCHEM_BOND_UDEF_STEREO_COUNT>  (1) 
1

>  <PUBCHEM_ISOTOPIC_ATOM_COUNT>  (1) 
0

>  <PUBCHEM_COMPONENT_COUNT>  (1) 
1

>  <PUBCHEM_CACTVS_TAUTO_COUNT>  (1) 
2

>  <PUBCHEM_CONFORMER_ID>  (1) 
0000A3D600000001

>  <PUBCHEM_MMFF94_ENERGY>  (1) 
37.9331

>  <PUBCHEM_FEATURE_SELFOVERLAP>  (1) 
30.446

>  <PUBCHEM_SHAPE_FINGERPRINT>  (1) 
10130415 120 18201439211364035168
10751810 167 17458061551634743824
11128504 68 14490197111259732310
11132069 177 14189581836053299443
11543360 7 17022912258842610526
12032990 46 18408886234818691216
12186901 62 17095512973122909135
124424 183 18411696608546970601
13571099 22 18411133641123555704
13675066 3 18341041990918862480
14252887 29 18410569592101482242
14573314 32 18113613452526657935
16945 1 17560812081903645109
17349148 13 17060333050377661207
17804303 29 17894348895455498827
17834074 16 18186519920949142899
17862501 102 16128366095332147607
18186145 218 17022894687899488773
19026448 4 18040430040170545365
193927 3 18200322005214960534
200 152 17917704717468927407
20645477 70 18333729156373156666
20671657 53 18261397719726503644
22094290 60 17095238107789643501
2215653 11 18334850585329989727
23175994 123 18341892995992346337
23184049 59 17846778520373799950
23402539 116 13254790235926510809
23559900 14 18186800313720591484
26918003 58 18410288103902402346
2838139 119 17703227301119490569
296302 2 9007068971836076833
3286 77 18058724857595748173
3323516 105 17967531251118236178
4072396 5 17489591125940773327
42 15 18202002122794366098
465052 167 18342463655122056678
4990 188 17458062659963029568
77779 3 17895194449687911541
9709674 26 17968663851021125235

>  <PUBCHEM_SHAPE_MULTIPOLES>  (1) 
318.42
9.11
1.77
1.17
1.98
0.08
0.07
3.68
-0.56
1.37
-0.23
-0.34
-0.06
0.52

>  <PUBCHEM_SHAPE_SELFOVERLAP>  (1) 
646.005

>  <PUBCHEM_SHAPE_VOLUME>  (1) 
186.8

>  <PUBCHEM_COORDINATE_TYPE>  (1) 
2
5
10

$$$$
