41945
     RDKit          3D

 21 22  0  0  0  0  0  0  0  0999 V2000
   -5.1626    3.4462    0.2768 Cl  0  0  0  0  0  0  0  0  0  0  0  0
   -4.9106   -3.3843    1.1760 Cl  0  0  0  0  0  0  0  0  0  0  0  0
    1.0339    1.7139    0.9194 O   0  0  0  0  0  0  0  0  0  0  0  0
    0.7328   -1.6133   -2.2450 O   0  0  0  0  0  0  0  0  0  0  0  0
    2.4899   -0.8428   -0.9228 N   0  0  0  0  0  0  0  0  0  0  0  0
    0.5059    0.1504   -0.7276 N   0  0  0  0  0  0  0  0  0  0  0  0
   -3.1856   -0.0275   -0.2358 N   0  0  0  0  0  0  0  0  0  0  0  0
    2.7295    0.1680    0.0881 C   0  0  0  0  0  0  0  0  0  0  0  0
    3.1117   -0.4586    1.4325 C   0  0  0  0  0  0  0  0  0  0  0  0
    3.7523    1.2060   -0.3838 C   0  0  0  0  0  0  0  0  0  0  0  0
    4.5424   -0.9969    1.4308 C   0  0  0  0  0  0  0  0  0  0  0  0
    5.1783    0.6559   -0.3722 C   0  0  0  0  0  0  0  0  0  0  0  0
    5.5440    0.0652    0.9864 C   0  0  0  0  0  0  0  0  0  0  0  0
    1.3321    0.7936    0.1678 C   0  0  0  0  0  0  0  0  0  0  0  0
    1.1787   -0.8508   -1.3976 C   0  0  0  0  0  0  0  0  0  0  0  0
   -0.8939    0.4676   -0.9304 C   0  0  0  0  0  0  0  0  0  0  0  0
   -1.7862   -0.3816   -0.0372 C   0  0  0  0  0  0  0  0  0  0  0  0
   -3.4126    1.3822    0.0890 C   0  0  0  0  0  0  0  0  0  0  0  0
   -4.0547   -0.8811    0.5769 C   0  0  0  0  0  0  0  0  0  0  0  0
   -4.8816    1.7290   -0.0975 C   0  0  0  0  0  0  0  0  0  0  0  0
   -3.8437   -2.3409    0.2062 C   0  0  0  0  0  0  0  0  0  0  0  0
  1 20  1  0
  2 21  1  0
  3 14  2  0
  4 15  2  0
  5  8  1  0
  5 15  1  0
  6 14  1  0
  6 15  1  0
  6 16  1  0
  7 17  1  0
  7 18  1  0
  7 19  1  0
  8  9  1  0
  8 10  1  0
  8 14  1  0
  9 11  1  0
 10 12  1  0
 11 13  1  0
 12 13  1  0
 16 17  1  0
 18 20  1  0
 19 21  1  0
M  END
>  <PUBCHEM_COMPOUND_CID>  (1) 
41945

>  <PUBCHEM_CONFORMER_RMSD>  (1) 
0.8

>  <PUBCHEM_CONFORMER_DIVERSEORDER>  (1) 
1
89
83
35
2
36
94
32
92
93
75
74
6
15
33
69
30
44
82
48
68
4
65
95
59
90
28
91
63
37
85
76
58
19
64
79
25
13
49
84
10
24
38
8
62
46
80
81
41
88
70
61
39
54
34
67
47
52
18
73
42
71
56
40
78
50
29
14
77
21
9
53
55
3
16
43
26
87
60
7
17
27
22
31
45
72
23
12
66
57
86
20
5
51
11

>  <PUBCHEM_MMFF94_PARTIAL_CHARGES>  (1) 
17
1 -0.29
14 0.57
15 0.69
16 0.3
17 0.27
18 0.27
19 0.27
2 -0.29
20 0.29
21 0.29
3 -0.57
32 0.37
4 -0.57
5 -0.73
6 -0.42
7 -0.81
8 0.36

>  <PUBCHEM_EFFECTIVE_ROTOR_COUNT>  (1) 
8.4

>  <PUBCHEM_PHARMACOPHORE_FEATURES>  (1) 
6
1 3 acceptor
1 4 acceptor
1 5 donor
1 7 cation
5 5 6 8 14 15 rings
6 8 9 10 11 12 13 rings

>  <PUBCHEM_HEAVY_ATOM_COUNT>  (1) 
21

>  <PUBCHEM_ATOM_DEF_STEREO_COUNT>  (1) 
0

>  <PUBCHEM_ATOM_UDEF_STEREO_COUNT>  (1) 
0

>  <PUBCHEM_BOND_DEF_STEREO_COUNT>  (1) 
0

>  <PUBCHEM_BOND_UDEF_STEREO_COUNT>  (1) 
0

>  <PUBCHEM_ISOTOPIC_ATOM_COUNT>  (1) 
0

>  <PUBCHEM_COMPONENT_COUNT>  (1) 
1

>  <PUBCHEM_CACTVS_TAUTO_COUNT>  (1) 
2

>  <PUBCHEM_CONFORMER_ID>  (1) 
0000A3D900000001

>  <PUBCHEM_MMFF94_ENERGY>  (1) 
31.1297

>  <PUBCHEM_FEATURE_SELFOVERLAP>  (1) 
30.451

>  <PUBCHEM_SHAPE_FINGERPRINT>  (1) 
10366900 7 17346593033036452585
10912923 1 17822009834930691496
11089746 13 15625931002787947000
11796584 16 18187357701707377314
12107183 9 17972871467129496875
12403259 118 18341323474638761324
12596602 18 18409444817439356104
12616971 3 16660651742938232700
12633257 1 18334290929548094213
12788726 201 18044678609531069091
12892183 10 18337663226141299906
13103583 49 18113611253350317498
13167823 11 18187079593895277970
13583140 156 18189595254971688252
13675066 3 17917708011418719020
14178342 30 18261399931914385439
14341114 328 18187081741679502248
15099037 37 18411704326645581639
15375358 24 18201438026375002661
15842332 3 17314817237509539591
1601671 61 18202001002151364808
16988056 13 10941450666446699363
1813 80 15792299176544082030
19784866 170 18202283563300854612
20645477 70 16988286344150355349
21033648 29 17418078923629177672
21065198 48 18187081780107127106
220451 1 17821731602828180784
22182313 1 17845953861067904567
23402539 116 18187641418456264005
23503958 8 18187079594285486443
23522609 53 17604734187215748452
23557571 272 18343028787488219173
23559900 14 18198073486255039086
4072396 5 17987786398701228640
465052 167 18338802337599997694
5104073 3 18408598184447848992
573450 72 18187361034759864747
5924683 9 18260265283137938491
59755656 520 18187634766649149117
7495541 125 18263644124950469432

>  <PUBCHEM_SHAPE_MULTIPOLES>  (1) 
409.23
13.29
2.92
1.37
0.8
0.29
-0.35
-1.03
4.52
7.7
0.83
-1.06
0.6
0.22

>  <PUBCHEM_SHAPE_SELFOVERLAP>  (1) 
810.397

>  <PUBCHEM_SHAPE_VOLUME>  (1) 
247.6

>  <PUBCHEM_COORDINATE_TYPE>  (1) 
2
5
10

$$$$
