41948
     RDKit          3D

 20 23  0  0  0  0  0  0  0  0999 V2000
    5.9534    0.8324   -0.0004 O   0  0  0  0  0  0  0  0  0  0  0  0
   -6.0818   -0.0920   -0.0001 O   0  0  0  0  0  0  0  0  0  0  0  0
    0.3657    0.0201   -0.0001 C   0  0  0  0  0  0  0  0  0  0  0  0
   -0.1040   -1.3163   -0.0001 C   0  0  0  0  0  0  0  0  0  0  0  0
    1.7856    0.2658    0.0000 C   0  0  0  0  0  0  0  0  0  0  0  0
   -2.0015    0.7701    0.0000 C   0  0  0  0  0  0  0  0  0  0  0  0
   -2.4383   -0.5668    0.0000 C   0  0  0  0  0  0  0  0  0  0  0  0
    2.6796   -0.8367    0.0000 C   0  0  0  0  0  0  0  0  0  0  0  0
   -0.6197    1.0405    0.0000 C   0  0  0  0  0  0  0  0  0  0  0  0
   -1.4827   -1.5917    0.0000 C   0  0  0  0  0  0  0  0  0  0  0  0
    0.8073   -2.3758    0.0000 C   0  0  0  0  0  0  0  0  0  0  0  0
    2.1780   -2.1400    0.0001 C   0  0  0  0  0  0  0  0  0  0  0  0
    2.3708    1.5571   -0.0001 C   0  0  0  0  0  0  0  0  0  0  0  0
    4.0699   -0.6315    0.0002 C   0  0  0  0  0  0  0  0  0  0  0  0
   -2.9555    1.8026   -0.0001 C   0  0  0  0  0  0  0  0  0  0  0  0
   -3.8162   -0.8438    0.0000 C   0  0  0  0  0  0  0  0  0  0  0  0
    3.7554    1.7476    0.0001 C   0  0  0  0  0  0  0  0  0  0  0  0
    4.6053    0.6527    0.0003 C   0  0  0  0  0  0  0  0  0  0  0  0
   -4.7507    0.1916    0.0001 C   0  0  0  0  0  0  0  0  0  0  0  0
   -4.3205    1.5142    0.0002 C   0  0  0  0  0  0  0  0  0  0  0  0
  1 18  1  0
  2 19  1  0
  3  4  1  0
  3  5  1  0
  3  9  2  0
  4 10  2  0
  4 11  1  0
  5  8  2  0
  5 13  1  0
  6  7  2  0
  6  9  1  0
  6 15  1  0
  7 10  1  0
  7 16  1  0
  8 12  1  0
  8 14  1  0
 11 12  2  0
 13 17  2  0
 14 18  2  0
 15 20  2  0
 16 19  2  0
 17 18  1  0
 19 20  1  0
M  END
>  <PUBCHEM_COMPOUND_CID>  (1) 
41948

>  <PUBCHEM_CONFORMER_RMSD>  (1) 
0.6

>  <PUBCHEM_CONFORMER_DIVERSEORDER>  (1) 
1

>  <PUBCHEM_MMFF94_PARTIAL_CHARGES>  (1) 
26
1 -0.53
10 -0.15
11 -0.15
12 -0.15
13 -0.15
14 -0.15
15 -0.15
16 -0.15
17 -0.15
18 0.08
19 0.08
2 -0.53
20 -0.15
21 0.15
22 0.15
23 0.15
24 0.15
25 0.15
26 0.15
27 0.15
28 0.15
29 0.15
30 0.15
31 0.45
32 0.45
9 -0.15

>  <PUBCHEM_EFFECTIVE_ROTOR_COUNT>  (1) 
0

>  <PUBCHEM_PHARMACOPHORE_FEATURES>  (1) 
6
1 1 donor
1 2 donor
6 3 4 5 8 11 12 rings
6 3 4 6 7 9 10 rings
6 5 8 13 14 17 18 rings
6 6 7 15 16 19 20 rings

>  <PUBCHEM_HEAVY_ATOM_COUNT>  (1) 
20

>  <PUBCHEM_ATOM_DEF_STEREO_COUNT>  (1) 
0

>  <PUBCHEM_ATOM_UDEF_STEREO_COUNT>  (1) 
0

>  <PUBCHEM_BOND_DEF_STEREO_COUNT>  (1) 
0

>  <PUBCHEM_BOND_UDEF_STEREO_COUNT>  (1) 
0

>  <PUBCHEM_ISOTOPIC_ATOM_COUNT>  (1) 
0

>  <PUBCHEM_COMPONENT_COUNT>  (1) 
1

>  <PUBCHEM_CACTVS_TAUTO_COUNT>  (1) 
8

>  <PUBCHEM_CONFORMER_ID>  (1) 
0000A3DC00000001

>  <PUBCHEM_MMFF94_ENERGY>  (1) 
67.1597

>  <PUBCHEM_FEATURE_SELFOVERLAP>  (1) 
30.519

>  <PUBCHEM_SHAPE_FINGERPRINT>  (1) 
10 15 18262512715181224960
10411042 1 17546165203621180678
10608611 8 18336826386207854005
10616163 171 18339924913012385623
10967382 1 18410573976608995814
11471102 20 18411417284921659302
11578080 2 16879898643688897391
12107183 9 17619632384760978089
12236239 1 17846499214661463803
12390115 104 18129115445787611089
12592029 89 18335700520755871170
12644460 14 18260548870832370802
12838862 33 18339342141584452580
13140716 1 18049732007641958203
13583140 156 16805317829479122801
138480 1 17762336920730462818
14528608 73 18413386544754262357
14787075 74 18412823607981200363
14790565 3 18336835285618078924
15196674 1 18338797818850887847
15536298 74 18341896246934228406
18681886 176 18341327886086957296
200 152 18131911555264290265
20645477 70 18271246014953214750
21267235 1 18411427184721179687
21279426 13 18268150851477334668
21652331 79 18409448076966085733
23227448 37 18341611563685623711
23402539 116 18343014536158808420
23402655 69 18272367555399231733
23559900 14 18125436415034634650
3004659 81 18335145255306018150
335352 9 18410856569121475998
33824 294 18408322155558156354
34934 24 18410570691112456415
350125 39 18410012156311503900
3545911 37 18410576192775333717
4214541 1 18410293597018081985
42630746 31 18413108346711238262
4325135 7 18343016710171941511
474 4 18040439918552952820
474229 33 18410575110828729451
495365 180 17346307250623853072
4990 188 17989495108411044420
5104073 3 18263086522457925849
59755656 215 18411987940579218430
6138700 20 18338803295942272214
69090 78 18413105078135578911
7364860 26 18269557152577307342
77779 3 18411138009121035525
8272917 22 18342461387342258222
9709674 26 18410862040234947775

>  <PUBCHEM_SHAPE_MULTIPOLES>  (1) 
399.85
11.02
2.17
0.61
2.12
0.48
0
-3.75
0
-0.65
0
0
0
0

>  <PUBCHEM_SHAPE_SELFOVERLAP>  (1) 
919.739

>  <PUBCHEM_SHAPE_VOLUME>  (1) 
207.5

>  <PUBCHEM_COORDINATE_TYPE>  (1) 
2
5
10

$$$$
