41958
     RDKit          3D

  9  8  0  0  0  0  0  0  0  0999 V2000
   -0.3025   -0.1263    0.0015 O   0  0  0  0  0  0  0  0  0  0  0  0
   -3.8032    0.6341    0.0213 O   0  0  0  0  0  0  0  0  0  0  0  0
   -2.7233   -1.3710   -0.0076 O   0  0  0  0  0  0  0  0  0  0  0  0
    2.0854   -0.3027   -0.0156 C   0  0  0  0  0  0  0  0  0  0  0  0
    3.4077    0.4589   -0.0094 C   0  0  0  0  0  0  0  0  0  0  0  0
    0.8924    0.6425   -0.0074 C   0  0  0  0  0  0  0  0  0  0  0  0
    4.5962   -0.4885    0.0260 C   0  0  0  0  0  0  0  0  0  0  0  0
   -1.4570    0.7026   -0.0094 C   0  0  0  0  0  0  0  0  0  0  0  0
   -2.6957   -0.1495    0.0005 C   0  0  0  0  0  0  0  0  0  0  0  0
  1  6  1  0
  1  8  1  0
  2  9  1  0
  3  9  2  0
  4  5  1  0
  4  6  1  0
  5  7  1  0
  8  9  1  0
M  END
>  <PUBCHEM_COMPOUND_CID>  (1) 
41958

>  <PUBCHEM_CONFORMER_RMSD>  (1) 
0.6

>  <PUBCHEM_CONFORMER_DIVERSEORDER>  (1) 
1
45
20
49
3
60
52
6
37
23
44
46
40
59
4
51
62
28
64
10
17
63
21
29
2
39
47
27
48
56
65
41
43
5
8
7
24
50
12
57
15
14
26
30
34
13
18
55
53
42
19
35
11
31
61
36
9
22
54
33
38
32
58
16
25

>  <PUBCHEM_MMFF94_PARTIAL_CHARGES>  (1) 
7
1 -0.56
2 -0.65
21 0.5
3 -0.57
6 0.28
8 0.34
9 0.66

>  <PUBCHEM_EFFECTIVE_ROTOR_COUNT>  (1) 
5

>  <PUBCHEM_PHARMACOPHORE_FEATURES>  (1) 
5
1 1 acceptor
1 2 acceptor
1 3 acceptor
1 7 hydrophobe
3 2 3 9 anion

>  <PUBCHEM_HEAVY_ATOM_COUNT>  (1) 
9

>  <PUBCHEM_ATOM_DEF_STEREO_COUNT>  (1) 
0

>  <PUBCHEM_ATOM_UDEF_STEREO_COUNT>  (1) 
0

>  <PUBCHEM_BOND_DEF_STEREO_COUNT>  (1) 
0

>  <PUBCHEM_BOND_UDEF_STEREO_COUNT>  (1) 
0

>  <PUBCHEM_ISOTOPIC_ATOM_COUNT>  (1) 
0

>  <PUBCHEM_COMPONENT_COUNT>  (1) 
1

>  <PUBCHEM_CACTVS_TAUTO_COUNT>  (1) 
1

>  <PUBCHEM_CONFORMER_ID>  (1) 
0000A3E600000001

>  <PUBCHEM_MMFF94_ENERGY>  (1) 
3.8027

>  <PUBCHEM_FEATURE_SELFOVERLAP>  (1) 
25.434

>  <PUBCHEM_SHAPE_FINGERPRINT>  (1) 
11062470 55 18113618980138933556
12932764 1 17240749709781646348
14325111 11 18410575110686103268
190213 19 17704356567530774712
20279233 1 17775573034841203471
20719005 15 18410856563950600611
20828058 44 18342737420953866898
21293036 1 13045945702858674116
22485316 2 18410852162057586610

>  <PUBCHEM_SHAPE_MULTIPOLES>  (1) 
167.61
8.26
0.96
0.58
3.34
0.15
0
0.92
-0.07
-0.41
0
0.08
-0.01
-0.01

>  <PUBCHEM_SHAPE_SELFOVERLAP>  (1) 
302.757

>  <PUBCHEM_SHAPE_VOLUME>  (1) 
108

>  <PUBCHEM_COORDINATE_TYPE>  (1) 
2
5
10

$$$$
