41952
     RDKit          3D

 22 23  0  0  1  0  0  0  0  0999 V2000
    5.9295    0.5877   -0.1978 S   0  0  0  0  0  0  0  0  0  0  0  0
   -0.1812   -2.0919   -0.1764 O   0  0  0  0  0  0  0  0  0  0  0  0
    6.3221    0.4619   -1.5942 O   0  0  0  0  0  0  0  0  0  0  0  0
    6.1272    1.8523    0.4973 O   0  0  0  0  0  0  0  0  0  0  0  0
   -2.1244   -0.1996    0.2952 N   0  0  0  0  0  0  0  0  0  0  0  0
   -0.8002   -0.0157    0.8881 C   0  0  0  0  0  0  0  0  0  0  0  0
   -3.0970    0.6883    0.9312 C   0  0  0  0  0  0  0  0  0  0  0  0
    0.1694   -0.9934    0.2495 C   0  0  0  0  0  0  0  0  0  0  0  0
    1.6053   -0.5990    0.1378 C   0  0  0  0  0  0  0  0  0  0  0  0
   -4.4852    0.4823    0.3857 C   0  0  0  0  0  0  0  0  0  0  0  0
    4.2506    0.1269   -0.0676 C   0  0  0  0  0  0  0  0  0  0  0  0
   -2.0771    0.0430   -1.1462 C   0  0  0  0  0  0  0  0  0  0  0  0
    2.1320    0.2454    1.0876 C   0  0  0  0  0  0  0  0  0  0  0  0
    2.3450   -1.0960   -0.9103 C   0  0  0  0  0  0  0  0  0  0  0  0
    3.4733    0.6134    0.9836 C   0  0  0  0  0  0  0  0  0  0  0  0
    3.6864   -0.7279   -1.0145 C   0  0  0  0  0  0  0  0  0  0  0  0
   -4.9064    1.2245   -0.7087 C   0  0  0  0  0  0  0  0  0  0  0  0
   -5.3242   -0.4468    0.9850 C   0  0  0  0  0  0  0  0  0  0  0  0
    6.8017   -0.6547    0.7291 C   0  0  0  0  0  0  0  0  0  0  0  0
   -6.1924    1.0338   -1.2141 C   0  0  0  0  0  0  0  0  0  0  0  0
   -6.6102   -0.6374    0.4797 C   0  0  0  0  0  0  0  0  0  0  0  0
   -7.0444    0.1029   -0.6200 C   0  0  0  0  0  0  0  0  0  0  0  0
  1  3  2  0
  1  4  2  0
  1 11  1  0
  1 19  1  0
  2  8  2  0
  5  6  1  0
  5  7  1  0
  5 12  1  0
  6  8  1  0
  7 10  1  0
  8  9  1  0
  9 13  2  0
  9 14  1  0
 10 17  2  0
 10 18  1  0
 11 15  2  0
 11 16  1  0
 13 15  1  0
 14 16  2  0
 17 20  1  0
 18 21  2  0
 20 22  2  0
 21 22  1  0
M  END
>  <PUBCHEM_COMPOUND_CID>  (1) 
41952

>  <PUBCHEM_CONFORMER_RMSD>  (1) 
0.8

>  <PUBCHEM_CONFORMER_DIVERSEORDER>  (1) 
8
116
134
15
150
120
30
123
87
18
117
33
163
20
122
146
161
143
81
10
101
151
22
82
66
21
114
121
59
162
108
106
88
124
164
155
52
138
131
141
4
154
144
73
86
16
149
110
133
37
140
142
147
9
31
74
148
107
72
57
1
24
132
19
34
136
14
7
139
94
11
60
166
145
3
92
165
119
167
152
93
96
80
109
65
13
153
77
2
58
112
159
26
137
23
115
158
95
129
27
76
6
89
62
42
97
113
128
51
103
160
118
54
91
69
48
17
102
105
28
79
53
130
100
41
157
98
61
5
56
99
49
84
156
126
71
104
64
47
12
90
83
25
36
29
40
127
85
38
35
55
50
32
70
111
39
78
135
63
125
68
75
44
67
46
43
45

>  <PUBCHEM_MMFF94_PARTIAL_CHARGES>  (1) 
31
1 1.2
10 -0.14
11 -0.01
12 0.27
13 -0.15
14 -0.15
15 -0.15
16 -0.15
17 -0.15
18 -0.15
19 0.11
2 -0.57
20 -0.15
21 -0.15
22 -0.15
3 -0.65
30 0.15
31 0.15
32 0.15
33 0.15
34 0.15
35 0.15
39 0.15
4 -0.65
40 0.15
41 0.15
5 -0.81
6 0.33
7 0.41
8 0.42
9 0.09

>  <PUBCHEM_EFFECTIVE_ROTOR_COUNT>  (1) 
6

>  <PUBCHEM_PHARMACOPHORE_FEATURES>  (1) 
6
1 2 acceptor
1 3 acceptor
1 4 acceptor
1 5 cation
6 10 17 18 20 21 22 rings
6 9 11 13 14 15 16 rings

>  <PUBCHEM_HEAVY_ATOM_COUNT>  (1) 
22

>  <PUBCHEM_ATOM_DEF_STEREO_COUNT>  (1) 
0

>  <PUBCHEM_ATOM_UDEF_STEREO_COUNT>  (1) 
0

>  <PUBCHEM_BOND_DEF_STEREO_COUNT>  (1) 
0

>  <PUBCHEM_BOND_UDEF_STEREO_COUNT>  (1) 
0

>  <PUBCHEM_ISOTOPIC_ATOM_COUNT>  (1) 
0

>  <PUBCHEM_COMPONENT_COUNT>  (1) 
1

>  <PUBCHEM_CACTVS_TAUTO_COUNT>  (1) 
2

>  <PUBCHEM_CONFORMER_ID>  (1) 
0000A3E000000008

>  <PUBCHEM_MMFF94_ENERGY>  (1) 
59.6864

>  <PUBCHEM_FEATURE_SELFOVERLAP>  (1) 
30.465

>  <PUBCHEM_SHAPE_FINGERPRINT>  (1) 
10 15 18187082888430339640
10087517 78 16588017979944979669
10299344 5 15051735292035550389
10591671 39 18335427876068221501
10638233 991 16988843907972454161
10670039 82 18272092651881428328
10693767 8 16342876326414343886
11089746 13 16081092592990779375
11315181 36 16443068314214876801
11719270 70 18342452604677917906
11991303 11 18341051920794340815
12236239 1 16660364787757195570
12596602 18 16877665673186105328
12616971 3 10809636929887746075
12730499 353 18202286905117856598
13288520 33 14333405654286350697
13533116 47 14490460964101861048
13668630 136 13470689260692631637
13685833 64 10447927282420372196
13914758 101 13262668228265454279
14123256 10 17703789219472807073
14170010 4 17131829881027724552
14251757 52 17458350784161583916
14251764 46 17988924470234067384
14347424 109 15864067694372885372
15183329 4 16702303451196096468
15348495 7 8285900373040653301
17093844 174 12175620664518343435
18006028 8 7925913677284333363
18335252 98 18273217525813261511
19489759 90 17240484698253240993
20157964 124 18202847648011696422
20281389 69 18259983782111829568
20511986 3 15574703721489927769
21130935 74 14418136235909320400
21150785 3 17917988391405603221
21267235 1 14907891709660663189
21344244 181 11671791485640809308
21521239 73 16702306733015399630
220451 1 15339122325509832519
221357 26 17346880035509492192
22224240 67 17748824137435654811
2297311 6 13398632749624480131
23035841 295 13973966497839893301
23081809 10 17203332156842068779
23198884 109 15410898465972117467
23402539 116 16587743144792437859
23559900 14 16773220903115447251
246663 6 14261348081660001517
29717793 49 14333131892638510416
300161 21 16298384648256663387
3004659 81 13901905618009533050
335352 9 18060144241803830486
34797466 226 18335149691621866357
3545911 37 18060701701697212467
4325135 7 17846497037255593125
465052 167 8862942780180771752
5207 217 18343021103485732475
59682541 35 18261681467294640067
59755656 215 18059859445810071662
59755656 520 18261385672211960639

>  <PUBCHEM_SHAPE_MULTIPOLES>  (1) 
434.01
20.61
1.27
1.24
3.36
0.01
0.1
4.98
1.04
-0.07
0.12
-0.48
0.08
0.83

>  <PUBCHEM_SHAPE_SELFOVERLAP>  (1) 
904.152

>  <PUBCHEM_SHAPE_VOLUME>  (1) 
249

>  <PUBCHEM_COORDINATE_TYPE>  (1) 
2
5
10

$$$$
