41964
     RDKit          3D

 15 15  0  0  0  0  0  0  0  0999 V2000
    1.4797    3.0949   -1.4633 Cl  0  0  0  0  0  0  0  0  0  0  0  0
    1.4798    3.0950    1.4632 Cl  0  0  0  0  0  0  0  0  0  0  0  0
   -3.7676   -0.3648   -1.4632 Cl  0  0  0  0  0  0  0  0  0  0  0  0
   -3.7674   -0.3646    1.4633 Cl  0  0  0  0  0  0  0  0  0  0  0  0
    2.9415   -2.0574    1.4632 Cl  0  0  0  0  0  0  0  0  0  0  0  0
    2.9414   -2.0572   -1.4633 Cl  0  0  0  0  0  0  0  0  0  0  0  0
    0.1960    1.2030    0.0001 C   0  0  0  0  0  0  0  0  0  0  0  0
   -1.4872   -0.5303   -0.0001 C   0  0  0  0  0  0  0  0  0  0  0  0
    0.8554   -1.1213    0.0001 C   0  0  0  0  0  0  0  0  0  0  0  0
   -1.1459    0.8222   -0.0001 C   0  0  0  0  0  0  0  0  0  0  0  0
    1.1966    0.2312    0.0001 C   0  0  0  0  0  0  0  0  0  0  0  0
   -0.4864   -1.5020    0.0001 C   0  0  0  0  0  0  0  0  0  0  0  0
    0.5608    2.6491    0.0000 C   0  0  0  0  0  0  0  0  0  0  0  0
   -2.9219   -0.9375    0.0001 C   0  0  0  0  0  0  0  0  0  0  0  0
    1.9253   -2.1604    0.0000 C   0  0  0  0  0  0  0  0  0  0  0  0
  1 13  1  0
  2 13  1  0
  3 14  1  0
  4 14  1  0
  5 15  1  0
  6 15  1  0
  7 10  2  0
  7 11  1  0
  7 13  1  0
  8 10  1  0
  8 12  2  0
  8 14  1  0
  9 11  2  0
  9 12  1  0
  9 15  1  0
M  END
>  <PUBCHEM_COMPOUND_CID>  (1) 
41964

>  <PUBCHEM_CONFORMER_RMSD>  (1) 
0.6

>  <PUBCHEM_CONFORMER_DIVERSEORDER>  (1) 
1
8
6
7
3
5
2
4

>  <PUBCHEM_MMFF94_PARTIAL_CHARGES>  (1) 
18
1 -0.29
10 -0.15
11 -0.15
12 -0.15
13 0.72
14 0.72
15 0.72
16 0.15
17 0.15
18 0.15
2 -0.29
3 -0.29
4 -0.29
5 -0.29
6 -0.29
7 -0.14
8 -0.14
9 -0.14

>  <PUBCHEM_EFFECTIVE_ROTOR_COUNT>  (1) 
3

>  <PUBCHEM_PHARMACOPHORE_FEATURES>  (1) 
1
6 7 8 9 10 11 12 rings

>  <PUBCHEM_HEAVY_ATOM_COUNT>  (1) 
15

>  <PUBCHEM_ATOM_DEF_STEREO_COUNT>  (1) 
0

>  <PUBCHEM_ATOM_UDEF_STEREO_COUNT>  (1) 
0

>  <PUBCHEM_BOND_DEF_STEREO_COUNT>  (1) 
0

>  <PUBCHEM_BOND_UDEF_STEREO_COUNT>  (1) 
0

>  <PUBCHEM_ISOTOPIC_ATOM_COUNT>  (1) 
0

>  <PUBCHEM_COMPONENT_COUNT>  (1) 
1

>  <PUBCHEM_CACTVS_TAUTO_COUNT>  (1) 
1

>  <PUBCHEM_CONFORMER_ID>  (1) 
0000A3EC00000001

>  <PUBCHEM_MMFF94_ENERGY>  (1) 
28.5063

>  <PUBCHEM_FEATURE_SELFOVERLAP>  (1) 
5.074

>  <PUBCHEM_SHAPE_FINGERPRINT>  (1) 
1 1 18122338244591037061
12160290 23 17545882624794481668
12553582 1 18338805494179732427
12707595 3 18334298639088341019
12759256 9 18341325665093083767
13140716 1 18050287273513953632
13681431 1 18410573980925140132
14022347 108 18120676655031229707
14022349 108 18267008622073333784
14181834 199 18268689762113756191
14817 1 11136843936787650872
15502708 68 18122896792245340368
16945 1 18338516442885271815
1813 80 18129115436939103359
18186145 218 17840036474155470069
18410436 195 18339914922675270885
20097449 115 18335984164311082435
20339313 130 18341345413236679299
20361792 2 18340769230589317415
20600515 1 18335980861740019634
20645476 183 17177145380535177836
20645477 70 18339075012521177967
20671657 1 18199761404117669299
20671657 53 18337658720900233719
20711985 327 18271516516251541091
20711985 344 17907866097844042678
21041028 32 18197519358275141801
21061003 4 18337953389995372243
21524375 3 17762054745467458204
22112679 90 17913237310813717344
2334 1 18338797818914230368
23419403 2 17758068779931504220
23526113 38 17749379352390229291
23557571 272 18053654777472971174
23598291 2 18131360717398329223
25 1 18051151463788902437
2748010 2 18266729203963873228
305870 269 18051399966370143001
3071541 12 18339937024698483709
3071541 158 18334007285459561341
3071541 236 17252573591686308018
3071541 250 18267325199437835678
4175511 71 18270977738669110059
458136 41 17974873948766469545
57210444 14 17616284775608005028
5845 1 18057599859009500004
58807428 26 17907003324945459216
6049 1 17821731654663265511
7364860 26 18272092759154714456
7615 1 17775005726213303803
81228 2 17834116342420174360

>  <PUBCHEM_SHAPE_MULTIPOLES>  (1) 
319.91
5.34
3.78
1.53
4.87
3.2
0
-3.35
0
-4.25
0
-0.19
0.2
0

>  <PUBCHEM_SHAPE_SELFOVERLAP>  (1) 
600.358

>  <PUBCHEM_SHAPE_VOLUME>  (1) 
194.8

>  <PUBCHEM_COORDINATE_TYPE>  (1) 
2
5
10

$$$$
