41967
     RDKit          3D

 10 10  0  0  1  0  0  0  0  0999 V2000
    1.3547   -2.0504    0.2709 Cl  0  0  0  0  0  0  0  0  0  0  0  0
   -0.7201   -0.3576    1.6582 F   0  0  0  0  0  0  0  0  0  0  0  0
    0.2972   -0.7763   -1.8189 F   0  0  0  0  0  0  0  0  0  0  0  0
    1.7320    0.8997    1.0832 F   0  0  0  0  0  0  0  0  0  0  0  0
    0.9237    1.7593   -0.7992 F   0  0  0  0  0  0  0  0  0  0  0  0
   -1.6292    0.5730   -0.3595 O   0  0  0  0  0  0  0  0  0  0  0  0
   -0.4998    0.0548    0.3517 C   0  0  0  0  0  0  0  0  0  0  0  0
    0.5306   -0.6834   -0.4513 C   0  0  0  0  0  0  0  0  0  0  0  0
    0.8279    0.6934    0.0664 C   0  0  0  0  0  0  0  0  0  0  0  0
   -2.8171   -0.1125   -0.0015 C   0  0  0  0  0  0  0  0  0  0  0  0
  1  8  1  0
  2  7  1  0
  3  8  1  0
  4  9  1  0
  5  9  1  0
  6  7  1  0
  6 10  1  0
  7  8  1  0
  7  9  1  0
  8  9  1  0
M  END
>  <PUBCHEM_COMPOUND_CID>  (1) 
41967

>  <PUBCHEM_CONFORMER_RMSD>  (1) 
0.4

>  <PUBCHEM_CONFORMER_DIVERSEORDER>  (1) 
2
1
3
4

>  <PUBCHEM_MMFF94_PARTIAL_CHARGES>  (1) 
10
1 -0.23
10 0.28
2 -0.23
3 -0.23
4 -0.23
5 -0.23
6 -0.43
7 0.38
8 0.46
9 0.46

>  <PUBCHEM_EFFECTIVE_ROTOR_COUNT>  (1) 
1.6

>  <PUBCHEM_PHARMACOPHORE_FEATURES>  (1) 
1
1 6 acceptor

>  <PUBCHEM_HEAVY_ATOM_COUNT>  (1) 
10

>  <PUBCHEM_ATOM_DEF_STEREO_COUNT>  (1) 
0

>  <PUBCHEM_ATOM_UDEF_STEREO_COUNT>  (1) 
2

>  <PUBCHEM_BOND_DEF_STEREO_COUNT>  (1) 
0

>  <PUBCHEM_BOND_UDEF_STEREO_COUNT>  (1) 
0

>  <PUBCHEM_ISOTOPIC_ATOM_COUNT>  (1) 
0

>  <PUBCHEM_COMPONENT_COUNT>  (1) 
1

>  <PUBCHEM_CACTVS_TAUTO_COUNT>  (1) 
1

>  <PUBCHEM_CONFORMER_ID>  (1) 
0000A3EF00000002

>  <PUBCHEM_MMFF94_ENERGY>  (1) 
10.6642

>  <PUBCHEM_FEATURE_SELFOVERLAP>  (1) 
5.074

>  <PUBCHEM_SHAPE_FINGERPRINT>  (1) 
12423570 1 13556228817170252820
137420 1 7994631891278479054
16945 1 18129642128620050610
20653091 64 18269570363643151579
21040471 1 18126847333186566164
23552333 60 17846788386119498291
23552449 11 18200871756169177315
29004967 10 18266171734383622267
5084963 1 18055932114650164172
68250623 7 18049998888061470352

>  <PUBCHEM_SHAPE_MULTIPOLES>  (1) 
172.7
2.48
1.58
1.23
1.94
0.05
0.08
-0.62
-0.2
-1.03
0.06
-0.16
-0.09
0.13

>  <PUBCHEM_SHAPE_SELFOVERLAP>  (1) 
336.816

>  <PUBCHEM_SHAPE_VOLUME>  (1) 
106.5

>  <PUBCHEM_COORDINATE_TYPE>  (1) 
2
5
10

$$$$
