4196
     RDKit          3D

 32 36  0  0  1  0  0  0  0  0999 V2000
   -0.7517   -4.4162   -1.6523 O   0  0  0  0  0  0  0  0  0  0  0  0
    5.8613    2.4923    1.6034 O   0  0  0  0  0  0  0  0  0  0  0  0
   -4.3492    3.7085   -0.2909 N   0  0  0  0  0  0  0  0  0  0  0  0
   -0.5331   -2.1893   -0.6029 C   0  0  0  0  0  0  0  0  0  0  0  0
    0.7848   -1.9485   -1.3742 C   0  0  0  0  0  0  0  0  0  0  0  0
    1.2049   -0.4677   -1.4632 C   0  0  0  0  0  0  0  0  0  0  0  0
   -0.4836   -3.7425   -0.4179 C   0  0  0  0  0  0  0  0  0  0  0  0
   -0.4935   -1.4418    0.7599 C   0  0  0  0  0  0  0  0  0  0  0  0
    1.7967   -2.8810   -0.6814 C   0  0  0  0  0  0  0  0  0  0  0  0
    0.9853   -4.0334   -0.0752 C   0  0  0  0  0  0  0  0  0  0  0  0
   -0.0649    0.0483    0.7283 C   0  0  0  0  0  0  0  0  0  0  0  0
    1.1970    0.2611   -0.1132 C   0  0  0  0  0  0  0  0  0  0  0  0
    2.5331   -0.3385   -2.2380 C   0  0  0  0  0  0  0  0  0  0  0  0
   -1.7542   -1.7453   -1.4278 C   0  0  0  0  0  0  0  0  0  0  0  0
    2.2185    1.0762    0.2590 C   0  0  0  0  0  0  0  0  0  0  0  0
    3.1118    1.0593   -2.0999 C   0  0  0  0  0  0  0  0  0  0  0  0
   -1.2113    1.0268    0.4552 C   0  0  0  0  0  0  0  0  0  0  0  0
    3.3462    1.3460   -0.6419 C   0  0  0  0  0  0  0  0  0  0  0  0
   -1.3938   -4.2595    0.6138 C   0  0  0  0  0  0  0  0  0  0  0  0
    2.2997    1.8677    1.5480 C   0  0  0  0  0  0  0  0  0  0  0  0
    4.5238    1.8315   -0.2161 C   0  0  0  0  0  0  0  0  0  0  0  0
    3.6694    1.7221    2.2008 C   0  0  0  0  0  0  0  0  0  0  0  0
   -2.3842    0.9435    1.2001 C   0  0  0  0  0  0  0  0  0  0  0  0
   -1.0733    1.9947   -0.5358 C   0  0  0  0  0  0  0  0  0  0  0  0
    4.7691    2.0727    1.2273 C   0  0  0  0  0  0  0  0  0  0  0  0
   -2.1370   -4.6824    1.4569 C   0  0  0  0  0  0  0  0  0  0  0  0
   -3.4278    1.8353    0.9519 C   0  0  0  0  0  0  0  0  0  0  0  0
   -2.1167    2.8866   -0.7840 C   0  0  0  0  0  0  0  0  0  0  0  0
   -3.2940    2.8069   -0.0400 C   0  0  0  0  0  0  0  0  0  0  0  0
   -3.0420   -5.1975    2.4833 C   0  0  0  0  0  0  0  0  0  0  0  0
   -5.5766    3.6337    0.4765 C   0  0  0  0  0  0  0  0  0  0  0  0
   -4.2147    4.7305   -1.3098 C   0  0  0  0  0  0  0  0  0  0  0  0
  1  7  1  0
  2 25  2  0
  3 29  1  0
  3 31  1  0
  3 32  1  0
  4  5  1  0
  4  7  1  0
  4  8  1  0
  4 14  1  0
  5  6  1  0
  5  9  1  0
  6 12  1  0
  6 13  1  0
  7 10  1  0
  7 19  1  0
  8 11  1  0
  9 10  1  0
 11 12  1  0
 11 17  1  0
 12 15  2  0
 13 16  1  0
 15 18  1  0
 15 20  1  0
 16 18  1  0
 17 23  2  0
 17 24  1  0
 18 21  2  0
 19 26  3  0
 20 22  1  0
 21 25  1  0
 22 25  1  0
 23 27  1  0
 24 28  2  0
 26 30  1  0
 27 29  2  0
 28 29  1  0
M  END
>  <PUBCHEM_COMPOUND_CID>  (1) 
4196

>  <PUBCHEM_CONFORMER_RMSD>  (1) 
0.8

>  <PUBCHEM_CONFORMER_DIVERSEORDER>  (1) 
4
87
50
40
90
65
63
20
25
74
45
71
52
68
75
83
69
33
94
67
46
62
61
42
85
21
70
76
9
82
18
89
91
49
30
54
55
80
31
34
7
44
11
35
86
22
84
23
19
29
58
5
13
53
77
27
26
12
48
1
2
39
81
6
10
24
73
66
36
41
92
8
47
93
16
56
60
88
17
28
64
15
37
32
51
78
57
79
38
59
3
72
14
43

>  <PUBCHEM_MMFF94_PARTIAL_CHARGES>  (1) 
31
1 -0.68
11 0.28
12 -0.28
15 -0.14
16 0.14
17 -0.14
18 -0.14
19 -0.2
2 -0.57
20 0.14
21 -0.14
22 0.06
23 -0.15
24 -0.15
25 0.49
26 -0.2
27 -0.15
28 -0.15
29 0.1
3 -0.84
30 0.2
31 0.37
32 0.37
49 0.4
52 0.15
55 0.15
56 0.15
57 0.15
58 0.15
6 0.14
7 0.48

>  <PUBCHEM_EFFECTIVE_ROTOR_COUNT>  (1) 
3.8

>  <PUBCHEM_PHARMACOPHORE_FEATURES>  (1) 
10
1 1 acceptor
1 1 donor
1 2 acceptor
1 3 cation
1 30 hydrophobe
5 4 5 7 9 10 rings
6 15 18 20 21 22 25 rings
6 17 23 24 27 28 29 rings
6 4 5 6 8 11 12 rings
6 6 12 13 15 16 18 rings

>  <PUBCHEM_HEAVY_ATOM_COUNT>  (1) 
32

>  <PUBCHEM_ATOM_DEF_STEREO_COUNT>  (1) 
0

>  <PUBCHEM_ATOM_UDEF_STEREO_COUNT>  (1) 
5

>  <PUBCHEM_BOND_DEF_STEREO_COUNT>  (1) 
0

>  <PUBCHEM_BOND_UDEF_STEREO_COUNT>  (1) 
0

>  <PUBCHEM_ISOTOPIC_ATOM_COUNT>  (1) 
0

>  <PUBCHEM_COMPONENT_COUNT>  (1) 
1

>  <PUBCHEM_CACTVS_TAUTO_COUNT>  (1) 
5

>  <PUBCHEM_CONFORMER_ID>  (1) 
0000106400000004

>  <PUBCHEM_MMFF94_ENERGY>  (1) 
107.0141

>  <PUBCHEM_FEATURE_SELFOVERLAP>  (1) 
50.957

>  <PUBCHEM_SHAPE_FINGERPRINT>  (1) 
10074138 170 18193816340224672496
10165383 225 17908749164726928956
10305334 12 16263129919876163690
10675989 125 17984703311941539560
10721379 63 17696188106601686921
10930396 42 16978384421993732864
1100329 8 18198904708925376398
11607047 191 18055889062457860856
11720765 8 17038652575153812133
12160290 23 18128549334284052781
12522641 24 17692267244559671081
12553582 1 17547300359614439502
12608794 3 17827324754202387434
12730499 353 18269846311351068649
12788726 201 17829615311726624196
13004483 165 17690556811860009264
131258 43 8141221238753238432
13134695 92 17331109499634757629
13140716 1 18267017259025614681
13540713 4 17987812916304211212
13692114 37 18408885110117664523
13911987 19 17108513413410181422
13955234 65 17906456528712411737
14022347 108 17473288924897962926
14955137 171 17766279773732898846
15219462 58 18052513733685204744
15230672 131 18410577263672903334
15324884 4 18194150501607549832
15439362 3 18270111298169570880
15775530 1 17915479378853892262
17980427 26 18055898906111413892
1813 80 17475805719650651378
19301679 30 18119532287424469210
20587220 46 14951635662674018721
20600515 1 17334223819440062218
21033648 29 18412267216396322088
21304303 282 18196344065911936549
22149856 69 18047216081022264657
22182313 1 17345208890222009316
23559900 14 17682692718241484085
238 59 18055363435363766797
23845131 108 18410573955535170609
24941158 1 17542197100742532229
3187 122 17908990146635558186
3380486 145 17047929687232601980
3552219 110 17246395878659227956
376196 1 17631144486300324992
3886686 26 18336261242128259306
4058900 60 18199474277049277128
44317340 157 17759519972847820037
44802255 64 16962454504199600846
463206 1 17181945350750531859
469060 322 18337676442378226629
495365 180 18195810665318180757
508180 173 16025631757708553533
508706 21 18200599232379273508
513202 73 18193008229960764546
57124632 79 18195238915034811636
57527573 199 18266731562365675367
6669772 16 18200304417054617700
6697151 62 17040051158793153349
7399639 24 18338528443546727761
81228 2 17982743161849550166
9896288 288 18264479754209585986

>  <PUBCHEM_SHAPE_MULTIPOLES>  (1) 
641.83
8.47
7.91
2.04
1.05
9.84
0.18
-15
2.33
8.08
1.89
-1.15
0.55
3.72

>  <PUBCHEM_SHAPE_SELFOVERLAP>  (1) 
1390.868

>  <PUBCHEM_SHAPE_VOLUME>  (1) 
349.5

>  <PUBCHEM_COORDINATE_TYPE>  (1) 
2
5
10

$$$$
