41960
     RDKit          3D

 20 21  0  0  0  0  0  0  0  0999 V2000
   -5.1039   -0.0533    0.6687 S   0  0  0  0  0  0  0  0  0  0  0  0
    0.9975   -0.8000   -1.9358 O   0  0  0  0  0  0  0  0  0  0  0  0
   -5.4138   -1.3979    1.1336 O   0  0  0  0  0  0  0  0  0  0  0  0
   -5.3418    1.0866    1.5436 O   0  0  0  0  0  0  0  0  0  0  0  0
    2.9106    0.5127   -0.4410 N   0  0  0  0  0  0  0  0  0  0  0  0
    5.3221   -0.2604    0.9536 N   0  0  0  0  0  0  0  0  0  0  0  0
    2.9606   -0.7044    0.3781 C   0  0  0  0  0  0  0  0  0  0  0  0
    3.8462    1.5179    0.0779 C   0  0  0  0  0  0  0  0  0  0  0  0
    4.3857   -1.2650    0.4352 C   0  0  0  0  0  0  0  0  0  0  0  0
    5.2716    0.9579    0.1362 C   0  0  0  0  0  0  0  0  0  0  0  0
    1.5514    1.0473   -0.4943 C   0  0  0  0  0  0  0  0  0  0  0  0
    6.6815   -0.7952    1.0048 C   0  0  0  0  0  0  0  0  0  0  0  0
    0.6185    0.0174   -1.0997 C   0  0  0  0  0  0  0  0  0  0  0  0
   -0.8077   -0.0003   -0.6593 C   0  0  0  0  0  0  0  0  0  0  0  0
   -1.3894    1.1817   -0.2625 C   0  0  0  0  0  0  0  0  0  0  0  0
   -1.4848   -1.1983   -0.6665 C   0  0  0  0  0  0  0  0  0  0  0  0
   -3.4358   -0.0332    0.1539 C   0  0  0  0  0  0  0  0  0  0  0  0
   -2.7218    1.1651    0.1499 C   0  0  0  0  0  0  0  0  0  0  0  0
   -2.8172   -1.2149   -0.2542 C   0  0  0  0  0  0  0  0  0  0  0  0
   -6.0297    0.2362   -0.8222 C   0  0  0  0  0  0  0  0  0  0  0  0
  1  3  2  0
  1  4  2  0
  1 17  1  0
  1 20  1  0
  2 13  2  0
  5  7  1  0
  5  8  1  0
  5 11  1  0
  6  9  1  0
  6 10  1  0
  6 12  1  0
  7  9  1  0
  8 10  1  0
 11 13  1  0
 13 14  1  0
 14 15  2  0
 14 16  1  0
 15 18  1  0
 16 19  2  0
 17 18  2  0
 17 19  1  0
M  END
>  <PUBCHEM_COMPOUND_CID>  (1) 
41960

>  <PUBCHEM_CONFORMER_RMSD>  (1) 
0.8

>  <PUBCHEM_CONFORMER_DIVERSEORDER>  (1) 
2
30
34
32
43
6
37
8
29
31
38
33
35
4
5
16
7
36
42
17
3
40
41
11
1
18
26
15
39
20
23
9
28
25
21
12
24
27
10
22
19
14
13

>  <PUBCHEM_MMFF94_PARTIAL_CHARGES>  (1) 
24
1 1.2
10 0.27
11 0.33
12 0.27
13 0.42
14 0.09
15 -0.15
16 -0.15
17 -0.01
18 -0.15
19 -0.15
2 -0.57
20 0.11
3 -0.65
34 0.15
35 0.15
36 0.15
37 0.15
4 -0.65
5 -0.81
6 -0.81
7 0.27
8 0.27
9 0.27

>  <PUBCHEM_EFFECTIVE_ROTOR_COUNT>  (1) 
5.2

>  <PUBCHEM_PHARMACOPHORE_FEATURES>  (1) 
7
1 2 acceptor
1 3 acceptor
1 4 acceptor
1 5 cation
1 6 cation
6 14 15 16 17 18 19 rings
6 5 6 7 8 9 10 rings

>  <PUBCHEM_HEAVY_ATOM_COUNT>  (1) 
20

>  <PUBCHEM_ATOM_DEF_STEREO_COUNT>  (1) 
0

>  <PUBCHEM_ATOM_UDEF_STEREO_COUNT>  (1) 
0

>  <PUBCHEM_BOND_DEF_STEREO_COUNT>  (1) 
0

>  <PUBCHEM_BOND_UDEF_STEREO_COUNT>  (1) 
0

>  <PUBCHEM_ISOTOPIC_ATOM_COUNT>  (1) 
0

>  <PUBCHEM_COMPONENT_COUNT>  (1) 
1

>  <PUBCHEM_CACTVS_TAUTO_COUNT>  (1) 
2

>  <PUBCHEM_CONFORMER_ID>  (1) 
0000A3E800000002

>  <PUBCHEM_MMFF94_ENERGY>  (1) 
43.2383

>  <PUBCHEM_FEATURE_SELFOVERLAP>  (1) 
35.54

>  <PUBCHEM_SHAPE_FINGERPRINT>  (1) 
10 15 18202282537167505456
10354089 29 18343864420773108080
11089746 13 17489298711445197424
11128504 68 9799689290127237491
12107183 9 17761771763263286376
12236239 1 18040154036865930429
12251169 10 18412543223667759236
12516196 113 15864070979431848052
12596602 18 18259987106041925425
12616971 3 18342733057377870852
12633257 1 18272087222994630448
12670543 26 8286209331386386235
12714333 28 12103844562156739458
12730499 353 13254801260865019172
12916748 109 12319741375062084604
12954195 1 12540680514887980599
12969540 114 14189575191871170409
13288520 33 14490473080283243095
13533116 47 18335136471406885850
13668630 136 14707210994188592834
13675066 3 17676489466936752789
13685833 64 16370729227055057168
13914758 101 17895185581445459421
14123256 10 8214140772555407914
14123256 34 14851614266737008729
14251752 14 8070038752675318667
14251764 18 18343017813925840560
14341114 176 18408324393552466168
14341114 328 18412826910652769426
14528608 73 10447928364915589746
14848160 23 17821727251931383897
15048467 5 11815898954979009571
15188451 53 17677335043150774563
15527383 91 18259700104054156060
15537594 2 17022895753410373794
15788980 27 17385447635458323445
17844677 252 17095243618016725228
17959699 21 11959732663641139435
1813 80 16950287274045105230
18222031 100 15357696396949579740
19489759 90 16917348147750006391
19784866 240 16153432744258133223
200 152 14562528492208928317
20374829 77 12973604456401111477
20871999 31 11097846389438014815
21150785 3 12031781445176322361
21267235 1 18334859390624596506
21637258 2 16515678953325794018
22224240 67 17418087732865733087
23016692 55 14562530661188427182
23402539 116 18343294895050644733
23402655 69 10592047959865216018
23559900 14 16443635708869067493
23622692 88 18410572885988054894
26918003 58 18040434404052178595
2767999 5 16200432468066853297
2838139 119 13110962015811073442
2916195 48 15195560212914680042
29717793 49 10881673595151362184
3004659 81 11530482225304728312
314173 85 15936408940097056453
351380 3 17530679909835964378
42 15 18113622287300577415
4325135 7 13830121815779519429
465052 167 18186241732244697894
474 4 13686291409499178418
5104073 3 18341051937962744360
5207 217 11815890180255374212
542803 24 17418376904165225613
559249 180 17530962493341693635
59755656 520 15410888561403162756

>  <PUBCHEM_SHAPE_MULTIPOLES>  (1) 
387.87
15.84
1.43
1.19
3.8
0.01
-0.11
-1.72
6.41
0.33
0.12
-0.56
-0.12
-0.43

>  <PUBCHEM_SHAPE_SELFOVERLAP>  (1) 
791.467

>  <PUBCHEM_SHAPE_VOLUME>  (1) 
227.7

>  <PUBCHEM_COORDINATE_TYPE>  (1) 
2
5
10

$$$$
