41972
     RDKit          3D

 15 16  0  0  0  0  0  0  0  0999 V2000
    2.8900    2.7666    0.6445 Cl  0  0  0  0  0  0  0  0  0  0  0  0
    0.1297   -1.5066    0.5252 O   0  0  0  0  0  0  0  0  0  0  0  0
   -4.6244    1.1763   -0.5359 N   0  0  0  0  0  0  0  0  0  0  0  0
   -1.0334   -0.8493    0.2661 C   0  0  0  0  0  0  0  0  0  0  0  0
    1.3158   -0.8656    0.2087 C   0  0  0  0  0  0  0  0  0  0  0  0
   -2.0512   -0.8297    1.2198 C   0  0  0  0  0  0  0  0  0  0  0  0
   -1.2084   -0.1963   -0.9541 C   0  0  0  0  0  0  0  0  0  0  0  0
   -3.4189    0.4955   -0.2666 C   0  0  0  0  0  0  0  0  0  0  0  0
   -3.2439   -0.1574    0.9535 C   0  0  0  0  0  0  0  0  0  0  0  0
   -2.4012    0.4761   -1.2204 C   0  0  0  0  0  0  0  0  0  0  0  0
    1.4739    0.4656    0.5496 C   0  0  0  0  0  0  0  0  0  0  0  0
    2.3117   -1.5731   -0.4399 C   0  0  0  0  0  0  0  0  0  0  0  0
    2.6687    1.1111    0.2310 C   0  0  0  0  0  0  0  0  0  0  0  0
    3.5064   -0.9278   -0.7584 C   0  0  0  0  0  0  0  0  0  0  0  0
    3.6850    0.4144   -0.4229 C   0  0  0  0  0  0  0  0  0  0  0  0
  1 13  1  0
  2  4  1  0
  2  5  1  0
  3  8  1  0
  4  6  2  0
  4  7  1  0
  5 11  2  0
  5 12  1  0
  6  9  1  0
  7 10  2  0
  8  9  2  0
  8 10  1  0
 11 13  1  0
 12 14  2  0
 13 15  2  0
 14 15  1  0
M  END
>  <PUBCHEM_COMPOUND_CID>  (1) 
41972

>  <PUBCHEM_CONFORMER_RMSD>  (1) 
0.6

>  <PUBCHEM_CONFORMER_DIVERSEORDER>  (1) 
1
3
5
4
2
6

>  <PUBCHEM_MMFF94_PARTIAL_CHARGES>  (1) 
25
1 -0.18
10 -0.15
11 -0.15
12 -0.15
13 0.18
14 -0.15
15 -0.15
16 0.15
17 0.15
18 0.15
19 0.15
2 -0.17
20 0.15
21 0.15
22 0.15
23 0.15
24 0.4
25 0.4
3 -0.9
4 0.08
5 0.08
6 -0.15
7 -0.15
8 0.1
9 -0.15

>  <PUBCHEM_EFFECTIVE_ROTOR_COUNT>  (1) 
2

>  <PUBCHEM_PHARMACOPHORE_FEATURES>  (1) 
5
1 2 acceptor
1 3 cation
1 3 donor
6 4 6 7 8 9 10 rings
6 5 11 12 13 14 15 rings

>  <PUBCHEM_HEAVY_ATOM_COUNT>  (1) 
15

>  <PUBCHEM_ATOM_DEF_STEREO_COUNT>  (1) 
0

>  <PUBCHEM_ATOM_UDEF_STEREO_COUNT>  (1) 
0

>  <PUBCHEM_BOND_DEF_STEREO_COUNT>  (1) 
0

>  <PUBCHEM_BOND_UDEF_STEREO_COUNT>  (1) 
0

>  <PUBCHEM_ISOTOPIC_ATOM_COUNT>  (1) 
0

>  <PUBCHEM_COMPONENT_COUNT>  (1) 
1

>  <PUBCHEM_CACTVS_TAUTO_COUNT>  (1) 
1

>  <PUBCHEM_CONFORMER_ID>  (1) 
0000A3F400000001

>  <PUBCHEM_MMFF94_ENERGY>  (1) 
58.7858

>  <PUBCHEM_FEATURE_SELFOVERLAP>  (1) 
25.371

>  <PUBCHEM_SHAPE_FINGERPRINT>  (1) 
10465860 71 14333135220747483248
10608611 8 18336265729524310680
11132069 177 17385446514208186647
11471102 20 18342178847640627054
11543360 7 18131057260757807751
11615756 256 18334304187837947364
12654215 9 18410013222011564804
12932764 1 18186801391657357498
13134695 92 18342452587639609806
13764800 53 17676210156407378745
14250199 8 18272934920621549536
14252887 29 9727631726090757876
15219456 202 18335143111046400170
16945 1 18343587330683920842
1813 80 17344083874909501694
18186145 218 18272660055794562866
20233049 118 18260548901255714060
20281475 54 9799424359496400386
20645476 183 17346590889763181199
20645477 70 18272091543864184102
21486144 27 18409726291798751348
21639500 275 18201997780756620176
22096605 113 18342449391461287247
22892500 29 18411979152796425924
231179 274 18408603664999827504
23175994 123 18267310833189280118
23402655 69 18201721734381181812
23557571 272 17968107464051843643
23559900 14 17458628865312263930
25 1 18410857659584141918
27216 239 17900253414245935993
3060560 45 18060421283604477030
3082319 5 16917067780257608188
3524813 1 18260821583870367876
474 4 18200306757706500504
6049 1 18188503452799652370
7364860 26 17751350686371049682
74978 22 18130788983804342094
77492 1 16917075446742784522
81228 2 17536038005791699930
90316 7 15430307040809132151
9971528 1 17846498089712419558

>  <PUBCHEM_SHAPE_MULTIPOLES>  (1) 
299.71
7.63
1.89
1.1
2.88
1
0.01
2.63
0.99
-1.95
-0.25
0.6
-0.03
1.05

>  <PUBCHEM_SHAPE_SELFOVERLAP>  (1) 
639.258

>  <PUBCHEM_SHAPE_VOLUME>  (1) 
167.8

>  <PUBCHEM_COORDINATE_TYPE>  (1) 
2
5
10

$$$$
