41979
     RDKit          3D

 16 17  0  0  0  0  0  0  0  0999 V2000
   -3.2262    1.9393   -0.1890 O   0  0  0  0  0  0  0  0  0  0  0  0
   -4.7299    0.0906    0.1701 O   0  0  0  0  0  0  0  0  0  0  0  0
    3.4756   -1.5386   -0.3396 O   0  0  0  0  0  0  0  0  0  0  0  0
   -2.5707    0.7503   -0.0955 C   0  0  0  0  0  0  0  0  0  0  0  0
    4.0764    0.7453    0.1723 C   0  0  0  0  0  0  0  0  0  0  0  0
   -0.7337   -0.7301   -0.0630 C   0  0  0  0  0  0  0  0  0  0  0  0
   -3.4293   -0.3053    0.1096 C   0  0  0  0  0  0  0  0  0  0  0  0
    5.5335    0.3152    0.0205 C   0  0  0  0  0  0  0  0  0  0  0  0
   -1.2059    0.5689   -0.1873 C   0  0  0  0  0  0  0  0  0  0  0  0
   -1.5927   -1.8118    0.1454 C   0  0  0  0  0  0  0  0  0  0  0  0
   -2.9707   -1.6005    0.2344 C   0  0  0  0  0  0  0  0  0  0  0  0
    3.1067   -0.3981   -0.0725 C   0  0  0  0  0  0  0  0  0  0  0  0
    0.7163   -0.9770   -0.1535 C   0  0  0  0  0  0  0  0  0  0  0  0
   -4.5939    1.5136   -0.0202 C   0  0  0  0  0  0  0  0  0  0  0  0
    1.6602   -0.0433    0.0313 C   0  0  0  0  0  0  0  0  0  0  0  0
    6.4842    1.4812    0.2370 C   0  0  0  0  0  0  0  0  0  0  0  0
  1  4  1  0
  1 14  1  0
  2  7  1  0
  2 14  1  0
  3 12  2  0
  4  7  2  0
  4  9  1  0
  5  8  1  0
  5 12  1  0
  6  9  2  0
  6 10  1  0
  6 13  1  0
  7 11  1  0
  8 16  1  0
 10 11  2  0
 12 15  1  0
 13 15  2  0
M  END
>  <PUBCHEM_COMPOUND_CID>  (1) 
41979

>  <PUBCHEM_CONFORMER_RMSD>  (1) 
0.6

>  <PUBCHEM_CONFORMER_DIVERSEORDER>  (1) 
1
19
13
25
29
37
3
26
8
34
9
6
30
36
4
22
12
10
7
5
16
11
20
21
2
27
24
23
17
18
35
14
15
28
31
33
32

>  <PUBCHEM_MMFF94_PARTIAL_CHARGES>  (1) 
19
1 -0.36
10 -0.15
11 -0.15
12 0.49
13 -0.18
14 0.56
15 -0.14
2 -0.36
21 0.15
22 0.15
23 0.15
24 0.15
27 0.15
3 -0.57
4 0.08
5 0.06
6 0.03
7 0.08
9 -0.15

>  <PUBCHEM_EFFECTIVE_ROTOR_COUNT>  (1) 
4.6

>  <PUBCHEM_PHARMACOPHORE_FEATURES>  (1) 
6
1 1 acceptor
1 16 hydrophobe
1 2 acceptor
1 3 acceptor
5 1 2 4 7 14 rings
6 4 6 7 9 10 11 rings

>  <PUBCHEM_HEAVY_ATOM_COUNT>  (1) 
16

>  <PUBCHEM_ATOM_DEF_STEREO_COUNT>  (1) 
0

>  <PUBCHEM_ATOM_UDEF_STEREO_COUNT>  (1) 
0

>  <PUBCHEM_BOND_DEF_STEREO_COUNT>  (1) 
0

>  <PUBCHEM_BOND_UDEF_STEREO_COUNT>  (1) 
1

>  <PUBCHEM_ISOTOPIC_ATOM_COUNT>  (1) 
0

>  <PUBCHEM_COMPONENT_COUNT>  (1) 
1

>  <PUBCHEM_CACTVS_TAUTO_COUNT>  (1) 
2

>  <PUBCHEM_CONFORMER_ID>  (1) 
0000A3FB00000001

>  <PUBCHEM_MMFF94_ENERGY>  (1) 
33.5361

>  <PUBCHEM_FEATURE_SELFOVERLAP>  (1) 
30.602

>  <PUBCHEM_SHAPE_FINGERPRINT>  (1) 
10014705 185 18410009935691683333
10411042 1 17689436405217565739
11128504 68 13901904544716024320
12107183 9 17757541955105960154
12236239 1 17603583036810484898
12390115 104 18128269900013478649
12596602 18 17095241440769064320
13214271 11 18412544336059111567
13897977 58 18335421278845467389
14252887 29 14418124094510852208
15048467 5 18413108355222116496
15196674 1 18410856529643830654
15501527 16 18412546526502910416
20281389 69 18334010588664178848
20645477 56 18410292518775224603
20645477 70 17346325839126772686
23402539 116 18412538829657733102
23402655 69 18060417997832785860
23557571 272 18200882875834277502
23559900 14 18342739564512072614
245318 6 16809843570265110420
26918003 58 12179841701792996342
2916195 48 18271238439406143768
300161 21 18334570239934705470
3545911 37 18412829088322501204
4214541 1 18410012135026162218
441001 317 18411699898222926560
5104073 3 18261678077616157234
542803 24 17203613683437183386
7062679 6 18334581256789927836
77779 3 18410294709704697046

>  <PUBCHEM_SHAPE_MULTIPOLES>  (1) 
311.66
12.95
1.78
0.62
16.39
0.01
0.01
6.14
0.81
-1.02
0
0.05
-0.01
0.44

>  <PUBCHEM_SHAPE_SELFOVERLAP>  (1) 
657.797

>  <PUBCHEM_SHAPE_VOLUME>  (1) 
175.9

>  <PUBCHEM_COORDINATE_TYPE>  (1) 
2
5
10

$$$$
