41976
     RDKit          3D

  9  8  0  0  1  0  0  0  0  0999 V2000
   -0.3429    0.3385   -0.4449 C   0  0  0  0  0  0  0  0  0  0  0  0
   -1.7026   -0.3534   -0.0998 C   0  0  0  0  0  0  0  0  0  0  0  0
    0.8982   -0.4718    0.0560 C   0  0  0  0  0  0  0  0  0  0  0  0
   -0.2916    1.7913    0.0583 C   0  0  0  0  0  0  0  0  0  0  0  0
   -2.9022    0.4276   -0.6525 C   0  0  0  0  0  0  0  0  0  0  0  0
   -1.9043   -0.6094    1.3965 C   0  0  0  0  0  0  0  0  0  0  0  0
    0.9163   -1.9097   -0.4819 C   0  0  0  0  0  0  0  0  0  0  0  0
    2.1993    0.1848   -0.3492 C   0  0  0  0  0  0  0  0  0  0  0  0
    3.1297    0.6022    0.5174 C   0  0  0  0  0  0  0  0  0  0  0  0
  1  2  1  0
  1  3  1  0
  1  4  1  0
  2  5  1  0
  2  6  1  0
  3  7  1  0
  3  8  1  0
  8  9  2  0
M  END
>  <PUBCHEM_COMPOUND_CID>  (1) 
41976

>  <PUBCHEM_CONFORMER_RMSD>  (1) 
0.6

>  <PUBCHEM_CONFORMER_DIVERSEORDER>  (1) 
4
17
20
11
14
2
7
16
15
5
9
21
18
6
10
12
13
3
19
8
1

>  <PUBCHEM_MMFF94_PARTIAL_CHARGES>  (1) 
6
25 0.15
26 0.15
27 0.15
3 0.14
8 -0.29
9 -0.3

>  <PUBCHEM_EFFECTIVE_ROTOR_COUNT>  (1) 
3

>  <PUBCHEM_PHARMACOPHORE_FEATURES>  (1) 
5
1 4 hydrophobe
1 7 hydrophobe
1 9 hydrophobe
3 2 5 6 hydrophobe
4 1 2 3 8 hydrophobe

>  <PUBCHEM_HEAVY_ATOM_COUNT>  (1) 
9

>  <PUBCHEM_ATOM_DEF_STEREO_COUNT>  (1) 
0

>  <PUBCHEM_ATOM_UDEF_STEREO_COUNT>  (1) 
2

>  <PUBCHEM_BOND_DEF_STEREO_COUNT>  (1) 
0

>  <PUBCHEM_BOND_UDEF_STEREO_COUNT>  (1) 
0

>  <PUBCHEM_ISOTOPIC_ATOM_COUNT>  (1) 
0

>  <PUBCHEM_COMPONENT_COUNT>  (1) 
1

>  <PUBCHEM_CACTVS_TAUTO_COUNT>  (1) 
1

>  <PUBCHEM_CONFORMER_ID>  (1) 
0000A3F800000004

>  <PUBCHEM_MMFF94_ENERGY>  (1) 
15.5321

>  <PUBCHEM_FEATURE_SELFOVERLAP>  (1) 
25.829

>  <PUBCHEM_SHAPE_FINGERPRINT>  (1) 
10219947 1 18412263964651469444
10857977 72 18262520406654729280
11062470 55 18113330912350565397
12897270 3 18341049635981592564
14325111 11 18412258463120071246
14390081 3 18343016675068560109
16945 1 18411989069527772020
20201158 50 18334009480287946127
21040471 1 18340206396742145518
21061003 4 18339095876738799513
21922407 69 16988286352561161963
23235685 24 18335413565094779356
23402539 116 17313928797670175039
23552423 10 18120377557729285447
29004967 10 18336838545059711515
369184 2 16443062811343730524
5084963 1 17775562031440835408

>  <PUBCHEM_SHAPE_MULTIPOLES>  (1) 
185.22
4.11
1.54
0.97
0.72
0.14
-0.26
-0.6
-0.25
0.26
0.12
-0.41
0.13
0.45

>  <PUBCHEM_SHAPE_SELFOVERLAP>  (1) 
334.418

>  <PUBCHEM_SHAPE_VOLUME>  (1) 
122.1

>  <PUBCHEM_COORDINATE_TYPE>  (1) 
2
5
10

$$$$
