41970
     RDKit          3D

 19 19  0  0  0  0  0  0  0  0999 V2000
    3.0138   -2.6583   -0.0137 O   0  0  0  0  0  0  0  0  0  0  0  0
    4.0013    2.0110   -0.1026 O   0  0  0  0  0  0  0  0  0  0  0  0
   -3.8167   -0.1556   -0.2131 C   0  0  0  0  0  0  0  0  0  0  0  0
   -2.9140    1.0813   -0.2681 C   0  0  0  0  0  0  0  0  0  0  0  0
   -5.2881    0.2393   -0.0686 C   0  0  0  0  0  0  0  0  0  0  0  0
   -1.4464    0.7168   -0.4439 C   0  0  0  0  0  0  0  0  0  0  0  0
   -6.1941   -0.9916   -0.0458 C   0  0  0  0  0  0  0  0  0  0  0  0
   -0.5781    0.5527    0.5842 C   0  0  0  0  0  0  0  0  0  0  0  0
    0.8496    0.2465    0.3597 C   0  0  0  0  0  0  0  0  0  0  0  0
   -1.0269    0.6004   -1.8912 C   0  0  0  0  0  0  0  0  0  0  0  0
   -0.9360    0.6769    2.0427 C   0  0  0  0  0  0  0  0  0  0  0  0
   -7.6596   -0.6025    0.0652 C   0  0  0  0  0  0  0  0  0  0  0  0
    1.7514    1.2883    0.2346 C   0  0  0  0  0  0  0  0  0  0  0  0
    1.2516   -1.0749    0.2799 C   0  0  0  0  0  0  0  0  0  0  0  0
    2.5997   -1.3643    0.0679 C   0  0  0  0  0  0  0  0  0  0  0  0
    3.0995    0.9991    0.0227 C   0  0  0  0  0  0  0  0  0  0  0  0
    3.5237   -0.3271   -0.0606 C   0  0  0  0  0  0  0  0  0  0  0  0
    4.4059   -2.8820   -0.2316 C   0  0  0  0  0  0  0  0  0  0  0  0
    5.3632    1.6439   -0.3177 C   0  0  0  0  0  0  0  0  0  0  0  0
  1 15  1  0
  1 18  1  0
  2 16  1  0
  2 19  1  0
  3  4  1  0
  3  5  1  0
  4  6  1  0
  5  7  1  0
  6  8  2  0
  6 10  1  0
  7 12  1  0
  8  9  1  0
  8 11  1  0
  9 13  2  0
  9 14  1  0
 13 16  1  0
 14 15  2  0
 15 17  1  0
 16 17  2  0
M  END
>  <PUBCHEM_COMPOUND_CID>  (1) 
41970

>  <PUBCHEM_CONFORMER_RMSD>  (1) 
0.8

>  <PUBCHEM_CONFORMER_DIVERSEORDER>  (1) 
2
18
17
14
15
16
9
10
3
4
7
5
19
6
11
13
8
12
1

>  <PUBCHEM_MMFF94_PARTIAL_CHARGES>  (1) 
18
1 -0.36
10 0.14
11 0.14
13 -0.15
14 -0.15
15 0.08
16 0.08
17 -0.15
18 0.28
19 0.28
2 -0.36
37 0.15
38 0.15
39 0.15
4 0.14
6 -0.28
8 -0.17
9 0.03

>  <PUBCHEM_EFFECTIVE_ROTOR_COUNT>  (1) 
7

>  <PUBCHEM_PHARMACOPHORE_FEATURES>  (1) 
7
1 1 acceptor
1 10 hydrophobe
1 11 hydrophobe
1 12 hydrophobe
1 2 acceptor
5 3 4 5 6 7 hydrophobe
6 9 13 14 15 16 17 rings

>  <PUBCHEM_HEAVY_ATOM_COUNT>  (1) 
19

>  <PUBCHEM_ATOM_DEF_STEREO_COUNT>  (1) 
0

>  <PUBCHEM_ATOM_UDEF_STEREO_COUNT>  (1) 
0

>  <PUBCHEM_BOND_DEF_STEREO_COUNT>  (1) 
0

>  <PUBCHEM_BOND_UDEF_STEREO_COUNT>  (1) 
1

>  <PUBCHEM_ISOTOPIC_ATOM_COUNT>  (1) 
0

>  <PUBCHEM_COMPONENT_COUNT>  (1) 
1

>  <PUBCHEM_CACTVS_TAUTO_COUNT>  (1) 
1

>  <PUBCHEM_CONFORMER_ID>  (1) 
0000A3F200000002

>  <PUBCHEM_MMFF94_ENERGY>  (1) 
60.71

>  <PUBCHEM_FEATURE_SELFOVERLAP>  (1) 
35.523

>  <PUBCHEM_SHAPE_FINGERPRINT>  (1) 
12107183 9 17838625453123829273
12236239 1 17846786191001060240
12553582 1 16343694422382742141
12730499 353 18410295852018181432
12788726 201 17275113803631418707
12916754 54 18338517413363446313
13009979 54 17487621814995941714
13073987 5 18343584019364518641
13533116 47 18343582936832124515
13760787 19 18131066077961591605
13955234 65 18342449361881826392
14022347 108 15698002954801071760
14251764 18 17988928886578727755
14350574 20 18334859363984731598
15537594 2 18060414755327929463
17492 89 18198342844960286494
17834072 33 18342173393185128957
17844677 252 18337677417161989461
19784866 240 18199473168683365967
200 152 18272650112744624369
20554085 129 17987788748739761680
20645477 70 18336544932716672266
21065198 48 18272939289204631073
21267235 1 18271529697943970534
21315764 268 10303818666341409371
21344244 181 17560256790146309342
21344244 246 18270978843357200214
220451 1 18060137674408535583
22224240 67 18189047754253371000
23402539 116 16660920101316897321
23557571 272 17458338624212298669
239999 70 18408602526623101690
2871803 45 17967530147654376323
3004659 81 18336264552824954707
312423 11 17987526926720721256
3286 77 18262799553933212934
33382 64 18413109438118358131
4073 2 18114749334486291731
42630746 31 18411699890033743070
4325135 7 18408322215444832669
4340502 62 18340482360975031066
465052 167 18131634487214344863
5104073 3 18129938971211286697
54040823 5 18202284714367751680
59755656 215 18334019402179442558
6025842 7 18411419518658126702
621550 34 18187355550044793764
6327066 14 17899988424266798524
77779 3 18410572847518237981
7970288 3 17979634529020191630

>  <PUBCHEM_SHAPE_MULTIPOLES>  (1) 
379.27
14.3
2.18
1.09
23.65
1.48
0.1
3.45
-1.07
-4.27
-0.13
0.38
-0.29
0.03

>  <PUBCHEM_SHAPE_SELFOVERLAP>  (1) 
759.431

>  <PUBCHEM_SHAPE_VOLUME>  (1) 
226.2

>  <PUBCHEM_COORDINATE_TYPE>  (1) 
2
5
10

$$$$
