41973
     RDKit          3D

 15 16  0  0  0  0  0  0  0  0999 V2000
    2.3635    2.5060    0.5054 Cl  0  0  0  0  0  0  0  0  0  0  0  0
    0.3318    0.8484   -0.9662 O   0  0  0  0  0  0  0  0  0  0  0  0
   -4.7061   -0.6297    0.8669 N   0  0  0  0  0  0  0  0  0  0  0  0
   -0.9009    0.4858   -0.5179 C   0  0  0  0  0  0  0  0  0  0  0  0
    1.4247    0.1501   -0.4805 C   0  0  0  0  0  0  0  0  0  0  0  0
   -1.9580    0.3486   -1.4176 C   0  0  0  0  0  0  0  0  0  0  0  0
   -1.1076    0.2527    0.8418 C   0  0  0  0  0  0  0  0  0  0  0  0
   -3.4286   -0.2545    0.4017 C   0  0  0  0  0  0  0  0  0  0  0  0
   -3.2219   -0.0214   -0.9578 C   0  0  0  0  0  0  0  0  0  0  0  0
   -2.3715   -0.1175    1.3016 C   0  0  0  0  0  0  0  0  0  0  0  0
    2.4264    0.8073    0.2122 C   0  0  0  0  0  0  0  0  0  0  0  0
    1.4784   -1.2141   -0.7111 C   0  0  0  0  0  0  0  0  0  0  0  0
    3.5157    0.0782    0.6895 C   0  0  0  0  0  0  0  0  0  0  0  0
    2.5678   -1.9430   -0.2341 C   0  0  0  0  0  0  0  0  0  0  0  0
    3.5864   -1.2969    0.4661 C   0  0  0  0  0  0  0  0  0  0  0  0
  1 11  1  0
  2  4  1  0
  2  5  1  0
  3  8  1  0
  4  6  2  0
  4  7  1  0
  5 11  2  0
  5 12  1  0
  6  9  1  0
  7 10  2  0
  8  9  2  0
  8 10  1  0
 11 13  1  0
 12 14  2  0
 13 15  2  0
 14 15  1  0
M  END
>  <PUBCHEM_COMPOUND_CID>  (1) 
41973

>  <PUBCHEM_CONFORMER_RMSD>  (1) 
0.6

>  <PUBCHEM_CONFORMER_DIVERSEORDER>  (1) 
2
1
5
7
3
4
6

>  <PUBCHEM_MMFF94_PARTIAL_CHARGES>  (1) 
25
1 -0.18
10 -0.15
11 0.18
12 -0.15
13 -0.15
14 -0.15
15 -0.15
16 0.15
17 0.15
18 0.15
19 0.15
2 -0.17
20 0.15
21 0.15
22 0.15
23 0.15
24 0.4
25 0.4
3 -0.9
4 0.08
5 0.08
6 -0.15
7 -0.15
8 0.1
9 -0.15

>  <PUBCHEM_EFFECTIVE_ROTOR_COUNT>  (1) 
2

>  <PUBCHEM_PHARMACOPHORE_FEATURES>  (1) 
5
1 2 acceptor
1 3 cation
1 3 donor
6 4 6 7 8 9 10 rings
6 5 11 12 13 14 15 rings

>  <PUBCHEM_HEAVY_ATOM_COUNT>  (1) 
15

>  <PUBCHEM_ATOM_DEF_STEREO_COUNT>  (1) 
0

>  <PUBCHEM_ATOM_UDEF_STEREO_COUNT>  (1) 
0

>  <PUBCHEM_BOND_DEF_STEREO_COUNT>  (1) 
0

>  <PUBCHEM_BOND_UDEF_STEREO_COUNT>  (1) 
0

>  <PUBCHEM_ISOTOPIC_ATOM_COUNT>  (1) 
0

>  <PUBCHEM_COMPONENT_COUNT>  (1) 
1

>  <PUBCHEM_CACTVS_TAUTO_COUNT>  (1) 
1

>  <PUBCHEM_CONFORMER_ID>  (1) 
0000A3F500000002

>  <PUBCHEM_MMFF94_ENERGY>  (1) 
58.9429

>  <PUBCHEM_FEATURE_SELFOVERLAP>  (1) 
25.371

>  <PUBCHEM_SHAPE_FINGERPRINT>  (1) 
10465860 71 15864362302462788534
10751810 167 14562533959665197315
11132069 177 14908180854705217889
11471102 22 18410288103944535204
11582403 64 16095078436583719716
12251169 10 18202282502501766246
13296908 3 17821727230198058645
13538477 17 16917058997044213381
13764800 53 13973966510698661655
14252887 29 17968384527901878129
14289901 80 18272088335707665017
14787075 74 16405599396447921764
15219456 202 18187357744477500716
15375462 189 17703788150004961939
15501101 241 18407758136284414148
15775835 57 16271924913276005226
16752209 62 15647044967799920673
16945 1 18342171168228480972
1813 80 17773332145046277654
18186145 218 18131631196630917188
19049666 15 17970052358023461772
19050596 39 17489303105212558979
19141452 34 18114470041558812483
19862831 5 13479140085498924715
200 152 18201424866510558445
20201158 50 18113898225938089834
20279233 1 17967530159948375823
204376 136 18123745624387177744
20559304 39 17489875920848251656
20645477 70 18339627967499892495
21639500 275 18270667792233180156
21730867 7 18410292527660597286
2255824 54 18272653484811059148
23402539 116 16298376942558119199
23557571 272 17240479230111306397
23559900 14 17023173904208471068
26918003 58 18412261722958252475
31174 14 18409448106941270432
3286 77 18334860502082135914
474 4 17843952870159551368
57812782 119 18113611274777693982
6049 1 18114176410911998765
77492 1 17346309427397078277
81228 2 17532932701381439581

>  <PUBCHEM_SHAPE_MULTIPOLES>  (1) 
299.71
7.37
1.69
1.21
3.93
0.49
0.05
-1.53
-1.9
-2.3
-0.08
0.85
0.02
0.32

>  <PUBCHEM_SHAPE_SELFOVERLAP>  (1) 
639.398

>  <PUBCHEM_SHAPE_VOLUME>  (1) 
167.5

>  <PUBCHEM_COORDINATE_TYPE>  (1) 
2
5
10

$$$$
