4197
     RDKit          3D

 16 17  0  0  0  0  0  0  0  0999 V2000
   -3.8127   -1.1334    0.0002 O   0  0  0  0  0  0  0  0  0  0  0  0
   -1.6071   -1.7829    0.0002 N   0  0  0  0  0  0  0  0  0  0  0  0
    4.2945    0.7462    0.0002 N   0  0  0  0  0  0  0  0  0  0  0  0
   -3.9076    2.4975    0.0001 N   0  0  0  0  0  0  0  0  0  0  0  0
    0.1529   -0.2051   -0.0003 C   0  0  0  0  0  0  0  0  0  0  0  0
   -0.2543   -1.4946    0.0002 C   0  0  0  0  0  0  0  0  0  0  0  0
    1.5749    0.1220   -0.0002 C   0  0  0  0  0  0  0  0  0  0  0  0
   -0.8575    0.8452   -0.0002 C   0  0  0  0  0  0  0  0  0  0  0  0
   -2.1730    0.5855   -0.0001 C   0  0  0  0  0  0  0  0  0  0  0  0
    0.6369   -2.7059    0.0005 C   0  0  0  0  0  0  0  0  0  0  0  0
   -2.6189   -0.8402   -0.0005 C   0  0  0  0  0  0  0  0  0  0  0  0
    2.2501    0.2774    1.2025 C   0  0  0  0  0  0  0  0  0  0  0  0
    2.2505    0.2767   -1.2027 C   0  0  0  0  0  0  0  0  0  0  0  0
    3.5996    0.5870    1.1488 C   0  0  0  0  0  0  0  0  0  0  0  0
    3.6000    0.5865   -1.1487 C   0  0  0  0  0  0  0  0  0  0  0  0
   -3.1282    1.6382    0.0000 C   0  0  0  0  0  0  0  0  0  0  0  0
  1 11  2  0
  2  6  1  0
  2 11  1  0
  3 14  2  0
  3 15  1  0
  4 16  3  0
  5  6  2  0
  5  7  1  0
  5  8  1  0
  6 10  1  0
  7 12  2  0
  7 13  1  0
  8  9  2  0
  9 11  1  0
  9 16  1  0
 12 14  1  0
 13 15  2  0
M  END
>  <PUBCHEM_COMPOUND_CID>  (1) 
4197

>  <PUBCHEM_CONFORMER_RMSD>  (1) 
0.6

>  <PUBCHEM_CONFORMER_DIVERSEORDER>  (1) 
1

>  <PUBCHEM_MMFF94_PARTIAL_CHARGES>  (1) 
22
1 -0.57
10 0.14
11 0.62
12 -0.15
13 -0.15
14 0.16
15 0.16
16 0.49
17 0.15
18 0.37
2 -0.54
22 0.15
23 0.15
24 0.15
25 0.15
3 -0.62
4 -0.56
5 -0.03
6 -0.03
7 0.03
8 -0.15
9 0.08

>  <PUBCHEM_EFFECTIVE_ROTOR_COUNT>  (1) 
1

>  <PUBCHEM_PHARMACOPHORE_FEATURES>  (1) 
6
1 1 acceptor
1 2 donor
1 3 acceptor
1 4 acceptor
6 2 5 6 8 9 11 rings
6 3 7 12 13 14 15 rings

>  <PUBCHEM_HEAVY_ATOM_COUNT>  (1) 
16

>  <PUBCHEM_ATOM_DEF_STEREO_COUNT>  (1) 
0

>  <PUBCHEM_ATOM_UDEF_STEREO_COUNT>  (1) 
0

>  <PUBCHEM_BOND_DEF_STEREO_COUNT>  (1) 
0

>  <PUBCHEM_BOND_UDEF_STEREO_COUNT>  (1) 
0

>  <PUBCHEM_ISOTOPIC_ATOM_COUNT>  (1) 
0

>  <PUBCHEM_COMPONENT_COUNT>  (1) 
1

>  <PUBCHEM_CACTVS_TAUTO_COUNT>  (1) 
3

>  <PUBCHEM_CONFORMER_ID>  (1) 
0000106500000001

>  <PUBCHEM_MMFF94_ENERGY>  (1) 
43.146

>  <PUBCHEM_FEATURE_SELFOVERLAP>  (1) 
30.446

>  <PUBCHEM_SHAPE_FINGERPRINT>  (1) 
10465860 228 18191870024223057920
10498660 4 18411982429661878285
10608611 8 18201716310064567800
10646746 165 18413668011157122344
11132069 177 18334012765896080421
11725454 13 16842716570968418272
12173636 292 18338233898488150100
12236239 1 17676481796093513360
12500047 106 18342454863829942566
13140716 1 17977107078600172363
13380535 21 18339649915114882411
13538477 17 17824539901433453266
13581323 91 18337103574902148770
13764800 53 18411707560529108801
14614273 12 18260821584249597903
14897335 6 18338511924838178325
15042514 8 18121221136741511123
15219456 202 17918278649273909950
15775835 57 18261392226194332792
16752209 62 18337950189943971683
16945 1 18338516451639009543
17357990 137 17822304491235776668
1741750 31 18270120106851939817
18186145 218 17846226544077657240
19422 9 17822006532185133266
200 152 15792002432873841571
20510252 161 18271811262835237921
20645477 70 16558482928437311932
20671657 1 18051415063401688803
21501502 16 18337666400370382579
21524375 3 18261107465504233083
23048698 100 16878217662340373310
23366157 5 17969786267609601514
23402539 116 18269826670011391502
23557571 272 18201727279120839412
23559900 14 18201726124744944428
2748010 2 18266187140964179959
276578 36 18336829680431822480
305870 269 18336825295054351098
3268164 11 18272079535383057221
350125 39 17689722956623528445
43471831 8 18335416863545870938
633830 44 18202559553804879380
69090 78 17489305351296066191
7364860 26 18054788382076512590
77492 1 17676201420554570948
81228 2 17551505973989125514

>  <PUBCHEM_SHAPE_MULTIPOLES>  (1) 
308.46
7.19
2.15
0.96
0.41
0.78
0
-3.7
0
-1.99
0
1.06
-0.16
0

>  <PUBCHEM_SHAPE_SELFOVERLAP>  (1) 
667.99

>  <PUBCHEM_SHAPE_VOLUME>  (1) 
166.2

>  <PUBCHEM_COORDINATE_TYPE>  (1) 
2
5
10

$$$$
