41981
     RDKit          3D

 19 20  0  0  0  0  0  0  0  0999 V2000
   -4.0910   -2.2055   -0.0042 O   0  0  0  0  0  0  0  0  0  0  0  0
   -5.8759   -0.5871   -0.0563 O   0  0  0  0  0  0  0  0  0  0  0  0
    2.0180    2.2028    0.3314 O   0  0  0  0  0  0  0  0  0  0  0  0
    4.2851    0.8096   -0.3101 C   0  0  0  0  0  0  0  0  0  0  0  0
    2.9246    0.1366   -0.4779 C   0  0  0  0  0  0  0  0  0  0  0  0
   -3.6294   -0.9256    0.0236 C   0  0  0  0  0  0  0  0  0  0  0  0
   -2.0409    0.8193    0.0945 C   0  0  0  0  0  0  0  0  0  0  0  0
   -4.6486   -0.0014   -0.0063 C   0  0  0  0  0  0  0  0  0  0  0  0
   -2.3046   -0.5438    0.0747 C   0  0  0  0  0  0  0  0  0  0  0  0
    5.4171   -0.0902   -0.7247 C   0  0  0  0  0  0  0  0  0  0  0  0
    1.7937    1.0688   -0.0866 C   0  0  0  0  0  0  0  0  0  0  0  0
   -3.0657    1.7690    0.0647 C   0  0  0  0  0  0  0  0  0  0  0  0
   -4.3992    1.3556    0.0133 C   0  0  0  0  0  0  0  0  0  0  0  0
    6.1622   -0.8966    0.0549 C   0  0  0  0  0  0  0  0  0  0  0  0
   -0.6428    1.2780    0.1482 C   0  0  0  0  0  0  0  0  0  0  0  0
    0.4099    0.5249   -0.1991 C   0  0  0  0  0  0  0  0  0  0  0  0
   -5.5153   -1.9835   -0.0537 C   0  0  0  0  0  0  0  0  0  0  0  0
    7.2833   -1.7735   -0.4259 C   0  0  0  0  0  0  0  0  0  0  0  0
    5.9196   -0.9572    1.5395 C   0  0  0  0  0  0  0  0  0  0  0  0
  1  6  1  0
  1 17  1  0
  2  8  1  0
  2 17  1  0
  3 11  2  0
  4  5  1  0
  4 10  1  0
  5 11  1  0
  6  8  2  0
  6  9  1  0
  7  9  2  0
  7 12  1  0
  7 15  1  0
  8 13  1  0
 10 14  2  3
 11 16  1  0
 12 13  2  0
 14 18  1  0
 14 19  1  0
 15 16  2  0
M  END
>  <PUBCHEM_COMPOUND_CID>  (1) 
41981

>  <PUBCHEM_CONFORMER_RMSD>  (1) 
0.8

>  <PUBCHEM_CONFORMER_DIVERSEORDER>  (1) 
1
45
75
63
8
11
78
7
17
76
82
84
58
87
16
46
60
85
31
96
77
71
44
81
23
4
48
88
30
68
25
86
94
33
72
89
20
70
73
14
32
83
2
64
22
3
5
95
36
97
62
51
10
56
49
41
66
13
40
9
26
65
15
19
37
91
35
52
79
18
61
67
47
57
24
28
34
21
42
69
90
74
39
55
6
54
29
27
50
59
12
93
38
92
43
53
80

>  <PUBCHEM_MMFF94_PARTIAL_CHARGES>  (1) 
25
1 -0.36
10 -0.29
11 0.49
12 -0.15
13 -0.15
14 -0.28
15 -0.18
16 -0.14
17 0.56
18 0.14
19 0.14
2 -0.36
24 0.15
25 0.15
26 0.15
27 0.15
28 0.15
29 0.15
3 -0.57
4 0.14
5 0.06
6 0.08
7 0.03
8 0.08
9 -0.15

>  <PUBCHEM_EFFECTIVE_ROTOR_COUNT>  (1) 
5.6

>  <PUBCHEM_PHARMACOPHORE_FEATURES>  (1) 
6
1 1 acceptor
1 2 acceptor
1 3 acceptor
3 14 18 19 hydrophobe
5 1 2 6 8 17 rings
6 6 7 8 9 12 13 rings

>  <PUBCHEM_HEAVY_ATOM_COUNT>  (1) 
19

>  <PUBCHEM_ATOM_DEF_STEREO_COUNT>  (1) 
0

>  <PUBCHEM_ATOM_UDEF_STEREO_COUNT>  (1) 
0

>  <PUBCHEM_BOND_DEF_STEREO_COUNT>  (1) 
0

>  <PUBCHEM_BOND_UDEF_STEREO_COUNT>  (1) 
1

>  <PUBCHEM_ISOTOPIC_ATOM_COUNT>  (1) 
0

>  <PUBCHEM_COMPONENT_COUNT>  (1) 
1

>  <PUBCHEM_CACTVS_TAUTO_COUNT>  (1) 
2

>  <PUBCHEM_CONFORMER_ID>  (1) 
0000A3FD00000001

>  <PUBCHEM_MMFF94_ENERGY>  (1) 
40.2712

>  <PUBCHEM_FEATURE_SELFOVERLAP>  (1) 
30.602

>  <PUBCHEM_SHAPE_FINGERPRINT>  (1) 
10319926 262 18272642441938724593
10378564 45 11602810273823857880
10595046 47 18334302006627628988
106641 1 9511460066203044517
11315181 36 18341617009693748161
11524674 6 17203890764578442279
11545043 162 18131064926836834760
11578080 2 16879894263466099983
117890 112 10087640399416588652
12166972 35 18186525418903167836
12236239 1 18113338617421771596
12596602 18 18059855056864906288
13167823 11 18408603682079521868
13288520 33 18410294718373668589
13533116 47 18337392751045754752
13668630 136 18335423435715849582
13685833 64 18411140255172614672
13862211 1 18411139134581867206
14123256 34 18411706474197768678
14211702 104 18272098149861495406
14251751 18 18272650181659468106
14251752 14 17749100059140938589
14251764 18 18259703411542821286
14347332 77 17894902993455241852
14556957 393 15647348372953823814
14848160 23 18131348596942454504
15048467 5 9583519811027920614
15183329 4 17167861950759124194
15348495 7 17203317953659501570
15706992 2 14562806596786130527
15716309 27 17989204850067951228
17492 89 18120376720664395119
17844677 252 18412552019735057008
17857418 61 18260264140476028258
18222031 100 17530961402214389012
20028762 73 18411981352305770502
20374829 77 18410012143426413653
20526848 3 10015577320863991058
21150785 3 14923951162830498146
21267235 1 18335145319234434451
21623969 137 17418097590253527710
220451 1 18187371987153387648
22061861 79 15213017125091154074
23035841 295 18408888434200597555
23081809 10 17967541155597644164
23198884 109 15936408940318459261
23402539 116 18334857203653137661
23522609 53 18121534381475480084
23559900 14 18339355396349439417
25122255 55 18271254837364679822
2916195 48 9367343726163459572
3004659 81 18259706692781745516
335352 9 18409729548275817269
351380 3 18408039607140204506
4073 2 17969508297995610952
4214541 1 18411703184063149765
465052 167 18273498962451102212
5104073 3 18130511923948744849
531348 171 17604418584048627317
542803 24 10807934860218410324
559249 180 18409448059896810957
5718773 13 18199464532037286887
57483677 66 18334012791992665336
59682541 35 18201424893340574906
59682541 52 14346059903192219872
59755656 520 16588031195422322641
6138700 20 18408605838100811642
7495541 125 18202283641016610200

>  <PUBCHEM_SHAPE_MULTIPOLES>  (1) 
373.4
18.73
2.06
0.8
19.07
0.29
-0.17
11.22
-0.1
-1.37
-0.06
1.08
0.11
-0.3

>  <PUBCHEM_SHAPE_SELFOVERLAP>  (1) 
780.913

>  <PUBCHEM_SHAPE_VOLUME>  (1) 
212.3

>  <PUBCHEM_COORDINATE_TYPE>  (1) 
2
5
10

$$$$
