41983
     RDKit          3D

 20 21  0  0  0  0  0  0  0  0999 V2000
    0.6222   -1.9812    1.3615 O   0  0  0  0  0  0  0  0  0  0  0  0
   -1.4444   -2.3183    0.4084 N   0  0  0  0  0  0  0  0  0  0  0  0
    0.0545   -0.3580   -0.3545 C   0  0  0  0  0  0  0  0  0  0  0  0
    1.5139    0.1237   -0.0603 C   0  0  0  0  0  0  0  0  0  0  0  0
   -0.9798    0.7619   -0.0791 C   0  0  0  0  0  0  0  0  0  0  0  0
   -0.2324   -1.6238    0.5371 C   0  0  0  0  0  0  0  0  0  0  0  0
    2.5161   -0.7790   -0.2328 C   0  0  0  0  0  0  0  0  0  0  0  0
   -1.2931    1.6099   -1.1045 C   0  0  0  0  0  0  0  0  0  0  0  0
    1.6762    1.4107    0.3474 C   0  0  0  0  0  0  0  0  0  0  0  0
   -1.5206    0.8394    1.1739 C   0  0  0  0  0  0  0  0  0  0  0  0
    0.0073   -0.7854   -1.7906 C   0  0  0  0  0  0  0  0  0  0  0  0
    3.8170   -0.3498    0.0300 C   0  0  0  0  0  0  0  0  0  0  0  0
   -2.2241    2.6186   -0.8565 C   0  0  0  0  0  0  0  0  0  0  0  0
    2.9772    1.8400    0.6101 C   0  0  0  0  0  0  0  0  0  0  0  0
   -2.4517    1.8481    1.4220 C   0  0  0  0  0  0  0  0  0  0  0  0
   -1.7822   -3.4881    1.2181 C   0  0  0  0  0  0  0  0  0  0  0  0
   -2.4820   -1.9381   -0.5462 C   0  0  0  0  0  0  0  0  0  0  0  0
    4.0475    0.9598    0.4513 C   0  0  0  0  0  0  0  0  0  0  0  0
   -2.8034    2.7376    0.4068 C   0  0  0  0  0  0  0  0  0  0  0  0
   -0.0181   -1.1279   -2.9424 C   0  0  0  0  0  0  0  0  0  0  0  0
  1  6  2  0
  2  6  1  0
  2 16  1  0
  2 17  1  0
  3  4  1  0
  3  5  1  0
  3  6  1  0
  3 11  1  0
  4  7  2  0
  4  9  1  0
  5  8  2  0
  5 10  1  0
  7 12  1  0
  8 13  1  0
  9 14  2  0
 10 15  2  0
 11 20  3  0
 12 18  2  0
 13 19  2  0
 14 18  1  0
 15 19  1  0
M  END
>  <PUBCHEM_COMPOUND_CID>  (1) 
41983

>  <PUBCHEM_CONFORMER_RMSD>  (1) 
0.6

>  <PUBCHEM_CONFORMER_DIVERSEORDER>  (1) 
1
7
2
6
9
8
5
4
3

>  <PUBCHEM_MMFF94_PARTIAL_CHARGES>  (1) 
31
1 -0.57
10 -0.15
11 -0.2
12 -0.15
13 -0.15
14 -0.15
15 -0.15
16 0.3
17 0.3
18 -0.15
19 -0.15
2 -0.66
20 -0.18
21 0.15
22 0.15
23 0.15
24 0.15
25 0.15
26 0.15
27 0.15
28 0.15
3 0.55
35 0.15
36 0.15
37 0.18
4 -0.14
5 -0.14
6 0.57
7 -0.15
8 -0.15
9 -0.15

>  <PUBCHEM_EFFECTIVE_ROTOR_COUNT>  (1) 
4

>  <PUBCHEM_PHARMACOPHORE_FEATURES>  (1) 
4
1 1 acceptor
1 20 hydrophobe
6 4 7 9 12 14 18 rings
6 5 8 10 13 15 19 rings

>  <PUBCHEM_HEAVY_ATOM_COUNT>  (1) 
20

>  <PUBCHEM_ATOM_DEF_STEREO_COUNT>  (1) 
0

>  <PUBCHEM_ATOM_UDEF_STEREO_COUNT>  (1) 
0

>  <PUBCHEM_BOND_DEF_STEREO_COUNT>  (1) 
0

>  <PUBCHEM_BOND_UDEF_STEREO_COUNT>  (1) 
0

>  <PUBCHEM_ISOTOPIC_ATOM_COUNT>  (1) 
0

>  <PUBCHEM_COMPONENT_COUNT>  (1) 
1

>  <PUBCHEM_CACTVS_TAUTO_COUNT>  (1) 
1

>  <PUBCHEM_CONFORMER_ID>  (1) 
0000A3FF00000001

>  <PUBCHEM_MMFF94_ENERGY>  (1) 
82.6589

>  <PUBCHEM_FEATURE_SELFOVERLAP>  (1) 
20.297

>  <PUBCHEM_SHAPE_FINGERPRINT>  (1) 
10948715 1 18270399360966561381
1100329 8 17903912262710503770
11578080 2 16049069338227635889
12326174 3 17551794720450255413
12403814 3 17630038493450217890
12730499 353 17903357005618775509
12788726 201 18266723835391883963
13004483 165 18194113246993003722
13132413 78 17832714839247609523
13134695 92 17551511472127025911
13140716 1 18119815969364847803
13149001 5 17625577529720725807
14178342 30 18262224617269329256
14223421 5 18267866266923286848
14787075 74 18131632275433073849
14817 1 12948096684058260695
15309172 13 18191870024244605233
15490181 7 18262236590825844738
15906896 17 18343012307076186375
16945 1 18126017184759296762
19765921 60 17985255284079397097
20510252 161 18192424393090258992
20600515 1 17835261299181734427
21501502 16 18409734001840067008
21524375 3 18200584783465828060
21731228 192 18338520716203859657
23402539 116 18270959167547475039
23419403 2 17696739327252000241
23558518 356 18410008853470707662
25 1 18056760923295959900
2748010 2 18046082461987246305
298252 57 17488165016188426556
4340502 62 18199200490607020465
474 4 17773036345504834480
495365 180 17685194098351564501
70251023 43 17843101848265154270
7364860 26 17471576525504635505
81228 2 18262523722332532539
9981440 41 17198781403095810416

>  <PUBCHEM_SHAPE_MULTIPOLES>  (1) 
400.74
5.04
3.49
1.72
4.65
1.11
1.15
-2.54
-1.18
-3.3
-0.97
-0.6
0.72
0.48

>  <PUBCHEM_SHAPE_SELFOVERLAP>  (1) 
862.221

>  <PUBCHEM_SHAPE_VOLUME>  (1) 
218.8

>  <PUBCHEM_COORDINATE_TYPE>  (1) 
2
5
10

$$$$
