4198
     RDKit          3D

 17 18  0  0  0  0  0  0  0  0999 V2000
   -3.3397    1.0317    0.2955 O   0  0  0  0  0  0  0  0  0  0  0  0
   -0.6507   -2.8637   -0.0275 O   0  0  0  0  0  0  0  0  0  0  0  0
   -1.0461    2.5165    0.2506 O   0  0  0  0  0  0  0  0  0  0  0  0
    4.0459   -1.1354   -0.1803 O   0  0  0  0  0  0  0  0  0  0  0  0
    2.7773    0.8220   -0.0212 N   0  0  0  0  0  0  0  0  0  0  0  0
    0.4084    0.6403    0.0884 C   0  0  0  0  0  0  0  0  0  0  0  0
    0.5138   -0.7911    0.0138 C   0  0  0  0  0  0  0  0  0  0  0  0
   -2.0228   -0.9330    0.1345 C   0  0  0  0  0  0  0  0  0  0  0  0
   -0.7062   -1.6385    0.0342 C   0  0  0  0  0  0  0  0  0  0  0  0
   -0.9149    1.2978    0.1864 C   0  0  0  0  0  0  0  0  0  0  0  0
   -2.1083    0.4066    0.2035 C   0  0  0  0  0  0  0  0  0  0  0  0
    1.5183    1.3921    0.0694 C   0  0  0  0  0  0  0  0  0  0  0  0
    1.7128   -1.3863   -0.0752 C   0  0  0  0  0  0  0  0  0  0  0  0
    2.9604   -0.5625   -0.0979 C   0  0  0  0  0  0  0  0  0  0  0  0
   -3.2264   -1.8364    0.1514 C   0  0  0  0  0  0  0  0  0  0  0  0
    3.9268    1.7196   -0.0352 C   0  0  0  0  0  0  0  0  0  0  0  0
   -3.8486    1.3202   -0.9905 C   0  0  0  0  0  0  0  0  0  0  0  0
  1 11  1  0
  1 17  1  0
  2  9  2  0
  3 10  2  0
  4 14  2  0
  5 12  1  0
  5 14  1  0
  5 16  1  0
  6  7  1  0
  6 10  1  0
  6 12  2  0
  7  9  1  0
  7 13  2  0
  8  9  1  0
  8 11  2  0
  8 15  1  0
 10 11  1  0
 13 14  1  0
M  END
>  <PUBCHEM_COMPOUND_CID>  (1) 
4198

>  <PUBCHEM_CONFORMER_RMSD>  (1) 
0.6

>  <PUBCHEM_CONFORMER_DIVERSEORDER>  (1) 
1

>  <PUBCHEM_MMFF94_PARTIAL_CHARGES>  (1) 
19
1 -0.36
10 0.54
11 0.09
12 -0.04
13 -0.14
14 0.62
15 0.14
16 0.3
17 0.28
18 0.15
19 0.15
2 -0.57
3 -0.57
4 -0.57
5 -0.47
6 0.01
7 0.01
8 -0.12
9 0.54

>  <PUBCHEM_EFFECTIVE_ROTOR_COUNT>  (1) 
1

>  <PUBCHEM_PHARMACOPHORE_FEATURES>  (1) 
6
1 1 acceptor
1 2 acceptor
1 3 acceptor
1 4 acceptor
6 5 6 7 12 13 14 rings
6 6 7 8 9 10 11 rings

>  <PUBCHEM_HEAVY_ATOM_COUNT>  (1) 
17

>  <PUBCHEM_ATOM_DEF_STEREO_COUNT>  (1) 
0

>  <PUBCHEM_ATOM_UDEF_STEREO_COUNT>  (1) 
0

>  <PUBCHEM_BOND_DEF_STEREO_COUNT>  (1) 
0

>  <PUBCHEM_BOND_UDEF_STEREO_COUNT>  (1) 
0

>  <PUBCHEM_ISOTOPIC_ATOM_COUNT>  (1) 
0

>  <PUBCHEM_COMPONENT_COUNT>  (1) 
1

>  <PUBCHEM_CACTVS_TAUTO_COUNT>  (1) 
3

>  <PUBCHEM_CONFORMER_ID>  (1) 
0000106600000001

>  <PUBCHEM_MMFF94_ENERGY>  (1) 
48.8397

>  <PUBCHEM_FEATURE_SELFOVERLAP>  (1) 
30.477

>  <PUBCHEM_SHAPE_FINGERPRINT>  (1) 
10608611 8 18411135874453912560
10967382 1 18339081467086331571
11132069 177 18412820279059766712
12382932 28 18411983589149489528
12730499 353 17898563169592257605
13140716 1 18410862036013379203
13380535 76 18340767035623509239
13897977 150 18411418384601988137
14325111 11 18410857680784658832
14790565 3 18269004085433844265
14911166 2 18339078172883326045
15196674 1 18410856581177994554
15219456 202 18411983585028517344
15309172 13 18339371776995458171
15442244 35 18410293580228479602
15536298 74 18342460357034987856
16945 1 18195251014120669075
17804303 29 18341337725714470966
18186145 218 18412551980889823732
193761 8 17402894917321197947
200 152 17632287947953166925
20510252 161 18343025531375404001
20645476 183 17895777182297712758
21029758 11 18199183074139562161
21267235 1 18410585010338313930
21501502 16 18411983589492348154
2334 1 18339080496729768755
23402539 116 18342164536419213454
23463225 33 18409451422645200592
23493267 7 17676770868799137105
23557571 272 18199199549581271356
23559900 14 18342737395663955098
25 1 18191297183492749509
2748010 2 18411422834235644527
335352 9 18338798892830180038
5104073 3 18410575102196396450
528886 8 18411413977907513883
69090 78 18412539890472359444
7364860 26 17980481161393994111
8809292 202 18335708225615963482
9709674 26 18271248214071266406

>  <PUBCHEM_SHAPE_MULTIPOLES>  (1) 
321.39
6.45
2.59
0.67
1.92
0.39
0.06
-1.23
0.75
-0.69
0
-0.25
-0.1
0.36

>  <PUBCHEM_SHAPE_SELFOVERLAP>  (1) 
694.685

>  <PUBCHEM_SHAPE_VOLUME>  (1) 
175.9

>  <PUBCHEM_COORDINATE_TYPE>  (1) 
2
5
10

$$$$
