41989
     RDKit          3D

 11 11  0  0  1  0  0  0  0  0999 V2000
   -0.2463   -2.2782   -0.2497 O   0  0  0  0  0  0  0  0  0  0  0  0
   -2.6372   -0.8185    0.3823 O   0  0  0  0  0  0  0  0  0  0  0  0
   -1.9489    1.9659    0.1767 O   0  0  0  0  0  0  0  0  0  0  0  0
    0.1328    1.1691   -0.5415 N   0  0  0  0  0  0  0  0  0  0  0  0
   -1.4184   -0.2921    0.0149 N   0  0  0  0  0  0  0  0  0  0  0  0
    0.7735   -0.1161   -0.7376 C   0  0  0  0  0  0  0  0  0  0  0  0
    2.0186   -0.2718    0.1102 C   0  0  0  0  0  0  0  0  0  0  0  0
   -0.3402   -1.0602   -0.2913 C   0  0  0  0  0  0  0  0  0  0  0  0
    3.1341    0.6581   -0.3758 C   0  0  0  0  0  0  0  0  0  0  0  0
    1.7151   -0.0028    1.5871 C   0  0  0  0  0  0  0  0  0  0  0  0
   -1.1830    1.0465   -0.0752 C   0  0  0  0  0  0  0  0  0  0  0  0
  1  8  2  0
  2  5  1  0
  3 11  2  0
  4  6  1  0
  4 11  1  0
  5  8  1  0
  5 11  1  0
  6  7  1  0
  6  8  1  0
  7  9  1  0
  7 10  1  0
M  END
>  <PUBCHEM_COMPOUND_CID>  (1) 
41989

>  <PUBCHEM_CONFORMER_RMSD>  (1) 
0.4

>  <PUBCHEM_CONFORMER_DIVERSEORDER>  (1) 
1
4
3
2
5
6

>  <PUBCHEM_MMFF94_PARTIAL_CHARGES>  (1) 
10
1 -0.57
11 0.69
14 0.37
2 -0.44
21 0.4
3 -0.57
4 -0.73
5 -0.08
6 0.36
8 0.57

>  <PUBCHEM_EFFECTIVE_ROTOR_COUNT>  (1) 
1.6

>  <PUBCHEM_PHARMACOPHORE_FEATURES>  (1) 
5
1 1 acceptor
1 3 acceptor
1 4 donor
3 7 9 10 hydrophobe
5 4 5 6 8 11 rings

>  <PUBCHEM_HEAVY_ATOM_COUNT>  (1) 
11

>  <PUBCHEM_ATOM_DEF_STEREO_COUNT>  (1) 
0

>  <PUBCHEM_ATOM_UDEF_STEREO_COUNT>  (1) 
1

>  <PUBCHEM_BOND_DEF_STEREO_COUNT>  (1) 
0

>  <PUBCHEM_BOND_UDEF_STEREO_COUNT>  (1) 
0

>  <PUBCHEM_ISOTOPIC_ATOM_COUNT>  (1) 
0

>  <PUBCHEM_COMPONENT_COUNT>  (1) 
1

>  <PUBCHEM_CACTVS_TAUTO_COUNT>  (1) 
2

>  <PUBCHEM_CONFORMER_ID>  (1) 
0000A40500000001

>  <PUBCHEM_MMFF94_ENERGY>  (1) 
21.6329

>  <PUBCHEM_FEATURE_SELFOVERLAP>  (1) 
25.371

>  <PUBCHEM_SHAPE_FINGERPRINT>  (1) 
10857977 72 18411978100371098265
12423570 1 9382657646600120566
16945 1 18341042029657853630
18185500 45 18043524130357678046
20645464 45 17774422971912434298
20871998 184 18128263478488621622
21040471 1 18341325591993873518
21922407 69 17168132404427753704
23235685 24 18339359639238836693
23236772 104 17895480327148590384
23552423 10 18188211979339867878
2748010 2 18339085865132946943
29004967 10 14634870825435570052
5084963 1 18060703892024934386

>  <PUBCHEM_SHAPE_MULTIPOLES>  (1) 
198.8
3.46
1.69
0.96
1
0.21
-0.33
-0.7
-0.31
-0.94
0.13
0.49
0
-0.11

>  <PUBCHEM_SHAPE_SELFOVERLAP>  (1) 
404.195

>  <PUBCHEM_SHAPE_VOLUME>  (1) 
118.2

>  <PUBCHEM_COORDINATE_TYPE>  (1) 
2
5
10

$$$$
