41993
     RDKit          3D

 31 35  0  0  0  0  0  0  0  0999 V2000
   -2.1045    2.1836   -0.4314 S   0  0  0  0  0  0  0  0  0  0  0  0
   -2.8759    2.3561    0.9978 O   0  0  0  0  0  0  0  0  0  0  0  0
   -1.0267    3.1585   -0.4570 O   0  0  0  0  0  0  0  0  0  0  0  0
   -3.1029    2.1464   -1.4861 O   0  0  0  0  0  0  0  0  0  0  0  0
    1.9984   -0.8444   -0.1123 N   0  0  0  0  0  0  0  0  0  0  0  0
    2.7451    0.2605   -0.0669 N   0  0  0  0  0  0  0  0  0  0  0  0
    2.5929   -2.0379   -0.0613 N   0  0  0  0  0  0  0  0  0  0  0  0
    3.9906   -0.2385    0.0250 C   0  0  0  0  0  0  0  0  0  0  0  0
    5.2481    0.4296    0.1098 C   0  0  0  0  0  0  0  0  0  0  0  0
    3.8907   -1.7044    0.0281 C   0  0  0  0  0  0  0  0  0  0  0  0
    0.6117   -0.7527   -0.2120 C   0  0  0  0  0  0  0  0  0  0  0  0
    6.3825   -0.4298    0.1961 C   0  0  0  0  0  0  0  0  0  0  0  0
   -1.3808    0.5887   -0.3667 C   0  0  0  0  0  0  0  0  0  0  0  0
    0.0075    0.4976   -0.2655 C   0  0  0  0  0  0  0  0  0  0  0  0
   -2.1542   -0.5713   -0.4136 C   0  0  0  0  0  0  0  0  0  0  0  0
    5.0214   -2.5349    0.1143 C   0  0  0  0  0  0  0  0  0  0  0  0
    6.2507   -1.8513    0.1965 C   0  0  0  0  0  0  0  0  0  0  0  0
   -0.1514   -1.9132   -0.2580 C   0  0  0  0  0  0  0  0  0  0  0  0
    5.3889    1.8314    0.1105 C   0  0  0  0  0  0  0  0  0  0  0  0
   -1.5394   -1.8223   -0.3591 C   0  0  0  0  0  0  0  0  0  0  0  0
    7.6446    0.1758    0.2817 C   0  0  0  0  0  0  0  0  0  0  0  0
   -3.6072   -0.5230   -0.5183 C   0  0  0  0  0  0  0  0  0  0  0  0
    6.6598    2.3920    0.1972 C   0  0  0  0  0  0  0  0  0  0  0  0
    7.7818    1.5686    0.2823 C   0  0  0  0  0  0  0  0  0  0  0  0
   -4.4599   -0.4516    0.5288 C   0  0  0  0  0  0  0  0  0  0  0  0
   -5.9281   -0.3831    0.4228 C   0  0  0  0  0  0  0  0  0  0  0  0
   -6.5440   -0.8002   -0.7461 C   0  0  0  0  0  0  0  0  0  0  0  0
   -6.6641    0.0972    1.4938 C   0  0  0  0  0  0  0  0  0  0  0  0
   -7.9337   -0.7352   -0.8467 C   0  0  0  0  0  0  0  0  0  0  0  0
   -8.0538    0.1620    1.3933 C   0  0  0  0  0  0  0  0  0  0  0  0
   -8.6886   -0.2541    0.2229 C   0  0  0  0  0  0  0  0  0  0  0  0
  1  2  1  0
  1  3  2  0
  1  4  2  0
  1 13  1  0
  5  6  1  0
  5  7  1  0
  5 11  1  0
  6  8  2  0
  7 10  2  0
  8  9  1  0
  8 10  1  0
  9 12  2  0
  9 19  1  0
 10 16  1  0
 11 14  1  0
 11 18  2  0
 12 17  1  0
 12 21  1  0
 13 14  2  0
 13 15  1  0
 15 20  2  0
 15 22  1  0
 16 17  2  0
 18 20  1  0
 19 23  2  0
 21 24  2  0
 22 25  2  0
 23 24  1  0
 25 26  1  0
 26 27  2  0
 26 28  1  0
 27 29  1  0
 28 30  2  0
 29 31  2  0
 30 31  1  0
M  END
>  <PUBCHEM_COMPOUND_CID>  (1) 
41993

>  <PUBCHEM_CONFORMER_RMSD>  (1) 
0.8

>  <PUBCHEM_CONFORMER_DIVERSEORDER>  (1) 
1
3
2
4

>  <PUBCHEM_MMFF94_PARTIAL_CHARGES>  (1) 
46
1 1.49
10 0.29
11 -0.02
13 -0.01
14 -0.15
15 0.03
16 -0.15
17 -0.15
18 -0.15
19 -0.15
2 -0.68
20 -0.15
21 -0.15
22 -0.18
23 -0.15
24 -0.15
25 -0.18
26 0.03
27 -0.15
28 -0.15
29 -0.15
3 -0.65
30 -0.15
31 -0.15
32 0.15
33 0.15
34 0.15
35 0.15
36 0.15
37 0.15
38 0.15
39 0.15
4 -0.65
40 0.15
41 0.15
42 0.15
43 0.5
44 0.15
45 0.15
46 0.15
47 0.15
48 0.15
5 0.86
6 -0.71
7 -0.71
8 0.29

>  <PUBCHEM_EFFECTIVE_ROTOR_COUNT>  (1) 
4

>  <PUBCHEM_PHARMACOPHORE_FEATURES>  (1) 
11
1 2 acceptor
1 3 acceptor
1 4 acceptor
1 6 acceptor
1 7 acceptor
4 1 2 3 4 anion
5 5 6 7 8 10 rings
6 11 13 14 15 18 20 rings
6 26 27 28 29 30 31 rings
6 8 9 10 12 16 17 rings
6 9 12 19 21 23 24 rings

>  <PUBCHEM_HEAVY_ATOM_COUNT>  (1) 
31

>  <PUBCHEM_ATOM_DEF_STEREO_COUNT>  (1) 
0

>  <PUBCHEM_ATOM_UDEF_STEREO_COUNT>  (1) 
0

>  <PUBCHEM_BOND_DEF_STEREO_COUNT>  (1) 
0

>  <PUBCHEM_BOND_UDEF_STEREO_COUNT>  (1) 
1

>  <PUBCHEM_ISOTOPIC_ATOM_COUNT>  (1) 
0

>  <PUBCHEM_COMPONENT_COUNT>  (1) 
1

>  <PUBCHEM_CACTVS_TAUTO_COUNT>  (1) 
1

>  <PUBCHEM_CONFORMER_ID>  (1) 
0000A40900000001

>  <PUBCHEM_MMFF94_ENERGY>  (1) 
96.4927

>  <PUBCHEM_FEATURE_SELFOVERLAP>  (1) 
56.078

>  <PUBCHEM_SHAPE_FINGERPRINT>  (1) 
10 15 18113616807133460258
10050765 1 18122906421968206287
10299344 5 18060700598001569031
10391435 84 18040718104017439851
11719270 70 13406790025958492512
12089408 11 17846499223821545795
12664476 115 18343580751353179832
13811026 1 18113615673130322861
14118638 360 18260548879712175818
14150022 121 17774728567816649609
14251764 18 17989205954096345555
14394314 77 18408323298546951827
1454969 45 18342174475348160567
14849402 71 18201440328620268833
14856354 85 16630240390382160879
15131766 46 15193283227507698306
15276724 80 18413101749699338375
15328684 2 17417255312512314307
15392192 104 17489592277288174999
15419008 47 17167855375006212237
15461852 350 16773794836292196575
15510794 2 17894912945517069539
1577012 14 18131911576607699903
15840311 113 18412547639627330172
16120349 18 18412259570878833108
16989713 51 15912750822387400871
18335252 98 18408041801288049158
18608769 82 18410571829120313579
19302320 297 18189328135021626440
19841028 212 16081638985829666034
20721686 146 16844741807796384609
21267235 1 18337956693162969350
21521721 280 18411420622037791891
21792934 111 18259983764921476053
22224240 67 18334295379292618035
24771293 8 18201444679611698877
25019877 29 18131354102726961023
2747138 104 18041293105416796515
3044373 193 15141249887974904252
3092352 35 17704353281675773711
3383291 50 17240773899749621539
34797466 226 18060423513114269270
350125 39 18342175574517059336
3552219 110 17988651787567518089
4073 2 18261675986189227378
4197921 191 18408325480501159824
4325135 7 18272089409096119380
5104073 3 18261670360182041458
5758199 1 18272371979727769187
59682541 35 18260834825697185483
6009941 240 17530966921432091515
6691757 9 16773801425167979415
67123 10 18341331167637331927
9663363 56 17967248707633139023

>  <PUBCHEM_SHAPE_MULTIPOLES>  (1) 
609.26
26.16
2.59
0.93
11.76
1
-0.1
1.29
-5.29
-3.15
0.24
1.67
0.19
-0.14

>  <PUBCHEM_SHAPE_SELFOVERLAP>  (1) 
1354.965

>  <PUBCHEM_SHAPE_VOLUME>  (1) 
325

>  <PUBCHEM_COORDINATE_TYPE>  (1) 
2
5
10

$$$$
