41997
     RDKit          3D

 16 16  0  0  1  0  0  0  0  0999 V2000
    3.1428   -2.1326   -0.6959 F   0  0  0  0  0  0  0  0  0  0  0  0
   -0.5745    1.2345   -1.9035 O   0  0  0  0  0  0  0  0  0  0  0  0
   -2.8281    0.5816   -0.2367 N   0  0  0  0  0  0  0  0  0  0  0  0
    4.8753   -0.4761    0.7191 N   0  0  0  0  0  0  0  0  0  0  0  0
   -3.8075   -0.3645    0.3079 C   0  0  0  0  0  0  0  0  0  0  0  0
   -1.4754    0.1544    0.0781 C   0  0  0  0  0  0  0  0  0  0  0  0
   -0.4465    1.1422   -0.4854 C   0  0  0  0  0  0  0  0  0  0  0  0
   -5.2135    0.1225   -0.0586 C   0  0  0  0  0  0  0  0  0  0  0  0
   -3.5507   -1.7428   -0.3105 C   0  0  0  0  0  0  0  0  0  0  0  0
   -3.6547   -0.4340    1.8319 C   0  0  0  0  0  0  0  0  0  0  0  0
    0.9682    0.7112   -0.1654 C   0  0  0  0  0  0  0  0  0  0  0  0
    1.4072   -0.5324   -0.5860 C   0  0  0  0  0  0  0  0  0  0  0  0
    1.7928    1.5698    0.5407 C   0  0  0  0  0  0  0  0  0  0  0  0
    2.7115   -0.9296   -0.2910 C   0  0  0  0  0  0  0  0  0  0  0  0
    3.0968    1.1727    0.8357 C   0  0  0  0  0  0  0  0  0  0  0  0
    3.5562   -0.0769    0.4197 C   0  0  0  0  0  0  0  0  0  0  0  0
  1 14  1  0
  2  7  1  0
  3  5  1  0
  3  6  1  0
  4 16  1  0
  5  8  1  0
  5  9  1  0
  5 10  1  0
  6  7  1  0
  7 11  1  0
 11 12  2  0
 11 13  1  0
 12 14  1  0
 13 15  2  0
 14 16  2  0
 15 16  1  0
M  END
>  <PUBCHEM_COMPOUND_CID>  (1) 
41997

>  <PUBCHEM_CONFORMER_RMSD>  (1) 
0.6

>  <PUBCHEM_CONFORMER_DIVERSEORDER>  (1) 
3
12
24
17
19
7
13
9
2
16
6
11
18
23
14
4
22
26
8
10
5
15
21
20
25
1

>  <PUBCHEM_MMFF94_PARTIAL_CHARGES>  (1) 
20
1 -0.19
11 -0.14
12 -0.15
13 -0.15
14 0.19
15 -0.15
16 0.1
17 0.36
2 -0.68
3 -0.9
30 0.15
31 0.15
32 0.4
33 0.15
34 0.4
35 0.4
4 -0.9
5 0.27
6 0.27
7 0.42

>  <PUBCHEM_EFFECTIVE_ROTOR_COUNT>  (1) 
4

>  <PUBCHEM_PHARMACOPHORE_FEATURES>  (1) 
8
1 2 acceptor
1 2 donor
1 3 cation
1 3 donor
1 4 cation
1 4 donor
4 5 8 9 10 hydrophobe
6 11 12 13 14 15 16 rings

>  <PUBCHEM_HEAVY_ATOM_COUNT>  (1) 
16

>  <PUBCHEM_ATOM_DEF_STEREO_COUNT>  (1) 
0

>  <PUBCHEM_ATOM_UDEF_STEREO_COUNT>  (1) 
1

>  <PUBCHEM_BOND_DEF_STEREO_COUNT>  (1) 
0

>  <PUBCHEM_BOND_UDEF_STEREO_COUNT>  (1) 
0

>  <PUBCHEM_ISOTOPIC_ATOM_COUNT>  (1) 
0

>  <PUBCHEM_COMPONENT_COUNT>  (1) 
1

>  <PUBCHEM_CACTVS_TAUTO_COUNT>  (1) 
1

>  <PUBCHEM_CONFORMER_ID>  (1) 
0000A40D00000003

>  <PUBCHEM_MMFF94_ENERGY>  (1) 
43.7239

>  <PUBCHEM_FEATURE_SELFOVERLAP>  (1) 
40.598

>  <PUBCHEM_SHAPE_FINGERPRINT>  (1) 
10751810 167 15719395036209908441
11543360 7 12107794042257199161
12236239 1 16630521838702954208
12251169 10 18060699502494537501
12596602 18 16773508962208691034
12670546 56 17418375770557552073
12707595 3 16877947182664732141
13296908 3 17386009528538696513
13533116 47 17846501409622256875
13583140 156 17560791178297698785
13675066 3 18261679255133268041
14115302 16 15140965071033640608
14252887 29 18343585110243740786
14289901 80 18272090530277944601
14386348 63 18113620083987791811
15375358 24 18260826016661167227
15501101 241 18410856594158134452
17834074 16 18410292488768625223
1813 80 17676776409064206557
18915474 69 14996288040994974283
19050596 39 18060701727524960689
19107657 162 18113907095351336011
19141452 34 18410011057443305055
19862831 5 14345796045554262649
200 152 17918267667438198885
20279233 1 18409732872142296779
20281407 28 18334580126680356613
20281475 54 18410580577979030742
20432913 95 18341897389606467411
20645477 70 18412540998901236031
20671657 53 16660647370846271725
20871998 22 18341616954212185460
21119208 17 13334734630700972905
22485316 2 18410291419601258891
22854114 59 17988643003889508747
231179 274 11959733746173039666
23402539 116 16588299458678352812
23557571 272 17822002069519356452
23559900 14 18341045315207991825
26918003 58 18272085006997214801
276578 36 14477249257925208116
3060560 45 11891329842554947624
31174 14 18342168969189738752
4047638 21 11312058768379336784
42 15 18412545422759579809
4990 188 8935008078746573889
548570 60 11312057651413455515
81228 2 17677051222758085821

>  <PUBCHEM_SHAPE_MULTIPOLES>  (1) 
306.17
9.76
1.57
1.18
4.36
0.41
0.05
2.56
2.54
-0.79
-0.25
0.52
-0.17
0.53

>  <PUBCHEM_SHAPE_SELFOVERLAP>  (1) 
623.582

>  <PUBCHEM_SHAPE_VOLUME>  (1) 
180.8

>  <PUBCHEM_COORDINATE_TYPE>  (1) 
2
5
10

$$$$
