41990
     RDKit          3D

 12 12  0  0  1  0  0  0  0  0999 V2000
   -1.0757    2.3206   -0.0632 O   0  0  0  0  0  0  0  0  0  0  0  0
   -3.2392    0.4353   -0.1696 O   0  0  0  0  0  0  0  0  0  0  0  0
   -2.0398   -2.1680    0.0604 O   0  0  0  0  0  0  0  0  0  0  0  0
   -0.0429   -0.9778    0.3439 N   0  0  0  0  0  0  0  0  0  0  0  0
   -1.9017    0.1521   -0.0011 N   0  0  0  0  0  0  0  0  0  0  0  0
    0.3816    0.4079    0.3495 C   0  0  0  0  0  0  0  0  0  0  0  0
    1.4224    0.6966   -0.7228 C   0  0  0  0  0  0  0  0  0  0  0  0
    2.7969    0.0695   -0.4314 C   0  0  0  0  0  0  0  0  0  0  0  0
   -0.9420    1.1121    0.0615 C   0  0  0  0  0  0  0  0  0  0  0  0
    3.3722    0.5247    0.9106 C   0  0  0  0  0  0  0  0  0  0  0  0
    2.6873   -1.4569   -0.4560 C   0  0  0  0  0  0  0  0  0  0  0  0
   -1.4191   -1.1161    0.1181 C   0  0  0  0  0  0  0  0  0  0  0  0
  1  9  2  0
  2  5  1  0
  3 12  2  0
  4  6  1  0
  4 12  1  0
  5  9  1  0
  5 12  1  0
  6  7  1  0
  6  9  1  0
  7  8  1  0
  8 10  1  0
  8 11  1  0
M  END
>  <PUBCHEM_COMPOUND_CID>  (1) 
41990

>  <PUBCHEM_CONFORMER_RMSD>  (1) 
0.6

>  <PUBCHEM_CONFORMER_DIVERSEORDER>  (1) 
1
3
4
2

>  <PUBCHEM_MMFF94_PARTIAL_CHARGES>  (1) 
10
1 -0.57
12 0.69
17 0.37
2 -0.44
24 0.4
3 -0.57
4 -0.73
5 -0.08
6 0.36
9 0.57

>  <PUBCHEM_EFFECTIVE_ROTOR_COUNT>  (1) 
2.6

>  <PUBCHEM_PHARMACOPHORE_FEATURES>  (1) 
5
1 1 acceptor
1 3 acceptor
1 4 donor
3 8 10 11 hydrophobe
5 4 5 6 9 12 rings

>  <PUBCHEM_HEAVY_ATOM_COUNT>  (1) 
12

>  <PUBCHEM_ATOM_DEF_STEREO_COUNT>  (1) 
0

>  <PUBCHEM_ATOM_UDEF_STEREO_COUNT>  (1) 
1

>  <PUBCHEM_BOND_DEF_STEREO_COUNT>  (1) 
0

>  <PUBCHEM_BOND_UDEF_STEREO_COUNT>  (1) 
0

>  <PUBCHEM_ISOTOPIC_ATOM_COUNT>  (1) 
0

>  <PUBCHEM_COMPONENT_COUNT>  (1) 
1

>  <PUBCHEM_CACTVS_TAUTO_COUNT>  (1) 
2

>  <PUBCHEM_CONFORMER_ID>  (1) 
0000A40600000001

>  <PUBCHEM_MMFF94_ENERGY>  (1) 
27.2674

>  <PUBCHEM_FEATURE_SELFOVERLAP>  (1) 
25.371

>  <PUBCHEM_SHAPE_FINGERPRINT>  (1) 
10857977 72 18270956976765448800
12032990 46 18336555983867971971
12716758 59 18340206267660920528
12897270 3 18412269453920347710
12932764 1 17703792522450324924
14325111 11 18338799996515637308
16945 1 18409736144485454708
19973954 147 18412268324486587908
20201158 50 18272651251253887866
20871998 184 18201161047849327375
23402539 116 18341598296658201397
23552423 10 18187933927420242270
23559900 14 18413669098411335804
2748010 2 18194681694635769733
369184 2 17989205923757098952
5084963 1 18268437849550067316
6333449 129 18341890813784592746
81228 2 18409171008488865825

>  <PUBCHEM_SHAPE_MULTIPOLES>  (1) 
219.38
4.8
1.85
0.76
1.48
0.16
-0.03
0.43
-0.16
-0.85
0.05
0.45
-0.05
0.32

>  <PUBCHEM_SHAPE_SELFOVERLAP>  (1) 
441.486

>  <PUBCHEM_SHAPE_VOLUME>  (1) 
131.1

>  <PUBCHEM_COORDINATE_TYPE>  (1) 
2
5
10

$$$$
