42
     RDKit          3D

 15 14  0  0  0  0  0  0  0  0999 V2000
   -1.3978   -1.7055    0.0273 O   0  0  0  0  0  0  0  0  0  0  0  0
   -6.2711   -0.3955   -0.0933 O   0  0  0  0  0  0  0  0  0  0  0  0
   -5.2103    1.6144    0.0197 O   0  0  0  0  0  0  0  0  0  0  0  0
    3.6872   -1.6235   -0.0086 O   0  0  0  0  0  0  0  0  0  0  0  0
    5.8746   -0.1746   -0.0209 O   0  0  0  0  0  0  0  0  0  0  0  0
    4.7833    1.8221   -0.0101 O   0  0  0  0  0  0  0  0  0  0  0  0
   -2.6421    0.3697    0.0378 C   0  0  0  0  0  0  0  0  0  0  0  0
   -3.9241   -0.4600    0.0300 C   0  0  0  0  0  0  0  0  0  0  0  0
   -1.3789   -0.4777    0.0252 C   0  0  0  0  0  0  0  0  0  0  0  0
   -0.0972    0.2867    0.0165 C   0  0  0  0  0  0  0  0  0  0  0  0
   -5.1689    0.3940   -0.0154 C   0  0  0  0  0  0  0  0  0  0  0  0
    1.0808   -0.3517    0.0084 C   0  0  0  0  0  0  0  0  0  0  0  0
    2.3488    0.3504    0.0018 C   0  0  0  0  0  0  0  0  0  0  0  0
    3.5502   -0.2503   -0.0064 C   0  0  0  0  0  0  0  0  0  0  0  0
    4.7654    0.6016   -0.0121 C   0  0  0  0  0  0  0  0  0  0  0  0
  1  9  2  0
  2 11  1  0
  3 11  2  0
  4 14  1  0
  5 15  1  0
  6 15  2  0
  7  8  1  0
  7  9  1  0
  8 11  1  0
  9 10  1  0
 10 12  2  0
 12 13  1  0
 13 14  2  0
 14 15  1  0
M  END
>  <PUBCHEM_COMPOUND_CID>  (1) 
42

>  <PUBCHEM_CONFORMER_RMSD>  (1) 
0.8

>  <PUBCHEM_CONFORMER_DIVERSEORDER>  (1) 
1
29
8
20
62
2
63
6
34
47
24
46
27
28
41
49
50
4
39
31
37
19
60
40
58
45
48
53
56
22
42
43
54
10
44
16
9
35
7
52
18
55
30
13
59
23
5
21
25
3
11
15
57
12
17
61
32
38
33
51
14
26
36

>  <PUBCHEM_MMFF94_PARTIAL_CHARGES>  (1) 
21
1 -0.57
10 -0.14
11 0.66
12 -0.15
13 -0.15
14 0.09
15 0.71
2 -0.65
20 0.15
21 0.15
22 0.15
23 0.5
24 0.45
25 0.5
3 -0.57
4 -0.53
5 -0.65
6 -0.57
7 0.06
8 0.06
9 0.49

>  <PUBCHEM_EFFECTIVE_ROTOR_COUNT>  (1) 
6

>  <PUBCHEM_PHARMACOPHORE_FEATURES>  (1) 
8
1 1 acceptor
1 2 acceptor
1 3 acceptor
1 4 donor
1 5 acceptor
1 6 acceptor
3 2 3 11 anion
3 5 6 15 anion

>  <PUBCHEM_HEAVY_ATOM_COUNT>  (1) 
15

>  <PUBCHEM_ATOM_DEF_STEREO_COUNT>  (1) 
0

>  <PUBCHEM_ATOM_UDEF_STEREO_COUNT>  (1) 
0

>  <PUBCHEM_BOND_DEF_STEREO_COUNT>  (1) 
0

>  <PUBCHEM_BOND_UDEF_STEREO_COUNT>  (1) 
2

>  <PUBCHEM_ISOTOPIC_ATOM_COUNT>  (1) 
0

>  <PUBCHEM_COMPONENT_COUNT>  (1) 
1

>  <PUBCHEM_CACTVS_TAUTO_COUNT>  (1) 
7

>  <PUBCHEM_CONFORMER_ID>  (1) 
0000002A00000001

>  <PUBCHEM_MMFF94_ENERGY>  (1) 
19.8625

>  <PUBCHEM_FEATURE_SELFOVERLAP>  (1) 
40.713

>  <PUBCHEM_SHAPE_FINGERPRINT>  (1) 
10014705 185 18410855503093665513
11287383 113 18335140916291569347
117890 112 18342176661054114360
12091667 2 18413389843647887027
13533116 47 17917712349415419774
14123238 8 18261110777002977213
14251718 22 18343020016969698363
14251732 16 18336548338731103123
14251764 46 18411697690356418254
15048467 5 18409730685903995716
15242433 33 18413108368386593182
17834072 33 18272930552607855719
17834076 25 18131069342004873886
187816 3 16415481554040676411
200 152 8214146248153446199
20281389 69 18260545627926560765
20621476 66 18270688559117734801
20645477 56 18187363242009044981
20645477 70 18271247114976681846
20767249 213 18335139812732978421
212847 35 18343862208427211408
220451 1 17275105037740570639
23402539 116 18272927233009670757
23402655 69 18131349687589782621
23536379 177 18411418393118050435
2916195 48 18407755950098697865
29717793 49 17489877020808239940
300161 21 18131062749399009526
3545911 37 18408605868381327926
366044 4 18409729565038987227
42788 4 18410856564108908133
522135 26 18341895178130832890
5374978 207 18261386746269613928
542803 24 18342738520159461629

>  <PUBCHEM_SHAPE_MULTIPOLES>  (1) 
273.48
15.07
1.32
0.58
4.11
0.05
0
3.24
0.25
-0.38
0
0.01
0
-0.01

>  <PUBCHEM_SHAPE_SELFOVERLAP>  (1) 
539.012

>  <PUBCHEM_SHAPE_VOLUME>  (1) 
160.9

>  <PUBCHEM_COORDINATE_TYPE>  (1) 
2
5
10

$$$$
