42003
     RDKit          3D

 18 18  0  0  1  0  0  0  0  0999 V2000
   -2.3419    3.4339    0.1741 Br  0  0  0  0  0  0  0  0  0  0  0  0
    1.1170   -0.1570   -2.2900 O   0  0  0  0  0  0  0  0  0  0  0  0
    3.2760   -0.5887   -0.4363 N   0  0  0  0  0  0  0  0  0  0  0  0
   -4.3165    1.0420    0.6485 N   0  0  0  0  0  0  0  0  0  0  0  0
   -4.5563   -2.5339    0.5531 N   0  0  0  0  0  0  0  0  0  0  0  0
    4.3058   -0.1071    0.4902 C   0  0  0  0  0  0  0  0  0  0  0  0
    1.9587   -0.1472   -0.0104 C   0  0  0  0  0  0  0  0  0  0  0  0
    0.8767   -0.6514   -0.9731 C   0  0  0  0  0  0  0  0  0  0  0  0
    5.6733   -0.5879   -0.0064 C   0  0  0  0  0  0  0  0  0  0  0  0
    4.2636    1.4246    0.5132 C   0  0  0  0  0  0  0  0  0  0  0  0
    4.0290   -0.6629    1.8921 C   0  0  0  0  0  0  0  0  0  0  0  0
   -0.5018   -0.2000   -0.5429 C   0  0  0  0  0  0  0  0  0  0  0  0
   -1.4781   -1.1500   -0.2972 C   0  0  0  0  0  0  0  0  0  0  0  0
   -0.7570    1.1535   -0.4038 C   0  0  0  0  0  0  0  0  0  0  0  0
   -2.7487   -0.7340    0.0999 C   0  0  0  0  0  0  0  0  0  0  0  0
   -2.0278    1.5696   -0.0067 C   0  0  0  0  0  0  0  0  0  0  0  0
   -3.0237    0.6258    0.2450 C   0  0  0  0  0  0  0  0  0  0  0  0
   -3.7482   -1.7292    0.3505 C   0  0  0  0  0  0  0  0  0  0  0  0
  1 16  1  0
  2  8  1  0
  3  6  1  0
  3  7  1  0
  4 17  1  0
  5 18  3  0
  6  9  1  0
  6 10  1  0
  6 11  1  0
  7  8  1  0
  8 12  1  0
 12 13  2  0
 12 14  1  0
 13 15  1  0
 14 16  2  0
 15 17  2  0
 15 18  1  0
 16 17  1  0
M  END
>  <PUBCHEM_COMPOUND_CID>  (1) 
42003

>  <PUBCHEM_CONFORMER_RMSD>  (1) 
0.6

>  <PUBCHEM_CONFORMER_DIVERSEORDER>  (1) 
1
25
4
31
7
14
10
5
12
17
32
23
9
11
13
16
28
27
15
18
22
21
6
30
26
3
24
20
2
19
8
29

>  <PUBCHEM_MMFF94_PARTIAL_CHARGES>  (1) 
21
1 -0.11
12 -0.14
13 -0.15
14 -0.15
15 0.07
16 0.11
17 0.1
18 0.48
19 0.36
2 -0.68
3 -0.9
32 0.15
33 0.15
34 0.4
35 0.4
36 0.4
4 -0.9
5 -0.56
6 0.27
7 0.27
8 0.42

>  <PUBCHEM_EFFECTIVE_ROTOR_COUNT>  (1) 
4

>  <PUBCHEM_PHARMACOPHORE_FEATURES>  (1) 
10
1 1 hydrophobe
1 2 acceptor
1 2 donor
1 3 cation
1 3 donor
1 4 cation
1 4 donor
1 5 acceptor
4 6 9 10 11 hydrophobe
6 12 13 14 15 16 17 rings

>  <PUBCHEM_HEAVY_ATOM_COUNT>  (1) 
18

>  <PUBCHEM_ATOM_DEF_STEREO_COUNT>  (1) 
0

>  <PUBCHEM_ATOM_UDEF_STEREO_COUNT>  (1) 
1

>  <PUBCHEM_BOND_DEF_STEREO_COUNT>  (1) 
0

>  <PUBCHEM_BOND_UDEF_STEREO_COUNT>  (1) 
0

>  <PUBCHEM_ISOTOPIC_ATOM_COUNT>  (1) 
0

>  <PUBCHEM_COMPONENT_COUNT>  (1) 
1

>  <PUBCHEM_CACTVS_TAUTO_COUNT>  (1) 
1

>  <PUBCHEM_CONFORMER_ID>  (1) 
0000A41300000001

>  <PUBCHEM_MMFF94_ENERGY>  (1) 
49.006

>  <PUBCHEM_FEATURE_SELFOVERLAP>  (1) 
50.747

>  <PUBCHEM_SHAPE_FINGERPRINT>  (1) 
10319926 262 18269546162030238874
10366900 7 18261113006412978546
12107183 9 17686049497228333522
12236239 1 17603591806954355244
12596602 18 18113615720638557880
12633257 1 18341900666513949497
12892183 10 18410565189691600690
13140716 1 18339654433710920689
13214271 11 18202001023593929501
13296909 8 18335136475369394501
13583140 156 17988633065488478574
13675066 3 17917702492733948714
14178342 30 18263090937378668687
14289901 80 18408324363313472698
14341114 176 18410016503245545592
14420673 8 17977945688303503474
14787075 74 18043812211025647600
15099037 37 18341614832466796647
16945 1 18266762202978440741
18186145 218 15267337444799668730
19433438 15 12247675002722985530
19433438 28 18272647965851839570
19784866 240 17167865309191876051
200 152 16008744714687116751
20510252 161 18343023285165439339
20645477 56 18267871584008766893
20645477 70 14345804842137862730
21033648 29 17417513736599214264
21065198 48 18187641389013751282
21065198 57 18340487742906779926
21065199 12 18342172250702755258
21065201 7 18340215072560415278
21069387 34 16588029056022037371
21650355 55 18410013269198176289
22079108 93 15051453872587966327
22182937 141 18058173821328348657
22943178 12 17987244339136530134
2297311 6 18342187673814173366
23366157 5 17753343263871408629
23402539 116 18272081743139003367
23402655 69 11455890282782235346
23419403 2 18046603858491152509
23557571 272 18201164238973293333
23559900 14 18198632034035754462
23845131 108 17549282341425608113
3009799 131 18337093666950901471
474 4 14261342583679979658
5104073 3 18413384345952663968
573450 72 18187077321862469866
6049 1 17630629854438080108
7097593 13 17827345593235702898
7615 1 17677066692839525909
90316 7 17750516187141980836

>  <PUBCHEM_SHAPE_MULTIPOLES>  (1) 
355.56
10.66
2.53
1.2
10.06
1.69
-0.2
-2.22
3.57
-4.18
0.43
0.95
-0.21
0.26

>  <PUBCHEM_SHAPE_SELFOVERLAP>  (1) 
714.569

>  <PUBCHEM_SHAPE_VOLUME>  (1) 
214.8

>  <PUBCHEM_COORDINATE_TYPE>  (1) 
2
5
10

$$$$
