42013
     RDKit          3D

 16 16  0  0  0  0  0  0  0  0999 V2000
   -1.5982    0.1714   -0.9156 O   0  0  0  0  0  0  0  0  0  0  0  0
    2.6881    2.0371   -0.2383 O   0  0  0  0  0  0  0  0  0  0  0  0
    3.3190   -0.0677    0.3959 O   0  0  0  0  0  0  0  0  0  0  0  0
   -2.1382    0.6260    1.2998 O   0  0  0  0  0  0  0  0  0  0  0  0
    1.1249    0.4172   -0.2745 N   0  0  0  0  0  0  0  0  0  0  0  0
   -2.9034    1.9884   -0.4150 N   0  0  0  0  0  0  0  0  0  0  0  0
    0.4618   -0.8077   -0.1692 C   0  0  0  0  0  0  0  0  0  0  0  0
   -0.8913   -0.9141   -0.4912 C   0  0  0  0  0  0  0  0  0  0  0  0
    1.1663   -1.9314    0.2630 C   0  0  0  0  0  0  0  0  0  0  0  0
   -1.5397   -2.1443   -0.3809 C   0  0  0  0  0  0  0  0  0  0  0  0
    0.5177   -3.1614    0.3733 C   0  0  0  0  0  0  0  0  0  0  0  0
   -0.8352   -3.2679    0.0514 C   0  0  0  0  0  0  0  0  0  0  0  0
    2.4576    0.7084    0.0008 C   0  0  0  0  0  0  0  0  0  0  0  0
   -2.2143    0.9140    0.1090 C   0  0  0  0  0  0  0  0  0  0  0  0
   -3.6385    2.9353    0.3906 C   0  0  0  0  0  0  0  0  0  0  0  0
    4.0235    2.4965    0.0009 C   0  0  0  0  0  0  0  0  0  0  0  0
  1  8  1  0
  1 14  1  0
  2 13  1  0
  2 16  1  0
  3 13  2  0
  4 14  2  0
  5  7  1  0
  5 13  1  0
  6 14  1  0
  6 15  1  0
  7  8  2  0
  7  9  1  0
  8 10  1  0
  9 11  2  0
 10 12  2  0
 11 12  1  0
M  END
>  <PUBCHEM_COMPOUND_CID>  (1) 
42013

>  <PUBCHEM_CONFORMER_RMSD>  (1) 
0.8

>  <PUBCHEM_CONFORMER_DIVERSEORDER>  (1) 
1
26
36
31
10
4
17
39
35
30
6
27
38
3
41
42
40
8
18
37
7
28
22
23
9
29
19
16
13
20
5
11
34
33
21
15
24
12
25
14
2
32

>  <PUBCHEM_MMFF94_PARTIAL_CHARGES>  (1) 
22
1 -0.23
10 -0.15
11 -0.15
12 -0.15
13 0.78
14 0.78
15 0.3
16 0.28
17 0.15
18 0.15
19 0.15
2 -0.43
20 0.15
21 0.37
22 0.37
3 -0.57
4 -0.57
5 -0.55
6 -0.73
7 0.12
8 0.08
9 -0.15

>  <PUBCHEM_EFFECTIVE_ROTOR_COUNT>  (1) 
6

>  <PUBCHEM_PHARMACOPHORE_FEATURES>  (1) 
5
1 3 acceptor
1 4 acceptor
1 5 donor
1 6 donor
6 7 8 9 10 11 12 rings

>  <PUBCHEM_HEAVY_ATOM_COUNT>  (1) 
16

>  <PUBCHEM_ATOM_DEF_STEREO_COUNT>  (1) 
0

>  <PUBCHEM_ATOM_UDEF_STEREO_COUNT>  (1) 
0

>  <PUBCHEM_BOND_DEF_STEREO_COUNT>  (1) 
0

>  <PUBCHEM_BOND_UDEF_STEREO_COUNT>  (1) 
0

>  <PUBCHEM_ISOTOPIC_ATOM_COUNT>  (1) 
0

>  <PUBCHEM_COMPONENT_COUNT>  (1) 
1

>  <PUBCHEM_CACTVS_TAUTO_COUNT>  (1) 
4

>  <PUBCHEM_CONFORMER_ID>  (1) 
0000A41D00000001

>  <PUBCHEM_MMFF94_ENERGY>  (1) 
42.7668

>  <PUBCHEM_FEATURE_SELFOVERLAP>  (1) 
25.371

>  <PUBCHEM_SHAPE_FINGERPRINT>  (1) 
108231 29 16892577533497603098
12173636 292 18339078314749330116
13027679 85 17401769021794056463
13134695 92 17326605908882015431
14123255 52 18411419488129437160
14648413 74 18047758092138542515
14790565 3 18050014294737168500
15490181 7 18338249197067108863
15490181 8 18410843365701327078
16945 1 17833827171184355295
17134986 127 18338800005105403212
19765921 60 18130499747964152553
20510252 161 18123751117185833378
20671657 1 18266742372296601679
21029758 11 17474662231763405263
21041028 32 16895392789733383207
21339142 36 17619055570284262679
21524375 3 18272646822979173013
21639500 275 17976245851657530869
21665062 11 17404312797895490409
22182937 141 18200040688440123952
2297311 6 17617393113767815100
2306618 200 17608907005229769596
23402539 116 17767121273632157262
23557571 272 17835249222176491430
23558518 356 18189619504816399282
2748010 2 18336558118192587007
305870 269 18337671897479745262
3071541 12 18195526987028099766
31174 14 17830460475428275317
350125 39 18409736161586494890
474 4 18267299825077382609
5939293 188 17762335816917839503
6992083 37 17968649549138595732
7364860 26 17978510828145926279
81228 2 17907033011521999226
84936 182 18128806452617889977

>  <PUBCHEM_SHAPE_MULTIPOLES>  (1) 
295.83
5.56
4.26
0.79
2.6
1.13
-0.07
-7.47
-0.4
-1.19
-0.35
-0.29
-0.02
-0.51

>  <PUBCHEM_SHAPE_SELFOVERLAP>  (1) 
607.899

>  <PUBCHEM_SHAPE_VOLUME>  (1) 
168.1

>  <PUBCHEM_COORDINATE_TYPE>  (1) 
2
5
10

$$$$
