42012
     RDKit          3D

 10  9  0  0  0  0  0  0  0  0999 V2000
   -1.1215   -2.0139    0.0283 Cl  0  0  0  0  0  0  0  0  0  0  0  0
   -2.6049    0.0799    1.4269 Cl  0  0  0  0  0  0  0  0  0  0  0  0
   -2.6081   -0.0265   -1.4626 Cl  0  0  0  0  0  0  0  0  0  0  0  0
   -0.5712    2.3061    0.0250 Cl  0  0  0  0  0  0  0  0  0  0  0  0
    2.5030   -1.8007    0.0445 Cl  0  0  0  0  0  0  0  0  0  0  0  0
    3.3310    1.0703   -0.0614 Cl  0  0  0  0  0  0  0  0  0  0  0  0
   -1.5874   -0.2832   -0.0038 C   0  0  0  0  0  0  0  0  0  0  0  0
   -0.3610    0.5858   -0.0120 C   0  0  0  0  0  0  0  0  0  0  0  0
    0.8881    0.2200    0.0011 C   0  0  0  0  0  0  0  0  0  0  0  0
    2.1323   -0.1379    0.0140 C   0  0  0  0  0  0  0  0  0  0  0  0
  1  7  1  0
  2  7  1  0
  3  7  1  0
  4  8  1  0
  5 10  1  0
  6 10  1  0
  7  8  1  0
  8  9  2  0
  9 10  2  0
M  END
>  <PUBCHEM_COMPOUND_CID>  (1) 
42012

>  <PUBCHEM_CONFORMER_RMSD>  (1) 
0.4

>  <PUBCHEM_CONFORMER_DIVERSEORDER>  (1) 
1
2

>  <PUBCHEM_MMFF94_PARTIAL_CHARGES>  (1) 
10
1 -0.29
10 0.34
2 -0.29
3 -0.29
4 -0.14
5 -0.14
6 -0.14
7 1.01
8 0.07
9 -0.13

>  <PUBCHEM_EFFECTIVE_ROTOR_COUNT>  (1) 
1

>  <PUBCHEM_PHARMACOPHORE_FEATURES>  (1) 
0

>  <PUBCHEM_HEAVY_ATOM_COUNT>  (1) 
10

>  <PUBCHEM_ATOM_DEF_STEREO_COUNT>  (1) 
0

>  <PUBCHEM_ATOM_UDEF_STEREO_COUNT>  (1) 
0

>  <PUBCHEM_BOND_DEF_STEREO_COUNT>  (1) 
0

>  <PUBCHEM_BOND_UDEF_STEREO_COUNT>  (1) 
0

>  <PUBCHEM_ISOTOPIC_ATOM_COUNT>  (1) 
0

>  <PUBCHEM_COMPONENT_COUNT>  (1) 
1

>  <PUBCHEM_CACTVS_TAUTO_COUNT>  (1) 
1

>  <PUBCHEM_CONFORMER_ID>  (1) 
0000A41C00000001

>  <PUBCHEM_MMFF94_ENERGY>  (1) 
5.5618

>  <PUBCHEM_FEATURE_SELFOVERLAP>  (1) 
0

>  <PUBCHEM_SHAPE_FINGERPRINT>  (1) 
12382932 28 18339085985576680010
12423570 1 16170854845397573317
12524768 44 18412548708219761142
12897270 3 18410572924785224044
12932764 1 18059858333503186584
16945 1 18410574019780487688
18619055 16 18335408071926598870
20201158 50 18335974354827317862
20653085 51 16516248422791878533
20711985 365 18265609888437119580
20715346 28 17894352167851436742
21061003 4 18193568971620234072
23526113 38 18040979761782677745
23526114 1 17832139798539698748
23552423 10 18263642879415130766
2748010 2 18192431874912966268
29004967 10 18260274078629489544
3248919 1 18202561795898834554
369184 2 18413388713538673315
5084963 1 17916008080215946066

>  <PUBCHEM_SHAPE_MULTIPOLES>  (1) 
217.01
4.76
2.11
1.07
2.32
0.02
0.02
0.18
0.06
0.44
-0.03
-1.12
-0.01
-0.08

>  <PUBCHEM_SHAPE_SELFOVERLAP>  (1) 
369.338

>  <PUBCHEM_SHAPE_VOLUME>  (1) 
144.7

>  <PUBCHEM_COORDINATE_TYPE>  (1) 
2
5
10

$$$$
