42027
     RDKit          3D

 21 25  0  0  0  0  0  0  0  0999 V2000
    5.5483    0.6185   -0.0002 O   0  0  0  0  0  0  0  0  0  0  0  0
    0.0183   -0.2507   -0.0001 C   0  0  0  0  0  0  0  0  0  0  0  0
    1.4251   -0.0327    0.0000 C   0  0  0  0  0  0  0  0  0  0  0  0
   -0.8911    0.8405   -0.0001 C   0  0  0  0  0  0  0  0  0  0  0  0
   -0.4650   -1.5771   -0.0001 C   0  0  0  0  0  0  0  0  0  0  0  0
   -2.3062    0.5832   -0.0001 C   0  0  0  0  0  0  0  0  0  0  0  0
    1.9401    1.2815    0.0000 C   0  0  0  0  0  0  0  0  0  0  0  0
    2.3225   -1.1284    0.0001 C   0  0  0  0  0  0  0  0  0  0  0  0
   -2.7635   -0.7579   -0.0002 C   0  0  0  0  0  0  0  0  0  0  0  0
   -1.8429   -1.8109   -0.0003 C   0  0  0  0  0  0  0  0  0  0  0  0
   -0.3294    2.1378    0.0000 C   0  0  0  0  0  0  0  0  0  0  0  0
    0.4365   -2.6501    0.0002 C   0  0  0  0  0  0  0  0  0  0  0  0
    1.0508    2.3555    0.0000 C   0  0  0  0  0  0  0  0  0  0  0  0
    1.8124   -2.4296    0.0002 C   0  0  0  0  0  0  0  0  0  0  0  0
    3.3279    1.4875    0.0001 C   0  0  0  0  0  0  0  0  0  0  0  0
    3.7055   -0.8948    0.0002 C   0  0  0  0  0  0  0  0  0  0  0  0
   -3.3010    1.5941    0.0001 C   0  0  0  0  0  0  0  0  0  0  0  0
    4.2041    0.4054    0.0001 C   0  0  0  0  0  0  0  0  0  0  0  0
   -4.1401   -1.0441   -0.0001 C   0  0  0  0  0  0  0  0  0  0  0  0
   -4.6663    1.2964    0.0003 C   0  0  0  0  0  0  0  0  0  0  0  0
   -5.0862   -0.0241    0.0001 C   0  0  0  0  0  0  0  0  0  0  0  0
  1 18  1  0
  2  3  2  0
  2  4  1  0
  2  5  1  0
  3  7  1  0
  3  8  1  0
  4  6  1  0
  4 11  2  0
  5 10  2  0
  5 12  1  0
  6  9  2  0
  6 17  1  0
  7 13  2  0
  7 15  1  0
  8 14  1  0
  8 16  2  0
  9 10  1  0
  9 19  1  0
 11 13  1  0
 12 14  2  0
 15 18  2  0
 16 18  1  0
 17 20  2  0
 19 21  2  0
 20 21  1  0
M  END
>  <PUBCHEM_COMPOUND_CID>  (1) 
42027

>  <PUBCHEM_CONFORMER_RMSD>  (1) 
0.6

>  <PUBCHEM_CONFORMER_DIVERSEORDER>  (1) 
1

>  <PUBCHEM_MMFF94_PARTIAL_CHARGES>  (1) 
25
1 -0.53
10 -0.15
11 -0.15
12 -0.15
13 -0.15
14 -0.15
15 -0.15
16 -0.15
17 -0.15
18 0.08
19 -0.15
20 -0.15
21 -0.15
22 0.15
23 0.15
24 0.15
25 0.15
26 0.15
27 0.15
28 0.15
29 0.15
30 0.15
31 0.15
32 0.15
33 0.45

>  <PUBCHEM_EFFECTIVE_ROTOR_COUNT>  (1) 
0

>  <PUBCHEM_PHARMACOPHORE_FEATURES>  (1) 
6
1 1 donor
6 2 3 4 7 11 13 rings
6 2 3 5 8 12 14 rings
6 2 4 5 6 9 10 rings
6 3 7 8 15 16 18 rings
6 6 9 17 19 20 21 rings

>  <PUBCHEM_HEAVY_ATOM_COUNT>  (1) 
21

>  <PUBCHEM_ATOM_DEF_STEREO_COUNT>  (1) 
0

>  <PUBCHEM_ATOM_UDEF_STEREO_COUNT>  (1) 
0

>  <PUBCHEM_BOND_DEF_STEREO_COUNT>  (1) 
0

>  <PUBCHEM_BOND_UDEF_STEREO_COUNT>  (1) 
0

>  <PUBCHEM_ISOTOPIC_ATOM_COUNT>  (1) 
0

>  <PUBCHEM_COMPONENT_COUNT>  (1) 
1

>  <PUBCHEM_CACTVS_TAUTO_COUNT>  (1) 
3

>  <PUBCHEM_CONFORMER_ID>  (1) 
0000A42B00000001

>  <PUBCHEM_MMFF94_ENERGY>  (1) 
76.3933

>  <PUBCHEM_FEATURE_SELFOVERLAP>  (1) 
30.6

>  <PUBCHEM_SHAPE_FINGERPRINT>  (1) 
10411042 1 17113819592786996935
10616163 171 18411420656735023095
10906281 52 18336565866492696512
10967382 1 18410573955091993798
1100329 8 18339923847860177960
11112241 14 16627968893379387024
11471102 20 18410571773285511327
11578080 2 16880181209629512255
12011746 2 18410856563966438156
12236239 1 17775003466965573417
12403814 3 17603581924245254493
12592029 89 18408324380134899291
12838862 33 18339060658049371400
13132413 78 18412826871855807997
13140716 1 18266176330003689560
138480 1 17834113048186364419
13862211 1 18410569587326817418
14790565 3 18337679710400504756
15099037 51 18411139164409196540
15196674 1 18410575058914543046
15442244 35 18195809561896057915
15536298 74 18343021060240666887
1601671 61 18410292501759067608
16945 1 18122906421519741830
19591789 44 18338516442748323151
200 152 18131911568249379889
20028762 73 18057604472211584871
20905425 154 18196655090437606302
21267235 1 18410865368654883790
21279426 13 18267023855916001172
21421861 104 17825384081212599594
221490 88 18336272357043976891
23227448 37 18341893034626031287
2334 1 18338517546491387338
23402539 116 18343576369737269806
23559900 14 18269271253784359622
23566358 2 18267302028010191685
2748010 2 18338802311639984550
3004659 81 18334018260071693270
335352 9 18410573989947565782
34934 24 18411413986349885175
350125 39 18338240495853231057
3545911 37 18410856564451838481
3680242 22 18263079933761978130
474 4 18186524327553589159
5104073 3 18409730629715747051
59755656 215 18340211800254434150
6138700 20 18338239263430128470
7364860 26 18341332184616107830
9709674 26 18410862061878595815
9981440 41 17182217461870830000

>  <PUBCHEM_SHAPE_MULTIPOLES>  (1) 
426.3
8.98
2.65
0.61
1.41
0.48
0
-1.81
0
-0.44
0
0.02
0
0

>  <PUBCHEM_SHAPE_SELFOVERLAP>  (1) 
1004.715

>  <PUBCHEM_SHAPE_VOLUME>  (1) 
216.3

>  <PUBCHEM_COORDINATE_TYPE>  (1) 
2
5
10

$$$$
