4202
     RDKit          3D

 19 20  0  0  0  0  0  0  0  0999 V2000
    3.8340   -0.0773    0.5535 S   0  0  0  0  0  0  0  0  0  0  0  0
    2.9211    0.1718   -0.8018 O   0  0  0  0  0  0  0  0  0  0  0  0
    5.2086    0.0509    0.0716 O   0  0  0  0  0  0  0  0  0  0  0  0
    3.4273    0.9825    1.4750 O   0  0  0  0  0  0  0  0  0  0  0  0
    3.4824   -1.4271    0.9919 O   0  0  0  0  0  0  0  0  0  0  0  0
   -2.5053   -0.0233    0.0006 N   0  0  0  0  0  0  0  0  0  0  0  0
   -0.4674    1.2332   -0.0690 N   0  0  0  0  0  0  0  0  0  0  0  0
    1.5592    0.1006   -0.6037 N   0  0  0  0  0  0  0  0  0  0  0  0
    1.6478   -2.2348   -1.0742 N   0  0  0  0  0  0  0  0  0  0  0  0
    1.5808    2.4061   -0.1569 N   0  0  0  0  0  0  0  0  0  0  0  0
   -5.3482   -0.0300    0.4983 C   0  0  0  0  0  0  0  0  0  0  0  0
   -4.4936   -1.2646    0.7575 C   0  0  0  0  0  0  0  0  0  0  0  0
   -4.7406    0.8035   -0.6233 C   0  0  0  0  0  0  0  0  0  0  0  0
   -3.0417   -0.8924    1.0544 C   0  0  0  0  0  0  0  0  0  0  0  0
   -3.2915    1.1769   -0.3188 C   0  0  0  0  0  0  0  0  0  0  0  0
   -1.1209    0.0399   -0.2012 C   0  0  0  0  0  0  0  0  0  0  0  0
   -0.4425   -1.1400   -0.5366 C   0  0  0  0  0  0  0  0  0  0  0  0
    0.9274   -1.0738   -0.7355 C   0  0  0  0  0  0  0  0  0  0  0  0
    0.8630    1.1978   -0.2817 C   0  0  0  0  0  0  0  0  0  0  0  0
  1  2  1  0
  1  3  1  0
  1  4  2  0
  1  5  2  0
  2  8  1  0
  6 14  1  0
  6 15  1  0
  6 16  1  0
  7 16  2  0
  7 19  1  0
  8 18  1  0
  8 19  2  0
  9 18  1  0
 10 19  1  0
 11 12  1  0
 11 13  1  0
 12 14  1  0
 13 15  1  0
 16 17  1  0
 17 18  2  0
M  CHG  2   3  -1   8   1
M  END
>  <PUBCHEM_COMPOUND_CID>  (1) 
4202

>  <PUBCHEM_CONFORMER_RMSD>  (1) 
0.6

>  <PUBCHEM_CONFORMER_DIVERSEORDER>  (1) 
3
6
8
5
7
9
10
1
2
4

>  <PUBCHEM_MMFF94_PARTIAL_CHARGES>  (1) 
21
1 1.63
10 -0.9
14 0.37
15 0.37
16 0.41
17 -0.15
18 0.46
19 0.77
2 0.06
3 -0.82
30 0.15
31 0.4
32 0.4
33 0.4
34 0.4
4 -0.82
5 -0.82
6 -0.84
7 -0.62
8 0.03
9 -0.9

>  <PUBCHEM_EFFECTIVE_ROTOR_COUNT>  (1) 
4.2

>  <PUBCHEM_PHARMACOPHORE_FEATURES>  (1) 
10
1 10 donor
1 3 acceptor
1 4 acceptor
1 5 acceptor
1 9 cation
1 9 donor
4 1 3 4 5 anion
4 7 8 10 19 cation
6 6 11 12 13 14 15 rings
6 7 8 16 17 18 19 rings

>  <PUBCHEM_HEAVY_ATOM_COUNT>  (1) 
19

>  <PUBCHEM_ATOM_DEF_STEREO_COUNT>  (1) 
0

>  <PUBCHEM_ATOM_UDEF_STEREO_COUNT>  (1) 
0

>  <PUBCHEM_BOND_DEF_STEREO_COUNT>  (1) 
0

>  <PUBCHEM_BOND_UDEF_STEREO_COUNT>  (1) 
0

>  <PUBCHEM_ISOTOPIC_ATOM_COUNT>  (1) 
0

>  <PUBCHEM_COMPONENT_COUNT>  (1) 
1

>  <PUBCHEM_CACTVS_TAUTO_COUNT>  (1) 
9

>  <PUBCHEM_CONFORMER_ID>  (1) 
0000106A00000003

>  <PUBCHEM_MMFF94_ENERGY>  (1) 
78.6808

>  <PUBCHEM_FEATURE_SELFOVERLAP>  (1) 
50.818

>  <PUBCHEM_SHAPE_FINGERPRINT>  (1) 
11796584 16 16877662370456352155
12011746 2 18341897372806250334
12236239 1 14706930649073065213
12251169 10 18409166648975500462
124424 183 18113617889454604237
12507557 5 18410857676848530721
12633257 1 18335434486460603865
12644460 14 18116444811106786888
12670546 56 16443059512972481805
13140716 1 18198904910044521026
13167823 11 17167863075739790971
13583140 156 17823114835384071839
13675066 3 18411133645297093285
13760787 19 17531254975691706286
13922767 16 18342175587444120109
14252887 29 18342465802605464134
15239154 128 12751240307057833051
15375358 24 18411138013648247903
15788980 27 17167865249114444777
16945 1 18271815622031689045
17349148 13 18341889693199055129
17834072 14 18338234869272012979
17834072 33 17313109678339139180
1813 80 14923944505294001518
18186145 218 16559038181213239348
19026448 5 16732709362877638255
19862831 5 11602538727988563307
200 152 18060416920270761301
20279233 1 18409456873401966895
204376 136 17846777446521381639
20645477 70 18409735088129065975
21033648 29 17917131836860561049
21501925 9 18335422369920082911
21637258 2 16298651825255584546
22182313 1 18198343957293155996
22854114 59 18131071541123120515
23402539 116 18040428898252258589
23557571 272 18041842809707174309
23559900 14 18190187792881517374
26918003 58 18410294714083813721
2748010 2 18126290731326573796
2838139 119 14548444891071749866
351380 180 18334573555971120401
4047638 21 16487258781097766142
4072396 5 18339632356771715594
42 15 17821728334110168227
465052 167 18260271871095524618
474 4 16343408618046972520
4990 188 7997970184600187353
5104073 3 18269564845206373147
573450 72 17385439917254373561
9709674 26 18336557074990430431

>  <PUBCHEM_SHAPE_MULTIPOLES>  (1) 
346.48
10.33
1.76
1.03
3.51
0.09
-0.14
-0.34
-2.54
-0.43
0.17
-0.31
-0.21
0.77

>  <PUBCHEM_SHAPE_SELFOVERLAP>  (1) 
711.911

>  <PUBCHEM_SHAPE_VOLUME>  (1) 
199.4

>  <PUBCHEM_COORDINATE_TYPE>  (1) 
2
5
10

$$$$
