42023
     RDKit          3D

 23 25  0  0  0  0  0  0  0  0999 V2000
    5.3998   -0.7358   -1.2017 O   0  0  0  0  0  0  0  0  0  0  0  0
    0.5051   -1.5811    0.9597 O   0  0  0  0  0  0  0  0  0  0  0  0
   -1.5634    2.3559   -0.0353 O   0  0  0  0  0  0  0  0  0  0  0  0
   -4.7029   -1.5373   -0.6768 O   0  0  0  0  0  0  0  0  0  0  0  0
    0.6199    2.6724    0.6221 O   0  0  0  0  0  0  0  0  0  0  0  0
    3.0728    0.1339    0.1876 N   0  0  0  0  0  0  0  0  0  0  0  0
    2.1619    0.1123    1.3302 C   0  0  0  0  0  0  0  0  0  0  0  0
    3.1360   -1.1865   -0.4543 C   0  0  0  0  0  0  0  0  0  0  0  0
    4.4179    0.5578    0.6005 C   0  0  0  0  0  0  0  0  0  0  0  0
    0.7614   -0.2625    0.9243 C   0  0  0  0  0  0  0  0  0  0  0  0
    4.1014   -1.1428   -1.6353 C   0  0  0  0  0  0  0  0  0  0  0  0
    5.3524    0.5611   -0.6059 C   0  0  0  0  0  0  0  0  0  0  0  0
   -0.2998    0.4747    0.5264 C   0  0  0  0  0  0  0  0  0  0  0  0
   -1.3377   -0.4630    0.2833 C   0  0  0  0  0  0  0  0  0  0  0  0
   -0.7925   -1.7117    0.5642 C   0  0  0  0  0  0  0  0  0  0  0  0
   -2.6759   -0.3950   -0.1422 C   0  0  0  0  0  0  0  0  0  0  0  0
   -0.3364    1.9019    0.3900 C   0  0  0  0  0  0  0  0  0  0  0  0
   -1.4906   -2.9126    0.4513 C   0  0  0  0  0  0  0  0  0  0  0  0
   -3.4039   -1.5865   -0.2653 C   0  0  0  0  0  0  0  0  0  0  0  0
   -2.8194   -2.8215    0.0266 C   0  0  0  0  0  0  0  0  0  0  0  0
   -1.7252    3.7675   -0.2109 C   0  0  0  0  0  0  0  0  0  0  0  0
   -3.1373    4.0475   -0.6789 C   0  0  0  0  0  0  0  0  0  0  0  0
   -5.2434   -0.2488   -0.9597 C   0  0  0  0  0  0  0  0  0  0  0  0
  1 11  1  0
  1 12  1  0
  2 10  1  0
  2 15  1  0
  3 17  1  0
  3 21  1  0
  4 19  1  0
  4 23  1  0
  5 17  2  0
  6  7  1  0
  6  8  1  0
  6  9  1  0
  7 10  1  0
  8 11  1  0
  9 12  1  0
 10 13  2  0
 13 14  1  0
 13 17  1  0
 14 15  2  0
 14 16  1  0
 15 18  1  0
 16 19  2  0
 18 20  2  0
 19 20  1  0
 21 22  1  0
M  END
>  <PUBCHEM_COMPOUND_CID>  (1) 
42023

>  <PUBCHEM_CONFORMER_RMSD>  (1) 
0.8

>  <PUBCHEM_CONFORMER_DIVERSEORDER>  (1) 
1
18
28
40
19
35
10
50
49
52
31
15
37
48
30
14
4
41
24
21
26
44
43
51
33
16
29
42
13
23
38
39
45
9
32
36
8
12
3
2
22
17
11
27
5
34
46
20
25
7
47
6

>  <PUBCHEM_MMFF94_PARTIAL_CHARGES>  (1) 
24
1 -0.56
10 -0.04
11 0.28
12 0.28
13 -0.09
15 0.14
16 -0.15
17 0.81
18 -0.15
19 0.08
2 -0.28
20 -0.15
21 0.28
23 0.28
3 -0.43
34 0.15
35 0.15
36 0.15
4 -0.36
5 -0.57
6 -0.81
7 0.45
8 0.27
9 0.27

>  <PUBCHEM_EFFECTIVE_ROTOR_COUNT>  (1) 
7.2

>  <PUBCHEM_PHARMACOPHORE_FEATURES>  (1) 
8
1 1 acceptor
1 2 acceptor
1 4 acceptor
1 5 acceptor
1 6 cation
5 2 10 13 14 15 rings
6 1 6 8 9 11 12 rings
6 14 15 16 18 19 20 rings

>  <PUBCHEM_HEAVY_ATOM_COUNT>  (1) 
23

>  <PUBCHEM_ATOM_DEF_STEREO_COUNT>  (1) 
0

>  <PUBCHEM_ATOM_UDEF_STEREO_COUNT>  (1) 
0

>  <PUBCHEM_BOND_DEF_STEREO_COUNT>  (1) 
0

>  <PUBCHEM_BOND_UDEF_STEREO_COUNT>  (1) 
0

>  <PUBCHEM_ISOTOPIC_ATOM_COUNT>  (1) 
0

>  <PUBCHEM_COMPONENT_COUNT>  (1) 
1

>  <PUBCHEM_CACTVS_TAUTO_COUNT>  (1) 
1

>  <PUBCHEM_CONFORMER_ID>  (1) 
0000A42700000001

>  <PUBCHEM_MMFF94_ENERGY>  (1) 
50.4578

>  <PUBCHEM_FEATURE_SELFOVERLAP>  (1) 
40.703

>  <PUBCHEM_SHAPE_FINGERPRINT>  (1) 
116883 192 18412261774250069848
11833330 49 18335419105645062048
12236239 1 17240755220726100706
12553582 1 18408881875622383443
12788726 201 18335415759764948304
12954195 1 18270121197335685540
13140716 1 18046325681922282795
13583140 156 14333131819091550530
14022347 108 18262506108893263131
14251757 5 18407761443414324863
14790565 3 17908429052377852793
14955137 171 18190759707175289203
15081414 286 18122063371464863857
15475509 8 18272380750161224599
15961568 22 18119807165415977516
16752209 62 18335697204692673000
17134986 127 17831019022776454496
17357779 13 18272081733968403948
19591789 44 18051411769346278977
200 152 16845580833097900682
20600515 1 17535724619450196248
20871999 31 18411983529141422396
21285901 2 18202568375504084383
21641784 216 18040433257317523637
22122407 14 15213308495166113367
22182313 1 17987779883193954888
22393880 68 18269284465647023142
22620623 9 18271808982033510749
23402539 116 18341042016652002774
23419403 2 17417230122196358729
23557571 272 18343581833273481688
23558518 356 17973150734868141827
23559900 14 18269552917865959312
25147074 1 17823689768723660234
266924 1 17968648312172190490
266924 87 18338232652974417007
2748010 2 18049428542269376211
2871803 45 18343025501922978022
3004659 81 18186513294585173858
3084891 8 18341613668420383359
458136 41 17619635674695968153
465052 167 13038906702448251951
5283173 99 18411136905341054828
68521 5 18409727374246710289
7164475 11 18336538309993211450
7364860 26 17690840489991457961
81228 2 18410862070177958448
9709674 26 18271537407695142550

>  <PUBCHEM_SHAPE_MULTIPOLES>  (1) 
439
9.87
4.02
1.11
7.57
4.12
-0.14
-1.88
-4.77
-5.5
-0.28
0.84
-0.17
0.85

>  <PUBCHEM_SHAPE_SELFOVERLAP>  (1) 
936.914

>  <PUBCHEM_SHAPE_VOLUME>  (1) 
246.1

>  <PUBCHEM_COORDINATE_TYPE>  (1) 
2
5
10

$$$$
