42033
     RDKit          3D

 15 15  0  0  0  0  0  0  0  0999 V2000
    2.5017   -1.0266    0.2075 O   0  0  0  0  0  0  0  0  0  0  0  0
    1.6328    2.8338   -0.7778 O   0  0  0  0  0  0  0  0  0  0  0  0
    3.1026    1.6367    0.4765 O   0  0  0  0  0  0  0  0  0  0  0  0
   -3.0308    1.9307   -0.0819 O   0  0  0  0  0  0  0  0  0  0  0  0
   -3.7131   -0.1480    0.0981 O   0  0  0  0  0  0  0  0  0  0  0  0
   -2.7942    0.7034    0.0273 N   0  0  0  0  0  0  0  0  0  0  0  0
    0.1671   -1.5278    0.2410 C   0  0  0  0  0  0  0  0  0  0  0  0
    0.4536   -2.9875    0.3720 C   0  0  0  0  0  0  0  0  0  0  0  0
    1.2062   -0.6007    0.1636 C   0  0  0  0  0  0  0  0  0  0  0  0
   -1.1583   -1.0954    0.1950 C   0  0  0  0  0  0  0  0  0  0  0  0
    0.9201    0.7589    0.0402 C   0  0  0  0  0  0  0  0  0  0  0  0
   -1.4444    0.2642    0.0717 C   0  0  0  0  0  0  0  0  0  0  0  0
   -0.4053    1.1914   -0.0056 C   0  0  0  0  0  0  0  0  0  0  0  0
    0.5729   -3.6778   -0.9834 C   0  0  0  0  0  0  0  0  0  0  0  0
    1.9890    1.7448   -0.0442 C   0  0  0  0  0  0  0  0  0  0  0  0
  1  9  1  0
  2 15  1  0
  3 15  2  0
  4  6  1  0
  5  6  2  0
  6 12  1  0
  7  8  1  0
  7  9  2  0
  7 10  1  0
  8 14  1  0
  9 11  1  0
 10 12  2  0
 11 13  2  0
 11 15  1  0
 12 13  1  0
M  CHG  2   4  -1   6   1
M  END
>  <PUBCHEM_COMPOUND_CID>  (1) 
42033

>  <PUBCHEM_CONFORMER_RMSD>  (1) 
0.6

>  <PUBCHEM_CONFORMER_DIVERSEORDER>  (1) 
1
2

>  <PUBCHEM_MMFF94_PARTIAL_CHARGES>  (1) 
18
1 -0.53
10 -0.15
11 0.09
12 0.13
13 -0.15
15 0.63
18 0.15
19 0.15
2 -0.65
23 0.45
24 0.5
3 -0.57
4 -0.52
5 -0.52
6 0.91
7 -0.14
8 0.14
9 0.08

>  <PUBCHEM_EFFECTIVE_ROTOR_COUNT>  (1) 
3

>  <PUBCHEM_PHARMACOPHORE_FEATURES>  (1) 
9
1 1 donor
1 14 hydrophobe
1 2 acceptor
1 3 acceptor
1 4 acceptor
1 4 anion
1 5 acceptor
3 2 3 15 anion
6 7 9 10 11 12 13 rings

>  <PUBCHEM_HEAVY_ATOM_COUNT>  (1) 
15

>  <PUBCHEM_ATOM_DEF_STEREO_COUNT>  (1) 
0

>  <PUBCHEM_ATOM_UDEF_STEREO_COUNT>  (1) 
0

>  <PUBCHEM_BOND_DEF_STEREO_COUNT>  (1) 
0

>  <PUBCHEM_BOND_UDEF_STEREO_COUNT>  (1) 
0

>  <PUBCHEM_ISOTOPIC_ATOM_COUNT>  (1) 
0

>  <PUBCHEM_COMPONENT_COUNT>  (1) 
1

>  <PUBCHEM_CACTVS_TAUTO_COUNT>  (1) 
6

>  <PUBCHEM_CONFORMER_ID>  (1) 
0000A43100000001

>  <PUBCHEM_MMFF94_ENERGY>  (1) 
44.404

>  <PUBCHEM_FEATURE_SELFOVERLAP>  (1) 
45.81

>  <PUBCHEM_SHAPE_FINGERPRINT>  (1) 
1 1 18411136913688233783
10967382 1 18409729538751796514
13140716 1 18410293609728618779
13380535 76 18337669840206286818
14648413 74 18263928735385032153
14790565 3 15892512768621088600
14817 1 9897727669535472530
161256 15 17620189837045827786
16945 1 18267587905497178891
17990270 104 18193837038062448403
193761 8 18193559106301959522
20511035 2 18187656850542920202
20645477 70 18337665331303061367
20871998 184 17761787555647192459
21524375 3 18263077876203591513
2334 1 18338237196817265803
23402539 116 17767114676773114295
23419403 2 17245517029418311054
23530152 11 18339926038219762815
23552423 10 18339923706358131753
241688 4 17402052193050513450
2748010 2 18336837484113280906
3060560 45 18410290302624886846
3071541 12 18267871570770164337
352729 6 18193840568187858083
7364860 26 18269273465391401467
81228 2 17474951403168029427

>  <PUBCHEM_SHAPE_MULTIPOLES>  (1) 
274.37
4.03
3.78
0.72
2.68
2.75
-0.07
-2.79
0.22
-1.73
-0.92
-0.15
0.2
0.03

>  <PUBCHEM_SHAPE_SELFOVERLAP>  (1) 
579.602

>  <PUBCHEM_SHAPE_VOLUME>  (1) 
154.2

>  <PUBCHEM_COORDINATE_TYPE>  (1) 
2
5
10

$$$$
