4203
     RDKit          3D

 19 20  0  0  0  0  0  0  0  0999 V2000
    3.8012   -0.0686    0.5552 S   0  0  0  0  0  0  0  0  0  0  0  0
    2.8977    0.1771   -0.7977 O   0  0  0  0  0  0  0  0  0  0  0  0
    5.3315   -0.1007   -0.0083 O   0  0  0  0  0  0  0  0  0  0  0  0
    3.4949   -1.3961    1.0551 O   0  0  0  0  0  0  0  0  0  0  0  0
    3.6726    1.0834    1.4283 O   0  0  0  0  0  0  0  0  0  0  0  0
   -2.5284   -0.0242    0.0048 N   0  0  0  0  0  0  0  0  0  0  0  0
   -0.4923    1.2349   -0.0666 N   0  0  0  0  0  0  0  0  0  0  0  0
    1.5359    0.1043   -0.5996 N   0  0  0  0  0  0  0  0  0  0  0  0
    1.6278   -2.2316   -1.0666 N   0  0  0  0  0  0  0  0  0  0  0  0
    1.5544    2.4105   -0.1562 N   0  0  0  0  0  0  0  0  0  0  0  0
   -5.3713   -0.0341    0.5023 C   0  0  0  0  0  0  0  0  0  0  0  0
   -4.5150   -1.2671    0.7633 C   0  0  0  0  0  0  0  0  0  0  0  0
   -4.7648    0.7987   -0.6205 C   0  0  0  0  0  0  0  0  0  0  0  0
   -3.0637   -0.8925    1.0598 C   0  0  0  0  0  0  0  0  0  0  0  0
   -3.3163    1.1744   -0.3164 C   0  0  0  0  0  0  0  0  0  0  0  0
   -1.1441    0.0406   -0.1971 C   0  0  0  0  0  0  0  0  0  0  0  0
   -0.4641   -1.1389   -0.5308 C   0  0  0  0  0  0  0  0  0  0  0  0
    0.9058   -1.0711   -0.7297 C   0  0  0  0  0  0  0  0  0  0  0  0
    0.8382    1.2011   -0.2793 C   0  0  0  0  0  0  0  0  0  0  0  0
  1  2  1  0
  1  3  1  0
  1  4  2  0
  1  5  2  0
  2  8  1  0
  6 14  1  0
  6 15  1  0
  6 16  1  0
  7 16  2  0
  7 19  1  0
  8 18  1  0
  8 19  2  0
  9 18  1  0
 10 19  1  0
 11 12  1  0
 11 13  1  0
 12 14  1  0
 13 15  1  0
 16 17  1  0
 17 18  2  0
M  CHG  1   8   1
M  END
>  <PUBCHEM_COMPOUND_CID>  (1) 
4203

>  <PUBCHEM_CONFORMER_RMSD>  (1) 
0.6

>  <PUBCHEM_CONFORMER_DIVERSEORDER>  (1) 
3
11
7
6
13
8
12
5
10
9
4
1
2

>  <PUBCHEM_MMFF94_PARTIAL_CHARGES>  (1) 
22
1 1.67
10 -0.9
14 0.37
15 0.37
16 0.41
17 -0.15
18 0.46
19 0.77
2 0.06
3 -0.68
30 0.15
31 0.4
32 0.4
33 0.4
34 0.4
35 0.5
4 -0.65
5 -0.65
6 -0.84
7 -0.62
8 0.03
9 -0.9

>  <PUBCHEM_EFFECTIVE_ROTOR_COUNT>  (1) 
4.2

>  <PUBCHEM_PHARMACOPHORE_FEATURES>  (1) 
10
1 10 donor
1 3 acceptor
1 4 acceptor
1 5 acceptor
1 9 cation
1 9 donor
4 1 3 4 5 anion
4 7 8 10 19 cation
6 6 11 12 13 14 15 rings
6 7 8 16 17 18 19 rings

>  <PUBCHEM_HEAVY_ATOM_COUNT>  (1) 
19

>  <PUBCHEM_ATOM_DEF_STEREO_COUNT>  (1) 
0

>  <PUBCHEM_ATOM_UDEF_STEREO_COUNT>  (1) 
0

>  <PUBCHEM_BOND_DEF_STEREO_COUNT>  (1) 
0

>  <PUBCHEM_BOND_UDEF_STEREO_COUNT>  (1) 
0

>  <PUBCHEM_ISOTOPIC_ATOM_COUNT>  (1) 
0

>  <PUBCHEM_COMPONENT_COUNT>  (1) 
1

>  <PUBCHEM_CACTVS_TAUTO_COUNT>  (1) 
9

>  <PUBCHEM_CONFORMER_ID>  (1) 
0000106B00000003

>  <PUBCHEM_MMFF94_ENERGY>  (1) 
71.0751

>  <PUBCHEM_FEATURE_SELFOVERLAP>  (1) 
50.803

>  <PUBCHEM_SHAPE_FINGERPRINT>  (1) 
10608611 8 18407764742387350365
11796584 16 16805605875903684715
12011746 2 18341897372806263318
12236239 1 14634871951249673685
12251169 10 18409166648980768718
124424 183 18113617889449316493
12507557 5 18410857676848537209
12633257 1 18335715961442556793
12644460 14 18116444811122624136
12670546 56 16443059512972488309
13140716 1 18198904905744291971
13583140 156 17823113735846057303
13675066 3 18410570695301467477
13760787 19 17603312569713829454
14251731 8 17894910720101134421
14252887 29 18342465806879332414
15375358 24 18411419492925194087
15788980 27 17167865253414706313
16945 1 18271815626353030117
17349148 13 18342171168165203273
17834072 14 18338234869282549491
17834072 33 17240770605045331572
1813 80 14851886911277159590
19026448 5 16732709362888194253
19862831 5 11602537628476929035
200 152 18060699494774930477
20279233 1 18409175398430543967
204376 136 17775001327486538119
20645477 70 18409736187682950239
21033648 29 17917131836855279809
21501925 9 18335422369925351159
21637258 2 16298370354568553426
22182313 1 18198342862192559580
22854114 59 18131353016089288171
23402539 116 18040428898246977341
23557571 272 18041842805385820285
23559900 14 18189907421716670079
26918003 58 18410294714083807217
2748010 2 18126290731316030780
2838139 119 14620502485088572298
351380 180 18334855035242798369
4072396 5 18339632356766434355
42 15 17821446859138732331
465052 167 18260553337550878922
474 4 16271351023993213840
4990 188 8070026679131775233
5104073 3 18269001895252912867
573450 72 17313100852529434009
9709674 26 18336558178812843263

>  <PUBCHEM_SHAPE_MULTIPOLES>  (1) 
346.48
10.49
1.76
1.03
2.97
0.12
-0.14
-0.39
-2.6
-0.44
0.15
-0.32
-0.21
0.8

>  <PUBCHEM_SHAPE_SELFOVERLAP>  (1) 
707.838

>  <PUBCHEM_SHAPE_VOLUME>  (1) 
200.7

>  <PUBCHEM_COORDINATE_TYPE>  (1) 
2
5
10

$$$$
