42035
     RDKit          3D

 19 19  0  0  0  0  0  0  0  0999 V2000
    0.1644    2.7015   -0.6515 Cl  0  0  0  0  0  0  0  0  0  0  0  0
    0.1461   -2.7198   -0.6138 Cl  0  0  0  0  0  0  0  0  0  0  0  0
   -2.8433   -2.7041    0.3968 Cl  0  0  0  0  0  0  0  0  0  0  0  0
   -2.8251    2.7205    0.3542 Cl  0  0  0  0  0  0  0  0  0  0  0  0
    1.6558   -0.0171   -1.1377 S   0  0  0  0  0  0  0  0  0  0  0  0
    1.8765   -1.2822   -1.8117 O   0  0  0  0  0  0  0  0  0  0  0  0
    1.9110    1.2366   -1.8217 O   0  0  0  0  0  0  0  0  0  0  0  0
    5.4937    0.0376    2.3348 N   0  0  0  0  0  0  0  0  0  0  0  0
   -5.1158    0.0221    1.1417 N   0  0  0  0  0  0  0  0  0  0  0  0
    2.6056   -0.0079    0.3607 C   0  0  0  0  0  0  0  0  0  0  0  0
   -0.0167   -0.0083   -0.5759 C   0  0  0  0  0  0  0  0  0  0  0  0
    4.1042   -0.0139    0.1022 C   0  0  0  0  0  0  0  0  0  0  0  0
   -0.6733    1.2035   -0.3615 C   0  0  0  0  0  0  0  0  0  0  0  0
   -0.6817   -1.2124   -0.3443 C   0  0  0  0  0  0  0  0  0  0  0  0
   -2.0033   -1.2047    0.1019 C   0  0  0  0  0  0  0  0  0  0  0  0
   -1.9949    1.2112    0.0846 C   0  0  0  0  0  0  0  0  0  0  0  0
   -2.6599    0.0071    0.3165 C   0  0  0  0  0  0  0  0  0  0  0  0
    4.8799    0.0150    1.3502 C   0  0  0  0  0  0  0  0  0  0  0  0
   -4.0234    0.0154    0.7746 C   0  0  0  0  0  0  0  0  0  0  0  0
  1 13  1  0
  2 14  1  0
  3 15  1  0
  4 16  1  0
  5  6  2  0
  5  7  2  0
  5 10  1  0
  5 11  1  0
  8 18  3  0
  9 19  3  0
 10 12  1  0
 11 13  2  0
 11 14  1  0
 12 18  1  0
 13 16  1  0
 14 15  2  0
 15 17  1  0
 16 17  2  0
 17 19  1  0
M  END
>  <PUBCHEM_COMPOUND_CID>  (1) 
42035

>  <PUBCHEM_CONFORMER_RMSD>  (1) 
0.6

>  <PUBCHEM_CONFORMER_DIVERSEORDER>  (1) 
1
9
6
10
4
5
7
12
11
8
2
13
3

>  <PUBCHEM_MMFF94_PARTIAL_CHARGES>  (1) 
19
1 -0.18
10 0.11
11 -0.01
12 0.2
13 0.18
14 0.18
15 0.18
16 0.18
17 0.07
18 0.36
19 0.48
2 -0.18
3 -0.18
4 -0.18
5 1.2
6 -0.65
7 -0.65
8 -0.56
9 -0.56

>  <PUBCHEM_EFFECTIVE_ROTOR_COUNT>  (1) 
3

>  <PUBCHEM_PHARMACOPHORE_FEATURES>  (1) 
5
1 6 acceptor
1 7 acceptor
1 8 acceptor
1 9 acceptor
6 11 13 14 15 16 17 rings

>  <PUBCHEM_HEAVY_ATOM_COUNT>  (1) 
19

>  <PUBCHEM_ATOM_DEF_STEREO_COUNT>  (1) 
0

>  <PUBCHEM_ATOM_UDEF_STEREO_COUNT>  (1) 
0

>  <PUBCHEM_BOND_DEF_STEREO_COUNT>  (1) 
0

>  <PUBCHEM_BOND_UDEF_STEREO_COUNT>  (1) 
0

>  <PUBCHEM_ISOTOPIC_ATOM_COUNT>  (1) 
0

>  <PUBCHEM_COMPONENT_COUNT>  (1) 
1

>  <PUBCHEM_CACTVS_TAUTO_COUNT>  (1) 
1

>  <PUBCHEM_CONFORMER_ID>  (1) 
0000A43300000001

>  <PUBCHEM_MMFF94_ENERGY>  (1) 
47.6691

>  <PUBCHEM_FEATURE_SELFOVERLAP>  (1) 
25.391

>  <PUBCHEM_SHAPE_FINGERPRINT>  (1) 
10062212 137 18262805202010853375
10319926 262 18268140973422208762
10967382 1 18266482995580704727
11132069 177 18340780290309251135
12236239 1 17603877706127189188
12251169 10 18335706048030361156
12403259 415 18060141986160191604
12507560 40 18271524187590321054
12553582 1 18266479714172969077
12633257 1 18201148949343114784
12839892 36 18409731776725793619
12892183 10 18263632992727320530
13140716 1 18267033941121619705
14178342 30 18192159204513847133
14420673 8 17614271175155822882
15342168 16 15697712701259673240
15375462 189 17676480670769884114
15475509 35 16879084112037094489
16945 1 18338536182976892671
17980427 23 18129375067495803845
1813 80 16588589695858183582
19784866 240 16081090355049093866
200 152 15791724196603133040
20510252 161 18200323100088684345
20600515 1 18342742961103209989
20645477 70 14418134037149184602
21501502 16 18049456021670407525
21618674 25 17346602967000369678
21637258 2 15864063308177067913
21650355 55 18335974346216381632
22182313 1 18193850240944618109
23175994 123 14056720123765562366
2334 1 17907878540981055509
23366157 5 17608660740269026597
23402539 116 18411973668349905861
23419403 2 17052974126448367837
23557571 272 18271538502479078468
23559900 14 18129119886841486654
2748010 2 17976561424558770493
2838139 119 15482663568510676208
3286 77 15719396143968586118
4072396 5 18334017177154229091
474 4 14549017719444637378
5104073 3 18120675753904970435
58807428 26 18117845395461812147
7097593 13 18115576034080897306
90316 7 18114738244596175932

>  <PUBCHEM_SHAPE_MULTIPOLES>  (1) 
380.64
8.62
2.78
1.47
6.62
0.01
-0.16
-0.06
-6.58
-2.38
0.49
1.95
-0.01
0.03

>  <PUBCHEM_SHAPE_SELFOVERLAP>  (1) 
750.81

>  <PUBCHEM_SHAPE_VOLUME>  (1) 
227.7

>  <PUBCHEM_COORDINATE_TYPE>  (1) 
2
5
10

$$$$
