42040
     RDKit          3D

 15 16  0  0  0  0  0  0  0  0999 V2000
    1.5283   -2.1750   -0.0002 F   0  0  0  0  0  0  0  0  0  0  0  0
   -0.0408    0.1557    0.0002 C   0  0  0  0  0  0  0  0  0  0  0  0
    1.4053    0.2000    0.0002 C   0  0  0  0  0  0  0  0  0  0  0  0
   -0.7379    0.1339   -1.2078 C   0  0  0  0  0  0  0  0  0  0  0  0
   -0.7380    0.1344    1.2083 C   0  0  0  0  0  0  0  0  0  0  0  0
    2.1439   -0.9835    0.0005 C   0  0  0  0  0  0  0  0  0  0  0  0
    2.0617    1.4310   -0.0002 C   0  0  0  0  0  0  0  0  0  0  0  0
   -2.1321    0.0910   -1.2080 C   0  0  0  0  0  0  0  0  0  0  0  0
   -2.1323    0.0914    1.2080 C   0  0  0  0  0  0  0  0  0  0  0  0
   -2.8292    0.0697   -0.0001 C   0  0  0  0  0  0  0  0  0  0  0  0
    3.5381   -0.9359    0.0001 C   0  0  0  0  0  0  0  0  0  0  0  0
    3.4559    1.4785   -0.0005 C   0  0  0  0  0  0  0  0  0  0  0  0
    4.1940    0.2951   -0.0002 C   0  0  0  0  0  0  0  0  0  0  0  0
   -4.2574    0.0254   -0.0002 C   0  0  0  0  0  0  0  0  0  0  0  0
   -5.4596   -0.0118   -0.0002 C   0  0  0  0  0  0  0  0  0  0  0  0
  1  6  1  0
  2  3  1  0
  2  4  2  0
  2  5  1  0
  3  6  2  0
  3  7  1  0
  4  8  1  0
  5  9  2  0
  6 11  1  0
  7 12  2  0
  8 10  2  0
  9 10  1  0
 10 14  1  0
 11 13  2  0
 12 13  1  0
 14 15  3  0
M  END
>  <PUBCHEM_COMPOUND_CID>  (1) 
42040

>  <PUBCHEM_CONFORMER_RMSD>  (1) 
0.4

>  <PUBCHEM_CONFORMER_DIVERSEORDER>  (1) 
1
2
3

>  <PUBCHEM_MMFF94_PARTIAL_CHARGES>  (1) 
22
1 -0.19
10 0.07
11 -0.15
12 -0.15
13 -0.15
14 -0.07
15 -0.18
16 0.15
17 0.15
18 0.15
19 0.15
20 0.15
21 0.15
22 0.15
23 0.15
24 0.18
4 -0.15
5 -0.15
6 0.19
7 -0.15
8 -0.15
9 -0.15

>  <PUBCHEM_EFFECTIVE_ROTOR_COUNT>  (1) 
1

>  <PUBCHEM_PHARMACOPHORE_FEATURES>  (1) 
3
1 15 hydrophobe
6 2 4 5 8 9 10 rings
6 3 6 7 11 12 13 rings

>  <PUBCHEM_HEAVY_ATOM_COUNT>  (1) 
15

>  <PUBCHEM_ATOM_DEF_STEREO_COUNT>  (1) 
0

>  <PUBCHEM_ATOM_UDEF_STEREO_COUNT>  (1) 
0

>  <PUBCHEM_BOND_DEF_STEREO_COUNT>  (1) 
0

>  <PUBCHEM_BOND_UDEF_STEREO_COUNT>  (1) 
0

>  <PUBCHEM_ISOTOPIC_ATOM_COUNT>  (1) 
0

>  <PUBCHEM_COMPONENT_COUNT>  (1) 
1

>  <PUBCHEM_CACTVS_TAUTO_COUNT>  (1) 
1

>  <PUBCHEM_CONFORMER_ID>  (1) 
0000A43800000001

>  <PUBCHEM_MMFF94_ENERGY>  (1) 
39.7234

>  <PUBCHEM_FEATURE_SELFOVERLAP>  (1) 
15.223

>  <PUBCHEM_SHAPE_FINGERPRINT>  (1) 
11287383 113 18260551160355621435
11471102 20 18409449189404767872
12236239 1 17703791418417012752
13538477 17 17489581303007760759
13581323 91 16343703205579929680
13760787 19 18131348639918657351
14115302 16 17775565376851152479
14251717 144 18411983546442636810
14252887 29 17821734914100240545
14993402 34 17132117961163170921
15219456 202 18040991821776596916
15342168 16 18118968233252924516
15375358 24 17603587434872859259
16945 1 18410856543087661350
17834072 33 18343016731483273423
1813 80 17915194416669913214
18175812 5 17749676280532598774
18186145 218 18271800255081938972
19026448 4 18260547814650002693
19026448 5 18272652338160188673
19422 9 17703797985358802250
200 152 18343581837167359881
20201158 50 18041000622296494194
20279233 1 17676493842970461203
20645476 183 17775000241170776117
20645477 70 18410573946576354118
22854114 59 18334012808687276821
23048698 100 18202568379746050337
23402539 116 16732976557394271871
23402655 69 18412543197850644877
23557571 272 16877940490746879046
23559900 14 16515410659883549466
23728640 28 15165446367378551570
26918003 58 18409166623279459155
3286 77 18114458955514673398
33824 294 18334012774575822346
4047638 21 17968096438749365000
4340502 62 18412266164170954595
474 4 17844519127454179024
4990 188 17676205754181964451
522135 26 18341894086760714396
5374978 207 15140958482601424276
69090 78 18040995167893938515
77492 1 17703790318963394244
81228 2 16806453491894459653
8272917 22 18271814458470305943
9981440 41 16551685970993336544

>  <PUBCHEM_SHAPE_MULTIPOLES>  (1) 
301.42
8.84
1.24
1.01
5.92
0.25
0
-0.47
0
-1.49
0
0.57
-0.05
0

>  <PUBCHEM_SHAPE_SELFOVERLAP>  (1) 
657.111

>  <PUBCHEM_SHAPE_VOLUME>  (1) 
164.4

>  <PUBCHEM_COORDINATE_TYPE>  (1) 
2
5
10

$$$$
