42045
     RDKit          3D

 31 32  0  0  0  0  0  0  0  0999 V2000
    0.1052   -2.2653   -1.0617 O   0  0  0  0  0  0  0  0  0  0  0  0
   -2.2117   -1.5119   -2.1559 O   0  0  0  0  0  0  0  0  0  0  0  0
    0.4074    0.0142   -1.0833 O   0  0  0  0  0  0  0  0  0  0  0  0
    3.6269   -2.6772    0.1426 N   0  0  0  0  0  0  0  0  0  0  0  0
    4.2237   -1.5711   -0.6422 C   0  0  0  0  0  0  0  0  0  0  0  0
    2.1031   -2.5158    0.2451 C   0  0  0  0  0  0  0  0  0  0  0  0
    3.9209   -0.2260    0.0081 C   0  0  0  0  0  0  0  0  0  0  0  0
    3.9175   -4.0342   -0.5152 C   0  0  0  0  0  0  0  0  0  0  0  0
    4.1984   -2.7078    1.5677 C   0  0  0  0  0  0  0  0  0  0  0  0
    4.5533    0.9590   -0.7279 C   0  0  0  0  0  0  0  0  0  0  0  0
    4.2393    2.3125   -0.0811 C   0  0  0  0  0  0  0  0  0  0  0  0
    1.5118   -2.4511   -1.1494 C   0  0  0  0  0  0  0  0  0  0  0  0
    2.7541    2.6721    0.0251 C   0  0  0  0  0  0  0  0  0  0  0  0
    2.5039    4.0588    0.6212 C   0  0  0  0  0  0  0  0  0  0  0  0
    1.0070    4.3677    0.6963 C   0  0  0  0  0  0  0  0  0  0  0  0
   -1.8545   -0.9021   -0.8986 C   0  0  0  0  0  0  0  0  0  0  0  0
    0.7533    5.7373    1.3258 C   0  0  0  0  0  0  0  0  0  0  0  0
   -0.3310   -0.9623   -1.0361 C   0  0  0  0  0  0  0  0  0  0  0  0
   -2.4167    0.5194   -0.8210 C   0  0  0  0  0  0  0  0  0  0  0  0
   -2.3775   -1.7597    0.2560 C   0  0  0  0  0  0  0  0  0  0  0  0
   -0.7311    6.0633    1.3717 C   0  0  0  0  0  0  0  0  0  0  0  0
   -2.1621    1.3098    0.2999 C   0  0  0  0  0  0  0  0  0  0  0  0
   -3.5587   -2.4864    0.1055 C   0  0  0  0  0  0  0  0  0  0  0  0
   -3.1833    1.0247   -1.8711 C   0  0  0  0  0  0  0  0  0  0  0  0
   -1.6730   -1.8151    1.4587 C   0  0  0  0  0  0  0  0  0  0  0  0
   -2.6742    2.6053    0.3707 C   0  0  0  0  0  0  0  0  0  0  0  0
   -4.0355   -3.2682    1.1576 C   0  0  0  0  0  0  0  0  0  0  0  0
   -3.6952    2.3204   -1.8002 C   0  0  0  0  0  0  0  0  0  0  0  0
   -2.1498   -2.5970    2.5108 C   0  0  0  0  0  0  0  0  0  0  0  0
   -3.4407    3.1106   -0.6793 C   0  0  0  0  0  0  0  0  0  0  0  0
   -3.3311   -3.3236    2.3602 C   0  0  0  0  0  0  0  0  0  0  0  0
  1 12  1  0
  1 18  1  0
  2 16  1  0
  3 18  2  0
  4  5  1  0
  4  6  1  0
  4  8  1  0
  4  9  1  0
  5  7  1  0
  6 12  1  0
  7 10  1  0
 10 11  1  0
 11 13  1  0
 13 14  1  0
 14 15  1  0
 15 17  1  0
 16 18  1  0
 16 19  1  0
 16 20  1  0
 17 21  1  0
 19 22  2  0
 19 24  1  0
 20 23  2  0
 20 25  1  0
 22 26  1  0
 23 27  1  0
 24 28  2  0
 25 29  2  0
 26 30  2  0
 27 31  2  0
 28 30  1  0
 29 31  1  0
M  CHG  1   4   1
M  END
>  <PUBCHEM_COMPOUND_CID>  (1) 
42045

>  <PUBCHEM_CONFORMER_RMSD>  (1) 
1.6

>  <PUBCHEM_CONFORMER_DIVERSEORDER>  (1) 
1
42
22
5
30
19
44
33
27
6
38
17
23
29
39
35
11
40
37
10
34
4
13
31
24
36
41
43
15
45
9
12
25
20
16
21
7
32
8
3
14
28
18
26
2

>  <PUBCHEM_MMFF94_PARTIAL_CHARGES>  (1) 
34
1 -0.43
12 0.28
16 0.63
18 0.66
19 -0.14
2 -0.68
20 -0.14
22 -0.15
23 -0.15
24 -0.15
25 -0.15
26 -0.15
27 -0.15
28 -0.15
29 -0.15
3 -0.57
30 -0.15
31 -0.15
4 -1.01
5 0.5
6 0.5
61 0.4
62 0.15
63 0.15
64 0.15
65 0.15
66 0.15
67 0.15
68 0.15
69 0.15
70 0.15
71 0.15
8 0.5
9 0.5

>  <PUBCHEM_EFFECTIVE_ROTOR_COUNT>  (1) 
15

>  <PUBCHEM_PHARMACOPHORE_FEATURES>  (1) 
7
1 2 acceptor
1 2 donor
1 21 hydrophobe
1 3 acceptor
1 4 cation
6 19 22 24 26 28 30 rings
6 20 23 25 27 29 31 rings

>  <PUBCHEM_HEAVY_ATOM_COUNT>  (1) 
31

>  <PUBCHEM_ATOM_DEF_STEREO_COUNT>  (1) 
0

>  <PUBCHEM_ATOM_UDEF_STEREO_COUNT>  (1) 
0

>  <PUBCHEM_BOND_DEF_STEREO_COUNT>  (1) 
0

>  <PUBCHEM_BOND_UDEF_STEREO_COUNT>  (1) 
0

>  <PUBCHEM_ISOTOPIC_ATOM_COUNT>  (1) 
0

>  <PUBCHEM_COMPONENT_COUNT>  (1) 
1

>  <PUBCHEM_CACTVS_TAUTO_COUNT>  (1) 
1

>  <PUBCHEM_CONFORMER_ID>  (1) 
0000A43D00000001

>  <PUBCHEM_MMFF94_ENERGY>  (1) 
77.1774

>  <PUBCHEM_FEATURE_SELFOVERLAP>  (1) 
35.52

>  <PUBCHEM_SHAPE_FINGERPRINT>  (1) 
12293681 4 18120938300502377650
12633257 1 17751912528650241042
12788726 201 17979068281037165450
13140716 1 18338233752718030030
13165053 371 18050017885641331347
13583140 156 18338517546655074134
140371 6 18051130294533345446
15264996 142 17547031636627687882
15264996 55 17187808431764471960
15351339 4 17906993102924210093
17627616 140 16246314740581676732
19930381 70 17979350090393441184
23559900 14 17823419477335730271
4015057 19 18338499877249613991
437795 70 17049934694394774638
5081480 168 17129338336139583646
9981440 41 17979887700034911840

>  <PUBCHEM_SHAPE_MULTIPOLES>  (1) 
615.38
9.01
8.47
1.94
4.75
11.15
0.38
-4.48
0.21
3.24
4.29
-1.94
-0.59
3.22

>  <PUBCHEM_SHAPE_SELFOVERLAP>  (1) 
1248.874

>  <PUBCHEM_SHAPE_VOLUME>  (1) 
358.3

>  <PUBCHEM_COORDINATE_TYPE>  (1) 
2
5
10

$$$$
