42049
     RDKit          3D

 29 30  0  0  0  0  0  0  0  0999 V2000
    0.8332   -0.6531    0.9951 O   0  0  0  0  0  0  0  0  0  0  0  0
    3.4103   -0.7504    1.6891 O   0  0  0  0  0  0  0  0  0  0  0  0
    1.3341    1.5909    0.9498 O   0  0  0  0  0  0  0  0  0  0  0  0
   -2.7833   -1.2834    1.7346 N   0  0  0  0  0  0  0  0  0  0  0  0
   -3.3455   -0.4155    0.6742 C   0  0  0  0  0  0  0  0  0  0  0  0
   -1.3152   -1.6263    1.4410 C   0  0  0  0  0  0  0  0  0  0  0  0
   -4.8685   -0.4796    0.6760 C   0  0  0  0  0  0  0  0  0  0  0  0
   -3.5670   -2.6003    1.8376 C   0  0  0  0  0  0  0  0  0  0  0  0
   -2.8436   -0.5869    3.1022 C   0  0  0  0  0  0  0  0  0  0  0  0
   -5.5777    0.4172   -0.3448 C   0  0  0  0  0  0  0  0  0  0  0  0
   -0.5196   -0.3434    1.3027 C   0  0  0  0  0  0  0  0  0  0  0  0
   -7.1037    0.3596   -0.2497 C   0  0  0  0  0  0  0  0  0  0  0  0
   -7.7580    1.2770   -1.2854 C   0  0  0  0  0  0  0  0  0  0  0  0
   -9.2820    1.2468   -1.1716 C   0  0  0  0  0  0  0  0  0  0  0  0
    3.0882   -0.0477    0.4716 C   0  0  0  0  0  0  0  0  0  0  0  0
    1.6778    0.4199    0.8400 C   0  0  0  0  0  0  0  0  0  0  0  0
   -9.9344    2.1829   -2.1763 C   0  0  0  0  0  0  0  0  0  0  0  0
    4.0816    1.0935    0.2403 C   0  0  0  0  0  0  0  0  0  0  0  0
    3.0974   -1.0262   -0.7050 C   0  0  0  0  0  0  0  0  0  0  0  0
    3.9377    1.9298   -0.8669 C   0  0  0  0  0  0  0  0  0  0  0  0
    3.9678   -2.1162   -0.6986 C   0  0  0  0  0  0  0  0  0  0  0  0
    5.1307    1.2977    1.1368 C   0  0  0  0  0  0  0  0  0  0  0  0
    2.2353   -0.8285   -1.7836 C   0  0  0  0  0  0  0  0  0  0  0  0
    4.8429    2.9699   -1.0777 C   0  0  0  0  0  0  0  0  0  0  0  0
    3.9763   -3.0083   -1.7709 C   0  0  0  0  0  0  0  0  0  0  0  0
    6.0357    2.3380    0.9259 C   0  0  0  0  0  0  0  0  0  0  0  0
    2.2436   -1.7208   -2.8557 C   0  0  0  0  0  0  0  0  0  0  0  0
    5.8917    3.1741   -0.1814 C   0  0  0  0  0  0  0  0  0  0  0  0
    3.1142   -2.8106   -2.8493 C   0  0  0  0  0  0  0  0  0  0  0  0
  1 11  1  0
  1 16  1  0
  2 15  1  0
  3 16  2  0
  4  5  1  0
  4  6  1  0
  4  8  1  0
  4  9  1  0
  5  7  1  0
  6 11  1  0
  7 10  1  0
 10 12  1  0
 12 13  1  0
 13 14  1  0
 14 17  1  0
 15 16  1  0
 15 18  1  0
 15 19  1  0
 18 20  2  0
 18 22  1  0
 19 21  2  0
 19 23  1  0
 20 24  1  0
 21 25  1  0
 22 26  2  0
 23 27  2  0
 24 28  2  0
 25 29  2  0
 26 28  1  0
 27 29  1  0
M  CHG  1   4   1
M  END
>  <PUBCHEM_COMPOUND_CID>  (1) 
42049

>  <PUBCHEM_CONFORMER_RMSD>  (1) 
1.4

>  <PUBCHEM_CONFORMER_DIVERSEORDER>  (1) 
1
3
29
23
30
28
20
33
5
27
15
32
19
38
9
36
17
16
37
22
18
2
14
10
6
21
35
11
24
25
4
7
13
12
8
34
31
26

>  <PUBCHEM_MMFF94_PARTIAL_CHARGES>  (1) 
34
1 -0.43
11 0.28
15 0.63
16 0.66
18 -0.14
19 -0.14
2 -0.68
20 -0.15
21 -0.15
22 -0.15
23 -0.15
24 -0.15
25 -0.15
26 -0.15
27 -0.15
28 -0.15
29 -0.15
3 -0.57
4 -1.01
5 0.5
55 0.4
56 0.15
57 0.15
58 0.15
59 0.15
6 0.5
60 0.15
61 0.15
62 0.15
63 0.15
64 0.15
65 0.15
8 0.5
9 0.5

>  <PUBCHEM_EFFECTIVE_ROTOR_COUNT>  (1) 
13

>  <PUBCHEM_PHARMACOPHORE_FEATURES>  (1) 
8
1 17 hydrophobe
1 2 acceptor
1 2 donor
1 3 acceptor
1 4 cation
5 7 10 12 13 14 hydrophobe
6 18 20 22 24 26 28 rings
6 19 21 23 25 27 29 rings

>  <PUBCHEM_HEAVY_ATOM_COUNT>  (1) 
29

>  <PUBCHEM_ATOM_DEF_STEREO_COUNT>  (1) 
0

>  <PUBCHEM_ATOM_UDEF_STEREO_COUNT>  (1) 
0

>  <PUBCHEM_BOND_DEF_STEREO_COUNT>  (1) 
0

>  <PUBCHEM_BOND_UDEF_STEREO_COUNT>  (1) 
0

>  <PUBCHEM_ISOTOPIC_ATOM_COUNT>  (1) 
0

>  <PUBCHEM_COMPONENT_COUNT>  (1) 
1

>  <PUBCHEM_CACTVS_TAUTO_COUNT>  (1) 
1

>  <PUBCHEM_CONFORMER_ID>  (1) 
0000A44100000001

>  <PUBCHEM_MMFF94_ENERGY>  (1) 
79.3107

>  <PUBCHEM_FEATURE_SELFOVERLAP>  (1) 
40.594

>  <PUBCHEM_SHAPE_FINGERPRINT>  (1) 
10554248 39 17987811713264799939
11135926 11 17702402782671249802
11443803 9 13901321821218917826
11475781 23 18259987072346733715
11621639 208 18048594824482788916
12616971 3 13623809483549583115
13533116 47 16845294904303381595
14400156 260 14129354987726964718
15183329 4 16630525129671146489
15238133 3 16298109804250541195
15475509 35 10015591583959959332
15840311 113 17313093134125212825
17134984 74 16486963025676692975
19304671 126 18408323259723447505
20721686 124 18410852136425998382
20721686 146 18042127716890710628
21585481 104 18058167233929879197
3178227 256 11674872299550922144
32027 91 18266475230112178434
3711267 37 18188770532439749445
3918712 181 17895460438041922477
44880568 143 18341331073243380629
57359948 33 18341890758367269525
59682541 52 18059573551665330903
60123966 16 18409738356572837150

>  <PUBCHEM_SHAPE_MULTIPOLES>  (1) 
574.22
23.06
3.46
2.75
67.5
0.1
0.29
20.01
13.39
-5.82
1.8
1.44
-1.67
5.93

>  <PUBCHEM_SHAPE_SELFOVERLAP>  (1) 
1171.735

>  <PUBCHEM_SHAPE_VOLUME>  (1) 
332.9

>  <PUBCHEM_COORDINATE_TYPE>  (1) 
2
5
10

$$$$
