42056
     RDKit          3D

 17 18  0  0  1  0  0  0  0  0999 V2000
   -6.2481   -0.6426    0.3687 Cl  0  0  0  0  0  0  0  0  0  0  0  0
    6.2820   -0.4870   -0.3745 Cl  0  0  0  0  0  0  0  0  0  0  0  0
   -0.1898    1.7763   -0.9655 O   0  0  0  0  0  0  0  0  0  0  0  0
   -0.4104    0.4337   -0.5194 C   0  0  0  0  0  0  0  0  0  0  0  0
    0.4283    0.2020    0.7588 C   0  0  0  0  0  0  0  0  0  0  0  0
   -1.8763    0.1637   -0.2973 C   0  0  0  0  0  0  0  0  0  0  0  0
    1.8830    0.0306    0.4781 C   0  0  0  0  0  0  0  0  0  0  0  0
   -2.3749   -1.1127   -0.5132 C   0  0  0  0  0  0  0  0  0  0  0  0
   -2.7041    1.1954    0.1204 C   0  0  0  0  0  0  0  0  0  0  0  0
    2.4015   -1.2415    0.2360 C   0  0  0  0  0  0  0  0  0  0  0  0
    2.7248    1.1426    0.4568 C   0  0  0  0  0  0  0  0  0  0  0  0
   -3.7317   -1.3628   -0.3072 C   0  0  0  0  0  0  0  0  0  0  0  0
   -4.0607    0.9452    0.3266 C   0  0  0  0  0  0  0  0  0  0  0  0
    3.7620   -1.4017   -0.0270 C   0  0  0  0  0  0  0  0  0  0  0  0
    4.0852    0.9823    0.1936 C   0  0  0  0  0  0  0  0  0  0  0  0
   -4.5746   -0.3338    0.1127 C   0  0  0  0  0  0  0  0  0  0  0  0
    4.6039   -0.2898   -0.0481 C   0  0  0  0  0  0  0  0  0  0  0  0
  1 16  1  0
  2 17  1  0
  3  4  1  0
  4  5  1  0
  4  6  1  0
  5  7  1  0
  6  8  2  0
  6  9  1  0
  7 10  2  0
  7 11  1  0
  8 12  1  0
  9 13  2  0
 10 14  1  0
 11 15  2  0
 12 16  2  0
 13 16  1  0
 14 17  2  0
 15 17  1  0
M  END
>  <PUBCHEM_COMPOUND_CID>  (1) 
42056

>  <PUBCHEM_CONFORMER_RMSD>  (1) 
0.6

>  <PUBCHEM_CONFORMER_DIVERSEORDER>  (1) 
1
7
10
6
8
5
3
2
4
9

>  <PUBCHEM_MMFF94_PARTIAL_CHARGES>  (1) 
26
1 -0.18
10 -0.15
11 -0.15
12 -0.15
13 -0.15
14 -0.15
15 -0.15
16 0.18
17 0.18
2 -0.18
21 0.15
22 0.15
23 0.15
24 0.15
25 0.4
26 0.15
27 0.15
28 0.15
29 0.15
3 -0.68
4 0.42
5 0.14
6 -0.14
7 -0.14
8 -0.15
9 -0.15

>  <PUBCHEM_EFFECTIVE_ROTOR_COUNT>  (1) 
3

>  <PUBCHEM_PHARMACOPHORE_FEATURES>  (1) 
4
1 3 acceptor
1 3 donor
6 6 8 9 12 13 16 rings
6 7 10 11 14 15 17 rings

>  <PUBCHEM_HEAVY_ATOM_COUNT>  (1) 
17

>  <PUBCHEM_ATOM_DEF_STEREO_COUNT>  (1) 
0

>  <PUBCHEM_ATOM_UDEF_STEREO_COUNT>  (1) 
1

>  <PUBCHEM_BOND_DEF_STEREO_COUNT>  (1) 
0

>  <PUBCHEM_BOND_UDEF_STEREO_COUNT>  (1) 
0

>  <PUBCHEM_ISOTOPIC_ATOM_COUNT>  (1) 
0

>  <PUBCHEM_COMPONENT_COUNT>  (1) 
1

>  <PUBCHEM_CACTVS_TAUTO_COUNT>  (1) 
1

>  <PUBCHEM_CONFORMER_ID>  (1) 
0000A44800000001

>  <PUBCHEM_MMFF94_ENERGY>  (1) 
42.8098

>  <PUBCHEM_FEATURE_SELFOVERLAP>  (1) 
20.297

>  <PUBCHEM_SHAPE_FINGERPRINT>  (1) 
10616163 171 18343017834710321455
10968037 39 18333452053863050991
11128504 68 17385732408880201534
11401426 45 10159697993085225473
12107183 9 17622451541000980619
12236239 1 18409451405840040193
12507557 5 8142079870923534118
12596602 18 15482662520038105770
128620 24 16732700536751668550
13167823 11 18342174470610159371
13288520 33 18412263943862292263
14123256 10 18113902671804039798
1420 363 18187368739567320331
14251764 18 17846499257521504979
14341114 176 18272654570915695145
14350574 20 18408324380693782150
14617045 38 18411425002904524422
15196674 1 18411135801297056707
17804303 29 18272931635414400401
17834072 33 18341612641627209205
17844677 252 18342745117134815672
1813 80 17531249447894801557
19141452 34 18342455984748173031
19489759 90 14764631911165857067
200 152 18201719544343350506
20645477 70 18341332193601830686
21267235 1 18411143540806882179
2297311 6 18272941504811663117
23035841 295 18187083957508080690
23402539 116 17676202447194225132
23402655 69 18335136437025989732
23557571 272 18261674783634684172
23559900 14 18272079556420303537
2871803 45 18187639189479130418
351380 180 8862941675746474510
3545911 37 18413670209916373946
42 15 18342177769524603991
4214541 1 18342175544584144041
4325135 7 18261115184219652526
465052 167 17917715729058407182
5104073 3 18341045229292439048
542803 24 14490188297691130093
77779 3 18341892991369980624

>  <PUBCHEM_SHAPE_MULTIPOLES>  (1) 
347.72
13.79
1.48
0.79
0.43
0.05
-0.02
-3.29
0.42
-0.03
-0.11
-0.02
0.07
0.03

>  <PUBCHEM_SHAPE_SELFOVERLAP>  (1) 
722.348

>  <PUBCHEM_SHAPE_VOLUME>  (1) 
199.6

>  <PUBCHEM_COORDINATE_TYPE>  (1) 
2
5
10

$$$$
