42054
     RDKit          3D

 24 27  0  0  0  0  0  0  0  0999 V2000
    2.0557    3.6313    0.9705 Cl  0  0  0  0  0  0  0  0  0  0  0  0
    2.2473   -1.8780   -1.9400 O   0  0  0  0  0  0  0  0  0  0  0  0
   -1.7785    0.7851   -0.3810 N   0  0  0  0  0  0  0  0  0  0  0  0
   -4.6094    1.1139   -0.3921 N   0  0  0  0  0  0  0  0  0  0  0  0
   -2.5830    0.1416   -1.4189 C   0  0  0  0  0  0  0  0  0  0  0  0
   -2.3754    1.9823    0.2096 C   0  0  0  0  0  0  0  0  0  0  0  0
   -3.9977   -0.1225   -0.8997 C   0  0  0  0  0  0  0  0  0  0  0  0
   -3.7947    1.6786    0.6934 C   0  0  0  0  0  0  0  0  0  0  0  0
   -0.4953    0.4047   -0.1147 C   0  0  0  0  0  0  0  0  0  0  0  0
   -0.3050   -1.0073    0.3104 C   0  0  0  0  0  0  0  0  0  0  0  0
   -5.9742    0.8609    0.0680 C   0  0  0  0  0  0  0  0  0  0  0  0
    0.5203    1.2823   -0.2331 C   0  0  0  0  0  0  0  0  0  0  0  0
    0.7581   -1.8135   -0.1266 C   0  0  0  0  0  0  0  0  0  0  0  0
    1.9587    1.0582   -0.0452 C   0  0  0  0  0  0  0  0  0  0  0  0
    2.6131   -0.1164   -0.4329 C   0  0  0  0  0  0  0  0  0  0  0  0
    1.8753   -1.2898   -0.9330 C   0  0  0  0  0  0  0  0  0  0  0  0
   -1.2649   -1.6075    1.1507 C   0  0  0  0  0  0  0  0  0  0  0  0
    0.8355   -3.1711    0.2231 C   0  0  0  0  0  0  0  0  0  0  0  0
    2.7369    2.1272    0.4277 C   0  0  0  0  0  0  0  0  0  0  0  0
   -1.1816   -2.9551    1.5126 C   0  0  0  0  0  0  0  0  0  0  0  0
    4.0080   -0.2247   -0.3504 C   0  0  0  0  0  0  0  0  0  0  0  0
   -0.1361   -3.7391    1.0410 C   0  0  0  0  0  0  0  0  0  0  0  0
    4.1258    2.0167    0.5261 C   0  0  0  0  0  0  0  0  0  0  0  0
    4.7611    0.8421    0.1343 C   0  0  0  0  0  0  0  0  0  0  0  0
  1 19  1  0
  2 16  2  0
  3  5  1  0
  3  6  1  0
  3  9  1  0
  4  7  1  0
  4  8  1  0
  4 11  1  0
  5  7  1  0
  6  8  1  0
  9 10  1  0
  9 12  2  0
 10 13  2  0
 10 17  1  0
 12 14  1  0
 13 16  1  0
 13 18  1  0
 14 15  2  0
 14 19  1  0
 15 16  1  0
 15 21  1  0
 17 20  2  0
 18 22  2  0
 19 23  2  0
 20 22  1  0
 21 24  2  0
 23 24  1  0
M  END
>  <PUBCHEM_COMPOUND_CID>  (1) 
42054

>  <PUBCHEM_CONFORMER_RMSD>  (1) 
0.6

>  <PUBCHEM_CONFORMER_DIVERSEORDER>  (1) 
1
4
3
2
5
6

>  <PUBCHEM_MMFF94_PARTIAL_CHARGES>  (1) 
32
1 -0.18
10 0.03
11 0.27
12 -0.18
13 0.09
14 0.03
15 0.09
16 0.4
17 -0.15
18 -0.15
19 0.18
2 -0.57
20 -0.15
21 -0.15
22 -0.15
23 -0.15
24 -0.15
3 -0.84
36 0.15
37 0.15
38 0.15
39 0.15
4 -0.81
40 0.15
41 0.15
42 0.15
43 0.15
5 0.37
6 0.37
7 0.27
8 0.27
9 0.07

>  <PUBCHEM_EFFECTIVE_ROTOR_COUNT>  (1) 
2.2

>  <PUBCHEM_PHARMACOPHORE_FEATURES>  (1) 
7
1 2 acceptor
1 3 cation
1 4 cation
6 10 13 17 18 20 22 rings
6 14 15 19 21 23 24 rings
6 3 4 5 6 7 8 rings
7 9 10 12 13 14 15 16 rings

>  <PUBCHEM_HEAVY_ATOM_COUNT>  (1) 
24

>  <PUBCHEM_ATOM_DEF_STEREO_COUNT>  (1) 
0

>  <PUBCHEM_ATOM_UDEF_STEREO_COUNT>  (1) 
0

>  <PUBCHEM_BOND_DEF_STEREO_COUNT>  (1) 
0

>  <PUBCHEM_BOND_UDEF_STEREO_COUNT>  (1) 
0

>  <PUBCHEM_ISOTOPIC_ATOM_COUNT>  (1) 
0

>  <PUBCHEM_COMPONENT_COUNT>  (1) 
1

>  <PUBCHEM_CACTVS_TAUTO_COUNT>  (1) 
1

>  <PUBCHEM_CONFORMER_ID>  (1) 
0000A44600000001

>  <PUBCHEM_MMFF94_ENERGY>  (1) 
93.9759

>  <PUBCHEM_FEATURE_SELFOVERLAP>  (1) 
35.542

>  <PUBCHEM_SHAPE_FINGERPRINT>  (1) 
10165383 225 18114756948988255084
10411042 1 17545036001058385523
108634 29 18336836401977201455
10906281 52 18270976708225592716
1100329 8 18262511477919641162
11370993 70 18409448106888438713
12035758 1 18335423512233840624
12633257 1 18334562560786641528
12730499 353 18335146358579655363
12769317 202 18265881493579490869
12788726 201 17614827939685943962
13140716 1 18265048209947336656
13402501 40 18409731780735664272
13583140 156 15719936038500990205
13692114 37 18198889491698166399
14223421 5 17834398195992453512
14787075 74 18343299288691749625
14955137 171 17829882144627969938
15295992 7 18341047535895864536
16728300 4 17099431529648748682
20567600 254 18334286561492189469
20567600 347 17967813804226625259
20832881 197 18051704247681139654
21033648 144 18118389873036142100
21033648 29 17630592630753507352
21049683 118 18119218870295469577
21197605 99 18197220471817803303
21421861 104 17903639583662979808
21524375 3 18411695495744265676
22182313 1 18265637504908515002
22907989 373 17759534647779405316
22956985 138 16662321781353859755
23558518 356 18049432948663079197
23559900 14 18409171030844222078
238 59 18272647973824556395
2748010 2 18264509414736968142
335352 9 18411136940296723412
3380486 145 17184191081042380179
352729 6 18267870677675591956
392239 28 18339091470845853913
42630746 31 18412543176496952317
4340502 62 18335143085867186691
474 4 18412542119750764321
495365 180 17845925338332789072
59755656 215 18336542716677325013
6138700 20 18268710511881816062
633830 44 18342450452603403685
6913067 236 17458341932149097079
70251023 43 17698739007731968534
81228 2 17608370469146071795
84936 182 18266173924811649065
9709674 26 18341898553595274206
9981440 41 16981212373805362488

>  <PUBCHEM_SHAPE_MULTIPOLES>  (1) 
479.95
8.65
4.01
1.2
6.09
2.02
-0.13
-6.57
-0.67
-1.06
1.79
0.14
0.55
1.25

>  <PUBCHEM_SHAPE_SELFOVERLAP>  (1) 
1047.613

>  <PUBCHEM_SHAPE_VOLUME>  (1) 
262

>  <PUBCHEM_COORDINATE_TYPE>  (1) 
2
5
10

$$$$
