42051
     RDKit          3D

 32 34  0  0  1  0  0  0  0  0999 V2000
   -7.1980   -3.4155    2.1415 Cl  0  0  0  0  0  0  0  0  0  0  0  0
   -5.6263   -2.2688    0.0289 S   0  0  0  0  0  0  0  0  0  0  0  0
    4.2094    2.2410    1.3898 S   0  0  0  0  0  0  0  0  0  0  0  0
   -6.8438   -1.8116   -0.6291 O   0  0  0  0  0  0  0  0  0  0  0  0
   -5.0560   -3.5629   -0.3218 O   0  0  0  0  0  0  0  0  0  0  0  0
    4.1155    1.9904    2.8704 O   0  0  0  0  0  0  0  0  0  0  0  0
   -5.3486    2.8518   -0.9317 O   0  0  0  0  0  0  0  0  0  0  0  0
   -3.2358    3.4360   -1.0478 O   0  0  0  0  0  0  0  0  0  0  0  0
    6.4858   -2.9610   -2.1684 O   0  0  0  0  0  0  0  0  0  0  0  0
    5.8673   -4.0156   -0.3451 O   0  0  0  0  0  0  0  0  0  0  0  0
   -1.3720    1.8156   -0.7508 N   0  0  0  0  0  0  0  0  0  0  0  0
   -4.1281    2.5716   -0.8832 N   0  0  0  0  0  0  0  0  0  0  0  0
    5.9955   -2.9612   -1.0133 N   0  0  0  0  0  0  0  0  0  0  0  0
   -4.3837   -1.0638   -0.2006 C   0  0  0  0  0  0  0  0  0  0  0  0
   -2.3937    0.8635   -0.5684 C   0  0  0  0  0  0  0  0  0  0  0  0
   -3.7421    1.2250   -0.6318 C   0  0  0  0  0  0  0  0  0  0  0  0
   -4.7353    0.2630   -0.4483 C   0  0  0  0  0  0  0  0  0  0  0  0
   -0.0585    1.9154   -0.2472 C   0  0  0  0  0  0  0  0  0  0  0  0
   -3.0389   -1.4288   -0.1365 C   0  0  0  0  0  0  0  0  0  0  0  0
   -2.0458   -0.4667   -0.3202 C   0  0  0  0  0  0  0  0  0  0  0  0
    2.5397    2.1136    0.7494 C   0  0  0  0  0  0  0  0  0  0  0  0
    0.2506    1.3845    1.0051 C   0  0  0  0  0  0  0  0  0  0  0  0
    0.9316    2.5454   -1.0013 C   0  0  0  0  0  0  0  0  0  0  0  0
    1.5496    1.4837    1.5034 C   0  0  0  0  0  0  0  0  0  0  0  0
    2.2307    2.6444   -0.5030 C   0  0  0  0  0  0  0  0  0  0  0  0
   -5.9243   -2.2447    1.7846 C   0  0  0  0  0  0  0  0  0  0  0  0
    4.7482    0.6731    0.6655 C   0  0  0  0  0  0  0  0  0  0  0  0
    5.2915    0.6632   -0.6104 C   0  0  0  0  0  0  0  0  0  0  0  0
    4.6101   -0.4974    1.3960 C   0  0  0  0  0  0  0  0  0  0  0  0
    5.5734   -1.7306   -0.4447 C   0  0  0  0  0  0  0  0  0  0  0  0
    5.7066   -0.5459   -1.1687 C   0  0  0  0  0  0  0  0  0  0  0  0
    5.0252   -1.7064    0.8376 C   0  0  0  0  0  0  0  0  0  0  0  0
  1 26  1  0
  2  4  2  0
  2  5  2  0
  2 14  1  0
  2 26  1  0
  3  6  2  0
  3 21  1  0
  3 27  1  0
  7 12  1  0
  8 12  2  0
  9 13  1  0
 10 13  2  0
 11 15  1  0
 11 18  1  0
 12 16  1  0
 13 30  1  0
 14 17  2  0
 14 19  1  0
 15 16  2  0
 15 20  1  0
 16 17  1  0
 18 22  2  0
 18 23  1  0
 19 20  2  0
 21 24  2  0
 21 25  1  0
 22 24  1  0
 23 25  2  0
 27 28  2  0
 27 29  1  0
 28 31  1  0
 29 32  2  0
 30 31  2  0
 30 32  1  0
M  CHG  4   7  -1   9  -1  12   1  13   1
M  END
>  <PUBCHEM_COMPOUND_CID>  (1) 
42051

>  <PUBCHEM_CONFORMER_RMSD>  (1) 
1

>  <PUBCHEM_CONFORMER_DIVERSEORDER>  (1) 
1
26
18
40
45
46
36
34
51
49
11
22
20
52
19
37
47
10
6
29
14
3
25
16
42
50
43
21
53
12
35
33
32
38
39
8
27
15
30
44
41
31
4
24
7
23
17
48
13
5
28
9
2

>  <PUBCHEM_MMFF94_PARTIAL_CHARGES>  (1) 
44
1 -0.29
10 -0.52
11 -0.6
12 0.91
13 0.91
14 -0.01
15 0.1
16 0.13
17 -0.15
18 0.1
19 -0.15
2 1.2
20 -0.15
21 0.06
22 -0.15
23 -0.15
24 -0.15
25 -0.15
26 0.4
27 0.06
28 -0.15
29 -0.15
3 0.37
30 0.13
31 -0.15
32 -0.15
33 0.15
34 0.4
35 0.15
36 0.15
37 0.15
38 0.15
39 0.15
4 -0.65
40 0.15
43 0.15
44 0.15
45 0.15
46 0.15
5 -0.65
6 -0.5
7 -0.52
8 -0.52
9 -0.52

>  <PUBCHEM_EFFECTIVE_ROTOR_COUNT>  (1) 
8

>  <PUBCHEM_PHARMACOPHORE_FEATURES>  (1) 
14
1 10 acceptor
1 11 cation
1 11 donor
1 4 acceptor
1 5 acceptor
1 6 acceptor
1 7 acceptor
1 7 anion
1 8 acceptor
1 9 acceptor
1 9 anion
6 14 15 16 17 19 20 rings
6 18 21 22 23 24 25 rings
6 27 28 29 30 31 32 rings

>  <PUBCHEM_HEAVY_ATOM_COUNT>  (1) 
32

>  <PUBCHEM_ATOM_DEF_STEREO_COUNT>  (1) 
0

>  <PUBCHEM_ATOM_UDEF_STEREO_COUNT>  (1) 
1

>  <PUBCHEM_BOND_DEF_STEREO_COUNT>  (1) 
0

>  <PUBCHEM_BOND_UDEF_STEREO_COUNT>  (1) 
0

>  <PUBCHEM_ISOTOPIC_ATOM_COUNT>  (1) 
0

>  <PUBCHEM_COMPONENT_COUNT>  (1) 
1

>  <PUBCHEM_CACTVS_TAUTO_COUNT>  (1) 
1

>  <PUBCHEM_CONFORMER_ID>  (1) 
0000A44300000001

>  <PUBCHEM_MMFF94_ENERGY>  (1) 
106.1449

>  <PUBCHEM_FEATURE_SELFOVERLAP>  (1) 
71.231

>  <PUBCHEM_SHAPE_FINGERPRINT>  (1) 
10119406 146 18335415743824626431
10838868 229 18338521842234838795
117089 54 18335711549936767027
11796584 16 18337381631275101248
12342043 65 18412260649000481856
12422481 6 18059576940241813183
13383661 66 18199200507681660394
13533116 47 17988363779639198528
1361 4 18410293618751115398
13690498 29 18333732416353470597
13782708 43 18272928362670472047
14211702 104 18334291015673877793
14347332 77 18335134341171646301
14420673 8 18339079263900016717
14556957 393 14635133599971863007
15475509 35 18131069381197766800
15510800 12 18341885273994614902
16989378 47 17023188283379521015
19301679 30 18189904287429423195
21279426 13 18339917113340966852
21307412 95 18195243321786880244
21315759 148 18339915008749404960
21682296 61 18413390943054331655
21814621 53 18131060511700489425
229767 8 18411424977414522910
2303208 19 18413669127642936689
23424784 1240 18412544331991075474
23559900 14 18341602699058338248
24893989 43 17318454571666030827
25269216 80 17676775356596589513
32027 91 18270672057510030544
3862424 121 18116172080483219406
42626532 9 18202275896948353745
44062 13 18409725127847030292
4435113 14 18411709755252401622
46194498 28 17968373571725526156
484989 97 18411426073211204694
50009960 94 18118933998448416450
5104073 3 18201995542762681169
513202 73 18409448124769966839
6698420 124 18198618836208778985
6700243 42 17749662987967495300
7970288 3 17976252762487159343
9831232 110 18335980969056238095

>  <PUBCHEM_SHAPE_MULTIPOLES>  (1) 
612.09
20.42
4.9
1.75
7.33
2.07
0.88
21.32
0.6
0.38
-0.87
-1.11
0.27
5.9

>  <PUBCHEM_SHAPE_SELFOVERLAP>  (1) 
1287.098

>  <PUBCHEM_SHAPE_VOLUME>  (1) 
344.2

>  <PUBCHEM_COORDINATE_TYPE>  (1) 
2
5
10

$$$$
