42060
     RDKit          3D

 12 12  0  0  0  0  0  0  0  0999 V2000
   -2.7410   -1.4606   -0.0004 Cl  0  0  0  0  0  0  0  0  0  0  0  0
    2.7297   -1.4816   -0.0010 Cl  0  0  0  0  0  0  0  0  0  0  0  0
   -0.0120   -3.0837    0.0011 Cl  0  0  0  0  0  0  0  0  0  0  0  0
    0.0109    2.8105    0.0005 O   0  0  0  0  0  0  0  0  0  0  0  0
    2.3836    1.4430    0.0001 O   0  0  0  0  0  0  0  0  0  0  0  0
   -2.3724    1.4614   -0.0001 O   0  0  0  0  0  0  0  0  0  0  0  0
    0.0056    1.4467    0.0000 C   0  0  0  0  0  0  0  0  0  0  0  0
    1.2109    0.7447    0.0002 C   0  0  0  0  0  0  0  0  0  0  0  0
   -1.2051    0.7539   -0.0003 C   0  0  0  0  0  0  0  0  0  0  0  0
   -1.2106   -0.6410   -0.0003 C   0  0  0  0  0  0  0  0  0  0  0  0
    1.2055   -0.6501    0.0002 C   0  0  0  0  0  0  0  0  0  0  0  0
   -0.0052   -1.3431    0.0000 C   0  0  0  0  0  0  0  0  0  0  0  0
  1 10  1  0
  2 11  1  0
  3 12  1  0
  4  7  1  0
  5  8  1  0
  6  9  1  0
  7  8  2  0
  7  9  1  0
  8 11  1  0
  9 10  2  0
 10 12  1  0
 11 12  2  0
M  END
>  <PUBCHEM_COMPOUND_CID>  (1) 
42060

>  <PUBCHEM_CONFORMER_RMSD>  (1) 
0.4

>  <PUBCHEM_CONFORMER_DIVERSEORDER>  (1) 
1

>  <PUBCHEM_MMFF94_PARTIAL_CHARGES>  (1) 
15
1 -0.18
10 0.18
11 0.18
12 0.18
13 0.45
14 0.45
15 0.45
2 -0.18
3 -0.18
4 -0.53
5 -0.53
6 -0.53
7 0.08
8 0.08
9 0.08

>  <PUBCHEM_EFFECTIVE_ROTOR_COUNT>  (1) 
0

>  <PUBCHEM_PHARMACOPHORE_FEATURES>  (1) 
4
1 4 donor
1 5 donor
1 6 donor
6 7 8 9 10 11 12 rings

>  <PUBCHEM_HEAVY_ATOM_COUNT>  (1) 
12

>  <PUBCHEM_ATOM_DEF_STEREO_COUNT>  (1) 
0

>  <PUBCHEM_ATOM_UDEF_STEREO_COUNT>  (1) 
0

>  <PUBCHEM_BOND_DEF_STEREO_COUNT>  (1) 
0

>  <PUBCHEM_BOND_UDEF_STEREO_COUNT>  (1) 
0

>  <PUBCHEM_ISOTOPIC_ATOM_COUNT>  (1) 
0

>  <PUBCHEM_COMPONENT_COUNT>  (1) 
1

>  <PUBCHEM_CACTVS_TAUTO_COUNT>  (1) 
8

>  <PUBCHEM_CONFORMER_ID>  (1) 
0000A44C00000001

>  <PUBCHEM_MMFF94_ENERGY>  (1) 
27.5701

>  <PUBCHEM_FEATURE_SELFOVERLAP>  (1) 
20.308

>  <PUBCHEM_SHAPE_FINGERPRINT>  (1) 
10967382 1 18122626329601563303
12423570 1 11713391000500536463
13140716 1 18411137991666827737
16945 1 18122344850261131687
193761 8 18410856559639796068
20588541 1 18122347049332035414
21040471 1 18338799017299887136
2334 1 18410575114727875975
23526114 1 18410292514480289903
23552423 10 18333734606665491374
23559900 14 18198911297816762950
241688 4 18410855425768436762
2748010 2 18410291410663125799
5084963 1 18202845452339435427
66348 1 18410292493005635179

>  <PUBCHEM_SHAPE_MULTIPOLES>  (1) 
234.96
3.25
3.16
0.6
0
0.29
0
0.61
0
0
0
0
0.07
0

>  <PUBCHEM_SHAPE_SELFOVERLAP>  (1) 
472.498

>  <PUBCHEM_SHAPE_VOLUME>  (1) 
141.1

>  <PUBCHEM_COORDINATE_TYPE>  (1) 
2
5
10

$$$$
