42062
     RDKit          3D

 15 16  0  0  1  0  0  0  0  0999 V2000
    0.0915   -1.1865   -2.5507 Cl  0  0  0  0  0  0  0  0  0  0  0  0
   -1.2218    2.6510   -0.2777 Cl  0  0  0  0  0  0  0  0  0  0  0  0
    0.0895    0.0242   -1.2175 C   0  0  0  0  0  0  0  0  0  0  0  0
   -1.1939   -0.0721   -0.3993 C   0  0  0  0  0  0  0  0  0  0  0  0
    1.3442   -0.0138   -0.4117 C   0  0  0  0  0  0  0  0  0  0  0  0
   -1.8267    1.0680    0.0497 C   0  0  0  0  0  0  0  0  0  0  0  0
   -1.6815   -1.3365   -0.1353 C   0  0  0  0  0  0  0  0  0  0  0  0
    2.2355    1.0581   -0.4580 C   0  0  0  0  0  0  0  0  0  0  0  0
    1.6264   -1.1214    0.3878 C   0  0  0  0  0  0  0  0  0  0  0  0
   -2.9985    0.9398    0.7954 C   0  0  0  0  0  0  0  0  0  0  0  0
   -2.8533   -1.4646    0.6106 C   0  0  0  0  0  0  0  0  0  0  0  0
    3.4091    1.0224    0.2952 C   0  0  0  0  0  0  0  0  0  0  0  0
    2.7999   -1.1571    1.1410 C   0  0  0  0  0  0  0  0  0  0  0  0
   -3.5118   -0.3265    1.0759 C   0  0  0  0  0  0  0  0  0  0  0  0
    3.6912   -0.0851    1.0946 C   0  0  0  0  0  0  0  0  0  0  0  0
  1  3  1  0
  2  6  1  0
  3  4  1  0
  3  5  1  0
  4  6  2  0
  4  7  1  0
  5  8  2  0
  5  9  1  0
  6 10  1  0
  7 11  2  0
  8 12  1  0
  9 13  2  0
 10 14  2  0
 11 14  1  0
 12 15  2  0
 13 15  1  0
M  END
>  <PUBCHEM_COMPOUND_CID>  (1) 
42062

>  <PUBCHEM_CONFORMER_RMSD>  (1) 
0.6

>  <PUBCHEM_CONFORMER_DIVERSEORDER>  (1) 
1
3
4
6
8
10
2
7
9
5

>  <PUBCHEM_MMFF94_PARTIAL_CHARGES>  (1) 
24
1 -0.29
10 -0.15
11 -0.15
12 -0.15
13 -0.15
14 -0.15
15 -0.15
17 0.15
18 0.15
19 0.15
2 -0.18
20 0.15
21 0.15
22 0.15
23 0.15
24 0.15
25 0.15
3 0.58
4 -0.14
5 -0.14
6 0.18
7 -0.15
8 -0.15
9 -0.15

>  <PUBCHEM_EFFECTIVE_ROTOR_COUNT>  (1) 
2

>  <PUBCHEM_PHARMACOPHORE_FEATURES>  (1) 
2
6 4 6 7 10 11 14 rings
6 5 8 9 12 13 15 rings

>  <PUBCHEM_HEAVY_ATOM_COUNT>  (1) 
15

>  <PUBCHEM_ATOM_DEF_STEREO_COUNT>  (1) 
0

>  <PUBCHEM_ATOM_UDEF_STEREO_COUNT>  (1) 
1

>  <PUBCHEM_BOND_DEF_STEREO_COUNT>  (1) 
0

>  <PUBCHEM_BOND_UDEF_STEREO_COUNT>  (1) 
0

>  <PUBCHEM_ISOTOPIC_ATOM_COUNT>  (1) 
0

>  <PUBCHEM_COMPONENT_COUNT>  (1) 
1

>  <PUBCHEM_CACTVS_TAUTO_COUNT>  (1) 
1

>  <PUBCHEM_CONFORMER_ID>  (1) 
0000A44E00000001

>  <PUBCHEM_MMFF94_ENERGY>  (1) 
44.1274

>  <PUBCHEM_FEATURE_SELFOVERLAP>  (1) 
10.149

>  <PUBCHEM_SHAPE_FINGERPRINT>  (1) 
11031198 65 15913055282921016719
11127187 94 11891334248911623257
11132069 177 18131636694531914641
11578080 2 17387397155220918797
12251169 10 18335420153579762776
12363563 72 14273453682473697002
12382932 28 18410580591064405657
12696612 119 18333452045199308884
12707595 3 13551482470228231336
12716301 132 17760111530669959885
13296908 3 14779543512919246486
13296909 8 18187358805513738373
13693222 15 18186521020434072193
13764800 53 17489596653400205417
14787075 74 17181946973335033382
15076042 46 18336264526986189265
15309172 13 17275385412746476951
15375462 189 18042416892162734697
15375462 478 18407758144483951965
15501101 241 17313384556414842726
15775835 57 18060416941144276176
16945 1 18410292475841408588
17780758 139 17826483619411870602
18186145 218 14979966877818568846
19868273 293 11167945740445034721
200 152 18188473779081919207
20361792 2 15068627075650088503
20653085 51 12535347925909767271
20671657 53 14418132941288984933
20871999 31 9727337023126757865
22112679 90 16982648349028535679
22445834 79 18113335280226810610
22959321 28 18341323466154081368
23402539 116 18342728625319676959
23419403 2 14541346482483388245
23526113 38 17123129213066789847
23559900 14 18267603328666749590
25 1 14548750507706202398
26918003 58 17530961418998151763
2748010 2 18054536650333369741
276578 36 16988568991648063798
549884 4 12895073994192021506
5845 1 14902226092717998910
7097593 13 18116429246049834866
90316 7 18335144172172828385

>  <PUBCHEM_SHAPE_MULTIPOLES>  (1) 
312.43
5.97
1.94
1.55
1.53
0.89
-0.91
0.12
3.34
-0.77
-0.22
0.19
-0.68
-0.11

>  <PUBCHEM_SHAPE_SELFOVERLAP>  (1) 
653.34

>  <PUBCHEM_SHAPE_VOLUME>  (1) 
172.7

>  <PUBCHEM_COORDINATE_TYPE>  (1) 
2
5
10

$$$$
