42063
     RDKit          3D

 19 22  0  0  0  0  0  0  0  0999 V2000
   -4.1331   -1.9218   -0.0004 N   0  0  0  0  0  0  0  0  0  0  0  0
    0.5895    0.1594   -0.0001 C   0  0  0  0  0  0  0  0  0  0  0  0
    0.0881   -1.1653    0.0000 C   0  0  0  0  0  0  0  0  0  0  0  0
    2.0149    0.3712   -0.0001 C   0  0  0  0  0  0  0  0  0  0  0  0
   -2.2277   -0.3604    0.0001 C   0  0  0  0  0  0  0  0  0  0  0  0
   -1.7591    0.9657    0.0000 C   0  0  0  0  0  0  0  0  0  0  0  0
   -0.3712    1.2031   -0.0001 C   0  0  0  0  0  0  0  0  0  0  0  0
   -1.2968   -1.4078    0.0000 C   0  0  0  0  0  0  0  0  0  0  0  0
    2.8823   -0.7524    0.0000 C   0  0  0  0  0  0  0  0  0  0  0  0
    0.9738   -2.2464    0.0001 C   0  0  0  0  0  0  0  0  0  0  0  0
    2.3497   -2.0434    0.0001 C   0  0  0  0  0  0  0  0  0  0  0  0
   -3.6118   -0.6044    0.0001 C   0  0  0  0  0  0  0  0  0  0  0  0
    2.6308    1.6481   -0.0002 C   0  0  0  0  0  0  0  0  0  0  0  0
   -2.6882    2.0207   -0.0001 C   0  0  0  0  0  0  0  0  0  0  0  0
    4.2772   -0.5805    0.0001 C   0  0  0  0  0  0  0  0  0  0  0  0
   -4.5213    0.4530    0.0001 C   0  0  0  0  0  0  0  0  0  0  0  0
   -4.0597    1.7650    0.0003 C   0  0  0  0  0  0  0  0  0  0  0  0
    4.0196    1.8055    0.0000 C   0  0  0  0  0  0  0  0  0  0  0  0
    4.8430    0.6906    0.0001 C   0  0  0  0  0  0  0  0  0  0  0  0
  1 12  1  0
  2  3  1  0
  2  4  1  0
  2  7  2  0
  3  8  2  0
  3 10  1  0
  4  9  2  0
  4 13  1  0
  5  6  2  0
  5  8  1  0
  5 12  1  0
  6  7  1  0
  6 14  1  0
  9 11  1  0
  9 15  1  0
 10 11  2  0
 12 16  2  0
 13 18  2  0
 14 17  2  0
 15 19  2  0
 16 17  1  0
 18 19  1  0
M  END
>  <PUBCHEM_COMPOUND_CID>  (1) 
42063

>  <PUBCHEM_CONFORMER_RMSD>  (1) 
0.4

>  <PUBCHEM_CONFORMER_DIVERSEORDER>  (1) 
1

>  <PUBCHEM_MMFF94_PARTIAL_CHARGES>  (1) 
26
1 -0.9
10 -0.15
11 -0.15
12 0.1
13 -0.15
14 -0.15
15 -0.15
16 -0.15
17 -0.15
18 -0.15
19 -0.15
20 0.15
21 0.15
22 0.15
23 0.15
24 0.15
25 0.15
26 0.15
27 0.15
28 0.15
29 0.15
30 0.15
31 0.4
32 0.4
7 -0.15
8 -0.15

>  <PUBCHEM_EFFECTIVE_ROTOR_COUNT>  (1) 
0

>  <PUBCHEM_PHARMACOPHORE_FEATURES>  (1) 
6
1 1 cation
1 1 donor
6 2 3 4 9 10 11 rings
6 2 3 5 6 7 8 rings
6 4 9 13 15 18 19 rings
6 5 6 12 14 16 17 rings

>  <PUBCHEM_HEAVY_ATOM_COUNT>  (1) 
19

>  <PUBCHEM_ATOM_DEF_STEREO_COUNT>  (1) 
0

>  <PUBCHEM_ATOM_UDEF_STEREO_COUNT>  (1) 
0

>  <PUBCHEM_BOND_DEF_STEREO_COUNT>  (1) 
0

>  <PUBCHEM_BOND_UDEF_STEREO_COUNT>  (1) 
0

>  <PUBCHEM_ISOTOPIC_ATOM_COUNT>  (1) 
0

>  <PUBCHEM_COMPONENT_COUNT>  (1) 
1

>  <PUBCHEM_CACTVS_TAUTO_COUNT>  (1) 
1

>  <PUBCHEM_CONFORMER_ID>  (1) 
0000A44F00000001

>  <PUBCHEM_MMFF94_ENERGY>  (1) 
79.2194

>  <PUBCHEM_FEATURE_SELFOVERLAP>  (1) 
30.519

>  <PUBCHEM_SHAPE_FINGERPRINT>  (1) 
10411042 1 16897365915648819826
10498660 4 18410292497316641229
10608611 8 18337389344598333029
10616163 171 18411983580860585927
10646746 165 18411138021979641716
10967382 1 18410856529881090532
11471102 20 18411416168425152814
11578080 2 16879900834153951342
12107183 9 17761772862585003577
12403259 415 18200874079957728264
12644460 14 18188493454384884570
12788726 201 17174904559021879122
13140716 1 18264493880019405483
13224815 77 18410575076241942939
138480 1 17762055437153235586
14787075 74 18269836574189976099
14790565 3 18336553832232320804
15196674 1 18410573985404749670
15442244 35 18122906421635676090
15536298 74 18341896251450624846
16945 1 18410575123318005447
17492 89 18411138004795413611
18186145 218 18271815574971827212
18681886 176 18341609348315766688
19591789 44 18340485689463909075
200 152 18131909360546531981
20510252 161 18343023302366628513
20645477 70 18271806765856863902
21267235 1 18410864256226816063
21421861 104 17680141885360382362
21501502 16 18410571743358033163
21709351 56 18408599266879600364
221490 88 18410301272082643378
22854114 111 18408041793014599724
23227448 37 18341893029977330807
23366157 5 18041846082530463890
23402539 116 18412537742988711726
23402655 69 18343017765953206764
23559900 14 18198058080365746090
245318 6 17099200924154721180
3004659 81 18262246517825049294
335352 9 18266458702992652990
34934 24 18409443653476708007
350125 39 18410294739463636436
3545911 37 18410294683607832685
4214541 1 18410856542571001985
474 4 17895199930256052900
4990 188 18060146422903385900
5104073 3 18409729543067876666
543358 83 18268714904942010088
58051976 378 18341330011346559117
6138700 20 18266745684772058326
633830 44 18342174445061681364
69090 78 18341610438472614150
7364860 26 18269557144013668550
77779 3 18411420600567781516
7808743 9 18051125097786850432
9709674 26 18410299102960680510

>  <PUBCHEM_SHAPE_MULTIPOLES>  (1) 
386.03
9.36
2.38
0.61
0.22
0.29
0
-2.32
0
0.09
0
-0.02
-0.01
0

>  <PUBCHEM_SHAPE_SELFOVERLAP>  (1) 
887.358

>  <PUBCHEM_SHAPE_VOLUME>  (1) 
197.3

>  <PUBCHEM_COORDINATE_TYPE>  (1) 
2
5
10

$$$$
