42067
     RDKit          3D

 21 23  0  0  0  0  0  0  0  0999 V2000
   -3.0685    0.1531   -0.4793 O   0  0  0  0  0  0  0  0  0  0  0  0
   -3.1027    2.4329   -0.5517 O   0  0  0  0  0  0  0  0  0  0  0  0
    0.6755    2.6723    0.7729 O   0  0  0  0  0  0  0  0  0  0  0  0
   -1.1770    3.6578    0.1034 O   0  0  0  0  0  0  0  0  0  0  0  0
    0.9309    0.2965    0.9128 N   0  0  0  0  0  0  0  0  0  0  0  0
   -0.4908    2.6634    0.3639 N   0  0  0  0  0  0  0  0  0  0  0  0
    2.0260   -0.3024    0.1806 C   0  0  0  0  0  0  0  0  0  0  0  0
    2.4747    0.6404   -0.9387 C   0  0  0  0  0  0  0  0  0  0  0  0
    3.1741   -0.6103    1.1440 C   0  0  0  0  0  0  0  0  0  0  0  0
    3.6945    0.0928   -1.6758 C   0  0  0  0  0  0  0  0  0  0  0  0
    4.3943   -1.1551    0.4053 C   0  0  0  0  0  0  0  0  0  0  0  0
    4.8386   -0.2185   -0.7148 C   0  0  0  0  0  0  0  0  0  0  0  0
   -0.3624    0.3003    0.4576 C   0  0  0  0  0  0  0  0  0  0  0  0
   -1.0341   -1.0085    0.2478 C   0  0  0  0  0  0  0  0  0  0  0  0
   -1.1022    1.3862    0.1757 C   0  0  0  0  0  0  0  0  0  0  0  0
   -2.3568   -1.0331   -0.2092 C   0  0  0  0  0  0  0  0  0  0  0  0
   -0.4238   -2.2531    0.4784 C   0  0  0  0  0  0  0  0  0  0  0  0
   -2.4898    1.3995   -0.3106 C   0  0  0  0  0  0  0  0  0  0  0  0
   -3.0579   -2.2227   -0.4302 C   0  0  0  0  0  0  0  0  0  0  0  0
   -1.1135   -3.4533    0.2606 C   0  0  0  0  0  0  0  0  0  0  0  0
   -2.4291   -3.4382   -0.1927 C   0  0  0  0  0  0  0  0  0  0  0  0
  1 16  1  0
  1 18  1  0
  2 18  2  0
  3  6  1  0
  4  6  2  0
  5  7  1  0
  5 13  1  0
  6 15  1  0
  7  8  1  0
  7  9  1  0
  8 10  1  0
  9 11  1  0
 10 12  1  0
 11 12  1  0
 13 14  1  0
 13 15  2  0
 14 16  2  0
 14 17  1  0
 15 18  1  0
 16 19  1  0
 17 20  2  0
 19 21  2  0
 20 21  1  0
M  CHG  2   3  -1   6   1
M  END
>  <PUBCHEM_COMPOUND_CID>  (1) 
42067

>  <PUBCHEM_CONFORMER_RMSD>  (1) 
0.6

>  <PUBCHEM_CONFORMER_DIVERSEORDER>  (1) 
1
11
5
14
8
2
7
10
6
13
12
3
4
9

>  <PUBCHEM_MMFF94_PARTIAL_CHARGES>  (1) 
21
1 -0.23
13 0.07
14 0.03
15 0.22
16 0.08
17 -0.15
18 0.71
19 -0.15
2 -0.57
20 -0.15
21 -0.15
3 -0.52
33 0.4
34 0.15
35 0.15
36 0.15
37 0.15
4 -0.52
5 -0.87
6 0.84
7 0.37

>  <PUBCHEM_EFFECTIVE_ROTOR_COUNT>  (1) 
4.2

>  <PUBCHEM_PHARMACOPHORE_FEATURES>  (1) 
9
1 2 acceptor
1 3 acceptor
1 3 anion
1 4 acceptor
1 5 cation
1 5 donor
6 1 13 14 15 16 18 rings
6 14 16 17 19 20 21 rings
6 7 8 9 10 11 12 rings

>  <PUBCHEM_HEAVY_ATOM_COUNT>  (1) 
21

>  <PUBCHEM_ATOM_DEF_STEREO_COUNT>  (1) 
0

>  <PUBCHEM_ATOM_UDEF_STEREO_COUNT>  (1) 
0

>  <PUBCHEM_BOND_DEF_STEREO_COUNT>  (1) 
0

>  <PUBCHEM_BOND_UDEF_STEREO_COUNT>  (1) 
0

>  <PUBCHEM_ISOTOPIC_ATOM_COUNT>  (1) 
0

>  <PUBCHEM_COMPONENT_COUNT>  (1) 
1

>  <PUBCHEM_CACTVS_TAUTO_COUNT>  (1) 
2

>  <PUBCHEM_CONFORMER_ID>  (1) 
0000A45300000001

>  <PUBCHEM_MMFF94_ENERGY>  (1) 
78.3019

>  <PUBCHEM_FEATURE_SELFOVERLAP>  (1) 
45.811

>  <PUBCHEM_SHAPE_FINGERPRINT>  (1) 
10319926 262 18125691605918900714
10411042 1 18194396925414673931
10616163 171 18410858767818203350
10967382 1 17835227962035543987
1100329 8 18412545431682142305
11578080 2 17245224761189013244
11640471 11 17749404637052488214
12173636 292 18265890251006985204
12553582 1 18265898136382577595
12788726 201 18334580169857363802
13140716 1 18413105091411014265
138480 1 16393522859150306051
14251757 5 18337402612032021862
14790565 3 18267877094568404601
15042514 8 18409451371179894595
15475509 8 18129121016639697351
16752209 62 18336817645749323451
16945 1 18412823568946667193
19591789 44 18410292502365677201
20645476 183 18187367584247406847
20871999 31 18411420634911643934
20905425 154 18051982716291772916
21524375 3 17898576375703822464
22182313 1 17903336445577921079
23184049 29 18266733769656449234
23402539 116 18340477864418734836
23419403 2 17035513916322540276
23557571 272 18271804666256029592
23559900 14 18271519802866497002
23566358 2 18121770892428220613
23598288 3 18259994759652748994
2748010 2 17905592656196405587
3084891 72 18268705026559375183
352729 6 18194113010980526059
7364860 26 17476643555979391571
81228 2 18271537450011488170

>  <PUBCHEM_SHAPE_MULTIPOLES>  (1) 
398.73
6.96
3.98
1.01
7.61
0.86
-0.15
-2.56
-1.88
-4.32
0.33
0.89
0
-0.18

>  <PUBCHEM_SHAPE_SELFOVERLAP>  (1) 
863.795

>  <PUBCHEM_SHAPE_VOLUME>  (1) 
214.3

>  <PUBCHEM_COORDINATE_TYPE>  (1) 
2
5
10

$$$$
