42064
     RDKit          3D

 20 23  0  0  0  0  0  0  0  0999 V2000
    0.8322    0.2308   -0.0260 C   0  0  0  0  0  0  0  0  0  0  0  0
   -2.0143   -0.0699   -0.1427 C   0  0  0  0  0  0  0  0  0  0  0  0
    0.2339   -1.0478   -0.1437 C   0  0  0  0  0  0  0  0  0  0  0  0
   -1.4488    1.2125   -0.0247 C   0  0  0  0  0  0  0  0  0  0  0  0
    2.2685    0.3319    0.0292 C   0  0  0  0  0  0  0  0  0  0  0  0
   -3.4119   -0.2062   -0.1995 C   0  0  0  0  0  0  0  0  0  0  0  0
   -1.1643   -1.1825   -0.2004 C   0  0  0  0  0  0  0  0  0  0  0  0
   -0.0478    1.3420    0.0313 C   0  0  0  0  0  0  0  0  0  0  0  0
    3.0494   -0.8515   -0.0348 C   0  0  0  0  0  0  0  0  0  0  0  0
    1.0364   -2.1902   -0.2045 C   0  0  0  0  0  0  0  0  0  0  0  0
   -4.0753   -1.5431   -0.3260 C   0  0  0  0  0  0  0  0  0  0  0  0
   -2.2964    2.3324    0.0347 C   0  0  0  0  0  0  0  0  0  0  0  0
    2.4227   -2.0941   -0.1506 C   0  0  0  0  0  0  0  0  0  0  0  0
   -4.2397    0.9145   -0.1397 C   0  0  0  0  0  0  0  0  0  0  0  0
    2.9775    1.5542    0.1448 C   0  0  0  0  0  0  0  0  0  0  0  0
   -3.6823    2.1834   -0.0227 C   0  0  0  0  0  0  0  0  0  0  0  0
    4.4524   -0.7877    0.0168 C   0  0  0  0  0  0  0  0  0  0  0  0
   -4.3766   -2.1655    1.0322 C   0  0  0  0  0  0  0  0  0  0  0  0
    4.3733    1.6042    0.1950 C   0  0  0  0  0  0  0  0  0  0  0  0
    5.1110    0.4325    0.1312 C   0  0  0  0  0  0  0  0  0  0  0  0
  1  3  1  0
  1  5  1  0
  1  8  2  0
  2  4  1  0
  2  6  2  0
  2  7  1  0
  3  7  2  0
  3 10  1  0
  4  8  1  0
  4 12  2  0
  5  9  2  0
  5 15  1  0
  6 11  1  0
  6 14  1  0
  9 13  1  0
  9 17  1  0
 10 13  2  0
 11 18  1  0
 12 16  1  0
 14 16  2  0
 15 19  2  0
 17 20  2  0
 19 20  1  0
M  END
>  <PUBCHEM_COMPOUND_CID>  (1) 
42064

>  <PUBCHEM_CONFORMER_RMSD>  (1) 
0.6

>  <PUBCHEM_CONFORMER_DIVERSEORDER>  (1) 
1

>  <PUBCHEM_MMFF94_PARTIAL_CHARGES>  (1) 
24
10 -0.15
11 0.14
12 -0.15
13 -0.15
14 -0.15
15 -0.15
16 -0.15
17 -0.15
19 -0.15
20 -0.15
21 0.15
22 0.15
23 0.15
26 0.15
27 0.15
28 0.15
29 0.15
30 0.15
31 0.15
35 0.15
36 0.15
6 -0.14
7 -0.15
8 -0.15

>  <PUBCHEM_EFFECTIVE_ROTOR_COUNT>  (1) 
1

>  <PUBCHEM_PHARMACOPHORE_FEATURES>  (1) 
5
1 18 hydrophobe
6 1 2 3 4 7 8 rings
6 1 3 5 9 10 13 rings
6 2 4 6 12 14 16 rings
6 5 9 15 17 19 20 rings

>  <PUBCHEM_HEAVY_ATOM_COUNT>  (1) 
20

>  <PUBCHEM_ATOM_DEF_STEREO_COUNT>  (1) 
0

>  <PUBCHEM_ATOM_UDEF_STEREO_COUNT>  (1) 
0

>  <PUBCHEM_BOND_DEF_STEREO_COUNT>  (1) 
0

>  <PUBCHEM_BOND_UDEF_STEREO_COUNT>  (1) 
0

>  <PUBCHEM_ISOTOPIC_ATOM_COUNT>  (1) 
0

>  <PUBCHEM_COMPONENT_COUNT>  (1) 
1

>  <PUBCHEM_CACTVS_TAUTO_COUNT>  (1) 
1

>  <PUBCHEM_CONFORMER_ID>  (1) 
0000A45000000001

>  <PUBCHEM_MMFF94_ENERGY>  (1) 
68.8505

>  <PUBCHEM_FEATURE_SELFOVERLAP>  (1) 
25.446

>  <PUBCHEM_SHAPE_FINGERPRINT>  (1) 
10411042 1 17042321117765605814
10608611 8 18339077086235760797
10616163 171 18412263926229112831
10646746 165 18411981330313228780
10670039 82 18261406563518152980
10906281 52 18129670691049595293
10967382 1 18411980218011703036
12107183 9 17689150115159295961
12236239 1 17967248715854022812
12390115 104 18272104798254487632
12403259 226 18411975879852498280
12403259 415 18130785702866124688
13140716 1 18266463105255042411
13214271 11 18411697686552029183
13224815 77 18411983550521098939
138480 1 17547291107943946310
14223421 5 18411704244677134543
14341114 176 18410018697593863225
14787075 74 18117277171294215507
14790565 3 18337959003850372692
15196674 1 18411417302354528174
15442244 35 18051974714740975626
15536298 74 18270962345543166510
17349148 13 17822015340799014726
17492 89 18410573946576860683
18681886 176 18412822513218422008
19591789 44 18341047535615964552
200 152 18060412513117454813
20261772 1 18129381656054893279
20510252 161 18343022198544111697
21065198 57 18266459814993419942
21267235 1 18411426119616834574
21709351 56 18408598154562250452
221490 88 18339931419945783326
23366157 5 18042690494660057450
23402539 116 18334287682299136751
23559900 14 18125999369646922726
245318 6 17243877949914101708
335352 9 18123750855382505358
34934 24 18337666417708150077
350125 39 18411703230996514672
3545911 37 18410293571216636301
4214541 1 18410854330573186781
474 4 18040158422412778540
474229 33 18339079397133965750
4990 188 17988931041998254284
5104073 3 18411416185610362514
5283173 99 18115291303650994805
7097593 13 17537987083367413019
7364860 26 18198623229479384846
77779 3 18411699863820977068
9709674 26 18340771425212130103

>  <PUBCHEM_SHAPE_MULTIPOLES>  (1) 
411.59
10.01
2.61
0.69
2.27
0.07
-0.05
-0.44
-0.8
-1.36
-0.14
-0.25
0.13
0.58

>  <PUBCHEM_SHAPE_SELFOVERLAP>  (1) 
934.858

>  <PUBCHEM_SHAPE_VOLUME>  (1) 
197.6

>  <PUBCHEM_COORDINATE_TYPE>  (1) 
2
5
10

$$$$
