42073
     RDKit          3D

 27 31  0  0  0  0  0  0  0  0999 V2000
    3.6566   -1.3721    1.9439 O   0  0  0  0  0  0  0  0  0  0  0  0
   -3.5351    0.6215    0.3069 N   0  0  0  0  0  0  0  0  0  0  0  0
   -0.6855    0.6705    0.2972 N   0  0  0  0  0  0  0  0  0  0  0  0
   -4.8444    0.1744   -0.1337 C   0  0  0  0  0  0  0  0  0  0  0  0
   -5.6730   -0.4262    0.9955 C   0  0  0  0  0  0  0  0  0  0  0  0
   -5.7280    1.3199   -0.6127 C   0  0  0  0  0  0  0  0  0  0  0  0
   -7.0981   -0.4011    0.4490 C   0  0  0  0  0  0  0  0  0  0  0  0
   -7.1336    0.7255   -0.5874 C   0  0  0  0  0  0  0  0  0  0  0  0
   -2.7654   -0.5016    0.8613 C   0  0  0  0  0  0  0  0  0  0  0  0
   -2.8012    1.2448   -0.8037 C   0  0  0  0  0  0  0  0  0  0  0  0
   -1.3987   -0.0318    1.3632 C   0  0  0  0  0  0  0  0  0  0  0  0
   -1.4354    1.7534   -0.3382 C   0  0  0  0  0  0  0  0  0  0  0  0
    0.6370    0.4534    0.0408 C   0  0  0  0  0  0  0  0  0  0  0  0
    1.0133   -0.9369   -0.3283 C   0  0  0  0  0  0  0  0  0  0  0  0
    1.5271    1.4618    0.1200 C   0  0  0  0  0  0  0  0  0  0  0  0
    2.1735   -1.5769    0.1362 C   0  0  0  0  0  0  0  0  0  0  0  0
    2.9828    1.4227   -0.0648 C   0  0  0  0  0  0  0  0  0  0  0  0
    0.1426   -1.6922   -1.1402 C   0  0  0  0  0  0  0  0  0  0  0  0
    3.7866    0.3620    0.3673 C   0  0  0  0  0  0  0  0  0  0  0  0
    3.2105   -0.8780    0.9164 C   0  0  0  0  0  0  0  0  0  0  0  0
    2.4305   -2.9251   -0.1594 C   0  0  0  0  0  0  0  0  0  0  0  0
    3.6128    2.5655   -0.5839 C   0  0  0  0  0  0  0  0  0  0  0  0
    0.4042   -3.0303   -1.4482 C   0  0  0  0  0  0  0  0  0  0  0  0
    1.5438   -3.6491   -0.9499 C   0  0  0  0  0  0  0  0  0  0  0  0
    5.1837    0.4366    0.2835 C   0  0  0  0  0  0  0  0  0  0  0  0
    5.0043    2.6362   -0.6835 C   0  0  0  0  0  0  0  0  0  0  0  0
    5.7892    1.5731   -0.2471 C   0  0  0  0  0  0  0  0  0  0  0  0
  1 20  2  0
  2  4  1  0
  2  9  1  0
  2 10  1  0
  3 11  1  0
  3 12  1  0
  3 13  1  0
  4  5  1  0
  4  6  1  0
  5  7  1  0
  6  8  1  0
  7  8  1  0
  9 11  1  0
 10 12  1  0
 13 14  1  0
 13 15  2  0
 14 16  2  0
 14 18  1  0
 15 17  1  0
 16 20  1  0
 16 21  1  0
 17 19  2  0
 17 22  1  0
 18 23  2  0
 19 20  1  0
 19 25  1  0
 21 24  2  0
 22 26  2  0
 23 24  1  0
 25 27  2  0
 26 27  1  0
M  END
>  <PUBCHEM_COMPOUND_CID>  (1) 
42073

>  <PUBCHEM_CONFORMER_RMSD>  (1) 
0.8

>  <PUBCHEM_CONFORMER_DIVERSEORDER>  (1) 
1
7
4
9
6
11
10
8
5
3
2

>  <PUBCHEM_MMFF94_PARTIAL_CHARGES>  (1) 
32
1 -0.57
10 0.27
11 0.37
12 0.37
13 0.07
14 0.03
15 -0.18
16 0.09
17 0.03
18 -0.15
19 0.09
2 -0.81
20 0.4
21 -0.15
22 -0.15
23 -0.15
24 -0.15
25 -0.15
26 -0.15
27 -0.15
3 -0.84
4 0.27
45 0.15
46 0.15
47 0.15
48 0.15
49 0.15
50 0.15
51 0.15
52 0.15
53 0.15
9 0.27

>  <PUBCHEM_EFFECTIVE_ROTOR_COUNT>  (1) 
4.2

>  <PUBCHEM_PHARMACOPHORE_FEATURES>  (1) 
8
1 1 acceptor
1 2 cation
1 3 cation
5 4 5 6 7 8 rings
6 14 16 18 21 23 24 rings
6 17 19 22 25 26 27 rings
6 2 3 9 10 11 12 rings
7 13 14 15 16 17 19 20 rings

>  <PUBCHEM_HEAVY_ATOM_COUNT>  (1) 
27

>  <PUBCHEM_ATOM_DEF_STEREO_COUNT>  (1) 
0

>  <PUBCHEM_ATOM_UDEF_STEREO_COUNT>  (1) 
0

>  <PUBCHEM_BOND_DEF_STEREO_COUNT>  (1) 
0

>  <PUBCHEM_BOND_UDEF_STEREO_COUNT>  (1) 
0

>  <PUBCHEM_ISOTOPIC_ATOM_COUNT>  (1) 
0

>  <PUBCHEM_COMPONENT_COUNT>  (1) 
1

>  <PUBCHEM_CACTVS_TAUTO_COUNT>  (1) 
1

>  <PUBCHEM_CONFORMER_ID>  (1) 
0000A45900000001

>  <PUBCHEM_MMFF94_ENERGY>  (1) 
95.6422

>  <PUBCHEM_FEATURE_SELFOVERLAP>  (1) 
40.619

>  <PUBCHEM_SHAPE_FINGERPRINT>  (1) 
10090160 65 18412539903431341743
10411042 1 17906734696738884278
10595046 47 18342457024552147681
10835480 77 18335697197026489197
10906281 52 18262255364550317489
11421498 54 17560810883127618441
11719270 70 18413385432104849698
11963148 33 18336822087178693267
12236239 1 17346883329933881129
12592029 89 18341895177513595946
12730499 353 18411142449959061609
12788726 201 17060346171993322201
12838862 33 18340752837116165712
12977781 61 17896344500122715731
13150687 139 18341343283861393812
13383665 225 17896620391916111781
13533116 47 18130787815894867827
13583140 156 17387670761733159270
13836976 161 18411420622527947340
13911987 19 18270412705356519325
14790565 3 18268429225086880268
14840074 17 17989203742457136029
15131766 46 15794281828944941188
15419008 42 17903337235904528365
15537594 2 17632290182027075767
15927050 60 17547577431764901356
15961568 22 18040156210204487061
16752209 62 17986097742225698326
16990366 60 18047472214753165458
17138139 8 17487310854826313759
17492 89 18196088833349018675
17980427 23 17386853996165151645
18681886 176 18413385454328870256
19319366 153 18131625673340450183
19377110 9 17988371386464292225
20157964 124 18409448068608045319
20465049 17 18411147931139126390
20645477 70 18336547127180956617
21197605 99 18337114591720785675
21285901 2 18114178588819146429
21344244 181 17417548963894823718
21344244 246 17987532416290845790
21521721 280 18201161069266447073
21623969 137 18410298017003432467
21716022 299 14690632489177210766
22149856 69 18202293472787211715
22224240 67 18201715188750750497
23559900 14 18194119603559990471
23569917 315 18201728353322359878
239999 70 18338235947056272323
25222932 49 17676773192497978371
255183 451 17913215260895420598
3178227 256 18341338889023276969
335352 9 18412268346636430740
3411729 13 18260830406054440146
4073 2 17386011723161522905
4325135 7 18335419088997695989
4340502 62 18272934937764216389
465052 167 18260545585240417834
5104073 3 18114751439083661433
57527306 92 16588319319372132124
59755656 215 18260833687151076004
6025842 7 18412826867518590743
8272917 22 18411139104337722086

>  <PUBCHEM_SHAPE_MULTIPOLES>  (1) 
539.82
15
3.21
1.16
22.68
2.38
0.17
-7.59
0.6
-4.32
-1.39
-0.06
0.47
-0.06

>  <PUBCHEM_SHAPE_SELFOVERLAP>  (1) 
1189.291

>  <PUBCHEM_SHAPE_VOLUME>  (1) 
289.2

>  <PUBCHEM_COORDINATE_TYPE>  (1) 
2
5
10

$$$$
