42074
     RDKit          3D

 26 30  0  0  0  0  0  0  0  0999 V2000
    3.1433    1.5108    2.0420 O   0  0  0  0  0  0  0  0  0  0  0  0
   -3.7069   -1.1818   -0.0058 N   0  0  0  0  0  0  0  0  0  0  0  0
   -0.8711   -0.9355    0.1364 N   0  0  0  0  0  0  0  0  0  0  0  0
   -5.9657   -0.4165    0.6001 C   0  0  0  0  0  0  0  0  0  0  0  0
   -7.3617   -0.0505    0.2481 C   0  0  0  0  0  0  0  0  0  0  0  0
   -6.3766    1.0106    0.6424 C   0  0  0  0  0  0  0  0  0  0  0  0
   -5.0404   -0.8620   -0.5133 C   0  0  0  0  0  0  0  0  0  0  0  0
   -3.0884    0.0038    0.6047 C   0  0  0  0  0  0  0  0  0  0  0  0
   -2.8553   -1.7040   -1.0844 C   0  0  0  0  0  0  0  0  0  0  0  0
   -1.7080   -0.3321    1.1727 C   0  0  0  0  0  0  0  0  0  0  0  0
   -1.4698   -2.0773   -0.5539 C   0  0  0  0  0  0  0  0  0  0  0  0
    0.4331   -0.5775   -0.0456 C   0  0  0  0  0  0  0  0  0  0  0  0
    0.6807    0.8514   -0.3739 C   0  0  0  0  0  0  0  0  0  0  0  0
    1.4182   -1.4898    0.0665 C   0  0  0  0  0  0  0  0  0  0  0  0
    1.7425    1.5986    0.1606 C   0  0  0  0  0  0  0  0  0  0  0  0
    2.8695   -1.2971   -0.0399 C   0  0  0  0  0  0  0  0  0  0  0  0
   -0.2213    1.5286   -1.2198 C   0  0  0  0  0  0  0  0  0  0  0  0
    3.5351   -0.1671    0.4483 C   0  0  0  0  0  0  0  0  0  0  0  0
    2.8052    0.9952    0.9844 C   0  0  0  0  0  0  0  0  0  0  0  0
    1.8725    2.9718   -0.1015 C   0  0  0  0  0  0  0  0  0  0  0  0
    3.6412   -2.3583   -0.5401 C   0  0  0  0  0  0  0  0  0  0  0  0
   -0.0853    2.8924   -1.4942 C   0  0  0  0  0  0  0  0  0  0  0  0
    0.9567    3.6158   -0.9274 C   0  0  0  0  0  0  0  0  0  0  0  0
    4.9347   -0.0946    0.4370 C   0  0  0  0  0  0  0  0  0  0  0  0
    5.0358   -2.2827   -0.5671 C   0  0  0  0  0  0  0  0  0  0  0  0
    5.6819   -1.1523   -0.0762 C   0  0  0  0  0  0  0  0  0  0  0  0
  1 19  2  0
  2  7  1  0
  2  8  1  0
  2  9  1  0
  3 10  1  0
  3 11  1  0
  3 12  1  0
  4  5  1  0
  4  6  1  0
  4  7  1  0
  5  6  1  0
  8 10  1  0
  9 11  1  0
 12 13  1  0
 12 14  2  0
 13 15  2  0
 13 17  1  0
 14 16  1  0
 15 19  1  0
 15 20  1  0
 16 18  2  0
 16 21  1  0
 17 22  2  0
 18 19  1  0
 18 24  1  0
 20 23  2  0
 21 25  2  0
 22 23  1  0
 24 26  2  0
 25 26  1  0
M  END
>  <PUBCHEM_COMPOUND_CID>  (1) 
42074

>  <PUBCHEM_CONFORMER_RMSD>  (1) 
0.8

>  <PUBCHEM_CONFORMER_DIVERSEORDER>  (1) 
1
4
3
2
6
8
14
5
13
9
7
12
11
10

>  <PUBCHEM_MMFF94_PARTIAL_CHARGES>  (1) 
40
1 -0.57
10 0.37
11 0.37
12 0.07
13 0.03
14 -0.18
15 0.09
16 0.03
17 -0.15
18 0.09
19 0.4
2 -0.81
20 -0.15
21 -0.15
22 -0.15
23 -0.15
24 -0.15
25 -0.15
26 -0.15
27 0.1
28 0.1
29 0.1
3 -0.84
30 0.1
31 0.1
4 -0.19
42 0.15
43 0.15
44 0.15
45 0.15
46 0.15
47 0.15
48 0.15
49 0.15
5 -0.2
50 0.15
6 -0.2
7 0.37
8 0.27
9 0.27

>  <PUBCHEM_EFFECTIVE_ROTOR_COUNT>  (1) 
4.8

>  <PUBCHEM_PHARMACOPHORE_FEATURES>  (1) 
7
1 1 acceptor
1 2 cation
1 3 cation
6 13 15 17 20 22 23 rings
6 16 18 21 24 25 26 rings
6 2 3 8 9 10 11 rings
7 12 13 14 15 16 18 19 rings

>  <PUBCHEM_HEAVY_ATOM_COUNT>  (1) 
26

>  <PUBCHEM_ATOM_DEF_STEREO_COUNT>  (1) 
0

>  <PUBCHEM_ATOM_UDEF_STEREO_COUNT>  (1) 
0

>  <PUBCHEM_BOND_DEF_STEREO_COUNT>  (1) 
0

>  <PUBCHEM_BOND_UDEF_STEREO_COUNT>  (1) 
0

>  <PUBCHEM_ISOTOPIC_ATOM_COUNT>  (1) 
0

>  <PUBCHEM_COMPONENT_COUNT>  (1) 
1

>  <PUBCHEM_CACTVS_TAUTO_COUNT>  (1) 
1

>  <PUBCHEM_CONFORMER_ID>  (1) 
0000A45A00000001

>  <PUBCHEM_MMFF94_ENERGY>  (1) 
100.683

>  <PUBCHEM_FEATURE_SELFOVERLAP>  (1) 
35.542

>  <PUBCHEM_SHAPE_FINGERPRINT>  (1) 
10076449 9 18336552620977086334
10483366 6 18117015449674304124
10688039 33 18040716922542698140
10763959 59 18260261937522036501
10906281 52 17970627618049790944
11421498 54 14490460959416321509
12166972 35 18343023302841564257
12236239 1 18060418032277394423
12422481 6 18410578371226079765
12516196 113 18334297547860387375
12553582 1 18262222370616895690
12788726 201 17896032161916255152
13533116 47 18060699498199596387
13590594 115 18334301920691365865
14022347 108 17894908534031313898
14170010 4 18411702097372626787
14790565 3 17615410694108678588
14955137 171 18335147492150405919
15081414 286 18335415815673960708
15131766 46 14834398192023573026
15420108 30 17764011859713595864
15439362 3 18119254106481894004
15527383 91 18342457036635098886
15840311 113 18131631197485595945
15849732 13 18343022173149068719
16087824 20 18264489478010873085
16728300 4 13037241832017818662
17357779 13 18335687335264067332
173720 79 12967123891891083276
17492 89 18120658191257006971
17818456 19 18060143141559018489
17980427 23 17846228717668894569
1813 80 18113899364415581836
18335252 114 18409720756620083325
19141452 34 18272365395052391679
20715895 44 18342178822509373697
21033648 29 18201704134027261609
21267235 1 18411426080935800518
21285901 2 18339086969414575246
21304253 13 18413107255863618792
21521721 280 8790591628959062119
21641784 216 17896056368742404276
21774942 28 16127825028944254817
21792961 116 17822561699679413398
22182313 1 18192685943935541348
23558518 356 17683241730683255411
23559900 14 18343016735277470739
23569943 247 18192429663174654019
23622692 88 18202849846322860551
24771293 8 18198328740957521656
335352 9 18412545418232822567
3411729 13 17751081533961556980
350125 39 18342460322438158625
4073 2 18336828700963936875
4144715 1 18115317803641331123
4340502 62 10231752284193121593
513532 50 18059306468770958948
5283268 108 18333444344164957816
57527293 21 18126538289885843658
57724786 102 17896322583400066549
59755656 520 11095872735943558144
6328613 192 18340495550967686284
6443956 14 18409730694414692164
70251023 43 18193280694011984242
9971528 1 18410290341316697225
9981440 41 17402046098518723233

>  <PUBCHEM_SHAPE_MULTIPOLES>  (1) 
519.24
13.72
3.22
1.16
19.66
2.57
-0.11
-5.78
-2.49
-2.71
1.28
-0.15
0.47
0.33

>  <PUBCHEM_SHAPE_SELFOVERLAP>  (1) 
1139.907

>  <PUBCHEM_SHAPE_VOLUME>  (1) 
279

>  <PUBCHEM_COORDINATE_TYPE>  (1) 
2
5
10

$$$$
