42083
     RDKit          3D

 26 29  0  0  1  0  0  0  0  0999 V2000
    2.4017    1.6239    1.7850 O   0  0  0  0  0  0  0  0  0  0  0  0
    1.2055   -1.8290   -0.4767 O   0  0  0  0  0  0  0  0  0  0  0  0
   -0.8588    2.6243   -1.8307 O   0  0  0  0  0  0  0  0  0  0  0  0
   -1.9079   -0.9502    2.0092 O   0  0  0  0  0  0  0  0  0  0  0  0
   -4.0436    0.0597    0.6827 O   0  0  0  0  0  0  0  0  0  0  0  0
    1.4808   -4.1125   -0.3775 O   0  0  0  0  0  0  0  0  0  0  0  0
    4.2788    1.0838   -0.3941 N   0  0  0  0  0  0  0  0  0  0  0  0
    1.2867    1.3816   -0.3132 N   0  0  0  0  0  0  0  0  0  0  0  0
    1.3995   -3.0123   -2.3949 N   0  0  0  0  0  0  0  0  0  0  0  0
    3.2534    0.1572    0.0899 C   0  0  0  0  0  0  0  0  0  0  0  0
    2.0302    0.6920    0.7690 C   0  0  0  0  0  0  0  0  0  0  0  0
    3.2558    0.6382   -1.3242 C   0  0  0  0  0  0  0  0  0  0  0  0
    2.0384    1.4824   -1.5607 C   0  0  0  0  0  0  0  0  0  0  0  0
    0.9726   -0.3055    1.3486 C   0  0  0  0  0  0  0  0  0  0  0  0
   -0.0628    1.1494   -0.1797 C   0  0  0  0  0  0  0  0  0  0  0  0
   -0.3137    0.2445    0.7653 C   0  0  0  0  0  0  0  0  0  0  0  0
    1.1608   -1.7640    0.9365 C   0  0  0  0  0  0  0  0  0  0  0  0
   -1.1181    1.7890   -0.9711 C   0  0  0  0  0  0  0  0  0  0  0  0
   -1.6793   -0.1468    1.1120 C   0  0  0  0  0  0  0  0  0  0  0  0
    2.9652    0.9645    2.9078 C   0  0  0  0  0  0  0  0  0  0  0  0
   -2.5292    1.3740   -0.6608 C   0  0  0  0  0  0  0  0  0  0  0  0
   -2.7797    0.4787    0.3186 C   0  0  0  0  0  0  0  0  0  0  0  0
   -3.5653    2.0387   -1.5263 C   0  0  0  0  0  0  0  0  0  0  0  0
    1.3715   -3.0759   -1.0236 C   0  0  0  0  0  0  0  0  0  0  0  0
   -4.4303   -1.0760   -0.0658 C   0  0  0  0  0  0  0  0  0  0  0  0
   -5.8122   -1.5097    0.3746 C   0  0  0  0  0  0  0  0  0  0  0  0
  1 11  1  0
  1 20  1  0
  2 17  1  0
  2 24  1  0
  3 18  2  0
  4 19  2  0
  5 22  1  0
  5 25  1  0
  6 24  2  0
  7 10  1  0
  7 12  1  0
  8 11  1  0
  8 13  1  0
  8 15  1  0
  9 24  1  0
 10 11  1  0
 10 12  1  0
 11 14  1  0
 12 13  1  0
 14 16  1  0
 14 17  1  0
 15 16  2  0
 15 18  1  0
 16 19  1  0
 18 21  1  0
 19 22  1  0
 21 22  2  0
 21 23  1  0
 25 26  1  0
M  END
>  <PUBCHEM_COMPOUND_CID>  (1) 
42083

>  <PUBCHEM_CONFORMER_RMSD>  (1) 
0.8

>  <PUBCHEM_CONFORMER_DIVERSEORDER>  (1) 
1
10
7
9
16
12
5
11
8
15
13
6
17
14
3
4
2

>  <PUBCHEM_MMFF94_PARTIAL_CHARGES>  (1) 
30
1 -0.56
10 -0.04
11 0.74
12 -0.04
13 0.46
14 0.14
15 0.11
16 -0.12
17 0.28
18 0.54
19 0.54
2 -0.43
20 0.28
21 -0.12
22 0.09
23 0.14
24 0.78
25 0.28
27 0.1
28 0.1
29 0.36
3 -0.57
4 -0.57
43 0.37
44 0.37
5 -0.36
6 -0.57
7 -0.68
8 -0.84
9 -0.8

>  <PUBCHEM_EFFECTIVE_ROTOR_COUNT>  (1) 
6.6

>  <PUBCHEM_PHARMACOPHORE_FEATURES>  (1) 
12
1 1 acceptor
1 3 acceptor
1 4 acceptor
1 5 acceptor
1 6 acceptor
1 7 cation
1 7 donor
1 8 cation
1 9 donor
5 8 11 14 15 16 rings
6 15 16 18 19 21 22 rings
6 7 8 10 11 12 13 rings

>  <PUBCHEM_HEAVY_ATOM_COUNT>  (1) 
26

>  <PUBCHEM_ATOM_DEF_STEREO_COUNT>  (1) 
2

>  <PUBCHEM_ATOM_UDEF_STEREO_COUNT>  (1) 
2

>  <PUBCHEM_BOND_DEF_STEREO_COUNT>  (1) 
0

>  <PUBCHEM_BOND_UDEF_STEREO_COUNT>  (1) 
0

>  <PUBCHEM_ISOTOPIC_ATOM_COUNT>  (1) 
0

>  <PUBCHEM_COMPONENT_COUNT>  (1) 
1

>  <PUBCHEM_CACTVS_TAUTO_COUNT>  (1) 
18

>  <PUBCHEM_CONFORMER_ID>  (1) 
0000A46300000001

>  <PUBCHEM_MMFF94_ENERGY>  (1) 
90.5002

>  <PUBCHEM_FEATURE_SELFOVERLAP>  (1) 
61.074

>  <PUBCHEM_SHAPE_FINGERPRINT>  (1) 
10906281 52 17823154439699936381
12553582 1 18189046659505760717
12778500 126 17273164352768331203
12788726 201 17894625968539618025
13140716 1 17462303631247306401
13149001 5 17543062390348941740
13533116 47 18058730183677000705
13583140 156 17489308551743027473
14863182 85 18339368564539612895
15219462 58 17916859102511666481
15664445 248 18262254295124690261
16945 1 17822560690140377408
17349148 13 17822561789883912361
17492 54 17606140599414457228
17980427 23 17751611382448930188
18681886 176 18260830457747671852
20905425 154 18114737123297909976
21285901 2 18187080655522242511
22182313 1 18189050915908099837
22956985 138 18191297191872772762
23114952 82 18119537539461849510
23419403 2 17111800958172733656
23557571 272 18261109639279898289
23559900 14 17971461910566086954
23566358 2 18041276574467482421
2748010 2 17969502611290092737
3052486 1 18051123993283903623
3060560 45 18265339575900939830
34934 24 17534628406463025564
394222 165 14828447587020843435
4280585 95 17758113701100551894
4340502 62 17488457649653878067
5845 1 9131033345758832194
633830 44 17274821389099023201
6669772 16 17845639461431155882
7399639 24 18269822242211546969
81228 2 17622426660524732378
84936 31 17915723315357564266
9709674 26 18041288685884866659

>  <PUBCHEM_SHAPE_MULTIPOLES>  (1) 
484.91
7.59
3.22
2.09
8.81
3.09
0.5
0.3
0.59
-0.72
-2.12
-1.51
-0.06
1.68

>  <PUBCHEM_SHAPE_SELFOVERLAP>  (1) 
1053.154

>  <PUBCHEM_SHAPE_VOLUME>  (1) 
266.5

>  <PUBCHEM_COORDINATE_TYPE>  (1) 
2
5
10

$$$$
