42086
     RDKit          3D

 28 31  0  0  1  0  0  0  0  0999 V2000
    3.2264    1.2378    1.7544 O   0  0  0  0  0  0  0  0  0  0  0  0
    1.3452   -1.9326   -0.4541 O   0  0  0  0  0  0  0  0  0  0  0  0
    0.1968    2.8272   -1.8512 O   0  0  0  0  0  0  0  0  0  0  0  0
   -1.5073   -0.4229    2.0418 O   0  0  0  0  0  0  0  0  0  0  0  0
   -3.4114    0.9774    0.7172 O   0  0  0  0  0  0  0  0  0  0  0  0
    1.1609   -4.2239   -0.3273 O   0  0  0  0  0  0  0  0  0  0  0  0
    4.9377    0.3099   -0.4306 N   0  0  0  0  0  0  0  0  0  0  0  0
    2.0659    1.1990   -0.3327 N   0  0  0  0  0  0  0  0  0  0  0  0
    1.2815   -3.1524   -2.3581 N   0  0  0  0  0  0  0  0  0  0  0  0
    3.7529   -0.3882    0.0725 C   0  0  0  0  0  0  0  0  0  0  0  0
    2.6672    0.3873    0.7531 C   0  0  0  0  0  0  0  0  0  0  0  0
    3.8378    0.0666   -1.3476 C   0  0  0  0  0  0  0  0  0  0  0  0
    2.8109    1.1338   -1.5866 C   0  0  0  0  0  0  0  0  0  0  0  0
    1.4375   -0.3728    1.3529 C   0  0  0  0  0  0  0  0  0  0  0  0
    0.6985    1.2420   -0.1868 C   0  0  0  0  0  0  0  0  0  0  0  0
    0.2812    0.4160    0.7715 C   0  0  0  0  0  0  0  0  0  0  0  0
    1.3276   -1.8441    0.9584 C   0  0  0  0  0  0  0  0  0  0  0  0
   -0.2156    2.0701   -0.9790 C   0  0  0  0  0  0  0  0  0  0  0  0
   -1.1316    0.3087    1.1327 C   0  0  0  0  0  0  0  0  0  0  0  0
    3.6578    0.4920    2.8817 C   0  0  0  0  0  0  0  0  0  0  0  0
   -1.6781    1.9483   -0.6536 C   0  0  0  0  0  0  0  0  0  0  0  0
   -2.0927    1.1319    0.3390 C   0  0  0  0  0  0  0  0  0  0  0  0
   -2.5691    2.7963   -1.5204 C   0  0  0  0  0  0  0  0  0  0  0  0
    1.2542   -3.1936   -0.9861 C   0  0  0  0  0  0  0  0  0  0  0  0
   -4.0235   -0.0668   -0.0139 C   0  0  0  0  0  0  0  0  0  0  0  0
   -5.4771   -0.1856    0.4218 C   0  0  0  0  0  0  0  0  0  0  0  0
   -6.1973   -1.3088   -0.3189 C   0  0  0  0  0  0  0  0  0  0  0  0
   -7.6363   -1.4523    0.1501 C   0  0  0  0  0  0  0  0  0  0  0  0
  1 11  1  0
  1 20  1  0
  2 17  1  0
  2 24  1  0
  3 18  2  0
  4 19  2  0
  5 22  1  0
  5 25  1  0
  6 24  2  0
  7 10  1  0
  7 12  1  0
  8 11  1  0
  8 13  1  0
  8 15  1  0
  9 24  1  0
 10 11  1  0
 10 12  1  0
 11 14  1  0
 12 13  1  0
 14 16  1  0
 14 17  1  0
 15 16  2  0
 15 18  1  0
 16 19  1  0
 18 21  1  0
 19 22  1  0
 21 22  2  0
 21 23  1  0
 25 26  1  0
 26 27  1  0
 27 28  1  0
M  END
>  <PUBCHEM_COMPOUND_CID>  (1) 
42086

>  <PUBCHEM_CONFORMER_RMSD>  (1) 
1

>  <PUBCHEM_CONFORMER_DIVERSEORDER>  (1) 
1
11
19
16
20
6
17
18
22
15
9
14
21
10
7
8
4
3
5
13
12
2

>  <PUBCHEM_MMFF94_PARTIAL_CHARGES>  (1) 
30
1 -0.56
10 -0.04
11 0.74
12 -0.04
13 0.46
14 0.14
15 0.11
16 -0.12
17 0.28
18 0.54
19 0.54
2 -0.43
20 0.28
21 -0.12
22 0.09
23 0.14
24 0.78
25 0.28
29 0.1
3 -0.57
30 0.1
31 0.36
4 -0.57
45 0.37
46 0.37
5 -0.36
6 -0.57
7 -0.68
8 -0.84
9 -0.8

>  <PUBCHEM_EFFECTIVE_ROTOR_COUNT>  (1) 
8.6

>  <PUBCHEM_PHARMACOPHORE_FEATURES>  (1) 
13
1 1 acceptor
1 28 hydrophobe
1 3 acceptor
1 4 acceptor
1 5 acceptor
1 6 acceptor
1 7 cation
1 7 donor
1 8 cation
1 9 donor
5 8 11 14 15 16 rings
6 15 16 18 19 21 22 rings
6 7 8 10 11 12 13 rings

>  <PUBCHEM_HEAVY_ATOM_COUNT>  (1) 
28

>  <PUBCHEM_ATOM_DEF_STEREO_COUNT>  (1) 
2

>  <PUBCHEM_ATOM_UDEF_STEREO_COUNT>  (1) 
2

>  <PUBCHEM_BOND_DEF_STEREO_COUNT>  (1) 
0

>  <PUBCHEM_BOND_UDEF_STEREO_COUNT>  (1) 
0

>  <PUBCHEM_ISOTOPIC_ATOM_COUNT>  (1) 
0

>  <PUBCHEM_COMPONENT_COUNT>  (1) 
1

>  <PUBCHEM_CACTVS_TAUTO_COUNT>  (1) 
18

>  <PUBCHEM_CONFORMER_ID>  (1) 
0000A46600000001

>  <PUBCHEM_MMFF94_ENERGY>  (1) 
89.8906

>  <PUBCHEM_FEATURE_SELFOVERLAP>  (1) 
66.148

>  <PUBCHEM_SHAPE_FINGERPRINT>  (1) 
10906281 52 17895777143822582185
11796584 16 17489314071081464079
11963148 33 18334851762405165339
12166972 35 15285635465616593667
12553582 1 18335128830770673669
12596602 18 16486976250155622219
12788726 201 17894908508488941513
13150687 139 17970937637537303588
13583140 156 17417525796751817417
14251764 38 8933843657831863535
14863182 85 18341617035711341839
15183329 4 18040428894474535261
15219462 58 17629747994547181009
15295992 7 9943509818093450685
15475509 84 10373667302779695887
15664445 248 18337125517785056869
16114785 44 13314426999530117115
16945 1 17822003186590596272
17349148 13 18040151808020854385
17492 54 17823721813237434772
18222031 100 18260828232943842153
18681886 176 18334015012696992540
1979834 28 18413108390220190875
20028762 73 18270965747136679511
21285901 2 18259703372661379519
21315764 371 17774724276806326795
21344244 181 17346055419364441702
21475661 188 8574417700252611903
22956985 138 18047463431592284250
23419403 2 16678330546505816498
23557571 272 18189335676023465633
23559900 14 17755009801286145152
239999 70 17346601893300392987
25222932 49 16773224215411049063
3052486 1 18266738176119503895
3060560 45 18336554905609420260
34934 24 17750805539647660052
4340502 62 17632286925714060035
463206 1 18199467839394070287
7399639 24 18341877585359681129
81228 2 17909811465201060210

>  <PUBCHEM_SHAPE_MULTIPOLES>  (1) 
526.07
10.9
3.33
1.98
22.52
2.47
0.45
3.7
0.97
-0.15
-2.41
-2.08
0.01
0.88

>  <PUBCHEM_SHAPE_SELFOVERLAP>  (1) 
1129.123

>  <PUBCHEM_SHAPE_VOLUME>  (1) 
292.3

>  <PUBCHEM_COORDINATE_TYPE>  (1) 
2
5
10

$$$$
