42089
     RDKit          3D

 29 32  0  0  1  0  0  0  0  0999 V2000
    2.4403    1.6771    2.2307 O   0  0  0  0  0  0  0  0  0  0  0  0
    2.4708   -1.7613   -0.3471 O   0  0  0  0  0  0  0  0  0  0  0  0
    0.3265    2.4701   -2.1974 O   0  0  0  0  0  0  0  0  0  0  0  0
   -1.3397   -1.4239    1.0712 O   0  0  0  0  0  0  0  0  0  0  0  0
   -3.0890   -0.6135   -0.8325 O   0  0  0  0  0  0  0  0  0  0  0  0
    3.0123   -3.9945   -0.2059 O   0  0  0  0  0  0  0  0  0  0  0  0
    4.9456    1.5028    0.7283 N   0  0  0  0  0  0  0  0  0  0  0  0
    2.0589    1.4194   -0.1129 N   0  0  0  0  0  0  0  0  0  0  0  0
    3.3977   -2.7980   -2.1313 N   0  0  0  0  0  0  0  0  0  0  0  0
    3.9584    0.4290    0.8568 C   0  0  0  0  0  0  0  0  0  0  0  0
    2.5258    0.7665    1.1342 C   0  0  0  0  0  0  0  0  0  0  0  0
    4.3242    0.9875   -0.4793 C   0  0  0  0  0  0  0  0  0  0  0  0
    3.1326    1.6853   -1.0658 C   0  0  0  0  0  0  0  0  0  0  0  0
    1.4888   -0.3872    1.3425 C   0  0  0  0  0  0  0  0  0  0  0  0
    0.7776    1.0131   -0.4062 C   0  0  0  0  0  0  0  0  0  0  0  0
    0.3778    0.0307    0.4000 C   0  0  0  0  0  0  0  0  0  0  0  0
    1.9908   -1.7844    0.9842 C   0  0  0  0  0  0  0  0  0  0  0  0
   -0.0648    1.5606   -1.4738 C   0  0  0  0  0  0  0  0  0  0  0  0
   -0.9616   -0.5475    0.3018 C   0  0  0  0  0  0  0  0  0  0  0  0
    3.1408    1.1872    3.3630 C   0  0  0  0  0  0  0  0  0  0  0  0
   -1.4329    0.9553   -1.6210 C   0  0  0  0  0  0  0  0  0  0  0  0
   -1.8439   -0.0195   -0.7818 C   0  0  0  0  0  0  0  0  0  0  0  0
   -2.2380    1.5343   -2.7527 C   0  0  0  0  0  0  0  0  0  0  0  0
    2.9637   -2.9439   -0.8369 C   0  0  0  0  0  0  0  0  0  0  0  0
   -4.0111    0.0851   -0.0191 C   0  0  0  0  0  0  0  0  0  0  0  0
   -5.3703   -0.5920   -0.1231 C   0  0  0  0  0  0  0  0  0  0  0  0
   -6.4152    0.1043    0.7461 C   0  0  0  0  0  0  0  0  0  0  0  0
   -7.7660   -0.6065    0.6688 C   0  0  0  0  0  0  0  0  0  0  0  0
   -8.8001    0.0638    1.5593 C   0  0  0  0  0  0  0  0  0  0  0  0
  1 11  1  0
  1 20  1  0
  2 17  1  0
  2 24  1  0
  3 18  2  0
  4 19  2  0
  5 22  1  0
  5 25  1  0
  6 24  2  0
  7 10  1  0
  7 12  1  0
  8 11  1  0
  8 13  1  0
  8 15  1  0
  9 24  1  0
 10 11  1  0
 10 12  1  0
 11 14  1  0
 12 13  1  0
 14 16  1  0
 14 17  1  0
 15 16  2  0
 15 18  1  0
 16 19  1  0
 18 21  1  0
 19 22  1  0
 21 22  2  0
 21 23  1  0
 25 26  1  0
 26 27  1  0
 27 28  1  0
 28 29  1  0
M  END
>  <PUBCHEM_COMPOUND_CID>  (1) 
42089

>  <PUBCHEM_CONFORMER_RMSD>  (1) 
1

>  <PUBCHEM_CONFORMER_DIVERSEORDER>  (1) 
1
42
10
3
40
16
22
19
36
5
21
39
38
29
15
23
32
35
18
37
9
41
25
20
4
34
14
27
7
33
28
8
26
13
17
6
12
11
24
2
30
31

>  <PUBCHEM_MMFF94_PARTIAL_CHARGES>  (1) 
30
1 -0.56
10 -0.04
11 0.74
12 -0.04
13 0.46
14 0.14
15 0.11
16 -0.12
17 0.28
18 0.54
19 0.54
2 -0.43
20 0.28
21 -0.12
22 0.09
23 0.14
24 0.78
25 0.28
3 -0.57
30 0.1
31 0.1
32 0.36
4 -0.57
46 0.37
47 0.37
5 -0.36
6 -0.57
7 -0.68
8 -0.84
9 -0.8

>  <PUBCHEM_EFFECTIVE_ROTOR_COUNT>  (1) 
9.6

>  <PUBCHEM_PHARMACOPHORE_FEATURES>  (1) 
13
1 1 acceptor
1 29 hydrophobe
1 3 acceptor
1 4 acceptor
1 5 acceptor
1 6 acceptor
1 7 cation
1 7 donor
1 8 cation
1 9 donor
5 8 11 14 15 16 rings
6 15 16 18 19 21 22 rings
6 7 8 10 11 12 13 rings

>  <PUBCHEM_HEAVY_ATOM_COUNT>  (1) 
29

>  <PUBCHEM_ATOM_DEF_STEREO_COUNT>  (1) 
2

>  <PUBCHEM_ATOM_UDEF_STEREO_COUNT>  (1) 
2

>  <PUBCHEM_BOND_DEF_STEREO_COUNT>  (1) 
0

>  <PUBCHEM_BOND_UDEF_STEREO_COUNT>  (1) 
0

>  <PUBCHEM_ISOTOPIC_ATOM_COUNT>  (1) 
0

>  <PUBCHEM_COMPONENT_COUNT>  (1) 
1

>  <PUBCHEM_CACTVS_TAUTO_COUNT>  (1) 
18

>  <PUBCHEM_CONFORMER_ID>  (1) 
0000A46900000001

>  <PUBCHEM_MMFF94_ENERGY>  (1) 
89.2242

>  <PUBCHEM_FEATURE_SELFOVERLAP>  (1) 
66.148

>  <PUBCHEM_SHAPE_FINGERPRINT>  (1) 
10165383 225 18341897437362888328
10906281 52 17822865314795264207
12553582 1 17750216157964144693
12778500 126 17775293733481830859
13140716 1 17461441609435125389
13533116 47 18202285775868505579
13540713 4 18043516231833810445
13583140 156 17489306455624699027
13835254 42 18339364072442184465
14022347 108 17313392201361794483
15183329 4 10159706781521918577
15420108 30 17758115186826582949
15664445 248 17822021921058600588
16945 1 17679266842009537552
17980427 26 17273107285384914000
1813 80 17095246900051948589
1979834 28 18335698368776574385
20691752 17 17532101500839714504
21267235 1 17240757385320948480
21421861 104 16988840545228994526
22149856 69 14851608744459215545
22182313 1 18116133507565758269
23419403 2 16826650344461161744
23522609 53 14997143350548686503
25222932 49 16733828743351498483
29717793 49 11602533226826443531
394071 54 18114187471112045125
4340502 62 18060137669238141295
465052 167 17023179457501217945
5104073 3 17314203636495950641
70251023 43 18192721037807777602

>  <PUBCHEM_SHAPE_MULTIPOLES>  (1) 
546.65
14.32
2.73
2.36
41.66
2.05
0.75
2.38
6.99
-4.02
-1.86
-1.69
-0.69
2.31

>  <PUBCHEM_SHAPE_SELFOVERLAP>  (1) 
1167.2

>  <PUBCHEM_SHAPE_VOLUME>  (1) 
305.1

>  <PUBCHEM_COORDINATE_TYPE>  (1) 
2
5
10

$$$$
