42084
     RDKit          3D

 27 30  0  0  1  0  0  0  0  0999 V2000
    2.8470    1.4366    1.7301 O   0  0  0  0  0  0  0  0  0  0  0  0
    1.2197   -1.8960   -0.4411 O   0  0  0  0  0  0  0  0  0  0  0  0
   -0.3263    2.7415   -1.8660 O   0  0  0  0  0  0  0  0  0  0  0  0
   -1.7316   -0.6064    2.0633 O   0  0  0  0  0  0  0  0  0  0  0  0
   -3.7531    0.6214    0.7416 O   0  0  0  0  0  0  0  0  0  0  0  0
    1.2258   -4.1935   -0.2957 O   0  0  0  0  0  0  0  0  0  0  0  0
    4.6151    0.6352   -0.4598 N   0  0  0  0  0  0  0  0  0  0  0  0
    1.6804    1.2853   -0.3484 N   0  0  0  0  0  0  0  0  0  0  0  0
    1.2447   -3.1323   -2.3354 N   0  0  0  0  0  0  0  0  0  0  0  0
    3.4951   -0.1540    0.0568 C   0  0  0  0  0  0  0  0  0  0  0  0
    2.3535    0.5348    0.7392 C   0  0  0  0  0  0  0  0  0  0  0  0
    3.5331    0.2947   -1.3672 C   0  0  0  0  0  0  0  0  0  0  0  0
    2.4201    1.2716   -1.6070 C   0  0  0  0  0  0  0  0  0  0  0  0
    1.1946   -0.3192    1.3534 C   0  0  0  0  0  0  0  0  0  0  0  0
    0.3150    1.2166   -0.1933 C   0  0  0  0  0  0  0  0  0  0  0  0
   -0.0266    0.3668    0.7741 C   0  0  0  0  0  0  0  0  0  0  0  0
    1.2038   -1.7977    0.9708 C   0  0  0  0  0  0  0  0  0  0  0  0
   -0.6693    1.9601   -0.9853 C   0  0  0  0  0  0  0  0  0  0  0  0
   -1.4234    0.1463    1.1461 C   0  0  0  0  0  0  0  0  0  0  0  0
    3.3456    0.7381    2.8599 C   0  0  0  0  0  0  0  0  0  0  0  0
   -2.1147    1.7207   -0.6487 C   0  0  0  0  0  0  0  0  0  0  0  0
   -2.4542    0.8810    0.3530 C   0  0  0  0  0  0  0  0  0  0  0  0
   -3.0781    2.4853   -1.5155 C   0  0  0  0  0  0  0  0  0  0  0  0
    1.2297   -3.1644   -0.9629 C   0  0  0  0  0  0  0  0  0  0  0  0
   -4.2817   -0.4756    0.0228 C   0  0  0  0  0  0  0  0  0  0  0  0
   -5.7170   -0.7098    0.4685 C   0  0  0  0  0  0  0  0  0  0  0  0
   -6.3474   -1.8873   -0.2533 C   0  0  0  0  0  0  0  0  0  0  0  0
  1 11  1  0
  1 20  1  0
  2 17  1  0
  2 24  1  0
  3 18  2  0
  4 19  2  0
  5 22  1  0
  5 25  1  0
  6 24  2  0
  7 10  1  0
  7 12  1  0
  8 11  1  0
  8 13  1  0
  8 15  1  0
  9 24  1  0
 10 11  1  0
 10 12  1  0
 11 14  1  0
 12 13  1  0
 14 16  1  0
 14 17  1  0
 15 16  2  0
 15 18  1  0
 16 19  1  0
 18 21  1  0
 19 22  1  0
 21 22  2  0
 21 23  1  0
 25 26  1  0
 26 27  1  0
M  END
>  <PUBCHEM_COMPOUND_CID>  (1) 
42084

>  <PUBCHEM_CONFORMER_RMSD>  (1) 
0.8

>  <PUBCHEM_CONFORMER_DIVERSEORDER>  (1) 
1
35
31
24
16
21
14
6
27
36
26
32
29
12
34
15
9
23
28
18
4
33
22
17
10
19
5
30
11
2
25
20
8
7
13
3

>  <PUBCHEM_MMFF94_PARTIAL_CHARGES>  (1) 
30
1 -0.56
10 -0.04
11 0.74
12 -0.04
13 0.46
14 0.14
15 0.11
16 -0.12
17 0.28
18 0.54
19 0.54
2 -0.43
20 0.28
21 -0.12
22 0.09
23 0.14
24 0.78
25 0.28
28 0.1
29 0.1
3 -0.57
30 0.36
4 -0.57
44 0.37
45 0.37
5 -0.36
6 -0.57
7 -0.68
8 -0.84
9 -0.8

>  <PUBCHEM_EFFECTIVE_ROTOR_COUNT>  (1) 
7.6

>  <PUBCHEM_PHARMACOPHORE_FEATURES>  (1) 
13
1 1 acceptor
1 27 hydrophobe
1 3 acceptor
1 4 acceptor
1 5 acceptor
1 6 acceptor
1 7 cation
1 7 donor
1 8 cation
1 9 donor
5 8 11 14 15 16 rings
6 15 16 18 19 21 22 rings
6 7 8 10 11 12 13 rings

>  <PUBCHEM_HEAVY_ATOM_COUNT>  (1) 
27

>  <PUBCHEM_ATOM_DEF_STEREO_COUNT>  (1) 
2

>  <PUBCHEM_ATOM_UDEF_STEREO_COUNT>  (1) 
2

>  <PUBCHEM_BOND_DEF_STEREO_COUNT>  (1) 
0

>  <PUBCHEM_BOND_UDEF_STEREO_COUNT>  (1) 
0

>  <PUBCHEM_ISOTOPIC_ATOM_COUNT>  (1) 
0

>  <PUBCHEM_COMPONENT_COUNT>  (1) 
1

>  <PUBCHEM_CACTVS_TAUTO_COUNT>  (1) 
18

>  <PUBCHEM_CONFORMER_ID>  (1) 
0000A46400000001

>  <PUBCHEM_MMFF94_ENERGY>  (1) 
90.1247

>  <PUBCHEM_FEATURE_SELFOVERLAP>  (1) 
66.148

>  <PUBCHEM_SHAPE_FINGERPRINT>  (1) 
10906281 52 17823156617148200145
11796584 16 17489597766598666183
11963148 33 18262514909556767283
12553582 1 18187363277054728337
12596602 18 16486698086630442755
12778500 126 17130170653630884195
12788726 201 17894345575794491169
13583140 156 17489305227369885529
14251764 38 8934412101111902871
14863182 85 18412269466795024855
15183329 4 18113890577819673845
15219462 58 17773302444720204281
15295992 7 9943514220535240335
15475509 84 10372551302862290743
15664445 248 18336000726069414933
16945 1 17822001008862822648
17349148 13 17967246507819021697
17492 54 17751381661780300292
18681886 176 18261113006550570044
20905425 154 17970061154427596840
21285901 2 18187081737811692615
21315764 371 17774443918584494587
22182313 1 18116712916250855029
22956985 138 18119239572065047498
23419403 2 16894784824970855666
23557571 272 18261111816722958761
23559900 14 17899689060085699658
25222932 49 16773225327839337735
3052486 1 18194680603698869695
3060560 45 18336554922615164164
34934 24 17606407802689791260
4340502 62 17632007667019634387
463206 1 18270121357025331935
469060 322 18194374883910822311
6669772 16 17917415559028183610
7399639 24 18341597235833174577
81228 2 17838037566521877434
9709674 26 17968951790033937641

>  <PUBCHEM_SHAPE_MULTIPOLES>  (1) 
505.49
8.94
3.32
2.03
13.2
2.99
0.46
1.81
0.67
-0.03
-2.31
-1.72
-0.08
1.13

>  <PUBCHEM_SHAPE_SELFOVERLAP>  (1) 
1091.253

>  <PUBCHEM_SHAPE_VOLUME>  (1) 
279.4

>  <PUBCHEM_COORDINATE_TYPE>  (1) 
2
5
10

$$$$
