42091
     RDKit          3D

 15 16  0  0  1  0  0  0  0  0999 V2000
    2.4338   -0.8267    0.1903 O   0  0  0  0  0  0  0  0  0  0  0  0
   -5.0685    0.6336    0.1934 O   0  0  0  0  0  0  0  0  0  0  0  0
   -3.2401    0.4103    1.5230 O   0  0  0  0  0  0  0  0  0  0  0  0
    2.9536    0.4181   -0.3476 C   0  0  0  0  0  0  0  0  0  0  0  0
    1.8114    1.4437   -0.4146 C   0  0  0  0  0  0  0  0  0  0  0  0
    0.6605    0.5136   -0.4230 C   0  0  0  0  0  0  0  0  0  0  0  0
    4.1081    0.8869    0.5227 C   0  0  0  0  0  0  0  0  0  0  0  0
    1.0849   -0.7511   -0.0453 C   0  0  0  0  0  0  0  0  0  0  0  0
   -0.6742    0.7662   -0.6818 C   0  0  0  0  0  0  0  0  0  0  0  0
   -1.5809   -0.2903   -0.5615 C   0  0  0  0  0  0  0  0  0  0  0  0
    0.2052   -1.8070    0.0929 C   0  0  0  0  0  0  0  0  0  0  0  0
    5.2386   -0.1274    0.5479 C   0  0  0  0  0  0  0  0  0  0  0  0
   -1.1440   -1.5684   -0.1749 C   0  0  0  0  0  0  0  0  0  0  0  0
   -3.0290   -0.0578   -0.8370 C   0  0  0  0  0  0  0  0  0  0  0  0
   -3.7593    0.3561    0.4153 C   0  0  0  0  0  0  0  0  0  0  0  0
  1  4  1  0
  1  8  1  0
  2 15  1  0
  3 15  2  0
  4  5  1  0
  4  7  1  0
  5  6  1  0
  6  8  2  0
  6  9  1  0
  7 12  1  0
  8 11  1  0
  9 10  2  0
 10 13  1  0
 10 14  1  0
 11 13  2  0
 14 15  1  0
M  END
>  <PUBCHEM_COMPOUND_CID>  (1) 
42091

>  <PUBCHEM_CONFORMER_RMSD>  (1) 
0.6

>  <PUBCHEM_CONFORMER_DIVERSEORDER>  (1) 
1
28
16
24
3
12
5
18
23
25
11
29
6
30
20
14
21
26
4
9
15
22
19
8
27
7
10
2
13
17

>  <PUBCHEM_MMFF94_PARTIAL_CHARGES>  (1) 
17
1 -0.36
10 -0.14
11 -0.15
13 -0.15
14 0.2
15 0.66
2 -0.65
21 0.15
22 0.15
26 0.15
29 0.5
3 -0.57
4 0.28
5 0.14
6 -0.14
8 0.08
9 -0.15

>  <PUBCHEM_EFFECTIVE_ROTOR_COUNT>  (1) 
3.6

>  <PUBCHEM_PHARMACOPHORE_FEATURES>  (1) 
7
1 1 acceptor
1 12 hydrophobe
1 2 acceptor
1 3 acceptor
3 2 3 15 anion
5 1 4 5 6 8 rings
6 6 8 9 10 11 13 rings

>  <PUBCHEM_HEAVY_ATOM_COUNT>  (1) 
15

>  <PUBCHEM_ATOM_DEF_STEREO_COUNT>  (1) 
0

>  <PUBCHEM_ATOM_UDEF_STEREO_COUNT>  (1) 
1

>  <PUBCHEM_BOND_DEF_STEREO_COUNT>  (1) 
0

>  <PUBCHEM_BOND_UDEF_STEREO_COUNT>  (1) 
0

>  <PUBCHEM_ISOTOPIC_ATOM_COUNT>  (1) 
0

>  <PUBCHEM_COMPONENT_COUNT>  (1) 
1

>  <PUBCHEM_CACTVS_TAUTO_COUNT>  (1) 
1

>  <PUBCHEM_CONFORMER_ID>  (1) 
0000A46B00000001

>  <PUBCHEM_MMFF94_ENERGY>  (1) 
33.0567

>  <PUBCHEM_FEATURE_SELFOVERLAP>  (1) 
35.681

>  <PUBCHEM_SHAPE_FINGERPRINT>  (1) 
11046707 91 12252180783819150201
11132069 177 18410293622571315830
12119455 92 18333447647084115491
12236239 1 17988921163483750453
12251169 10 18260548939272018757
12346645 44 18272933791250632115
124424 183 17022897965260021149
12500047 106 16343696664350130198
12916748 109 17346608477801794761
13140716 1 18189898797654038640
13380535 76 18411136960964853902
13675066 3 18410296921127258988
13760787 5 17894625993934316918
14897335 6 18343582953737784439
14943859 89 17275106136851102583
15209294 21 18202283580496496160
15309172 13 18334857225185788255
15375462 189 17749376071356884304
15775835 57 18272934916748335005
16945 1 18333729121934258398
17844478 74 17458060456497172605
18186145 218 18343021090389769332
18769570 83 16630530600599756410
19026448 4 16343427297065464342
200 152 18342448288530626207
20279233 1 17385727980742623107
21501502 16 18047191031853939756
21524375 3 18342739637019919647
21637258 2 14490464326665354904
22182313 1 18116425934619474446
22854114 59 18335141986097141529
23402539 116 17561073726668171317
23493267 7 16588567730746566021
23557571 272 15697995288600952991
23559900 14 11239994586515529316
26918003 58 17603587426309512849
5104073 3 18263072383599719160
53655031 270 18410572873050489512
53812653 166 18411694417923628632
58807428 26 18261942016758551082
69090 78 18342731944691340166

>  <PUBCHEM_SHAPE_MULTIPOLES>  (1) 
291.09
8.76
1.4
0.91
1.17
0.42
-0.14
-2.2
-2.51
0.2
0.05
-0.47
-0.11
-0.28

>  <PUBCHEM_SHAPE_SELFOVERLAP>  (1) 
618.308

>  <PUBCHEM_SHAPE_VOLUME>  (1) 
163.8

>  <PUBCHEM_COORDINATE_TYPE>  (1) 
2
5
10

$$$$
