42094
     RDKit          3D

 15 14  0  0  1  0  0  0  0  0999 V2000
   -1.1090    1.1591    0.3698 O   0  0  0  0  0  0  0  0  0  0  0  0
    0.1662   -1.1842   -2.7298 O   0  0  0  0  0  0  0  0  0  0  0  0
   -0.0391    2.3259   -1.3150 O   0  0  0  0  0  0  0  0  0  0  0  0
    0.2734   -0.5237   -0.7303 N   0  0  0  0  0  0  0  0  0  0  0  0
    0.3173   -1.5493   -1.5578 N   0  0  0  0  0  0  0  0  0  0  0  0
   -1.1053   -0.0854   -0.3815 C   0  0  0  0  0  0  0  0  0  0  0  0
   -1.8985   -1.1365    0.4282 C   0  0  0  0  0  0  0  0  0  0  0  0
    1.1008   -0.7569    0.4587 C   0  0  0  0  0  0  0  0  0  0  0  0
    2.5642   -0.4384    0.1577 C   0  0  0  0  0  0  0  0  0  0  0  0
   -3.3258   -0.6968    0.7592 C   0  0  0  0  0  0  0  0  0  0  0  0
    3.4418   -0.6545    1.3910 C   0  0  0  0  0  0  0  0  0  0  0  0
   -4.0714   -1.7719    1.5349 C   0  0  0  0  0  0  0  0  0  0  0  0
    4.9054   -0.3736    1.0900 C   0  0  0  0  0  0  0  0  0  0  0  0
   -0.5539    2.2620   -0.2073 C   0  0  0  0  0  0  0  0  0  0  0  0
   -0.6660    3.4241    0.7321 C   0  0  0  0  0  0  0  0  0  0  0  0
  1  6  1  0
  1 14  1  0
  2  5  2  0
  3 14  2  0
  4  5  1  0
  4  6  1  0
  4  8  1  0
  6  7  1  0
  7 10  1  0
  8  9  1  0
  9 11  1  0
 10 12  1  0
 11 13  1  0
 14 15  1  0
M  END
>  <PUBCHEM_COMPOUND_CID>  (1) 
42094

>  <PUBCHEM_CONFORMER_RMSD>  (1) 
0.8

>  <PUBCHEM_CONFORMER_DIVERSEORDER>  (1) 
1
413
354
388
22
281
169
342
269
319
15
334
271
72
294
191
216
452
176
355
119
300
299
34
321
136
469
26
87
223
252
291
20
37
307
418
71
403
74
369
361
311
237
206
166
177
85
382
411
432
175
375
102
83
103
234
465
2
440
260
235
245
270
304
162
61
455
132
289
19
133
27
186
140
464
329
159
14
195
457
412
451
209
180
425
278
23
155
423
356
64
3
86
339
188
292
95
163
48
416
286
395
259
199
89
84
316
178
240
50
94
202
312
42
18
461
151
139
419
248
264
285
201
129
200
402
324
442
254
438
60
396
7
142
302
366
241
347
370
364
336
371
113
217
115
325
25
463
161
28
218
203
314
230
429
138
170
10
273
333
276
306
68
120
134
257
462
437
224
460
323
290
96
130
277
367
45
363
253
399
284
313
144
226
12
320
77
213
282
383
409
187
466
154
288
70
348
49
327
400
80
387
436
456
239
296
125
173
156
268
272
97
21
109
220
143
167
344
56
101
93
351
35
407
433
212
244
124
193
174
394
318
211
67
160
107
8
66
368
227
38
310
353
44
346
78
415
184
55
365
417
362
43
261
308
443
196
110
118
420
207
445
51
303
251
373
350
385
69
392
111
39
189
146
158
100
458
145
332
11
58
305
137
345
36
331
390
122
232
53
391
449
279
386
81
265
31
360
247
9
17
250
243
215
434
358
267
127
378
157
222
408
88
377
121
82
283
328
236
165
293
249
190
24
338
448
141
4
349
172
192
431
444
225
374
397
380
275
57
47
13
229
62
238
204
106
470
439
210
258
326
446
340
274
317
194
75
379
430
341
181
149
233
126
152
398
359
63
205
112
29
393
79
381
76
91
426
428
179
335
117
453
441
421
309
315
5
404
153
255
185
52
183
242
221
108
197
92
330
231
450
297
414
427
65
46
123
266
164
30
410
376
424
171
352
263
104
114
343
256
98
128
298
435
147
135
32
447
168
90
219
337
131
198
182
41
150
228
422
59
467
105
99
468
6
454
73
406
54
459
40
262
214
401
246
208
287
405
280
372
16
148
389
384
357
33
295
301
322
116

>  <PUBCHEM_MMFF94_PARTIAL_CHARGES>  (1) 
9
1 -0.43
14 0.66
15 0.06
2 -0.16
3 -0.57
4 -0.36
5 -0.01
6 0.55
8 0.27

>  <PUBCHEM_EFFECTIVE_ROTOR_COUNT>  (1) 
9

>  <PUBCHEM_PHARMACOPHORE_FEATURES>  (1) 
3
1 12 hydrophobe
1 13 hydrophobe
1 3 acceptor

>  <PUBCHEM_HEAVY_ATOM_COUNT>  (1) 
15

>  <PUBCHEM_ATOM_DEF_STEREO_COUNT>  (1) 
0

>  <PUBCHEM_ATOM_UDEF_STEREO_COUNT>  (1) 
1

>  <PUBCHEM_BOND_DEF_STEREO_COUNT>  (1) 
0

>  <PUBCHEM_BOND_UDEF_STEREO_COUNT>  (1) 
0

>  <PUBCHEM_ISOTOPIC_ATOM_COUNT>  (1) 
0

>  <PUBCHEM_COMPONENT_COUNT>  (1) 
1

>  <PUBCHEM_CACTVS_TAUTO_COUNT>  (1) 
1

>  <PUBCHEM_CONFORMER_ID>  (1) 
0000A46E00000001

>  <PUBCHEM_MMFF94_ENERGY>  (1) 
14.4031

>  <PUBCHEM_FEATURE_SELFOVERLAP>  (1) 
15.223

>  <PUBCHEM_SHAPE_FINGERPRINT>  (1) 
10465860 250 18187081771728410331
10610426 29 17095517435161653075
11357001 24 18264195942269415096
12932764 1 17844500315776724322
14817 1 9074573260057387661
15375462 478 18335416863877485014
17041 49 18263945357219704411
18186145 218 7853573500231552879
18380122 1 18059583425215005895
20344682 10 18409164424378042474
20388701 513 18267880388791671401
20600515 1 18334587823673259537
20671657 53 15936414463267210747
20711985 327 18339371858927079283
21061003 4 18262509407417687555
21524375 3 17406522854969576304
22112679 90 17914322731028140548
22959321 28 18340756101253685938
2306618 200 16806706409986637130
23402539 116 18411971469068700451
23419403 2 15834172070979538909
23557571 272 18267603311629220391
2748010 2 17984726445109278639
3250762 1 17696483883576380223
430814 3 13686299045608119783
57672749 33 18194122047538774745
58734985 188 18338520875265323273
5902787 121 18189634897968639027
68419 9 17172405050652024975
69474 34 18342451582127016209
81228 2 18049748234113025769
81539 233 11743579655941512201

>  <PUBCHEM_SHAPE_MULTIPOLES>  (1) 
281.12
6.29
2.85
1.75
4.39
3.72
-1.2
-4.62
4.94
-1.71
0.34
0.09
-0.71
0.4

>  <PUBCHEM_SHAPE_SELFOVERLAP>  (1) 
522.606

>  <PUBCHEM_SHAPE_VOLUME>  (1) 
176.5

>  <PUBCHEM_COORDINATE_TYPE>  (1) 
2
5
10

$$$$
