42092
     RDKit          3D

 14 15  0  0  1  0  0  0  0  0999 V2000
    2.5175   -1.8050   -0.0682 O   0  0  0  0  0  0  0  0  0  0  0  0
    3.8801    0.1821   -0.1158 O   0  0  0  0  0  0  0  0  0  0  0  0
   -4.5763   -0.0984   -1.2666 O   0  0  0  0  0  0  0  0  0  0  0  0
    1.7747   -0.6669    0.0050 C   0  0  0  0  0  0  0  0  0  0  0  0
   -0.1869    0.6638    0.1655 C   0  0  0  0  0  0  0  0  0  0  0  0
    2.5528    0.4677   -0.0221 C   0  0  0  0  0  0  0  0  0  0  0  0
    0.3995   -0.6023    0.0982 C   0  0  0  0  0  0  0  0  0  0  0  0
    0.6083    1.8231    0.1378 C   0  0  0  0  0  0  0  0  0  0  0  0
    1.9988    1.7297    0.0427 C   0  0  0  0  0  0  0  0  0  0  0  0
   -1.6333    0.7853    0.2649 C   0  0  0  0  0  0  0  0  0  0  0  0
   -4.0195    0.0083    0.0410 C   0  0  0  0  0  0  0  0  0  0  0  0
    3.8503   -1.2593   -0.1451 C   0  0  0  0  0  0  0  0  0  0  0  0
   -2.5324   -0.1674   -0.0721 C   0  0  0  0  0  0  0  0  0  0  0  0
   -4.6337   -1.0609    0.9348 C   0  0  0  0  0  0  0  0  0  0  0  0
  1  4  1  0
  1 12  1  0
  2  6  1  0
  2 12  1  0
  3 11  1  0
  4  6  2  0
  4  7  1  0
  5  7  2  0
  5  8  1  0
  5 10  1  0
  6  9  1  0
  8  9  2  0
 10 13  2  0
 11 13  1  0
 11 14  1  0
M  END
>  <PUBCHEM_COMPOUND_CID>  (1) 
42092

>  <PUBCHEM_CONFORMER_RMSD>  (1) 
0.6

>  <PUBCHEM_CONFORMER_DIVERSEORDER>  (1) 
1
5
4
6
2
3

>  <PUBCHEM_MMFF94_PARTIAL_CHARGES>  (1) 
19
1 -0.36
10 -0.18
11 0.42
12 0.56
13 -0.29
15 0.15
16 0.15
17 0.15
18 0.15
2 -0.36
22 0.15
26 0.4
3 -0.68
4 0.08
5 0.03
6 0.08
7 -0.15
8 -0.15
9 -0.15

>  <PUBCHEM_EFFECTIVE_ROTOR_COUNT>  (1) 
2.6

>  <PUBCHEM_PHARMACOPHORE_FEATURES>  (1) 
6
1 1 acceptor
1 2 acceptor
1 3 acceptor
1 3 donor
5 1 2 4 6 12 rings
6 4 5 6 7 8 9 rings

>  <PUBCHEM_HEAVY_ATOM_COUNT>  (1) 
14

>  <PUBCHEM_ATOM_DEF_STEREO_COUNT>  (1) 
0

>  <PUBCHEM_ATOM_UDEF_STEREO_COUNT>  (1) 
0

>  <PUBCHEM_BOND_DEF_STEREO_COUNT>  (1) 
0

>  <PUBCHEM_BOND_UDEF_STEREO_COUNT>  (1) 
1

>  <PUBCHEM_ISOTOPIC_ATOM_COUNT>  (1) 
0

>  <PUBCHEM_COMPONENT_COUNT>  (1) 
1

>  <PUBCHEM_CACTVS_TAUTO_COUNT>  (1) 
1

>  <PUBCHEM_CONFORMER_ID>  (1) 
0000A46C00000001

>  <PUBCHEM_MMFF94_ENERGY>  (1) 
31.2446

>  <PUBCHEM_FEATURE_SELFOVERLAP>  (1) 
30.601

>  <PUBCHEM_SHAPE_FINGERPRINT>  (1) 
11471102 20 18410571807782549124
11543360 7 16153723045234491975
11806522 49 18411139138570885864
12032990 46 18409735036331001906
12616999 72 18187093883572874356
13296908 3 18259704523548973913
13690532 89 18411700963279870306
13705890 14 18186803594948849137
13760787 5 18272933847428150413
13862211 1 18412259502750654822
14251717 144 18411980264881770958
14252887 29 17917438596652341678
14576447 43 18272081733942218879
15242439 84 18113332003857593671
15375462 189 18060138764770988099
15477762 27 18410576188701821564
15757776 16 18336543837494594106
16945 1 18337121107206707360
17834074 16 18334017228641336179
18186145 218 17821726135461589009
200 152 18202278100656114449
20201158 50 18335141985654192498
20281475 54 18343584083762264235
20645477 70 18411696591224826247
20871998 22 18057614174452112934
21267235 1 18340779165075415742
21501925 9 18412820266275143584
221490 88 18191032394116051587
22485316 2 18342172271987583631
23402539 116 18272645706071255252
23402655 69 18410853252810611373
23557571 272 17313380150137229909
2871803 45 18334292028800908326
4990 188 17676486155258485203
5104073 3 18341050726813791129
581208 293 18340762736398123744
602551 16 14907606965290791805
7364860 26 18271805786957988432
8809292 202 18187653547707957579
94968 8 18410015420755420858

>  <PUBCHEM_SHAPE_MULTIPOLES>  (1) 
270.51
8.66
1.62
0.76
7.75
0.2
0.06
-3.19
0.47
-1.24
-0.1
0.71
-0.05
0.35

>  <PUBCHEM_SHAPE_SELFOVERLAP>  (1) 
575.692

>  <PUBCHEM_SHAPE_VOLUME>  (1) 
152.2

>  <PUBCHEM_COORDINATE_TYPE>  (1) 
2
5
10

$$$$
