42108
     RDKit          3D

 25 27  0  0  1  0  0  0  0  0999 V2000
   -3.2374   -1.5856    0.1322 S   0  0  0  0  0  0  0  0  0  0  0  0
    1.9146    0.7835    0.9918 O   0  0  0  0  0  0  0  0  0  0  0  0
    0.6697   -1.7878    0.8093 O   0  0  0  0  0  0  0  0  0  0  0  0
   -0.5436   -1.0602   -1.0189 O   0  0  0  0  0  0  0  0  0  0  0  0
   -4.3356   -1.7153    1.1473 O   0  0  0  0  0  0  0  0  0  0  0  0
   -1.7128   -1.8317    0.8399 N   0  0  0  0  0  0  0  0  0  0  0  0
    2.7314    1.9367    0.6373 C   0  0  0  0  0  0  0  0  0  0  0  0
    3.9891    1.4435   -0.1160 C   0  0  0  0  0  0  0  0  0  0  0  0
    3.5669    0.0642   -0.4481 C   0  0  0  0  0  0  0  0  0  0  0  0
    2.4009   -0.2463    0.2306 C   0  0  0  0  0  0  0  0  0  0  0  0
    1.8758    2.8617   -0.2375 C   0  0  0  0  0  0  0  0  0  0  0  0
    3.1094    2.6510    1.9359 C   0  0  0  0  0  0  0  0  0  0  0  0
    4.1892   -0.8721   -1.2541 C   0  0  0  0  0  0  0  0  0  0  0  0
    1.8101   -1.4918    0.1369 C   0  0  0  0  0  0  0  0  0  0  0  0
    3.6054   -2.1360   -1.3713 C   0  0  0  0  0  0  0  0  0  0  0  0
    2.4231   -2.4442   -0.6791 C   0  0  0  0  0  0  0  0  0  0  0  0
   -0.5426   -1.5174    0.1247 C   0  0  0  0  0  0  0  0  0  0  0  0
   -3.0101    0.1945   -0.0990 C   0  0  0  0  0  0  0  0  0  0  0  0
   -3.0577    0.7637   -1.3658 C   0  0  0  0  0  0  0  0  0  0  0  0
   -1.6224   -2.3704    2.1927 C   0  0  0  0  0  0  0  0  0  0  0  0
   -2.7862    0.9808    1.0252 C   0  0  0  0  0  0  0  0  0  0  0  0
   -2.8788    2.1394   -1.5109 C   0  0  0  0  0  0  0  0  0  0  0  0
   -3.2971   -0.0521   -2.5952 C   0  0  0  0  0  0  0  0  0  0  0  0
   -2.6075    2.3565    0.8799 C   0  0  0  0  0  0  0  0  0  0  0  0
   -2.6538    2.9358   -0.3879 C   0  0  0  0  0  0  0  0  0  0  0  0
  1  5  2  0
  1  6  1  0
  1 18  1  0
  2  7  1  0
  2 10  1  0
  3 14  1  0
  3 17  1  0
  4 17  2  0
  6 17  1  0
  6 20  1  0
  7  8  1  0
  7 11  1  0
  7 12  1  0
  8  9  1  0
  9 10  2  0
  9 13  1  0
 10 14  1  0
 13 15  2  0
 14 16  2  0
 15 16  1  0
 18 19  2  0
 18 21  1  0
 19 22  1  0
 19 23  1  0
 21 24  2  0
 22 25  2  0
 24 25  1  0
M  END
>  <PUBCHEM_COMPOUND_CID>  (1) 
42108

>  <PUBCHEM_CONFORMER_RMSD>  (1) 
0.8

>  <PUBCHEM_CONFORMER_DIVERSEORDER>  (1) 
1
86
452
447
221
476
362
428
238
479
278
82
87
397
276
220
136
211
367
146
117
379
177
90
169
119
81
63
361
359
430
168
352
455
223
385
387
433
423
219
107
477
182
200
329
77
295
57
174
360
218
143
392
395
203
36
115
194
275
435
343
404
76
187
64
389
481
170
235
336
239
123
333
265
393
260
171
369
427
21
271
321
248
478
310
347
224
417
75
383
26
416
398
94
52
444
55
432
471
202
422
420
334
459
103
446
485
40
99
14
450
262
251
380
102
328
33
192
376
83
9
161
128
110
454
244
233
236
304
191
71
315
48
5
345
257
274
453
356
215
66
6
319
340
316
213
480
208
225
451
263
491
381
375
34
131
112
425
207
58
468
216
350
195
299
227
134
43
470
492
303
242
54
111
475
125
384
67
181
421
198
391
130
157
291
287
138
377
29
339
273
243
346
268
228
88
285
109
147
2
13
401
62
185
402
403
261
132
158
114
17
309
373
175
436
122
74
400
482
312
50
153
142
23
372
301
419
118
51
394
490
407
44
186
201
141
331
461
344
144
266
284
240
155
289
179
313
413
8
332
172
24
180
79
84
19
330
488
429
277
355
156
133
65
306
69
327
89
217
269
305
100
431
323
73
325
411
293
37
484
124
237
229
314
282
61
25
280
410
322
222
337
270
199
366
27
349
307
308
190
440
326
302
354
317
466
472
259
279
93
456
493
167
108
272
399
406
414
246
486
104
11
296
214
80
439
30
253
426
148
173
4
92
3
28
162
97
145
448
378
256
424
297
159
210
445
438
105
53
267
209
288
390
358
363
101
457
374
386
281
32
441
415
324
460
193
255
39
127
70
483
85
382
408
205
264
241
368
197
469
443
189
318
46
388
22
258
151
230
129
204
351
462
154
113
226
418
72
464
150
449
91
121
396
96
149
300
56
78
311
364
183
442
163
20
18
467
487
254
320
140
152
489
135
286
409
106
412
234
283
474
166
98
232
60
294
231
7
160
126
178
47
353
357
212
249
31
370
184
338
335
49
290
38
15
473
176
458
59
10
245
196
42
41
188
45
371
12
95
35
405
365
341
206
298
16
434
292
137
252
165
348
68
465
437
342
120
463
164
247
250
139
116

>  <PUBCHEM_MMFF94_PARTIAL_CHARGES>  (1) 
30
1 0.49
10 0.08
13 -0.15
14 0.08
15 -0.15
16 -0.15
17 0.78
18 0.06
19 -0.14
2 -0.36
20 0.3
21 -0.15
22 -0.15
23 0.14
24 -0.15
25 -0.15
3 -0.23
34 0.15
35 0.15
36 0.15
4 -0.57
40 0.15
41 0.15
45 0.15
46 0.15
5 -0.5
6 -0.41
7 0.28
8 0.14
9 -0.14

>  <PUBCHEM_EFFECTIVE_ROTOR_COUNT>  (1) 
5.6

>  <PUBCHEM_PHARMACOPHORE_FEATURES>  (1) 
6
1 2 acceptor
1 4 acceptor
3 7 11 12 hydrophobe
5 2 7 8 9 10 rings
6 18 19 21 22 24 25 rings
6 9 10 13 14 15 16 rings

>  <PUBCHEM_HEAVY_ATOM_COUNT>  (1) 
25

>  <PUBCHEM_ATOM_DEF_STEREO_COUNT>  (1) 
0

>  <PUBCHEM_ATOM_UDEF_STEREO_COUNT>  (1) 
1

>  <PUBCHEM_BOND_DEF_STEREO_COUNT>  (1) 
0

>  <PUBCHEM_BOND_UDEF_STEREO_COUNT>  (1) 
0

>  <PUBCHEM_ISOTOPIC_ATOM_COUNT>  (1) 
0

>  <PUBCHEM_COMPONENT_COUNT>  (1) 
1

>  <PUBCHEM_CACTVS_TAUTO_COUNT>  (1) 
1

>  <PUBCHEM_CONFORMER_ID>  (1) 
0000A47C00000001

>  <PUBCHEM_MMFF94_ENERGY>  (1) 
90.1766

>  <PUBCHEM_FEATURE_SELFOVERLAP>  (1) 
30.547

>  <PUBCHEM_SHAPE_FINGERPRINT>  (1) 
10165383 225 17608109580158399581
10366900 7 18261685864450159218
10498660 4 18040149600285974869
11221954 11 18410005537645217680
11595378 159 16877941663462951923
12363563 72 12894483560853493575
12633257 1 18190175689742317728
13122387 1 18337388227833340256
13224815 77 18113898255944617853
13402501 40 18337391672349379352
14223421 5 18410014372398174837
14251757 17 18412550881662935346
14279260 333 17764884494031470774
14466204 15 18409722938247133418
14713325 29 16885587805362872836
18981168 100 18334005099210301090
19930381 70 17983292922143073937
20510252 161 18187366549698657691
21095088 737 18341314678614135813
21864079 5 18265890272487024721
221357 26 18342184349019135567
22749437 52 18337940259958789688
23227448 37 18339926996556580437
23557571 272 18115310106485040107
23559900 14 18408886251987965429
238 59 18129645504617189836
350125 39 18338812168399966427
35225 105 16660373609688847369
460360 51 18041837303574918386
469060 322 17551776445359434983
508706 21 18261949656956692253
5252454 2 17678745527178686557
5281201 14 18272379650338776574
6049 1 18336561502600448978
6287921 2 18266470982008980420
7226269 152 18046626703638509682
7399639 24 18126565858442373578
9709674 26 18412823598826795756
9981440 41 17983546853489260544

>  <PUBCHEM_SHAPE_MULTIPOLES>  (1) 
489.88
8.51
3.71
1.84
1.36
1.27
-0.18
0.81
-1.69
0.37
0.85
-1.07
-0.19
2.45

>  <PUBCHEM_SHAPE_SELFOVERLAP>  (1) 
1040.319

>  <PUBCHEM_SHAPE_VOLUME>  (1) 
277.4

>  <PUBCHEM_COORDINATE_TYPE>  (1) 
2
5
10

$$$$
