42117
     RDKit          3D

 19 20  0  0  0  0  0  0  0  0999 V2000
    1.0817   -0.7546   -0.1357 N   0  0  0  0  0  0  0  0  0  0  0  0
    3.3687   -1.3258   -0.1311 N   0  0  0  0  0  0  0  0  0  0  0  0
   -0.0740   -0.1310    0.4857 C   0  0  0  0  0  0  0  0  0  0  0  0
   -0.2045    1.3322    0.1013 C   0  0  0  0  0  0  0  0  0  0  0  0
   -1.3543   -0.9055    0.2259 C   0  0  0  0  0  0  0  0  0  0  0  0
    2.2508   -0.6902    0.4282 C   0  0  0  0  0  0  0  0  0  0  0  0
   -0.7844    2.2113    0.9956 C   0  0  0  0  0  0  0  0  0  0  0  0
   -2.3633   -0.8684    1.1689 C   0  0  0  0  0  0  0  0  0  0  0  0
    0.2598    1.7454   -1.1326 C   0  0  0  0  0  0  0  0  0  0  0  0
   -1.4755   -1.6266   -0.9462 C   0  0  0  0  0  0  0  0  0  0  0  0
   -0.9047    3.5554    0.6424 C   0  0  0  0  0  0  0  0  0  0  0  0
   -3.5391   -1.5802    0.9305 C   0  0  0  0  0  0  0  0  0  0  0  0
    0.1397    3.0894   -1.4858 C   0  0  0  0  0  0  0  0  0  0  0  0
   -2.6512   -2.3383   -1.1847 C   0  0  0  0  0  0  0  0  0  0  0  0
    2.4464    0.0566    1.7445 C   0  0  0  0  0  0  0  0  0  0  0  0
   -0.4426    3.9944   -0.5983 C   0  0  0  0  0  0  0  0  0  0  0  0
   -3.6830   -2.3150   -0.2463 C   0  0  0  0  0  0  0  0  0  0  0  0
    3.2608   -2.0606   -1.3894 C   0  0  0  0  0  0  0  0  0  0  0  0
    4.6688   -1.3885    0.5270 C   0  0  0  0  0  0  0  0  0  0  0  0
  1  3  1  0
  1  6  2  0
  2  6  1  0
  2 18  1  0
  2 19  1  0
  3  4  1  0
  3  5  1  0
  4  7  2  0
  4  9  1  0
  5  8  2  0
  5 10  1  0
  6 15  1  0
  7 11  1  0
  8 12  1  0
  9 13  2  0
 10 14  2  0
 11 16  2  0
 12 17  2  0
 13 16  1  0
 14 17  1  0
M  END
>  <PUBCHEM_COMPOUND_CID>  (1) 
42117

>  <PUBCHEM_CONFORMER_RMSD>  (1) 
0.6

>  <PUBCHEM_CONFORMER_DIVERSEORDER>  (1) 
1
13
5
7
11
4
6
10
12
8
3
9
2

>  <PUBCHEM_MMFF94_PARTIAL_CHARGES>  (1) 
29
1 -0.7
10 -0.15
11 -0.15
12 -0.15
13 -0.15
14 -0.15
15 0.06
16 -0.15
17 -0.15
18 0.37
19 0.37
2 -0.79
21 0.15
22 0.15
23 0.15
24 0.15
28 0.15
29 0.15
3 0.53
30 0.15
31 0.15
32 0.15
33 0.15
4 -0.14
5 -0.14
6 0.44
7 -0.15
8 -0.15
9 -0.15

>  <PUBCHEM_EFFECTIVE_ROTOR_COUNT>  (1) 
4

>  <PUBCHEM_PHARMACOPHORE_FEATURES>  (1) 
3
3 1 2 6 cation
6 4 7 9 11 13 16 rings
6 5 8 10 12 14 17 rings

>  <PUBCHEM_HEAVY_ATOM_COUNT>  (1) 
19

>  <PUBCHEM_ATOM_DEF_STEREO_COUNT>  (1) 
0

>  <PUBCHEM_ATOM_UDEF_STEREO_COUNT>  (1) 
0

>  <PUBCHEM_BOND_DEF_STEREO_COUNT>  (1) 
0

>  <PUBCHEM_BOND_UDEF_STEREO_COUNT>  (1) 
0

>  <PUBCHEM_ISOTOPIC_ATOM_COUNT>  (1) 
0

>  <PUBCHEM_COMPONENT_COUNT>  (1) 
1

>  <PUBCHEM_CACTVS_TAUTO_COUNT>  (1) 
1

>  <PUBCHEM_CONFORMER_ID>  (1) 
0000A48500000001

>  <PUBCHEM_MMFF94_ENERGY>  (1) 
64.6789

>  <PUBCHEM_FEATURE_SELFOVERLAP>  (1) 
15.223

>  <PUBCHEM_SHAPE_FINGERPRINT>  (1) 
10165383 225 17260777061100781728
11101153 10 18261681454642047828
11265709 11 18409173228881241714
11322862 65 17909558254823674558
11833330 49 18335701589880941496
12553582 1 18339654428814852494
12643181 29 17404020324220814998
12707595 3 18041837445108690827
12714826 92 18200318693578903882
12788726 201 18116700825279581179
13004483 165 18410283696933887506
13134695 92 18267574896257458853
13681431 1 18190455163185218401
14181834 199 17830438832581415125
14955137 171 17907022029701904904
15842332 3 17627245781656666507
17357779 13 18270943687931010807
17539 30 18265884783302302493
1813 80 18338807796160591574
20361792 2 18336261335752116015
20559304 39 17912087449774999371
20600515 1 17896579851655766752
20711985 344 18190729856535182474
21041028 32 18335995241490668233
21202864 24 18124325908227082945
21304303 282 17179069143615528164
21524375 3 17471004783415575192
22112679 90 18193022406909011476
2255824 54 17762902469101440997
22907989 373 18265624173477260828
23402539 116 18334853914172561882
23419403 2 18126536098561225465
23557571 272 18409725149912534910
25 1 17187028903537103573
4175511 71 18338808913157803227
6442390 28 17691975855933004433
6786 2 17403468368395882861
6992083 37 18202013143976288707
7364860 26 17979073022148128225
7615 1 17770788111331461475
81228 2 18263919956007707417
9925002 15 18190198826889936300

>  <PUBCHEM_SHAPE_MULTIPOLES>  (1) 
381.05
5.87
4.59
1.45
2.76
5.78
-0.05
-8.03
0.7
-0.85
-1.38
0.2
0.1
-0.2

>  <PUBCHEM_SHAPE_SELFOVERLAP>  (1) 
800.726

>  <PUBCHEM_SHAPE_VOLUME>  (1) 
214.7

>  <PUBCHEM_COORDINATE_TYPE>  (1) 
2
5
10

$$$$
