42116
     RDKit          3D

 12 12  0  0  0  0  0  0  0  0999 V2000
    4.2863   -0.7993    0.7121 Cl  0  0  0  0  0  0  0  0  0  0  0  0
   -2.8392   -1.3203   -0.5078 O   0  0  0  0  0  0  0  0  0  0  0  0
   -2.1821    0.8287    0.0901 N   0  0  0  0  0  0  0  0  0  0  0  0
   -1.1830    1.0201   -0.9625 C   0  0  0  0  0  0  0  0  0  0  0  0
    0.1757    0.5678   -0.5450 C   0  0  0  0  0  0  0  0  0  0  0  0
    1.0486    1.4617    0.0751 C   0  0  0  0  0  0  0  0  0  0  0  0
    0.5737   -0.7490   -0.7759 C   0  0  0  0  0  0  0  0  0  0  0  0
    2.3196    1.0388    0.4641 C   0  0  0  0  0  0  0  0  0  0  0  0
    1.8447   -1.1719   -0.3867 C   0  0  0  0  0  0  0  0  0  0  0  0
    2.7176   -0.2780    0.2333 C   0  0  0  0  0  0  0  0  0  0  0  0
   -2.9136   -0.3281    0.2123 C   0  0  0  0  0  0  0  0  0  0  0  0
   -3.8481   -0.2706    1.3909 C   0  0  0  0  0  0  0  0  0  0  0  0
  1 10  1  0
  2 11  2  0
  3  4  1  0
  3 11  1  0
  4  5  1  0
  5  6  2  0
  5  7  1  0
  6  8  1  0
  7  9  2  0
  8 10  2  0
  9 10  1  0
 11 12  1  0
M  END
>  <PUBCHEM_COMPOUND_CID>  (1) 
42116

>  <PUBCHEM_CONFORMER_RMSD>  (1) 
0.6

>  <PUBCHEM_CONFORMER_DIVERSEORDER>  (1) 
1
5
2
3
4

>  <PUBCHEM_MMFF94_PARTIAL_CHARGES>  (1) 
17
1 -0.18
10 0.18
11 0.57
12 0.06
15 0.15
16 0.15
17 0.37
18 0.15
19 0.15
2 -0.57
3 -0.73
4 0.44
5 -0.14
6 -0.15
7 -0.15
8 -0.15
9 -0.15

>  <PUBCHEM_EFFECTIVE_ROTOR_COUNT>  (1) 
3

>  <PUBCHEM_PHARMACOPHORE_FEATURES>  (1) 
3
1 2 acceptor
1 3 donor
6 5 6 7 8 9 10 rings

>  <PUBCHEM_HEAVY_ATOM_COUNT>  (1) 
12

>  <PUBCHEM_ATOM_DEF_STEREO_COUNT>  (1) 
0

>  <PUBCHEM_ATOM_UDEF_STEREO_COUNT>  (1) 
0

>  <PUBCHEM_BOND_DEF_STEREO_COUNT>  (1) 
0

>  <PUBCHEM_BOND_UDEF_STEREO_COUNT>  (1) 
0

>  <PUBCHEM_ISOTOPIC_ATOM_COUNT>  (1) 
0

>  <PUBCHEM_COMPONENT_COUNT>  (1) 
1

>  <PUBCHEM_CACTVS_TAUTO_COUNT>  (1) 
2

>  <PUBCHEM_CONFORMER_ID>  (1) 
0000A48400000001

>  <PUBCHEM_MMFF94_ENERGY>  (1) 
20.665

>  <PUBCHEM_FEATURE_SELFOVERLAP>  (1) 
15.223

>  <PUBCHEM_SHAPE_FINGERPRINT>  (1) 
10857977 72 18409157792842626484
11132069 177 18343294864564094478
11471102 22 18341617005466904402
11543360 7 15791740680840797262
11769659 78 17023735703042170002
12032990 46 18340767032014188318
12251169 10 18273218594890222771
12382932 28 18060145349056099003
12696612 119 18343023315045873348
12932764 1 18411985775493649453
13296908 3 17603866736685847333
13705890 14 15574720200799511386
14252887 29 18272092652234505066
15375462 189 18334292041939161082
15501101 241 18409729594739638100
16945 1 18131339787853858220
17844478 74 18335416842350161044
18186145 218 11167673113032615784
200 152 17845353557984194453
20201158 50 18409165489455721323
20279233 1 18411133602537292221
20281407 28 18113618967058755446
20361792 2 16878228644824905125
20671657 53 15574715776977967470
20767249 442 14261360111404403121
20871998 22 18198912418122277222
21061003 4 18342731901636275808
21256008 61 14201404897508788030
22926399 65 11959728270052957042
231179 274 13110965297113112258
23402539 116 16009025030708290902
25 1 9655582928109065132
2748010 2 17769647604029485180
305870 269 14189301421654189557

>  <PUBCHEM_SHAPE_MULTIPOLES>  (1) 
237.97
6.79
1.4
1.03
0.93
0.16
-0.12
-2.4
-2.83
-0.22
0.11
0.46
-0.08
0.16

>  <PUBCHEM_SHAPE_SELFOVERLAP>  (1) 
476.544

>  <PUBCHEM_SHAPE_VOLUME>  (1) 
141.1

>  <PUBCHEM_COORDINATE_TYPE>  (1) 
2
5
10

$$$$
