42118
     RDKit          3D

 16 16  0  0  0  0  0  0  0  0999 V2000
    1.5106    1.4312    0.5711 O   0  0  0  0  0  0  0  0  0  0  0  0
    0.2825   -2.3656   -0.5399 O   0  0  0  0  0  0  0  0  0  0  0  0
   -0.1154   -0.2042    0.2860 N   0  0  0  0  0  0  0  0  0  0  0  0
    2.2113   -0.5571   -0.2479 N   0  0  0  0  0  0  0  0  0  0  0  0
   -1.0920    0.7704    0.7990 C   0  0  0  0  0  0  0  0  0  0  0  0
   -1.7096    1.6146   -0.3109 C   0  0  0  0  0  0  0  0  0  0  0  0
   -1.9853   -1.8707    0.0248 C   0  0  0  0  0  0  0  0  0  0  0  0
   -0.4963   -1.5108   -0.1036 C   0  0  0  0  0  0  0  0  0  0  0  0
   -2.7052    2.6478    0.2212 C   0  0  0  0  0  0  0  0  0  0  0  0
    1.2561    0.1795    0.1781 C   0  0  0  0  0  0  0  0  0  0  0  0
   -2.2453   -2.5003    1.3933 C   0  0  0  0  0  0  0  0  0  0  0  0
   -2.4131   -2.8443   -1.0776 C   0  0  0  0  0  0  0  0  0  0  0  0
   -3.2588    3.5138   -0.8997 C   0  0  0  0  0  0  0  0  0  0  0  0
    3.2753    0.3009   -0.1354 C   0  0  0  0  0  0  0  0  0  0  0  0
    2.8542    1.5093    0.3614 C   0  0  0  0  0  0  0  0  0  0  0  0
    4.6310   -0.1145   -0.5199 C   0  0  0  0  0  0  0  0  0  0  0  0
  1 10  1  0
  1 15  1  0
  2  8  2  0
  3  5  1  0
  3  8  1  0
  3 10  1  0
  4 10  2  0
  4 14  1  0
  5  6  1  0
  6  9  1  0
  7  8  1  0
  7 11  1  0
  7 12  1  0
  9 13  1  0
 14 15  2  0
 14 16  1  0
M  END
>  <PUBCHEM_COMPOUND_CID>  (1) 
42118

>  <PUBCHEM_CONFORMER_RMSD>  (1) 
0.8

>  <PUBCHEM_CONFORMER_DIVERSEORDER>  (1) 
1
18
17
38
30
27
19
9
29
4
7
34
23
24
28
26
20
36
12
35
13
15
22
21
31
11
14
5
33
32
10
37
3
2
8
16
6
25

>  <PUBCHEM_MMFF94_PARTIAL_CHARGES>  (1) 
12
1 -0.28
10 0.54
14 0.05
15 -0.01
16 0.18
2 -0.57
3 -0.42
33 0.15
4 -0.57
5 0.3
7 0.06
8 0.57

>  <PUBCHEM_EFFECTIVE_ROTOR_COUNT>  (1) 
6

>  <PUBCHEM_PHARMACOPHORE_FEATURES>  (1) 
4
1 13 hydrophobe
1 2 acceptor
3 7 11 12 hydrophobe
5 1 4 10 14 15 rings

>  <PUBCHEM_HEAVY_ATOM_COUNT>  (1) 
16

>  <PUBCHEM_ATOM_DEF_STEREO_COUNT>  (1) 
0

>  <PUBCHEM_ATOM_UDEF_STEREO_COUNT>  (1) 
0

>  <PUBCHEM_BOND_DEF_STEREO_COUNT>  (1) 
0

>  <PUBCHEM_BOND_UDEF_STEREO_COUNT>  (1) 
0

>  <PUBCHEM_ISOTOPIC_ATOM_COUNT>  (1) 
0

>  <PUBCHEM_COMPONENT_COUNT>  (1) 
1

>  <PUBCHEM_CACTVS_TAUTO_COUNT>  (1) 
1

>  <PUBCHEM_CONFORMER_ID>  (1) 
0000A48600000001

>  <PUBCHEM_MMFF94_ENERGY>  (1) 
25.176

>  <PUBCHEM_FEATURE_SELFOVERLAP>  (1) 
20.297

>  <PUBCHEM_SHAPE_FINGERPRINT>  (1) 
11578080 2 17130410496977690681
12500047 106 18338796715492965052
12532896 13 18263363590518654111
12730499 353 17903081028237061977
16752209 62 18340476846448435258
16945 1 17981324804987757154
17539 30 18341321301442961911
20645477 70 17618494382153863765
20711985 344 18335971073430138387
20871999 31 18337966666171567244
21041028 32 17902244626225964363
21339142 126 18341335599278709843
21524375 3 18191300477432186393
2255824 54 17547564882423544605
23419403 2 13897914493727317519
23530152 11 18195802969052810229
23558518 356 18187929533858609160
23559900 14 18130228147955694006
25 1 18124876754968042345
2748010 2 18272658952198801872
298252 57 18190462653687564224
3060560 45 17905882587594619789
3084891 72 18053660274814819320
4175511 71 17832715947312398067
559249 180 18264486192445021074
6025842 7 17762607396939429181
68521 5 18337673139052458471
7364860 26 17474665053788747757
81228 2 18263635337479147425
81539 233 17901946336093911909
8272917 22 17620753882617148181

>  <PUBCHEM_SHAPE_MULTIPOLES>  (1) 
307.57
6.24
3.99
0.98
6.17
0.63
0.06
2.51
-1.06
-6.17
-0.69
-0.55
-0.33
0.76

>  <PUBCHEM_SHAPE_SELFOVERLAP>  (1) 
612.147

>  <PUBCHEM_SHAPE_VOLUME>  (1) 
183.1

>  <PUBCHEM_COORDINATE_TYPE>  (1) 
2
5
10

$$$$
