42111
     RDKit          3D

 26 28  0  0  0  0  0  0  0  0999 V2000
    0.9759   -1.1695   -0.1171 O   0  0  0  0  0  0  0  0  0  0  0  0
   -0.2557    2.5122    1.5170 O   0  0  0  0  0  0  0  0  0  0  0  0
   -2.8784   -0.7549   -1.3228 O   0  0  0  0  0  0  0  0  0  0  0  0
    2.3731    2.0181    0.3714 N   0  0  0  0  0  0  0  0  0  0  0  0
   -1.0744    0.8618    0.0978 N   0  0  0  0  0  0  0  0  0  0  0  0
   -0.2721   -4.0371    1.8451 N   0  0  0  0  0  0  0  0  0  0  0  0
   -1.1292   -5.1130    1.4617 N   0  0  0  0  0  0  0  0  0  0  0  0
    3.1474    0.0211   -0.2528 C   0  0  0  0  0  0  0  0  0  0  0  0
    1.7493   -0.0781   -0.0073 C   0  0  0  0  0  0  0  0  0  0  0  0
    3.5134    1.3465   -0.0079 C   0  0  0  0  0  0  0  0  0  0  0  0
    1.3018    1.1655    0.3748 C   0  0  0  0  0  0  0  0  0  0  0  0
    4.1398   -0.8920   -0.6610 C   0  0  0  0  0  0  0  0  0  0  0  0
    4.8273    1.8060   -0.1515 C   0  0  0  0  0  0  0  0  0  0  0  0
   -0.0239    1.5689    0.7272 C   0  0  0  0  0  0  0  0  0  0  0  0
    0.8245   -2.0009    1.0435 C   0  0  0  0  0  0  0  0  0  0  0  0
    5.4583   -0.4466   -0.8087 C   0  0  0  0  0  0  0  0  0  0  0  0
    5.7945    0.8821   -0.5574 C   0  0  0  0  0  0  0  0  0  0  0  0
   -2.4756    1.0460    0.2106 C   0  0  0  0  0  0  0  0  0  0  0  0
   -0.1028   -3.1555    0.6997 C   0  0  0  0  0  0  0  0  0  0  0  0
   -3.3387    0.2323   -0.5032 C   0  0  0  0  0  0  0  0  0  0  0  0
   -2.9474    2.0477    1.0423 C   0  0  0  0  0  0  0  0  0  0  0  0
   -4.7148    0.4259   -0.3818 C   0  0  0  0  0  0  0  0  0  0  0  0
   -4.3236    2.2411    1.1634 C   0  0  0  0  0  0  0  0  0  0  0  0
   -5.2071    1.4304    0.4514 C   0  0  0  0  0  0  0  0  0  0  0  0
   -3.2319   -0.6688   -2.7014 C   0  0  0  0  0  0  0  0  0  0  0  0
   -2.1294   -1.2893   -3.5328 C   0  0  0  0  0  0  0  0  0  0  0  0
  1  9  1  0
  1 15  1  0
  2 14  2  0
  3 20  1  0
  3 25  1  0
  4 10  1  0
  4 11  1  0
  5 14  1  0
  5 18  1  0
  6  7  1  0
  6 19  1  0
  8  9  1  0
  8 10  2  0
  8 12  1  0
  9 11  2  0
 10 13  1  0
 11 14  1  0
 12 16  2  0
 13 17  2  0
 15 19  1  0
 16 17  1  0
 18 20  2  0
 18 21  1  0
 20 22  1  0
 21 23  2  0
 22 24  2  0
 23 24  1  0
 25 26  1  0
M  END
>  <PUBCHEM_COMPOUND_CID>  (1) 
42111

>  <PUBCHEM_CONFORMER_RMSD>  (1) 
1

>  <PUBCHEM_CONFORMER_DIVERSEORDER>  (1) 
1
9
19
18
21
10
13
8
11
14
2
12
3
16
15
17
20
5
22
6
7
4

>  <PUBCHEM_MMFF94_PARTIAL_CHARGES>  (1) 
37
1 -0.34
10 -0.15
11 -0.24
12 -0.15
13 -0.15
14 0.71
15 0.28
16 -0.15
17 -0.15
18 0.12
19 0.27
2 -0.57
20 0.08
21 -0.15
22 -0.15
23 -0.15
24 -0.15
25 0.28
27 0.27
28 0.15
29 0.15
3 -0.36
32 0.15
33 0.15
34 0.37
37 0.15
38 0.15
39 0.15
4 0.03
40 0.36
41 0.15
47 0.36
48 0.36
5 -0.55
6 -0.63
7 -0.72
9 0.06

>  <PUBCHEM_EFFECTIVE_ROTOR_COUNT>  (1) 
9

>  <PUBCHEM_PHARMACOPHORE_FEATURES>  (1) 
11
1 1 acceptor
1 2 acceptor
1 3 acceptor
1 4 cation
1 4 donor
1 5 donor
1 6 donor
1 7 donor
5 4 8 9 10 11 rings
6 18 20 21 22 23 24 rings
6 8 10 12 13 16 17 rings

>  <PUBCHEM_HEAVY_ATOM_COUNT>  (1) 
26

>  <PUBCHEM_ATOM_DEF_STEREO_COUNT>  (1) 
0

>  <PUBCHEM_ATOM_UDEF_STEREO_COUNT>  (1) 
0

>  <PUBCHEM_BOND_DEF_STEREO_COUNT>  (1) 
0

>  <PUBCHEM_BOND_UDEF_STEREO_COUNT>  (1) 
0

>  <PUBCHEM_ISOTOPIC_ATOM_COUNT>  (1) 
0

>  <PUBCHEM_COMPONENT_COUNT>  (1) 
1

>  <PUBCHEM_CACTVS_TAUTO_COUNT>  (1) 
5

>  <PUBCHEM_CONFORMER_ID>  (1) 
0000A47F00000001

>  <PUBCHEM_MMFF94_ENERGY>  (1) 
71.9811

>  <PUBCHEM_FEATURE_SELFOVERLAP>  (1) 
57.233

>  <PUBCHEM_SHAPE_FINGERPRINT>  (1) 
1100329 8 18262516975520056154
12236239 1 18272937093938603620
12788726 201 17988652835412963584
13540713 4 18127144185306934384
14279260 333 18342738490765351038
16993438 75 18196094563105105566
19319366 153 18339080376555158611
20028762 73 18126003767820281202
20511986 3 18200300031386989480
21033648 144 18044087085144774252
21033650 10 17699885897713958188
21267235 1 18059863865611260145
21421861 104 17905054655206977529
23402539 116 18343021090880723788
23559900 14 17060044969657360136
3380486 145 17117756389500410466
34934 24 18201440216755783793
4073 2 18339083804587868248
4409770 3 15746949162290138769
469060 322 16443624726717072359
59755656 520 18261115170976411494
633830 44 18410854360912043860

>  <PUBCHEM_SHAPE_MULTIPOLES>  (1) 
497.54
11.07
3.94
1.99
5.81
5.9
1.84
-6.23
3.02
-1.5
-3.29
-2.37
1.85
-1.36

>  <PUBCHEM_SHAPE_SELFOVERLAP>  (1) 
1066.086

>  <PUBCHEM_SHAPE_VOLUME>  (1) 
275.4

>  <PUBCHEM_COORDINATE_TYPE>  (1) 
2
5
10

$$$$
