42114
     RDKit          3D

 21 23  0  0  0  0  0  0  0  0999 V2000
   -3.0778    1.5239   -1.9080 Cl  0  0  0  0  0  0  0  0  0  0  0  0
    1.9992   -3.2646    0.5373 O   0  0  0  0  0  0  0  0  0  0  0  0
    0.7390   -3.2379   -1.3542 O   0  0  0  0  0  0  0  0  0  0  0  0
    2.3946   -0.4893    0.2638 N   0  0  0  0  0  0  0  0  0  0  0  0
    0.4091   -0.2626   -0.7023 C   0  0  0  0  0  0  0  0  0  0  0  0
    0.8864    1.0328   -0.3574 C   0  0  0  0  0  0  0  0  0  0  0  0
    2.1338    0.8624    0.2473 C   0  0  0  0  0  0  0  0  0  0  0  0
    1.3580   -1.1774   -0.3078 C   0  0  0  0  0  0  0  0  0  0  0  0
   -0.8780   -0.5662   -1.3643 C   0  0  0  0  0  0  0  0  0  0  0  0
    0.3757    2.3380   -0.5020 C   0  0  0  0  0  0  0  0  0  0  0  0
   -1.9677   -0.3981   -0.3260 C   0  0  0  0  0  0  0  0  0  0  0  0
    2.8987    1.9361    0.7164 C   0  0  0  0  0  0  0  0  0  0  0  0
    3.5928   -1.0951    0.8078 C   0  0  0  0  0  0  0  0  0  0  0  0
    1.3173   -2.6023   -0.4489 C   0  0  0  0  0  0  0  0  0  0  0  0
    1.1298    3.4216   -0.0375 C   0  0  0  0  0  0  0  0  0  0  0  0
    2.3716    3.2215    0.5620 C   0  0  0  0  0  0  0  0  0  0  0  0
   -2.9864    0.5223   -0.5054 C   0  0  0  0  0  0  0  0  0  0  0  0
   -1.9063   -1.1964    0.8048 C   0  0  0  0  0  0  0  0  0  0  0  0
   -3.9723    0.6486    0.4731 C   0  0  0  0  0  0  0  0  0  0  0  0
   -2.8923   -1.0699    1.7834 C   0  0  0  0  0  0  0  0  0  0  0  0
   -3.9253   -0.1474    1.6177 C   0  0  0  0  0  0  0  0  0  0  0  0
  1 17  1  0
  2 14  1  0
  3 14  2  0
  4  7  1  0
  4  8  1  0
  4 13  1  0
  5  6  1  0
  5  8  2  0
  5  9  1  0
  6  7  2  0
  6 10  1  0
  7 12  1  0
  8 14  1  0
  9 11  1  0
 10 15  2  0
 11 17  2  0
 11 18  1  0
 12 16  2  0
 15 16  1  0
 17 19  1  0
 18 20  2  0
 19 21  2  0
 20 21  1  0
M  END
>  <PUBCHEM_COMPOUND_CID>  (1) 
42114

>  <PUBCHEM_CONFORMER_RMSD>  (1) 
0.6

>  <PUBCHEM_CONFORMER_DIVERSEORDER>  (1) 
1
20
7
21
2
17
10
15
22
23
11
12
18
3
19
4
5
24
9
14
8
6
13
16

>  <PUBCHEM_MMFF94_PARTIAL_CHARGES>  (1) 
29
1 -0.18
10 -0.15
11 -0.14
12 -0.15
13 0.26
14 0.81
15 -0.15
16 -0.15
17 0.18
18 -0.15
19 -0.15
2 -0.65
20 -0.15
21 -0.15
24 0.15
25 0.15
29 0.15
3 -0.57
30 0.15
31 0.15
32 0.15
33 0.15
34 0.15
35 0.5
4 0.05
5 -0.18
7 -0.15
8 -0.24
9 0.32

>  <PUBCHEM_EFFECTIVE_ROTOR_COUNT>  (1) 
3

>  <PUBCHEM_PHARMACOPHORE_FEATURES>  (1) 
7
1 2 acceptor
1 3 acceptor
1 4 cation
3 2 3 14 anion
5 4 5 6 7 8 rings
6 11 17 18 19 20 21 rings
6 6 7 10 12 15 16 rings

>  <PUBCHEM_HEAVY_ATOM_COUNT>  (1) 
21

>  <PUBCHEM_ATOM_DEF_STEREO_COUNT>  (1) 
0

>  <PUBCHEM_ATOM_UDEF_STEREO_COUNT>  (1) 
0

>  <PUBCHEM_BOND_DEF_STEREO_COUNT>  (1) 
0

>  <PUBCHEM_BOND_UDEF_STEREO_COUNT>  (1) 
0

>  <PUBCHEM_ISOTOPIC_ATOM_COUNT>  (1) 
0

>  <PUBCHEM_COMPONENT_COUNT>  (1) 
1

>  <PUBCHEM_CACTVS_TAUTO_COUNT>  (1) 
1

>  <PUBCHEM_CONFORMER_ID>  (1) 
0000A48200000001

>  <PUBCHEM_MMFF94_ENERGY>  (1) 
56.3737

>  <PUBCHEM_FEATURE_SELFOVERLAP>  (1) 
35.67

>  <PUBCHEM_SHAPE_FINGERPRINT>  (1) 
10366900 7 18259995881061017687
10906281 52 18193832639989725916
11582403 64 16598086280323103669
11640471 11 17275387603559703489
11725454 13 17317562662114433167
12403259 327 17024282254583978505
12553582 1 18268429027745328726
12633257 1 18334304158178858627
12788726 201 17400077470256886658
13134695 92 18195237828349485655
13140716 1 18339920523460350480
14223421 5 18261116326364526305
14713325 29 17042620180448595412
14790565 3 18338524144321757660
14955137 171 18341066159148405286
15309172 13 18194964273355979837
16945 1 18343018848295430452
1813 80 17199694895141997094
18219364 16 18338510954007173645
19049666 15 18115304454418653533
19591789 44 18265052621152900332
20157964 124 18413109477237020945
20600515 1 17534055268799199022
20681677 76 18261946444832409293
20739085 24 18409739452080310344
21524375 3 17912649308347622612
21731228 192 18124321772199625601
21756936 100 17554340485174944248
23175994 123 18265900155027320871
2334 1 18195516215519062444
23419403 2 17466467189570307438
23526113 38 17972861584805263773
23558518 356 17764309835695909182
23559900 14 17822017523085532605
238 59 18121185853758293511
2748010 2 18336816572281734820
31174 14 18338254690820501099
3472631 163 15123505879115574649
350125 39 18051978309549636950
3797600 57 17342965916122836939
474 4 18270962452833050409
495365 180 18269538559621684793
57527306 92 15908312140362417417
81228 2 17401206673088174660

>  <PUBCHEM_SHAPE_MULTIPOLES>  (1) 
417.32
6.13
3.75
1.45
3.69
0.15
-0.05
-1.19
2.35
-3.64
-0.38
1.39
0.15
1.1

>  <PUBCHEM_SHAPE_SELFOVERLAP>  (1) 
915.447

>  <PUBCHEM_SHAPE_VOLUME>  (1) 
228.5

>  <PUBCHEM_COORDINATE_TYPE>  (1) 
2
5
10

$$$$
