4211
     RDKit          3D

 18 19  0  0  1  0  0  0  0  0999 V2000
    0.5311   -3.4877    0.0176 Cl  0  0  0  0  0  0  0  0  0  0  0  0
   -2.2541   -2.8230    0.4328 Cl  0  0  0  0  0  0  0  0  0  0  0  0
   -2.3723   -0.1497   -2.4626 Cl  0  0  0  0  0  0  0  0  0  0  0  0
    5.1888    1.3987    0.0393 Cl  0  0  0  0  0  0  0  0  0  0  0  0
   -0.3570   -0.8791   -0.2460 C   0  0  0  0  0  0  0  0  0  0  0  0
    1.0213   -0.3139   -0.1756 C   0  0  0  0  0  0  0  0  0  0  0  0
   -1.4188    0.1927    0.0691 C   0  0  0  0  0  0  0  0  0  0  0  0
   -0.5794   -2.1942    0.5785 C   0  0  0  0  0  0  0  0  0  0  0  0
    1.5362    0.4058   -1.2539 C   0  0  0  0  0  0  0  0  0  0  0  0
    1.7955   -0.5042    0.9690 C   0  0  0  0  0  0  0  0  0  0  0  0
   -2.3362    0.5501   -0.8851 C   0  0  0  0  0  0  0  0  0  0  0  0
   -1.3818    0.7451    1.3259 C   0  0  0  0  0  0  0  0  0  0  0  0
    2.8251    0.9348   -1.1878 C   0  0  0  0  0  0  0  0  0  0  0  0
    3.0843    0.0250    1.0352 C   0  0  0  0  0  0  0  0  0  0  0  0
   -3.2805    1.5251   -0.5635 C   0  0  0  0  0  0  0  0  0  0  0  0
   -2.3263    1.7200    1.6476 C   0  0  0  0  0  0  0  0  0  0  0  0
    3.5993    0.7444   -0.0432 C   0  0  0  0  0  0  0  0  0  0  0  0
   -3.2754    2.1101    0.7028 C   0  0  0  0  0  0  0  0  0  0  0  0
  1  8  1  0
  2  8  1  0
  3 11  1  0
  4 17  1  0
  5  6  1  0
  5  7  1  0
  5  8  1  0
  6  9  2  0
  6 10  1  0
  7 11  2  0
  7 12  1  0
  9 13  1  0
 10 14  2  0
 11 15  1  0
 12 16  2  0
 13 17  2  0
 14 17  1  0
 15 18  2  0
 16 18  1  0
M  END
>  <PUBCHEM_COMPOUND_CID>  (1) 
4211

>  <PUBCHEM_CONFORMER_RMSD>  (1) 
0.6

>  <PUBCHEM_CONFORMER_DIVERSEORDER>  (1) 
1
5
8
7
4
2
10
3
9
6

>  <PUBCHEM_MMFF94_PARTIAL_CHARGES>  (1) 
26
1 -0.29
10 -0.15
11 0.18
12 -0.15
13 -0.15
14 -0.15
15 -0.15
16 -0.15
17 0.18
18 -0.15
2 -0.29
21 0.15
22 0.15
23 0.15
24 0.15
25 0.15
26 0.15
27 0.15
28 0.15
3 -0.18
4 -0.18
5 0.29
6 -0.14
7 -0.14
8 0.58
9 -0.15

>  <PUBCHEM_EFFECTIVE_ROTOR_COUNT>  (1) 
3

>  <PUBCHEM_PHARMACOPHORE_FEATURES>  (1) 
2
6 6 9 10 13 14 17 rings
6 7 11 12 15 16 18 rings

>  <PUBCHEM_HEAVY_ATOM_COUNT>  (1) 
18

>  <PUBCHEM_ATOM_DEF_STEREO_COUNT>  (1) 
0

>  <PUBCHEM_ATOM_UDEF_STEREO_COUNT>  (1) 
1

>  <PUBCHEM_BOND_DEF_STEREO_COUNT>  (1) 
0

>  <PUBCHEM_BOND_UDEF_STEREO_COUNT>  (1) 
0

>  <PUBCHEM_ISOTOPIC_ATOM_COUNT>  (1) 
0

>  <PUBCHEM_COMPONENT_COUNT>  (1) 
1

>  <PUBCHEM_CACTVS_TAUTO_COUNT>  (1) 
1

>  <PUBCHEM_CONFORMER_ID>  (1) 
0000107300000001

>  <PUBCHEM_MMFF94_ENERGY>  (1) 
53.0115

>  <PUBCHEM_FEATURE_SELFOVERLAP>  (1) 
10.149

>  <PUBCHEM_SHAPE_FINGERPRINT>  (1) 
11578080 2 13240265751478944795
11640471 11 18127965317695698057
121448 382 18272362105091183114
12173636 292 18411706503624119380
12633257 1 15719689679082322741
12788726 201 18048895278787266590
13140716 1 18335144129159845714
13583140 156 17703497905348682930
13675066 3 16660359282231873988
13764800 53 18271538558160412803
14142880 1 18334013921490034125
14787075 74 18201154447212327129
15309172 13 18187368692317379117
15342168 16 18262523589463346661
15490181 8 18338230458124874331
15534591 1 18202285771098375021
15775835 57 18200309914180408745
16752209 62 18264761237106694234
16945 1 17274810334048180249
1741750 31 18410577305604334768
18186145 218 18268436741295485364
18981168 100 18266762227941285159
19765921 60 18200871760627571257
204376 136 18335986393409736512
20510252 161 18268715089530898754
20671657 1 18122634859338327222
20871999 31 16558738006503414173
21339142 149 18202281428844318805
21339142 36 18055346100965450383
21524375 3 18129665183946434265
21731228 192 18187374211455719858
2255824 54 17908707232998160843
22907989 373 18195811992594424806
2306618 200 18114176505559105831
23184049 59 17968933064129585866
23402539 116 18200590427131599790
23419403 2 17693640924970137903
23557571 272 18127417963068922980
23558518 356 18261119598893002322
23559900 14 18201165378268020870
283562 15 18191303994952893114
305870 269 18267307521278566152
4340502 62 18336552599924203817
474 4 18267862791867385504
59755656 520 18410862044418684086
633830 44 18271527485951053468
6992083 37 17967533510344549068
7364860 26 17981045206569103803
81228 2 18048617085197283619
84936 182 18055630616478313512
9981440 41 17917415567269939298

>  <PUBCHEM_SHAPE_MULTIPOLES>  (1) 
377.91
6.9
2.93
1.62
7.38
3.02
0.58
-4.99
0.17
-1.83
-0.72
-0.99
-0.43
-0.59

>  <PUBCHEM_SHAPE_SELFOVERLAP>  (1) 
769.69

>  <PUBCHEM_SHAPE_VOLUME>  (1) 
211.9

>  <PUBCHEM_COORDINATE_TYPE>  (1) 
2
5
10

$$$$
