4212
     RDKit          3D

 32 34  0  0  0  0  0  0  0  0999 V2000
   -2.6717    1.7820   -0.0134 O   0  0  0  0  0  0  0  0  0  0  0  0
    2.6714    1.7825    0.0118 O   0  0  0  0  0  0  0  0  0  0  0  0
   -2.7582    4.3322   -0.0141 O   0  0  0  0  0  0  0  0  0  0  0  0
    2.7575    4.3326    0.0161 O   0  0  0  0  0  0  0  0  0  0  0  0
   -9.3289   -3.8626    0.0368 O   0  0  0  0  0  0  0  0  0  0  0  0
    9.3293   -3.8621   -0.0309 O   0  0  0  0  0  0  0  0  0  0  0  0
   -2.8079   -0.8013   -0.0142 N   0  0  0  0  0  0  0  0  0  0  0  0
    2.8079   -0.8013    0.0117 N   0  0  0  0  0  0  0  0  0  0  0  0
   -5.7402   -3.0499   -0.0213 N   0  0  0  0  0  0  0  0  0  0  0  0
    5.7404   -3.0497    0.0223 N   0  0  0  0  0  0  0  0  0  0  0  0
   -0.6982    0.4966   -0.0048 C   0  0  0  0  0  0  0  0  0  0  0  0
    0.6983    0.4968    0.0012 C   0  0  0  0  0  0  0  0  0  0  0  0
   -1.3963   -0.7169   -0.0085 C   0  0  0  0  0  0  0  0  0  0  0  0
    1.3966   -0.7167    0.0038 C   0  0  0  0  0  0  0  0  0  0  0  0
   -0.6984    3.0428   -0.0032 C   0  0  0  0  0  0  0  0  0  0  0  0
    0.6981    3.0429    0.0033 C   0  0  0  0  0  0  0  0  0  0  0  0
   -1.4475    1.7697   -0.0072 C   0  0  0  0  0  0  0  0  0  0  0  0
    1.4474    1.7699    0.0055 C   0  0  0  0  0  0  0  0  0  0  0  0
   -0.6964   -1.9238   -0.0061 C   0  0  0  0  0  0  0  0  0  0  0  0
    0.6969   -1.9238    0.0001 C   0  0  0  0  0  0  0  0  0  0  0  0
   -3.5077   -2.0464   -0.0176 C   0  0  0  0  0  0  0  0  0  0  0  0
    3.5079   -2.0463    0.0156 C   0  0  0  0  0  0  0  0  0  0  0  0
   -1.3967    4.2563   -0.0057 C   0  0  0  0  0  0  0  0  0  0  0  0
    1.3962    4.2565    0.0078 C   0  0  0  0  0  0  0  0  0  0  0  0
   -5.0090   -1.7894    0.0096 C   0  0  0  0  0  0  0  0  0  0  0  0
    5.0092   -1.7892   -0.0092 C   0  0  0  0  0  0  0  0  0  0  0  0
   -0.6970    5.4632   -0.0015 C   0  0  0  0  0  0  0  0  0  0  0  0
    0.6964    5.4634    0.0053 C   0  0  0  0  0  0  0  0  0  0  0  0
   -7.1777   -2.8177   -0.0064 C   0  0  0  0  0  0  0  0  0  0  0  0
    7.1779   -2.8174    0.0096 C   0  0  0  0  0  0  0  0  0  0  0  0
   -7.9343   -4.1364    0.0052 C   0  0  0  0  0  0  0  0  0  0  0  0
    7.9347   -4.1361   -0.0013 C   0  0  0  0  0  0  0  0  0  0  0  0
  1 17  2  0
  2 18  2  0
  3 23  1  0
  4 24  1  0
  5 31  1  0
  6 32  1  0
  7 13  1  0
  7 21  1  0
  8 14  1  0
  8 22  1  0
  9 25  1  0
  9 29  1  0
 10 26  1  0
 10 30  1  0
 11 12  1  0
 11 13  2  0
 11 17  1  0
 12 14  2  0
 12 18  1  0
 13 19  1  0
 14 20  1  0
 15 16  2  0
 15 17  1  0
 15 23  1  0
 16 18  1  0
 16 24  1  0
 19 20  2  0
 21 25  1  0
 22 26  1  0
 23 27  2  0
 24 28  2  0
 27 28  1  0
 29 31  1  0
 30 32  1  0
M  END
>  <PUBCHEM_COMPOUND_CID>  (1) 
4212

>  <PUBCHEM_CONFORMER_RMSD>  (1) 
1.2

>  <PUBCHEM_CONFORMER_DIVERSEORDER>  (1) 
1
12
22
14
13
15
20
21
3
19
23
9
10
7
6
8
5
18
17
16
4
11
2

>  <PUBCHEM_MMFF94_PARTIAL_CHARGES>  (1) 
44
1 -0.57
10 -0.9
11 0.09
12 0.09
13 0.1
14 0.1
15 0.09
16 0.09
17 0.4
18 0.4
19 -0.15
2 -0.57
20 -0.15
21 0.37
22 0.37
23 0.08
24 0.08
25 0.27
26 0.27
27 -0.15
28 -0.15
29 0.27
3 -0.53
30 0.27
31 0.28
32 0.28
33 0.15
34 0.15
35 0.4
36 0.4
4 -0.53
45 0.15
46 0.15
47 0.36
48 0.36
5 -0.68
53 0.45
54 0.45
59 0.4
6 -0.68
60 0.4
7 -0.87
8 -0.87
9 -0.9

>  <PUBCHEM_EFFECTIVE_ROTOR_COUNT>  (1) 
12

>  <PUBCHEM_PHARMACOPHORE_FEATURES>  (1) 
19
1 1 acceptor
1 10 cation
1 10 donor
1 2 acceptor
1 3 donor
1 4 donor
1 5 acceptor
1 5 donor
1 6 acceptor
1 6 donor
1 7 cation
1 7 donor
1 8 cation
1 8 donor
1 9 cation
1 9 donor
6 11 12 13 14 19 20 rings
6 11 12 15 16 17 18 rings
6 15 16 23 24 27 28 rings

>  <PUBCHEM_HEAVY_ATOM_COUNT>  (1) 
32

>  <PUBCHEM_ATOM_DEF_STEREO_COUNT>  (1) 
0

>  <PUBCHEM_ATOM_UDEF_STEREO_COUNT>  (1) 
0

>  <PUBCHEM_BOND_DEF_STEREO_COUNT>  (1) 
0

>  <PUBCHEM_BOND_UDEF_STEREO_COUNT>  (1) 
0

>  <PUBCHEM_ISOTOPIC_ATOM_COUNT>  (1) 
0

>  <PUBCHEM_COMPONENT_COUNT>  (1) 
1

>  <PUBCHEM_CACTVS_TAUTO_COUNT>  (1) 
90

>  <PUBCHEM_CONFORMER_ID>  (1) 
0000107400000001

>  <PUBCHEM_MMFF94_ENERGY>  (1) 
94.2072

>  <PUBCHEM_FEATURE_SELFOVERLAP>  (1) 
96.472

>  <PUBCHEM_SHAPE_FINGERPRINT>  (1) 
10411042 1 18410856559640257287
1100329 8 18337955571971049457
11672396 167 18269268123614031727
13140716 1 18411700941631376449
13248334 5 18050286161043882336
13692115 27 18201167580816409166
13785724 45 18410853300034172203
138480 1 14880032922783928580
13911987 19 17540804002193497308
14114211 68 17753623638829875381
15483637 11 18409444818173293165
15773216 30 18119533377960338868
15876981 60 18190469268575036124
16087824 20 18122624947651502277
16992752 21 18338242570618555526
19301679 30 18410001140369184738
20771845 65 18343303707944020379
21133410 32 16082523070372128314
21927370 108 18410866434223985827
22311459 1 18122624955180464524
22899556 105 18337968856652458862
23523766 6 18334859454094467390
25242607 90 18341886415739394202
255183 451 18342464776066264687
44280117 145 18266742377800338198
6700243 42 17843151154742647838
70251023 43 18408603686316707739
77188 2 18410856594079019613
9981440 41 17255689594871289320

>  <PUBCHEM_SHAPE_MULTIPOLES>  (1) 
603.41
18.56
9.53
0.59
0.01
10.28
0
-51.52
0.03
0
0.01
0
0.01
0.05

>  <PUBCHEM_SHAPE_SELFOVERLAP>  (1) 
1284.824

>  <PUBCHEM_SHAPE_VOLUME>  (1) 
333.4

>  <PUBCHEM_COORDINATE_TYPE>  (1) 
2
5
10

$$$$
