42124
     RDKit          3D

 26 28  0  0  0  0  0  0  0  0999 V2000
    7.2319   -3.7125    0.7169 Cl  0  0  0  0  0  0  0  0  0  0  0  0
   -3.6267   -0.3330   -0.5575 O   0  0  0  0  0  0  0  0  0  0  0  0
   -0.8305    1.7626    0.1806 O   0  0  0  0  0  0  0  0  0  0  0  0
   -3.1280    0.9417    1.3013 O   0  0  0  0  0  0  0  0  0  0  0  0
   -7.7608   -0.8454   -0.1502 N   0  0  0  0  0  0  0  0  0  0  0  0
   -4.8467   -0.7478    0.0436 C   0  0  0  0  0  0  0  0  0  0  0  0
   -5.5675   -1.7021   -0.9033 C   0  0  0  0  0  0  0  0  0  0  0  0
   -5.7230    0.4663    0.3378 C   0  0  0  0  0  0  0  0  0  0  0  0
   -6.9599   -2.0561   -0.3825 C   0  0  0  0  0  0  0  0  0  0  0  0
   -7.1104    0.0457    0.8211 C   0  0  0  0  0  0  0  0  0  0  0  0
   -9.1057   -1.2007    0.3020 C   0  0  0  0  0  0  0  0  0  0  0  0
   -2.8546    0.5197    0.1859 C   0  0  0  0  0  0  0  0  0  0  0  0
   -1.6072    0.8629   -0.5849 C   0  0  0  0  0  0  0  0  0  0  0  0
    4.7607    1.6067   -0.5582 C   0  0  0  0  0  0  0  0  0  0  0  0
    3.2829    1.6484   -0.3630 C   0  0  0  0  0  0  0  0  0  0  0  0
    0.5311    1.7239    0.0001 C   0  0  0  0  0  0  0  0  0  0  0  0
    5.3860    0.2641   -0.2368 C   0  0  0  0  0  0  0  0  0  0  0  0
    2.7526    2.0169    0.8732 C   0  0  0  0  0  0  0  0  0  0  0  0
    2.4310    1.3177   -1.4169 C   0  0  0  0  0  0  0  0  0  0  0  0
    1.3702    2.0548    1.0557 C   0  0  0  0  0  0  0  0  0  0  0  0
    1.0486    1.3558   -1.2345 C   0  0  0  0  0  0  0  0  0  0  0  0
    5.5028   -0.6817   -1.2389 C   0  0  0  0  0  0  0  0  0  0  0  0
    5.8235    0.0165    1.0516 C   0  0  0  0  0  0  0  0  0  0  0  0
    6.0771   -1.9178   -0.9425 C   0  0  0  0  0  0  0  0  0  0  0  0
    6.3979   -1.2197    1.3480 C   0  0  0  0  0  0  0  0  0  0  0  0
    6.5246   -2.1868    0.3510 C   0  0  0  0  0  0  0  0  0  0  0  0
  1 26  1  0
  2  6  1  0
  2 12  1  0
  3 13  1  0
  3 16  1  0
  4 12  2  0
  5  9  1  0
  5 10  1  0
  5 11  1  0
  6  7  1  0
  6  8  1  0
  7  9  1  0
  8 10  1  0
 12 13  1  0
 14 15  1  0
 14 17  1  0
 15 18  2  0
 15 19  1  0
 16 20  2  0
 16 21  1  0
 17 22  2  0
 17 23  1  0
 18 20  1  0
 19 21  2  0
 22 24  1  0
 23 25  2  0
 24 26  2  0
 25 26  1  0
M  END
>  <PUBCHEM_COMPOUND_CID>  (1) 
42124

>  <PUBCHEM_CONFORMER_RMSD>  (1) 
1

>  <PUBCHEM_CONFORMER_DIVERSEORDER>  (1) 
1
178
190
132
62
96
109
141
67
175
26
217
205
68
108
99
80
40
179
150
126
48
93
125
130
180
20
113
70
136
166
118
216
63
10
196
122
27
74
8
135
210
61
36
35
95
128
219
45
221
9
18
218
22
152
161
43
157
44
66
123
121
12
33
21
90
201
133
167
134
78
15
204
206
169
139
120
31
185
176
172
202
200
34
207
94
91
137
46
28
69
153
193
129
154
160
138
17
211
7
49
131
47
212
105
158
3
57
183
84
110
6
102
177
184
124
164
168
25
156
173
79
42
104
32
2
145
194
188
189
52
19
209
51
23
174
82
30
100
56
107
16
98
208
24
29
75
203
197
149
41
64
182
199
83
222
119
195
143
186
215
140
4
59
192
65
115
73
114
163
103
85
198
213
14
187
147
76
88
92
148
11
112
171
13
55
87
117
60
170
155
159
220
97
53
50
77
37
162
72
151
165
116
111
86
127
106
38
89
71
191
144
101
142
5
146
39
54
81
58
181
214

>  <PUBCHEM_MMFF94_PARTIAL_CHARGES>  (1) 
32
1 -0.18
10 0.27
11 0.27
12 0.66
13 0.34
14 0.29
15 -0.14
16 0.08
17 -0.14
18 -0.15
19 -0.15
2 -0.43
20 -0.15
21 -0.15
22 -0.15
23 -0.15
24 -0.15
25 -0.15
26 0.18
3 -0.36
4 -0.57
43 0.15
44 0.15
45 0.15
46 0.15
47 0.15
48 0.15
49 0.15
5 -0.81
50 0.15
6 0.28
9 0.27

>  <PUBCHEM_EFFECTIVE_ROTOR_COUNT>  (1) 
8.2

>  <PUBCHEM_PHARMACOPHORE_FEATURES>  (1) 
6
1 3 acceptor
1 4 acceptor
1 5 cation
6 15 16 18 19 20 21 rings
6 17 22 23 24 25 26 rings
6 5 6 7 8 9 10 rings

>  <PUBCHEM_HEAVY_ATOM_COUNT>  (1) 
26

>  <PUBCHEM_ATOM_DEF_STEREO_COUNT>  (1) 
0

>  <PUBCHEM_ATOM_UDEF_STEREO_COUNT>  (1) 
0

>  <PUBCHEM_BOND_DEF_STEREO_COUNT>  (1) 
0

>  <PUBCHEM_BOND_UDEF_STEREO_COUNT>  (1) 
0

>  <PUBCHEM_ISOTOPIC_ATOM_COUNT>  (1) 
0

>  <PUBCHEM_COMPONENT_COUNT>  (1) 
1

>  <PUBCHEM_CACTVS_TAUTO_COUNT>  (1) 
1

>  <PUBCHEM_CONFORMER_ID>  (1) 
0000A48C00000001

>  <PUBCHEM_MMFF94_ENERGY>  (1) 
61.7347

>  <PUBCHEM_FEATURE_SELFOVERLAP>  (1) 
30.453

>  <PUBCHEM_SHAPE_FINGERPRINT>  (1) 
10 15 15770058354010770552
10066227 49 18333732420960102739
10319688 67 15123504822532663639
10577160 183 18060409207063503207
11719270 70 17561090210826416015
125118 31 10159711191615002819
12539765 74 11314296231835314593
12664476 115 11887682775623548544
12717326 25 17968392199668531211
13008946 282 16701443701691557945
13533116 47 18409167736256698400
1361 4 18264771128368709294
13668630 136 17386006221830512625
13685833 64 18409729568917002172
13782708 43 18408601470034454965
13944108 23 9367334952348010394
14202775 3 18116155640715026235
14216079 64 18408603664968231039
14251757 52 9439405726484424782
14347332 77 18261108539278173588
14347424 109 17988640835026483456
14428016 167 18336261233211263658
14428016 204 11743831491317511706
14444916 359 17167867470224863955
14537116 161 13406793333152330038
14565420 104 12031794651747356812
14617042 71 9943807803136294507
14919807 6 17604415299057854437
15119646 104 18411422808344567007
15183329 4 18342465862771650195
15188451 53 18343301457391745312
15198563 99 16370991994019306717
15352257 5 18335421287657149543
15475509 35 18343293765727453472
15510800 12 18187091624800437434
155225 6 11023235768847056794
16993089 31 17531544169510794827
16994733 274 10447938252379114239
1754908 1 14836409164225210487
1768 124 18272087193357640838
18335252 114 7925916989589900336
18393751 57 11600009842977016981
19301679 30 18130511825612694228
1979834 28 16415487030350917300
19841028 212 18410009915008670666
20028762 73 18341896252021071270
20165401 70 18411696582725127510
2026 5 18041835100404915018
20771845 140 17203610372060142550
21130935 74 18340486793945789627
21344244 181 17894633664582741602
21344244 78 16200155404259511368
21641784 216 14201388357552646670
21792934 111 15769784550710626065
22224240 67 13398638255846841973
23522609 53 18123785081777661049
23569943 247 18336265644073982091
270888 7 10015278245475155298
2835820 83 18264488387263623378
29717793 49 17749391506852752308
328310 630 10737278035731434335
33532 11 18410011061485006191
3472631 163 8574422145849523488
34797466 226 16805603724172808468
397830 11 12823005482521287997
406291 66 18262232197977212818
4073 2 18052255390674687640
437795 160 14836118897824647095
439807 62 18334859411213417726
4403749 210 11743833678263383237
444735 82 10087648104208720395
465052 167 18273216404826537580
474113 269 18343293743899377591
5085150 59 17704356589328040975
5104073 3 16486400144020722453
5372103 7 14346945105133094278
54076057 255 7997971254036755055
5718773 13 18410571781854476774
5758199 1 11095888168383428093
59682541 52 15068617167888225408
6081469 158 18335698356762306029
6438161 24 18334572451763689874
6712543 237 16630525124522053655
96874 4 18412541003022441510

>  <PUBCHEM_SHAPE_MULTIPOLES>  (1) 
514.35
27.11
2.98
1.23
33.75
1.78
-0.02
24.78
2.95
-5.34
0.29
-1.16
-0.1
-1.52

>  <PUBCHEM_SHAPE_SELFOVERLAP>  (1) 
1078.062

>  <PUBCHEM_SHAPE_VOLUME>  (1) 
290

>  <PUBCHEM_COORDINATE_TYPE>  (1) 
2
5
10

$$$$
