42122
     RDKit          3D

 21 22  0  0  0  0  0  0  0  0999 V2000
   -5.9291   -3.1958   -0.6518 Cl  0  0  0  0  0  0  0  0  0  0  0  0
    2.7380    1.2814   -0.2821 O   0  0  0  0  0  0  0  0  0  0  0  0
    5.2821   -1.1459    0.3704 O   0  0  0  0  0  0  0  0  0  0  0  0
    4.8978    0.1985   -1.4662 O   0  0  0  0  0  0  0  0  0  0  0  0
   -2.8111    1.7759    0.6089 C   0  0  0  0  0  0  0  0  0  0  0  0
   -1.3445    1.6453    0.3736 C   0  0  0  0  0  0  0  0  0  0  0  0
   -3.5992    0.5210    0.2909 C   0  0  0  0  0  0  0  0  0  0  0  0
   -0.8071    1.9655   -0.8730 C   0  0  0  0  0  0  0  0  0  0  0  0
   -0.5102    1.2029    1.4002 C   0  0  0  0  0  0  0  0  0  0  0  0
    1.3994    1.4007   -0.0667 C   0  0  0  0  0  0  0  0  0  0  0  0
    0.5648    1.8431   -1.0932 C   0  0  0  0  0  0  0  0  0  0  0  0
    0.8618    1.0806    1.1801 C   0  0  0  0  0  0  0  0  0  0  0  0
   -3.8010   -0.4178    1.2861 C   0  0  0  0  0  0  0  0  0  0  0  0
   -4.0969    0.3442   -0.9873 C   0  0  0  0  0  0  0  0  0  0  0  0
   -4.5254   -1.5733    0.9930 C   0  0  0  0  0  0  0  0  0  0  0  0
   -4.8214   -0.8112   -1.2805 C   0  0  0  0  0  0  0  0  0  0  0  0
   -5.0357   -1.7700   -0.2901 C   0  0  0  0  0  0  0  0  0  0  0  0
    3.4281    0.2770    0.4601 C   0  0  0  0  0  0  0  0  0  0  0  0
    4.6054   -0.2020   -0.3477 C   0  0  0  0  0  0  0  0  0  0  0  0
    6.4354   -1.6986   -0.2719 C   0  0  0  0  0  0  0  0  0  0  0  0
    7.0687   -2.7216    0.6471 C   0  0  0  0  0  0  0  0  0  0  0  0
  1 17  1  0
  2 10  1  0
  2 18  1  0
  3 19  1  0
  3 20  1  0
  4 19  2  0
  5  6  1  0
  5  7  1  0
  6  8  2  0
  6  9  1  0
  7 13  2  0
  7 14  1  0
  8 11  1  0
  9 12  2  0
 10 11  2  0
 10 12  1  0
 13 15  1  0
 14 16  2  0
 15 17  2  0
 16 17  1  0
 18 19  1  0
 20 21  1  0
M  END
>  <PUBCHEM_COMPOUND_CID>  (1) 
42122

>  <PUBCHEM_CONFORMER_RMSD>  (1) 
0.8

>  <PUBCHEM_CONFORMER_DIVERSEORDER>  (1) 
1
109
36
115
100
44
104
142
99
57
20
121
84
118
108
80
111
47
27
78
117
46
87
10
58
6
125
9
96
67
5
112
18
59
114
139
138
120
90
137
81
14
113
76
16
40
26
41
63
131
77
43
52
73
49
65
103
97
17
130
11
119
82
25
62
134
140
22
12
13
39
85
129
135
4
70
106
107
122
141
38
28
123
15
105
2
110
74
95
37
56
50
92
60
7
21
34
64
29
68
93
32
19
55
51
45
72
24
35
88
133
127
126
48
102
83
124
98
91
54
116
42
75
31
66
30
3
33
86
136
23
61
128
71
8
69
94
79
101
53
132
89

>  <PUBCHEM_MMFF94_PARTIAL_CHARGES>  (1) 
28
1 -0.18
10 0.08
11 -0.15
12 -0.15
13 -0.15
14 -0.15
15 -0.15
16 -0.15
17 0.18
18 0.34
19 0.66
2 -0.36
20 0.28
24 0.15
25 0.15
26 0.15
27 0.15
28 0.15
29 0.15
3 -0.43
30 0.15
31 0.15
4 -0.57
5 0.29
6 -0.14
7 -0.14
8 -0.15
9 -0.15

>  <PUBCHEM_EFFECTIVE_ROTOR_COUNT>  (1) 
7

>  <PUBCHEM_PHARMACOPHORE_FEATURES>  (1) 
4
1 2 acceptor
1 4 acceptor
6 6 8 9 10 11 12 rings
6 7 13 14 15 16 17 rings

>  <PUBCHEM_HEAVY_ATOM_COUNT>  (1) 
21

>  <PUBCHEM_ATOM_DEF_STEREO_COUNT>  (1) 
0

>  <PUBCHEM_ATOM_UDEF_STEREO_COUNT>  (1) 
0

>  <PUBCHEM_BOND_DEF_STEREO_COUNT>  (1) 
0

>  <PUBCHEM_BOND_UDEF_STEREO_COUNT>  (1) 
0

>  <PUBCHEM_ISOTOPIC_ATOM_COUNT>  (1) 
0

>  <PUBCHEM_COMPONENT_COUNT>  (1) 
1

>  <PUBCHEM_CACTVS_TAUTO_COUNT>  (1) 
1

>  <PUBCHEM_CONFORMER_ID>  (1) 
0000A48A00000001

>  <PUBCHEM_MMFF94_ENERGY>  (1) 
50.3924

>  <PUBCHEM_FEATURE_SELFOVERLAP>  (1) 
20.304

>  <PUBCHEM_SHAPE_FINGERPRINT>  (1) 
10 15 11527946777039360791
10074138 170 16771280071929989728
105312 117 13118008798602282304
11796584 16 18271527498551319789
11809386 21 18341613690042302257
12390115 104 9799687125411388648
12596602 18 13110962015694873022
12633257 1 15625666158309474981
12895837 130 8142083169949099315
13167372 99 9727628394140582886
13782708 43 18341048520065743938
14211702 104 18200318710922563550
14251751 18 18342737403853021690
14251764 30 18411415137406635742
14848178 5 18413105073808859126
14931854 50 17821997736398761259
14951699 99 11312053283901486810
15183329 4 16153422835889874842
15188451 53 17988917860089650708
15209294 21 11600007634946998145
15510800 12 18130795542145927663
15519825 34 14404610100199849871
17780758 139 17418379069271751169
17870717 6 17676201403754529467
193927 3 18343031007416651021
19784866 240 18340770468251554775
20028762 73 18412543181251706414
20398071 356 18340212907802296466
20567600 247 18407759223143384914
21401589 2 11024106560026712293
21585483 132 17896026673281588786
21637258 2 18272082790767897892
22393880 68 17676474086664432661
23379529 103 17825398641700716411
23402539 116 17894918373691145020
23522609 53 18052012269703949368
23559900 14 18339071687831706793
25122255 55 18341619174694804038
270888 7 8430333333057263615
2748736 6 8718830855795121446
2838139 119 11530762647640165158
312425 54 17131564829426068490
316301 35 18129094696330865155
3472631 163 8069761680293216371
4015057 19 17531827825983172908
4259306 186 18260548917929167960
484985 159 18343866607101365755
5104073 3 17632863048443253729
559249 180 18412263896697150049
5718773 13 18271801393507287527
6431902 208 18413107242878665606
7226269 152 8574709109314799470
76465 3 18413390959828103377
7970288 3 18268991067477348383
999808 66 16414372061351796412

>  <PUBCHEM_SHAPE_MULTIPOLES>  (1) 
416.43
16.97
2.99
1.31
19.93
1.87
-0.01
20.08
1.6
-0.77
0.14
-0.57
-0.16
-1.16

>  <PUBCHEM_SHAPE_SELFOVERLAP>  (1) 
865.956

>  <PUBCHEM_SHAPE_VOLUME>  (1) 
238.4

>  <PUBCHEM_COORDINATE_TYPE>  (1) 
2
5
10

$$$$
