42132
     RDKit          3D

 17 19  0  0  0  0  0  0  0  0999 V2000
    1.3138    2.9816    0.0009 Cl  0  0  0  0  0  0  0  0  0  0  0  0
   -4.1842    1.9138   -0.0012 Cl  0  0  0  0  0  0  0  0  0  0  0  0
   -4.8247   -1.2450    0.0014 Cl  0  0  0  0  0  0  0  0  0  0  0  0
    5.2788   -0.6945    0.0001 Cl  0  0  0  0  0  0  0  0  0  0  0  0
    0.2634   -1.8493    0.0000 O   0  0  0  0  0  0  0  0  0  0  0  0
   -0.5510    0.2604   -0.0001 C   0  0  0  0  0  0  0  0  0  0  0  0
    0.8730    0.3285   -0.0001 C   0  0  0  0  0  0  0  0  0  0  0  0
   -0.8700   -1.0940   -0.0001 C   0  0  0  0  0  0  0  0  0  0  0  0
    1.3197   -0.9892   -0.0002 C   0  0  0  0  0  0  0  0  0  0  0  0
   -1.6027    1.1953    0.0000 C   0  0  0  0  0  0  0  0  0  0  0  0
    1.8307    1.3594    0.0001 C   0  0  0  0  0  0  0  0  0  0  0  0
   -2.1726   -1.5904   -0.0001 C   0  0  0  0  0  0  0  0  0  0  0  0
    2.6634   -1.3592   -0.0004 C   0  0  0  0  0  0  0  0  0  0  0  0
   -2.9232    0.7259   -0.0003 C   0  0  0  0  0  0  0  0  0  0  0  0
    3.1898    1.0180    0.0002 C   0  0  0  0  0  0  0  0  0  0  0  0
   -3.2004   -0.6430   -0.0001 C   0  0  0  0  0  0  0  0  0  0  0  0
    3.5964   -0.3182   -0.0003 C   0  0  0  0  0  0  0  0  0  0  0  0
  1 11  1  0
  2 14  1  0
  3 16  1  0
  4 17  1  0
  5  8  1  0
  5  9  1  0
  6  7  1  0
  6  8  2  0
  6 10  1  0
  7  9  2  0
  7 11  1  0
  8 12  1  0
  9 13  1  0
 10 14  2  0
 11 15  2  0
 12 16  2  0
 13 17  2  0
 14 16  1  0
 15 17  1  0
M  END
>  <PUBCHEM_COMPOUND_CID>  (1) 
42132

>  <PUBCHEM_CONFORMER_RMSD>  (1) 
0.4

>  <PUBCHEM_CONFORMER_DIVERSEORDER>  (1) 
1

>  <PUBCHEM_MMFF94_PARTIAL_CHARGES>  (1) 
19
1 -0.18
10 -0.15
11 0.18
12 -0.15
13 -0.15
14 0.18
15 -0.15
16 0.18
17 0.18
18 0.15
19 0.15
2 -0.18
20 0.15
21 0.15
3 -0.18
4 -0.18
5 -0.28
8 0.14
9 0.14

>  <PUBCHEM_EFFECTIVE_ROTOR_COUNT>  (1) 
0

>  <PUBCHEM_PHARMACOPHORE_FEATURES>  (1) 
4
1 5 acceptor
5 5 6 7 8 9 rings
6 6 8 10 12 14 16 rings
6 7 9 11 13 15 17 rings

>  <PUBCHEM_HEAVY_ATOM_COUNT>  (1) 
17

>  <PUBCHEM_ATOM_DEF_STEREO_COUNT>  (1) 
0

>  <PUBCHEM_ATOM_UDEF_STEREO_COUNT>  (1) 
0

>  <PUBCHEM_BOND_DEF_STEREO_COUNT>  (1) 
0

>  <PUBCHEM_BOND_UDEF_STEREO_COUNT>  (1) 
0

>  <PUBCHEM_ISOTOPIC_ATOM_COUNT>  (1) 
0

>  <PUBCHEM_COMPONENT_COUNT>  (1) 
1

>  <PUBCHEM_CACTVS_TAUTO_COUNT>  (1) 
1

>  <PUBCHEM_CONFORMER_ID>  (1) 
0000A49400000001

>  <PUBCHEM_MMFF94_ENERGY>  (1) 
34.7243

>  <PUBCHEM_FEATURE_SELFOVERLAP>  (1) 
20.499

>  <PUBCHEM_SHAPE_FINGERPRINT>  (1) 
10062212 137 18411692175676672851
10366900 7 17530965795517091859
10608611 8 18410290341459225897
10967382 1 18410575127644432870
11132069 177 18411133606689983888
11471102 20 18338232768706029126
12032990 46 18411985741350188710
12236239 1 17967253070977286674
12251169 10 18410856585531127011
12403259 226 18337385032593852509
12403259 415 18343297089183282064
12403260 363 18339073891085820293
13140716 1 18410860987888670401
13288520 33 18412266129315188126
13862211 1 18410288108340164490
14144814 61 18410573985156752026
15042514 8 16030700492968340730
15196674 1 18410573993936850368
15442244 35 18410855460318280288
15536298 74 18342738563409892896
16945 1 18266740366568044646
17802600 8 18409444812669478573
17804303 29 18409451392538387516
18186145 218 18411981334444756717
18522853 276 18341893004513280464
200 152 18059852874515285855
20510252 161 18343586244083445713
20671657 1 18265338489533274532
21267235 1 18410864273412018438
21421861 104 17607802803740683106
21501502 16 18337674221041364653
221490 88 18264213684637045698
2334 1 18410855481613619236
23366157 5 17897722296183276012
23402539 116 18271518719785626204
23402655 69 18342172224558470205
23463225 33 18408603652099062358
23557571 272 18202570570153069079
23559900 14 18339635758406835289
25 1 18263077738817333511
2748010 2 18411698751329437060
3004659 81 18188215308825849742
3286 77 18335419109823725229
335352 9 18338797810255945269
34934 24 18337666395658411090
350125 39 18410296947314151425
3545911 37 18340206298074020025
4214541 1 18410855447654839969
474 4 17169277138046004716
5104073 3 18410573989483459600
69090 78 18271523190847022951
7364860 26 18269273641764979784
7832392 63 18411978057326629004
8809292 202 18188213211726586706
9709674 26 18411987983181166751
9981440 41 17328017084833562912

>  <PUBCHEM_SHAPE_MULTIPOLES>  (1) 
351.46
8.82
2.4
0.62
0.08
1.33
0
-1.33
0
-0.39
0
-0.01
0.02
0

>  <PUBCHEM_SHAPE_SELFOVERLAP>  (1) 
753.873

>  <PUBCHEM_SHAPE_VOLUME>  (1) 
200.2

>  <PUBCHEM_COORDINATE_TYPE>  (1) 
2
5
10

$$$$
