4213
     RDKit          3D

 18 19  0  0  1  0  0  0  0  0999 V2000
    1.7236   -0.8362    0.5888 O   0  0  0  0  0  0  0  0  0  0  0  0
    1.1913    2.6450   -0.0536 O   0  0  0  0  0  0  0  0  0  0  0  0
    3.6764    1.4014   -1.4249 O   0  0  0  0  0  0  0  0  0  0  0  0
    3.9919   -2.5013    0.6652 O   0  0  0  0  0  0  0  0  0  0  0  0
   -1.7623    1.4171    1.3508 O   0  0  0  0  0  0  0  0  0  0  0  0
   -4.5843    0.7108    0.6444 O   0  0  0  0  0  0  0  0  0  0  0  0
   -0.4874   -0.1354    0.1173 N   0  0  0  0  0  0  0  0  0  0  0  0
   -2.0546   -1.3234   -0.9187 N   0  0  0  0  0  0  0  0  0  0  0  0
   -4.8766   -1.0493   -0.7962 N   0  0  0  0  0  0  0  0  0  0  0  0
    1.4790    1.3090   -0.4280 C   0  0  0  0  0  0  0  0  0  0  0  0
    2.9511    0.9870   -0.2829 C   0  0  0  0  0  0  0  0  0  0  0  0
    0.8449    0.3041    0.5271 C   0  0  0  0  0  0  0  0  0  0  0  0
    2.9196   -0.5270   -0.1473 C   0  0  0  0  0  0  0  0  0  0  0  0
    4.1243   -1.0916    0.5840 C   0  0  0  0  0  0  0  0  0  0  0  0
   -1.6846    0.3955    0.5117 C   0  0  0  0  0  0  0  0  0  0  0  0
   -0.7617   -1.1649   -0.7414 C   0  0  0  0  0  0  0  0  0  0  0  0
   -2.6356   -0.3536   -0.1408 C   0  0  0  0  0  0  0  0  0  0  0  0
   -4.0549   -0.1872   -0.0554 C   0  0  0  0  0  0  0  0  0  0  0  0
  1 12  1  0
  1 13  1  0
  2 10  1  0
  3 11  1  0
  4 14  1  0
  5 15  1  0
  6 18  2  0
  7 12  1  0
  7 15  1  0
  7 16  1  0
  8 16  2  0
  8 17  1  0
  9 18  1  0
 10 11  1  0
 10 12  1  0
 11 13  1  0
 13 14  1  0
 15 17  2  0
 17 18  1  0
M  END
>  <PUBCHEM_COMPOUND_CID>  (1) 
4213

>  <PUBCHEM_CONFORMER_RMSD>  (1) 
0.6

>  <PUBCHEM_CONFORMER_DIVERSEORDER>  (1) 
1
273
371
280
399
341
119
390
237
69
382
141
192
255
360
396
320
232
166
92
100
117
206
388
160
361
40
147
395
370
136
350
116
50
392
215
366
191
333
98
367
7
171
400
306
293
374
213
30
332
169
155
340
20
287
101
278
57
85
354
338
334
271
49
220
78
164
393
335
212
26
346
279
202
56
376
193
368
36
148
284
379
163
285
296
39
151
238
97
378
342
149
260
176
262
54
51
8
140
165
204
372
168
187
222
373
91
189
295
387
71
384
190
225
38
343
177
115
289
199
178
336
294
301
138
15
305
13
248
142
274
185
184
323
281
129
10
52
363
182
316
322
337
72
357
268
110
308
18
259
179
143
63
344
19
339
349
347
356
243
261
106
14
89
352
251
188
385
223
283
162
45
5
205
146
134
397
375
81
288
244
170
25
241
299
207
27
198
108
359
358
79
364
158
200
68
43
216
377
231
302
83
277
112
22
314
312
256
196
247
28
139
66
21
122
345
304
224
227
167
90
242
228
9
313
233
74
42
62
84
321
208
246
37
87
348
201
130
103
355
211
329
174
24
290
330
102
44
318
258
245
131
197
94
351
263
132
61
159
235
253
236
391
327
210
128
175
214
121
365
64
82
250
48
315
11
221
35
181
310
33
217
394
276
55
325
326
126
386
31
6
257
331
53
270
230
107
266
226
80
12
303
46
60
398
95
195
254
76
86
353
124
383
70
16
58
152
135
41
144
297
369
29
75
111
252
275
77
150
3
317
34
172
180
381
127
186
105
32
73
153
157
319
23
93
209
328
265
219
67
133
311
291
249
88
292
156
183
239
17
272
380
161
203
282
389
118
267
298
114
2
309
173
154
4
229
286
137
194
240
120
109
145
59
96
264
218
123
324
47
362
99
269
125
113
300
234
104
307
65

>  <PUBCHEM_MMFF94_PARTIAL_CHARGES>  (1) 
25
1 -0.56
10 0.28
11 0.28
12 0.54
13 0.28
14 0.28
15 -0.09
16 0.04
17 0.14
18 0.72
2 -0.68
25 0.4
26 0.4
27 0.15
28 0.4
29 0.45
3 -0.68
30 0.37
31 0.37
4 -0.68
5 -0.51
6 -0.57
7 0.05
8 -0.57
9 -0.8

>  <PUBCHEM_EFFECTIVE_ROTOR_COUNT>  (1) 
4

>  <PUBCHEM_PHARMACOPHORE_FEATURES>  (1) 
13
1 1 acceptor
1 2 acceptor
1 2 donor
1 3 acceptor
1 3 donor
1 4 acceptor
1 4 donor
1 5 donor
1 6 acceptor
1 9 donor
3 7 8 16 cation
5 1 10 11 12 13 rings
5 7 8 15 16 17 rings

>  <PUBCHEM_HEAVY_ATOM_COUNT>  (1) 
18

>  <PUBCHEM_ATOM_DEF_STEREO_COUNT>  (1) 
0

>  <PUBCHEM_ATOM_UDEF_STEREO_COUNT>  (1) 
4

>  <PUBCHEM_BOND_DEF_STEREO_COUNT>  (1) 
0

>  <PUBCHEM_BOND_UDEF_STEREO_COUNT>  (1) 
0

>  <PUBCHEM_ISOTOPIC_ATOM_COUNT>  (1) 
0

>  <PUBCHEM_COMPONENT_COUNT>  (1) 
1

>  <PUBCHEM_CACTVS_TAUTO_COUNT>  (1) 
5

>  <PUBCHEM_CONFORMER_ID>  (1) 
0000107500000001

>  <PUBCHEM_MMFF94_ENERGY>  (1) 
33.0656

>  <PUBCHEM_FEATURE_SELFOVERLAP>  (1) 
65.979

>  <PUBCHEM_SHAPE_FINGERPRINT>  (1) 
10062212 137 18131063840637382919
11471102 20 18187363259415767380
11578080 2 18126539315624028240
12236239 1 18342459240253891634
13581323 91 17632856416897319962
13690532 89 18413102849232259499
13760787 5 18408323289703543215
15375358 24 14764342743179935175
15442244 35 18411137991841231952
15775835 57 18335426819284844220
16945 1 17704078390851603014
1813 80 18043819684849472310
18186145 218 17530676624264935075
19026448 4 17167582708959548987
19422 9 18409451375205557010
19784866 34 17972048195678714668
200 152 18412821387324937227
20559304 39 18343019999752860552
20645476 183 18269559510250459727
20645477 70 18113336410030270434
21267235 1 18412270510493202682
2255824 54 18336547230756095828
23402539 116 17703781497243097157
23463225 33 18340486677654774166
23557571 272 15984832514378945992
23559900 14 18339354266429616658
23598291 2 18339375054266579328
2748010 2 16825883859727809828
42 15 18201996595161238106
474 4 18046629181428749764
5104073 3 18343866636612457651
522135 26 18260829310621527950
5281201 14 17458622298338488726
633830 44 17312814975116279895
7364860 26 18200588232698976912
74978 22 18269556207298977551
77492 1 18342183262539946856
9981440 41 17474097078528717456

>  <PUBCHEM_SHAPE_MULTIPOLES>  (1) 
320.27
8.71
1.93
0.98
3.95
0.23
0.05
-2.44
0.24
-1.8
-0.02
-0.08
0.1
-1.58

>  <PUBCHEM_SHAPE_SELFOVERLAP>  (1) 
678.457

>  <PUBCHEM_SHAPE_VOLUME>  (1) 
179.8

>  <PUBCHEM_COORDINATE_TYPE>  (1) 
2
5
10

$$$$
