42143
     RDKit          3D

 17 18  0  0  1  0  0  0  0  0999 V2000
    0.5442   -2.5024    0.7806 O   0  0  0  0  0  0  0  0  0  0  0  0
   -0.3014   -2.2989   -1.3595 O   0  0  0  0  0  0  0  0  0  0  0  0
   -3.0021    0.6526   -0.0253 N   0  0  0  0  0  0  0  0  0  0  0  0
   -0.3071    0.1857    1.1243 C   0  0  0  0  0  0  0  0  0  0  0  0
   -1.1384   -0.9136    0.4260 C   0  0  0  0  0  0  0  0  0  0  0  0
   -1.2168    1.3555    1.5448 C   0  0  0  0  0  0  0  0  0  0  0  0
   -2.1431   -0.3871   -0.6046 C   0  0  0  0  0  0  0  0  0  0  0  0
   -2.2162    1.7885    0.4690 C   0  0  0  0  0  0  0  0  0  0  0  0
    0.9521    0.6570    0.4051 C   0  0  0  0  0  0  0  0  0  0  0  0
   -0.2673   -1.9753   -0.1799 C   0  0  0  0  0  0  0  0  0  0  0  0
   -3.9932    1.1020   -1.0030 C   0  0  0  0  0  0  0  0  0  0  0  0
    0.9466    0.8027   -0.9805 C   0  0  0  0  0  0  0  0  0  0  0  0
    2.1038    0.9410    1.1359 C   0  0  0  0  0  0  0  0  0  0  0  0
    2.0984    1.2340   -1.6386 C   0  0  0  0  0  0  0  0  0  0  0  0
    3.2555    1.3724    0.4778 C   0  0  0  0  0  0  0  0  0  0  0  0
    3.2526    1.5189   -0.9094 C   0  0  0  0  0  0  0  0  0  0  0  0
    1.4326   -3.5331    0.3375 C   0  0  0  0  0  0  0  0  0  0  0  0
  1 10  1  0
  1 17  1  0
  2 10  2  0
  3  7  1  0
  3  8  1  0
  3 11  1  0
  4  5  1  0
  4  6  1  0
  4  9  1  0
  5  7  1  0
  5 10  1  0
  6  8  1  0
  9 12  2  0
  9 13  1  0
 12 14  1  0
 13 15  2  0
 14 16  2  0
 15 16  1  0
M  END
>  <PUBCHEM_COMPOUND_CID>  (1) 
42143

>  <PUBCHEM_CONFORMER_RMSD>  (1) 
0.6

>  <PUBCHEM_CONFORMER_DIVERSEORDER>  (1) 
7
18
14
4
27
5
19
26
16
17
3
10
12
13
23
20
11
24
25
9
8
21
2
6
22
15
1

>  <PUBCHEM_MMFF94_PARTIAL_CHARGES>  (1) 
21
1 -0.43
10 0.66
11 0.27
12 -0.15
13 -0.15
14 -0.15
15 -0.15
16 -0.15
17 0.28
2 -0.57
29 0.15
3 -0.81
30 0.15
31 0.15
32 0.15
33 0.15
4 0.14
5 0.06
7 0.27
8 0.27
9 -0.14

>  <PUBCHEM_EFFECTIVE_ROTOR_COUNT>  (1) 
4.2

>  <PUBCHEM_PHARMACOPHORE_FEATURES>  (1) 
4
1 2 acceptor
1 3 cation
6 3 4 5 6 7 8 rings
6 9 12 13 14 15 16 rings

>  <PUBCHEM_HEAVY_ATOM_COUNT>  (1) 
17

>  <PUBCHEM_ATOM_DEF_STEREO_COUNT>  (1) 
1

>  <PUBCHEM_ATOM_UDEF_STEREO_COUNT>  (1) 
1

>  <PUBCHEM_BOND_DEF_STEREO_COUNT>  (1) 
0

>  <PUBCHEM_BOND_UDEF_STEREO_COUNT>  (1) 
0

>  <PUBCHEM_ISOTOPIC_ATOM_COUNT>  (1) 
0

>  <PUBCHEM_COMPONENT_COUNT>  (1) 
1

>  <PUBCHEM_CACTVS_TAUTO_COUNT>  (1) 
1

>  <PUBCHEM_CONFORMER_ID>  (1) 
0000A49F00000007

>  <PUBCHEM_MMFF94_ENERGY>  (1) 
42.8688

>  <PUBCHEM_FEATURE_SELFOVERLAP>  (1) 
20.297

>  <PUBCHEM_SHAPE_FINGERPRINT>  (1) 
1 1 18337670823780242690
11582403 64 16195310985949558120
12138202 97 18058171802809257092
12500047 106 18266457797055434884
12592029 89 18261117356840198899
13132413 78 17619356402899673820
133893 2 18046644320828966625
14181834 199 18124030131119766759
14817 1 15441803272274950282
14955137 171 17265566563462659179
15207287 21 17275101764827726236
15775835 57 17967811690823380845
15852999 172 18271534186073693996
15906896 17 17678744672137595963
16752209 62 18120649386156863994
16945 1 17975974594049223450
17980427 23 17482529916069593833
18186145 218 18131356336115280513
18534176 82 17986687071562185808
19868273 293 18262522618642384572
200 152 13758086202915025772
20473742 2 17970057847107853487
20510252 161 18124322867416221144
20645476 183 18042688480045582386
21524375 3 18411984662996834389
23402539 116 18130778014289310037
23419403 2 17247287289951076378
23557571 272 17695357262542669912
23559900 14 18059012904199911344
2748010 2 18266481908384519682
298252 57 18260543471879170345
305870 269 18338237067978978213
3071541 158 17832420895690603717
3071541 236 18267868470040991152
5845 1 16407350897138595946
68419 9 17200808687498738433
7364860 26 18197492926792973483
81228 2 17766851897530333442
81539 233 18260542299637668479
90525 40 18115593788969160010

>  <PUBCHEM_SHAPE_MULTIPOLES>  (1) 
333.13
4.88
3.06
1.43
1.22
3.84
-0.11
-3.71
-1.27
-1.01
0.08
-0.22
-0.39
-0.45

>  <PUBCHEM_SHAPE_SELFOVERLAP>  (1) 
692.574

>  <PUBCHEM_SHAPE_VOLUME>  (1) 
189

>  <PUBCHEM_COORDINATE_TYPE>  (1) 
2
5
10

$$$$
