42141
     RDKit          3D

 11 11  0  0  0  0  0  0  0  0999 V2000
    3.9376    0.1528    0.4169 Cl  0  0  0  0  0  0  0  0  0  0  0  0
   -1.8875    0.2419   -0.5816 N   0  0  0  0  0  0  0  0  0  0  0  0
   -4.0061    0.4124    0.4949 N   0  0  0  0  0  0  0  0  0  0  0  0
    0.1477   -1.0060   -0.1271 C   0  0  0  0  0  0  0  0  0  0  0  0
   -0.5080    0.2059   -0.3442 C   0  0  0  0  0  0  0  0  0  0  0  0
    1.5226   -1.0228    0.1079 C   0  0  0  0  0  0  0  0  0  0  0  0
    0.2109    1.4010   -0.3263 C   0  0  0  0  0  0  0  0  0  0  0  0
   -0.6012   -2.2983   -0.1403 C   0  0  0  0  0  0  0  0  0  0  0  0
    2.2416    0.1725    0.1258 C   0  0  0  0  0  0  0  0  0  0  0  0
    1.5857    1.3843   -0.0913 C   0  0  0  0  0  0  0  0  0  0  0  0
   -2.6433    0.3562    0.4653 C   0  0  0  0  0  0  0  0  0  0  0  0
  1  9  1  0
  2  5  1  0
  2 11  2  0
  3 11  1  0
  4  5  2  0
  4  6  1  0
  4  8  1  0
  5  7  1  0
  6  9  2  0
  7 10  2  0
  9 10  1  0
M  END
>  <PUBCHEM_COMPOUND_CID>  (1) 
42141

>  <PUBCHEM_CONFORMER_RMSD>  (1) 
0.4

>  <PUBCHEM_CONFORMER_DIVERSEORDER>  (1) 
1
3
2

>  <PUBCHEM_MMFF94_PARTIAL_CHARGES>  (1) 
17
1 -0.18
10 -0.15
11 0.44
12 0.15
13 0.15
17 0.15
18 0.06
19 0.4
2 -0.63
20 0.4
3 -0.85
4 -0.14
5 0.18
6 -0.15
7 -0.15
8 0.14
9 0.18

>  <PUBCHEM_EFFECTIVE_ROTOR_COUNT>  (1) 
1

>  <PUBCHEM_PHARMACOPHORE_FEATURES>  (1) 
3
1 3 donor
3 2 3 11 cation
6 4 5 6 7 9 10 rings

>  <PUBCHEM_HEAVY_ATOM_COUNT>  (1) 
11

>  <PUBCHEM_ATOM_DEF_STEREO_COUNT>  (1) 
0

>  <PUBCHEM_ATOM_UDEF_STEREO_COUNT>  (1) 
0

>  <PUBCHEM_BOND_DEF_STEREO_COUNT>  (1) 
0

>  <PUBCHEM_BOND_UDEF_STEREO_COUNT>  (1) 
0

>  <PUBCHEM_ISOTOPIC_ATOM_COUNT>  (1) 
0

>  <PUBCHEM_COMPONENT_COUNT>  (1) 
1

>  <PUBCHEM_CACTVS_TAUTO_COUNT>  (1) 
2

>  <PUBCHEM_CONFORMER_ID>  (1) 
0000A49D00000001

>  <PUBCHEM_MMFF94_ENERGY>  (1) 
27.1046

>  <PUBCHEM_FEATURE_SELFOVERLAP>  (1) 
15.223

>  <PUBCHEM_SHAPE_FINGERPRINT>  (1) 
10219947 1 18408606933253720377
11062470 55 13902189287640789344
11471102 22 18261690198282703057
12032990 46 18335424509019661038
13380535 21 18119535577036588380
13380535 76 18341612637369594030
14325111 11 18411420648049818101
14993402 34 18410290324078617540
161256 15 18125447401718785462
16945 1 18336252501357328940
193761 8 17833268997107615772
20588541 1 18412546500901924630
21040471 1 18338797922077828636
21501502 16 18120935272433908564
23235685 24 18341607118515550848
23402539 116 18131059441994629980
23402655 69 18195225747451053365
23552423 10 17898844918934541708
2748010 2 18048586024388989660
528862 383 18261948544565339778
528886 8 18411975862566588442
53812653 166 18341609334834642402
68250623 7 17974293415195754934

>  <PUBCHEM_SHAPE_MULTIPOLES>  (1) 
218.28
5.23
1.7
0.71
0.87
0.79
0.01
-1.18
1.41
0.06
-0.14
0.08
-0.03
-0.14

>  <PUBCHEM_SHAPE_SELFOVERLAP>  (1) 
442.301

>  <PUBCHEM_SHAPE_VOLUME>  (1) 
128.2

>  <PUBCHEM_COORDINATE_TYPE>  (1) 
2
5
10

$$$$
