42151
     RDKit          3D

 21 20  0  0  0  0  0  0  0  0999 V2000
   -0.9649   -1.0741   -2.2366 O   0  0  0  0  0  0  0  0  0  0  0  0
   -2.5445   -2.4901   -1.3117 O   0  0  0  0  0  0  0  0  0  0  0  0
    0.5978    2.4498   -1.3011 C   0  0  0  0  0  0  0  0  0  0  0  0
   -0.2606    2.4864   -0.0342 C   0  0  0  0  0  0  0  0  0  0  0  0
    1.9076    3.2357   -1.1728 C   0  0  0  0  0  0  0  0  0  0  0  0
   -1.5487    1.6802   -0.2144 C   0  0  0  0  0  0  0  0  0  0  0  0
    2.8518    2.7831   -0.0539 C   0  0  0  0  0  0  0  0  0  0  0  0
   -2.4598    1.7037    1.0164 C   0  0  0  0  0  0  0  0  0  0  0  0
    3.2619    1.3128   -0.1618 C   0  0  0  0  0  0  0  0  0  0  0  0
   -3.8005    0.9766    0.8665 C   0  0  0  0  0  0  0  0  0  0  0  0
    4.2753    0.9369    0.9266 C   0  0  0  0  0  0  0  0  0  0  0  0
   -4.6799    0.9435    2.1185 C   0  0  0  0  0  0  0  0  0  0  0  0
    4.7364   -0.5198    0.8357 C   0  0  0  0  0  0  0  0  0  0  0  0
   -5.9594    0.1420    1.9386 C   0  0  0  0  0  0  0  0  0  0  0  0
    3.6284   -1.4648    1.0293 C   0  0  0  0  0  0  0  0  0  0  0  0
    2.6990   -2.2152    1.1542 C   0  0  0  0  0  0  0  0  0  0  0  0
    1.5353   -3.1024    1.2692 C   0  0  0  0  0  0  0  0  0  0  0  0
    0.4655   -2.7448    0.3291 C   0  0  0  0  0  0  0  0  0  0  0  0
   -0.3965   -2.4257   -0.4437 C   0  0  0  0  0  0  0  0  0  0  0  0
   -1.4205   -2.0145   -1.3671 C   0  0  0  0  0  0  0  0  0  0  0  0
   -1.9238   -0.5995   -3.1871 C   0  0  0  0  0  0  0  0  0  0  0  0
  1 20  1  0
  1 21  1  0
  2 20  2  0
  3  4  1  0
  3  5  1  0
  4  6  1  0
  5  7  1  0
  6  8  1  0
  7  9  1  0
  8 10  1  0
  9 11  1  0
 10 12  1  0
 11 13  1  0
 12 14  1  0
 13 15  1  0
 15 16  3  0
 16 17  1  0
 17 18  1  0
 18 19  3  0
 19 20  1  0
M  END
>  <PUBCHEM_COMPOUND_CID>  (1) 
42151

>  <PUBCHEM_CONFORMER_RMSD>  (1) 
1

>  <PUBCHEM_CONFORMER_DIVERSEORDER>  (1) 
1
290
162
153
145
106
48
185
68
360
236
78
269
140
359
49
151
86
255
51
312
99
57
102
316
96
262
326
279
228
128
92
196
337
260
21
252
285
214
105
3
79
203
319
98
352
83
295
209
69
95
15
354
126
223
81
91
27
235
80
19
117
33
355
261
76
205
37
311
339
138
59
163
132
357
12
179
62
193
17
348
320
120
201
9
239
25
206
43
124
227
309
155
11
109
90
174
56
338
137
202
148
18
38
41
210
343
24
77
289
40
330
332
222
26
180
114
292
237
298
10
358
159
129
315
28
257
47
144
104
60
281
46
333
218
122
331
135
118
215
287
351
256
143
283
7
146
282
167
171
52
119
131
234
34
244
189
207
45
350
224
73
100
349
225
310
321
4
340
44
328
294
89
72
278
112
133
219
147
313
103
204
274
277
305
101
36
286
170
165
134
107
61
136
199
94
161
71
273
334
29
66
325
243
314
157
116
186
317
64
191
341
188
93
2
347
212
110
123
247
303
23
75
194
280
231
250
221
344
184
88
54
323
245
32
265
307
216
296
5
152
276
263
84
208
346
246
213
127
356
192
301
300
158
20
8
160
63
271
248
53
70
275
121
55
327
353
259
342
97
22
177
232
172
238
16
42
35
251
241
113
50
335
150
291
169
142
168
284
82
195
345
175
270
149
13
108
125
253
14
264
304
220
166
266
30
39
197
141
164
6
240
226
249
74
318
217
233
258
154
178
156
176
183
85
111
329
297
31
182
288
139
272
181
200
65
336
58
242
229
293
173
302
211
268
267
87
299
67
190
308
187
306
198
254
322
324
115
230
130

>  <PUBCHEM_MMFF94_PARTIAL_CHARGES>  (1) 
10
1 -0.43
13 0.2
15 -0.2
16 -0.2
17 0.4
18 -0.2
19 -0.1
2 -0.57
20 0.83
21 0.28

>  <PUBCHEM_EFFECTIVE_ROTOR_COUNT>  (1) 
11

>  <PUBCHEM_PHARMACOPHORE_FEATURES>  (1) 
2
1 14 hydrophobe
1 2 acceptor

>  <PUBCHEM_HEAVY_ATOM_COUNT>  (1) 
21

>  <PUBCHEM_ATOM_DEF_STEREO_COUNT>  (1) 
0

>  <PUBCHEM_ATOM_UDEF_STEREO_COUNT>  (1) 
0

>  <PUBCHEM_BOND_DEF_STEREO_COUNT>  (1) 
0

>  <PUBCHEM_BOND_UDEF_STEREO_COUNT>  (1) 
0

>  <PUBCHEM_ISOTOPIC_ATOM_COUNT>  (1) 
0

>  <PUBCHEM_COMPONENT_COUNT>  (1) 
1

>  <PUBCHEM_CACTVS_TAUTO_COUNT>  (1) 
1

>  <PUBCHEM_CONFORMER_ID>  (1) 
0000A4A700000001

>  <PUBCHEM_MMFF94_ENERGY>  (1) 
2.5682

>  <PUBCHEM_FEATURE_SELFOVERLAP>  (1) 
10.148

>  <PUBCHEM_SHAPE_FINGERPRINT>  (1) 
10708813 3 18410845569182547492
10816530 23 16916507089842528880
12539773 59 17771874273614981924
12553582 1 18261944186001741740
12717326 69 17463449279782632995
12788726 201 17551531254498432541
13083527 12 18337402530876016657
14464042 87 18128525153977249503
14765038 42 18339644546670084928
20554085 129 16486701264895393617
20765182 20 18122639261806224857
23419403 2 17749388105966069565
23558518 356 17476649044790204181
6287921 2 17557715659528035335
6438718 38 17988913501188514366

>  <PUBCHEM_SHAPE_MULTIPOLES>  (1) 
420.43
9.32
4.55
2.36
5.99
0.26
-1.55
-1.41
7.85
-2.76
-0.68
2.85
0.7
-2.55

>  <PUBCHEM_SHAPE_SELFOVERLAP>  (1) 
783.619

>  <PUBCHEM_SHAPE_VOLUME>  (1) 
261.4

>  <PUBCHEM_COORDINATE_TYPE>  (1) 
2
5
10

$$$$
