4216
     RDKit          3D

 21 23  0  0  1  0  0  0  0  0999 V2000
   -5.7186   -1.7223   -0.1485 I   0  0  0  0  0  0  0  0  0  0  0  0
    0.8290    1.2469    0.2948 S   0  0  0  0  0  0  0  0  0  0  0  0
    0.6070    1.9830   -0.9325 O   0  0  0  0  0  0  0  0  0  0  0  0
    0.7645    1.8841    1.5933 O   0  0  0  0  0  0  0  0  0  0  0  0
    2.3138    0.3930    0.1589 N   0  0  0  0  0  0  0  0  0  0  0  0
    5.3437   -0.2190   -0.3956 N   0  0  0  0  0  0  0  0  0  0  0  0
    2.4428   -0.4668   -1.0554 C   0  0  0  0  0  0  0  0  0  0  0  0
    3.5292    1.1975    0.4726 C   0  0  0  0  0  0  0  0  0  0  0  0
    3.2776   -1.6971   -0.7193 C   0  0  0  0  0  0  0  0  0  0  0  0
    4.7315    0.3188    0.8124 C   0  0  0  0  0  0  0  0  0  0  0  0
    4.7893   -1.4900   -0.8520 C   0  0  0  0  0  0  0  0  0  0  0  0
   -0.4857    0.0341    0.3447 C   0  0  0  0  0  0  0  0  0  0  0  0
   -1.7983    0.3686    0.0449 C   0  0  0  0  0  0  0  0  0  0  0  0
   -0.0981   -1.2429    0.7008 C   0  0  0  0  0  0  0  0  0  0  0  0
   -2.7789   -0.6499    0.1091 C   0  0  0  0  0  0  0  0  0  0  0  0
   -2.1829    1.6701   -0.3162 C   0  0  0  0  0  0  0  0  0  0  0  0
   -1.0623   -2.2444    0.7639 C   0  0  0  0  0  0  0  0  0  0  0  0
   -2.3944   -1.9514    0.4704 C   0  0  0  0  0  0  0  0  0  0  0  0
   -4.1150   -0.3371   -0.1896 C   0  0  0  0  0  0  0  0  0  0  0  0
   -3.5149    1.9632   -0.6099 C   0  0  0  0  0  0  0  0  0  0  0  0
   -4.4792    0.9616   -0.5467 C   0  0  0  0  0  0  0  0  0  0  0  0
  1 19  1  0
  2  3  2  0
  2  4  2  0
  2  5  1  0
  2 12  1  0
  5  7  1  0
  5  8  1  0
  6 10  1  0
  6 11  1  0
  7  9  1  0
  8 10  1  0
  9 11  1  0
 12 13  1  0
 12 14  2  0
 13 15  2  0
 13 16  1  0
 14 17  1  0
 15 18  1  0
 15 19  1  0
 16 20  2  0
 17 18  2  0
 19 21  2  0
 20 21  1  0
M  END
>  <PUBCHEM_COMPOUND_CID>  (1) 
4216

>  <PUBCHEM_CONFORMER_RMSD>  (1) 
0.6

>  <PUBCHEM_CONFORMER_DIVERSEORDER>  (1) 
1
30
62
26
58
61
2
34
54
12
51
22
52
37
7
9
41
56
63
57
17
59
19
45
36
3
18
53
20
24
5
42
8
50
38
29
6
46
10
47
25
23
55
40
21
13
4
33
28
39
60
15
27
11
35
49
31
14
43
48
44
32
16

>  <PUBCHEM_MMFF94_PARTIAL_CHARGES>  (1) 
25
1 -0.08
10 0.27
11 0.27
12 -0.01
14 -0.15
16 -0.15
17 -0.15
18 -0.15
19 0.08
2 1.45
20 -0.15
21 -0.15
3 -0.65
32 0.36
33 0.15
34 0.15
35 0.15
36 0.15
37 0.15
38 0.15
4 -0.65
5 -0.85
6 -0.9
7 0.36
8 0.36

>  <PUBCHEM_EFFECTIVE_ROTOR_COUNT>  (1) 
3.4

>  <PUBCHEM_PHARMACOPHORE_FEATURES>  (1) 
8
1 1 hydrophobe
1 3 acceptor
1 4 acceptor
1 6 cation
1 6 donor
6 12 13 14 15 17 18 rings
6 13 15 16 19 20 21 rings
7 5 6 7 8 9 10 11 rings

>  <PUBCHEM_HEAVY_ATOM_COUNT>  (1) 
21

>  <PUBCHEM_ATOM_DEF_STEREO_COUNT>  (1) 
0

>  <PUBCHEM_ATOM_UDEF_STEREO_COUNT>  (1) 
0

>  <PUBCHEM_BOND_DEF_STEREO_COUNT>  (1) 
0

>  <PUBCHEM_BOND_UDEF_STEREO_COUNT>  (1) 
0

>  <PUBCHEM_ISOTOPIC_ATOM_COUNT>  (1) 
0

>  <PUBCHEM_COMPONENT_COUNT>  (1) 
1

>  <PUBCHEM_CACTVS_TAUTO_COUNT>  (1) 
1

>  <PUBCHEM_CONFORMER_ID>  (1) 
0000107800000001

>  <PUBCHEM_MMFF94_ENERGY>  (1) 
58.6225

>  <PUBCHEM_FEATURE_SELFOVERLAP>  (1) 
40.637

>  <PUBCHEM_SHAPE_FINGERPRINT>  (1) 
10693767 8 18127394869505540263
11112241 14 17058625573449911456
11458722 379 18334577906398626735
11578080 2 16556201595933192363
12236239 1 16732979821484858440
12403259 226 18340763845122210793
12596602 18 14979664529432928446
13134695 92 17131825491017844896
13140716 1 18045789146170848939
13402501 40 18413108363801508078
13533116 47 17988646353753087905
13544592 145 18339081493267566116
13862211 1 18261385680933303075
14251757 17 18339924805553313546
14386348 63 18343304773348980354
14573314 32 18411136922457419092
14790565 3 17475519374455781857
14866123 147 17408817518503667208
15042514 8 18117281569953013899
15099037 51 18333732424858956815
15163728 17 16010413675413852103
15196674 1 18410292493005433815
15375358 24 18341892991802575138
17804303 29 18408884066050338281
17834072 14 18342177761066622662
18186145 218 18337954484858526705
19141452 34 18129946796937520687
19591789 44 18408886265648782211
200 152 17346599668449408738
20645477 70 17846786195823437966
20871999 31 18187374228809714230
21267235 1 18261959648026406187
21279426 13 18267303131832584807
21285901 2 18334858277500151774
21781051 124 17604446214217366875
221357 26 18342172276440767511
23175994 123 17989209252262217433
23402539 116 18408878547217595861
23557571 272 18410011052625896960
23558518 356 17913790327009300552
23559900 14 18412265000582606614
2748010 2 18046908453376816387
2838139 119 15503196944170712455
3004659 81 18187930526555541810
3286 77 17917715755498078321
335352 9 18334856148013946239
350125 39 18408323281382815937
4214541 1 18410575067546721197
495365 180 17774988116699717000
5104073 3 18272368637746886707
5283173 99 18339642226939241492
59755656 215 18334287670211248535
69090 78 18343580754624890567
9709674 26 18339080500766305630

>  <PUBCHEM_SHAPE_MULTIPOLES>  (1) 
426.25
11.45
2.42
1.02
2.25
0
0.06
-3.59
-1.94
-1.15
-0.01
0.48
0.05
1.29

>  <PUBCHEM_SHAPE_SELFOVERLAP>  (1) 
876.311

>  <PUBCHEM_SHAPE_VOLUME>  (1) 
247.2

>  <PUBCHEM_COORDINATE_TYPE>  (1) 
2
5
10

$$$$
