42174
     RDKit          3D

 35 37  0  0  1  0  0  0  0  0999 V2000
    3.7353    0.2776   -1.9304 O   0  0  0  0  0  0  0  0  0  0  0  0
   -4.8067   -0.7807   -0.7885 O   0  0  0  0  0  0  0  0  0  0  0  0
   -2.5952    1.1364    1.8855 O   0  0  0  0  0  0  0  0  0  0  0  0
    6.6180    0.0750    0.3655 N   0  0  0  0  0  0  0  0  0  0  0  0
   -3.8052   -2.4604    0.4511 N   0  0  0  0  0  0  0  0  0  0  0  0
   -2.7092    0.8671   -0.4147 N   0  0  0  0  0  0  0  0  0  0  0  0
    7.4745   -0.9806   -0.1930 C   0  0  0  0  0  0  0  0  0  0  0  0
    7.4213    1.1416    0.9795 C   0  0  0  0  0  0  0  0  0  0  0  0
    8.3617   -1.6005    0.8876 C   0  0  0  0  0  0  0  0  0  0  0  0
    8.3067    0.5909    2.0987 C   0  0  0  0  0  0  0  0  0  0  0  0
    9.1968   -0.5397    1.5958 C   0  0  0  0  0  0  0  0  0  0  0  0
    5.7431    0.6249   -0.6696 C   0  0  0  0  0  0  0  0  0  0  0  0
    4.5686   -0.3050   -0.9293 C   0  0  0  0  0  0  0  0  0  0  0  0
   -2.4459   -0.5543   -0.4302 C   0  0  0  0  0  0  0  0  0  0  0  0
   -1.7798   -0.9823   -1.7437 C   0  0  0  0  0  0  0  0  0  0  0  0
   -3.7943   -1.2584   -0.2647 C   0  0  0  0  0  0  0  0  0  0  0  0
   -2.6042   -3.0188    1.0675 C   0  0  0  0  0  0  0  0  0  0  0  0
   -5.0165   -3.2507    0.6384 C   0  0  0  0  0  0  0  0  0  0  0  0
   -0.3091   -0.6453   -1.7926 C   0  0  0  0  0  0  0  0  0  0  0  0
    2.4092   -0.0251   -1.8855 C   0  0  0  0  0  0  0  0  0  0  0  0
   -2.4061   -2.5321    2.4980 C   0  0  0  0  0  0  0  0  0  0  0  0
   -5.2196   -4.2738   -0.4728 C   0  0  0  0  0  0  0  0  0  0  0  0
    0.6322   -1.5657   -1.3316 C   0  0  0  0  0  0  0  0  0  0  0  0
    0.1086    0.5851   -2.3000 C   0  0  0  0  0  0  0  0  0  0  0  0
    1.9914   -1.2556   -1.3779 C   0  0  0  0  0  0  0  0  0  0  0  0
    1.4677    0.8951   -2.3464 C   0  0  0  0  0  0  0  0  0  0  0  0
   -1.1450   -3.0920    3.1404 C   0  0  0  0  0  0  0  0  0  0  0  0
   -6.4933   -5.0884   -0.2968 C   0  0  0  0  0  0  0  0  0  0  0  0
   -2.7617    1.5996    0.7602 C   0  0  0  0  0  0  0  0  0  0  0  0
   -3.0690    3.0453    0.6086 C   0  0  0  0  0  0  0  0  0  0  0  0
   -3.6859    3.7399    1.6491 C   0  0  0  0  0  0  0  0  0  0  0  0
   -2.7401    3.7080   -0.5740 C   0  0  0  0  0  0  0  0  0  0  0  0
   -3.9742    5.0973    1.5070 C   0  0  0  0  0  0  0  0  0  0  0  0
   -3.0285    5.0655   -0.7159 C   0  0  0  0  0  0  0  0  0  0  0  0
   -3.6454    5.7600    0.3247 C   0  0  0  0  0  0  0  0  0  0  0  0
  1 13  1  0
  1 20  1  0
  2 16  2  0
  3 29  2  0
  4  7  1  0
  4  8  1  0
  4 12  1  0
  5 16  1  0
  5 17  1  0
  5 18  1  0
  6 14  1  0
  6 29  1  0
  7  9  1  0
  8 10  1  0
  9 11  1  0
 10 11  1  0
 12 13  1  0
 14 15  1  0
 14 16  1  0
 15 19  1  0
 17 21  1  0
 18 22  1  0
 19 23  2  0
 19 24  1  0
 20 25  2  0
 20 26  1  0
 21 27  1  0
 22 28  1  0
 23 25  1  0
 24 26  2  0
 29 30  1  0
 30 31  2  0
 30 32  1  0
 31 33  1  0
 32 34  2  0
 33 35  2  0
 34 35  1  0
M  END
>  <PUBCHEM_COMPOUND_CID>  (1) 
42174

>  <PUBCHEM_CONFORMER_RMSD>  (1) 
1.4

>  <PUBCHEM_CONFORMER_DIVERSEORDER>  (1) 
1
35
58
28
70
43
69
53
57
12
62
74
54
52
47
72
67
48
37
26
68
27
45
49
10
63
23
73
44
66
9
15
34
14
29
40
46
32
59
24
20
56
13
30
25
60
39
51
41
65
36
21
17
75
33
71
31
11
61
18
50
42
64
6
38
5
19
16
55
7
2
8
3
22
4

>  <PUBCHEM_MMFF94_PARTIAL_CHARGES>  (1) 
38
1 -0.36
12 0.27
13 0.28
14 0.36
15 0.14
16 0.57
17 0.3
18 0.3
19 -0.14
2 -0.57
20 0.08
23 -0.15
24 -0.15
25 -0.15
26 -0.15
29 0.54
3 -0.57
30 0.09
31 -0.15
32 -0.15
33 -0.15
34 -0.15
35 -0.15
4 -0.81
5 -0.66
6 -0.73
61 0.37
62 0.15
63 0.15
64 0.15
65 0.15
7 0.27
72 0.15
73 0.15
74 0.15
75 0.15
76 0.15
8 0.27

>  <PUBCHEM_EFFECTIVE_ROTOR_COUNT>  (1) 
16.2

>  <PUBCHEM_PHARMACOPHORE_FEATURES>  (1) 
10
1 1 acceptor
1 2 acceptor
1 27 hydrophobe
1 28 hydrophobe
1 3 acceptor
1 4 cation
1 6 donor
6 19 20 23 24 25 26 rings
6 30 31 32 33 34 35 rings
6 4 7 8 9 10 11 rings

>  <PUBCHEM_HEAVY_ATOM_COUNT>  (1) 
35

>  <PUBCHEM_ATOM_DEF_STEREO_COUNT>  (1) 
0

>  <PUBCHEM_ATOM_UDEF_STEREO_COUNT>  (1) 
1

>  <PUBCHEM_BOND_DEF_STEREO_COUNT>  (1) 
0

>  <PUBCHEM_BOND_UDEF_STEREO_COUNT>  (1) 
0

>  <PUBCHEM_ISOTOPIC_ATOM_COUNT>  (1) 
0

>  <PUBCHEM_COMPONENT_COUNT>  (1) 
1

>  <PUBCHEM_CACTVS_TAUTO_COUNT>  (1) 
2

>  <PUBCHEM_CONFORMER_ID>  (1) 
0000A4BE00000001

>  <PUBCHEM_MMFF94_ENERGY>  (1) 
74.1485

>  <PUBCHEM_FEATURE_SELFOVERLAP>  (1) 
50.746

>  <PUBCHEM_SHAPE_FINGERPRINT>  (1) 
10554248 39 14405186124381918484
10930396 42 18413674608717487113
11136131 41 16467829633331085543
11411753 3 17845106090711820126
11607047 74 17185033866049664545
12788726 201 18336000705142664827
13540713 4 17773614736350605830
13560911 23 18335138700885477784
14068700 675 18189332536339159887
14705955 166 18411978078986114872
15320295 40 18116703200413054351
16067689 68 18190166907610734610
16993427 108 18193273211978526927
18470217 77 18413108376691873345
19246450 95 17461435828958180884
21133410 221 17773289345365897000
21599406 157 8646770015616265664
22956985 138 17549537865935186831
23522609 53 17678767608392053148
249057 25 18113908178063111116
312425 54 18262518084037595810
376196 1 17696765354806737373
397638 26 18197780999599664664
4107672 100 8790887393096488550
484985 159 13984952787918480861
5104073 3 18337946776368280710
6376802 137 18263651830317237203
9555976 147 18410292476432206630
9896288 288 18411983529184049502

>  <PUBCHEM_SHAPE_MULTIPOLES>  (1) 
687.73
21.25
7.34
2.56
66.3
7.01
0.6
-7.83
10.74
-23.42
2.94
1.04
-0.67
-1.04

>  <PUBCHEM_SHAPE_SELFOVERLAP>  (1) 
1411.369

>  <PUBCHEM_SHAPE_VOLUME>  (1) 
393.7

>  <PUBCHEM_COORDINATE_TYPE>  (1) 
2
5
10

$$$$
