42178
     RDKit          3D

 30 31  0  0  1  0  0  0  0  0999 V2000
    3.5096   -1.0224   -0.1978 O   0  0  0  0  0  0  0  0  0  0  0  0
   -4.3698    2.3184    1.2662 O   0  0  0  0  0  0  0  0  0  0  0  0
   -3.6666    0.0057   -1.8760 O   0  0  0  0  0  0  0  0  0  0  0  0
    7.1190   -0.2859   -0.1534 N   0  0  0  0  0  0  0  0  0  0  0  0
   -3.0031    0.1912    0.3381 N   0  0  0  0  0  0  0  0  0  0  0  0
   -3.3805    3.7259   -0.2834 N   0  0  0  0  0  0  0  0  0  0  0  0
   -2.3784    1.4892    0.2174 C   0  0  0  0  0  0  0  0  0  0  0  0
   -1.2572    1.6649    1.2491 C   0  0  0  0  0  0  0  0  0  0  0  0
    0.0134    0.9474    0.8626 C   0  0  0  0  0  0  0  0  0  0  0  0
    5.8961   -1.0565    0.0154 C   0  0  0  0  0  0  0  0  0  0  0  0
   -3.4744    2.5330    0.4416 C   0  0  0  0  0  0  0  0  0  0  0  0
    8.2079   -0.8613    0.6400 C   0  0  0  0  0  0  0  0  0  0  0  0
    7.5016   -0.2238   -1.5662 C   0  0  0  0  0  0  0  0  0  0  0  0
    4.6809   -0.2242   -0.3616 C   0  0  0  0  0  0  0  0  0  0  0  0
    0.9808    1.6043    0.1020 C   0  0  0  0  0  0  0  0  0  0  0  0
    0.2211   -0.3715    1.2667 C   0  0  0  0  0  0  0  0  0  0  0  0
    2.3634   -0.3764    0.1501 C   0  0  0  0  0  0  0  0  0  0  0  0
    2.1558    0.9424   -0.2543 C   0  0  0  0  0  0  0  0  0  0  0  0
    1.3959   -1.0333    0.9105 C   0  0  0  0  0  0  0  0  0  0  0  0
    7.8350   -0.9365    2.1109 C   0  0  0  0  0  0  0  0  0  0  0  0
    8.7387    0.6358   -1.7627 C   0  0  0  0  0  0  0  0  0  0  0  0
   -3.6021   -0.4471   -0.7360 C   0  0  0  0  0  0  0  0  0  0  0  0
   -2.3191    3.9724   -1.2564 C   0  0  0  0  0  0  0  0  0  0  0  0
   -4.3347    4.8173   -0.1249 C   0  0  0  0  0  0  0  0  0  0  0  0
   -4.2229   -1.7644   -0.4421 C   0  0  0  0  0  0  0  0  0  0  0  0
   -4.3387   -2.7214   -1.4504 C   0  0  0  0  0  0  0  0  0  0  0  0
   -4.6897   -2.0447    0.8421 C   0  0  0  0  0  0  0  0  0  0  0  0
   -4.9215   -3.9583   -1.1746 C   0  0  0  0  0  0  0  0  0  0  0  0
   -5.2723   -3.2817    1.1179 C   0  0  0  0  0  0  0  0  0  0  0  0
   -5.3881   -4.2385    0.1095 C   0  0  0  0  0  0  0  0  0  0  0  0
  1 14  1  0
  1 17  1  0
  2 11  2  0
  3 22  2  0
  4 10  1  0
  4 12  1  0
  4 13  1  0
  5  7  1  0
  5 22  1  0
  6 11  1  0
  6 23  1  0
  6 24  1  0
  7  8  1  0
  7 11  1  0
  8  9  1  0
  9 15  2  0
  9 16  1  0
 10 14  1  0
 12 20  1  0
 13 21  1  0
 15 18  1  0
 16 19  2  0
 17 18  2  0
 17 19  1  0
 22 25  1  0
 25 26  2  0
 25 27  1  0
 26 28  1  0
 27 29  2  0
 28 30  2  0
 29 30  1  0
M  END
>  <PUBCHEM_COMPOUND_CID>  (1) 
42178

>  <PUBCHEM_CONFORMER_RMSD>  (1) 
1.2

>  <PUBCHEM_CONFORMER_DIVERSEORDER>  (1) 
2
50
61
26
39
64
10
33
41
42
21
30
62
57
49
69
32
86
23
65
34
83
60
66
55
95
37
63
25
75
97
84
48
93
12
71
70
9
91
53
54
67
56
78
18
89
6
74
96
85
36
73
40
88
35
51
80
82
38
76
52
27
20
92
59
17
14
22
47
5
16
81
90
43
15
77
28
4
24
94
1
29
68
13
45
3
58
87
19
11
31
72
46
8
79
44
7

>  <PUBCHEM_MMFF94_PARTIAL_CHARGES>  (1) 
38
1 -0.36
10 0.27
11 0.57
12 0.27
13 0.27
14 0.28
15 -0.15
16 -0.15
17 0.08
18 -0.15
19 -0.15
2 -0.57
22 0.54
23 0.3
24 0.3
25 0.09
26 -0.15
27 -0.15
28 -0.15
29 -0.15
3 -0.57
30 -0.15
4 -0.81
42 0.37
43 0.15
44 0.15
45 0.15
46 0.15
5 -0.73
59 0.15
6 -0.66
60 0.15
61 0.15
62 0.15
63 0.15
7 0.36
8 0.14
9 -0.14

>  <PUBCHEM_EFFECTIVE_ROTOR_COUNT>  (1) 
13

>  <PUBCHEM_PHARMACOPHORE_FEATURES>  (1) 
7
1 1 acceptor
1 2 acceptor
1 3 acceptor
1 4 cation
1 5 donor
6 25 26 27 28 29 30 rings
6 9 15 16 17 18 19 rings

>  <PUBCHEM_HEAVY_ATOM_COUNT>  (1) 
30

>  <PUBCHEM_ATOM_DEF_STEREO_COUNT>  (1) 
0

>  <PUBCHEM_ATOM_UDEF_STEREO_COUNT>  (1) 
1

>  <PUBCHEM_BOND_DEF_STEREO_COUNT>  (1) 
0

>  <PUBCHEM_BOND_UDEF_STEREO_COUNT>  (1) 
0

>  <PUBCHEM_ISOTOPIC_ATOM_COUNT>  (1) 
0

>  <PUBCHEM_COMPONENT_COUNT>  (1) 
1

>  <PUBCHEM_CACTVS_TAUTO_COUNT>  (1) 
2

>  <PUBCHEM_CONFORMER_ID>  (1) 
0000A4C200000002

>  <PUBCHEM_MMFF94_ENERGY>  (1) 
84.2857

>  <PUBCHEM_FEATURE_SELFOVERLAP>  (1) 
35.522

>  <PUBCHEM_SHAPE_FINGERPRINT>  (1) 
10554248 39 16805610244703348574
11101153 10 18261962967535356164
11756154 5 18265891543602945218
11809386 21 18409162203705636827
13631057 29 18412259553725753611
13690498 29 18412544340369747127
13782708 43 18273208716998575826
14659021 117 18409164433068178227
15183329 4 17167861963981811546
1577012 14 18187371996297125684
15876981 60 18260555523657890229
16989713 51 18272369801757240502
19427546 20 18410012104861508725
20505436 4 17824827741778713097
21795232 338 18201728379001414417
22899556 105 18048615985986077012
23081809 10 18040156193909963472
23559900 14 17774710971045201432
249057 25 17894918442895314948
2747138 104 17561368392370221530
3504750 166 17971459716534007570
397830 11 17846207904615853944
4169191 19 16588606296212647668
437795 160 18341321242384694914
54039377 194 18340777060083057302
5969126 39 18410576222866621683
6086070 43 14635149092425209988

>  <PUBCHEM_SHAPE_MULTIPOLES>  (1) 
584.83
22.19
5.3
1.56
58.02
2.82
-0.12
-13.35
-3.33
-16.72
-0.81
1.24
-0.31
-1.56

>  <PUBCHEM_SHAPE_SELFOVERLAP>  (1) 
1200.065

>  <PUBCHEM_SHAPE_VOLUME>  (1) 
337.5

>  <PUBCHEM_COORDINATE_TYPE>  (1) 
2
5
10

$$$$
