4217
     RDKit          3D

 21 23  0  0  1  0  0  0  0  0999 V2000
   -5.3952   -1.5715   -0.1475 Cl  0  0  0  0  0  0  0  0  0  0  0  0
    0.8013    1.2448    0.2959 S   0  0  0  0  0  0  0  0  0  0  0  0
    0.5725    1.9794   -0.9310 O   0  0  0  0  0  0  0  0  0  0  0  0
    0.7303    1.8806    1.5947 O   0  0  0  0  0  0  0  0  0  0  0  0
    2.2944    0.4055    0.1599 N   0  0  0  0  0  0  0  0  0  0  0  0
    5.3303   -0.1767   -0.3942 N   0  0  0  0  0  0  0  0  0  0  0  0
    2.4321   -0.4523   -1.0549 C   0  0  0  0  0  0  0  0  0  0  0  0
    3.5018    1.2216    0.4744 C   0  0  0  0  0  0  0  0  0  0  0  0
    3.2788   -1.6746   -0.7194 C   0  0  0  0  0  0  0  0  0  0  0  0
    4.7125    0.3544    0.8140 C   0  0  0  0  0  0  0  0  0  0  0  0
    4.7884   -1.4528   -0.8514 C   0  0  0  0  0  0  0  0  0  0  0  0
   -0.5015    0.0192    0.3447 C   0  0  0  0  0  0  0  0  0  0  0  0
   -1.8173    0.3408    0.0448 C   0  0  0  0  0  0  0  0  0  0  0  0
   -0.1008   -1.2544    0.6987 C   0  0  0  0  0  0  0  0  0  0  0  0
   -2.7874   -0.6881    0.1068 C   0  0  0  0  0  0  0  0  0  0  0  0
   -2.2152    1.6388   -0.3142 C   0  0  0  0  0  0  0  0  0  0  0  0
   -1.0548   -2.2659    0.7596 C   0  0  0  0  0  0  0  0  0  0  0  0
   -2.3897   -1.9860    0.4659 C   0  0  0  0  0  0  0  0  0  0  0  0
   -4.1266   -0.3884   -0.1920 C   0  0  0  0  0  0  0  0  0  0  0  0
   -3.5500    1.9186   -0.6080 C   0  0  0  0  0  0  0  0  0  0  0  0
   -4.5038    0.9071   -0.5471 C   0  0  0  0  0  0  0  0  0  0  0  0
  1 19  1  0
  2  3  2  0
  2  4  2  0
  2  5  1  0
  2 12  1  0
  5  7  1  0
  5  8  1  0
  6 10  1  0
  6 11  1  0
  7  9  1  0
  8 10  1  0
  9 11  1  0
 12 13  1  0
 12 14  2  0
 13 15  2  0
 13 16  1  0
 14 17  1  0
 15 18  1  0
 15 19  1  0
 16 20  2  0
 17 18  2  0
 19 21  2  0
 20 21  1  0
M  END
>  <PUBCHEM_COMPOUND_CID>  (1) 
4217

>  <PUBCHEM_CONFORMER_RMSD>  (1) 
0.6

>  <PUBCHEM_CONFORMER_DIVERSEORDER>  (1) 
1
35
59
2
53
9
62
12
61
37
60
22
34
19
41
52
57
50
17
26
18
36
3
51
7
20
58
10
54
56
46
33
24
21
5
30
42
8
38
6
23
25
39
49
14
4
45
40
27
55
11
29
28
15
32
13
43
48
47
44
31
16

>  <PUBCHEM_MMFF94_PARTIAL_CHARGES>  (1) 
25
1 -0.18
10 0.27
11 0.27
12 -0.01
14 -0.15
16 -0.15
17 -0.15
18 -0.15
19 0.18
2 1.45
20 -0.15
21 -0.15
3 -0.65
32 0.36
33 0.15
34 0.15
35 0.15
36 0.15
37 0.15
38 0.15
4 -0.65
5 -0.85
6 -0.9
7 0.36
8 0.36

>  <PUBCHEM_EFFECTIVE_ROTOR_COUNT>  (1) 
3.4

>  <PUBCHEM_PHARMACOPHORE_FEATURES>  (1) 
7
1 3 acceptor
1 4 acceptor
1 6 cation
1 6 donor
6 12 13 14 15 17 18 rings
6 13 15 16 19 20 21 rings
7 5 6 7 8 9 10 11 rings

>  <PUBCHEM_HEAVY_ATOM_COUNT>  (1) 
21

>  <PUBCHEM_ATOM_DEF_STEREO_COUNT>  (1) 
0

>  <PUBCHEM_ATOM_UDEF_STEREO_COUNT>  (1) 
0

>  <PUBCHEM_BOND_DEF_STEREO_COUNT>  (1) 
0

>  <PUBCHEM_BOND_UDEF_STEREO_COUNT>  (1) 
0

>  <PUBCHEM_ISOTOPIC_ATOM_COUNT>  (1) 
0

>  <PUBCHEM_COMPONENT_COUNT>  (1) 
1

>  <PUBCHEM_CACTVS_TAUTO_COUNT>  (1) 
1

>  <PUBCHEM_CONFORMER_ID>  (1) 
0000107900000001

>  <PUBCHEM_MMFF94_ENERGY>  (1) 
55.9999

>  <PUBCHEM_FEATURE_SELFOVERLAP>  (1) 
35.564

>  <PUBCHEM_SHAPE_FINGERPRINT>  (1) 
10366900 7 17846785079442884834
10693767 8 18055617655211857743
11112241 14 16986850558184733248
11458722 379 18334577906409189231
12236239 1 16732698350818919832
12403259 226 18340764957508106529
13134695 92 17131825495286431936
13140716 1 18045790241387509419
13402501 40 18413108359638390118
13544592 145 18411139087300225780
13544653 18 18130794451471581796
14115302 16 18187373146609837476
14251757 17 18340206284819723242
14386348 63 18343304773348980354
14573314 32 18411136922457425588
14790565 3 17475519378729656657
14866123 147 17408816423287006728
15042514 8 18117281569942470899
15099037 51 18334013899819856207
15196674 1 18410011013760246599
15375358 24 18341892996086999430
16945 1 18187076300298576243
17349148 13 18342175557584934504
17804303 29 18408884070355861577
17834072 14 18342177761050804902
18186145 218 18337953389668233505
19141452 34 18201441432400398727
200 152 17346881143441950170
20645477 70 17775010076804399214
20871999 31 18187374228830787262
21267235 1 18262241122976736579
21279426 13 18267584606788176967
21285901 2 18335139743855162430
21781051 124 17605009159870520123
221357 26 18342453751406948165
23175994 123 17989490731533875913
23402539 116 18408877438952574629
23557571 272 18409730672918678664
23558518 356 17913790331293698872
23559900 14 18412546484101714086
2748010 2 18047189936948749371
2838139 119 15575534913679011031
3004659 81 18187647952072471666
335352 9 18334856143671395757
350125 39 18408324363746287985
4214541 1 18410575071825864245
495365 180 17702930526956756368
5104073 3 18341894065095981139
5283173 99 18339642226928679004
59755656 215 18334287665926759311
69090 78 18343580758925145607
9709674 26 18339080505050723414

>  <PUBCHEM_SHAPE_MULTIPOLES>  (1) 
416.19
10.76
2.35
1.01
3.75
0.13
-0.07
2.19
1.98
-1.01
-0.09
0.52
-0.08
1.28

>  <PUBCHEM_SHAPE_SELFOVERLAP>  (1) 
869.534

>  <PUBCHEM_SHAPE_VOLUME>  (1) 
234.6

>  <PUBCHEM_COORDINATE_TYPE>  (1) 
2
5
10

$$$$
