42184
     RDKit          3D

 32 33  0  0  1  0  0  0  0  0999 V2000
    3.4705   -2.1132    0.6132 O   0  0  0  0  0  0  0  0  0  0  0  0
   -4.9659   -0.1024    1.0238 O   0  0  0  0  0  0  0  0  0  0  0  0
   -1.4984    1.0729   -1.6890 O   0  0  0  0  0  0  0  0  0  0  0  0
   -4.8304   -1.7808   -0.5654 N   0  0  0  0  0  0  0  0  0  0  0  0
   -2.5049    0.7832    0.3798 N   0  0  0  0  0  0  0  0  0  0  0  0
    6.3066   -0.0327   -0.4823 N   0  0  0  0  0  0  0  0  0  0  0  0
   -2.7604   -0.6332    0.2447 C   0  0  0  0  0  0  0  0  0  0  0  0
   -2.0958   -1.4268    1.3764 C   0  0  0  0  0  0  0  0  0  0  0  0
   -4.2787   -0.8180    0.2867 C   0  0  0  0  0  0  0  0  0  0  0  0
   -0.6115   -1.6097    1.1716 C   0  0  0  0  0  0  0  0  0  0  0  0
   -6.2663   -2.0195   -0.6537 C   0  0  0  0  0  0  0  0  0  0  0  0
   -4.0116   -2.6230   -1.4339 C   0  0  0  0  0  0  0  0  0  0  0  0
    5.4744   -1.2192   -0.3494 C   0  0  0  0  0  0  0  0  0  0  0  0
   -0.1342   -2.7232    0.4803 C   0  0  0  0  0  0  0  0  0  0  0  0
    0.2829   -0.6654    1.6756 C   0  0  0  0  0  0  0  0  0  0  0  0
    4.2644   -0.9309    0.5249 C   0  0  0  0  0  0  0  0  0  0  0  0
    7.1467   -0.1204   -1.6793 C   0  0  0  0  0  0  0  0  0  0  0  0
    7.1405    0.1515    0.7079 C   0  0  0  0  0  0  0  0  0  0  0  0
    2.1321   -1.9482    0.7966 C   0  0  0  0  0  0  0  0  0  0  0  0
    1.2375   -2.8924    0.2927 C   0  0  0  0  0  0  0  0  0  0  0  0
    1.6549   -0.8346    1.4879 C   0  0  0  0  0  0  0  0  0  0  0  0
   -1.8865    1.5240   -0.6146 C   0  0  0  0  0  0  0  0  0  0  0  0
   -6.7157   -3.0730    0.3377 C   0  0  0  0  0  0  0  0  0  0  0  0
   -3.7975   -1.9802   -2.7887 C   0  0  0  0  0  0  0  0  0  0  0  0
    8.1112   -1.2854   -1.5961 C   0  0  0  0  0  0  0  0  0  0  0  0
    7.9640    1.4197    0.6175 C   0  0  0  0  0  0  0  0  0  0  0  0
   -1.6723    2.9627   -0.3116 C   0  0  0  0  0  0  0  0  0  0  0  0
   -0.6237    3.6544   -0.9178 C   0  0  0  0  0  0  0  0  0  0  0  0
   -2.5202    3.6218    0.5787 C   0  0  0  0  0  0  0  0  0  0  0  0
   -0.4226    5.0051   -0.6337 C   0  0  0  0  0  0  0  0  0  0  0  0
   -2.3191    4.9726    0.8628 C   0  0  0  0  0  0  0  0  0  0  0  0
   -1.2703    5.6641    0.2566 C   0  0  0  0  0  0  0  0  0  0  0  0
  1 16  1  0
  1 19  1  0
  2  9  2  0
  3 22  2  0
  4  9  1  0
  4 11  1  0
  4 12  1  0
  5  7  1  0
  5 22  1  0
  6 13  1  0
  6 17  1  0
  6 18  1  0
  7  8  1  0
  7  9  1  0
  8 10  1  0
 10 14  2  0
 10 15  1  0
 11 23  1  0
 12 24  1  0
 13 16  1  0
 14 20  1  0
 15 21  2  0
 17 25  1  0
 18 26  1  0
 19 20  2  0
 19 21  1  0
 22 27  1  0
 27 28  2  0
 27 29  1  0
 28 30  1  0
 29 31  2  0
 30 32  2  0
 31 32  1  0
M  END
>  <PUBCHEM_COMPOUND_CID>  (1) 
42184

>  <PUBCHEM_CONFORMER_RMSD>  (1) 
1.2

>  <PUBCHEM_CONFORMER_DIVERSEORDER>  (1) 
1
106
94
56
32
33
146
75
59
55
124
144
139
145
57
133
103
50
132
102
45
125
25
83
128
104
111
67
42
93
54
64
116
37
16
44
9
80
142
95
69
101
72
88
129
38
81
141
15
147
28
89
74
23
140
48
134
65
143
19
84
119
100
62
131
79
105
43
8
127
97
13
63
138
53
12
87
122
24
96
115
29
30
108
82
10
137
114
99
14
91
76
86
11
118
34
35
135
40
58
36
4
5
126
51
73
21
39
123
71
112
109
61
31
92
68
7
113
90
20
148
120
130
18
117
98
110
121
60
26
66
47
107
136
85
77
46
22
49
27
78
17
70
2
52
41
6
3

>  <PUBCHEM_MMFF94_PARTIAL_CHARGES>  (1) 
38
1 -0.36
10 -0.14
11 0.3
12 0.3
13 0.27
14 -0.15
15 -0.15
16 0.28
17 0.27
18 0.27
19 0.08
2 -0.57
20 -0.15
21 -0.15
22 0.54
27 0.09
28 -0.15
29 -0.15
3 -0.57
30 -0.15
31 -0.15
32 -0.15
36 0.37
4 -0.66
43 0.15
44 0.15
5 -0.73
51 0.15
52 0.15
6 -0.81
65 0.15
66 0.15
67 0.15
68 0.15
69 0.15
7 0.36
8 0.14
9 0.57

>  <PUBCHEM_EFFECTIVE_ROTOR_COUNT>  (1) 
15

>  <PUBCHEM_PHARMACOPHORE_FEATURES>  (1) 
7
1 1 acceptor
1 2 acceptor
1 3 acceptor
1 5 donor
1 6 cation
6 10 14 15 19 20 21 rings
6 27 28 29 30 31 32 rings

>  <PUBCHEM_HEAVY_ATOM_COUNT>  (1) 
32

>  <PUBCHEM_ATOM_DEF_STEREO_COUNT>  (1) 
0

>  <PUBCHEM_ATOM_UDEF_STEREO_COUNT>  (1) 
1

>  <PUBCHEM_BOND_DEF_STEREO_COUNT>  (1) 
0

>  <PUBCHEM_BOND_UDEF_STEREO_COUNT>  (1) 
0

>  <PUBCHEM_ISOTOPIC_ATOM_COUNT>  (1) 
0

>  <PUBCHEM_COMPONENT_COUNT>  (1) 
1

>  <PUBCHEM_CACTVS_TAUTO_COUNT>  (1) 
2

>  <PUBCHEM_CONFORMER_ID>  (1) 
0000A4C800000001

>  <PUBCHEM_MMFF94_ENERGY>  (1) 
81.8047

>  <PUBCHEM_FEATURE_SELFOVERLAP>  (1) 
35.522

>  <PUBCHEM_SHAPE_FINGERPRINT>  (1) 
10670039 82 18261397711653358422
10985338 15 17552101505706645249
11101153 10 18407760344008224520
11477941 20 18341324557186525236
11505856 67 18123458385337886037
11524674 6 10807935994121451063
11621639 148 18122904493258729218
12788726 201 18261945263595480355
13540713 5 17898282810774209698
13690498 29 18273213071435926478
13911987 19 18040707083100365235
14068700 675 18334860549575170756
14114211 80 17551518738843108345
14394314 77 18409171004542259321
14400156 266 18272931631821033957
14955137 171 18337953527967199219
15198563 99 18411135818777931709
19611394 137 17824837869100977563
21120745 212 18411417272464473517
21344244 246 17976536440628865059
21796203 349 18118711983135842163
21927370 108 18336845168511673699
22122407 14 14779558893925563358
23516275 100 18194395822494847856
24180151 214 17458341931558728203
249057 25 17822846465117869114
283562 15 18261390005907283227
3610482 184 18043550317390298334
4017518 198 16973629119719072440
4353968 344 18339920412572526846
497634 4 17632582634365604490
57527585 21 18123449619129449277
6058803 2 17827063018288955170
6371009 1 18187082880320524444
6608658 132 18409162208264380462
6700243 42 18058751107961420470
7808743 9 18048314444869612912

>  <PUBCHEM_SHAPE_MULTIPOLES>  (1) 
625.99
18.17
6.62
1.68
38.76
13.57
-0.77
-11.97
-5.52
-8.45
-0.1
-0.07
-0.8
-0.82

>  <PUBCHEM_SHAPE_SELFOVERLAP>  (1) 
1278.421

>  <PUBCHEM_SHAPE_VOLUME>  (1) 
362.2

>  <PUBCHEM_COORDINATE_TYPE>  (1) 
2
5
10

$$$$
