42181
     RDKit          3D

 32 33  0  0  1  0  0  0  0  0999 V2000
   -2.9499   -1.0139    1.0037 O   0  0  0  0  0  0  0  0  0  0  0  0
    5.4485   -1.4484   -1.3544 O   0  0  0  0  0  0  0  0  0  0  0  0
    2.0285    0.7664    1.3842 O   0  0  0  0  0  0  0  0  0  0  0  0
   -6.2282    0.0110   -0.3285 N   0  0  0  0  0  0  0  0  0  0  0  0
    3.4961    0.1597   -0.3061 N   0  0  0  0  0  0  0  0  0  0  0  0
    4.9834   -2.9808    0.3277 N   0  0  0  0  0  0  0  0  0  0  0  0
   -7.4646   -0.7523   -0.5157 C   0  0  0  0  0  0  0  0  0  0  0  0
   -6.5198    1.2963    0.3111 C   0  0  0  0  0  0  0  0  0  0  0  0
   -5.2680   -0.7492    0.4576 C   0  0  0  0  0  0  0  0  0  0  0  0
   -7.1450   -2.2219   -0.7749 C   0  0  0  0  0  0  0  0  0  0  0  0
   -8.2614   -0.1530   -1.6700 C   0  0  0  0  0  0  0  0  0  0  0  0
   -5.4104    2.3004    0.0109 C   0  0  0  0  0  0  0  0  0  0  0  0
   -6.6808    1.0905    1.8140 C   0  0  0  0  0  0  0  0  0  0  0  0
   -3.8533   -0.2543    0.2020 C   0  0  0  0  0  0  0  0  0  0  0  0
    2.2556   -1.8379   -1.0596 C   0  0  0  0  0  0  0  0  0  0  0  0
    3.3514   -1.2660   -0.1526 C   0  0  0  0  0  0  0  0  0  0  0  0
    0.8681   -1.6181   -0.5083 C   0  0  0  0  0  0  0  0  0  0  0  0
   -1.6981   -1.2121    0.5076 C   0  0  0  0  0  0  0  0  0  0  0  0
    0.1618   -0.4616   -0.8395 C   0  0  0  0  0  0  0  0  0  0  0  0
    0.2912   -2.5713    0.3309 C   0  0  0  0  0  0  0  0  0  0  0  0
   -1.1214   -0.2586   -0.3315 C   0  0  0  0  0  0  0  0  0  0  0  0
   -0.9918   -2.3684    0.8389 C   0  0  0  0  0  0  0  0  0  0  0  0
    4.6990   -1.8948   -0.4884 C   0  0  0  0  0  0  0  0  0  0  0  0
    2.8116    1.0694    0.4878 C   0  0  0  0  0  0  0  0  0  0  0  0
    6.2184   -3.7278    0.2528 C   0  0  0  0  0  0  0  0  0  0  0  0
    3.0494    2.5045    0.1863 C   0  0  0  0  0  0  0  0  0  0  0  0
    7.3421   -3.0164    0.9781 C   0  0  0  0  0  0  0  0  0  0  0  0
    2.0685    3.4512    0.4820 C   0  0  0  0  0  0  0  0  0  0  0  0
    4.2539    2.9056   -0.3919 C   0  0  0  0  0  0  0  0  0  0  0  0
    2.2918    4.7988    0.1992 C   0  0  0  0  0  0  0  0  0  0  0  0
    4.4772    4.2532   -0.6744 C   0  0  0  0  0  0  0  0  0  0  0  0
    3.4961    5.1998   -0.3789 C   0  0  0  0  0  0  0  0  0  0  0  0
  1 14  1  0
  1 18  1  0
  2 23  2  0
  3 24  2  0
  4  7  1  0
  4  8  1  0
  4  9  1  0
  5 16  1  0
  5 24  1  0
  6 23  1  0
  6 25  1  0
  7 10  1  0
  7 11  1  0
  8 12  1  0
  8 13  1  0
  9 14  1  0
 15 16  1  0
 15 17  1  0
 16 23  1  0
 17 19  2  0
 17 20  1  0
 18 21  2  0
 18 22  1  0
 19 21  1  0
 20 22  2  0
 24 26  1  0
 25 27  1  0
 26 28  2  0
 26 29  1  0
 28 30  1  0
 29 31  2  0
 30 32  2  0
 31 32  1  0
M  END
>  <PUBCHEM_COMPOUND_CID>  (1) 
42181

>  <PUBCHEM_CONFORMER_RMSD>  (1) 
1.2

>  <PUBCHEM_CONFORMER_DIVERSEORDER>  (1) 
91
90
46
44
89
51
26
49
65
35
17
15
6
4
93
9
42
13
77
8
80
79
47
63
11
72
81
19
22
64
2
20
23
28
59
55
48
29
12
14
78
7
85
60
24
87
18
73
37
52
27
74
57
84
1
86
45
56
94
62
83
3
76
88
16
70
21
36
39
25
31
41
32
34
5
69
71
30
75
50
61
43
67
38
54
10
58
66
40
68
53
82
92
33

>  <PUBCHEM_MMFF94_PARTIAL_CHARGES>  (1) 
38
1 -0.36
14 0.28
15 0.14
16 0.36
17 -0.14
18 0.08
19 -0.15
2 -0.57
20 -0.15
21 -0.15
22 -0.15
23 0.57
24 0.54
25 0.3
26 0.09
28 -0.15
29 -0.15
3 -0.57
30 -0.15
31 -0.15
32 -0.15
4 -0.81
5 -0.73
54 0.15
55 0.15
56 0.15
57 0.15
58 0.37
59 0.37
6 -0.73
65 0.15
66 0.15
67 0.15
68 0.15
69 0.15
7 0.27
8 0.27
9 0.27

>  <PUBCHEM_EFFECTIVE_ROTOR_COUNT>  (1) 
14

>  <PUBCHEM_PHARMACOPHORE_FEATURES>  (1) 
10
1 1 acceptor
1 2 acceptor
1 3 acceptor
1 4 cation
1 5 donor
1 6 donor
3 7 10 11 hydrophobe
3 8 12 13 hydrophobe
6 17 18 19 20 21 22 rings
6 26 28 29 30 31 32 rings

>  <PUBCHEM_HEAVY_ATOM_COUNT>  (1) 
32

>  <PUBCHEM_ATOM_DEF_STEREO_COUNT>  (1) 
0

>  <PUBCHEM_ATOM_UDEF_STEREO_COUNT>  (1) 
1

>  <PUBCHEM_BOND_DEF_STEREO_COUNT>  (1) 
0

>  <PUBCHEM_BOND_UDEF_STEREO_COUNT>  (1) 
0

>  <PUBCHEM_ISOTOPIC_ATOM_COUNT>  (1) 
0

>  <PUBCHEM_COMPONENT_COUNT>  (1) 
1

>  <PUBCHEM_CACTVS_TAUTO_COUNT>  (1) 
4

>  <PUBCHEM_CONFORMER_ID>  (1) 
0000A4C50000005B

>  <PUBCHEM_MMFF94_ENERGY>  (1) 
95.5617

>  <PUBCHEM_FEATURE_SELFOVERLAP>  (1) 
50.745

>  <PUBCHEM_SHAPE_FINGERPRINT>  (1) 
10050765 1 18266742565829521567
10411042 1 18266739087622897422
11456790 92 18115317656741868787
12107698 1 18341895143391227927
12166972 35 18272652320442223809
12925494 130 18194120952527900680
13878862 14 18336532910971336053
14068700 675 18201439112817151624
14849402 71 18410299103028920984
15082195 135 18199743812285273937
15198563 99 17981073859419595188
15439362 3 18265897055036963648
19301679 30 17977659819881470482
19302320 297 18196672700458349889
21315763 129 18340768152926624055
21315764 268 18335698343476373365
22311459 1 18338801113218307379
23559900 14 18409731776530400531
23576562 1 18270125733143209726
249057 25 17918000468811532851
249057 3 18201996620973753399
3103668 31 17903081036584053116
44555599 121 18201730518560259809
58902169 19 18131345298302388639
6086070 43 18190448381895938681

>  <PUBCHEM_SHAPE_MULTIPOLES>  (1) 
625.99
21.51
6.11
1.15
35.03
7.56
-0.05
-7.22
2.03
-15.01
-0.04
0.99
-0.14
-1.72

>  <PUBCHEM_SHAPE_SELFOVERLAP>  (1) 
1285.57

>  <PUBCHEM_SHAPE_VOLUME>  (1) 
361

>  <PUBCHEM_COORDINATE_TYPE>  (1) 
2
5
10

$$$$
