42185
     RDKit          3D

 34 36  0  0  1  0  0  0  0  0999 V2000
    3.1350   -0.0766   -2.3515 O   0  0  0  0  0  0  0  0  0  0  0  0
   -5.2310   -1.3287   -0.3592 O   0  0  0  0  0  0  0  0  0  0  0  0
   -2.8714    0.8663    1.9493 O   0  0  0  0  0  0  0  0  0  0  0  0
    6.2030   -0.0003   -0.3118 N   0  0  0  0  0  0  0  0  0  0  0  0
    8.0249    0.4598    1.8853 N   0  0  0  0  0  0  0  0  0  0  0  0
   -4.0623   -2.8706    0.9126 N   0  0  0  0  0  0  0  0  0  0  0  0
   -3.1738    0.4088   -0.3036 N   0  0  0  0  0  0  0  0  0  0  0  0
    5.7099    0.2438    1.0491 C   0  0  0  0  0  0  0  0  0  0  0  0
    7.4910    0.6733   -0.5182 C   0  0  0  0  0  0  0  0  0  0  0  0
    6.7366   -0.2131    2.0912 C   0  0  0  0  0  0  0  0  0  0  0  0
    8.5182    0.2178    0.5240 C   0  0  0  0  0  0  0  0  0  0  0  0
    5.2239    0.4364   -1.3050 C   0  0  0  0  0  0  0  0  0  0  0  0
    9.0042    0.0211    2.8778 C   0  0  0  0  0  0  0  0  0  0  0  0
    4.0686   -0.5485   -1.3889 C   0  0  0  0  0  0  0  0  0  0  0  0
   -2.8585   -1.0003   -0.2320 C   0  0  0  0  0  0  0  0  0  0  0  0
   -2.2760   -1.5050   -1.5664 C   0  0  0  0  0  0  0  0  0  0  0  0
   -0.8485   -1.1272   -1.7728 C   0  0  0  0  0  0  0  0  0  0  0  0
    1.8228   -0.4228   -2.1611 C   0  0  0  0  0  0  0  0  0  0  0  0
   -4.1594   -1.7306    0.1075 C   0  0  0  0  0  0  0  0  0  0  0  0
   -0.5288    0.0719   -2.4099 C   0  0  0  0  0  0  0  0  0  0  0  0
    0.1676   -1.9741   -1.3298 C   0  0  0  0  0  0  0  0  0  0  0  0
    0.8068    0.4240   -2.6041 C   0  0  0  0  0  0  0  0  0  0  0  0
    1.5032   -1.6218   -1.5239 C   0  0  0  0  0  0  0  0  0  0  0  0
   -2.7920   -3.3395    1.4607 C   0  0  0  0  0  0  0  0  0  0  0  0
   -5.2217   -3.6808    1.2682 C   0  0  0  0  0  0  0  0  0  0  0  0
   -3.1523    1.2318    0.8109 C   0  0  0  0  0  0  0  0  0  0  0  0
   -2.5118   -2.7246    2.8164 C   0  0  0  0  0  0  0  0  0  0  0  0
   -5.4605   -4.7821    0.2560 C   0  0  0  0  0  0  0  0  0  0  0  0
   -3.5267    2.6501    0.5755 C   0  0  0  0  0  0  0  0  0  0  0  0
   -4.0774    3.4069    1.6099 C   0  0  0  0  0  0  0  0  0  0  0  0
   -3.3272    3.2252   -0.6795 C   0  0  0  0  0  0  0  0  0  0  0  0
   -4.4287    4.7386    1.3892 C   0  0  0  0  0  0  0  0  0  0  0  0
   -3.6785    4.5571   -0.9002 C   0  0  0  0  0  0  0  0  0  0  0  0
   -4.2292    5.3137    0.1343 C   0  0  0  0  0  0  0  0  0  0  0  0
  1 14  1  0
  1 18  1  0
  2 19  2  0
  3 26  2  0
  4  8  1  0
  4  9  1  0
  4 12  1  0
  5 10  1  0
  5 11  1  0
  5 13  1  0
  6 19  1  0
  6 24  1  0
  6 25  1  0
  7 15  1  0
  7 26  1  0
  8 10  1  0
  9 11  1  0
 12 14  1  0
 15 16  1  0
 15 19  1  0
 16 17  1  0
 17 20  2  0
 17 21  1  0
 18 22  2  0
 18 23  1  0
 20 22  1  0
 21 23  2  0
 24 27  1  0
 25 28  1  0
 26 29  1  0
 29 30  2  0
 29 31  1  0
 30 32  1  0
 31 33  2  0
 32 34  2  0
 33 34  1  0
M  END
>  <PUBCHEM_COMPOUND_CID>  (1) 
42185

>  <PUBCHEM_CONFORMER_RMSD>  (1) 
1.2

>  <PUBCHEM_CONFORMER_DIVERSEORDER>  (1) 
1
65
181
85
110
76
117
137
89
68
106
164
184
142
95
144
87
122
143
61
154
62
119
104
163
178
81
67
167
23
10
27
183
12
49
114
112
101
34
157
78
149
152
165
66
71
82
91
129
52
179
175
139
121
180
56
177
130
53
30
59
88
102
182
83
74
131
153
63
44
69
169
58
161
96
146
13
176
50
57
174
79
166
107
171
109
172
15
162
80
18
138
75
125
140
173
141
111
32
97
90
185
145
31
155
135
9
70
159
99
170
21
77
8
6
156
136
187
60
92
20
116
17
160
64
186
55
124
25
3
14
47
132
168
103
46
38
42
108
118
73
115
123
2
100
98
133
158
4
72
37
54
128
94
11
28
127
151
113
16
5
86
150
26
126
41
134
93
19
45
35
7
48
33
105
147
40
22
51
39
84
36
43
24
120
29
148

>  <PUBCHEM_MMFF94_PARTIAL_CHARGES>  (1) 
42
1 -0.36
10 0.27
11 0.27
12 0.27
13 0.27
14 0.28
15 0.36
16 0.14
17 -0.14
18 0.08
19 0.57
2 -0.57
20 -0.15
21 -0.15
22 -0.15
23 -0.15
24 0.3
25 0.3
26 0.54
29 0.09
3 -0.57
30 -0.15
31 -0.15
32 -0.15
33 -0.15
34 -0.15
4 -0.81
5 -0.81
53 0.37
54 0.15
55 0.15
56 0.15
57 0.15
6 -0.66
68 0.15
69 0.15
7 -0.73
70 0.15
71 0.15
72 0.15
8 0.27
9 0.27

>  <PUBCHEM_EFFECTIVE_ROTOR_COUNT>  (1) 
14.2

>  <PUBCHEM_PHARMACOPHORE_FEATURES>  (1) 
9
1 1 acceptor
1 2 acceptor
1 3 acceptor
1 4 cation
1 5 cation
1 7 donor
6 17 18 20 21 22 23 rings
6 29 30 31 32 33 34 rings
6 4 5 8 9 10 11 rings

>  <PUBCHEM_HEAVY_ATOM_COUNT>  (1) 
34

>  <PUBCHEM_ATOM_DEF_STEREO_COUNT>  (1) 
0

>  <PUBCHEM_ATOM_UDEF_STEREO_COUNT>  (1) 
1

>  <PUBCHEM_BOND_DEF_STEREO_COUNT>  (1) 
0

>  <PUBCHEM_BOND_UDEF_STEREO_COUNT>  (1) 
0

>  <PUBCHEM_ISOTOPIC_ATOM_COUNT>  (1) 
0

>  <PUBCHEM_COMPONENT_COUNT>  (1) 
1

>  <PUBCHEM_CACTVS_TAUTO_COUNT>  (1) 
2

>  <PUBCHEM_CONFORMER_ID>  (1) 
0000A4C900000001

>  <PUBCHEM_MMFF94_ENERGY>  (1) 
87.7829

>  <PUBCHEM_FEATURE_SELFOVERLAP>  (1) 
45.673

>  <PUBCHEM_SHAPE_FINGERPRINT>  (1) 
10074138 170 18261684679492671413
10554248 39 14261357938905657212
10930396 42 18412270545358934809
11136131 41 16323158109662408663
11607047 74 17255116750194347933
12655364 131 17897985976583244654
13540713 4 17915482522364141782
13560911 23 18334299790461303932
13947947 63 18193263106094189384
14068700 675 18043532918045875631
14705955 166 18411981373030865075
14950920 106 18041001790986814092
15328684 2 18114186337578536148
16067689 68 18115292390472997242
16114785 44 18060413595533805383
16993427 108 18044939223620118867
18470217 77 18412549837991462441
19246450 95 17387683904528693196
21033648 29 17989213624828672478
21133410 221 17915999383082220520
21304303 282 18263648373458816735
22956985 138 17476925027284172959
23522609 53 17532116963592705252
23929065 36 18412550907722993183
376196 1 17695639455078892029
4112364 45 17977105665170803737
4938544 92 18410288082406778692
5104073 3 18336542712751694398
6636798 310 18115863165260829882
9555976 147 18334855000688011402
9896288 288 18410016524214434734

>  <PUBCHEM_SHAPE_MULTIPOLES>  (1) 
662.17
21.5
6.22
2.89
63.84
4.85
0.28
2.87
15.47
-21.54
2.7
3.09
-0.7
0.93

>  <PUBCHEM_SHAPE_SELFOVERLAP>  (1) 
1367.003

>  <PUBCHEM_SHAPE_VOLUME>  (1) 
377.9

>  <PUBCHEM_COORDINATE_TYPE>  (1) 
2
5
10

$$$$
