4219
     RDKit          3D

 26 26  0  0  1  0  0  0  0  0999 V2000
   -1.2210   -0.2216    2.3773 O   0  0  0  0  0  0  0  0  0  0  0  0
    0.1751    3.2884   -0.5168 O   0  0  0  0  0  0  0  0  0  0  0  0
   -5.6624   -0.3104   -0.6466 O   0  0  0  0  0  0  0  0  0  0  0  0
   -5.1665    1.1312   -2.8831 O   0  0  0  0  0  0  0  0  0  0  0  0
   -0.5392    0.8949    0.4632 N   0  0  0  0  0  0  0  0  0  0  0  0
    1.9542    3.5201    0.9549 N   0  0  0  0  0  0  0  0  0  0  0  0
   -4.3386    1.2263   -1.7568 N   0  0  0  0  0  0  0  0  0  0  0  0
   -2.5932   -0.4332    0.4122 C   0  0  0  0  0  0  0  0  0  0  0  0
   -3.0481   -1.8277    0.8884 C   0  0  0  0  0  0  0  0  0  0  0  0
   -2.2546   -3.0116    0.2956 C   0  0  0  0  0  0  0  0  0  0  0  0
   -3.7450    0.5851    0.4871 C   0  0  0  0  0  0  0  0  0  0  0  0
   -1.3869    0.0820    1.1962 C   0  0  0  0  0  0  0  0  0  0  0  0
    0.6537    1.4815    1.0273 C   0  0  0  0  0  0  0  0  0  0  0  0
    1.8733    0.5635    0.8833 C   0  0  0  0  0  0  0  0  0  0  0  0
   -2.7880   -4.3667    0.7620 C   0  0  0  0  0  0  0  0  0  0  0  0
   -0.7766   -2.8821    0.6757 C   0  0  0  0  0  0  0  0  0  0  0  0
    2.3041    0.3216   -0.5701 C   0  0  0  0  0  0  0  0  0  0  0  0
   -4.6943    0.4461   -0.6865 C   0  0  0  0  0  0  0  0  0  0  0  0
    0.8713    2.8544    0.3987 C   0  0  0  0  0  0  0  0  0  0  0  0
    3.5312   -0.5526   -0.6436 C   0  0  0  0  0  0  0  0  0  0  0  0
    4.8008    0.0253   -0.6323 C   0  0  0  0  0  0  0  0  0  0  0  0
    3.3966   -1.9388   -0.7223 C   0  0  0  0  0  0  0  0  0  0  0  0
    2.3858    4.8229    0.5048 C   0  0  0  0  0  0  0  0  0  0  0  0
    5.9357   -0.7829   -0.7001 C   0  0  0  0  0  0  0  0  0  0  0  0
    4.5316   -2.7469   -0.7898 C   0  0  0  0  0  0  0  0  0  0  0  0
    5.8011   -2.1689   -0.7787 C   0  0  0  0  0  0  0  0  0  0  0  0
  1 12  2  0
  2 19  2  0
  3 18  2  0
  4  7  1  0
  5 12  1  0
  5 13  1  0
  6 19  1  0
  6 23  1  0
  7 18  1  0
  8  9  1  0
  8 11  1  0
  8 12  1  0
  9 10  1  0
 10 15  1  0
 10 16  1  0
 11 18  1  0
 13 14  1  0
 13 19  1  0
 14 17  1  0
 17 20  1  0
 20 21  2  0
 20 22  1  0
 21 24  1  0
 22 25  2  0
 24 26  2  0
 25 26  1  0
M  END
>  <PUBCHEM_COMPOUND_CID>  (1) 
4219

>  <PUBCHEM_CONFORMER_RMSD>  (1) 
1.4

>  <PUBCHEM_CONFORMER_DIVERSEORDER>  (1) 
1
45
47
43
90
12
122
55
65
130
56
27
114
81
62
96
103
54
40
110
17
70
112
82
80
118
33
46
100
99
44
36
32
59
6
22
14
91
119
94
120
73
66
30
8
61
11
16
95
125
50
121
2
5
87
64
84
126
102
67
131
134
75
106
97
35
42
109
111
92
13
21
53
104
98
29
132
78
63
24
52
116
18
57
88
107
58
115
86
37
108
79
41
39
76
117
124
69
19
71
31
128
89
48
23
68
133
113
25
20
77
7
101
15
93
38
60
3
129
123
85
10
51
28
49
4
34
127
26
83
105
72
9
74

>  <PUBCHEM_MMFF94_PARTIAL_CHARGES>  (1) 
30
1 -0.57
11 0.06
12 0.57
13 0.36
17 0.14
18 0.57
19 0.57
2 -0.57
20 -0.14
21 -0.15
22 -0.15
23 0.3
24 -0.15
25 -0.15
26 -0.15
3 -0.57
36 0.37
4 -0.44
45 0.37
46 0.37
47 0.15
48 0.15
5 -0.73
52 0.15
53 0.15
54 0.15
55 0.4
6 -0.73
7 -0.39
8 0.06

>  <PUBCHEM_EFFECTIVE_ROTOR_COUNT>  (1) 
13

>  <PUBCHEM_PHARMACOPHORE_FEATURES>  (1) 
9
1 1 acceptor
1 2 acceptor
1 3 acceptor
1 5 donor
1 6 donor
1 7 donor
3 10 15 16 hydrophobe
4 8 9 10 11 hydrophobe
6 20 21 22 24 25 26 rings

>  <PUBCHEM_HEAVY_ATOM_COUNT>  (1) 
26

>  <PUBCHEM_ATOM_DEF_STEREO_COUNT>  (1) 
0

>  <PUBCHEM_ATOM_UDEF_STEREO_COUNT>  (1) 
2

>  <PUBCHEM_BOND_DEF_STEREO_COUNT>  (1) 
0

>  <PUBCHEM_BOND_UDEF_STEREO_COUNT>  (1) 
0

>  <PUBCHEM_ISOTOPIC_ATOM_COUNT>  (1) 
0

>  <PUBCHEM_COMPONENT_COUNT>  (1) 
1

>  <PUBCHEM_CACTVS_TAUTO_COUNT>  (1) 
12

>  <PUBCHEM_CONFORMER_ID>  (1) 
0000107B00000001

>  <PUBCHEM_MMFF94_ENERGY>  (1) 
52.5621

>  <PUBCHEM_FEATURE_SELFOVERLAP>  (1) 
45.696

>  <PUBCHEM_SHAPE_FINGERPRINT>  (1) 
10483366 6 18193269690168030469
11621639 336 17548983252603958433
12553582 1 18054542199299338042
12555020 224 18411702050033560519
12596602 18 13829842483775653478
12788726 201 18120932811502148034
13944108 23 17393582711555848109
15183329 4 18115588132370682703
17913733 40 7997970176179577716
19958102 18 18044095653234887662
20600515 1 18057630718681993768
20775438 99 18052506023807614607
21315764 371 15195279807464415558
23559900 14 18342737476709372984
255183 313 17480887237177172640
3004659 81 18187933850696724678
3027735 51 17980765930557665326
312425 83 17823143482779162724
339767 52 18342177744061431042
3729539 64 18264203609008201263
4015057 19 18342457066657880017
4280585 95 18410571791151124538
46194498 28 18043816596124109197
463206 1 18337405867759897498
5283173 99 18116152173583920812
613672 6 18342460309959607378
7399639 24 17546447138411586465
9709674 26 18196087970250600411

>  <PUBCHEM_SHAPE_MULTIPOLES>  (1) 
496.65
12.18
5.2
1.56
3.05
2.2
-0.57
-5.84
-6.96
1.91
1.19
-2.13
0.44
3.07

>  <PUBCHEM_SHAPE_SELFOVERLAP>  (1) 
993.241

>  <PUBCHEM_SHAPE_VOLUME>  (1) 
291.6

>  <PUBCHEM_COORDINATE_TYPE>  (1) 
2
5
10

$$$$
