42195
     RDKit          3D

 33 34  0  0  1  0  0  0  0  0999 V2000
   -3.7775    1.1885    1.0372 O   0  0  0  0  0  0  0  0  0  0  0  0
    4.7948   -0.1593    1.3113 O   0  0  0  0  0  0  0  0  0  0  0  0
   -1.9171   -0.8283   -1.8241 O   0  0  0  0  0  0  0  0  0  0  0  0
   -2.8519    2.8212   -0.3187 N   0  0  0  0  0  0  0  0  0  0  0  0
   -1.7861   -0.5347    0.4722 N   0  0  0  0  0  0  0  0  0  0  0  0
    7.4267   -0.0799   -1.2653 N   0  0  0  0  0  0  0  0  0  0  0  0
   -1.4747    0.8767    0.4431 C   0  0  0  0  0  0  0  0  0  0  0  0
   -0.6637    1.2927    1.6765 C   0  0  0  0  0  0  0  0  0  0  0  0
   -2.8084    1.6259    0.4071 C   0  0  0  0  0  0  0  0  0  0  0  0
   -4.0485    3.6516   -0.3913 C   0  0  0  0  0  0  0  0  0  0  0  0
   -1.7021    3.3318   -1.0611 C   0  0  0  0  0  0  0  0  0  0  0  0
    0.7920    0.9052    1.5795 C   0  0  0  0  0  0  0  0  0  0  0  0
   -4.1022    4.6910    0.7219 C   0  0  0  0  0  0  0  0  0  0  0  0
   -1.6678    2.8259   -2.4982 C   0  0  0  0  0  0  0  0  0  0  0  0
    1.7119    1.7879    1.0135 C   0  0  0  0  0  0  0  0  0  0  0  0
    1.2173   -0.3351    2.0553 C   0  0  0  0  0  0  0  0  0  0  0  0
   -5.3589    5.5479    0.6665 C   0  0  0  0  0  0  0  0  0  0  0  0
   -0.4608    3.3357   -3.2728 C   0  0  0  0  0  0  0  0  0  0  0  0
   -1.9833   -1.2754   -0.6821 C   0  0  0  0  0  0  0  0  0  0  0  0
    3.0572    1.4303    0.9236 C   0  0  0  0  0  0  0  0  0  0  0  0
    2.5625   -0.6927    1.9653 C   0  0  0  0  0  0  0  0  0  0  0  0
    3.4824    0.1901    1.3994 C   0  0  0  0  0  0  0  0  0  0  0  0
   -2.3221   -2.7079   -0.4821 C   0  0  0  0  0  0  0  0  0  0  0  0
    5.5401    0.3854    0.2233 C   0  0  0  0  0  0  0  0  0  0  0  0
   -1.8968   -3.3715    0.6688 C   0  0  0  0  0  0  0  0  0  0  0  0
   -3.0659   -3.3895   -1.4454 C   0  0  0  0  0  0  0  0  0  0  0  0
    6.6488   -0.5876   -0.1451 C   0  0  0  0  0  0  0  0  0  0  0  0
   -2.9593   -5.3978   -0.1069 C   0  0  0  0  0  0  0  0  0  0  0  0
   -2.2154   -4.7164    0.8564 C   0  0  0  0  0  0  0  0  0  0  0  0
   -3.3846   -4.7344   -1.2579 C   0  0  0  0  0  0  0  0  0  0  0  0
    8.1253   -1.1715   -1.9482 C   0  0  0  0  0  0  0  0  0  0  0  0
    8.3869    0.9303   -0.8140 C   0  0  0  0  0  0  0  0  0  0  0  0
   -3.2991   -6.8361    0.0925 C   0  0  0  0  0  0  0  0  0  0  0  0
  1  9  2  0
  2 22  1  0
  2 24  1  0
  3 19  2  0
  4  9  1  0
  4 10  1  0
  4 11  1  0
  5  7  1  0
  5 19  1  0
  6 27  1  0
  6 31  1  0
  6 32  1  0
  7  8  1  0
  7  9  1  0
  8 12  1  0
 10 13  1  0
 11 14  1  0
 12 15  2  0
 12 16  1  0
 13 17  1  0
 14 18  1  0
 15 20  1  0
 16 21  2  0
 19 23  1  0
 20 22  2  0
 21 22  1  0
 23 25  2  0
 23 26  1  0
 24 27  1  0
 25 29  1  0
 26 30  2  0
 28 29  2  0
 28 30  1  0
 28 33  1  0
M  END
>  <PUBCHEM_COMPOUND_CID>  (1) 
42195

>  <PUBCHEM_CONFORMER_RMSD>  (1) 
1.2

>  <PUBCHEM_CONFORMER_DIVERSEORDER>  (1) 
1
91
15
30
34
10
56
69
70
54
64
98
105
89
95
21
60
72
57
100
55
84
28
50
67
94
81
82
51
24
38
104
79
92
77
9
76
99
37
90
48
87
68
59
47
46
73
7
19
12
17
75
52
78
97
62
36
93
26
6
49
16
88
96
66
61
101
45
103
31
42
43
5
29
20
80
33
14
32
40
83
63
71
23
58
102
74
11
41
22
44
86
65
25
35
18
27
4
85
39
13
8
2
3
53

>  <PUBCHEM_MMFF94_PARTIAL_CHARGES>  (1) 
38
1 -0.57
10 0.3
11 0.3
12 -0.14
15 -0.15
16 -0.15
19 0.54
2 -0.36
20 -0.15
21 -0.15
22 0.08
23 0.09
24 0.28
25 -0.15
26 -0.15
27 0.27
28 -0.14
29 -0.15
3 -0.57
30 -0.15
31 0.27
32 0.27
33 0.14
4 -0.66
45 0.37
46 0.15
47 0.15
5 -0.73
54 0.15
55 0.15
58 0.15
59 0.15
6 -0.81
62 0.15
63 0.15
7 0.36
8 0.14
9 0.57

>  <PUBCHEM_EFFECTIVE_ROTOR_COUNT>  (1) 
15

>  <PUBCHEM_PHARMACOPHORE_FEATURES>  (1) 
9
1 1 acceptor
1 17 hydrophobe
1 18 hydrophobe
1 2 acceptor
1 3 acceptor
1 5 donor
1 6 cation
6 12 15 16 20 21 22 rings
6 23 25 26 28 29 30 rings

>  <PUBCHEM_HEAVY_ATOM_COUNT>  (1) 
33

>  <PUBCHEM_ATOM_DEF_STEREO_COUNT>  (1) 
0

>  <PUBCHEM_ATOM_UDEF_STEREO_COUNT>  (1) 
1

>  <PUBCHEM_BOND_DEF_STEREO_COUNT>  (1) 
0

>  <PUBCHEM_BOND_UDEF_STEREO_COUNT>  (1) 
0

>  <PUBCHEM_ISOTOPIC_ATOM_COUNT>  (1) 
0

>  <PUBCHEM_COMPONENT_COUNT>  (1) 
1

>  <PUBCHEM_CACTVS_TAUTO_COUNT>  (1) 
2

>  <PUBCHEM_CONFORMER_ID>  (1) 
0000A4D300000001

>  <PUBCHEM_MMFF94_ENERGY>  (1) 
83.5492

>  <PUBCHEM_FEATURE_SELFOVERLAP>  (1) 
45.671

>  <PUBCHEM_SHAPE_FINGERPRINT>  (1) 
10369192 42 18192154785272815141
107951 10 18199463281705301351
11014199 57 18120363513175593737
11315621 246 18409165550102260766
11477941 20 17749391507628056652
117089 54 17909555296056541942
11763715 3 17906185292710972073
11991303 11 18336828580973338310
12160290 23 17899939886714220793
12342043 65 17844246444417785634
131258 43 17904489850307413828
13540713 4 17917134118347915128
13690498 29 18270119149227291470
13757389 114 18410296882747444629
13785724 45 17907296912083995547
14040221 310 18261120716564862520
14114211 80 18195246615900533097
15230672 131 18267307526481609194
20505436 4 18041847186363076360
21120745 212 18193274319974243201
21716022 299 17611752605673298997
23559900 14 16527467067155206639
24771750 20 17905046945940997803
255183 451 17836082651569254970
3388396 114 17463712122975494180
3610482 184 17967542259741777682
4058900 60 17983300318013772721
4394409 98 17543907907035158446
44280117 145 18337959000029717356
484985 159 16917078775490645346
58260988 587 17764032359729864521
6703917 75 18268999700256248401

>  <PUBCHEM_SHAPE_MULTIPOLES>  (1) 
646.57
15.26
9.22
2.28
48.93
9.03
1.2
-1.3
5.67
-25.1
1.65
1.04
-1.35
-0.65

>  <PUBCHEM_SHAPE_SELFOVERLAP>  (1) 
1316.761

>  <PUBCHEM_SHAPE_VOLUME>  (1) 
375.9

>  <PUBCHEM_COORDINATE_TYPE>  (1) 
2
5
10

$$$$
