42199
     RDKit          3D

 33 35  0  0  1  0  0  0  0  0999 V2000
   -3.7010    1.9975    0.6903 O   0  0  0  0  0  0  0  0  0  0  0  0
    4.7029    0.3312   -1.0043 O   0  0  0  0  0  0  0  0  0  0  0  0
    2.7750   -1.4597    1.9540 O   0  0  0  0  0  0  0  0  0  0  0  0
   -6.9697    0.3545    0.2563 N   0  0  0  0  0  0  0  0  0  0  0  0
    2.3193   -0.7562   -0.2085 N   0  0  0  0  0  0  0  0  0  0  0  0
    4.4756    1.9323    0.6628 N   0  0  0  0  0  0  0  0  0  0  0  0
   -7.4298    0.6774   -1.0940 C   0  0  0  0  0  0  0  0  0  0  0  0
   -8.1836    0.3138    1.0714 C   0  0  0  0  0  0  0  0  0  0  0  0
   -8.6731   -0.1865   -1.2455 C   0  0  0  0  0  0  0  0  0  0  0  0
   -9.1705   -0.4224    0.1773 C   0  0  0  0  0  0  0  0  0  0  0  0
   -5.9967    1.3146    0.7560 C   0  0  0  0  0  0  0  0  0  0  0  0
   -4.6164    1.0247    0.1887 C   0  0  0  0  0  0  0  0  0  0  0  0
    2.5307    0.6507    0.0226 C   0  0  0  0  0  0  0  0  0  0  0  0
    1.7025    1.5245   -0.9264 C   0  0  0  0  0  0  0  0  0  0  0  0
   -2.4017    1.8840    0.3012 C   0  0  0  0  0  0  0  0  0  0  0  0
    0.2615    1.6503   -0.4957 C   0  0  0  0  0  0  0  0  0  0  0  0
    4.0185    0.9209   -0.1708 C   0  0  0  0  0  0  0  0  0  0  0  0
   -1.4546    2.8018    0.7556 C   0  0  0  0  0  0  0  0  0  0  0  0
   -2.0171    0.8493   -0.5516 C   0  0  0  0  0  0  0  0  0  0  0  0
   -0.1230    2.6849    0.3571 C   0  0  0  0  0  0  0  0  0  0  0  0
   -0.6856    0.7326   -0.9501 C   0  0  0  0  0  0  0  0  0  0  0  0
    5.8363    2.4191    0.6474 C   0  0  0  0  0  0  0  0  0  0  0  0
    6.0298    3.5747   -0.3288 C   0  0  0  0  0  0  0  0  0  0  0  0
    5.1674    4.7899    0.0201 C   0  0  0  0  0  0  0  0  0  0  0  0
    2.4617   -1.7071    0.7925 C   0  0  0  0  0  0  0  0  0  0  0  0
    2.2349   -3.1181    0.3868 C   0  0  0  0  0  0  0  0  0  0  0  0
    5.4256    5.9461   -0.9334 C   0  0  0  0  0  0  0  0  0  0  0  0
    2.8636   -4.1525    1.0800 C   0  0  0  0  0  0  0  0  0  0  0  0
    1.3935   -3.4088   -0.6872 C   0  0  0  0  0  0  0  0  0  0  0  0
    1.8098   -5.7680   -0.3748 C   0  0  0  0  0  0  0  0  0  0  0  0
    2.6511   -5.4773    0.6993 C   0  0  0  0  0  0  0  0  0  0  0  0
    1.1810   -4.7337   -1.0680 C   0  0  0  0  0  0  0  0  0  0  0  0
    1.5819   -7.1846   -0.7806 C   0  0  0  0  0  0  0  0  0  0  0  0
  1 12  1  0
  1 15  1  0
  2 17  2  0
  3 25  2  0
  4  7  1  0
  4  8  1  0
  4 11  1  0
  5 13  1  0
  5 25  1  0
  6 17  1  0
  6 22  1  0
  7  9  1  0
  8 10  1  0
  9 10  1  0
 11 12  1  0
 13 14  1  0
 13 17  1  0
 14 16  1  0
 15 18  2  0
 15 19  1  0
 16 20  2  0
 16 21  1  0
 18 20  1  0
 19 21  2  0
 22 23  1  0
 23 24  1  0
 24 27  1  0
 25 26  1  0
 26 28  2  0
 26 29  1  0
 28 31  1  0
 29 32  2  0
 30 31  2  0
 30 32  1  0
 30 33  1  0
M  END
>  <PUBCHEM_COMPOUND_CID>  (1) 
42199

>  <PUBCHEM_CONFORMER_RMSD>  (1) 
1.2

>  <PUBCHEM_CONFORMER_DIVERSEORDER>  (1) 
4
78
80
54
6
79
62
48
110
57
86
69
87
24
116
65
52
16
108
113
71
9
81
101
118
40
47
36
84
51
76
18
88
66
103
72
37
39
23
100
15
97
14
33
96
31
12
70
77
8
10
90
17
68
28
89
42
95
34
74
99
44
32
41
102
73
111
59
25
82
35
3
109
7
91
55
93
117
49
107
30
98
83
114
56
20
22
85
38
115
63
106
11
27
112
5
64
92
105
2
21
53
60
50
61
94
13
58
45
1
75
43
46
104
26
67
19
29

>  <PUBCHEM_MMFF94_PARTIAL_CHARGES>  (1) 
38
1 -0.36
11 0.27
12 0.28
13 0.36
14 0.14
15 0.08
16 -0.14
17 0.57
18 -0.15
19 -0.15
2 -0.57
20 -0.15
21 -0.15
22 0.3
25 0.54
26 0.09
28 -0.15
29 -0.15
3 -0.57
30 -0.14
31 -0.15
32 -0.15
33 0.14
4 -0.81
49 0.15
5 -0.73
50 0.15
51 0.15
52 0.15
53 0.37
56 0.37
6 -0.73
64 0.15
65 0.15
66 0.15
67 0.15
7 0.27
8 0.27

>  <PUBCHEM_EFFECTIVE_ROTOR_COUNT>  (1) 
15

>  <PUBCHEM_PHARMACOPHORE_FEATURES>  (1) 
10
1 1 acceptor
1 2 acceptor
1 27 hydrophobe
1 3 acceptor
1 4 cation
1 5 donor
1 6 donor
5 4 7 8 9 10 rings
6 15 16 18 19 20 21 rings
6 26 28 29 30 31 32 rings

>  <PUBCHEM_HEAVY_ATOM_COUNT>  (1) 
33

>  <PUBCHEM_ATOM_DEF_STEREO_COUNT>  (1) 
0

>  <PUBCHEM_ATOM_UDEF_STEREO_COUNT>  (1) 
1

>  <PUBCHEM_BOND_DEF_STEREO_COUNT>  (1) 
0

>  <PUBCHEM_BOND_UDEF_STEREO_COUNT>  (1) 
0

>  <PUBCHEM_ISOTOPIC_ATOM_COUNT>  (1) 
0

>  <PUBCHEM_COMPONENT_COUNT>  (1) 
1

>  <PUBCHEM_CACTVS_TAUTO_COUNT>  (1) 
4

>  <PUBCHEM_CONFORMER_ID>  (1) 
0000A4D700000004

>  <PUBCHEM_MMFF94_ENERGY>  (1) 
72.037

>  <PUBCHEM_FEATURE_SELFOVERLAP>  (1) 
50.746

>  <PUBCHEM_SHAPE_FINGERPRINT>  (1) 
10319688 140 18339080371975770387
11135926 11 18337941355507194981
11181472 205 18267585716046020577
11399510 152 17342067348771805355
11621639 148 18266447708705498986
117089 54 17908709423906917719
12788726 201 17326036856598198864
13533116 47 18339079281686547379
1361 4 18408605847682308827
13692114 37 18409726270936397058
14017579 102 18269015187913099625
17492 89 18051412868799871219
18365409 1 18122629619715259468
19315092 285 17986954046823959179
19319366 153 18342734135277830292
20775438 99 18261397711327188355
23729417 116 17618511978502467934
24180151 214 17917161583967402024
27425 322 18269278022858599332
4403749 210 17975981178108059744
50009960 94 17826500073110724275
6058803 2 17984720930250939217
9555976 147 17129019370799489041

>  <PUBCHEM_SHAPE_MULTIPOLES>  (1) 
646.57
20.52
9.93
1.18
60.26
16.69
0.07
-18.29
-0.32
-23.45
-1.69
0.24
0.33
-1.7

>  <PUBCHEM_SHAPE_SELFOVERLAP>  (1) 
1337.902

>  <PUBCHEM_SHAPE_VOLUME>  (1) 
370.5

>  <PUBCHEM_COORDINATE_TYPE>  (1) 
2
5
10

$$$$
