42213
     RDKit          3D

 36 38  0  0  1  0  0  0  0  0999 V2000
   -2.6149    5.7990    2.0252 Cl  0  0  0  0  0  0  0  0  0  0  0  0
   -2.1460   -3.6610    1.3036 O   0  0  0  0  0  0  0  0  0  0  0  0
    4.5794    1.6448    0.6086 O   0  0  0  0  0  0  0  0  0  0  0  0
    0.5939    1.1713   -1.5723 O   0  0  0  0  0  0  0  0  0  0  0  0
   -4.3221   -1.8085   -0.6620 N   0  0  0  0  0  0  0  0  0  0  0  0
   -4.8547    0.5360   -2.2676 N   0  0  0  0  0  0  0  0  0  0  0  0
    1.9057    1.1195    0.3396 N   0  0  0  0  0  0  0  0  0  0  0  0
    4.9853    0.2740   -1.2217 N   0  0  0  0  0  0  0  0  0  0  0  0
   -3.8213   -1.6970   -2.0374 C   0  0  0  0  0  0  0  0  0  0  0  0
   -5.5660   -1.0445   -0.5065 C   0  0  0  0  0  0  0  0  0  0  0  0
   -3.6116   -0.2291   -2.4246 C   0  0  0  0  0  0  0  0  0  0  0  0
   -5.3559    0.4237   -0.8924 C   0  0  0  0  0  0  0  0  0  0  0  0
   -4.5235   -3.2086   -0.2947 C   0  0  0  0  0  0  0  0  0  0  0  0
   -4.5213   -3.3635    1.2228 C   0  0  0  0  0  0  0  0  0  0  0  0
   -4.6519    1.9365   -2.6335 C   0  0  0  0  0  0  0  0  0  0  0  0
   -3.2111   -2.8826    1.8317 C   0  0  0  0  0  0  0  0  0  0  0  0
    2.8396    0.1237   -0.1224 C   0  0  0  0  0  0  0  0  0  0  0  0
    2.8713   -1.1088    0.8006 C   0  0  0  0  0  0  0  0  0  0  0  0
   -0.9290   -3.0423    1.1819 C   0  0  0  0  0  0  0  0  0  0  0  0
    1.5474   -1.7820    0.9339 C   0  0  0  0  0  0  0  0  0  0  0  0
    4.2100    0.7882   -0.1917 C   0  0  0  0  0  0  0  0  0  0  0  0
   -0.0472   -3.4297    0.1728 C   0  0  0  0  0  0  0  0  0  0  0  0
   -0.5725   -2.0248    2.0670 C   0  0  0  0  0  0  0  0  0  0  0  0
    1.1909   -2.7995    0.0487 C   0  0  0  0  0  0  0  0  0  0  0  0
    0.6657   -1.3947    1.9429 C   0  0  0  0  0  0  0  0  0  0  0  0
    6.3442    0.6943   -1.4779 C   0  0  0  0  0  0  0  0  0  0  0  0
    7.3661   -0.1461   -0.7196 C   0  0  0  0  0  0  0  0  0  0  0  0
    7.3176   -1.6250   -1.1106 C   0  0  0  0  0  0  0  0  0  0  0  0
    0.8454    1.5659   -0.4368 C   0  0  0  0  0  0  0  0  0  0  0  0
    8.3861   -2.4267   -0.3841 C   0  0  0  0  0  0  0  0  0  0  0  0
   -0.0116    2.6149    0.1734 C   0  0  0  0  0  0  0  0  0  0  0  0
   -0.7049    3.5100   -0.6415 C   0  0  0  0  0  0  0  0  0  0  0  0
   -0.1234    2.7046    1.5609 C   0  0  0  0  0  0  0  0  0  0  0  0
   -1.5100    4.4947   -0.0688 C   0  0  0  0  0  0  0  0  0  0  0  0
   -0.9283    3.6893    2.1336 C   0  0  0  0  0  0  0  0  0  0  0  0
   -1.6215    4.5843    1.3187 C   0  0  0  0  0  0  0  0  0  0  0  0
  1 36  1  0
  2 16  1  0
  2 19  1  0
  3 21  2  0
  4 29  2  0
  5  9  1  0
  5 10  1  0
  5 13  1  0
  6 11  1  0
  6 12  1  0
  6 15  1  0
  7 17  1  0
  7 29  1  0
  8 21  1  0
  8 26  1  0
  9 11  1  0
 10 12  1  0
 13 14  1  0
 14 16  1  0
 17 18  1  0
 17 21  1  0
 18 20  1  0
 19 22  2  0
 19 23  1  0
 20 24  2  0
 20 25  1  0
 22 24  1  0
 23 25  2  0
 26 27  1  0
 27 28  1  0
 28 30  1  0
 29 31  1  0
 31 32  2  0
 31 33  1  0
 32 34  1  0
 33 35  2  0
 34 36  2  0
 35 36  1  0
M  END
>  <PUBCHEM_COMPOUND_CID>  (1) 
42213

>  <PUBCHEM_CONFORMER_RMSD>  (1) 
1.4

>  <PUBCHEM_CONFORMER_DIVERSEORDER>  (1) 
1
34
117
65
119
90
129
103
94
8
96
142
23
42
134
72
116
24
30
52
136
53
3
14
100
106
29
45
81
22
16
108
132
91
130
121
41
7
43
20
17
4
13
58
97
21
48
135
111
85
114
101
47
68
115
125
110
66
107
133
124
46
50
88
37
31
80
83
10
102
64
28
25
12
44
137
33
63
56
104
140
71
143
92
19
67
51
89
118
84
138
98
105
123
11
38
61
73
35
131
82
2
139
15
55
87
78
57
127
113
128
79
69
54
109
5
62
122
32
9
36
95
126
18
76
6
70
59
60
74
112
39
120
49
40
99
77
27
141
86
26
75
93

>  <PUBCHEM_MMFF94_PARTIAL_CHARGES>  (1) 
42
1 -0.18
10 0.27
11 0.27
12 0.27
13 0.27
15 0.27
16 0.28
17 0.36
18 0.14
19 0.08
2 -0.36
20 -0.14
21 0.57
22 -0.15
23 -0.15
24 -0.15
25 -0.15
26 0.3
29 0.54
3 -0.57
31 0.09
32 -0.15
33 -0.15
34 -0.15
35 -0.15
36 0.18
4 -0.57
5 -0.81
57 0.15
58 0.15
59 0.15
6 -0.81
60 0.15
61 0.37
64 0.37
7 -0.73
72 0.15
73 0.15
74 0.15
75 0.15
8 -0.73
9 0.27

>  <PUBCHEM_EFFECTIVE_ROTOR_COUNT>  (1) 
16.2

>  <PUBCHEM_PHARMACOPHORE_FEATURES>  (1) 
11
1 2 acceptor
1 3 acceptor
1 30 hydrophobe
1 4 acceptor
1 5 cation
1 6 cation
1 7 donor
1 8 donor
6 19 20 22 23 24 25 rings
6 31 32 33 34 35 36 rings
6 5 6 9 10 11 12 rings

>  <PUBCHEM_HEAVY_ATOM_COUNT>  (1) 
36

>  <PUBCHEM_ATOM_DEF_STEREO_COUNT>  (1) 
0

>  <PUBCHEM_ATOM_UDEF_STEREO_COUNT>  (1) 
1

>  <PUBCHEM_BOND_DEF_STEREO_COUNT>  (1) 
0

>  <PUBCHEM_BOND_UDEF_STEREO_COUNT>  (1) 
0

>  <PUBCHEM_ISOTOPIC_ATOM_COUNT>  (1) 
0

>  <PUBCHEM_COMPONENT_COUNT>  (1) 
1

>  <PUBCHEM_CACTVS_TAUTO_COUNT>  (1) 
4

>  <PUBCHEM_CONFORMER_ID>  (1) 
0000A4E500000001

>  <PUBCHEM_MMFF94_ENERGY>  (1) 
77.2671

>  <PUBCHEM_FEATURE_SELFOVERLAP>  (1) 
55.822

>  <PUBCHEM_SHAPE_FINGERPRINT>  (1) 
10190206 1 18335432244793701814
10653451 467 17764008560483030216
10675989 125 17612000717956295717
12440605 4 18194136114063617538
12788726 201 18341324505272390424
12857493 111 18343300397326581920
13761468 95 18338519642984366015
14279260 333 18339074883477188190
14931854 50 18261375768343924303
15351339 4 18114727283823643627
15629462 23 18342181050521071491
15927050 60 18049175375891904162
15968369 153 18271509980033886202
16067689 391 18272088249872350750
19311894 1 18200867495746535487
23536364 44 18335986445002143542
50150288 127 17629201511962511873
508180 173 18264767843267146883
508706 21 17897994966503358195
563151 40 18196663886531186872
70634741 139 18187932845611119996

>  <PUBCHEM_SHAPE_MULTIPOLES>  (1) 
705.2
15.33
7.12
2.37
30.85
7.31
-0.39
-8.97
-10
-8.83
4.83
-2.93
0.54
-0.03

>  <PUBCHEM_SHAPE_SELFOVERLAP>  (1) 
1442.611

>  <PUBCHEM_SHAPE_VOLUME>  (1) 
406.5

>  <PUBCHEM_COORDINATE_TYPE>  (1) 
2
5
10

$$$$
