42211
     RDKit          3D

 37 39  0  0  1  0  0  0  0  0999 V2000
   -4.1989    7.0807    0.2918 Cl  0  0  0  0  0  0  0  0  0  0  0  0
    3.4937    0.1126   -2.4237 O   0  0  0  0  0  0  0  0  0  0  0  0
   -4.9093   -1.1482   -0.6026 O   0  0  0  0  0  0  0  0  0  0  0  0
   -2.5316    0.8107    1.8924 O   0  0  0  0  0  0  0  0  0  0  0  0
    6.5434   -0.0316   -0.3606 N   0  0  0  0  0  0  0  0  0  0  0  0
    8.3523    0.2155    1.8812 N   0  0  0  0  0  0  0  0  0  0  0  0
   -3.7783   -2.8086    0.5485 N   0  0  0  0  0  0  0  0  0  0  0  0
   -2.8229    0.5419   -0.3922 N   0  0  0  0  0  0  0  0  0  0  0  0
    7.8443    0.6341   -0.5008 C   0  0  0  0  0  0  0  0  0  0  0  0
    6.0418    0.1089    1.0119 C   0  0  0  0  0  0  0  0  0  0  0  0
    8.8540    0.0771    0.5085 C   0  0  0  0  0  0  0  0  0  0  0  0
    7.0510   -0.4494    2.0211 C   0  0  0  0  0  0  0  0  0  0  0  0
    5.5809    0.5018   -1.3223 C   0  0  0  0  0  0  0  0  0  0  0  0
    9.3148   -0.3198    2.8421 C   0  0  0  0  0  0  0  0  0  0  0  0
    4.4102   -0.4526   -1.4957 C   0  0  0  0  0  0  0  0  0  0  0  0
   -2.5326   -0.8737   -0.4326 C   0  0  0  0  0  0  0  0  0  0  0  0
   -1.9478   -1.2795   -1.7994 C   0  0  0  0  0  0  0  0  0  0  0  0
   -3.8489   -1.6056   -0.1624 C   0  0  0  0  0  0  0  0  0  0  0  0
   -2.5209   -3.3428    1.0658 C   0  0  0  0  0  0  0  0  0  0  0  0
   -4.9544   -3.6238    0.8292 C   0  0  0  0  0  0  0  0  0  0  0  0
   -0.5122   -0.9118   -1.9645 C   0  0  0  0  0  0  0  0  0  0  0  0
    2.1741   -0.2251   -2.2728 C   0  0  0  0  0  0  0  0  0  0  0  0
   -2.2195   -2.8539    2.4774 C   0  0  0  0  0  0  0  0  0  0  0  0
   -5.2244   -4.6495   -0.2650 C   0  0  0  0  0  0  0  0  0  0  0  0
   -0.1664    0.3295   -2.4987 C   0  0  0  0  0  0  0  0  0  0  0  0
    0.4853   -1.8098   -1.5843 C   0  0  0  0  0  0  0  0  0  0  0  0
    1.1766    0.6729   -2.6528 C   0  0  0  0  0  0  0  0  0  0  0  0
    1.8284   -1.4664   -1.7385 C   0  0  0  0  0  0  0  0  0  0  0  0
   -0.9001   -3.3886    3.0159 C   0  0  0  0  0  0  0  0  0  0  0  0
   -6.4631   -5.4903    0.0094 C   0  0  0  0  0  0  0  0  0  0  0  0
   -2.7966    1.2718    0.7852 C   0  0  0  0  0  0  0  0  0  0  0  0
   -3.1443    2.7109    0.6627 C   0  0  0  0  0  0  0  0  0  0  0  0
   -3.6905    3.3915    1.7511 C   0  0  0  0  0  0  0  0  0  0  0  0
   -2.9243    3.3818   -0.5402 C   0  0  0  0  0  0  0  0  0  0  0  0
   -4.0166    4.7427    1.6364 C   0  0  0  0  0  0  0  0  0  0  0  0
   -3.2505    4.7331   -0.6550 C   0  0  0  0  0  0  0  0  0  0  0  0
   -3.7967    5.4135    0.4333 C   0  0  0  0  0  0  0  0  0  0  0  0
  1 37  1  0
  2 15  1  0
  2 22  1  0
  3 18  2  0
  4 31  2  0
  5  9  1  0
  5 10  1  0
  5 13  1  0
  6 11  1  0
  6 12  1  0
  6 14  1  0
  7 18  1  0
  7 19  1  0
  7 20  1  0
  8 16  1  0
  8 31  1  0
  9 11  1  0
 10 12  1  0
 13 15  1  0
 16 17  1  0
 16 18  1  0
 17 21  1  0
 19 23  1  0
 20 24  1  0
 21 25  2  0
 21 26  1  0
 22 27  2  0
 22 28  1  0
 23 29  1  0
 24 30  1  0
 25 27  1  0
 26 28  2  0
 31 32  1  0
 32 33  2  0
 32 34  1  0
 33 35  1  0
 34 36  2  0
 35 37  2  0
 36 37  1  0
M  END
>  <PUBCHEM_COMPOUND_CID>  (1) 
42211

>  <PUBCHEM_CONFORMER_RMSD>  (1) 
1.4

>  <PUBCHEM_CONFORMER_DIVERSEORDER>  (1) 
1
25
31
83
66
8
63
37
68
84
53
32
62
43
69
38
10
78
13
74
65
70
80
67
29
11
55
36
71
57
27
30
49
59
6
81
26
15
87
23
61
48
52
24
17
21
41
76
35
33
64
39
34
20
5
56
19
79
73
50
82
72
40
58
88
12
46
77
42
18
45
22
44
28
16
86
85
4
60
54
47
9
14
3
7
51
2
75

>  <PUBCHEM_MMFF94_PARTIAL_CHARGES>  (1) 
42
1 -0.18
10 0.27
11 0.27
12 0.27
13 0.27
14 0.27
15 0.28
16 0.36
17 0.14
18 0.57
19 0.3
2 -0.36
20 0.3
21 -0.14
22 0.08
25 -0.15
26 -0.15
27 -0.15
28 -0.15
3 -0.57
31 0.54
32 0.09
33 -0.15
34 -0.15
35 -0.15
36 -0.15
37 0.18
4 -0.57
5 -0.81
6 -0.81
64 0.37
65 0.15
66 0.15
67 0.15
68 0.15
7 -0.66
75 0.15
76 0.15
77 0.15
78 0.15
8 -0.73
9 0.27

>  <PUBCHEM_EFFECTIVE_ROTOR_COUNT>  (1) 
16.2

>  <PUBCHEM_PHARMACOPHORE_FEATURES>  (1) 
11
1 2 acceptor
1 29 hydrophobe
1 3 acceptor
1 30 hydrophobe
1 4 acceptor
1 5 cation
1 6 cation
1 8 donor
6 21 22 25 26 27 28 rings
6 32 33 34 35 36 37 rings
6 5 6 9 10 11 12 rings

>  <PUBCHEM_HEAVY_ATOM_COUNT>  (1) 
37

>  <PUBCHEM_ATOM_DEF_STEREO_COUNT>  (1) 
0

>  <PUBCHEM_ATOM_UDEF_STEREO_COUNT>  (1) 
1

>  <PUBCHEM_BOND_DEF_STEREO_COUNT>  (1) 
0

>  <PUBCHEM_BOND_UDEF_STEREO_COUNT>  (1) 
0

>  <PUBCHEM_ISOTOPIC_ATOM_COUNT>  (1) 
0

>  <PUBCHEM_COMPONENT_COUNT>  (1) 
1

>  <PUBCHEM_CACTVS_TAUTO_COUNT>  (1) 
2

>  <PUBCHEM_CONFORMER_ID>  (1) 
0000A4E300000001

>  <PUBCHEM_MMFF94_ENERGY>  (1) 
87.6127

>  <PUBCHEM_FEATURE_SELFOVERLAP>  (1) 
55.822

>  <PUBCHEM_SHAPE_FINGERPRINT>  (1) 
10930396 42 18130782399904554259
11136131 41 16395493871467736143
11411753 3 17916320367926472758
11607047 74 17256247043773664933
12655364 131 17897989275355400942
13540713 4 17844831203940674094
13560911 23 18335425686252579284
14068700 675 18189053273233793783
14705955 166 18411979174118229754
14950920 106 18041565836304621428
15320295 40 18116422837822362815
15328684 2 18187369827312761492
16067689 68 18188757350867866778
16114785 44 17917423199062581391
16993427 108 18118962731436903679
18470217 77 18341336668688526569
19246450 95 17533208662379927356
21133410 221 17773854511416870056
23522609 53 17678202480900859708
376196 1 17696204608218771397
4112364 45 17757837727829027433
6376802 137 18190753122774386619
6636798 310 18261664995757800218
9555976 147 18336260163784687378
9896288 288 18411140221024509838

>  <PUBCHEM_SHAPE_MULTIPOLES>  (1) 
725.78
21.5
8.46
2.98
69.18
9.65
0.35
-1.67
13.02
-30.19
3.68
3.56
-1.11
-1

>  <PUBCHEM_SHAPE_SELFOVERLAP>  (1) 
1481.162

>  <PUBCHEM_SHAPE_VOLUME>  (1) 
420.8

>  <PUBCHEM_COORDINATE_TYPE>  (1) 
2
5
10

$$$$
