4223
     RDKit          3D

 28 30  0  0  1  0  0  0  0  0999 V2000
    1.9007   -2.0869    0.5177 S   0  0  0  0  0  0  0  0  0  0  0  0
    1.9892   -3.0296    1.6166 O   0  0  0  0  0  0  0  0  0  0  0  0
    2.4081   -2.4445   -0.7931 O   0  0  0  0  0  0  0  0  0  0  0  0
    5.4129   -0.0031    0.6191 O   0  0  0  0  0  0  0  0  0  0  0  0
    6.1078   -0.9201   -1.8238 O   0  0  0  0  0  0  0  0  0  0  0  0
    2.5892   -0.6071    0.9858 N   0  0  0  0  0  0  0  0  0  0  0  0
    4.7908   -0.5346   -1.5404 N   0  0  0  0  0  0  0  0  0  0  0  0
    3.1124    0.3221   -0.0448 C   0  0  0  0  0  0  0  0  0  0  0  0
    3.0077    1.7591    0.4727 C   0  0  0  0  0  0  0  0  0  0  0  0
    1.6132    2.3238    0.3518 C   0  0  0  0  0  0  0  0  0  0  0  0
    0.2006   -1.6493    0.3105 C   0  0  0  0  0  0  0  0  0  0  0  0
    4.5598   -0.0849   -0.2628 C   0  0  0  0  0  0  0  0  0  0  0  0
   -0.2389   -1.2134   -0.9275 C   0  0  0  0  0  0  0  0  0  0  0  0
   -0.6597   -1.7507    1.3901 C   0  0  0  0  0  0  0  0  0  0  0  0
   -2.4614   -0.9639   -0.0142 C   0  0  0  0  0  0  0  0  0  0  0  0
    1.2494    2.9941   -0.8057 C   0  0  0  0  0  0  0  0  0  0  0  0
    0.7210    2.1617    1.4001 C   0  0  0  0  0  0  0  0  0  0  0  0
   -1.5803   -0.8678   -1.0911 C   0  0  0  0  0  0  0  0  0  0  0  0
   -2.0012   -1.4053    1.2264 C   0  0  0  0  0  0  0  0  0  0  0  0
   -3.8528   -0.6057   -0.1838 C   0  0  0  0  0  0  0  0  0  0  0  0
   -0.0394    3.5157   -0.9176 C   0  0  0  0  0  0  0  0  0  0  0  0
   -0.5678    2.6834    1.2880 C   0  0  0  0  0  0  0  0  0  0  0  0
   -0.9479    3.3604    0.1291 C   0  0  0  0  0  0  0  0  0  0  0  0
   -4.2681    0.7064    0.0444 C   0  0  0  0  0  0  0  0  0  0  0  0
   -4.7794   -1.5719   -0.5762 C   0  0  0  0  0  0  0  0  0  0  0  0
   -5.6095    1.0521   -0.1194 C   0  0  0  0  0  0  0  0  0  0  0  0
   -6.1208   -1.2260   -0.7401 C   0  0  0  0  0  0  0  0  0  0  0  0
   -6.5357    0.0860   -0.5117 C   0  0  0  0  0  0  0  0  0  0  0  0
  1  2  2  0
  1  3  2  0
  1  6  1  0
  1 11  1  0
  4 12  2  0
  5  7  1  0
  6  8  1  0
  7 12  1  0
  8  9  1  0
  8 12  1  0
  9 10  1  0
 10 16  2  0
 10 17  1  0
 11 13  2  0
 11 14  1  0
 13 18  1  0
 14 19  2  0
 15 18  2  0
 15 19  1  0
 15 20  1  0
 16 21  1  0
 17 22  2  0
 20 24  2  0
 20 25  1  0
 21 23  2  0
 22 23  1  0
 24 26  1  0
 25 27  2  0
 26 28  2  0
 27 28  1  0
M  END
>  <PUBCHEM_COMPOUND_CID>  (1) 
4223

>  <PUBCHEM_CONFORMER_RMSD>  (1) 
1

>  <PUBCHEM_CONFORMER_DIVERSEORDER>  (1) 
1
12
32
29
46
11
34
9
37
43
33
38
40
8
45
17
25
14
6
23
5
27
20
21
35
31
39
10
44
28
3
42
4
13
41
16
2
7
36
22
24
19
18
30
26
15

>  <PUBCHEM_MMFF94_PARTIAL_CHARGES>  (1) 
43
1 1.45
10 -0.14
11 -0.01
12 0.57
13 -0.15
14 -0.15
16 -0.15
17 -0.15
18 -0.15
19 -0.15
2 -0.65
21 -0.15
22 -0.15
23 -0.15
24 -0.15
25 -0.15
26 -0.15
27 -0.15
28 -0.15
3 -0.65
32 0.42
33 0.15
34 0.15
35 0.15
36 0.15
37 0.15
38 0.15
39 0.37
4 -0.57
40 0.15
41 0.15
42 0.15
43 0.15
44 0.15
45 0.15
46 0.15
47 0.15
48 0.4
5 -0.44
6 -0.91
7 -0.39
8 0.42
9 0.14

>  <PUBCHEM_EFFECTIVE_ROTOR_COUNT>  (1) 
8

>  <PUBCHEM_PHARMACOPHORE_FEATURES>  (1) 
8
1 2 acceptor
1 3 acceptor
1 4 acceptor
1 6 donor
1 7 donor
6 10 16 17 21 22 23 rings
6 11 13 14 15 18 19 rings
6 20 24 25 26 27 28 rings

>  <PUBCHEM_HEAVY_ATOM_COUNT>  (1) 
28

>  <PUBCHEM_ATOM_DEF_STEREO_COUNT>  (1) 
0

>  <PUBCHEM_ATOM_UDEF_STEREO_COUNT>  (1) 
1

>  <PUBCHEM_BOND_DEF_STEREO_COUNT>  (1) 
0

>  <PUBCHEM_BOND_UDEF_STEREO_COUNT>  (1) 
0

>  <PUBCHEM_ISOTOPIC_ATOM_COUNT>  (1) 
0

>  <PUBCHEM_COMPONENT_COUNT>  (1) 
1

>  <PUBCHEM_CACTVS_TAUTO_COUNT>  (1) 
3

>  <PUBCHEM_CONFORMER_ID>  (1) 
0000107F00000001

>  <PUBCHEM_MMFF94_ENERGY>  (1) 
65.2157

>  <PUBCHEM_FEATURE_SELFOVERLAP>  (1) 
40.615

>  <PUBCHEM_SHAPE_FINGERPRINT>  (1) 
10165383 225 17748827427544393502
10366900 7 17968092053740898939
104564 63 18340208497060391448
11513181 2 17773318924804501391
11578080 2 13624683608611259244
11646440 116 18341901813507178681
12011746 2 18408888433857725711
12166972 35 18060140985416948569
12422481 6 18123998344030094649
12633257 1 17677873790514622417
12788726 201 18336828567887840488
13402501 40 18335414694850734069
13899415 154 18335426780856887703
14068700 675 18272653433177038984
14464042 87 18341894052269192016
14681490 219 18412261727306168445
14787075 74 18114460085312748267
14931854 50 18334859372569073543
15210252 30 18041282148971522852
15238133 3 18114174242338233154
15297060 5 17202494295091132771
1601671 61 18412822477866705243
17093844 170 18409441522814850576
17357779 13 18343584036417631132
18681886 176 17917140706258248375
20905425 154 18268989799828590493
21279426 13 18412258437530167877
21285901 2 18201447943575555620
21641784 216 18115600248758645332
21792965 270 17535772993445850444
21860390 5 18411981394764131943
23559900 14 18264481961790958027
24893992 56 18333449860015464433
249057 3 18271803571224362439
3014063 31 18410852140240196577
340366 18 18059293291711009591
469060 322 18114186285463993468
474 4 18190170368947666251
508706 21 18114726210625041285
59755656 215 18409729543184128471
6138700 20 18411699876521106699

>  <PUBCHEM_SHAPE_MULTIPOLES>  (1) 
546.64
12.13
3.87
1.36
8.02
2.83
-0.03
-3.65
4.51
-1.52
-0.45
-0.99
-0.27
0.07

>  <PUBCHEM_SHAPE_SELFOVERLAP>  (1) 
1163.373

>  <PUBCHEM_SHAPE_VOLUME>  (1) 
303.8

>  <PUBCHEM_COORDINATE_TYPE>  (1) 
2
5
10

$$$$
