42231
     RDKit          3D

 30 31  0  0  1  0  0  0  0  0999 V2000
    2.6370   -2.7537   -0.2176 O   0  0  0  0  0  0  0  0  0  0  0  0
   -5.1675    0.4988    1.2748 O   0  0  0  0  0  0  0  0  0  0  0  0
   -1.2155    2.6135    0.6300 O   0  0  0  0  0  0  0  0  0  0  0  0
   -1.6373    1.6516   -1.4126 O   0  0  0  0  0  0  0  0  0  0  0  0
   -2.5457    0.8033    0.5469 N   0  0  0  0  0  0  0  0  0  0  0  0
   -5.5590   -0.4412   -0.8126 N   0  0  0  0  0  0  0  0  0  0  0  0
    5.8100   -0.8961    0.0139 N   0  0  0  0  0  0  0  0  0  0  0  0
   -3.2811   -0.2980   -0.0218 C   0  0  0  0  0  0  0  0  0  0  0  0
   -2.8568   -1.6459    0.5726 C   0  0  0  0  0  0  0  0  0  0  0  0
   -1.3920   -1.9417    0.3616 C   0  0  0  0  0  0  0  0  0  0  0  0
   -4.7592   -0.0411    0.2489 C   0  0  0  0  0  0  0  0  0  0  0  0
   -0.4550   -1.5345    1.3112 C   0  0  0  0  0  0  0  0  0  0  0  0
   -0.9750   -2.6219   -0.7826 C   0  0  0  0  0  0  0  0  0  0  0  0
    1.3159   -2.4877   -0.0274 C   0  0  0  0  0  0  0  0  0  0  0  0
    0.8990   -1.8076    1.1168 C   0  0  0  0  0  0  0  0  0  0  0  0
    0.3789   -2.8948   -0.9772 C   0  0  0  0  0  0  0  0  0  0  0  0
    3.5721   -1.8322    0.3412 C   0  0  0  0  0  0  0  0  0  0  0  0
    4.8317   -1.8373   -0.5102 C   0  0  0  0  0  0  0  0  0  0  0  0
   -6.9934   -0.2660   -0.8354 C   0  0  0  0  0  0  0  0  0  0  0  0
   -1.7857    1.6856   -0.1954 C   0  0  0  0  0  0  0  0  0  0  0  0
   -7.6965   -1.3403   -0.0316 C   0  0  0  0  0  0  0  0  0  0  0  0
   -0.3949    3.5975   -0.0094 C   0  0  0  0  0  0  0  0  0  0  0  0
    6.5167   -1.4687    1.1623 C   0  0  0  0  0  0  0  0  0  0  0  0
    6.7663   -0.5096   -1.0264 C   0  0  0  0  0  0  0  0  0  0  0  0
    1.0178    3.0949   -0.0666 C   0  0  0  0  0  0  0  0  0  0  0  0
    1.8992    3.3710    0.9786 C   0  0  0  0  0  0  0  0  0  0  0  0
    1.4498    2.3520   -1.1653 C   0  0  0  0  0  0  0  0  0  0  0  0
    3.2126    2.9041    0.9252 C   0  0  0  0  0  0  0  0  0  0  0  0
    2.7631    1.8850   -1.2186 C   0  0  0  0  0  0  0  0  0  0  0  0
    3.6445    2.1612   -0.1733 C   0  0  0  0  0  0  0  0  0  0  0  0
  1 14  1  0
  1 17  1  0
  2 11  2  0
  3 20  1  0
  3 22  1  0
  4 20  2  0
  5  8  1  0
  5 20  1  0
  6 11  1  0
  6 19  1  0
  7 18  1  0
  7 23  1  0
  7 24  1  0
  8  9  1  0
  8 11  1  0
  9 10  1  0
 10 12  2  0
 10 13  1  0
 12 15  1  0
 13 16  2  0
 14 15  2  0
 14 16  1  0
 17 18  1  0
 19 21  1  0
 22 25  1  0
 25 26  2  0
 25 27  1  0
 26 28  1  0
 27 29  2  0
 28 30  2  0
 29 30  1  0
M  END
>  <PUBCHEM_COMPOUND_CID>  (1) 
42231

>  <PUBCHEM_CONFORMER_RMSD>  (1) 
1.2

>  <PUBCHEM_CONFORMER_DIVERSEORDER>  (1) 
1
11
31
23
10
13
4
45
17
8
35
22
14
39
25
19
41
40
27
3
6
34
20
33
28
46
30
37
12
42
47
9
44
36
26
15
7
29
18
5
24
38
43
16
21
32
2

>  <PUBCHEM_MMFF94_PARTIAL_CHARGES>  (1) 
40
1 -0.36
10 -0.14
11 0.57
12 -0.15
13 -0.15
14 0.08
15 -0.15
16 -0.15
17 0.28
18 0.27
19 0.3
2 -0.57
20 0.78
22 0.42
23 0.27
24 0.27
25 -0.14
26 -0.15
27 -0.15
28 -0.15
29 -0.15
3 -0.43
30 -0.15
34 0.37
35 0.15
36 0.15
37 0.15
38 0.15
39 0.37
4 -0.57
5 -0.73
57 0.15
58 0.15
59 0.15
6 -0.73
60 0.15
61 0.15
7 -0.81
8 0.36
9 0.14

>  <PUBCHEM_EFFECTIVE_ROTOR_COUNT>  (1) 
14

>  <PUBCHEM_PHARMACOPHORE_FEATURES>  (1) 
8
1 1 acceptor
1 2 acceptor
1 4 acceptor
1 5 donor
1 6 donor
1 7 cation
6 10 12 13 14 15 16 rings
6 25 26 27 28 29 30 rings

>  <PUBCHEM_HEAVY_ATOM_COUNT>  (1) 
30

>  <PUBCHEM_ATOM_DEF_STEREO_COUNT>  (1) 
1

>  <PUBCHEM_ATOM_UDEF_STEREO_COUNT>  (1) 
0

>  <PUBCHEM_BOND_DEF_STEREO_COUNT>  (1) 
0

>  <PUBCHEM_BOND_UDEF_STEREO_COUNT>  (1) 
0

>  <PUBCHEM_ISOTOPIC_ATOM_COUNT>  (1) 
0

>  <PUBCHEM_COMPONENT_COUNT>  (1) 
1

>  <PUBCHEM_CACTVS_TAUTO_COUNT>  (1) 
4

>  <PUBCHEM_CONFORMER_ID>  (1) 
0000A4F700000001

>  <PUBCHEM_MMFF94_ENERGY>  (1) 
70.5692

>  <PUBCHEM_FEATURE_SELFOVERLAP>  (1) 
40.596

>  <PUBCHEM_SHAPE_FINGERPRINT>  (1) 
10670039 82 18192447277430847654
1100329 8 18410012169249231262
12645989 146 18270966722231951494
12838863 1 18335129861521198298
13122387 1 18193559961300852372
13402501 40 18408042909948806692
13533116 47 18271524294643185393
14068700 675 18202001010667239048
14117953 113 18342173345756100287
14394314 77 18341059505928235104
14725015 67 18335128761845462264
14784336 7 17916300727204642353
14931854 50 18262530212555586094
16067689 302 18267313200064835495
16090146 7 17632311089533389659
18336668 15 18114466673897932836
19611394 137 18261970621130544547
20028762 73 18202283597803161166
20721686 56 18335423494990563843
20764821 26 18338799026522831292
21344244 246 18196080261327701111
23559900 14 18262519315643806901
25019877 29 17418086590294189582
3298306 158 18263925621823931717
350125 39 18408606928906181012
463206 1 18338800121254025880
5265222 85 17398401209178577668
532947 4 18410011083196979137
9961470 85 18126275578882374504

>  <PUBCHEM_SHAPE_MULTIPOLES>  (1) 
578.97
14.89
4.76
1.2
10.5
2.7
0
-6.66
1.19
-4.03
-0.11
-0.35
0.07
-0.09

>  <PUBCHEM_SHAPE_SELFOVERLAP>  (1) 
1188.476

>  <PUBCHEM_SHAPE_VOLUME>  (1) 
333.6

>  <PUBCHEM_COORDINATE_TYPE>  (1) 
2
5
10

$$$$
