42244
     RDKit          3D

 21 24  0  0  0  0  0  0  0  0999 V2000
    5.7956    0.6626   -0.0001 O   0  0  0  0  0  0  0  0  0  0  0  0
    0.1843    0.0342   -0.0001 C   0  0  0  0  0  0  0  0  0  0  0  0
   -0.3288   -1.2860   -0.0001 C   0  0  0  0  0  0  0  0  0  0  0  0
   -0.7671    1.0865   -0.0001 C   0  0  0  0  0  0  0  0  0  0  0  0
   -1.7158   -1.5161    0.0000 C   0  0  0  0  0  0  0  0  0  0  0  0
   -2.1570    0.8614   -0.0001 C   0  0  0  0  0  0  0  0  0  0  0  0
   -2.6374   -0.4605    0.0000 C   0  0  0  0  0  0  0  0  0  0  0  0
    1.6115    0.2334   -0.0001 C   0  0  0  0  0  0  0  0  0  0  0  0
    2.4689   -0.8978    0.0000 C   0  0  0  0  0  0  0  0  0  0  0  0
    0.5473   -2.3748    0.0000 C   0  0  0  0  0  0  0  0  0  0  0  0
    1.9249   -2.1841    0.0001 C   0  0  0  0  0  0  0  0  0  0  0  0
   -0.3908    2.5405    0.0002 C   0  0  0  0  0  0  0  0  0  0  0  0
   -2.2364   -2.9301    0.0001 C   0  0  0  0  0  0  0  0  0  0  0  0
   -3.0767    1.9246   -0.0001 C   0  0  0  0  0  0  0  0  0  0  0  0
   -4.0236   -0.6922    0.0000 C   0  0  0  0  0  0  0  0  0  0  0  0
    2.2387    1.5048   -0.0002 C   0  0  0  0  0  0  0  0  0  0  0  0
    3.8653   -0.7383    0.0001 C   0  0  0  0  0  0  0  0  0  0  0  0
   -4.4504    1.6811    0.0002 C   0  0  0  0  0  0  0  0  0  0  0  0
   -4.9237    0.3732    0.0000 C   0  0  0  0  0  0  0  0  0  0  0  0
    3.6289    1.6498    0.0000 C   0  0  0  0  0  0  0  0  0  0  0  0
    4.4424    0.5277    0.0002 C   0  0  0  0  0  0  0  0  0  0  0  0
  1 21  1  0
  2  3  1  0
  2  4  2  0
  2  8  1  0
  3  5  2  0
  3 10  1  0
  4  6  1  0
  4 12  1  0
  5  7  1  0
  5 13  1  0
  6  7  2  0
  6 14  1  0
  7 15  1  0
  8  9  2  0
  8 16  1  0
  9 11  1  0
  9 17  1  0
 10 11  2  0
 14 18  2  0
 15 19  2  0
 16 20  2  0
 17 21  2  0
 18 19  1  0
 20 21  1  0
M  END
>  <PUBCHEM_COMPOUND_CID>  (1) 
42244

>  <PUBCHEM_CONFORMER_RMSD>  (1) 
0.6

>  <PUBCHEM_CONFORMER_DIVERSEORDER>  (1) 
1

>  <PUBCHEM_MMFF94_PARTIAL_CHARGES>  (1) 
25
1 -0.53
10 -0.15
11 -0.15
12 0.14
13 0.14
14 -0.15
15 -0.15
16 -0.15
17 -0.15
18 -0.15
19 -0.15
20 -0.15
21 0.08
22 0.15
23 0.15
30 0.15
31 0.15
32 0.15
33 0.15
34 0.15
35 0.15
36 0.15
37 0.45
4 -0.14
5 -0.14

>  <PUBCHEM_EFFECTIVE_ROTOR_COUNT>  (1) 
0

>  <PUBCHEM_PHARMACOPHORE_FEATURES>  (1) 
5
1 1 donor
6 2 3 4 5 6 7 rings
6 2 3 8 9 10 11 rings
6 6 7 14 15 18 19 rings
6 8 9 16 17 20 21 rings

>  <PUBCHEM_HEAVY_ATOM_COUNT>  (1) 
21

>  <PUBCHEM_ATOM_DEF_STEREO_COUNT>  (1) 
0

>  <PUBCHEM_ATOM_UDEF_STEREO_COUNT>  (1) 
0

>  <PUBCHEM_BOND_DEF_STEREO_COUNT>  (1) 
0

>  <PUBCHEM_BOND_UDEF_STEREO_COUNT>  (1) 
0

>  <PUBCHEM_ISOTOPIC_ATOM_COUNT>  (1) 
0

>  <PUBCHEM_COMPONENT_COUNT>  (1) 
1

>  <PUBCHEM_CACTVS_TAUTO_COUNT>  (1) 
3

>  <PUBCHEM_CONFORMER_ID>  (1) 
0000A50400000001

>  <PUBCHEM_MMFF94_ENERGY>  (1) 
108.7473

>  <PUBCHEM_FEATURE_SELFOVERLAP>  (1) 
25.446

>  <PUBCHEM_SHAPE_FINGERPRINT>  (1) 
10411042 1 16825589186718142215
10493431 412 18340494383132058497
10498660 4 18410294670633227660
10608611 8 18410855442964129869
10616163 171 18339081591698814695
10967382 1 18410575050361421287
1100329 8 18339082717101637081
11112241 14 16341144801057764104
11132069 177 18410570712465596960
11578080 2 13828479072003152297
12011746 2 18411696591198355045
12236239 1 17821445781471283984
12390115 104 18128553590976971249
12403814 3 17676202464200125245
12788726 201 17560243500847530273
12838862 33 18338497699474464437
13140716 1 18410284848301328866
138480 1 17617940227602510755
14787075 74 18342172284920049197
14790565 3 18411144601727770425
15042514 8 18193279821906613723
15196674 1 18410855421473501607
15536298 74 18342177713320933014
16945 1 18338517413342425222
19591789 44 18410575067815785475
200 152 17988640791881280433
20510252 161 18271527485914377073
20715895 44 17757822343493660269
20739085 24 17976569142510149433
21267235 1 18410301323453133990
21279426 13 18268150851282149356
21421861 104 17896874362064170050
22182313 1 18270423653270355119
23227448 37 18412825810914554967
2334 1 18266741461890291114
23366157 5 17969789570798011754
23402539 116 18343013419520091436
23557571 272 18272378619462086462
23558518 356 17899699256164019608
23559900 14 18343302540335264670
2748010 2 18339646749281088014
3004659 81 18334863776050196974
335352 9 18338797802130247318
34934 24 18410006628672678747
350125 39 18338240495378691761
3545911 37 18411983563543241764
3680242 22 18335981948503584074
4214541 1 18410575097564032416
4409770 3 15951882023906701286
474 4 17822297906971770756
495365 180 17346305038520549312
5104073 3 18337110072797297891
59755656 215 18341055125614675710
59755656 520 17022903467134597218
69090 78 18411134727771335119
7364860 26 18269557135328846886
9709674 26 18413394219592347118

>  <PUBCHEM_SHAPE_MULTIPOLES>  (1) 
426.3
9.28
2.82
0.61
3.04
0.82
0
-3.14
0
-0.83
0
-0.03
0
0

>  <PUBCHEM_SHAPE_SELFOVERLAP>  (1) 
976.956

>  <PUBCHEM_SHAPE_VOLUME>  (1) 
223.7

>  <PUBCHEM_COORDINATE_TYPE>  (1) 
2
5
10

$$$$
