42245
     RDKit          3D

 15 16  0  0  1  0  0  0  0  0999 V2000
   -1.7490    2.2313    0.3319 O   0  0  0  0  0  0  0  0  0  0  0  0
   -3.9001   -1.4807   -0.4420 O   0  0  0  0  0  0  0  0  0  0  0  0
   -2.6202   -0.8005    1.3113 O   0  0  0  0  0  0  0  0  0  0  0  0
    2.6398    0.0472   -0.6210 N   0  0  0  0  0  0  0  0  0  0  0  0
   -0.0958    0.7395   -0.3345 N   0  0  0  0  0  0  0  0  0  0  0  0
    2.2274    0.7322    0.6162 C   0  0  0  0  0  0  0  0  0  0  0  0
    1.6427   -1.0318   -0.7231 C   0  0  0  0  0  0  0  0  0  0  0  0
    1.8925   -0.3966    1.5980 C   0  0  0  0  0  0  0  0  0  0  0  0
    1.5044   -1.5745    0.7043 C   0  0  0  0  0  0  0  0  0  0  0  0
    0.9728    1.5515    0.2664 C   0  0  0  0  0  0  0  0  0  0  0  0
    0.3286   -0.3808   -1.1945 C   0  0  0  0  0  0  0  0  0  0  0  0
    4.0115   -0.4507   -0.5635 C   0  0  0  0  0  0  0  0  0  0  0  0
   -1.4151    1.1874   -0.2339 C   0  0  0  0  0  0  0  0  0  0  0  0
   -2.4704    0.3109   -0.8613 C   0  0  0  0  0  0  0  0  0  0  0  0
   -2.9690   -0.6845    0.1459 C   0  0  0  0  0  0  0  0  0  0  0  0
  1 13  2  0
  2 15  1  0
  3 15  2  0
  4  6  1  0
  4  7  1  0
  4 12  1  0
  5 10  1  0
  5 11  1  0
  5 13  1  0
  6  8  1  0
  6 10  1  0
  7  9  1  0
  7 11  1  0
  8  9  1  0
 13 14  1  0
 14 15  1  0
M  END
>  <PUBCHEM_COMPOUND_CID>  (1) 
42245

>  <PUBCHEM_CONFORMER_RMSD>  (1) 
0.6

>  <PUBCHEM_CONFORMER_DIVERSEORDER>  (1) 
1
8
25
26
5
12
22
31
17
29
11
13
2
18
9
23
14
19
15
6
30
27
32
4
21
3
20
10
24
28
16
7

>  <PUBCHEM_MMFF94_PARTIAL_CHARGES>  (1) 
14
1 -0.57
10 0.3
11 0.3
12 0.27
13 0.57
14 0.12
15 0.66
2 -0.65
3 -0.57
31 0.5
4 -0.81
5 -0.66
6 0.27
7 0.27

>  <PUBCHEM_EFFECTIVE_ROTOR_COUNT>  (1) 
4.2

>  <PUBCHEM_PHARMACOPHORE_FEATURES>  (1) 
7
1 1 acceptor
1 14 anion
1 2 acceptor
1 3 acceptor
1 4 cation
3 2 3 15 anion
8 4 5 6 7 8 9 10 11 rings

>  <PUBCHEM_HEAVY_ATOM_COUNT>  (1) 
15

>  <PUBCHEM_ATOM_DEF_STEREO_COUNT>  (1) 
0

>  <PUBCHEM_ATOM_UDEF_STEREO_COUNT>  (1) 
2

>  <PUBCHEM_BOND_DEF_STEREO_COUNT>  (1) 
0

>  <PUBCHEM_BOND_UDEF_STEREO_COUNT>  (1) 
0

>  <PUBCHEM_ISOTOPIC_ATOM_COUNT>  (1) 
0

>  <PUBCHEM_COMPONENT_COUNT>  (1) 
1

>  <PUBCHEM_CACTVS_TAUTO_COUNT>  (1) 
1

>  <PUBCHEM_CONFORMER_ID>  (1) 
0000A50500000001

>  <PUBCHEM_MMFF94_ENERGY>  (1) 
31.6947

>  <PUBCHEM_FEATURE_SELFOVERLAP>  (1) 
35.853

>  <PUBCHEM_SHAPE_FINGERPRINT>  (1) 
11471102 22 18201996633773381856
12032990 46 18201725020500557982
12500047 106 18044084666534451453
12808571 1 14189285014894767176
12932764 1 17203315689726206044
13296908 3 18341607127179332141
15309172 13 17346877849254775607
15775835 57 17313665949560347241
16945 1 18272359893467693508
17844478 74 18131915957236594452
17990270 104 18412543176154086852
18511873 20 11024112031777993956
19422 9 18336832987799272540
20201158 50 18186798114892495347
20523700 14 17167858690562578155
20645477 70 18122053463280857871
20715346 28 17702930466379093664
21069387 34 14562798933140394704
21501502 16 18189896413899684266
22721475 48 18408609170984377179
23402539 116 17168146698495646244
23402655 69 12107773138894248263
2748010 2 17988066782587779060
2871803 45 18334852840140269183
3286 77 16630525176035117467
5084963 1 17132103645915737276
8030462 33 18335974273059434957

>  <PUBCHEM_SHAPE_MULTIPOLES>  (1) 
281.12
5.76
1.68
1.2
1.62
0.42
-0.22
-1.87
0.38
0.69
-0.21
-0.28
-0.24
0.12

>  <PUBCHEM_SHAPE_SELFOVERLAP>  (1) 
581.917

>  <PUBCHEM_SHAPE_VOLUME>  (1) 
159.5

>  <PUBCHEM_COORDINATE_TYPE>  (1) 
2
5
10

$$$$
