42255
     RDKit          3D

 18 19  0  0  0  0  0  0  0  0999 V2000
   -1.0127   -0.1053   -0.1435 O   0  0  0  0  0  0  0  0  0  0  0  0
   -1.8233    2.0162   -0.4555 O   0  0  0  0  0  0  0  0  0  0  0  0
    2.6574   -0.3388   -0.3792 N   0  0  0  0  0  0  0  0  0  0  0  0
    5.4060   -0.0246    0.4607 N   0  0  0  0  0  0  0  0  0  0  0  0
   -5.8968   -0.8190    0.3204 N   0  0  0  0  0  0  0  0  0  0  0  0
    3.0339    0.6443    0.6441 C   0  0  0  0  0  0  0  0  0  0  0  0
    3.5837   -1.4775   -0.3607 C   0  0  0  0  0  0  0  0  0  0  0  0
    4.4791    1.1137    0.4442 C   0  0  0  0  0  0  0  0  0  0  0  0
    5.0287   -1.0080   -0.5618 C   0  0  0  0  0  0  0  0  0  0  0  0
    1.2798   -0.7870   -0.1863 C   0  0  0  0  0  0  0  0  0  0  0  0
    6.7832    0.4244    0.2660 C   0  0  0  0  0  0  0  0  0  0  0  0
    0.3124    0.3782   -0.3208 C   0  0  0  0  0  0  0  0  0  0  0  0
   -2.0183    0.8254   -0.2346 C   0  0  0  0  0  0  0  0  0  0  0  0
   -3.3558    0.2585   -0.0423 C   0  0  0  0  0  0  0  0  0  0  0  0
   -4.4666    1.0826   -0.1078 C   0  0  0  0  0  0  0  0  0  0  0  0
   -3.4981   -1.0970    0.2022 C   0  0  0  0  0  0  0  0  0  0  0  0
   -5.7088    0.4980    0.0795 C   0  0  0  0  0  0  0  0  0  0  0  0
   -4.7837   -1.5842    0.3756 C   0  0  0  0  0  0  0  0  0  0  0  0
  1 12  1  0
  1 13  1  0
  2 13  2  0
  3  6  1  0
  3  7  1  0
  3 10  1  0
  4  8  1  0
  4  9  1  0
  4 11  1  0
  5 17  2  0
  5 18  1  0
  6  8  1  0
  7  9  1  0
 10 12  1  0
 13 14  1  0
 14 15  2  0
 14 16  1  0
 15 17  1  0
 16 18  2  0
M  END
>  <PUBCHEM_COMPOUND_CID>  (1) 
42255

>  <PUBCHEM_CONFORMER_RMSD>  (1) 
0.8

>  <PUBCHEM_CONFORMER_DIVERSEORDER>  (1) 
1
49
4
24
56
14
67
59
75
19
34
54
73
28
45
11
3
10
68
7
35
52
51
21
17
29
72
50
2
18
27
26
64
36
32
23
62
61
20
43
58
44
33
60
46
13
38
66
71
65
63
39
12
37
40
70
9
53
48
5
25
74
57
69
76
6
31
41
47
55
15
16
8
30
42
22

>  <PUBCHEM_MMFF94_PARTIAL_CHARGES>  (1) 
22
1 -0.43
10 0.27
11 0.27
12 0.28
13 0.63
14 0.09
15 -0.15
16 -0.15
17 0.16
18 0.16
2 -0.57
3 -0.81
34 0.15
35 0.15
36 0.15
37 0.15
4 -0.81
5 -0.62
6 0.27
7 0.27
8 0.27
9 0.27

>  <PUBCHEM_EFFECTIVE_ROTOR_COUNT>  (1) 
6.2

>  <PUBCHEM_PHARMACOPHORE_FEATURES>  (1) 
6
1 2 acceptor
1 3 cation
1 4 cation
1 5 acceptor
6 3 4 6 7 8 9 rings
6 5 14 15 16 17 18 rings

>  <PUBCHEM_HEAVY_ATOM_COUNT>  (1) 
18

>  <PUBCHEM_ATOM_DEF_STEREO_COUNT>  (1) 
0

>  <PUBCHEM_ATOM_UDEF_STEREO_COUNT>  (1) 
0

>  <PUBCHEM_BOND_DEF_STEREO_COUNT>  (1) 
0

>  <PUBCHEM_BOND_UDEF_STEREO_COUNT>  (1) 
0

>  <PUBCHEM_ISOTOPIC_ATOM_COUNT>  (1) 
0

>  <PUBCHEM_COMPONENT_COUNT>  (1) 
1

>  <PUBCHEM_CACTVS_TAUTO_COUNT>  (1) 
1

>  <PUBCHEM_CONFORMER_ID>  (1) 
0000A50F00000001

>  <PUBCHEM_MMFF94_ENERGY>  (1) 
41.7121

>  <PUBCHEM_FEATURE_SELFOVERLAP>  (1) 
30.448

>  <PUBCHEM_SHAPE_FINGERPRINT>  (1) 
10 15 18340195389400453272
10354089 29 17847059991625203504
10968037 39 18334858325156222079
11045977 3 18341891930687145017
11287383 113 18411982468484720034
11315181 36 18410014351604060881
12091667 2 16515684433762241789
12107183 9 17618222801926514146
12236239 1 16877942728403649664
12730499 353 18202567281141972198
12916748 109 18341895173941354116
13073987 5 17988082184751511040
13288520 33 18334013904610630693
13533116 47 15051459267620531582
13668630 136 14418135101857995352
1420 363 18410859862490901671
14251718 22 18260267451837661072
14251732 16 18411699924166667200
14341114 176 18272092682098517244
14933364 13 18342460344081735096
15716309 27 18412261744195783318
17834072 33 18113623404129361108
17834076 25 16298386859531837440
17844677 252 18341620303912636600
18222031 100 17240205421967392454
19489759 90 17530963575330378653
200 152 17989204828703884451
20645477 70 17916871210478044214
220451 1 17821731606696094762
22224240 67 17489585684307322207
2297311 6 18411145709776046341
23035841 295 18186238424444569011
23402539 116 18040712571819714423
23557571 272 18337956688250843341
23559900 14 18410005559647899841
239999 70 18343588417564101542
26918003 58 18342175570453934265
29717793 49 14346073093084498354
300161 21 18040428863597283107
3545911 37 18273495676484609278
4073 2 18260272975150338658
4214541 1 18410576154600818877
42788 4 18411418405791890562
4325135 7 18335142011851153916
474229 33 18410855473050487254
5104073 3 18200026223543470722
542803 24 16370729214148958775
59682541 35 18339079414165876146
59755656 215 18412268307391433382
67856867 119 18041568060327677700
7495541 125 18201434805159982856

>  <PUBCHEM_SHAPE_MULTIPOLES>  (1) 
343.75
17.06
1.5
0.71
5.47
0.03
-0.01
1.07
-1.96
-0.61
0.06
0.21
0
0.98

>  <PUBCHEM_SHAPE_SELFOVERLAP>  (1) 
705.748

>  <PUBCHEM_SHAPE_VOLUME>  (1) 
197.3

>  <PUBCHEM_COORDINATE_TYPE>  (1) 
2
5
10

$$$$
