42253
     RDKit          3D

 18 19  0  0  0  0  0  0  0  0999 V2000
   -1.0183   -0.0947   -0.1457 O   0  0  0  0  0  0  0  0  0  0  0  0
   -1.8247    2.0298   -0.4481 O   0  0  0  0  0  0  0  0  0  0  0  0
    2.6514   -0.3344   -0.3815 N   0  0  0  0  0  0  0  0  0  0  0  0
    5.4003   -0.0296    0.4606 N   0  0  0  0  0  0  0  0  0  0  0  0
   -4.7313   -1.6592    0.3794 N   0  0  0  0  0  0  0  0  0  0  0  0
    3.0295    0.6432    0.6464 C   0  0  0  0  0  0  0  0  0  0  0  0
    3.5754   -1.4750   -0.3679 C   0  0  0  0  0  0  0  0  0  0  0  0
    4.4757    1.1106    0.4491 C   0  0  0  0  0  0  0  0  0  0  0  0
    5.0213   -1.0075   -0.5666 C   0  0  0  0  0  0  0  0  0  0  0  0
    1.2728   -0.7807   -0.1910 C   0  0  0  0  0  0  0  0  0  0  0  0
    6.7785    0.4176    0.2684 C   0  0  0  0  0  0  0  0  0  0  0  0
    0.3077    0.3870   -0.3204 C   0  0  0  0  0  0  0  0  0  0  0  0
   -2.0221    0.8385   -0.2328 C   0  0  0  0  0  0  0  0  0  0  0  0
   -3.3607    0.2733   -0.0434 C   0  0  0  0  0  0  0  0  0  0  0  0
   -4.4816    1.0830   -0.1018 C   0  0  0  0  0  0  0  0  0  0  0  0
   -3.5262   -1.0746    0.1961 C   0  0  0  0  0  0  0  0  0  0  0  0
   -5.7388    0.5181    0.0819 C   0  0  0  0  0  0  0  0  0  0  0  0
   -5.8091   -0.8454    0.3173 C   0  0  0  0  0  0  0  0  0  0  0  0
  1 12  1  0
  1 13  1  0
  2 13  2  0
  3  6  1  0
  3  7  1  0
  3 10  1  0
  4  8  1  0
  4  9  1  0
  4 11  1  0
  5 16  2  0
  5 18  1  0
  6  8  1  0
  7  9  1  0
 10 12  1  0
 13 14  1  0
 14 15  2  0
 14 16  1  0
 15 17  1  0
 17 18  2  0
M  END
>  <PUBCHEM_COMPOUND_CID>  (1) 
42253

>  <PUBCHEM_CONFORMER_RMSD>  (1) 
0.8

>  <PUBCHEM_CONFORMER_DIVERSEORDER>  (1) 
1
30
52
12
109
110
80
116
103
24
117
76
95
85
2
91
40
58
61
133
72
150
19
119
16
7
25
121
55
21
149
44
18
54
75
70
77
129
128
88
101
118
47
106
36
144
125
43
32
64
27
10
124
135
5
51
78
137
111
33
41
66
123
63
139
145
146
89
49
8
86
120
93
130
100
84
102
17
3
83
112
67
71
69
99
140
92
42
28
68
46
35
22
57
62
37
65
136
31
48
115
38
147
94
6
9
114
29
141
79
132
104
113
39
107
127
74
105
142
56
4
143
34
97
50
148
60
20
73
122
11
26
134
138
82
98
23
131
108
90
45
53
81
87
126
96
15
59
14
13

>  <PUBCHEM_MMFF94_PARTIAL_CHARGES>  (1) 
22
1 -0.43
10 0.27
11 0.27
12 0.28
13 0.63
14 0.09
15 -0.15
16 0.16
17 -0.15
18 0.16
2 -0.57
3 -0.81
34 0.15
35 0.15
36 0.15
37 0.15
4 -0.81
5 -0.62
6 0.27
7 0.27
8 0.27
9 0.27

>  <PUBCHEM_EFFECTIVE_ROTOR_COUNT>  (1) 
6.2

>  <PUBCHEM_PHARMACOPHORE_FEATURES>  (1) 
6
1 2 acceptor
1 3 cation
1 4 cation
1 5 acceptor
6 3 4 6 7 8 9 rings
6 5 14 15 16 17 18 rings

>  <PUBCHEM_HEAVY_ATOM_COUNT>  (1) 
18

>  <PUBCHEM_ATOM_DEF_STEREO_COUNT>  (1) 
0

>  <PUBCHEM_ATOM_UDEF_STEREO_COUNT>  (1) 
0

>  <PUBCHEM_BOND_DEF_STEREO_COUNT>  (1) 
0

>  <PUBCHEM_BOND_UDEF_STEREO_COUNT>  (1) 
0

>  <PUBCHEM_ISOTOPIC_ATOM_COUNT>  (1) 
0

>  <PUBCHEM_COMPONENT_COUNT>  (1) 
1

>  <PUBCHEM_CACTVS_TAUTO_COUNT>  (1) 
1

>  <PUBCHEM_CONFORMER_ID>  (1) 
0000A50D00000001

>  <PUBCHEM_MMFF94_ENERGY>  (1) 
41.6654

>  <PUBCHEM_FEATURE_SELFOVERLAP>  (1) 
30.449

>  <PUBCHEM_SHAPE_FINGERPRINT>  (1) 
10 15 18340476864371882680
10354089 29 17846778512348263776
10968037 39 18335139800148744007
11045977 3 18341891930697694521
11287383 113 18411982468479438778
11315181 36 18410577301583862457
12091667 2 16587742027810745205
12107183 9 17618505376414872074
12236239 1 16877661253411153720
12516196 113 18272088305569242057
12730499 353 18202848756102884630
12916748 109 18341613698954093964
13073987 5 17988082184740974528
13288520 33 18334013904636997957
13533116 47 14979965723026527766
13668630 136 14345797132270627480
1420 363 18411421712943225223
14251718 22 18260267447526876016
14251732 16 18411699924161398944
14341114 176 18272092682093248988
14933364 13 18342460344065917336
15716309 27 18412261739879704022
17834072 33 18113623404118811612
17834076 25 16370725928472636008
17844677 252 18341620303891544088
18222031 100 17240486892638553830
19489759 90 17530963575340941157
200 152 17989204828724996441
20645477 70 17916871210472769454
220451 1 17822013081646425162
22224240 67 17489585684312583967
2297311 6 18411427184758044749
23035841 295 18186519899452915187
23402539 116 18040712571835532183
23557571 272 18338239262749750773
23559900 14 18409724080355148849
239999 70 18343588417558820294
26918003 58 18342175570475052753
29717793 49 14418130687117138546
300161 21 18040428863602577347
3545911 37 18273494576972968510
4073 2 18260272975129226658
4214541 1 18410576154611381373
42788 4 18412263930238931556
4325135 7 18335423486812046812
474229 33 18411136948021916670
5104073 3 18200026223532901730
542803 24 16370729214164796021
59682541 35 18339360889147855058
59755656 215 18412268307386152142
67856867 119 18041568060317141188
7495541 125 18201434805144165096

>  <PUBCHEM_SHAPE_MULTIPOLES>  (1) 
343.75
17.17
1.49
0.71
5.15
0.02
-0.01
1.1
-1.99
-0.55
0.06
0.2
-0.01
0.98

>  <PUBCHEM_SHAPE_SELFOVERLAP>  (1) 
705.556

>  <PUBCHEM_SHAPE_VOLUME>  (1) 
197.6

>  <PUBCHEM_COORDINATE_TYPE>  (1) 
2
5
10

$$$$
