42265
     RDKit          3D

 14 13  0  0  1  0  0  0  0  0999 V2000
   -6.3802    1.6668   -0.0053 O   0  0  0  0  0  0  0  0  0  0  0  0
   -0.9365   -0.6924    0.1336 C   0  0  0  0  0  0  0  0  0  0  0  0
   -2.2618   -0.0826   -0.3359 C   0  0  0  0  0  0  0  0  0  0  0  0
    0.3307    0.0123   -0.3628 C   0  0  0  0  0  0  0  0  0  0  0  0
   -3.4911   -0.8165    0.2091 C   0  0  0  0  0  0  0  0  0  0  0  0
    1.6547   -0.5535    0.1595 C   0  0  0  0  0  0  0  0  0  0  0  0
   -4.8264   -0.1913   -0.2459 C   0  0  0  0  0  0  0  0  0  0  0  0
    2.8790    0.2373   -0.3061 C   0  0  0  0  0  0  0  0  0  0  0  0
    4.1713   -0.3658    0.2492 C   0  0  0  0  0  0  0  0  0  0  0  0
    5.3944    0.4412   -0.1892 C   0  0  0  0  0  0  0  0  0  0  0  0
   -5.1761    1.1050    0.4978 C   0  0  0  0  0  0  0  0  0  0  0  0
   -5.9496   -1.2209   -0.0745 C   0  0  0  0  0  0  0  0  0  0  0  0
    6.6880   -0.1790    0.3380 C   0  0  0  0  0  0  0  0  0  0  0  0
    7.9036    0.6394   -0.0675 C   0  0  0  0  0  0  0  0  0  0  0  0
  1 11  1  0
  2  3  1  0
  2  4  1  0
  3  5  1  0
  4  6  1  0
  5  7  1  0
  6  8  1  0
  7 11  1  0
  7 12  1  0
  8  9  1  0
  9 10  1  0
 10 13  1  0
 13 14  1  0
M  END
>  <PUBCHEM_COMPOUND_CID>  (1) 
42265

>  <PUBCHEM_CONFORMER_RMSD>  (1) 
1

>  <PUBCHEM_CONFORMER_DIVERSEORDER>  (1) 
1
214
78
94
231
192
26
281
39
21
244
291
40
270
162
118
132
82
84
23
88
327
10
157
222
14
67
308
61
64
98
194
18
288
208
176
300
129
255
37
143
277
169
22
35
138
298
121
77
185
119
206
122
4
103
269
250
72
63
310
287
25
20
93
249
199
81
261
203
295
195
316
302
89
51
52
303
73
47
57
315
317
3
182
110
251
234
53
135
167
31
280
114
96
113
305
289
253
325
27
44
66
99
292
263
133
139
329
6
9
256
2
115
178
156
112
312
218
258
24
322
259
50
80
164
32
168
272
296
90
307
79
252
271
332
321
297
217
85
58
179
48
13
56
19
306
59
131
286
15
45
262
8
237
124
42
144
97
301
7
240
36
219
202
140
223
235
152
101
34
220
145
299
324
151
181
11
172
137
210
43
136
331
111
38
232
191
254
304
248
326
75
33
83
189
282
142
134
117
201
187
279
216
171
105
46
41
290
213
278
285
62
30
147
224
5
126
161
148
102
146
141
69
265
200
166
183
177
120
205
116
170
211
188
12
320
128
242
165
236
91
100
247
246
71
274
60
294
76
309
95
175
29
283
92
149
16
150
268
159
174
276
239
55
330
284
257
311
238
196
28
109
87
68
123
207
86
204
266
275
163
106
197
328
125
186
230
243
184
158
264
319
155
318
104
293
153
130
233
323
267
65
173
229
193
245
70
127
221
49
209
241
198
273
17
190
225
227
180
226
228
313
108
314
260
54
212
107
74
160
215
154

>  <PUBCHEM_MMFF94_PARTIAL_CHARGES>  (1) 
3
1 -0.68
11 0.28
42 0.4

>  <PUBCHEM_EFFECTIVE_ROTOR_COUNT>  (1) 
10

>  <PUBCHEM_PHARMACOPHORE_FEATURES>  (1) 
4
1 1 acceptor
1 1 donor
1 12 hydrophobe
1 14 hydrophobe

>  <PUBCHEM_HEAVY_ATOM_COUNT>  (1) 
14

>  <PUBCHEM_ATOM_DEF_STEREO_COUNT>  (1) 
0

>  <PUBCHEM_ATOM_UDEF_STEREO_COUNT>  (1) 
1

>  <PUBCHEM_BOND_DEF_STEREO_COUNT>  (1) 
0

>  <PUBCHEM_BOND_UDEF_STEREO_COUNT>  (1) 
0

>  <PUBCHEM_ISOTOPIC_ATOM_COUNT>  (1) 
0

>  <PUBCHEM_COMPONENT_COUNT>  (1) 
1

>  <PUBCHEM_CACTVS_TAUTO_COUNT>  (1) 
1

>  <PUBCHEM_CONFORMER_ID>  (1) 
0000A51900000001

>  <PUBCHEM_MMFF94_ENERGY>  (1) 
3.904

>  <PUBCHEM_FEATURE_SELFOVERLAP>  (1) 
20.297

>  <PUBCHEM_SHAPE_FINGERPRINT>  (1) 
11315181 36 18113900494366416371
12091667 2 18272369789346896871
125118 31 18341612638187531600
13533116 47 17603856768583705842
14123256 10 13039187004824816805
14251764 18 18186800292567332938
14251764 46 18334575754883846487
14729087 3 18272367559794757136
15048467 5 18411136926668035632
15716309 27 11818999582180453545
17093844 174 18187364337937861977
17834072 8 16056878030878971513
17834076 25 18410292527787314742
20281389 69 18260545623916339188
20621476 66 18410014346987164662
20621476 8 18260267408909139302
21130983 4 18113339726319730564
21150785 3 15410888561698515685
21315763 28 18411418440220207236
220451 1 17095240332994439026
22224240 67 17168141269815239706
23035841 295 16081087086927115114
23402539 116 18343579651118631727
23521765 1 18341894108625966926
23536379 177 18410855456107709178
300161 21 17346875646316562094
33684 2 18407757045520917722
42788 4 18411699902412353214
4463277 17 18412262848477086568
57583515 80 18411702088566479394
59567204 34 18201721704881686721
8209 1 18412262852270881030

>  <PUBCHEM_SHAPE_MULTIPOLES>  (1) 
282.24
22.29
1.12
0.68
17.06
0.23
0
4.71
0.96
-1.94
0.06
0
0
-0.37

>  <PUBCHEM_SHAPE_SELFOVERLAP>  (1) 
502.99

>  <PUBCHEM_SHAPE_VOLUME>  (1) 
183.9

>  <PUBCHEM_COORDINATE_TYPE>  (1) 
2
5
10

$$$$
