42264
     RDKit          3D

 15 16  0  0  1  0  0  0  0  0999 V2000
   -2.6356    1.1477   -1.3888 O   0  0  0  0  0  0  0  0  0  0  0  0
    3.7355    0.7176   -0.5722 O   0  0  0  0  0  0  0  0  0  0  0  0
   -0.0851   -0.7658    0.2539 C   0  0  0  0  0  0  0  0  0  0  0  0
    0.5800    0.4238    1.0412 C   0  0  0  0  0  0  0  0  0  0  0  0
   -1.6531   -0.5270    0.0855 C   0  0  0  0  0  0  0  0  0  0  0  0
    0.6069   -0.8920   -1.1408 C   0  0  0  0  0  0  0  0  0  0  0  0
    0.2280    1.8030    0.4465 C   0  0  0  0  0  0  0  0  0  0  0  0
    2.1091    0.2979    1.1341 C   0  0  0  0  0  0  0  0  0  0  0  0
    0.1639   -2.0844    1.0392 C   0  0  0  0  0  0  0  0  0  0  0  0
   -1.9038    0.9027   -0.4290 C   0  0  0  0  0  0  0  0  0  0  0  0
   -1.2661    2.0283    0.3459 C   0  0  0  0  0  0  0  0  0  0  0  0
    2.1309   -0.9772   -1.0977 C   0  0  0  0  0  0  0  0  0  0  0  0
   -2.4298   -0.6569    1.4168 C   0  0  0  0  0  0  0  0  0  0  0  0
   -2.3087   -1.5181   -0.9059 C   0  0  0  0  0  0  0  0  0  0  0  0
    2.7279    0.1003   -0.2288 C   0  0  0  0  0  0  0  0  0  0  0  0
  1 10  2  0
  2 15  2  0
  3  4  1  0
  3  5  1  0
  3  6  1  0
  3  9  1  0
  4  7  1  0
  4  8  1  0
  5 10  1  0
  5 13  1  0
  5 14  1  0
  6 12  1  0
  7 11  1  0
  8 15  1  0
 10 11  1  0
 12 15  1  0
M  END
>  <PUBCHEM_COMPOUND_CID>  (1) 
42264

>  <PUBCHEM_CONFORMER_RMSD>  (1) 
0.6

>  <PUBCHEM_CONFORMER_DIVERSEORDER>  (1) 
4
3
1
2

>  <PUBCHEM_MMFF94_PARTIAL_CHARGES>  (1) 
8
1 -0.57
10 0.45
11 0.06
12 0.06
15 0.45
2 -0.57
5 0.06
8 0.06

>  <PUBCHEM_EFFECTIVE_ROTOR_COUNT>  (1) 
1.2

>  <PUBCHEM_PHARMACOPHORE_FEATURES>  (1) 
5
1 1 acceptor
1 2 acceptor
3 5 13 14 hydrophobe
6 3 4 5 7 10 11 rings
6 3 4 6 8 12 15 rings

>  <PUBCHEM_HEAVY_ATOM_COUNT>  (1) 
15

>  <PUBCHEM_ATOM_DEF_STEREO_COUNT>  (1) 
0

>  <PUBCHEM_ATOM_UDEF_STEREO_COUNT>  (1) 
2

>  <PUBCHEM_BOND_DEF_STEREO_COUNT>  (1) 
0

>  <PUBCHEM_BOND_UDEF_STEREO_COUNT>  (1) 
0

>  <PUBCHEM_ISOTOPIC_ATOM_COUNT>  (1) 
0

>  <PUBCHEM_COMPONENT_COUNT>  (1) 
1

>  <PUBCHEM_CACTVS_TAUTO_COUNT>  (1) 
6

>  <PUBCHEM_CONFORMER_ID>  (1) 
0000A51800000004

>  <PUBCHEM_MMFF94_ENERGY>  (1) 
44.8185

>  <PUBCHEM_FEATURE_SELFOVERLAP>  (1) 
25.433

>  <PUBCHEM_SHAPE_FINGERPRINT>  (1) 
10353120 184 18410019848571232657
10863032 1 15864337073745582091
11206711 2 18263348326220663087
12138202 97 18338224990630928727
12423570 1 17194848569808489507
12491281 212 17131287769580383603
12897270 3 18060413603886167292
13024252 1 17894638083892844787
13299463 15 18130790091805502366
13764800 53 18261404286641861097
144361 1 17631716180553147717
14614273 12 18040714719240136861
14761567 1 18119813499811432195
14817 1 13192042060827781615
15775835 57 17313103025445555100
15881359 60 17483922206838066935
16945 1 18060134332201279688
17844478 74 18339381719802517915
19868273 325 18340768233966714733
20645476 183 17822285773504569242
21501502 16 17986675870176337788
22802520 49 18126865797493590990
23402539 116 18409444817286199358
23419403 2 14133325482722366937
23559900 14 18341888564355918562
241688 4 18200025278292014435
2748010 2 18124575725268905793
305870 269 17749388101291547074
353137 74 18339362933547298456
5084963 1 18129091406480712659
528886 8 17418100901008654610

>  <PUBCHEM_SHAPE_MULTIPOLES>  (1) 
296.95
4.16
1.95
1.36
1.9
0.23
0.07
0.28
-0.92
-0.66
0.08
-0.26
-0.26
0.36

>  <PUBCHEM_SHAPE_SELFOVERLAP>  (1) 
615.828

>  <PUBCHEM_SHAPE_VOLUME>  (1) 
168.2

>  <PUBCHEM_COORDINATE_TYPE>  (1) 
2
5
10

$$$$
