42266
     RDKit          3D

 24 26  0  0  1  0  0  0  0  0999 V2000
    0.4580    3.4466   -0.3712 Cl  0  0  0  0  0  0  0  0  0  0  0  0
    3.3535    2.4847    0.5637 Cl  0  0  0  0  0  0  0  0  0  0  0  0
   -2.0744    2.0335   -0.9926 O   0  0  0  0  0  0  0  0  0  0  0  0
    3.5832   -0.4488    0.8371 O   0  0  0  0  0  0  0  0  0  0  0  0
    6.4307   -1.9989   -0.6943 O   0  0  0  0  0  0  0  0  0  0  0  0
    6.3047   -0.3490    0.8708 O   0  0  0  0  0  0  0  0  0  0  0  0
   -2.1888   -0.4100   -0.9588 C   0  0  0  0  0  0  0  0  0  0  0  0
   -1.0909   -1.4169   -0.4792 C   0  0  0  0  0  0  0  0  0  0  0  0
    0.1051   -0.5598   -0.1983 C   0  0  0  0  0  0  0  0  0  0  0  0
   -1.5263    0.9631   -0.7930 C   0  0  0  0  0  0  0  0  0  0  0  0
   -0.1442    0.7955   -0.3671 C   0  0  0  0  0  0  0  0  0  0  0  0
   -3.4113   -0.5046   -0.1018 C   0  0  0  0  0  0  0  0  0  0  0  0
   -2.5582   -0.6296   -2.4240 C   0  0  0  0  0  0  0  0  0  0  0  0
    1.3607   -0.9821    0.2088 C   0  0  0  0  0  0  0  0  0  0  0  0
    0.8119    1.7700   -0.1466 C   0  0  0  0  0  0  0  0  0  0  0  0
   -3.4778    0.2097    1.0920 C   0  0  0  0  0  0  0  0  0  0  0  0
   -4.4778   -1.3062   -0.5016 C   0  0  0  0  0  0  0  0  0  0  0  0
    2.3499   -0.0199    0.4375 C   0  0  0  0  0  0  0  0  0  0  0  0
    2.0766    1.3467    0.2611 C   0  0  0  0  0  0  0  0  0  0  0  0
   -4.6176    0.1217    1.8910 C   0  0  0  0  0  0  0  0  0  0  0  0
   -5.6177   -1.3941    0.2975 C   0  0  0  0  0  0  0  0  0  0  0  0
   -5.6876   -0.6800    1.4938 C   0  0  0  0  0  0  0  0  0  0  0  0
    4.2774   -1.3270   -0.0442 C   0  0  0  0  0  0  0  0  0  0  0  0
    5.7609   -1.1444    0.1195 C   0  0  0  0  0  0  0  0  0  0  0  0
  1 15  1  0
  2 19  1  0
  3 10  2  0
  4 18  1  0
  4 23  1  0
  5 24  1  0
  6 24  2  0
  7  8  1  0
  7 10  1  0
  7 12  1  0
  7 13  1  0
  8  9  1  0
  9 11  2  0
  9 14  1  0
 10 11  1  0
 11 15  1  0
 12 16  2  0
 12 17  1  0
 14 18  2  0
 15 19  2  0
 16 20  1  0
 17 21  2  0
 18 19  1  0
 20 22  2  0
 21 22  1  0
 23 24  1  0
M  END
>  <PUBCHEM_COMPOUND_CID>  (1) 
42266

>  <PUBCHEM_CONFORMER_RMSD>  (1) 
0.8

>  <PUBCHEM_CONFORMER_DIVERSEORDER>  (1) 
1
7
16
14
13
6
4
5
12
10
11
15
8
17
2
9
3

>  <PUBCHEM_MMFF94_PARTIAL_CHARGES>  (1) 
30
1 -0.18
10 0.42
11 0.09
12 -0.14
14 -0.15
15 0.18
16 -0.15
17 -0.15
18 0.08
19 0.18
2 -0.18
20 -0.15
21 -0.15
22 -0.15
23 0.34
24 0.66
3 -0.57
30 0.15
31 0.15
32 0.15
33 0.15
34 0.15
35 0.15
38 0.5
4 -0.36
5 -0.65
6 -0.57
7 0.2
8 0.14
9 -0.14

>  <PUBCHEM_EFFECTIVE_ROTOR_COUNT>  (1) 
4.4

>  <PUBCHEM_PHARMACOPHORE_FEATURES>  (1) 
8
1 3 acceptor
1 4 acceptor
1 5 acceptor
1 6 acceptor
3 5 6 24 anion
5 7 8 9 10 11 rings
6 12 16 17 20 21 22 rings
6 9 11 14 15 18 19 rings

>  <PUBCHEM_HEAVY_ATOM_COUNT>  (1) 
24

>  <PUBCHEM_ATOM_DEF_STEREO_COUNT>  (1) 
0

>  <PUBCHEM_ATOM_UDEF_STEREO_COUNT>  (1) 
1

>  <PUBCHEM_BOND_DEF_STEREO_COUNT>  (1) 
0

>  <PUBCHEM_BOND_UDEF_STEREO_COUNT>  (1) 
0

>  <PUBCHEM_ISOTOPIC_ATOM_COUNT>  (1) 
0

>  <PUBCHEM_COMPONENT_COUNT>  (1) 
1

>  <PUBCHEM_CACTVS_TAUTO_COUNT>  (1) 
1

>  <PUBCHEM_CONFORMER_ID>  (1) 
0000A51A00000001

>  <PUBCHEM_MMFF94_ENERGY>  (1) 
81.0084

>  <PUBCHEM_FEATURE_SELFOVERLAP>  (1) 
40.737

>  <PUBCHEM_SHAPE_FINGERPRINT>  (1) 
10366900 7 17385720305356607779
105312 117 11743835859230640705
11045977 3 18041000691490867763
11578080 2 17556825274738996617
12107183 9 18270691866036486841
12236239 1 17917712434987263571
12422481 6 17775008938352956342
12553582 1 18337376176587520554
12596602 18 17489586770686323458
12633257 1 18342741840174781095
13009979 54 18059574762788189795
13140716 1 18266742561296748779
13257819 101 13542188230051682041
13540713 4 18263340573926974588
13673619 4 17603872221480273709
13782708 43 17531240681988129418
14341114 176 18337958990827528425
14739800 52 16844158159440671784
14849402 71 17987516086550886200
14955137 171 18343590641818694248
15081414 286 18337383967721875740
15461852 350 15985098614063871941
15527383 91 18342741818789401136
17492 89 17976825607940125539
17980427 26 17127589214946180280
1813 80 18341061743710814540
19141452 34 17918269874761797750
200 152 12468357951121098867
20028762 73 18271804674493445831
20739085 24 18411426136738811364
21029758 27 18260265235392144932
21041028 32 18412265021266827881
21267235 1 18409451380112486414
21365058 113 17749118794031052884
21682296 61 18411704253177651622
22182313 1 18116970308982356172
22849341 161 18342466953762344120
22950370 63 18410296900037739278
2297311 6 18337395946437833910
23522609 53 18194151618463012420
23559900 14 15719392880083760575
23566358 27 18118124903174819525
23622692 88 17846782901393377229
25147074 1 17916581097509321749
2838139 119 13542459826582675435
34797466 226 16009036141229607780
350125 39 18411139125691667932
3633792 109 18272636953946174039
3737641 26 18199189473667882542
4093350 32 16773523265642081664
465052 167 18262811769015751555
5104073 3 18059017314524474907
7495541 125 17603307072503733214
8863177 126 17823426061689484883

>  <PUBCHEM_SHAPE_MULTIPOLES>  (1) 
474.17
13.19
2.49
1.39
8.08
2.15
-0.21
-8.65
4.54
2.41
-0.4
-1.85
-0.09
0.19

>  <PUBCHEM_SHAPE_SELFOVERLAP>  (1) 
1024.441

>  <PUBCHEM_SHAPE_VOLUME>  (1) 
263.7

>  <PUBCHEM_COORDINATE_TYPE>  (1) 
2
5
10

$$$$
