42263
     RDKit          3D

 18 17  0  0  1  0  0  0  0  0999 V2000
    8.5375    1.2986   -0.5320 O   0  0  0  0  0  0  0  0  0  0  0  0
   -0.4867   -0.4286   -0.1388 C   0  0  0  0  0  0  0  0  0  0  0  0
    0.7832    0.3708    0.1579 C   0  0  0  0  0  0  0  0  0  0  0  0
   -1.7419    0.4158    0.0920 C   0  0  0  0  0  0  0  0  0  0  0  0
    2.0390   -0.4623   -0.1045 C   0  0  0  0  0  0  0  0  0  0  0  0
   -3.0118   -0.3952   -0.1731 C   0  0  0  0  0  0  0  0  0  0  0  0
    3.3087    0.3266    0.2240 C   0  0  0  0  0  0  0  0  0  0  0  0
   -4.3017    0.3931    0.0744 C   0  0  0  0  0  0  0  0  0  0  0  0
    4.5642   -0.4975   -0.0701 C   0  0  0  0  0  0  0  0  0  0  0  0
   -5.6071   -0.3769   -0.1533 C   0  0  0  0  0  0  0  0  0  0  0  0
    5.8681    0.2499    0.2296 C   0  0  0  0  0  0  0  0  0  0  0  0
   -6.8591    0.4796    0.0491 C   0  0  0  0  0  0  0  0  0  0  0  0
    7.1218   -0.6036    0.0003 C   0  0  0  0  0  0  0  0  0  0  0  0
   -8.1637   -0.3104   -0.1015 C   0  0  0  0  0  0  0  0  0  0  0  0
    8.4404    0.1310    0.2784 C   0  0  0  0  0  0  0  0  0  0  0  0
   -9.4487    0.4737    0.1757 C   0  0  0  0  0  0  0  0  0  0  0  0
    9.6736   -0.7255    0.0307 C   0  0  0  0  0  0  0  0  0  0  0  0
  -10.7158   -0.3392   -0.0387 C   0  0  0  0  0  0  0  0  0  0  0  0
  1 15  1  0
  2  3  1  0
  2  4  1  0
  3  5  1  0
  4  6  1  0
  5  7  1  0
  6  8  1  0
  7  9  1  0
  8 10  1  0
  9 11  1  0
 10 12  1  0
 11 13  1  0
 12 14  1  0
 13 15  1  0
 14 16  1  0
 15 17  1  0
 16 18  1  0
M  END
>  <PUBCHEM_COMPOUND_CID>  (1) 
42263

>  <PUBCHEM_CONFORMER_RMSD>  (1) 
1.4

>  <PUBCHEM_CONFORMER_DIVERSEORDER>  (1) 
1
43
25
15
8
35
57
58
60
40
27
38
16
30
23
12
6
61
26
49
2
54
32
5
53
28
50
44
41
55
10
21
37
18
42
47
52
24
7
29
56
46
59
33
11
17
4
51
20
39
45
14
48
13
22
34
36
3
31
19
9

>  <PUBCHEM_MMFF94_PARTIAL_CHARGES>  (1) 
3
1 -0.68
15 0.28
54 0.4

>  <PUBCHEM_EFFECTIVE_ROTOR_COUNT>  (1) 
14

>  <PUBCHEM_PHARMACOPHORE_FEATURES>  (1) 
3
1 1 acceptor
1 1 donor
1 18 hydrophobe

>  <PUBCHEM_HEAVY_ATOM_COUNT>  (1) 
18

>  <PUBCHEM_ATOM_DEF_STEREO_COUNT>  (1) 
0

>  <PUBCHEM_ATOM_UDEF_STEREO_COUNT>  (1) 
1

>  <PUBCHEM_BOND_DEF_STEREO_COUNT>  (1) 
0

>  <PUBCHEM_BOND_UDEF_STEREO_COUNT>  (1) 
0

>  <PUBCHEM_ISOTOPIC_ATOM_COUNT>  (1) 
0

>  <PUBCHEM_COMPONENT_COUNT>  (1) 
1

>  <PUBCHEM_CACTVS_TAUTO_COUNT>  (1) 
1

>  <PUBCHEM_CONFORMER_ID>  (1) 
0000A51700000001

>  <PUBCHEM_MMFF94_ENERGY>  (1) 
0.5095

>  <PUBCHEM_FEATURE_SELFOVERLAP>  (1) 
15.223

>  <PUBCHEM_SHAPE_FINGERPRINT>  (1) 
14123256 10 18410573980856490338
14251764 18 17918277537088357472
14251764 46 18334857216780346531
14251920 1 18410855455833201003
15061470 23 18409445878117345173
15510794 2 18410579483095374499
155225 1 18334859464119686324
16120349 18 18260267482277472588
21362267 2 18115294691769281932
21362267 20 18261110807570409859
21362267 313 18043242453385636241
22224240 67 16805322202251715482
232437 2 18408885131181154578
23521765 1 18341894090834057570
23581129 1 18409448085244615011
33684 2 18410855455833201003
67123 10 18407760339507476747
8209 1 18410855460128161795

>  <PUBCHEM_SHAPE_MULTIPOLES>  (1) 
364.56
41.16
0.86
0.64
15.83
0.05
0
-0.59
-0.05
-0.65
0.04
-0.12
0.02
-0.33

>  <PUBCHEM_SHAPE_SELFOVERLAP>  (1) 
652.849

>  <PUBCHEM_SHAPE_VOLUME>  (1) 
236

>  <PUBCHEM_COORDINATE_TYPE>  (1) 
2
5
10

$$$$
