4227
     RDKit          3D

 20 21  0  0  0  0  0  0  0  0999 V2000
   -5.2319    2.4990    1.0042 O   0  0  0  0  0  0  0  0  0  0  0  0
   -3.9765   -2.5929    0.2141 O   0  0  0  0  0  0  0  0  0  0  0  0
   -5.0691    1.8349   -1.1642 O   0  0  0  0  0  0  0  0  0  0  0  0
   -2.5971   -2.4012    0.2979 N   0  0  0  0  0  0  0  0  0  0  0  0
   -0.7952   -0.8590   -0.0819 C   0  0  0  0  0  0  0  0  0  0  0  0
   -3.2415   -0.1786   -0.6234 C   0  0  0  0  0  0  0  0  0  0  0  0
    1.8726   -0.1989   -0.0269 C   0  0  0  0  0  0  0  0  0  0  0  0
   -2.2463   -1.2178   -0.1130 C   0  0  0  0  0  0  0  0  0  0  0  0
   -0.4485    0.4580    0.1071 C   0  0  0  0  0  0  0  0  0  0  0  0
    0.1324   -1.8606   -0.2448 C   0  0  0  0  0  0  0  0  0  0  0  0
    3.2769    0.1487    0.0022 C   0  0  0  0  0  0  0  0  0  0  0  0
   -3.8166    0.6448    0.5233 C   0  0  0  0  0  0  0  0  0  0  0  0
    0.9053    0.7929    0.1350 C   0  0  0  0  0  0  0  0  0  0  0  0
    1.4862   -1.5255   -0.2169 C   0  0  0  0  0  0  0  0  0  0  0  0
    3.9343    0.4921   -1.1790 C   0  0  0  0  0  0  0  0  0  0  0  0
    3.9731    0.1398    1.2108 C   0  0  0  0  0  0  0  0  0  0  0  0
   -4.7576    1.7047    0.0123 C   0  0  0  0  0  0  0  0  0  0  0  0
    5.2881    0.8268   -1.1517 C   0  0  0  0  0  0  0  0  0  0  0  0
    5.3269    0.4746    1.2381 C   0  0  0  0  0  0  0  0  0  0  0  0
    5.9845    0.8182    0.0569 C   0  0  0  0  0  0  0  0  0  0  0  0
  1 17  1  0
  2  4  1  0
  3 17  2  0
  4  8  2  0
  5  8  1  0
  5  9  2  0
  5 10  1  0
  6  8  1  0
  6 12  1  0
  7 11  1  0
  7 13  2  0
  7 14  1  0
  9 13  1  0
 10 14  2  0
 11 15  2  0
 11 16  1  0
 12 17  1  0
 15 18  1  0
 16 19  2  0
 18 20  2  0
 19 20  1  0
M  END
>  <PUBCHEM_COMPOUND_CID>  (1) 
4227

>  <PUBCHEM_CONFORMER_RMSD>  (1) 
0.8

>  <PUBCHEM_CONFORMER_DIVERSEORDER>  (1) 
1
10
6
9
7
2
5
4
8
3

>  <PUBCHEM_MMFF94_PARTIAL_CHARGES>  (1) 
29
1 -0.65
10 -0.15
12 0.06
13 -0.15
14 -0.15
15 -0.15
16 -0.15
17 0.66
18 -0.15
19 -0.15
2 -0.34
20 -0.15
23 0.15
24 0.15
27 0.15
28 0.15
29 0.15
3 -0.57
30 0.15
31 0.15
32 0.15
33 0.15
34 0.5
35 0.4
4 -0.51
5 0.09
6 0.06
8 0.3
9 -0.15

>  <PUBCHEM_EFFECTIVE_ROTOR_COUNT>  (1) 
5

>  <PUBCHEM_PHARMACOPHORE_FEATURES>  (1) 
7
1 1 acceptor
1 2 anion
1 3 acceptor
1 4 acceptor
3 1 3 17 anion
6 11 15 16 18 19 20 rings
6 5 7 9 10 13 14 rings

>  <PUBCHEM_HEAVY_ATOM_COUNT>  (1) 
20

>  <PUBCHEM_ATOM_DEF_STEREO_COUNT>  (1) 
0

>  <PUBCHEM_ATOM_UDEF_STEREO_COUNT>  (1) 
0

>  <PUBCHEM_BOND_DEF_STEREO_COUNT>  (1) 
0

>  <PUBCHEM_BOND_UDEF_STEREO_COUNT>  (1) 
1

>  <PUBCHEM_ISOTOPIC_ATOM_COUNT>  (1) 
0

>  <PUBCHEM_COMPONENT_COUNT>  (1) 
1

>  <PUBCHEM_CACTVS_TAUTO_COUNT>  (1) 
2

>  <PUBCHEM_CONFORMER_ID>  (1) 
0000108300000001

>  <PUBCHEM_MMFF94_ENERGY>  (1) 
60.3377

>  <PUBCHEM_FEATURE_SELFOVERLAP>  (1) 
35.578

>  <PUBCHEM_SHAPE_FINGERPRINT>  (1) 
10 15 18114189648354483337
10912923 1 17676482904216317794
11056379 131 18268153226479062063
11089746 13 17845923070426285992
11796584 16 18343305856182405846
12107183 9 18043798798048952882
12236239 1 18040995185701230096
12390115 104 18341625801929360643
12403259 415 17988360485394001160
12596602 18 16443070482388086153
12616971 3 17240198842156615844
12670543 26 17917437488714173484
12969540 114 17417802933383803924
13073987 5 18262233443242681346
14251764 75 17339576895154230961
14573314 32 17775291560228515436
14790565 3 18264213672174403380
15196674 1 18411419509978807006
15778101 99 18411142432699973623
1601671 61 18409449180904725108
16079462 125 17704063023970535744
17093844 174 18411132567650692480
17844677 252 18268433601932978328
17980427 23 18041002885607129311
19784866 170 18333735688791463175
200 152 13830136091781163270
20281389 69 18259981565560759604
20645477 56 18410294705536038033
20645477 70 16343711989257614132
21033648 29 17703779362443800634
21236236 1 18410572916221799623
21279426 13 18271815583978746910
21421861 104 17750222609406021826
22182313 1 18059033738263416215
23081809 10 17676485086323337694
23402539 116 18187357757657554926
23402655 69 18059572460173873501
23557571 272 18271258204054420743
23559900 14 18342749477296540342
23569914 152 16193418451608176396
25147074 1 18263063492596111123
268830 7 17531242911424003740
2767999 5 18411412886838569237
2838139 119 17988072301409783753
2916195 48 18059005215843980520
293599 30 18413392016278989580
34934 24 18412259506507227147
350125 39 18337677533236460403
3545911 37 18343305864202030371
5104073 3 17968371351406451112
542803 24 17821449071289632204
59682541 52 16844727500041464165
59755656 215 18268996393431552286
633830 44 18271238417677859412
7808743 9 18408322160032543145
8272917 22 17676483909534252866

>  <PUBCHEM_SHAPE_MULTIPOLES>  (1) 
389
13.69
2.19
1.04
2.3
0.57
0.01
-7.97
-0.41
-4.22
-0.13
0.78
-0.31
-0.14

>  <PUBCHEM_SHAPE_SELFOVERLAP>  (1) 
831.226

>  <PUBCHEM_SHAPE_VOLUME>  (1) 
215.7

>  <PUBCHEM_COORDINATE_TYPE>  (1) 
2
5
10

$$$$
