42278
     RDKit          3D

 27 28  0  0  0  0  0  0  0  0999 V2000
    0.8195   -1.0448   -0.2913 O   0  0  0  0  0  0  0  0  0  0  0  0
   -2.3784   -0.9375    1.8691 O   0  0  0  0  0  0  0  0  0  0  0  0
    0.2480   -2.5848    1.3296 O   0  0  0  0  0  0  0  0  0  0  0  0
    4.4442   -0.1598   -0.2263 N   0  0  0  0  0  0  0  0  0  0  0  0
    2.9948   -0.1106   -0.6876 C   0  0  0  0  0  0  0  0  0  0  0  0
    4.4915   -0.2049    1.2942 C   0  0  0  0  0  0  0  0  0  0  0  0
    5.1148   -1.4035   -0.7918 C   0  0  0  0  0  0  0  0  0  0  0  0
    5.1758    1.0801   -0.7200 C   0  0  0  0  0  0  0  0  0  0  0  0
    2.1680   -1.0589    0.1581 C   0  0  0  0  0  0  0  0  0  0  0  0
    3.8237    1.0335    1.8505 C   0  0  0  0  0  0  0  0  0  0  0  0
    6.5550   -1.4467   -0.3301 C   0  0  0  0  0  0  0  0  0  0  0  0
    5.1255    1.1194   -2.2318 C   0  0  0  0  0  0  0  0  0  0  0  0
   -2.2567   -0.5775    0.4795 C   0  0  0  0  0  0  0  0  0  0  0  0
   -1.4471   -1.7282   -0.1750 C   0  0  0  0  0  0  0  0  0  0  0  0
   -0.0444   -1.8604    0.3869 C   0  0  0  0  0  0  0  0  0  0  0  0
   -3.6943   -0.4359   -0.0460 C   0  0  0  0  0  0  0  0  0  0  0  0
   -1.4968    0.7492    0.3352 C   0  0  0  0  0  0  0  0  0  0  0  0
   -4.5594    0.4937    0.5312 C   0  0  0  0  0  0  0  0  0  0  0  0
   -1.3227    1.3195   -0.9259 C   0  0  0  0  0  0  0  0  0  0  0  0
   -4.1336   -1.2366   -1.1003 C   0  0  0  0  0  0  0  0  0  0  0  0
   -0.9812    1.3842    1.4651 C   0  0  0  0  0  0  0  0  0  0  0  0
   -5.8639    0.6224    0.0544 C   0  0  0  0  0  0  0  0  0  0  0  0
   -0.6327    2.5246   -1.0571 C   0  0  0  0  0  0  0  0  0  0  0  0
   -5.4382   -1.1076   -1.5772 C   0  0  0  0  0  0  0  0  0  0  0  0
   -0.2913    2.5895    1.3337 C   0  0  0  0  0  0  0  0  0  0  0  0
   -6.3032   -0.1781   -0.9998 C   0  0  0  0  0  0  0  0  0  0  0  0
   -0.1171    3.1596    0.0727 C   0  0  0  0  0  0  0  0  0  0  0  0
  1  9  1  0
  1 15  1  0
  2 13  1  0
  3 15  2  0
  4  5  1  0
  4  6  1  0
  4  7  1  0
  4  8  1  0
  5  9  1  0
  6 10  1  0
  7 11  1  0
  8 12  1  0
 13 14  1  0
 13 16  1  0
 13 17  1  0
 14 15  1  0
 16 18  2  0
 16 20  1  0
 17 19  2  0
 17 21  1  0
 18 22  1  0
 19 23  1  0
 20 24  2  0
 21 25  2  0
 22 26  2  0
 23 27  2  0
 24 26  1  0
 25 27  1  0
M  CHG  1   4   1
M  END
>  <PUBCHEM_COMPOUND_CID>  (1) 
42278

>  <PUBCHEM_CONFORMER_RMSD>  (1) 
1.4

>  <PUBCHEM_CONFORMER_DIVERSEORDER>  (1) 
1
6
11
4
5
3
14
9
8
2
13
12
7
10

>  <PUBCHEM_MMFF94_PARTIAL_CHARGES>  (1) 
35
1 -0.43
13 0.57
14 0.06
15 0.66
16 -0.14
17 -0.14
18 -0.15
19 -0.15
2 -0.68
20 -0.15
21 -0.15
22 -0.15
23 -0.15
24 -0.15
25 -0.15
26 -0.15
27 -0.15
3 -0.57
4 -1.01
49 0.4
5 0.5
50 0.15
51 0.15
52 0.15
53 0.15
54 0.15
55 0.15
56 0.15
57 0.15
58 0.15
59 0.15
6 0.5
7 0.5
8 0.5
9 0.28

>  <PUBCHEM_EFFECTIVE_ROTOR_COUNT>  (1) 
11

>  <PUBCHEM_PHARMACOPHORE_FEATURES>  (1) 
6
1 2 acceptor
1 2 donor
1 3 acceptor
1 4 cation
6 16 18 20 22 24 26 rings
6 17 19 21 23 25 27 rings

>  <PUBCHEM_HEAVY_ATOM_COUNT>  (1) 
27

>  <PUBCHEM_ATOM_DEF_STEREO_COUNT>  (1) 
0

>  <PUBCHEM_ATOM_UDEF_STEREO_COUNT>  (1) 
0

>  <PUBCHEM_BOND_DEF_STEREO_COUNT>  (1) 
0

>  <PUBCHEM_BOND_UDEF_STEREO_COUNT>  (1) 
0

>  <PUBCHEM_ISOTOPIC_ATOM_COUNT>  (1) 
0

>  <PUBCHEM_COMPONENT_COUNT>  (1) 
1

>  <PUBCHEM_CACTVS_TAUTO_COUNT>  (1) 
1

>  <PUBCHEM_CONFORMER_ID>  (1) 
0000A52600000001

>  <PUBCHEM_MMFF94_ENERGY>  (1) 
95.5988

>  <PUBCHEM_FEATURE_SELFOVERLAP>  (1) 
30.446

>  <PUBCHEM_SHAPE_FINGERPRINT>  (1) 
10090160 65 18040431062462627675
10366900 7 18336268964162426618
10670039 82 18187930517743561262
10906281 52 18261125040995633585
11112241 14 16985448740688771784
11646440 116 18341339954760183185
12107698 1 17989205928516523888
12166972 35 18186803565374773484
12467345 10 14201385063508031737
12788726 201 18186796933444523937
13533116 47 15574986235532304264
13782708 43 16271939185578755750
13911987 19 18260557752645384183
14068700 675 18343584031975451452
14170010 4 18341607149371710257
14347332 77 18125438618722200838
14713325 29 12390974271514614003
14787075 74 18409729564722027981
14840074 17 18333737918164424197
14910302 57 17202780202305495910
14955137 171 18271820063740159827
15183329 4 17095518483386796741
15439362 3 18119808264648082829
17492 54 18261395584758323541
20715895 44 17531520997576436173
21304303 64 17894640257732223301
221357 26 18201721713650111282
23402539 116 18272369763023367783
23559900 14 18269836578617351432
3004659 81 18187081750511835068
34797466 226 16702018729461389283
350125 39 18266459798315022650
465052 167 12607397845442459295
59755656 215 18340207388948779902
70251023 43 18051976918466251115

>  <PUBCHEM_SHAPE_MULTIPOLES>  (1) 
533.06
14.43
2.63
1.65
4.09
1.27
0.01
-4
-5.24
0.31
0.22
0.82
0.31
-0.61

>  <PUBCHEM_SHAPE_SELFOVERLAP>  (1) 
1102.125

>  <PUBCHEM_SHAPE_VOLUME>  (1) 
305

>  <PUBCHEM_COORDINATE_TYPE>  (1) 
2
5
10

$$$$
