42271
     RDKit          3D

 25 27  0  0  1  0  0  0  0  0999 V2000
    4.0811    3.4540    1.1816 Cl  0  0  0  0  0  0  0  0  0  0  0  0
   -6.2807   -0.4087    2.2036 Cl  0  0  0  0  0  0  0  0  0  0  0  0
   -1.8744    0.4899   -2.6398 O   0  0  0  0  0  0  0  0  0  0  0  0
    4.3898   -2.5296    1.2321 O   0  0  0  0  0  0  0  0  0  0  0  0
    2.3967   -1.8263    2.0480 O   0  0  0  0  0  0  0  0  0  0  0  0
    1.7060   -0.8628   -0.5275 N   0  0  0  0  0  0  0  0  0  0  0  0
    1.8355    0.4702   -0.2088 C   0  0  0  0  0  0  0  0  0  0  0  0
    0.4507   -1.1124   -1.0135 C   0  0  0  0  0  0  0  0  0  0  0  0
    2.7484   -1.8566   -0.3700 C   0  0  0  0  0  0  0  0  0  0  0  0
    0.6164    1.0838   -0.5048 C   0  0  0  0  0  0  0  0  0  0  0  0
   -0.2476    0.0731   -1.0117 C   0  0  0  0  0  0  0  0  0  0  0  0
    2.9274    1.1725    0.3138 C   0  0  0  0  0  0  0  0  0  0  0  0
    0.0324   -2.4667   -1.4365 C   0  0  0  0  0  0  0  0  0  0  0  0
    0.4779    2.4661   -0.2687 C   0  0  0  0  0  0  0  0  0  0  0  0
    3.9734   -1.5467   -1.2319 C   0  0  0  0  0  0  0  0  0  0  0  0
   -1.6078    0.2191   -1.4498 C   0  0  0  0  0  0  0  0  0  0  0  0
    3.1254   -2.0504    1.0904 C   0  0  0  0  0  0  0  0  0  0  0  0
    2.7666    2.5426    0.5396 C   0  0  0  0  0  0  0  0  0  0  0  0
    1.5617    3.1814    0.2535 C   0  0  0  0  0  0  0  0  0  0  0  0
   -2.7860    0.0597   -0.5291 C   0  0  0  0  0  0  0  0  0  0  0  0
   -2.5441   -0.2382    0.7867 C   0  0  0  0  0  0  0  0  0  0  0  0
   -4.0431    0.2221   -1.0512 C   0  0  0  0  0  0  0  0  0  0  0  0
   -3.6367   -0.3846    1.6412 C   0  0  0  0  0  0  0  0  0  0  0  0
   -5.1360    0.0759   -0.1967 C   0  0  0  0  0  0  0  0  0  0  0  0
   -4.9328   -0.2274    1.1496 C   0  0  0  0  0  0  0  0  0  0  0  0
  1 18  1  0
  2 25  1  0
  3 16  2  0
  4 17  1  0
  5 17  2  0
  6  7  1  0
  6  8  1  0
  6  9  1  0
  7 10  2  0
  7 12  1  0
  8 11  2  0
  8 13  1  0
  9 15  1  0
  9 17  1  0
 10 11  1  0
 10 14  1  0
 11 16  1  0
 12 18  2  0
 14 19  2  0
 16 20  1  0
 18 19  1  0
 20 21  2  0
 20 22  1  0
 21 23  1  0
 22 24  2  0
 23 25  2  0
 24 25  1  0
M  END
>  <PUBCHEM_COMPOUND_CID>  (1) 
42271

>  <PUBCHEM_CONFORMER_RMSD>  (1) 
0.8

>  <PUBCHEM_CONFORMER_DIVERSEORDER>  (1) 
4
14
18
9
1
7
11
16
6
15
10
8
13
5
2
17
12
3

>  <PUBCHEM_MMFF94_PARTIAL_CHARGES>  (1) 
31
1 -0.18
11 -0.09
12 -0.15
13 0.18
14 -0.15
16 0.57
17 0.66
18 0.18
19 -0.15
2 -0.18
20 0.09
21 -0.15
22 -0.15
23 -0.15
24 -0.15
25 0.18
27 0.15
3 -0.57
31 0.15
35 0.15
36 0.15
37 0.15
38 0.5
39 0.15
4 -0.65
40 0.15
5 -0.57
6 0.05
7 -0.15
8 -0.33
9 0.32

>  <PUBCHEM_EFFECTIVE_ROTOR_COUNT>  (1) 
4

>  <PUBCHEM_PHARMACOPHORE_FEATURES>  (1) 
8
1 3 acceptor
1 4 acceptor
1 5 acceptor
1 6 cation
3 4 5 17 anion
5 6 7 8 10 11 rings
6 20 21 22 23 24 25 rings
6 7 10 12 14 18 19 rings

>  <PUBCHEM_HEAVY_ATOM_COUNT>  (1) 
25

>  <PUBCHEM_ATOM_DEF_STEREO_COUNT>  (1) 
0

>  <PUBCHEM_ATOM_UDEF_STEREO_COUNT>  (1) 
1

>  <PUBCHEM_BOND_DEF_STEREO_COUNT>  (1) 
0

>  <PUBCHEM_BOND_UDEF_STEREO_COUNT>  (1) 
0

>  <PUBCHEM_ISOTOPIC_ATOM_COUNT>  (1) 
0

>  <PUBCHEM_COMPONENT_COUNT>  (1) 
1

>  <PUBCHEM_CACTVS_TAUTO_COUNT>  (1) 
1

>  <PUBCHEM_CONFORMER_ID>  (1) 
0000A51F00000004

>  <PUBCHEM_MMFF94_ENERGY>  (1) 
64.5081

>  <PUBCHEM_FEATURE_SELFOVERLAP>  (1) 
40.748

>  <PUBCHEM_SHAPE_FINGERPRINT>  (1) 
10074138 170 17184439055616729768
10369192 42 17751080430492559756
10382601 240 18341044224671407212
10498660 4 14117526403001333779
11640471 11 17489027183802817301
11796584 16 17024307418802783283
12236239 1 17274829077464892629
12293681 4 17975972068983695045
12390115 104 17693659625163689044
12403259 118 17774728554920580553
12549972 3 17897419745406528621
12553582 1 18270674256433339262
12633257 1 18412831261645103003
12644460 14 18413103983224763020
12892183 10 18333734645800576273
13140716 1 18340474656131295510
13533116 47 18334305279555576451
13583140 156 18041823061262852631
14178342 30 17838600507700656836
14341114 328 17560813156136092507
14739800 52 16630238220864832344
14950920 106 18267326317005000691
14955137 171 18341616971645801502
15475509 35 17749108868003117499
15475509 8 17344655706802426556
15475509 84 18128824053410011945
1813 80 17845103870007856590
18222031 100 18200308818921485654
19377110 9 17774726480583478795
20715895 44 17270061410996824409
20739085 24 18342749493848785108
21033648 29 18040997363091790029
21041028 32 18269833129748011212
21065201 7 16877939422022688869
21421861 104 18343868809591855720
21756936 100 17416128523161715517
22182313 1 18261938687868934956
23419403 2 18115008728445185964
23558518 356 17690834984175667966
244849 19 17750210583270434149
25147074 1 17844509192608819191
2748010 2 18053919802788313524
3004659 81 15068631495920678107
31174 14 18335138700041062861
312425 54 18189074100437093659
3286 77 18261118443825607671
3411729 13 18341054120175843536
3472631 163 14117510996832271859
38570 142 17630347426016156732
437795 51 18261399975074639114
4409770 3 15465838545214016639
474 4 18060423551262500909
5104073 3 18339934787848704763
59444896 2 14902056510725240094
81228 2 17477750292069493004
8863177 126 18114195158987766219
9841814 1 18410855421943077978
9981440 41 15473076136212638592

>  <PUBCHEM_SHAPE_MULTIPOLES>  (1) 
495.64
10.45
3.26
1.92
13.45
1.48
-0.19
-0.04
-6.07
-6.66
-0.68
1.35
-0.64
0.17

>  <PUBCHEM_SHAPE_SELFOVERLAP>  (1) 
1070.933

>  <PUBCHEM_SHAPE_VOLUME>  (1) 
276.9

>  <PUBCHEM_COORDINATE_TYPE>  (1) 
2
5
10

$$$$
