42272
     RDKit          3D

 22 23  0  0  1  0  0  0  0  0999 V2000
   -2.3323    2.0515   -1.3541 O   0  0  0  0  0  0  0  0  0  0  0  0
    1.0288   -2.0797    0.8703 O   0  0  0  0  0  0  0  0  0  0  0  0
   -2.6266    2.8920   -0.2309 C   0  0  0  0  0  0  0  0  0  0  0  0
   -3.3541    1.5985   -0.4565 C   0  0  0  0  0  0  0  0  0  0  0  0
   -3.0202    0.3465    0.2944 C   0  0  0  0  0  0  0  0  0  0  0  0
   -1.5292    2.9451    0.7646 C   0  0  0  0  0  0  0  0  0  0  0  0
   -2.9884   -0.9039   -0.5897 C   0  0  0  0  0  0  0  0  0  0  0  0
   -3.2456    4.1844   -0.6112 C   0  0  0  0  0  0  0  0  0  0  0  0
   -2.7001   -2.2412    0.1346 C   0  0  0  0  0  0  0  0  0  0  0  0
   -2.0404    3.1755    2.1825 C   0  0  0  0  0  0  0  0  0  0  0  0
   -1.3592   -2.2412    0.8966 C   0  0  0  0  0  0  0  0  0  0  0  0
   -2.8295   -3.3950   -0.8865 C   0  0  0  0  0  0  0  0  0  0  0  0
   -0.1211   -2.0278    0.0335 C   0  0  0  0  0  0  0  0  0  0  0  0
   -2.5687   -4.7748   -0.2988 C   0  0  0  0  0  0  0  0  0  0  0  0
    2.0997   -1.3126    0.4945 C   0  0  0  0  0  0  0  0  0  0  0  0
    2.9632   -0.7992    1.4622 C   0  0  0  0  0  0  0  0  0  0  0  0
    2.3264   -1.0446   -0.8555 C   0  0  0  0  0  0  0  0  0  0  0  0
    4.2803    0.2502   -0.2701 C   0  0  0  0  0  0  0  0  0  0  0  0
    4.0535   -0.0179    1.0798 C   0  0  0  0  0  0  0  0  0  0  0  0
    3.4166   -0.2631   -1.2377 C   0  0  0  0  0  0  0  0  0  0  0  0
    5.4456    1.0857   -0.6797 C   0  0  0  0  0  0  0  0  0  0  0  0
    5.1015    2.5717   -0.7424 C   0  0  0  0  0  0  0  0  0  0  0  0
  1  3  1  0
  1  4  1  0
  2 13  1  0
  2 15  1  0
  3  4  1  0
  3  6  1  0
  3  8  1  0
  4  5  1  0
  5  7  1  0
  6 10  1  0
  7  9  1  0
  9 11  1  0
  9 12  1  0
 11 13  1  0
 12 14  1  0
 15 16  2  0
 15 17  1  0
 16 19  1  0
 17 20  2  0
 18 19  2  0
 18 20  1  0
 18 21  1  0
 21 22  1  0
M  END
>  <PUBCHEM_COMPOUND_CID>  (1) 
42272

>  <PUBCHEM_CONFORMER_RMSD>  (1) 
1.4

>  <PUBCHEM_CONFORMER_DIVERSEORDER>  (1) 
1
16
25
38
46
18
5
24
37
12
7
31
42
4
56
21
23
49
3
33
40
41
15
13
22
44
19
8
28
39
36
35
10
32
54
9
55
11
29
6
17
45
48
20
53
52
26
50
34
47
51
27
2
14
43
30

>  <PUBCHEM_MMFF94_PARTIAL_CHARGES>  (1) 
20
1 -0.3
13 0.28
15 0.08
16 -0.15
17 -0.15
18 -0.14
19 -0.15
2 -0.36
20 -0.15
21 0.14
23 0.1
3 -0.04
4 -0.05
46 0.15
47 0.15
48 0.15
49 0.15
5 0.09
6 0.09
8 0.09

>  <PUBCHEM_EFFECTIVE_ROTOR_COUNT>  (1) 
10.6

>  <PUBCHEM_PHARMACOPHORE_FEATURES>  (1) 
7
1 1 acceptor
1 10 hydrophobe
1 14 hydrophobe
1 2 acceptor
1 22 hydrophobe
5 5 7 9 11 12 hydrophobe
6 15 16 17 18 19 20 rings

>  <PUBCHEM_HEAVY_ATOM_COUNT>  (1) 
22

>  <PUBCHEM_ATOM_DEF_STEREO_COUNT>  (1) 
0

>  <PUBCHEM_ATOM_UDEF_STEREO_COUNT>  (1) 
3

>  <PUBCHEM_BOND_DEF_STEREO_COUNT>  (1) 
0

>  <PUBCHEM_BOND_UDEF_STEREO_COUNT>  (1) 
0

>  <PUBCHEM_ISOTOPIC_ATOM_COUNT>  (1) 
0

>  <PUBCHEM_COMPONENT_COUNT>  (1) 
1

>  <PUBCHEM_CACTVS_TAUTO_COUNT>  (1) 
1

>  <PUBCHEM_CONFORMER_ID>  (1) 
0000A52000000001

>  <PUBCHEM_MMFF94_ENERGY>  (1) 
46.6721

>  <PUBCHEM_FEATURE_SELFOVERLAP>  (1) 
35.523

>  <PUBCHEM_SHAPE_FINGERPRINT>  (1) 
10498660 4 18412260631825380690
10670039 82 18264211477820427700
10708813 3 18186242844398992220
10937287 8 18122621657035809045
11059048 146 18054521213799499312
12107183 9 18045203957072461186
12173636 292 18267293241124529247
12788726 201 18334851757856262899
14081887 123 18340195362654514506
14123250 116 18127979606957109089
14251757 5 18413390955601311649
14251764 38 18335988661928468036
14251764 75 18052262799773517281
14363568 33 17401499636907581000
14739800 52 18119512479277639968
15961568 22 17762890370500679016
17818456 19 18193535806273580754
20101258 96 17975984477197071315
20531524 4 18128793378900965360
21033650 10 18262819448797215038
21864079 5 18261675883114370638
22749437 52 18192987110909880113
235170 7 16701725095216174468
23557571 272 18200881771832750542
469060 322 17970090965937932985
5048184 11 18264490576899754980
6034566 193 18194133927561499985
6299153 45 18115298979026279322
7808743 9 18410011039830724240
9981440 41 18121768436266031963

>  <PUBCHEM_SHAPE_MULTIPOLES>  (1) 
441.01
10.05
5.93
1.39
13.9
0.3
0.45
4.23
-2.27
-9.25
-0.19
0.2
0.64
-1.11

>  <PUBCHEM_SHAPE_SELFOVERLAP>  (1) 
879.31

>  <PUBCHEM_SHAPE_VOLUME>  (1) 
263.9

>  <PUBCHEM_COORDINATE_TYPE>  (1) 
2
5
10

$$$$
