42281
     RDKit          3D

 13 12  0  0  0  0  0  0  0  0999 V2000
   -4.0985   -1.9292   -0.8029 I   0  0  0  0  0  0  0  0  0  0  0  0
    4.1046    1.9214   -0.8105 I   0  0  0  0  0  0  0  0  0  0  0  0
   -3.4031    1.0218    1.0967 O   0  0  0  0  0  0  0  0  0  0  0  0
    3.4009   -1.0194    1.1016 O   0  0  0  0  0  0  0  0  0  0  0  0
   -1.6350    0.6977   -0.3763 N   0  0  0  0  0  0  0  0  0  0  0  0
    1.6339   -0.6967   -0.3732 N   0  0  0  0  0  0  0  0  0  0  0  0
    0.0003    0.0064    1.3359 C   0  0  0  0  0  0  0  0  0  0  0  0
   -0.5856    1.1420    0.4995 C   0  0  0  0  0  0  0  0  0  0  0  0
    0.5832   -1.1344    0.5045 C   0  0  0  0  0  0  0  0  0  0  0  0
   -2.9727    0.6738   -0.0016 C   0  0  0  0  0  0  0  0  0  0  0  0
    2.9716   -0.6750    0.0018 C   0  0  0  0  0  0  0  0  0  0  0  0
   -3.8866    0.1542   -1.0883 C   0  0  0  0  0  0  0  0  0  0  0  0
    3.8870   -0.1625   -1.0870 C   0  0  0  0  0  0  0  0  0  0  0  0
  1 12  1  0
  2 13  1  0
  3 10  2  0
  4 11  2  0
  5  8  1  0
  5 10  1  0
  6  9  1  0
  6 11  1  0
  7  8  1  0
  7  9  1  0
 10 12  1  0
 11 13  1  0
M  END
>  <PUBCHEM_COMPOUND_CID>  (1) 
42281

>  <PUBCHEM_CONFORMER_RMSD>  (1) 
0.8

>  <PUBCHEM_CONFORMER_DIVERSEORDER>  (1) 
1
152
17
114
23
116
98
113
156
62
141
123
54
102
153
117
11
63
162
144
19
177
2
166
118
85
180
96
77
74
34
70
36
178
26
151
53
105
161
46
148
94
49
50
48
158
119
108
3
41
155
137
184
93
170
179
15
20
10
35
100
61
130
72
5
32
124
136
110
75
115
43
150
167
33
22
145
160
109
8
81
25
147
138
57
28
181
176
38
91
128
29
120
84
129
65
101
95
171
37
6
168
154
169
173
45
146
21
92
107
58
111
60
157
103
12
80
133
163
112
4
183
78
139
132
82
13
79
142
135
88
76
127
67
172
86
126
42
182
125
31
7
47
140
164
40
143
30
44
106
64
165
149
97
174
90
56
104
9
39
87
24
185
99
69
83
18
122
89
131
175
134
59
68
71
55
51
14
16
121
159
73
66
52
27

>  <PUBCHEM_MMFF94_PARTIAL_CHARGES>  (1) 
14
1 -0.19
10 0.57
11 0.57
12 0.25
13 0.25
2 -0.19
20 0.37
21 0.37
3 -0.57
4 -0.57
5 -0.73
6 -0.73
8 0.3
9 0.3

>  <PUBCHEM_EFFECTIVE_ROTOR_COUNT>  (1) 
8

>  <PUBCHEM_PHARMACOPHORE_FEATURES>  (1) 
6
1 1 hydrophobe
1 2 hydrophobe
1 3 acceptor
1 4 acceptor
1 5 donor
1 6 donor

>  <PUBCHEM_HEAVY_ATOM_COUNT>  (1) 
13

>  <PUBCHEM_ATOM_DEF_STEREO_COUNT>  (1) 
0

>  <PUBCHEM_ATOM_UDEF_STEREO_COUNT>  (1) 
0

>  <PUBCHEM_BOND_DEF_STEREO_COUNT>  (1) 
0

>  <PUBCHEM_BOND_UDEF_STEREO_COUNT>  (1) 
0

>  <PUBCHEM_ISOTOPIC_ATOM_COUNT>  (1) 
0

>  <PUBCHEM_COMPONENT_COUNT>  (1) 
1

>  <PUBCHEM_CACTVS_TAUTO_COUNT>  (1) 
3

>  <PUBCHEM_CONFORMER_ID>  (1) 
0000A52900000001

>  <PUBCHEM_MMFF94_ENERGY>  (1) 
8.4389

>  <PUBCHEM_FEATURE_SELFOVERLAP>  (1) 
30.447

>  <PUBCHEM_SHAPE_FINGERPRINT>  (1) 
10751810 167 17131838646428396657
11140007 195 11819530642418849076
11543360 7 18410575097547980982
121448 382 16733262477794048851
12616999 72 17846503647225969308
12670546 177 18410575110432883214
12670546 56 7925632159267850487
13296908 3 15697993011751288976
13675066 3 9367349236252994719
14123255 352 10737281334145290551
14251732 17 8141272821073138023
14251757 5 17985266528013998487
14251764 30 15697451038428724150
14251764 38 15647325377054933573
14252887 29 13902183786156896246
15256400 18 8645678190850970214
17834069 15 8790891782663971115
17834072 33 18412544327833219149
18186145 218 18113908134559348036
18915474 69 18342737429190373942
19422 9 18202002105630262775
20281475 54 18273214166657835659
20645477 56 13118283629855078223
20645477 70 16443625684262320698
20871999 31 18335974329637802055
22096605 113 18187368740068480008
23382010 3 18260827145804991146
23402539 116 17749103357622989614
23402655 69 18187928335214626092
23557571 272 17488456378396461920
238078 22 18200597028960706527
305870 269 8718557146467175105
328317 168 18041563654118239716
528716 315 18272932713409104199
548570 60 15647052668101198383
59345606 45 18411701027804561263
633830 44 16950565424194765211
6430166 295 10737275844912991303
8217 86 18123753316652649095

>  <PUBCHEM_SHAPE_MULTIPOLES>  (1) 
269.7
10.08
1.88
1.29
0.02
0
-0.07
0.01
3.89
-0.01
0.09
0.01
0
-1.38

>  <PUBCHEM_SHAPE_SELFOVERLAP>  (1) 
467.399

>  <PUBCHEM_SHAPE_VOLUME>  (1) 
183

>  <PUBCHEM_COORDINATE_TYPE>  (1) 
2
5
10

$$$$
