4228
     RDKit          2D

 25 27  0  0  1  0  0  0  0  0999 V2000
    0.0000    0.0000    0.0000 S   0  0  0  0  0  0  0  0  0  0  0  0
    0.0000    0.0000    0.0000 O   0  0  0  0  0  0  0  0  0  0  0  0
    0.0000    0.0000    0.0000 O   0  0  0  0  0  0  0  0  0  0  0  0
    0.0000    0.0000    0.0000 O   0  0  0  0  0  0  0  0  0  0  0  0
    0.0000    0.0000    0.0000 O   0  0  0  0  0  0  0  0  0  0  0  0
    0.0000    0.0000    0.0000 O   0  0  0  0  0  0  0  0  0  0  0  0
    0.0000    0.0000    0.0000 N   0  0  0  0  0  0  0  0  0  0  0  0
    0.0000    0.0000    0.0000 C   0  0  0  0  0  0  0  0  0  0  0  0
    0.0000    0.0000    0.0000 C   0  0  0  0  0  0  0  0  0  0  0  0
    0.0000    0.0000    0.0000 C   0  0  0  0  0  0  0  0  0  0  0  0
    0.0000    0.0000    0.0000 C   0  0  0  0  0  0  0  0  0  0  0  0
    0.0000    0.0000    0.0000 C   0  0  0  0  0  0  0  0  0  0  0  0
    0.0000    0.0000    0.0000 C   0  0  0  0  0  0  0  0  0  0  0  0
    0.0000    0.0000    0.0000 C   0  0  0  0  0  0  0  0  0  0  0  0
    0.0000    0.0000    0.0000 C   0  0  0  0  0  0  0  0  0  0  0  0
    0.0000    0.0000    0.0000 C   0  0  0  0  0  0  0  0  0  0  0  0
    0.0000    0.0000    0.0000 C   0  0  0  0  0  0  0  0  0  0  0  0
    0.0000    0.0000    0.0000 C   0  0  0  0  0  0  0  0  0  0  0  0
    0.0000    0.0000    0.0000 C   0  0  0  0  0  0  0  0  0  0  0  0
    0.0000    0.0000    0.0000 C   0  0  0  0  0  0  0  0  0  0  0  0
    0.0000    0.0000    0.0000 C   0  0  0  0  0  0  0  0  0  0  0  0
    0.0000    0.0000    0.0000 C   0  0  0  0  0  0  0  0  0  0  0  0
    0.0000    0.0000    0.0000 C   0  0  0  0  0  0  0  0  0  0  0  0
    0.0000    0.0000    0.0000 C   0  0  0  0  0  0  0  0  0  0  0  0
    0.0000    0.0000    0.0000 C   0  0  0  0  0  0  0  0  0  0  0  0
  1  2  2  0
  1  3  2  0
  1  8  1  0
  1 15  1  0
  4 14  2  0
  5  7  1  0
  6 24  1  0
  6 25  1  0
  7 14  1  0
  8  9  1  0
  8 10  1  0
  9 11  1  0
  9 14  1  0
 10 12  1  0
 11 13  1  0
 12 13  2  0
 12 16  1  0
 13 17  1  0
 15 20  2  0
 15 21  1  0
 16 18  2  0
 17 19  2  0
 18 19  1  0
 20 22  1  0
 21 23  2  0
 22 24  2  0
 23 24  1  0
M  END
>  <PUBCHEM_COMPOUND_CID>  (1) 
4228

>  <PUBCHEM_CONFORMER_RMSD>  (1) 
0.8

>  <PUBCHEM_CONFORMER_DIVERSEORDER>  (1) 
14
8
10
21
2
5
23
16
20
15
17
9
19
11
4
6
7
24
12
1
18
13
25
22
3

>  <PUBCHEM_MMFF94_PARTIAL_CHARGES>  (1) 
35
1 1.2
10 0.14
11 0.14
12 -0.14
13 -0.14
14 0.57
15 -0.01
16 -0.15
17 -0.15
18 -0.15
19 -0.15
2 -0.65
20 -0.15
21 -0.15
22 -0.15
23 -0.15
24 0.08
25 0.28
3 -0.65
32 0.15
33 0.15
34 0.15
35 0.15
36 0.15
37 0.15
38 0.37
39 0.15
4 -0.57
40 0.15
41 0.4
5 -0.44
6 -0.36
7 -0.39
8 0.11
9 0.06

>  <PUBCHEM_EFFECTIVE_ROTOR_COUNT>  (1) 
5.8

>  <PUBCHEM_PHARMACOPHORE_FEATURES>  (1) 
8
1 2 acceptor
1 3 acceptor
1 4 acceptor
1 6 acceptor
1 7 donor
6 12 13 16 17 18 19 rings
6 15 20 21 22 23 24 rings
6 8 9 10 11 12 13 rings

>  <PUBCHEM_HEAVY_ATOM_COUNT>  (1) 
25

>  <PUBCHEM_ATOM_DEF_STEREO_COUNT>  (1) 
0

>  <PUBCHEM_ATOM_UDEF_STEREO_COUNT>  (1) 
2

>  <PUBCHEM_BOND_DEF_STEREO_COUNT>  (1) 
0

>  <PUBCHEM_BOND_UDEF_STEREO_COUNT>  (1) 
0

>  <PUBCHEM_ISOTOPIC_ATOM_COUNT>  (1) 
0

>  <PUBCHEM_COMPONENT_COUNT>  (1) 
1

>  <PUBCHEM_CACTVS_TAUTO_COUNT>  (1) 
3

$$$$
