42295
     RDKit          3D

 20 22  0  0  1  0  0  0  0  0999 V2000
    3.2063   -1.3396   -0.3266 O   0  0  0  0  0  0  0  0  0  0  0  0
   -3.1495    1.1185   -0.1315 O   0  0  0  0  0  0  0  0  0  0  0  0
    1.3824   -2.2667    0.8618 O   0  0  0  0  0  0  0  0  0  0  0  0
    4.9327   -0.0702    0.6050 O   0  0  0  0  0  0  0  0  0  0  0  0
   -4.9360   -0.3197   -0.2535 O   0  0  0  0  0  0  0  0  0  0  0  0
    0.9379   -0.4324   -0.7851 C   0  0  0  0  0  0  0  0  0  0  0  0
    1.2566    0.7743    0.1710 C   0  0  0  0  0  0  0  0  0  0  0  0
    0.5321    2.1141   -0.1583 C   0  0  0  0  0  0  0  0  0  0  0  0
   -0.5671   -0.8682   -0.7879 C   0  0  0  0  0  0  0  0  0  0  0  0
   -1.3996   -0.4028    0.4168 C   0  0  0  0  0  0  0  0  0  0  0  0
   -1.7938    1.0743    0.3729 C   0  0  0  0  0  0  0  0  0  0  0  0
   -0.9546    1.9808   -0.5279 C   0  0  0  0  0  0  0  0  0  0  0  0
    2.7852    0.9885    0.2693 C   0  0  0  0  0  0  0  0  0  0  0  0
    1.8127   -1.6580   -0.3545 C   0  0  0  0  0  0  0  0  0  0  0  0
    1.3343   -0.0951   -2.2485 C   0  0  0  0  0  0  0  0  0  0  0  0
    3.5260   -0.3060    0.5972 C   0  0  0  0  0  0  0  0  0  0  0  0
    0.6659    3.1186    1.0011 C   0  0  0  0  0  0  0  0  0  0  0  0
   -2.7455   -1.0445    0.4437 C   0  0  0  0  0  0  0  0  0  0  0  0
   -3.7657   -0.0878   -0.0113 C   0  0  0  0  0  0  0  0  0  0  0  0
   -3.0604   -2.2781    0.8465 C   0  0  0  0  0  0  0  0  0  0  0  0
  1 14  1  0
  1 16  1  0
  2 11  1  0
  2 19  1  0
  3 14  1  0
  4 16  1  0
  5 19  2  0
  6  7  1  0
  6  9  1  0
  6 14  1  0
  6 15  1  0
  7  8  1  0
  7 13  1  0
  8 12  1  0
  8 17  1  0
  9 10  1  0
 10 11  1  0
 10 18  1  0
 11 12  1  0
 13 16  1  0
 18 19  1  0
 18 20  2  0
M  END
>  <PUBCHEM_COMPOUND_CID>  (1) 
42295

>  <PUBCHEM_CONFORMER_RMSD>  (1) 
0.6

>  <PUBCHEM_CONFORMER_DIVERSEORDER>  (1) 
1
2
3

>  <PUBCHEM_MMFF94_PARTIAL_CHARGES>  (1) 
16
1 -0.56
10 0.14
11 0.28
14 0.56
16 0.56
18 -0.12
19 0.71
2 -0.43
20 -0.3
3 -0.68
39 0.4
4 -0.68
40 0.15
41 0.15
42 0.4
5 -0.57

>  <PUBCHEM_EFFECTIVE_ROTOR_COUNT>  (1) 
1.6

>  <PUBCHEM_PHARMACOPHORE_FEATURES>  (1) 
9
1 1 acceptor
1 3 acceptor
1 3 donor
1 4 acceptor
1 4 donor
1 5 acceptor
5 2 10 11 18 19 rings
6 1 6 7 13 14 16 rings
7 6 7 8 9 10 11 12 rings

>  <PUBCHEM_HEAVY_ATOM_COUNT>  (1) 
20

>  <PUBCHEM_ATOM_DEF_STEREO_COUNT>  (1) 
7

>  <PUBCHEM_ATOM_UDEF_STEREO_COUNT>  (1) 
0

>  <PUBCHEM_BOND_DEF_STEREO_COUNT>  (1) 
0

>  <PUBCHEM_BOND_UDEF_STEREO_COUNT>  (1) 
0

>  <PUBCHEM_ISOTOPIC_ATOM_COUNT>  (1) 
0

>  <PUBCHEM_COMPONENT_COUNT>  (1) 
1

>  <PUBCHEM_CACTVS_TAUTO_COUNT>  (1) 
1

>  <PUBCHEM_CONFORMER_ID>  (1) 
0000A53700000001

>  <PUBCHEM_MMFF94_ENERGY>  (1) 
64.7712

>  <PUBCHEM_FEATURE_SELFOVERLAP>  (1) 
45.795

>  <PUBCHEM_SHAPE_FINGERPRINT>  (1) 
10863032 1 18262802994065107080
10906281 52 18270697384774224821
10967382 1 18411419522488675283
11132069 177 18411699880979747322
11578080 2 17314203683914333580
12011746 2 18413103957180659420
12251169 10 18201435908528597870
12382932 28 18411983524840998570
12553582 1 18266201498876125113
12633257 1 18410859871254825713
13132413 78 18411699911134319196
13140716 1 18267028443431833001
14115302 16 17894920641486150783
14223421 5 18411982463931283330
14252887 29 17917440803970080806
14787075 74 18335984263680769088
14790565 3 17833554874516566848
15196674 1 18339922606498428872
15375462 478 18411416202827115300
16945 1 18115320981099484725
17834072 14 18409444774099181933
1813 80 17023187072573289854
19591789 44 17545890785480900596
200 152 17988917882165704999
20510252 161 18196933262452902817
20600515 1 18336557040018710813
20626108 58 17241043339510725099
21029758 11 18341607084514852921
21267235 1 18410864251995113315
21421861 104 17823975624060565330
21524375 3 17121709112074097685
23184049 29 18123192307575318184
232386 152 18334864926009331247
2334 1 18339929190894420117
23402539 116 18342728607775739439
23419403 2 18191279711049409765
23557571 272 18199759054781160092
23559900 14 18265613178793745846
2748010 2 18201165338442365941
3286 77 18116993492930684159
34934 24 18410848833257608543
5104073 3 18341048502131495058
57005193 9 18334288764968810619
5939293 188 18271526515025128952
7364860 26 18270119144489193129
81228 2 17981912760009030937
8809292 202 18260269685131172923
9709674 26 18339646646281163119

>  <PUBCHEM_SHAPE_MULTIPOLES>  (1) 
382.24
6.87
2.58
1.15
1.63
1.05
0.5
-2.18
-1.23
-0.14
-0.69
-0.44
-0.09
0.51

>  <PUBCHEM_SHAPE_SELFOVERLAP>  (1) 
806.671

>  <PUBCHEM_SHAPE_VOLUME>  (1) 
209.9

>  <PUBCHEM_COORDINATE_TYPE>  (1) 
2
5
10

$$$$
