4229
     RDKit          3D

 25 27  0  0  1  0  0  0  0  0999 V2000
   -0.6307   -1.5668    1.2525 S   0  0  0  0  0  0  0  0  0  0  0  0
   -0.7214   -1.3793    2.6852 O   0  0  0  0  0  0  0  0  0  0  0  0
   -0.5136   -2.8919    0.6811 O   0  0  0  0  0  0  0  0  0  0  0  0
    3.2988   -1.3940    0.1862 O   0  0  0  0  0  0  0  0  0  0  0  0
    3.2345   -3.9552   -0.6854 O   0  0  0  0  0  0  0  0  0  0  0  0
   -5.3038    1.0609   -1.2040 O   0  0  0  0  0  0  0  0  0  0  0  0
    0.6250   -0.5821    0.6372 N   0  0  0  0  0  0  0  0  0  0  0  0
    2.1701   -3.0763   -0.9282 N   0  0  0  0  0  0  0  0  0  0  0  0
    1.1461   -0.9233   -0.7182 C   0  0  0  0  0  0  0  0  0  0  0  0
    1.5523    0.2807   -1.5709 C   0  0  0  0  0  0  0  0  0  0  0  0
    0.5614    0.8623    0.9973 C   0  0  0  0  0  0  0  0  0  0  0  0
    2.2412    1.3547   -0.7745 C   0  0  0  0  0  0  0  0  0  0  0  0
    1.7483    1.6423    0.5060 C   0  0  0  0  0  0  0  0  0  0  0  0
    2.3223   -1.8065   -0.4362 C   0  0  0  0  0  0  0  0  0  0  0  0
    3.3084    2.0931   -1.2932 C   0  0  0  0  0  0  0  0  0  0  0  0
    2.3256    2.6675    1.2603 C   0  0  0  0  0  0  0  0  0  0  0  0
   -2.0298   -0.7804    0.5166 C   0  0  0  0  0  0  0  0  0  0  0  0
    3.8906    3.1051   -0.5301 C   0  0  0  0  0  0  0  0  0  0  0  0
    3.4001    3.3918    0.7438 C   0  0  0  0  0  0  0  0  0  0  0  0
   -2.6647    0.2469    1.1954 C   0  0  0  0  0  0  0  0  0  0  0  0
   -2.4696   -1.2033   -0.7272 C   0  0  0  0  0  0  0  0  0  0  0  0
   -3.7702    0.8684    0.6146 C   0  0  0  0  0  0  0  0  0  0  0  0
   -3.5751   -0.5818   -1.3079 C   0  0  0  0  0  0  0  0  0  0  0  0
   -4.2254    0.4541   -0.6371 C   0  0  0  0  0  0  0  0  0  0  0  0
   -5.9205    2.1130   -0.4635 C   0  0  0  0  0  0  0  0  0  0  0  0
  1  2  2  0
  1  3  2  0
  1  7  1  0
  1 17  1  0
  4 14  2  0
  5  8  1  0
  6 24  1  0
  6 25  1  0
  7  9  1  0
  7 11  1  0
  8 14  1  0
  9 10  1  0
  9 14  1  0
 10 12  1  0
 11 13  1  0
 12 13  2  0
 12 15  1  0
 13 16  1  0
 15 18  2  0
 16 19  2  0
 17 20  2  0
 17 21  1  0
 18 19  1  0
 20 22  1  0
 21 23  2  0
 22 24  2  0
 23 24  1  0
M  END
>  <PUBCHEM_COMPOUND_CID>  (1) 
4229

>  <PUBCHEM_CONFORMER_RMSD>  (1) 
0.8

>  <PUBCHEM_CONFORMER_DIVERSEORDER>  (1) 
3
34
35
40
44
41
39
27
33
30
43
6
38
29
22
10
28
32
17
46
25
45
36
12
21
2
19
31
7
14
42
23
49
37
16
5
20
47
18
13
8
9
48
24
1
4
26
11
15

>  <PUBCHEM_MMFF94_PARTIAL_CHARGES>  (1) 
35
1 1.45
10 0.14
11 0.5
12 -0.14
13 -0.14
14 0.57
15 -0.15
16 -0.15
17 -0.01
18 -0.15
19 -0.15
2 -0.65
20 -0.15
21 -0.15
22 -0.15
23 -0.15
24 0.08
25 0.28
3 -0.65
31 0.15
32 0.15
33 0.15
34 0.15
35 0.15
36 0.15
37 0.37
38 0.15
39 0.15
4 -0.57
40 0.4
5 -0.44
6 -0.36
7 -0.85
8 -0.39
9 0.42

>  <PUBCHEM_EFFECTIVE_ROTOR_COUNT>  (1) 
5.8

>  <PUBCHEM_PHARMACOPHORE_FEATURES>  (1) 
8
1 2 acceptor
1 3 acceptor
1 4 acceptor
1 6 acceptor
1 8 donor
6 12 13 15 16 18 19 rings
6 17 20 21 22 23 24 rings
6 7 9 10 11 12 13 rings

>  <PUBCHEM_HEAVY_ATOM_COUNT>  (1) 
25

>  <PUBCHEM_ATOM_DEF_STEREO_COUNT>  (1) 
0

>  <PUBCHEM_ATOM_UDEF_STEREO_COUNT>  (1) 
1

>  <PUBCHEM_BOND_DEF_STEREO_COUNT>  (1) 
0

>  <PUBCHEM_BOND_UDEF_STEREO_COUNT>  (1) 
0

>  <PUBCHEM_ISOTOPIC_ATOM_COUNT>  (1) 
0

>  <PUBCHEM_COMPONENT_COUNT>  (1) 
1

>  <PUBCHEM_CACTVS_TAUTO_COUNT>  (1) 
3

>  <PUBCHEM_CONFORMER_ID>  (1) 
0000108500000003

>  <PUBCHEM_MMFF94_ENERGY>  (1) 
70.0265

>  <PUBCHEM_FEATURE_SELFOVERLAP>  (1) 
40.639

>  <PUBCHEM_SHAPE_FINGERPRINT>  (1) 
10165383 225 17614615613502960731
10498660 4 18271242845657999913
105312 117 18118687853503157476
10764073 3 13918726947391919753
10930396 42 18047444787893341114
11578080 2 17677919948607338446
11720765 8 18124867963380757012
121448 382 17555736860688833238
12549972 3 17822591437716083595
12633257 1 16879334808877657021
12730499 353 18340779251021994219
12788726 201 17686065994293597754
13004483 165 17908697333288785622
13134695 92 18268713809794161862
13464514 151 18339930406201418304
13590594 115 17979644433166543673
14251764 30 7925093506114241480
14508225 48 17980210682177139790
14848178 96 18408321107713139493
15163728 17 18116724104092366604
17980427 26 18115848789551771623
18335252 114 17980188692303429981
18981168 100 17749403606023070635
192875 21 17988362546957171369
19752476 56 18411415090515514157
21120745 212 16383367821190956163
21304303 282 17340375501197966990
22393880 68 18059297685351634092
22907989 373 17396985033705503095
23559900 14 18343013372444671890
238 59 17987524869125515592
376196 1 18264478654028155208
44317340 157 18412256209017031037
474 4 18334288786485656825
495365 180 18341890831281148472
5895379 119 17559402348798580537
6004065 56 18339077073599447766
633830 44 18260259721286840591
7399639 24 17977396249873590291
7471813 234 18058446491526552344
81228 2 17616837443742080690
84936 182 18272092724937602448
9981440 41 18196082481044727394

>  <PUBCHEM_SHAPE_MULTIPOLES>  (1) 
479.03
9.12
4.04
1.61
10.3
1.68
0.45
-7.75
-3.08
-4.84
-0.14
0.22
0.13
1.13

>  <PUBCHEM_SHAPE_SELFOVERLAP>  (1) 
1018.564

>  <PUBCHEM_SHAPE_VOLUME>  (1) 
266.6

>  <PUBCHEM_COORDINATE_TYPE>  (1) 
2
5
10

$$$$
