42291
     RDKit          3D

 25 27  0  0  1  0  0  0  0  0999 V2000
   -5.3121    0.1958    0.4694 F   0  0  0  0  0  0  0  0  0  0  0  0
   -4.7628    0.6638   -1.5759 F   0  0  0  0  0  0  0  0  0  0  0  0
   -4.3679   -1.3183   -0.7735 F   0  0  0  0  0  0  0  0  0  0  0  0
    1.7253   -3.9262    0.7778 N   0  0  0  0  0  0  0  0  0  0  0  0
    0.5970    0.4319   -1.3319 C   0  0  0  0  0  0  0  0  0  0  0  0
    0.8934    1.8778    1.3075 C   0  0  0  0  0  0  0  0  0  0  0  0
   -0.5846    0.7023   -0.4172 C   0  0  0  0  0  0  0  0  0  0  0  0
    1.9245    1.0000   -0.8621 C   0  0  0  0  0  0  0  0  0  0  0  0
    0.7408   -1.0913   -1.5384 C   0  0  0  0  0  0  0  0  0  0  0  0
   -0.4330    1.3056    0.8401 C   0  0  0  0  0  0  0  0  0  0  0  0
    2.0757    1.6038    0.3950 C   0  0  0  0  0  0  0  0  0  0  0  0
    1.1764   -1.7692   -0.2488 C   0  0  0  0  0  0  0  0  0  0  0  0
   -1.8729    0.3075   -0.8326 C   0  0  0  0  0  0  0  0  0  0  0  0
    0.7471    3.4021    1.5040 C   0  0  0  0  0  0  0  0  0  0  0  0
    3.0491    0.8921   -1.7056 C   0  0  0  0  0  0  0  0  0  0  0  0
   -1.5566    1.4119    1.6851 C   0  0  0  0  0  0  0  0  0  0  0  0
    3.3638    1.9973    0.8119 C   0  0  0  0  0  0  0  0  0  0  0  0
    1.2878   -3.2790   -0.4535 C   0  0  0  0  0  0  0  0  0  0  0  0
   -2.9792    0.4486    0.0030 C   0  0  0  0  0  0  0  0  0  0  0  0
   -2.8178    0.9875    1.2714 C   0  0  0  0  0  0  0  0  0  0  0  0
    4.3105    1.3149   -1.2902 C   0  0  0  0  0  0  0  0  0  0  0  0
    4.4711    1.8543   -0.0222 C   0  0  0  0  0  0  0  0  0  0  0  0
   -4.3271    0.0093   -0.4587 C   0  0  0  0  0  0  0  0  0  0  0  0
    1.8662   -5.3698    0.5794 C   0  0  0  0  0  0  0  0  0  0  0  0
    0.7853   -3.6528    1.8661 C   0  0  0  0  0  0  0  0  0  0  0  0
  1 23  1  0
  2 23  1  0
  3 23  1  0
  4 18  1  0
  4 24  1  0
  4 25  1  0
  5  7  1  0
  5  8  1  0
  5  9  1  0
  6 10  1  0
  6 11  1  0
  6 14  1  0
  7 10  2  0
  7 13  1  0
  8 11  2  0
  8 15  1  0
  9 12  1  0
 10 16  1  0
 11 17  1  0
 12 18  1  0
 13 19  2  0
 15 21  2  0
 16 20  2  0
 17 22  2  0
 19 20  1  0
 19 23  1  0
 21 22  1  0
M  END
>  <PUBCHEM_COMPOUND_CID>  (1) 
42291

>  <PUBCHEM_CONFORMER_RMSD>  (1) 
0.8

>  <PUBCHEM_CONFORMER_DIVERSEORDER>  (1) 
1
16
5
13
11
15
10
7
4
2
12
8
6
17
9
3
14

>  <PUBCHEM_MMFF94_PARTIAL_CHARGES>  (1) 
29
1 -0.34
10 -0.14
11 -0.14
13 -0.15
15 -0.15
16 -0.15
17 -0.15
18 0.27
19 -0.14
2 -0.34
20 -0.15
21 -0.15
22 -0.15
23 1.16
24 0.27
25 0.27
3 -0.34
32 0.15
36 0.15
37 0.15
38 0.15
4 -0.81
41 0.15
42 0.15
43 0.15
5 0.29
6 0.29
7 -0.14
8 -0.14

>  <PUBCHEM_EFFECTIVE_ROTOR_COUNT>  (1) 
5.4

>  <PUBCHEM_PHARMACOPHORE_FEATURES>  (1) 
4
1 4 cation
6 5 6 7 8 10 11 rings
6 7 10 13 16 19 20 rings
6 8 11 15 17 21 22 rings

>  <PUBCHEM_HEAVY_ATOM_COUNT>  (1) 
25

>  <PUBCHEM_ATOM_DEF_STEREO_COUNT>  (1) 
0

>  <PUBCHEM_ATOM_UDEF_STEREO_COUNT>  (1) 
2

>  <PUBCHEM_BOND_DEF_STEREO_COUNT>  (1) 
0

>  <PUBCHEM_BOND_UDEF_STEREO_COUNT>  (1) 
0

>  <PUBCHEM_ISOTOPIC_ATOM_COUNT>  (1) 
0

>  <PUBCHEM_COMPONENT_COUNT>  (1) 
1

>  <PUBCHEM_CACTVS_TAUTO_COUNT>  (1) 
1

>  <PUBCHEM_CONFORMER_ID>  (1) 
0000A53300000001

>  <PUBCHEM_MMFF94_ENERGY>  (1) 
65.4753

>  <PUBCHEM_FEATURE_SELFOVERLAP>  (1) 
20.335

>  <PUBCHEM_SHAPE_FINGERPRINT>  (1) 
108634 29 17695061497914028878
10906281 52 17629775719162742536
11578080 2 18044095648766126661
12156800 1 17980174698656362818
12539773 59 14502844424109962354
12788726 201 17547001292351321230
13004483 165 16820522645146426138
13052359 8 18120378915355831606
13083527 12 18194672679620786754
133893 2 18117850905841601106
14713325 29 16827542519831128889
14787075 74 17771906301086192821
15196674 1 17203341012917433560
18681886 176 16343698880870155413
20197701 30 18337949095043718622
20567600 347 18408886273505415875
20600515 1 16244571537725029542
20691752 17 18199772335031672336
21120745 212 17404308395934183950
21267235 1 17059794306675836428
21421861 104 18196667189313182057
21452121 199 18124584284890540667
21452121 99 17977397353859234324
21796203 349 17618262448913074763
22393880 68 18130515128036714173
229495 10 18193253248711319493
22956985 138 18115013092317335154
23419403 2 17544716107566667252
23559900 14 18122893240608014787
23598288 3 16531752404627925550
2871803 45 17917716811580550285
3383291 50 18341620296441417206
34934 24 17774178794321686321
35225 105 17975134558834462882
3759504 43 18191870239404108532
404807 78 17610046134322842055
4058900 60 18410022051905929184
4409770 3 17904792185956468638
5104073 3 16988576700818811928
59554788 281 18341334487414728740
59755656 520 18337105800053826892
70251023 43 17842017506124153591
81228 2 17545306944795534654

>  <PUBCHEM_SHAPE_MULTIPOLES>  (1) 
487.69
7.57
5.01
1.74
7.58
9.9
0.1
-3.41
-2.42
-5.05
3.08
-0.11
-0.14
-0.74

>  <PUBCHEM_SHAPE_SELFOVERLAP>  (1) 
1045.203

>  <PUBCHEM_SHAPE_VOLUME>  (1) 
272.7

>  <PUBCHEM_COORDINATE_TYPE>  (1) 
2
5
10

$$$$
