42296
     RDKit          3D

 14 14  0  0  1  0  0  0  0  0999 V2000
    1.1315   -0.9684    1.4558 O   0  0  0  0  0  0  0  0  0  0  0  0
   -0.8700    1.2113    0.0624 C   0  0  0  0  0  0  0  0  0  0  0  0
   -0.3230   -0.2085   -0.2724 C   0  0  0  0  0  0  0  0  0  0  0  0
   -1.2892   -1.3460    0.1499 C   0  0  0  0  0  0  0  0  0  0  0  0
   -2.2461    1.3819   -0.6379 C   0  0  0  0  0  0  0  0  0  0  0  0
    0.0785    2.3023   -0.4774 C   0  0  0  0  0  0  0  0  0  0  0  0
   -1.0321    1.4323    1.5836 C   0  0  0  0  0  0  0  0  0  0  0  0
   -2.7362   -1.0097   -0.1115 C   0  0  0  0  0  0  0  0  0  0  0  0
   -3.1615    0.2063   -0.4768 C   0  0  0  0  0  0  0  0  0  0  0  0
    1.0273   -0.4378    0.3521 C   0  0  0  0  0  0  0  0  0  0  0  0
   -0.9311   -2.6525   -0.5705 C   0  0  0  0  0  0  0  0  0  0  0  0
    2.2149    0.0010   -0.4312 C   0  0  0  0  0  0  0  0  0  0  0  0
    3.4523   -0.1657    0.0533 C   0  0  0  0  0  0  0  0  0  0  0  0
    4.6846    0.2535   -0.6795 C   0  0  0  0  0  0  0  0  0  0  0  0
  1 10  2  0
  2  3  1  0
  2  5  1  0
  2  6  1  0
  2  7  1  0
  3  4  1  0
  3 10  1  0
  4  8  1  0
  4 11  1  0
  5  9  1  0
  8  9  2  0
 10 12  1  0
 12 13  2  0
 13 14  1  0
M  END
>  <PUBCHEM_COMPOUND_CID>  (1) 
42296

>  <PUBCHEM_CONFORMER_RMSD>  (1) 
0.6

>  <PUBCHEM_CONFORMER_DIVERSEORDER>  (1) 
2
6
8
4
7
5
9
1
10
3

>  <PUBCHEM_MMFF94_PARTIAL_CHARGES>  (1) 
14
1 -0.57
10 0.49
12 -0.14
13 -0.29
14 0.14
25 0.15
26 0.15
3 0.06
30 0.15
31 0.15
4 0.14
5 0.14
8 -0.29
9 -0.29

>  <PUBCHEM_EFFECTIVE_ROTOR_COUNT>  (1) 
2.8

>  <PUBCHEM_PHARMACOPHORE_FEATURES>  (1) 
4
1 1 acceptor
1 14 hydrophobe
3 2 6 7 hydrophobe
6 2 3 4 5 8 9 rings

>  <PUBCHEM_HEAVY_ATOM_COUNT>  (1) 
14

>  <PUBCHEM_ATOM_DEF_STEREO_COUNT>  (1) 
0

>  <PUBCHEM_ATOM_UDEF_STEREO_COUNT>  (1) 
0

>  <PUBCHEM_BOND_DEF_STEREO_COUNT>  (1) 
0

>  <PUBCHEM_BOND_UDEF_STEREO_COUNT>  (1) 
1

>  <PUBCHEM_ISOTOPIC_ATOM_COUNT>  (1) 
0

>  <PUBCHEM_COMPONENT_COUNT>  (1) 
1

>  <PUBCHEM_CACTVS_TAUTO_COUNT>  (1) 
5

>  <PUBCHEM_CONFORMER_ID>  (1) 
0000A53800000002

>  <PUBCHEM_MMFF94_ENERGY>  (1) 
29.0615

>  <PUBCHEM_FEATURE_SELFOVERLAP>  (1) 
20.297

>  <PUBCHEM_SHAPE_FINGERPRINT>  (1) 
11132069 177 18410288151342383608
12423570 1 13809474180904242969
13024252 1 15936416645273588265
13380535 220 18191864750261590567
14128692 85 18338796848457447357
14614273 12 18192992625774514917
14713566 1 18411982476837277800
14817 1 12427633513654741611
14911166 2 18410282636572454615
14993402 34 18409722967736657461
15490181 8 17689706468301451777
15669948 3 18409440414855433302
15775835 57 18187085001369671844
16945 1 18262222413539733643
187816 3 18201997716332058837
193761 8 17833828648694835439
20510252 161 18273216361190945353
20645476 183 18040431096774841135
20871999 31 18340760541859830959
21501502 16 17842844325946292198
22213442 358 18268147750294688308
22344851 341 18048584108490820817
22802520 49 17914351090449607518
23236772 104 18040435477498629688
23402539 116 18271799120941502230
23557571 272 18128543841648635414
23559900 14 18343580751310728192
2748010 2 18267304227408149231
353137 74 18409448046679697146
4175511 318 18259981569897555150
5084963 1 17767952147945108139
528886 8 18335973173917189109
53812653 8 18336540517305480739
6333449 129 18413108355374791932
75552 356 18412545426706303118

>  <PUBCHEM_SHAPE_MULTIPOLES>  (1) 
282.24
5.55
2.19
1.05
6.83
0.31
-0.37
0.07
1.42
-1.28
0.19
-0.02
-0.19
-0.24

>  <PUBCHEM_SHAPE_SELFOVERLAP>  (1) 
563.924

>  <PUBCHEM_SHAPE_VOLUME>  (1) 
165.6

>  <PUBCHEM_COORDINATE_TYPE>  (1) 
2
5
10

$$$$
