42303
     RDKit          3D

 17 18  0  0  1  0  0  0  0  0999 V2000
    2.4369    3.7242    0.4515 Cl  0  0  0  0  0  0  0  0  0  0  0  0
    1.4268   -1.9542   -0.6301 O   0  0  0  0  0  0  0  0  0  0  0  0
   -1.9094   -2.3970    0.4548 O   0  0  0  0  0  0  0  0  0  0  0  0
   -0.6554   -0.4353    0.5138 N   0  0  0  0  0  0  0  0  0  0  0  0
   -3.6741    1.7145    0.0409 N   0  0  0  0  0  0  0  0  0  0  0  0
    0.4878   -2.5766    0.2307 C   0  0  0  0  0  0  0  0  0  0  0  0
   -1.7846    0.4095    0.8820 C   0  0  0  0  0  0  0  0  0  0  0  0
    0.6131    0.1545    0.2459 C   0  0  0  0  0  0  0  0  0  0  0  0
   -0.8283   -1.8145    0.3765 C   0  0  0  0  0  0  0  0  0  0  0  0
    1.6192   -0.6344   -0.3235 C   0  0  0  0  0  0  0  0  0  0  0  0
   -2.5336    0.8960   -0.3500 C   0  0  0  0  0  0  0  0  0  0  0  0
    0.2530   -3.9869   -0.2988 C   0  0  0  0  0  0  0  0  0  0  0  0
    0.8805    1.5109    0.4803 C   0  0  0  0  0  0  0  0  0  0  0  0
    2.8555   -0.0850   -0.6721 C   0  0  0  0  0  0  0  0  0  0  0  0
    2.1248    2.0572    0.1520 C   0  0  0  0  0  0  0  0  0  0  0  0
    3.1101    1.2611   -0.4260 C   0  0  0  0  0  0  0  0  0  0  0  0
   -4.4224    2.1560   -1.1279 C   0  0  0  0  0  0  0  0  0  0  0  0
  1 15  1  0
  2  6  1  0
  2 10  1  0
  3  9  2  0
  4  7  1  0
  4  8  1  0
  4  9  1  0
  5 11  1  0
  5 17  1  0
  6  9  1  0
  6 12  1  0
  7 11  1  0
  8 10  2  0
  8 13  1  0
 10 14  1  0
 13 15  2  0
 14 16  2  0
 15 16  1  0
M  END
>  <PUBCHEM_COMPOUND_CID>  (1) 
42303

>  <PUBCHEM_CONFORMER_RMSD>  (1) 
0.6

>  <PUBCHEM_CONFORMER_DIVERSEORDER>  (1) 
2
9
18
12
1
5
15
16
17
6
4
19
14
11
10
13
8
3
7

>  <PUBCHEM_MMFF94_PARTIAL_CHARGES>  (1) 
20
1 -0.18
10 0.08
11 0.27
13 -0.15
14 -0.15
15 0.18
16 -0.15
17 0.27
2 -0.36
26 0.15
27 0.15
28 0.36
29 0.15
3 -0.57
4 -0.48
5 -0.9
6 0.34
7 0.3
8 0.12
9 0.57

>  <PUBCHEM_EFFECTIVE_ROTOR_COUNT>  (1) 
3.6

>  <PUBCHEM_PHARMACOPHORE_FEATURES>  (1) 
6
1 2 acceptor
1 3 acceptor
1 5 cation
1 5 donor
6 2 4 6 8 9 10 rings
6 8 10 13 14 15 16 rings

>  <PUBCHEM_HEAVY_ATOM_COUNT>  (1) 
17

>  <PUBCHEM_ATOM_DEF_STEREO_COUNT>  (1) 
0

>  <PUBCHEM_ATOM_UDEF_STEREO_COUNT>  (1) 
1

>  <PUBCHEM_BOND_DEF_STEREO_COUNT>  (1) 
0

>  <PUBCHEM_BOND_UDEF_STEREO_COUNT>  (1) 
0

>  <PUBCHEM_ISOTOPIC_ATOM_COUNT>  (1) 
0

>  <PUBCHEM_COMPONENT_COUNT>  (1) 
1

>  <PUBCHEM_CACTVS_TAUTO_COUNT>  (1) 
1

>  <PUBCHEM_CONFORMER_ID>  (1) 
0000A53F00000002

>  <PUBCHEM_MMFF94_ENERGY>  (1) 
40.807

>  <PUBCHEM_FEATURE_SELFOVERLAP>  (1) 
30.479

>  <PUBCHEM_SHAPE_FINGERPRINT>  (1) 
10411042 1 17401770718564887051
10608611 8 18195814191639123152
10693767 8 17842552942496316119
10967382 1 18194972841931565594
12507560 14 18192418681015961266
12654215 9 18190464852742168996
12730499 353 18335708192021258937
13140716 1 18340215171054376528
13294875 104 18335969888193244688
14178000 15 17762330315059341661
14614273 12 17838063958636806664
15279308 100 18337397127221719084
15490181 7 18265622159227451130
16945 1 18268728120624958186
17134986 127 18409162216674992965
18186145 218 18342746182639957337
18219364 16 18337691749003522465
20510252 161 17981895446942886305
20645477 70 18120650228771989149
21041028 32 17113278645623368777
21524375 3 18260544541341552275
21639500 275 18265890268455795085
2334 1 18268439112249158616
23558518 356 17972877239855744416
23559900 14 18128280994583567044
23598291 2 17554890971417894713
238 59 18339909438540273285
25 1 18336832974587543749
257057 1 17257931494621313154
2748010 2 18267883820243589930
3060560 45 18339073792043343853
350125 39 18266475371359730489
7364860 26 18194117408994933655
7471813 234 17692792810478540901
81228 2 17617103941534496379
84936 182 18200587004154077985
90316 7 17114082920961769552

>  <PUBCHEM_SHAPE_MULTIPOLES>  (1) 
330.02
5.43
4.59
0.87
2.99
1.99
-0.05
-6.45
-1.33
0.71
-0.25
0.23
-0.19
1.28

>  <PUBCHEM_SHAPE_SELFOVERLAP>  (1) 
681.68

>  <PUBCHEM_SHAPE_VOLUME>  (1) 
190.4

>  <PUBCHEM_COORDINATE_TYPE>  (1) 
2
5
10

$$$$
