42300
     RDKit          3D

  9  9  0  0  0  0  0  0  0  0999 V2000
    3.1058   -1.5886   -0.0824 I   0  0  0  0  0  0  0  0  0  0  0  0
   -2.8895   -0.9093   -0.7250 O   0  0  0  0  0  0  0  0  0  0  0  0
   -0.9255   -0.0165    0.2757 C   0  0  0  0  0  0  0  0  0  0  0  0
   -2.2840   -0.5821    0.5196 C   0  0  0  0  0  0  0  0  0  0  0  0
    0.1835   -0.8612    0.2234 C   0  0  0  0  0  0  0  0  0  0  0  0
   -0.7642    1.3579    0.1003 C   0  0  0  0  0  0  0  0  0  0  0  0
    1.4536   -0.3312   -0.0044 C   0  0  0  0  0  0  0  0  0  0  0  0
    0.5057    1.8878   -0.1275 C   0  0  0  0  0  0  0  0  0  0  0  0
    1.6146    1.0432   -0.1799 C   0  0  0  0  0  0  0  0  0  0  0  0
  1  7  1  0
  2  4  1  0
  3  4  1  0
  3  5  2  0
  3  6  1  0
  5  7  1  0
  6  8  2  0
  7  9  2  0
  8  9  1  0
M  END
>  <PUBCHEM_COMPOUND_CID>  (1) 
42300

>  <PUBCHEM_CONFORMER_RMSD>  (1) 
0.4

>  <PUBCHEM_CONFORMER_DIVERSEORDER>  (1) 
2
3
1
4

>  <PUBCHEM_MMFF94_PARTIAL_CHARGES>  (1) 
14
1 -0.08
12 0.15
13 0.15
14 0.15
15 0.15
16 0.4
2 -0.68
3 -0.14
4 0.42
5 -0.15
6 -0.15
7 0.08
8 -0.15
9 -0.15

>  <PUBCHEM_EFFECTIVE_ROTOR_COUNT>  (1) 
1

>  <PUBCHEM_PHARMACOPHORE_FEATURES>  (1) 
4
1 1 hydrophobe
1 2 acceptor
1 2 donor
6 3 5 6 7 8 9 rings

>  <PUBCHEM_HEAVY_ATOM_COUNT>  (1) 
9

>  <PUBCHEM_ATOM_DEF_STEREO_COUNT>  (1) 
0

>  <PUBCHEM_ATOM_UDEF_STEREO_COUNT>  (1) 
0

>  <PUBCHEM_BOND_DEF_STEREO_COUNT>  (1) 
0

>  <PUBCHEM_BOND_UDEF_STEREO_COUNT>  (1) 
0

>  <PUBCHEM_ISOTOPIC_ATOM_COUNT>  (1) 
0

>  <PUBCHEM_COMPONENT_COUNT>  (1) 
1

>  <PUBCHEM_CACTVS_TAUTO_COUNT>  (1) 
1

>  <PUBCHEM_CONFORMER_ID>  (1) 
0000A53C00000002

>  <PUBCHEM_MMFF94_ENERGY>  (1) 
18.6281

>  <PUBCHEM_FEATURE_SELFOVERLAP>  (1) 
20.297

>  <PUBCHEM_SHAPE_FINGERPRINT>  (1) 
11206711 2 18187930504289018742
14128692 85 18412550885878845990
16945 1 18265341796441463672
20645477 70 18265606762171030815
20653085 51 13912902894571732918
20711985 344 17897437298795085088
20871998 184 18055915394537893758
20871998 22 18270410386306015294
21040471 1 17400928990425577176
23552423 10 18187376380772932678
241688 4 18336267821363483072
2748010 2 18408880707391194020
29004967 10 18262523722411770777
5084963 1 18272652324795368970

>  <PUBCHEM_SHAPE_MULTIPOLES>  (1) 
191.28
4.16
1.9
0.73
1.5
0.69
-0.02
-2.79
-0.34
0.02
-0.12
-0.07
-0.11
-0.16

>  <PUBCHEM_SHAPE_SELFOVERLAP>  (1) 
370.854

>  <PUBCHEM_SHAPE_VOLUME>  (1) 
119.3

>  <PUBCHEM_COORDINATE_TYPE>  (1) 
2
5
10

$$$$
