42305
     RDKit          3D

 18 19  0  0  1  0  0  0  0  0999 V2000
    1.1968   -4.1577    0.1475 Cl  0  0  0  0  0  0  0  0  0  0  0  0
    2.4479    1.5665   -0.1611 O   0  0  0  0  0  0  0  0  0  0  0  0
   -0.7666    3.0271   -0.7700 O   0  0  0  0  0  0  0  0  0  0  0  0
   -0.2613    0.7713   -0.4924 N   0  0  0  0  0  0  0  0  0  0  0  0
   -3.7914   -0.3182    0.0669 N   0  0  0  0  0  0  0  0  0  0  0  0
   -1.6065    0.3189   -0.8274 C   0  0  0  0  0  0  0  0  0  0  0  0
    1.4007    2.4850    0.0834 C   0  0  0  0  0  0  0  0  0  0  0  0
    0.7624   -0.1835   -0.2356 C   0  0  0  0  0  0  0  0  0  0  0  0
   -2.4440    0.1058    0.4249 C   0  0  0  0  0  0  0  0  0  0  0  0
    0.0238    2.1330   -0.4638 C   0  0  0  0  0  0  0  0  0  0  0  0
    2.0819    0.2526   -0.0842 C   0  0  0  0  0  0  0  0  0  0  0  0
    1.3070    2.7718    1.5809 C   0  0  0  0  0  0  0  0  0  0  0  0
    0.5038   -1.5615   -0.1686 C   0  0  0  0  0  0  0  0  0  0  0  0
    3.1224   -0.6612    0.1115 C   0  0  0  0  0  0  0  0  0  0  0  0
    1.5413   -2.4738    0.0437 C   0  0  0  0  0  0  0  0  0  0  0  0
   -4.6146   -0.4886    1.2660 C   0  0  0  0  0  0  0  0  0  0  0  0
   -3.7539   -1.5631   -0.7031 C   0  0  0  0  0  0  0  0  0  0  0  0
    2.8505   -2.0244    0.1814 C   0  0  0  0  0  0  0  0  0  0  0  0
  1 15  1  0
  2  7  1  0
  2 11  1  0
  3 10  2  0
  4  6  1  0
  4  8  1  0
  4 10  1  0
  5  9  1  0
  5 16  1  0
  5 17  1  0
  6  9  1  0
  7 10  1  0
  7 12  1  0
  8 11  2  0
  8 13  1  0
 11 14  1  0
 13 15  2  0
 14 18  2  0
 15 18  1  0
M  END
>  <PUBCHEM_COMPOUND_CID>  (1) 
42305

>  <PUBCHEM_CONFORMER_RMSD>  (1) 
0.6

>  <PUBCHEM_CONFORMER_DIVERSEORDER>  (1) 
5
16
10
6
13
11
8
2
3
17
15
12
1
9
14
7
4

>  <PUBCHEM_MMFF94_PARTIAL_CHARGES>  (1) 
20
1 -0.18
10 0.57
11 0.08
13 -0.15
14 -0.15
15 0.18
16 0.27
17 0.27
18 -0.15
2 -0.36
27 0.15
28 0.15
3 -0.57
35 0.15
4 -0.48
5 -0.81
6 0.3
7 0.34
8 0.12
9 0.27

>  <PUBCHEM_EFFECTIVE_ROTOR_COUNT>  (1) 
3.6

>  <PUBCHEM_PHARMACOPHORE_FEATURES>  (1) 
5
1 2 acceptor
1 3 acceptor
1 5 cation
6 2 4 7 8 10 11 rings
6 8 11 13 14 15 18 rings

>  <PUBCHEM_HEAVY_ATOM_COUNT>  (1) 
18

>  <PUBCHEM_ATOM_DEF_STEREO_COUNT>  (1) 
0

>  <PUBCHEM_ATOM_UDEF_STEREO_COUNT>  (1) 
1

>  <PUBCHEM_BOND_DEF_STEREO_COUNT>  (1) 
0

>  <PUBCHEM_BOND_UDEF_STEREO_COUNT>  (1) 
0

>  <PUBCHEM_ISOTOPIC_ATOM_COUNT>  (1) 
0

>  <PUBCHEM_COMPONENT_COUNT>  (1) 
1

>  <PUBCHEM_CACTVS_TAUTO_COUNT>  (1) 
1

>  <PUBCHEM_CONFORMER_ID>  (1) 
0000A54100000005

>  <PUBCHEM_MMFF94_ENERGY>  (1) 
51.6022

>  <PUBCHEM_FEATURE_SELFOVERLAP>  (1) 
25.403

>  <PUBCHEM_SHAPE_FINGERPRINT>  (1) 
10064457 181 17979366574604692809
10493431 412 17979074117439362856
10967382 1 18337669827500921422
11578080 2 17414675918557979737
12506688 2 18267021665466875043
12553582 1 18338515227389071343
12954195 1 16462506892850532980
13140716 1 18267016335555191002
13533116 47 18341897433389837003
14178342 30 18049148978790372136
14251705 54 18265051323513750450
14251717 144 18338229474740601631
14787075 74 18333733516171429806
14790565 3 18337403745977793180
15501101 241 18335139812548511797
16945 1 18337101268541504366
19591789 44 18265053724774749166
20028762 73 18128816537217510031
20645477 70 18261943137871375247
20739085 24 18261966231341196661
21197605 99 17759819426235800395
21427221 339 17771935764930725657
2255824 54 18265340675565697893
23184049 29 17904199226491764526
2334 1 18049716614215697958
23557571 272 17767399085465715142
23559900 14 17402317184850798122
23598291 2 18202284727753865807
2748010 2 18120091938372819750
33824 294 18265047114688166151
352729 6 17040909344112374407
458136 41 18192162691953211213
54173680 148 17545319675084121238
7097593 13 18270973336623147803
7364860 26 18341332274910413883
81228 2 17331666952066852466
8809292 202 17257366345781968390
9709674 26 17476064740533304334

>  <PUBCHEM_SHAPE_MULTIPOLES>  (1) 
350.6
5.9
4.23
0.98
7.7
1
0.25
2.99
1.22
-2.86
0.39
0.47
-0.41
0.21

>  <PUBCHEM_SHAPE_SELFOVERLAP>  (1) 
723.533

>  <PUBCHEM_SHAPE_VOLUME>  (1) 
203

>  <PUBCHEM_COORDINATE_TYPE>  (1) 
2
5
10

$$$$
