42313
     RDKit          3D

 23 24  0  0  1  0  0  0  0  0999 V2000
    4.9434    0.8978   -0.6780 Cl  0  0  0  0  0  0  0  0  0  0  0  0
    1.4510   -2.7232   -0.5964 O   0  0  0  0  0  0  0  0  0  0  0  0
   -1.9451   -2.9427    0.3634 O   0  0  0  0  0  0  0  0  0  0  0  0
    1.8003    3.3200    1.0080 O   0  0  0  0  0  0  0  0  0  0  0  0
    3.8482    3.0141    0.2788 O   0  0  0  0  0  0  0  0  0  0  0  0
   -0.5633   -1.0717    0.4837 N   0  0  0  0  0  0  0  0  0  0  0  0
   -3.4035    1.2667   -0.1208 N   0  0  0  0  0  0  0  0  0  0  0  0
    2.6954    2.5892    0.5239 N   0  0  0  0  0  0  0  0  0  0  0  0
   -1.6449   -0.1537    0.8175 C   0  0  0  0  0  0  0  0  0  0  0  0
   -2.3094    0.3616   -0.4556 C   0  0  0  0  0  0  0  0  0  0  0  0
    0.7515   -0.5687    0.2666 C   0  0  0  0  0  0  0  0  0  0  0  0
    0.4409   -3.2847    0.2248 C   0  0  0  0  0  0  0  0  0  0  0  0
   -0.8246   -2.4351    0.3290 C   0  0  0  0  0  0  0  0  0  0  0  0
    1.7216   -1.4214   -0.2723 C   0  0  0  0  0  0  0  0  0  0  0  0
   -4.4127    0.5781    0.6853 C   0  0  0  0  0  0  0  0  0  0  0  0
   -4.0099    1.8131   -1.3359 C   0  0  0  0  0  0  0  0  0  0  0  0
    1.1020    0.7649    0.5215 C   0  0  0  0  0  0  0  0  0  0  0  0
    0.1300   -4.6726   -0.3242 C   0  0  0  0  0  0  0  0  0  0  0  0
    3.0045   -0.9560   -0.5716 C   0  0  0  0  0  0  0  0  0  0  0  0
    2.3918    1.2266    0.2429 C   0  0  0  0  0  0  0  0  0  0  0  0
   -5.5102    1.5075    1.0916 C   0  0  0  0  0  0  0  0  0  0  0  0
   -2.9980    2.5218   -2.1766 C   0  0  0  0  0  0  0  0  0  0  0  0
    3.3411    0.3682   -0.3055 C   0  0  0  0  0  0  0  0  0  0  0  0
  1 23  1  0
  2 12  1  0
  2 14  1  0
  3 13  2  0
  4  8  1  0
  5  8  2  0
  6  9  1  0
  6 11  1  0
  6 13  1  0
  7 10  1  0
  7 15  1  0
  7 16  1  0
  8 20  1  0
  9 10  1  0
 11 14  2  0
 11 17  1  0
 12 13  1  0
 12 18  1  0
 14 19  1  0
 15 21  1  0
 16 22  1  0
 17 20  2  0
 19 23  2  0
 20 23  1  0
M  CHG  2   4  -1   8   1
M  END
>  <PUBCHEM_COMPOUND_CID>  (1) 
42313

>  <PUBCHEM_CONFORMER_RMSD>  (1) 
0.8

>  <PUBCHEM_CONFORMER_DIVERSEORDER>  (1) 
4
10
2
17
15
7
8
5
14
11
6
9
12
3
1
16
13

>  <PUBCHEM_MMFF94_PARTIAL_CHARGES>  (1) 
22
1 -0.18
10 0.27
11 0.12
12 0.34
13 0.57
14 0.08
15 0.27
16 0.27
17 -0.15
19 -0.15
2 -0.36
20 0.13
23 0.18
3 -0.57
33 0.15
37 0.15
4 -0.52
5 -0.52
6 -0.48
7 -0.81
8 0.91
9 0.3

>  <PUBCHEM_EFFECTIVE_ROTOR_COUNT>  (1) 
6.6

>  <PUBCHEM_PHARMACOPHORE_FEATURES>  (1) 
8
1 2 acceptor
1 3 acceptor
1 4 acceptor
1 4 anion
1 5 acceptor
1 7 cation
6 11 14 17 19 20 23 rings
6 2 6 11 12 13 14 rings

>  <PUBCHEM_HEAVY_ATOM_COUNT>  (1) 
23

>  <PUBCHEM_ATOM_DEF_STEREO_COUNT>  (1) 
0

>  <PUBCHEM_ATOM_UDEF_STEREO_COUNT>  (1) 
1

>  <PUBCHEM_BOND_DEF_STEREO_COUNT>  (1) 
0

>  <PUBCHEM_BOND_UDEF_STEREO_COUNT>  (1) 
0

>  <PUBCHEM_ISOTOPIC_ATOM_COUNT>  (1) 
0

>  <PUBCHEM_COMPONENT_COUNT>  (1) 
1

>  <PUBCHEM_CACTVS_TAUTO_COUNT>  (1) 
1

>  <PUBCHEM_CONFORMER_ID>  (1) 
0000A54900000004

>  <PUBCHEM_MMFF94_ENERGY>  (1) 
71.3906

>  <PUBCHEM_FEATURE_SELFOVERLAP>  (1) 
40.711

>  <PUBCHEM_SHAPE_FINGERPRINT>  (1) 
10165383 225 18335717030335993013
10411042 1 17474679347276989243
10871710 139 17106517168519142516
1100329 8 18410293567444369906
12730499 353 18337121077099576099
12769317 202 18338227150952375789
12788726 201 17838315734057531815
13034934 17 18187938295971597457
13134695 92 17762041152160107191
13140716 1 18410012156285026642
13583140 156 16588845975918490681
138480 1 17907019469506114555
14114211 80 18194432019571110397
14955137 171 18046053866064121410
18186145 218 18342452617266810017
19930381 70 18411421670558334265
20645477 56 18335709372292882736
21524375 3 18333732433285679579
23536364 44 17691419507554853166
23558518 356 17974850880613271346
23559900 14 18273221920033614948
238 59 18048566297641220229
23845131 108 18335706048790640499
25 1 18412263900168885738
2748010 2 18339937024893837970
3187 122 17681274683248484987
335352 9 18412552007456076334
350125 39 18267033931877921171
3524813 1 18333449828775021373
3886686 26 18053065641378227994
474 4 18343023268170400985
621550 34 18261397702947463573
6287921 2 18261405407934430181
633830 44 18131072615049911685
6442390 28 18337960085928546843
7399639 24 18333449837971305425
7808743 9 18042698367282338164
81228 2 17757267459187581835

>  <PUBCHEM_SHAPE_MULTIPOLES>  (1) 
436.78
8.75
4.83
1.16
6.62
3.93
-0.43
-8.27
-0.42
-2.31
-0.16
1.18
-0.82
1.47

>  <PUBCHEM_SHAPE_SELFOVERLAP>  (1) 
904.204

>  <PUBCHEM_SHAPE_VOLUME>  (1) 
251.7

>  <PUBCHEM_COORDINATE_TYPE>  (1) 
2
5
10

$$$$
