42317
     RDKit          3D

 22 23  0  0  1  0  0  0  0  0999 V2000
    1.8559   -2.5499   -0.6465 O   0  0  0  0  0  0  0  0  0  0  0  0
   -1.4901   -3.0219    0.3950 O   0  0  0  0  0  0  0  0  0  0  0  0
    3.8697    3.3284    0.0997 O   0  0  0  0  0  0  0  0  0  0  0  0
    1.8379    3.5388    0.9038 O   0  0  0  0  0  0  0  0  0  0  0  0
   -0.2542   -1.0492    0.4700 N   0  0  0  0  0  0  0  0  0  0  0  0
   -3.2795    1.0586   -0.0825 N   0  0  0  0  0  0  0  0  0  0  0  0
    2.7504    2.8445    0.3946 N   0  0  0  0  0  0  0  0  0  0  0  0
   -1.3954   -0.2143    0.8233 C   0  0  0  0  0  0  0  0  0  0  0  0
   -2.1269    0.2375   -0.4371 C   0  0  0  0  0  0  0  0  0  0  0  0
    1.0125   -0.4484    0.2185 C   0  0  0  0  0  0  0  0  0  0  0  0
    0.9113   -3.1805    0.2022 C   0  0  0  0  0  0  0  0  0  0  0  0
   -0.4131   -2.4299    0.3307 C   0  0  0  0  0  0  0  0  0  0  0  0
    2.0328   -1.2285   -0.3377 C   0  0  0  0  0  0  0  0  0  0  0  0
   -4.2137    0.3013    0.7519 C   0  0  0  0  0  0  0  0  0  0  0  0
   -3.9541    1.5464   -1.2865 C   0  0  0  0  0  0  0  0  0  0  0  0
    1.2650    0.9103    0.4561 C   0  0  0  0  0  0  0  0  0  0  0  0
    0.6958   -4.5928   -0.3301 C   0  0  0  0  0  0  0  0  0  0  0  0
    3.2687   -0.6683   -0.6703 C   0  0  0  0  0  0  0  0  0  0  0  0
   -5.3698    1.1468    1.1779 C   0  0  0  0  0  0  0  0  0  0  0  0
   -3.0197    2.3236   -2.1556 C   0  0  0  0  0  0  0  0  0  0  0  0
    2.5085    1.4675    0.1438 C   0  0  0  0  0  0  0  0  0  0  0  0
    3.5082    0.6800   -0.4212 C   0  0  0  0  0  0  0  0  0  0  0  0
  1 11  1  0
  1 13  1  0
  2 12  2  0
  3  7  1  0
  4  7  2  0
  5  8  1  0
  5 10  1  0
  5 12  1  0
  6  9  1  0
  6 14  1  0
  6 15  1  0
  7 21  1  0
  8  9  1  0
 10 13  2  0
 10 16  1  0
 11 12  1  0
 11 17  1  0
 13 18  1  0
 14 19  1  0
 15 20  1  0
 16 21  2  0
 18 22  2  0
 21 22  1  0
M  CHG  2   3  -1   7   1
M  END
>  <PUBCHEM_COMPOUND_CID>  (1) 
42317

>  <PUBCHEM_CONFORMER_RMSD>  (1) 
0.8

>  <PUBCHEM_CONFORMER_DIVERSEORDER>  (1) 
4
10
2
8
14
6
7
13
5
16
9
12
1
15
3
11

>  <PUBCHEM_MMFF94_PARTIAL_CHARGES>  (1) 
22
1 -0.36
10 0.12
11 0.34
12 0.57
13 0.08
14 0.27
15 0.27
16 -0.15
18 -0.15
2 -0.57
21 0.13
22 -0.15
3 -0.52
32 0.15
36 0.15
4 -0.52
43 0.15
5 -0.48
6 -0.81
7 0.91
8 0.3
9 0.27

>  <PUBCHEM_EFFECTIVE_ROTOR_COUNT>  (1) 
6.6

>  <PUBCHEM_PHARMACOPHORE_FEATURES>  (1) 
8
1 1 acceptor
1 2 acceptor
1 3 acceptor
1 3 anion
1 4 acceptor
1 6 cation
6 1 5 10 11 12 13 rings
6 10 13 16 18 21 22 rings

>  <PUBCHEM_HEAVY_ATOM_COUNT>  (1) 
22

>  <PUBCHEM_ATOM_DEF_STEREO_COUNT>  (1) 
0

>  <PUBCHEM_ATOM_UDEF_STEREO_COUNT>  (1) 
1

>  <PUBCHEM_BOND_DEF_STEREO_COUNT>  (1) 
0

>  <PUBCHEM_BOND_UDEF_STEREO_COUNT>  (1) 
0

>  <PUBCHEM_ISOTOPIC_ATOM_COUNT>  (1) 
0

>  <PUBCHEM_COMPONENT_COUNT>  (1) 
1

>  <PUBCHEM_CACTVS_TAUTO_COUNT>  (1) 
1

>  <PUBCHEM_CONFORMER_ID>  (1) 
0000A54D00000004

>  <PUBCHEM_MMFF94_ENERGY>  (1) 
61.4398

>  <PUBCHEM_FEATURE_SELFOVERLAP>  (1) 
40.711

>  <PUBCHEM_SHAPE_FINGERPRINT>  (1) 
10165383 225 18263100901476065652
10411042 1 17618794556711585099
10670039 82 16966893524683675676
10871710 139 16890344403653832172
116883 192 16828959193371034399
12035758 1 18337100199432329560
12553582 1 17112693692615825819
12730499 353 18337122198064960875
12769317 202 18338228267628080957
12788726 201 17766823306049536455
13034934 17 18187936126965640209
13134695 92 17906157461048321535
13140716 1 18409732901917171290
13583140 156 16661463234207137001
138480 1 18051135787237328186
14114211 80 18121812605140433205
14955137 171 18190735332930390786
17134986 127 18410289220419877698
18186145 218 18342174445061810729
19930381 70 18411140221303993601
20600515 1 16452323735944620155
21041028 32 17691128132472841419
21524375 3 18333731350890597986
21639500 275 18339356353889256199
2255824 54 18270962340984740819
23536364 44 17762916363579146254
23558518 356 17974571604628297642
238 59 18120344628589411469
25 1 18410859823883733686
266924 87 17690001137898140238
2748010 2 18267037222197455058
3187 122 17537999564837065881
350125 39 18266470986388304626
3524813 1 18260831479464357773
3886686 26 17981291738593832538
474 4 18342741814573600737
6049 1 17824832127124554709
621550 34 18333736801968876937
6287921 2 18261406533157813461
633830 44 18202570566253922501
6442390 28 18337963410154132195
7399639 24 18333449863672524433
7808743 9 17900269894536909612
81228 2 17684930597701769811
90316 7 17040898332026983850

>  <PUBCHEM_SHAPE_MULTIPOLES>  (1) 
414.33
7.89
4.91
1.17
9.93
1.91
-0.43
-5.5
-0.14
-5
0.1
1.36
-0.63
1.57

>  <PUBCHEM_SHAPE_SELFOVERLAP>  (1) 
862.865

>  <PUBCHEM_SHAPE_VOLUME>  (1) 
236.7

>  <PUBCHEM_COORDINATE_TYPE>  (1) 
2
5
10

$$$$
