42325
     RDKit          3D

 18 19  0  0  1  0  0  0  0  0999 V2000
   -3.4143    3.2361    0.0272 Cl  0  0  0  0  0  0  0  0  0  0  0  0
   -1.2951   -2.2198   -0.3922 O   0  0  0  0  0  0  0  0  0  0  0  0
    1.9031   -1.9552    1.0926 O   0  0  0  0  0  0  0  0  0  0  0  0
    0.3344   -0.2571    0.8093 N   0  0  0  0  0  0  0  0  0  0  0  0
    3.7555    1.9800   -0.8120 N   0  0  0  0  0  0  0  0  0  0  0  0
    1.0598    0.7048    1.6296 C   0  0  0  0  0  0  0  0  0  0  0  0
    1.8947    1.6743    0.7951 C   0  0  0  0  0  0  0  0  0  0  0  0
    0.1161   -2.3151   -0.4904 C   0  0  0  0  0  0  0  0  0  0  0  0
   -0.9467    0.0810    0.2867 C   0  0  0  0  0  0  0  0  0  0  0  0
    0.8722   -1.5250    0.5764 C   0  0  0  0  0  0  0  0  0  0  0  0
   -1.7243   -0.9236   -0.3007 C   0  0  0  0  0  0  0  0  0  0  0  0
    2.9841    1.0064   -0.0488 C   0  0  0  0  0  0  0  0  0  0  0  0
    0.4750   -3.7960   -0.4382 C   0  0  0  0  0  0  0  0  0  0  0  0
   -1.4860    1.3717    0.3841 C   0  0  0  0  0  0  0  0  0  0  0  0
   -3.0161   -0.6583   -0.7619 C   0  0  0  0  0  0  0  0  0  0  0  0
   -2.7703    1.6437   -0.0967 C   0  0  0  0  0  0  0  0  0  0  0  0
   -3.5355    0.6295   -0.6664 C   0  0  0  0  0  0  0  0  0  0  0  0
    4.7934    1.3227   -1.5938 C   0  0  0  0  0  0  0  0  0  0  0  0
  1 16  1  0
  2  8  1  0
  2 11  1  0
  3 10  2  0
  4  6  1  0
  4  9  1  0
  4 10  1  0
  5 12  1  0
  5 18  1  0
  6  7  1  0
  7 12  1  0
  8 10  1  0
  8 13  1  0
  9 11  2  0
  9 14  1  0
 11 15  1  0
 14 16  2  0
 15 17  2  0
 16 17  1  0
M  END
>  <PUBCHEM_COMPOUND_CID>  (1) 
42325

>  <PUBCHEM_CONFORMER_RMSD>  (1) 
0.6

>  <PUBCHEM_CONFORMER_DIVERSEORDER>  (1) 
4
53
50
47
18
56
52
34
23
51
35
41
39
31
36
30
3
48
24
10
13
54
7
32
1
38
5
28
55
26
19
40
11
2
42
17
43
45
25
12
15
20
16
44
9
21
46
14
37
8
49
6
33
22
29
27

>  <PUBCHEM_MMFF94_PARTIAL_CHARGES>  (1) 
20
1 -0.18
10 0.57
11 0.08
12 0.27
14 -0.15
15 -0.15
16 0.18
17 -0.15
18 0.27
2 -0.36
29 0.15
3 -0.57
30 0.15
31 0.36
32 0.15
4 -0.48
5 -0.9
6 0.3
8 0.34
9 0.12

>  <PUBCHEM_EFFECTIVE_ROTOR_COUNT>  (1) 
4.6

>  <PUBCHEM_PHARMACOPHORE_FEATURES>  (1) 
6
1 2 acceptor
1 3 acceptor
1 5 cation
1 5 donor
6 2 4 8 9 10 11 rings
6 9 11 14 15 16 17 rings

>  <PUBCHEM_HEAVY_ATOM_COUNT>  (1) 
18

>  <PUBCHEM_ATOM_DEF_STEREO_COUNT>  (1) 
0

>  <PUBCHEM_ATOM_UDEF_STEREO_COUNT>  (1) 
1

>  <PUBCHEM_BOND_DEF_STEREO_COUNT>  (1) 
0

>  <PUBCHEM_BOND_UDEF_STEREO_COUNT>  (1) 
0

>  <PUBCHEM_ISOTOPIC_ATOM_COUNT>  (1) 
0

>  <PUBCHEM_COMPONENT_COUNT>  (1) 
1

>  <PUBCHEM_CACTVS_TAUTO_COUNT>  (1) 
1

>  <PUBCHEM_CONFORMER_ID>  (1) 
0000A55500000004

>  <PUBCHEM_MMFF94_ENERGY>  (1) 
40.4218

>  <PUBCHEM_FEATURE_SELFOVERLAP>  (1) 
30.478

>  <PUBCHEM_SHAPE_FINGERPRINT>  (1) 
10498660 4 18265319767818180629
10764073 3 17398734129600159922
10967382 1 17551779331914710739
11578080 2 16304916764816417584
12035759 4 17912377437334523584
12173636 292 18339915021449307236
12202030 40 13828982790088617221
13140716 1 18197479745886482705
14648413 74 18195238911161220611
14713325 29 18044113434293634050
14790565 3 18122909995850761273
15210252 30 16243215225977456804
15475509 35 12606541368876767973
16945 1 18124572418259762299
17134986 127 18409446955869196028
18186145 218 18060423559747343496
19591789 44 17978787140952060611
20645476 183 18189610712691036990
20671657 1 18337378366820167312
21501502 16 18267854013407906593
21524375 3 18260257568959904576
22802520 49 17625261197089704960
2334 1 18269816706072152609
23366157 5 18118115862611883819
23419403 2 17541713418415108850
23526113 38 17273415187205687488
23557571 272 17693931208756422560
23558518 356 18264192639872262963
2748010 2 17332499772238067475
298252 57 18261113014955570264
3071541 158 17836356056354274059
458136 41 18341621373791574899
474 4 17967247568369988608
5283173 99 18269840973134117440
57210444 14 18341906190089279044
7364860 26 18127679440319369883
81228 2 17406816853923235835

>  <PUBCHEM_SHAPE_MULTIPOLES>  (1) 
350.6
6.48
3.82
1.18
2.95
2.15
-0.06
-6.45
3.1
0.16
0.52
0.99
-0.26
-1.04

>  <PUBCHEM_SHAPE_SELFOVERLAP>  (1) 
719.92

>  <PUBCHEM_SHAPE_VOLUME>  (1) 
202.7

>  <PUBCHEM_COORDINATE_TYPE>  (1) 
2
5
10

$$$$
