42337
     RDKit          3D

 20 21  0  0  1  0  0  0  0  0999 V2000
   -0.3829    4.4777   -0.4775 Cl  0  0  0  0  0  0  0  0  0  0  0  0
   -2.6285   -0.8449    0.5488 O   0  0  0  0  0  0  0  0  0  0  0  0
    0.2960   -2.7975    1.2342 O   0  0  0  0  0  0  0  0  0  0  0  0
    0.1924   -0.5322    0.7056 N   0  0  0  0  0  0  0  0  0  0  0  0
    3.8375   -0.0801   -0.0235 N   0  0  0  0  0  0  0  0  0  0  0  0
    2.4350   -0.3526   -0.3412 C   0  0  0  0  0  0  0  0  0  0  0  0
    1.6117   -0.3010    0.9479 C   0  0  0  0  0  0  0  0  0  0  0  0
   -1.7777   -1.9626    0.3840 C   0  0  0  0  0  0  0  0  0  0  0  0
   -0.3344   -1.8123    0.8465 C   0  0  0  0  0  0  0  0  0  0  0  0
   -0.6537    0.5604    0.3650 C   0  0  0  0  0  0  0  0  0  0  0  0
   -2.0362    0.3616    0.3048 C   0  0  0  0  0  0  0  0  0  0  0  0
   -1.8120   -2.4256   -1.0715 C   0  0  0  0  0  0  0  0  0  0  0  0
    2.3403   -1.7132   -1.0307 C   0  0  0  0  0  0  0  0  0  0  0  0
   -0.1546    1.8502    0.1255 C   0  0  0  0  0  0  0  0  0  0  0  0
    3.9675    1.2168    0.6389 C   0  0  0  0  0  0  0  0  0  0  0  0
    4.6523   -0.1195   -1.2367 C   0  0  0  0  0  0  0  0  0  0  0  0
   -2.9033    1.4243    0.0316 C   0  0  0  0  0  0  0  0  0  0  0  0
   -3.2357   -2.5556   -1.5798 C   0  0  0  0  0  0  0  0  0  0  0  0
   -1.0197    2.9090   -0.1639 C   0  0  0  0  0  0  0  0  0  0  0  0
   -2.3939    2.6971   -0.2082 C   0  0  0  0  0  0  0  0  0  0  0  0
  1 19  1  0
  2  8  1  0
  2 11  1  0
  3  9  2  0
  4  7  1  0
  4  9  1  0
  4 10  1  0
  5  6  1  0
  5 15  1  0
  5 16  1  0
  6  7  1  0
  6 13  1  0
  8  9  1  0
  8 12  1  0
 10 11  2  0
 10 14  1  0
 11 17  1  0
 12 18  1  0
 14 19  2  0
 17 20  2  0
 19 20  1  0
M  END
>  <PUBCHEM_COMPOUND_CID>  (1) 
42337

>  <PUBCHEM_CONFORMER_RMSD>  (1) 
0.6

>  <PUBCHEM_CONFORMER_DIVERSEORDER>  (1) 
3
29
34
6
28
26
33
8
37
35
16
2
20
14
22
11
31
36
18
17
13
25
19
27
23
32
15
9
30
12
1
21
4
7
24
10
5

>  <PUBCHEM_MMFF94_PARTIAL_CHARGES>  (1) 
20
1 -0.18
10 0.12
11 0.08
14 -0.15
15 0.27
16 0.27
17 -0.15
19 0.18
2 -0.36
20 -0.15
3 -0.57
30 0.15
37 0.15
4 -0.48
41 0.15
5 -0.81
6 0.27
7 0.3
8 0.34
9 0.57

>  <PUBCHEM_EFFECTIVE_ROTOR_COUNT>  (1) 
4.6

>  <PUBCHEM_PHARMACOPHORE_FEATURES>  (1) 
6
1 18 hydrophobe
1 2 acceptor
1 3 acceptor
1 5 cation
6 10 11 14 17 19 20 rings
6 2 4 8 9 10 11 rings

>  <PUBCHEM_HEAVY_ATOM_COUNT>  (1) 
20

>  <PUBCHEM_ATOM_DEF_STEREO_COUNT>  (1) 
0

>  <PUBCHEM_ATOM_UDEF_STEREO_COUNT>  (1) 
2

>  <PUBCHEM_BOND_DEF_STEREO_COUNT>  (1) 
0

>  <PUBCHEM_BOND_UDEF_STEREO_COUNT>  (1) 
0

>  <PUBCHEM_ISOTOPIC_ATOM_COUNT>  (1) 
0

>  <PUBCHEM_COMPONENT_COUNT>  (1) 
1

>  <PUBCHEM_CACTVS_TAUTO_COUNT>  (1) 
1

>  <PUBCHEM_CONFORMER_ID>  (1) 
0000A56100000003

>  <PUBCHEM_MMFF94_ENERGY>  (1) 
57.4293

>  <PUBCHEM_FEATURE_SELFOVERLAP>  (1) 
30.477

>  <PUBCHEM_SHAPE_FINGERPRINT>  (1) 
10498660 4 18262798445731917237
10871710 139 18335425672676217109
10967382 1 18264206920058442217
11578080 2 17059759139377673962
12173636 292 18121496856277123756
12553582 1 18121231032229207044
13140716 1 18408042922406921953
13149001 5 17682950360075416803
14508225 48 18268419308017910941
14648413 74 16966890736884929137
14790565 3 18266751190361495241
15490181 7 18193839232389732218
16945 1 18045503010911827489
17134986 127 17614848409526339724
17357779 13 17986373689204699535
17492 54 18263906775665764429
18785283 64 16752138510762111145
19591789 44 18409735019673736145
20510252 161 18410301272029727360
20511035 2 17471837126961685851
21421566 26 18130510850159071166
21524375 3 17975136439824123744
22620623 9 18202288012855149614
2334 1 18264487467411855273
23402539 116 18409442626853112086
23419403 2 17344606357184966705
23557571 272 18343309197149380092
23559900 14 18271526382825135026
238 59 16962640067718096869
26353 1 18054203682603468207
2748010 2 18337661040166723521
350125 39 17686624536971808809
46194498 28 17475475819303132695
59554788 170 18125171441516836973
7364860 26 17185874991431244857
81228 2 18411140280900253273

>  <PUBCHEM_SHAPE_MULTIPOLES>  (1) 
391.76
6.09
4.48
1.16
7.17
3.53
-0.19
-0.75
-1.79
-3.56
-1
0.12
-0.74
-0.26

>  <PUBCHEM_SHAPE_SELFOVERLAP>  (1) 
806.194

>  <PUBCHEM_SHAPE_VOLUME>  (1) 
227.6

>  <PUBCHEM_COORDINATE_TYPE>  (1) 
2
5
10

$$$$
