42333
     RDKit          3D

 23 25  0  0  1  0  0  0  0  0999 V2000
   -4.0436    3.8204   -0.4027 Cl  0  0  0  0  0  0  0  0  0  0  0  0
   -3.3407   -1.9514    0.3883 O   0  0  0  0  0  0  0  0  0  0  0  0
    0.1040   -2.4352   -0.2471 O   0  0  0  0  0  0  0  0  0  0  0  0
    3.0203    0.9957    0.1317 N   0  0  0  0  0  0  0  0  0  0  0  0
    5.6900   -0.1128    0.0807 N   0  0  0  0  0  0  0  0  0  0  0  0
   -1.0792   -0.4312   -0.3368 N   0  0  0  0  0  0  0  0  0  0  0  0
    3.3619   -0.2053    0.9036 C   0  0  0  0  0  0  0  0  0  0  0  0
    4.1996    1.8556   -0.0260 C   0  0  0  0  0  0  0  0  0  0  0  0
    1.9257    1.7269    0.7664 C   0  0  0  0  0  0  0  0  0  0  0  0
    4.5104   -0.9722    0.2391 C   0  0  0  0  0  0  0  0  0  0  0  0
    5.3489    1.0894   -0.6897 C   0  0  0  0  0  0  0  0  0  0  0  0
    0.6531    0.8806    0.8646 C   0  0  0  0  0  0  0  0  0  0  0  0
    0.1118    0.3969   -0.4794 C   0  0  0  0  0  0  0  0  0  0  0  0
    6.7836   -0.8443   -0.5559 C   0  0  0  0  0  0  0  0  0  0  0  0
   -2.3578    0.1831   -0.2068 C   0  0  0  0  0  0  0  0  0  0  0  0
   -0.9623   -1.8217   -0.2787 C   0  0  0  0  0  0  0  0  0  0  0  0
   -2.3044   -2.5454   -0.3758 C   0  0  0  0  0  0  0  0  0  0  0  0
   -3.4543   -0.6076    0.1558 C   0  0  0  0  0  0  0  0  0  0  0  0
   -2.5549    1.5610   -0.3757 C   0  0  0  0  0  0  0  0  0  0  0  0
   -2.1829   -3.9963    0.0759 C   0  0  0  0  0  0  0  0  0  0  0  0
   -4.7135   -0.0405    0.3670 C   0  0  0  0  0  0  0  0  0  0  0  0
   -3.8192    2.1267   -0.1860 C   0  0  0  0  0  0  0  0  0  0  0  0
   -4.8965    1.3276    0.1875 C   0  0  0  0  0  0  0  0  0  0  0  0
  1 22  1  0
  2 17  1  0
  2 18  1  0
  3 16  2  0
  4  7  1  0
  4  8  1  0
  4  9  1  0
  5 10  1  0
  5 11  1  0
  5 14  1  0
  6 13  1  0
  6 15  1  0
  6 16  1  0
  7 10  1  0
  8 11  1  0
  9 12  1  0
 12 13  1  0
 15 18  2  0
 15 19  1  0
 16 17  1  0
 17 20  1  0
 18 21  1  0
 19 22  2  0
 21 23  2  0
 22 23  1  0
M  END
>  <PUBCHEM_COMPOUND_CID>  (1) 
42333

>  <PUBCHEM_CONFORMER_RMSD>  (1) 
0.8

>  <PUBCHEM_CONFORMER_DIVERSEORDER>  (1) 
2
39
21
24
46
30
37
13
43
38
41
32
42
6
40
26
7
3
36
12
15
44
23
25
18
8
11
9
35
1
33
17
14
28
20
19
5
31
16
45
27
10
34
29
22
4

>  <PUBCHEM_MMFF94_PARTIAL_CHARGES>  (1) 
24
1 -0.18
10 0.27
11 0.27
13 0.3
14 0.27
15 0.12
16 0.57
17 0.34
18 0.08
19 -0.15
2 -0.36
21 -0.15
22 0.18
23 -0.15
3 -0.57
4 -0.81
42 0.15
46 0.15
47 0.15
5 -0.81
6 -0.48
7 0.27
8 0.27
9 0.27

>  <PUBCHEM_EFFECTIVE_ROTOR_COUNT>  (1) 
5.8

>  <PUBCHEM_PHARMACOPHORE_FEATURES>  (1) 
7
1 2 acceptor
1 3 acceptor
1 4 cation
1 5 cation
6 15 18 19 21 22 23 rings
6 2 6 15 16 17 18 rings
6 4 5 7 8 10 11 rings

>  <PUBCHEM_HEAVY_ATOM_COUNT>  (1) 
23

>  <PUBCHEM_ATOM_DEF_STEREO_COUNT>  (1) 
0

>  <PUBCHEM_ATOM_UDEF_STEREO_COUNT>  (1) 
1

>  <PUBCHEM_BOND_DEF_STEREO_COUNT>  (1) 
0

>  <PUBCHEM_BOND_UDEF_STEREO_COUNT>  (1) 
0

>  <PUBCHEM_ISOTOPIC_ATOM_COUNT>  (1) 
0

>  <PUBCHEM_COMPONENT_COUNT>  (1) 
1

>  <PUBCHEM_CACTVS_TAUTO_COUNT>  (1) 
1

>  <PUBCHEM_CONFORMER_ID>  (1) 
0000A55D00000002

>  <PUBCHEM_MMFF94_ENERGY>  (1) 
55.1895

>  <PUBCHEM_FEATURE_SELFOVERLAP>  (1) 
35.556

>  <PUBCHEM_SHAPE_FINGERPRINT>  (1) 
10165383 225 18342743967006772569
10411042 1 17977948222349973751
10595046 47 18190182480856077348
10616163 171 18338797948016859598
10835480 77 18201150040740055080
11273773 46 18127703634656626094
11405975 8 18410287047551574112
11578080 2 16807557380536859567
11796584 16 18341896277964318086
12107183 9 17973997354488963168
12166972 35 12463277121016719626
12390115 104 18270973332286346193
12403259 226 17913202350217706507
12643181 29 18412262797417858446
13140716 1 18121507023308166857
13167823 11 18334294309940037584
14251751 93 18335695057240712451
14251752 14 18408886196986853440
14251757 5 18412263930450331272
14341114 176 18410298046635992152
14420673 8 18410578353782635350
14508225 48 17910097347030410431
14790565 3 18266179439528850297
15021287 119 17675928694616731356
15042514 8 18264773345368380107
15183329 4 18410293584491791776
15196674 1 18340486785345448122
15230672 131 18263646152771755678
15250474 111 18262222409430175578
15510800 12 17272869619697473038
17349148 13 12319454432845304744
17804303 29 18341049726086241315
17844677 252 18409174341679139708
1813 80 16877940555572393140
19489759 90 11527947850596594212
20286276 3 18195249042889111216
21033648 29 18341316821687408745
21065198 57 18340203102497123496
21279426 13 18127134069856911030
23559900 14 18201432623580698048
3004659 81 18408887318226512222
3298306 158 18201720617874529022
335352 9 18413107255662782300
350125 39 18411136910105299529
4073 2 18115591586426306698
4214541 1 18410855481935586992
44062 13 18343022237420649110
508706 21 18343023319415038406
5104073 3 18340763862222595728
5265222 85 18338810017470632094
532947 4 18127695924393783447
5385378 56 18127702534722478563
559249 180 18411134702370952466
56616090 46 18340488859302793676
59755656 215 18340769247536668879
59755656 520 18410849959103198669
6437827 68 18412546470958563806
7226269 152 17917710163060632992
9981440 41 18335988550332625977

>  <PUBCHEM_SHAPE_MULTIPOLES>  (1) 
448.52
13.54
3.75
0.8
18.76
1.45
-0.05
-4.13
1.03
-5.21
0.35
0.28
-0.1
0.4

>  <PUBCHEM_SHAPE_SELFOVERLAP>  (1) 
928.297

>  <PUBCHEM_SHAPE_VOLUME>  (1) 
257.6

>  <PUBCHEM_COORDINATE_TYPE>  (1) 
2
5
10

$$$$
