42335
     RDKit          3D

 19 20  0  0  1  0  0  0  0  0999 V2000
    1.2017    4.1882    0.2264 Cl  0  0  0  0  0  0  0  0  0  0  0  0
    2.6082   -1.4923   -0.1984 O   0  0  0  0  0  0  0  0  0  0  0  0
   -0.5540   -3.0195   -0.9076 O   0  0  0  0  0  0  0  0  0  0  0  0
   -0.1133   -0.7588   -0.5659 N   0  0  0  0  0  0  0  0  0  0  0  0
   -3.6133    0.4727   -0.1090 N   0  0  0  0  0  0  0  0  0  0  0  0
   -2.3108    0.0054    0.3129 C   0  0  0  0  0  0  0  0  0  0  0  0
   -1.4623   -0.3325   -0.9196 C   0  0  0  0  0  0  0  0  0  0  0  0
    0.8794    0.2152   -0.2637 C   0  0  0  0  0  0  0  0  0  0  0  0
    1.5808   -2.4429    0.0037 C   0  0  0  0  0  0  0  0  0  0  0  0
    0.2064   -2.1130   -0.5637 C   0  0  0  0  0  0  0  0  0  0  0  0
   -2.4723   -1.1716    1.2723 C   0  0  0  0  0  0  0  0  0  0  0  0
    2.2067   -0.1906   -0.0963 C   0  0  0  0  0  0  0  0  0  0  0  0
    0.5834    1.5838   -0.1669 C   0  0  0  0  0  0  0  0  0  0  0  0
   -3.4921    1.6062   -1.0339 C   0  0  0  0  0  0  0  0  0  0  0  0
   -4.4344    0.8575    1.0455 C   0  0  0  0  0  0  0  0  0  0  0  0
    1.4650   -2.7673    1.4921 C   0  0  0  0  0  0  0  0  0  0  0  0
    3.2189    0.7445    0.1428 C   0  0  0  0  0  0  0  0  0  0  0  0
    1.5921    2.5169    0.0886 C   0  0  0  0  0  0  0  0  0  0  0  0
    2.9099    2.0980    0.2406 C   0  0  0  0  0  0  0  0  0  0  0  0
  1 18  1  0
  2  9  1  0
  2 12  1  0
  3 10  2  0
  4  7  1  0
  4  8  1  0
  4 10  1  0
  5  6  1  0
  5 14  1  0
  5 15  1  0
  6  7  1  0
  6 11  1  0
  8 12  2  0
  8 13  1  0
  9 10  1  0
  9 16  1  0
 12 17  1  0
 13 18  2  0
 17 19  2  0
 18 19  1  0
M  END
>  <PUBCHEM_COMPOUND_CID>  (1) 
42335

>  <PUBCHEM_CONFORMER_RMSD>  (1) 
0.6

>  <PUBCHEM_CONFORMER_DIVERSEORDER>  (1) 
3
21
22
9
10
5
20
13
18
15
12
4
7
11
17
14
16
19
2
6
8
1

>  <PUBCHEM_MMFF94_PARTIAL_CHARGES>  (1) 
20
1 -0.18
10 0.57
12 0.08
13 -0.15
14 0.27
15 0.27
17 -0.15
18 0.18
19 -0.15
2 -0.36
27 0.15
3 -0.57
37 0.15
38 0.15
4 -0.48
5 -0.81
6 0.27
7 0.3
8 0.12
9 0.34

>  <PUBCHEM_EFFECTIVE_ROTOR_COUNT>  (1) 
3.6

>  <PUBCHEM_PHARMACOPHORE_FEATURES>  (1) 
5
1 2 acceptor
1 3 acceptor
1 5 cation
6 2 4 8 9 10 12 rings
6 8 12 13 17 18 19 rings

>  <PUBCHEM_HEAVY_ATOM_COUNT>  (1) 
19

>  <PUBCHEM_ATOM_DEF_STEREO_COUNT>  (1) 
0

>  <PUBCHEM_ATOM_UDEF_STEREO_COUNT>  (1) 
2

>  <PUBCHEM_BOND_DEF_STEREO_COUNT>  (1) 
0

>  <PUBCHEM_BOND_UDEF_STEREO_COUNT>  (1) 
0

>  <PUBCHEM_ISOTOPIC_ATOM_COUNT>  (1) 
0

>  <PUBCHEM_COMPONENT_COUNT>  (1) 
1

>  <PUBCHEM_CACTVS_TAUTO_COUNT>  (1) 
1

>  <PUBCHEM_CONFORMER_ID>  (1) 
0000A55F00000003

>  <PUBCHEM_MMFF94_ENERGY>  (1) 
57.4888

>  <PUBCHEM_FEATURE_SELFOVERLAP>  (1) 
25.403

>  <PUBCHEM_SHAPE_FINGERPRINT>  (1) 
10366900 7 18114473335344553931
10382601 240 18410579448566331232
104564 63 17836369242077822790
10967382 1 18411979144037887492
10980938 120 18410852140150175111
11640471 11 17418103074778960929
116883 192 17404579978983357781
11725454 13 17244100991780641221
12553582 1 17979082573991929273
12633257 1 18187082828247914163
12788726 201 17615410255646798906
13134695 92 18119797028627598631
13140716 1 18265610073026047304
14178342 30 18053644044169999880
14790565 3 18410864261281938884
15490181 7 18266179619917230031
16945 1 18269552904833169406
18186145 218 18273502277258733621
18219364 16 18336541715728262317
19049666 15 17969501511709860525
19591789 44 18411140212787502668
20510252 161 17260180519870183980
20645477 70 18338791200870670621
20681677 76 18334571318404039557
21041028 32 18048592617158838802
21501502 16 17691686010396914348
21524375 3 18268147750194422583
21639500 275 18339910555131439509
21665062 11 18339933610247066809
21731228 192 18193277626808469328
2334 1 17690554608420739820
23419403 2 17463942706520112862
23557571 272 13326271681818902113
23558518 356 17905885130362763342
238 59 17975371877263017981
25 1 18411703226917533028
2748010 2 18123456199341106172
3060560 45 18130228138200449007
350125 39 17978794837048015412
474 4 18341332270926871489
495365 180 18269253700294972053
5939293 188 18339642239501974267
7364860 26 18411703149381151295
7832392 63 18271242824129831486
81228 2 17185592958145533665
8272917 22 18271535187038366013

>  <PUBCHEM_SHAPE_MULTIPOLES>  (1) 
371.18
5.82
4.17
1.06
5.55
1.15
-0.18
2.92
-1.01
-2.76
-0.38
0.6
-0.41
0.14

>  <PUBCHEM_SHAPE_SELFOVERLAP>  (1) 
766.56

>  <PUBCHEM_SHAPE_VOLUME>  (1) 
215

>  <PUBCHEM_COORDINATE_TYPE>  (1) 
2
5
10

$$$$
