42331
     RDKit          3D

 21 22  0  0  1  0  0  0  0  0999 V2000
   -2.9024    4.0803   -0.2131 Cl  0  0  0  0  0  0  0  0  0  0  0  0
   -2.9014   -1.7590    0.3663 O   0  0  0  0  0  0  0  0  0  0  0  0
    0.4431   -2.6385   -0.3715 O   0  0  0  0  0  0  0  0  0  0  0  0
   -0.4851   -0.5023   -0.3642 N   0  0  0  0  0  0  0  0  0  0  0  0
    3.7656    0.3948    0.0498 N   0  0  0  0  0  0  0  0  0  0  0  0
    1.4206    0.5425    0.8363 C   0  0  0  0  0  0  0  0  0  0  0  0
    0.7957    0.1779   -0.5090 C   0  0  0  0  0  0  0  0  0  0  0  0
    2.7856    1.2293    0.7345 C   0  0  0  0  0  0  0  0  0  0  0  0
   -1.6751    0.2589   -0.1816 C   0  0  0  0  0  0  0  0  0  0  0  0
   -1.9625   -2.4474   -0.4431 C   0  0  0  0  0  0  0  0  0  0  0  0
   -0.5397   -1.8980   -0.3556 C   0  0  0  0  0  0  0  0  0  0  0  0
    3.9576   -0.8678    0.7657 C   0  0  0  0  0  0  0  0  0  0  0  0
    5.0410    1.1012   -0.0837 C   0  0  0  0  0  0  0  0  0  0  0  0
   -2.8530   -0.4039    0.1820 C   0  0  0  0  0  0  0  0  0  0  0  0
   -1.7041    1.6558   -0.2993 C   0  0  0  0  0  0  0  0  0  0  0  0
   -2.0118   -3.9178   -0.0433 C   0  0  0  0  0  0  0  0  0  0  0  0
    4.9108   -1.7629    0.0425 C   0  0  0  0  0  0  0  0  0  0  0  0
    4.8718    2.3950   -0.8120 C   0  0  0  0  0  0  0  0  0  0  0  0
   -4.0278    0.3054    0.4435 C   0  0  0  0  0  0  0  0  0  0  0  0
   -2.8846    2.3651   -0.0590 C   0  0  0  0  0  0  0  0  0  0  0  0
   -4.0442    1.6913    0.3147 C   0  0  0  0  0  0  0  0  0  0  0  0
  1 20  1  0
  2 10  1  0
  2 14  1  0
  3 11  2  0
  4  7  1  0
  4  9  1  0
  4 11  1  0
  5  8  1  0
  5 12  1  0
  5 13  1  0
  6  7  1  0
  6  8  1  0
  9 14  2  0
  9 15  1  0
 10 11  1  0
 10 16  1  0
 12 17  1  0
 13 18  1  0
 14 19  1  0
 15 20  2  0
 19 21  2  0
 20 21  1  0
M  END
>  <PUBCHEM_COMPOUND_CID>  (1) 
42331

>  <PUBCHEM_CONFORMER_RMSD>  (1) 
0.8

>  <PUBCHEM_CONFORMER_DIVERSEORDER>  (1) 
1
68
32
64
70
56
57
24
60
42
35
66
34
53
36
31
71
19
30
73
20
52
23
41
7
59
62
33
21
38
43
50
15
39
51
4
65
29
72
13
46
69
48
67
11
58
9
49
10
47
40
22
17
25
54
27
61
28
8
63
45
18
16
26
3
6
12
55
14
37
44
2
5

>  <PUBCHEM_MMFF94_PARTIAL_CHARGES>  (1) 
20
1 -0.18
10 0.34
11 0.57
12 0.27
13 0.27
14 0.08
15 -0.15
19 -0.15
2 -0.36
20 0.18
21 -0.15
3 -0.57
33 0.15
4 -0.48
43 0.15
44 0.15
5 -0.81
7 0.3
8 0.27
9 0.12

>  <PUBCHEM_EFFECTIVE_ROTOR_COUNT>  (1) 
6.6

>  <PUBCHEM_PHARMACOPHORE_FEATURES>  (1) 
5
1 2 acceptor
1 3 acceptor
1 5 cation
6 2 4 9 10 11 14 rings
6 9 14 15 19 20 21 rings

>  <PUBCHEM_HEAVY_ATOM_COUNT>  (1) 
21

>  <PUBCHEM_ATOM_DEF_STEREO_COUNT>  (1) 
0

>  <PUBCHEM_ATOM_UDEF_STEREO_COUNT>  (1) 
1

>  <PUBCHEM_BOND_DEF_STEREO_COUNT>  (1) 
0

>  <PUBCHEM_BOND_UDEF_STEREO_COUNT>  (1) 
0

>  <PUBCHEM_ISOTOPIC_ATOM_COUNT>  (1) 
0

>  <PUBCHEM_COMPONENT_COUNT>  (1) 
1

>  <PUBCHEM_CACTVS_TAUTO_COUNT>  (1) 
1

>  <PUBCHEM_CONFORMER_ID>  (1) 
0000A55B00000001

>  <PUBCHEM_MMFF94_ENERGY>  (1) 
48.3098

>  <PUBCHEM_FEATURE_SELFOVERLAP>  (1) 
25.404

>  <PUBCHEM_SHAPE_FINGERPRINT>  (1) 
10411042 1 17762901365464346079
10616163 171 18339644572207552590
11405975 8 18335697222595235186
12107183 9 18046901577070703448
12173636 292 18339913896452536804
12390115 104 18200892677171647905
12553582 1 17763171841061245726
12788726 201 18190168177781610146
13140716 1 18123196959610462473
13167823 11 18334012792066427674
138480 1 17042605310976079611
14178342 30 18194660778767524440
14251751 93 18335695010064624562
14251757 5 18342181098077312096
14420673 8 18192713337443300626
14508225 48 17910378813211367231
14790565 3 18267308642302616248
15042514 8 18337394950090109435
15196674 1 18411699898402475906
15256400 18 18339360747651271542
15295992 7 17632286904291938825
16110190 28 18119226395769788138
18785283 64 17761216514371096057
19591789 44 18339078160009168298
20101258 96 17976551820447530737
21065198 57 18410572877693441024
21279426 13 17838902538485857006
21524375 3 18201712904308092967
22907989 373 18265033881730306597
23402539 116 18271799181783395679
23558518 356 18261393394694566490
23559900 14 18130238064745310046
2748010 2 18193008032465595415
3298306 158 18128535964225271958
350125 39 18267023864991335985
4214541 1 18410855469303814784
5104073 3 18410289238032212538
532947 4 17838899235176380679
633830 44 17530965787349163328
7226269 152 17773866511786583384
77779 3 18408604773291443400
7808743 9 18410857698276160672
9709674 26 18343303682438213790
9981440 41 18265610971217388649

>  <PUBCHEM_SHAPE_MULTIPOLES>  (1) 
412.34
10.01
4.32
0.8
12.22
0.63
-0.03
-4.63
-0.45
-3.58
0.65
0.28
-0.09
-0.47

>  <PUBCHEM_SHAPE_SELFOVERLAP>  (1) 
840.139

>  <PUBCHEM_SHAPE_VOLUME>  (1) 
240.3

>  <PUBCHEM_COORDINATE_TYPE>  (1) 
2
5
10

$$$$
