42343
     RDKit          3D

 22 23  0  0  1  0  0  0  0  0999 V2000
    4.2040   -1.7695    0.2085 Cl  0  0  0  0  0  0  0  0  0  0  0  0
    1.4467   -2.5727   -0.2373 O   0  0  0  0  0  0  0  0  0  0  0  0
   -2.0696   -2.8371   -0.8705 O   0  0  0  0  0  0  0  0  0  0  0  0
    1.2050    3.7029   -0.0246 O   0  0  0  0  0  0  0  0  0  0  0  0
    3.3501    3.3631    0.2953 O   0  0  0  0  0  0  0  0  0  0  0  0
   -0.8220   -0.8936   -0.5746 N   0  0  0  0  0  0  0  0  0  0  0  0
   -3.7221    1.4253   -0.0901 N   0  0  0  0  0  0  0  0  0  0  0  0
    2.1888    2.9334    0.0935 N   0  0  0  0  0  0  0  0  0  0  0  0
   -2.6521    0.5184    0.3280 C   0  0  0  0  0  0  0  0  0  0  0  0
   -1.9270   -0.0046   -0.9143 C   0  0  0  0  0  0  0  0  0  0  0  0
    0.4654   -0.3499   -0.3047 C   0  0  0  0  0  0  0  0  0  0  0  0
    0.1462   -3.0768   -0.0028 C   0  0  0  0  0  0  0  0  0  0  0  0
   -1.0223   -2.2704   -0.5541 C   0  0  0  0  0  0  0  0  0  0  0  0
   -3.2591   -0.6117    1.1587 C   0  0  0  0  0  0  0  0  0  0  0  0
    1.5539   -1.2136   -0.1512 C   0  0  0  0  0  0  0  0  0  0  0  0
    0.6951    1.0326   -0.2268 C   0  0  0  0  0  0  0  0  0  0  0  0
   -0.0495   -3.3207    1.4925 C   0  0  0  0  0  0  0  0  0  0  0  0
   -3.1777    2.5220   -0.8891 C   0  0  0  0  0  0  0  0  0  0  0  0
   -4.4343    1.9456    1.0759 C   0  0  0  0  0  0  0  0  0  0  0  0
    2.8436   -0.7139    0.0558 C   0  0  0  0  0  0  0  0  0  0  0  0
    1.9812    1.5319   -0.0032 C   0  0  0  0  0  0  0  0  0  0  0  0
    3.0557    0.6593    0.1353 C   0  0  0  0  0  0  0  0  0  0  0  0
  1 20  1  0
  2 12  1  0
  2 15  1  0
  3 13  2  0
  4  8  1  0
  5  8  2  0
  6 10  1  0
  6 11  1  0
  6 13  1  0
  7  9  1  0
  7 18  1  0
  7 19  1  0
  8 21  1  0
  9 10  1  0
  9 14  1  0
 11 15  2  0
 11 16  1  0
 12 13  1  0
 12 17  1  0
 15 20  1  0
 16 21  2  0
 20 22  2  0
 21 22  1  0
M  CHG  2   4  -1   8   1
M  END
>  <PUBCHEM_COMPOUND_CID>  (1) 
42343

>  <PUBCHEM_CONFORMER_RMSD>  (1) 
0.8

>  <PUBCHEM_CONFORMER_DIVERSEORDER>  (1) 
2
9
5
8
3
4
10
6
1
7

>  <PUBCHEM_MMFF94_PARTIAL_CHARGES>  (1) 
22
1 -0.18
10 0.3
11 0.12
12 0.34
13 0.57
15 0.08
16 -0.15
18 0.27
19 0.27
2 -0.36
20 0.18
21 0.13
22 -0.15
3 -0.57
30 0.15
4 -0.52
40 0.15
5 -0.52
6 -0.48
7 -0.81
8 0.91
9 0.27

>  <PUBCHEM_EFFECTIVE_ROTOR_COUNT>  (1) 
4.6

>  <PUBCHEM_PHARMACOPHORE_FEATURES>  (1) 
8
1 2 acceptor
1 3 acceptor
1 4 acceptor
1 4 anion
1 5 acceptor
1 7 cation
6 11 15 16 20 21 22 rings
6 2 6 11 12 13 15 rings

>  <PUBCHEM_HEAVY_ATOM_COUNT>  (1) 
22

>  <PUBCHEM_ATOM_DEF_STEREO_COUNT>  (1) 
0

>  <PUBCHEM_ATOM_UDEF_STEREO_COUNT>  (1) 
2

>  <PUBCHEM_BOND_DEF_STEREO_COUNT>  (1) 
0

>  <PUBCHEM_BOND_UDEF_STEREO_COUNT>  (1) 
0

>  <PUBCHEM_ISOTOPIC_ATOM_COUNT>  (1) 
0

>  <PUBCHEM_COMPONENT_COUNT>  (1) 
1

>  <PUBCHEM_CACTVS_TAUTO_COUNT>  (1) 
1

>  <PUBCHEM_CONFORMER_ID>  (1) 
0000A56700000002

>  <PUBCHEM_MMFF94_ENERGY>  (1) 
70.605

>  <PUBCHEM_FEATURE_SELFOVERLAP>  (1) 
40.71

>  <PUBCHEM_SHAPE_FINGERPRINT>  (1) 
10366900 7 18042418958353188235
10411042 1 17474953125724812695
10967382 1 18195243313085941478
1100329 8 18410854335342719498
12403260 363 18340757226155679463
12553582 1 17402903223877671161
12633257 1 18116442449048425777
12788726 201 17906720759052206291
13134695 92 17759230804960994439
13140716 1 18409166614583990313
13583140 156 17531508941402717449
14022347 108 18265343798624548570
14178342 30 18268971237380870594
14223421 5 17977386362863798410
14466204 15 18264763260273089720
14713325 29 17758966204969084840
14790565 3 18267031566058231980
14955137 171 18266754479962974314
15081414 286 18054515703282053220
15420108 30 17841420433050716877
15442244 35 18411976996770354846
15475509 8 17700438896264305460
1601671 61 18194686960365823444
16945 1 18341327816829585782
19591789 44 18051410669871541814
20510252 161 17908419504448476631
21041028 32 17543344956353450946
21197605 99 18266475350966894179
21501502 16 18196650911503317198
21524375 3 18411702080272054303
21665062 11 18124043321154210913
21731228 192 18409452517877789451
22094290 62 18412543202034835844
2334 1 18266452303322570198
23558518 356 18265049317658567254
238 59 17757511263264784709
2748010 2 17691113843290799254
350125 39 18338801229234457415
474 4 18341613668683776657
5939293 188 18123186810086043427
7164475 11 18127961112912445599
7832392 63 18341608205263914470
81228 2 17904481062530122903
9981440 41 17764288936347903120
9999458 23 18335707100381848879

>  <PUBCHEM_SHAPE_MULTIPOLES>  (1) 
416.2
6.78
4.64
0.98
3.59
1.42
-0.16
3.05
-1.26
-2.03
-0.39
0.67
-0.4
0.05

>  <PUBCHEM_SHAPE_SELFOVERLAP>  (1) 
866.95

>  <PUBCHEM_SHAPE_VOLUME>  (1) 
239.1

>  <PUBCHEM_COORDINATE_TYPE>  (1) 
2
5
10

$$$$
