42345
     RDKit          3D

 21 23  0  0  1  0  0  0  0  0999 V2000
    0.9517    4.2880   -0.3007 Cl  0  0  0  0  0  0  0  0  0  0  0  0
    3.3746   -1.0276    0.2485 O   0  0  0  0  0  0  0  0  0  0  0  0
    0.5357   -3.1021    0.9371 O   0  0  0  0  0  0  0  0  0  0  0  0
   -3.1141   -0.3582    0.0294 N   0  0  0  0  0  0  0  0  0  0  0  0
    0.5575   -0.8047    0.5595 N   0  0  0  0  0  0  0  0  0  0  0  0
   -1.7253   -0.5260   -0.3719 C   0  0  0  0  0  0  0  0  0  0  0  0
   -3.3188    0.8378    0.8463 C   0  0  0  0  0  0  0  0  0  0  0  0
   -4.0100   -0.1942   -1.1150 C   0  0  0  0  0  0  0  0  0  0  0  0
   -4.8289    1.0210    0.8108 C   0  0  0  0  0  0  0  0  0  0  0  0
   -5.2836    0.3397   -0.4764 C   0  0  0  0  0  0  0  0  0  0  0  0
   -0.8538   -0.6304    0.8820 C   0  0  0  0  0  0  0  0  0  0  0  0
   -1.6135   -1.7672   -1.2565 C   0  0  0  0  0  0  0  0  0  0  0  0
    1.3591    0.3315    0.2562 C   0  0  0  0  0  0  0  0  0  0  0  0
    1.1221   -2.0762    0.5883 C   0  0  0  0  0  0  0  0  0  0  0  0
    2.5444   -2.1551    0.0496 C   0  0  0  0  0  0  0  0  0  0  0  0
    2.7414    0.1756    0.1167 C   0  0  0  0  0  0  0  0  0  0  0  0
    0.8176    1.6204    0.1310 C   0  0  0  0  0  0  0  0  0  0  0  0
    2.5186   -2.5198   -1.4337 C   0  0  0  0  0  0  0  0  0  0  0  0
    3.5679    1.2781   -0.1238 C   0  0  0  0  0  0  0  0  0  0  0  0
    1.6413    2.7199   -0.1260 C   0  0  0  0  0  0  0  0  0  0  0  0
    3.0163    2.5495   -0.2511 C   0  0  0  0  0  0  0  0  0  0  0  0
  1 20  1  0
  2 15  1  0
  2 16  1  0
  3 14  2  0
  4  6  1  0
  4  7  1  0
  4  8  1  0
  5 11  1  0
  5 13  1  0
  5 14  1  0
  6 11  1  0
  6 12  1  0
  7  9  1  0
  8 10  1  0
  9 10  1  0
 13 16  2  0
 13 17  1  0
 14 15  1  0
 15 18  1  0
 16 19  1  0
 17 20  2  0
 19 21  2  0
 20 21  1  0
M  END
>  <PUBCHEM_COMPOUND_CID>  (1) 
42345

>  <PUBCHEM_CONFORMER_RMSD>  (1) 
0.8

>  <PUBCHEM_CONFORMER_DIVERSEORDER>  (1) 
1
12
15
10
6
8
9
14
4
13
3
5
7
11
2

>  <PUBCHEM_MMFF94_PARTIAL_CHARGES>  (1) 
20
1 -0.18
11 0.3
13 0.12
14 0.57
15 0.34
16 0.08
17 -0.15
19 -0.15
2 -0.36
20 0.18
21 -0.15
3 -0.57
37 0.15
4 -0.81
41 0.15
42 0.15
5 -0.48
6 0.27
7 0.27
8 0.27

>  <PUBCHEM_EFFECTIVE_ROTOR_COUNT>  (1) 
4.6

>  <PUBCHEM_PHARMACOPHORE_FEATURES>  (1) 
6
1 2 acceptor
1 3 acceptor
1 4 cation
5 4 7 8 9 10 rings
6 13 16 17 19 20 21 rings
6 2 5 13 14 15 16 rings

>  <PUBCHEM_HEAVY_ATOM_COUNT>  (1) 
21

>  <PUBCHEM_ATOM_DEF_STEREO_COUNT>  (1) 
0

>  <PUBCHEM_ATOM_UDEF_STEREO_COUNT>  (1) 
2

>  <PUBCHEM_BOND_DEF_STEREO_COUNT>  (1) 
0

>  <PUBCHEM_BOND_UDEF_STEREO_COUNT>  (1) 
0

>  <PUBCHEM_ISOTOPIC_ATOM_COUNT>  (1) 
0

>  <PUBCHEM_COMPONENT_COUNT>  (1) 
1

>  <PUBCHEM_CACTVS_TAUTO_COUNT>  (1) 
1

>  <PUBCHEM_CONFORMER_ID>  (1) 
0000A56900000001

>  <PUBCHEM_MMFF94_ENERGY>  (1) 
51.7324

>  <PUBCHEM_FEATURE_SELFOVERLAP>  (1) 
30.477

>  <PUBCHEM_SHAPE_FINGERPRINT>  (1) 
10366900 7 17749678389852242667
10411042 1 17976818688410117082
10906281 52 18337687377396636864
10967382 1 18409449202284557544
11471102 20 18408038502758434161
116883 192 18125162632612954388
12173636 292 17544760487258183988
12236239 1 17988922241172674467
12403260 363 17833536170080484128
12553582 1 18121215385679711251
12617007 42 18057898956448413094
12633257 1 18187913010929439466
12730499 353 18260834838650743443
13009979 54 17702673120639487227
13140716 1 18265044915522622616
13464514 151 18338524156894409998
13583140 156 18259984847801938503
14178342 30 18127388254405817850
14790565 3 18191594262128910004
15081414 286 18410581668901353820
15210252 30 17822870675310693396
17818456 19 17272018558272377593
17980427 23 17982980570878685042
1813 80 17984145863777550350
18186145 218 18408323310629759967
20645476 183 18130784616181350623
20645477 70 18412825768154798871
21033648 29 17240478075540505261
21041028 32 18046617911259894066
21120745 212 16236993153952592074
21524375 3 18045774852129154378
21641784 216 17825127921464319284
21860390 5 18413112761953384964
221357 26 18263355915787065189
22289505 5 18262507096762420061
2255824 54 18410853231246396307
22907989 373 17109609012559101180
23558518 356 17900539287248143066
23598291 2 18129668491466884689
238 59 18267296723836499815
25 1 18335702796951127616
3060560 45 18411698781531644046
350125 39 17686350063049974144
4409770 3 15390098626637234095
474 4 18336542819524035025
5939293 188 18409161143228223824
633830 44 18338517444108796771
6443956 14 18336266747532176580
7364860 26 18412825789365709188
7832392 63 18341891934818510412
8272917 22 18411985758303081269
84936 182 18057319702540894192
9971528 1 18271520897365817090
9981440 41 17619897800581130296

>  <PUBCHEM_SHAPE_MULTIPOLES>  (1) 
412.34
8.1
3.96
1.05
10.95
2.24
0.16
1.86
0.66
-4.2
0.46
0.42
-0.47
-0.47

>  <PUBCHEM_SHAPE_SELFOVERLAP>  (1) 
865.989

>  <PUBCHEM_SHAPE_VOLUME>  (1) 
234.1

>  <PUBCHEM_COORDINATE_TYPE>  (1) 
2
5
10

$$$$
