42341
     RDKit          3D

 21 22  0  0  1  0  0  0  0  0999 V2000
   -0.7256    3.0426   -0.1986 O   0  0  0  0  0  0  0  0  0  0  0  0
    2.6903    2.1891   -0.8607 O   0  0  0  0  0  0  0  0  0  0  0  0
   -4.3999   -1.9925    0.3309 O   0  0  0  0  0  0  0  0  0  0  0  0
   -2.4782   -2.9901   -0.0310 O   0  0  0  0  0  0  0  0  0  0  0  0
    0.8950    0.7361   -0.5649 N   0  0  0  0  0  0  0  0  0  0  0  0
    2.9182   -2.3832   -0.1186 N   0  0  0  0  0  0  0  0  0  0  0  0
   -3.1656   -1.9502    0.1104 N   0  0  0  0  0  0  0  0  0  0  0  0
    2.1918   -1.1883    0.3138 C   0  0  0  0  0  0  0  0  0  0  0  0
    1.6608   -0.4533   -0.9192 C   0  0  0  0  0  0  0  0  0  0  0  0
   -0.4963    0.6243   -0.2870 C   0  0  0  0  0  0  0  0  0  0  0  0
    0.6690    3.1086    0.0274 C   0  0  0  0  0  0  0  0  0  0  0  0
    1.5197    1.9792   -0.5385 C   0  0  0  0  0  0  0  0  0  0  0  0
    3.1297   -0.3143    1.1456 C   0  0  0  0  0  0  0  0  0  0  0  0
   -1.2556    1.7860   -0.1192 C   0  0  0  0  0  0  0  0  0  0  0  0
   -1.1501   -0.6157   -0.2149 C   0  0  0  0  0  0  0  0  0  0  0  0
    0.9413    3.2662    1.5224 C   0  0  0  0  0  0  0  0  0  0  0  0
    2.0505   -3.2456   -0.9190 C   0  0  0  0  0  0  0  0  0  0  0  0
    3.4373   -3.1110    1.0382 C   0  0  0  0  0  0  0  0  0  0  0  0
   -2.6358    1.7171    0.0962 C   0  0  0  0  0  0  0  0  0  0  0  0
   -2.5266   -0.6854    0.0170 C   0  0  0  0  0  0  0  0  0  0  0  0
   -3.2699    0.4805    0.1697 C   0  0  0  0  0  0  0  0  0  0  0  0
  1 11  1  0
  1 14  1  0
  2 12  2  0
  3  7  1  0
  4  7  2  0
  5  9  1  0
  5 10  1  0
  5 12  1  0
  6  8  1  0
  6 17  1  0
  6 18  1  0
  7 20  1  0
  8  9  1  0
  8 13  1  0
 10 14  2  0
 10 15  1  0
 11 12  1  0
 11 16  1  0
 14 19  1  0
 15 20  2  0
 19 21  2  0
 20 21  1  0
M  CHG  2   3  -1   7   1
M  END
>  <PUBCHEM_COMPOUND_CID>  (1) 
42341

>  <PUBCHEM_CONFORMER_RMSD>  (1) 
0.8

>  <PUBCHEM_CONFORMER_DIVERSEORDER>  (1) 
2
9
5
8
10
3
4
6
1
7

>  <PUBCHEM_MMFF94_PARTIAL_CHARGES>  (1) 
22
1 -0.36
10 0.12
11 0.34
12 0.57
14 0.08
15 -0.15
17 0.27
18 0.27
19 -0.15
2 -0.57
20 0.13
21 -0.15
29 0.15
3 -0.52
39 0.15
4 -0.52
40 0.15
5 -0.48
6 -0.81
7 0.91
8 0.27
9 0.3

>  <PUBCHEM_EFFECTIVE_ROTOR_COUNT>  (1) 
4.6

>  <PUBCHEM_PHARMACOPHORE_FEATURES>  (1) 
8
1 1 acceptor
1 2 acceptor
1 3 acceptor
1 3 anion
1 4 acceptor
1 6 cation
6 1 5 10 11 12 14 rings
6 10 14 15 19 20 21 rings

>  <PUBCHEM_HEAVY_ATOM_COUNT>  (1) 
21

>  <PUBCHEM_ATOM_DEF_STEREO_COUNT>  (1) 
0

>  <PUBCHEM_ATOM_UDEF_STEREO_COUNT>  (1) 
2

>  <PUBCHEM_BOND_DEF_STEREO_COUNT>  (1) 
0

>  <PUBCHEM_BOND_UDEF_STEREO_COUNT>  (1) 
0

>  <PUBCHEM_ISOTOPIC_ATOM_COUNT>  (1) 
0

>  <PUBCHEM_COMPONENT_COUNT>  (1) 
1

>  <PUBCHEM_CACTVS_TAUTO_COUNT>  (1) 
1

>  <PUBCHEM_CONFORMER_ID>  (1) 
0000A56500000002

>  <PUBCHEM_MMFF94_ENERGY>  (1) 
68.7734

>  <PUBCHEM_FEATURE_SELFOVERLAP>  (1) 
40.71

>  <PUBCHEM_SHAPE_FINGERPRINT>  (1) 
10967382 1 18194406821092312975
1100329 8 18266180518140427249
11578080 2 17458612381427963684
12553582 1 18338808818341735167
12633257 1 17697027046974107066
12839892 36 18265879440927657744
13083527 12 18124290951656890007
13140716 1 18268430144167618459
14081887 123 18050831240118394458
14178342 30 18338226077421288762
14223421 5 18265894842500870309
14251705 54 18410292527397191042
14790565 3 17832999612491074757
14863182 85 17612882903832484359
15042514 8 18048882892528846291
16945 1 18265059028743134509
17134984 74 17334473396091065479
17804303 29 17909549454709978526
19591789 44 17690003752979062582
20510252 161 17622156871858479296
20559304 39 18338801224770522645
20600515 1 18124313809567908508
20645477 70 18263075690640653551
20905425 154 18340214067269133636
21421861 104 18262810669366597369
21452121 199 18409157805780282490
21501502 16 18409453617516322925
21650355 55 18122053209270891848
2255824 54 17975702997492428213
23184049 29 18409449154770638607
2334 1 18411142471586859493
23402539 116 17764853711425275493
23419403 2 17682354300313432828
23557571 272 17983014449770769198
23559900 14 18195801874178826606
257057 1 18410006611445096509
2748010 2 17185607810390714109
3084891 72 17762895468531595397
33824 294 17834678571294025399
43471831 8 18193275423532704124
58807428 26 17622149587441198617
7097593 13 18411705387217491619
7364860 26 18339927137588627862
81228 2 17907298749980948456
9709674 26 17838610063982116470

>  <PUBCHEM_SHAPE_MULTIPOLES>  (1) 
393.75
6.02
4.73
0.99
1.19
0.4
0.16
-5.74
1.14
-0.53
0.43
0.7
0.29
0

>  <PUBCHEM_SHAPE_SELFOVERLAP>  (1) 
827.27

>  <PUBCHEM_SHAPE_VOLUME>  (1) 
223.4

>  <PUBCHEM_COORDINATE_TYPE>  (1) 
2
5
10

$$$$
