42349
     RDKit          3D

 22 24  0  0  1  0  0  0  0  0999 V2000
   -1.1083    4.2880    0.3847 Cl  0  0  0  0  0  0  0  0  0  0  0  0
   -3.6529   -0.9564   -0.2852 O   0  0  0  0  0  0  0  0  0  0  0  0
   -0.8571   -3.0881   -0.9755 O   0  0  0  0  0  0  0  0  0  0  0  0
    2.8540   -0.4498    0.0212 N   0  0  0  0  0  0  0  0  0  0  0  0
   -0.8277   -0.7976   -0.5586 N   0  0  0  0  0  0  0  0  0  0  0  0
    1.4496   -0.5909    0.4048 C   0  0  0  0  0  0  0  0  0  0  0  0
    3.7074   -0.3703    1.2150 C   0  0  0  0  0  0  0  0  0  0  0  0
    3.0355    0.7265   -0.8409 C   0  0  0  0  0  0  0  0  0  0  0  0
    5.1849   -0.2719    0.8317 C   0  0  0  0  0  0  0  0  0  0  0  0
    4.4909    0.8609   -1.2914 C   0  0  0  0  0  0  0  0  0  0  0  0
    5.4388    0.9090   -0.0983 C   0  0  0  0  0  0  0  0  0  0  0  0
    0.5914   -0.6525   -0.8610 C   0  0  0  0  0  0  0  0  0  0  0  0
    1.2966   -1.8438    1.2664 C   0  0  0  0  0  0  0  0  0  0  0  0
   -1.6051    0.3526   -0.2453 C   0  0  0  0  0  0  0  0  0  0  0  0
   -1.4226   -2.0541   -0.6161 C   0  0  0  0  0  0  0  0  0  0  0  0
   -2.8530   -2.1072   -0.0958 C   0  0  0  0  0  0  0  0  0  0  0  0
   -2.9923    0.2285   -0.1251 C   0  0  0  0  0  0  0  0  0  0  0  0
   -1.0338    1.6256   -0.0915 C   0  0  0  0  0  0  0  0  0  0  0  0
   -2.8545   -2.4975    1.3811 C   0  0  0  0  0  0  0  0  0  0  0  0
   -3.7945    1.3467    0.1245 C   0  0  0  0  0  0  0  0  0  0  0  0
   -1.8336    2.7404    0.1746 C   0  0  0  0  0  0  0  0  0  0  0  0
   -3.2138    2.6019    0.2804 C   0  0  0  0  0  0  0  0  0  0  0  0
  1 21  1  0
  2 16  1  0
  2 17  1  0
  3 15  2  0
  4  6  1  0
  4  7  1  0
  4  8  1  0
  5 12  1  0
  5 14  1  0
  5 15  1  0
  6 12  1  0
  6 13  1  0
  7  9  1  0
  8 10  1  0
  9 11  1  0
 10 11  1  0
 14 17  2  0
 14 18  1  0
 15 16  1  0
 16 19  1  0
 17 20  1  0
 18 21  2  0
 20 22  2  0
 21 22  1  0
M  END
>  <PUBCHEM_COMPOUND_CID>  (1) 
42349

>  <PUBCHEM_CONFORMER_RMSD>  (1) 
0.8

>  <PUBCHEM_CONFORMER_DIVERSEORDER>  (1) 
1
17
21
9
7
18
5
19
16
14
8
6
15
20
4
10
12
3
13
2
11

>  <PUBCHEM_MMFF94_PARTIAL_CHARGES>  (1) 
20
1 -0.18
12 0.3
14 0.12
15 0.57
16 0.34
17 0.08
18 -0.15
2 -0.36
20 -0.15
21 0.18
22 -0.15
3 -0.57
4 -0.81
40 0.15
44 0.15
45 0.15
5 -0.48
6 0.27
7 0.27
8 0.27

>  <PUBCHEM_EFFECTIVE_ROTOR_COUNT>  (1) 
4.8

>  <PUBCHEM_PHARMACOPHORE_FEATURES>  (1) 
6
1 2 acceptor
1 3 acceptor
1 4 cation
6 14 17 18 20 21 22 rings
6 2 5 14 15 16 17 rings
6 4 7 8 9 10 11 rings

>  <PUBCHEM_HEAVY_ATOM_COUNT>  (1) 
22

>  <PUBCHEM_ATOM_DEF_STEREO_COUNT>  (1) 
0

>  <PUBCHEM_ATOM_UDEF_STEREO_COUNT>  (1) 
2

>  <PUBCHEM_BOND_DEF_STEREO_COUNT>  (1) 
0

>  <PUBCHEM_BOND_UDEF_STEREO_COUNT>  (1) 
0

>  <PUBCHEM_ISOTOPIC_ATOM_COUNT>  (1) 
0

>  <PUBCHEM_COMPONENT_COUNT>  (1) 
1

>  <PUBCHEM_CACTVS_TAUTO_COUNT>  (1) 
1

>  <PUBCHEM_CONFORMER_ID>  (1) 
0000A56D00000001

>  <PUBCHEM_MMFF94_ENERGY>  (1) 
51.985

>  <PUBCHEM_FEATURE_SELFOVERLAP>  (1) 
30.477

>  <PUBCHEM_SHAPE_FINGERPRINT>  (1) 
10319926 262 18199449049149001522
10369192 42 15908245178007652168
10411042 1 17980196710406185975
10498660 4 18340767052803560412
10616163 171 18409731759466497594
10670039 82 18410301289858319772
10906281 52 18339655456029032149
1100329 8 18337676442135691993
12107183 9 17831006928607407634
12173636 292 18269549442683574437
12236239 1 18040431113833202718
12390115 104 17986968366240116625
12553582 1 18195805399725205583
12788726 201 18191040077991645214
13140716 1 18338238275070744313
13583140 156 17023185964202805773
13965767 371 17539417526610009572
14081887 123 18341320133085536088
14420673 8 18049440349689224514
14739800 52 18194671795723363032
14787075 74 17680156458074095627
14790565 3 18125729980809046761
1741750 31 18341894026610040768
17818456 19 18266732494642097146
20510252 161 18272370815643607665
20715895 44 17396688792869787805
21033650 10 18266485182093838668
2297311 6 18341344386971448566
23402539 116 18200865266642496103
23557571 272 18201169805530094244
23558518 356 18120652423094439691
23559900 14 18200318693784639198
23598288 3 18336546109358662231
3633792 109 17751617898220059303
38570 142 17460628938115858100
469060 322 18267323069287207235
474 4 17749112184234405020
5104073 3 18261104189187784200
7064713 232 18338513015697172084
7097593 13 17971178232519411426
7808743 9 18340768152705623848
9981440 41 18339360752062693051

>  <PUBCHEM_SHAPE_MULTIPOLES>  (1) 
432.92
9.2
3.85
1.11
12.4
2.29
0.1
1.79
0.6
-4.65
0.52
0.64
-0.43
-0.74

>  <PUBCHEM_SHAPE_SELFOVERLAP>  (1) 
903.566

>  <PUBCHEM_SHAPE_VOLUME>  (1) 
245.6

>  <PUBCHEM_COORDINATE_TYPE>  (1) 
2
5
10

$$$$
