42352
     RDKit          3D

 20 22  0  0  1  0  0  0  0  0999 V2000
   -1.6913   -1.6012    0.8777 O   0  0  0  0  0  0  0  0  0  0  0  0
    4.9889   -0.1931    0.4269 N   0  0  0  0  0  0  0  0  0  0  0  0
   -1.1330    0.4907    0.0475 N   0  0  0  0  0  0  0  0  0  0  0  0
    2.4366   -0.3724   -1.0117 C   0  0  0  0  0  0  0  0  0  0  0  0
    3.0744    0.9866   -0.6605 C   0  0  0  0  0  0  0  0  0  0  0  0
    0.9045   -0.2819   -1.0565 C   0  0  0  0  0  0  0  0  0  0  0  0
    2.4567    1.6025    0.6075 C   0  0  0  0  0  0  0  0  0  0  0  0
    0.2967    0.3540    0.1965 C   0  0  0  0  0  0  0  0  0  0  0  0
    2.9242   -1.4702   -0.0529 C   0  0  0  0  0  0  0  0  0  0  0  0
    4.6029    0.8467   -0.5377 C   0  0  0  0  0  0  0  0  0  0  0  0
    0.9380    1.7087    0.4986 C   0  0  0  0  0  0  0  0  0  0  0  0
    4.4517   -1.5013    0.0303 C   0  0  0  0  0  0  0  0  0  0  0  0
    6.4443   -0.2563    0.5571 C   0  0  0  0  0  0  0  0  0  0  0  0
   -2.0168   -0.5145    0.4066 C   0  0  0  0  0  0  0  0  0  0  0  0
   -3.4547   -0.2292    0.1662 C   0  0  0  0  0  0  0  0  0  0  0  0
   -4.3162   -1.2848   -0.0491 C   0  0  0  0  0  0  0  0  0  0  0  0
   -3.8827    1.0823    0.1666 C   0  0  0  0  0  0  0  0  0  0  0  0
   -5.6664   -1.0170   -0.2746 C   0  0  0  0  0  0  0  0  0  0  0  0
   -5.2330    1.3499   -0.0588 C   0  0  0  0  0  0  0  0  0  0  0  0
   -6.1248    0.3002   -0.2794 C   0  0  0  0  0  0  0  0  0  0  0  0
  1 14  2  0
  2 10  1  0
  2 12  1  0
  2 13  1  0
  3  8  1  0
  3 14  1  0
  4  5  1  0
  4  6  1  0
  4  9  1  0
  5  7  1  0
  5 10  1  0
  6  8  1  0
  7 11  1  0
  8 11  1  0
  9 12  1  0
 14 15  1  0
 15 16  2  0
 15 17  1  0
 16 18  1  0
 17 19  2  0
 18 20  2  0
 19 20  1  0
M  END
>  <PUBCHEM_COMPOUND_CID>  (1) 
42352

>  <PUBCHEM_CONFORMER_RMSD>  (1) 
0.6

>  <PUBCHEM_CONFORMER_DIVERSEORDER>  (1) 
1
7
24
3
27
19
15
25
2
12
22
17
14
18
16
13
11
26
20
23
9
21
10
4
6
5
8

>  <PUBCHEM_MMFF94_PARTIAL_CHARGES>  (1) 
20
1 -0.57
10 0.27
12 0.27
13 0.27
14 0.54
15 0.09
16 -0.15
17 -0.15
18 -0.15
19 -0.15
2 -0.81
20 -0.15
3 -0.73
36 0.37
40 0.15
41 0.15
42 0.15
43 0.15
44 0.15
8 0.3

>  <PUBCHEM_EFFECTIVE_ROTOR_COUNT>  (1) 
4.6

>  <PUBCHEM_PHARMACOPHORE_FEATURES>  (1) 
6
1 1 acceptor
1 2 cation
1 3 donor
6 15 16 17 18 19 20 rings
6 2 4 5 9 10 12 rings
6 4 5 6 7 8 11 rings

>  <PUBCHEM_HEAVY_ATOM_COUNT>  (1) 
20

>  <PUBCHEM_ATOM_DEF_STEREO_COUNT>  (1) 
2

>  <PUBCHEM_ATOM_UDEF_STEREO_COUNT>  (1) 
1

>  <PUBCHEM_BOND_DEF_STEREO_COUNT>  (1) 
0

>  <PUBCHEM_BOND_UDEF_STEREO_COUNT>  (1) 
0

>  <PUBCHEM_ISOTOPIC_ATOM_COUNT>  (1) 
0

>  <PUBCHEM_COMPONENT_COUNT>  (1) 
1

>  <PUBCHEM_CACTVS_TAUTO_COUNT>  (1) 
2

>  <PUBCHEM_CONFORMER_ID>  (1) 
0000A57000000001

>  <PUBCHEM_MMFF94_ENERGY>  (1) 
42.0254

>  <PUBCHEM_FEATURE_SELFOVERLAP>  (1) 
30.504

>  <PUBCHEM_SHAPE_FINGERPRINT>  (1) 
10366900 7 13830130585348682351
10595046 47 18410576214650973565
106641 1 17346590916034092394
11315181 36 18202286917944496137
11796584 16 17967535687956681098
12236239 1 16660364796537144565
12507557 5 18060701701913581393
12516196 113 18060136535472159792
12815109 37 18342457032398108354
13073987 5 18341054021491309513
13167823 11 18411980278183631687
13533116 47 18339922611242224514
13668630 136 16917354761941523181
14251764 18 18335421283061261469
14573314 32 18335138700420922925
15183329 4 18335421248975920633
15196674 1 18410577283987099287
15788980 27 18260552229422676329
17349148 13 17203898465486029323
17834072 33 18342175591796836925
17844677 252 18411144666695365017
17857418 61 18412823586226931823
18222031 100 17704081685492536828
19489759 90 18410855460671552297
19784866 140 14201389457190919184
200 152 17489871535960883889
20369508 70 18131350838620334880
20511986 3 18339066147006850826
20645477 70 18342181037831537094
21267235 1 18341621416245368907
21279426 13 18192992617036633997
21315763 129 18413107273075227453
22224240 67 16773788208983468262
23035841 295 10879993558010056085
23402539 116 18408601461760921125
23536379 177 18260547809885608441
23559900 14 18340200886199047017
26918003 58 18335140899444093994
3004659 81 18259988158962819106
3411729 13 17915166031147073896
347723 3 14779546781853543352
34797466 226 15841554102086462592
351380 180 18413108364122962589
3545911 37 18411420627039179273
4072396 5 18272365357051274238
4073 2 17968663825166834570
4214541 1 18411419510210571261
465052 167 18202286905259989318
5104073 3 18343025518859689697
5283173 99 18339359661109623897
542803 24 17822013124754197693
59755656 520 17313101969543042099
67856867 119 18270960257899475401
7495541 125 18342176704072411025
9971528 1 17821730554392307780

>  <PUBCHEM_SHAPE_MULTIPOLES>  (1) 
395.76
15.31
1.65
0.86
4.99
0.06
0.08
-1.35
-0.16
-0.07
-0.18
-0.39
-0.01
-0.01

>  <PUBCHEM_SHAPE_SELFOVERLAP>  (1) 
831.671

>  <PUBCHEM_SHAPE_VOLUME>  (1) 
219.5

>  <PUBCHEM_COORDINATE_TYPE>  (1) 
2
5
10

$$$$
