42355
     RDKit          3D

 21 23  0  0  1  0  0  0  0  0999 V2000
   -7.4338    0.5015   -0.4311 Cl  0  0  0  0  0  0  0  0  0  0  0  0
   -1.2859   -1.6656    0.8902 O   0  0  0  0  0  0  0  0  0  0  0  0
    5.3676   -0.1530    0.3864 N   0  0  0  0  0  0  0  0  0  0  0  0
   -0.7675    0.4483    0.0904 N   0  0  0  0  0  0  0  0  0  0  0  0
    2.8013   -0.3443   -1.0253 C   0  0  0  0  0  0  0  0  0  0  0  0
    3.4236    1.0175   -0.6577 C   0  0  0  0  0  0  0  0  0  0  0  0
    1.2676   -0.2753   -1.0506 C   0  0  0  0  0  0  0  0  0  0  0  0
    2.8123    1.6022    0.6281 C   0  0  0  0  0  0  0  0  0  0  0  0
    0.6657    0.3297    0.2204 C   0  0  0  0  0  0  0  0  0  0  0  0
    3.3158   -1.4515   -0.0917 C   0  0  0  0  0  0  0  0  0  0  0  0
    4.9554    0.8976   -0.5551 C   0  0  0  0  0  0  0  0  0  0  0  0
    1.2911    1.6882    0.5387 C   0  0  0  0  0  0  0  0  0  0  0  0
    4.8445   -1.4618   -0.0268 C   0  0  0  0  0  0  0  0  0  0  0  0
    6.8253   -0.1973    0.4986 C   0  0  0  0  0  0  0  0  0  0  0  0
   -1.6325   -0.5758    0.4421 C   0  0  0  0  0  0  0  0  0  0  0  0
   -3.0771   -0.3072    0.2235 C   0  0  0  0  0  0  0  0  0  0  0  0
   -3.9259   -1.3714    0.0009 C   0  0  0  0  0  0  0  0  0  0  0  0
   -3.5240    0.9976    0.2519 C   0  0  0  0  0  0  0  0  0  0  0  0
   -5.2826   -1.1196   -0.2027 C   0  0  0  0  0  0  0  0  0  0  0  0
   -4.8808    1.2495    0.0484 C   0  0  0  0  0  0  0  0  0  0  0  0
   -5.7602    0.1909   -0.1789 C   0  0  0  0  0  0  0  0  0  0  0  0
  1 21  1  0
  2 15  2  0
  3 11  1  0
  3 13  1  0
  3 14  1  0
  4  9  1  0
  4 15  1  0
  5  6  1  0
  5  7  1  0
  5 10  1  0
  6  8  1  0
  6 11  1  0
  7  9  1  0
  8 12  1  0
  9 12  1  0
 10 13  1  0
 15 16  1  0
 16 17  2  0
 16 18  1  0
 17 19  1  0
 18 20  2  0
 19 21  2  0
 20 21  1  0
M  END
>  <PUBCHEM_COMPOUND_CID>  (1) 
42355

>  <PUBCHEM_CONFORMER_RMSD>  (1) 
0.8

>  <PUBCHEM_CONFORMER_DIVERSEORDER>  (1) 
1
16
5
11
12
13
14
15
2
9
3
8
7
6
10
4

>  <PUBCHEM_MMFF94_PARTIAL_CHARGES>  (1) 
20
1 -0.18
11 0.27
13 0.27
14 0.27
15 0.54
16 0.09
17 -0.15
18 -0.15
19 -0.15
2 -0.57
20 -0.15
21 0.18
3 -0.81
37 0.37
4 -0.73
41 0.15
42 0.15
43 0.15
44 0.15
9 0.3

>  <PUBCHEM_EFFECTIVE_ROTOR_COUNT>  (1) 
4.6

>  <PUBCHEM_PHARMACOPHORE_FEATURES>  (1) 
6
1 2 acceptor
1 3 cation
1 4 donor
6 16 17 18 19 20 21 rings
6 3 5 6 10 11 13 rings
6 5 6 7 8 9 12 rings

>  <PUBCHEM_HEAVY_ATOM_COUNT>  (1) 
21

>  <PUBCHEM_ATOM_DEF_STEREO_COUNT>  (1) 
2

>  <PUBCHEM_ATOM_UDEF_STEREO_COUNT>  (1) 
1

>  <PUBCHEM_BOND_DEF_STEREO_COUNT>  (1) 
0

>  <PUBCHEM_BOND_UDEF_STEREO_COUNT>  (1) 
0

>  <PUBCHEM_ISOTOPIC_ATOM_COUNT>  (1) 
0

>  <PUBCHEM_COMPONENT_COUNT>  (1) 
1

>  <PUBCHEM_CACTVS_TAUTO_COUNT>  (1) 
2

>  <PUBCHEM_CONFORMER_ID>  (1) 
0000A57300000001

>  <PUBCHEM_MMFF94_ENERGY>  (1) 
42.8073

>  <PUBCHEM_FEATURE_SELFOVERLAP>  (1) 
30.504

>  <PUBCHEM_SHAPE_FINGERPRINT>  (1) 
10 15 17917981807626881712
10366900 7 13830131685102961686
106641 1 17203601615096189314
10670039 82 17822565020032070365
11315181 36 18131635603847657137
11719270 70 17988923349374782390
11796584 16 18040438815142393386
12107183 9 17690564082928431387
12166972 35 18041001773696448061
12236239 1 16877946065883460541
12516196 113 17846779602647692328
12596602 18 15792024414828069237
13073987 5 18270685264238904505
13533116 47 18341612569109053250
13668630 136 16558755637264569013
14123256 10 10735873980488101530
1420 363 11600004358092276877
14251752 14 18113896035752682245
14251764 18 18410012139009919141
15183329 4 18410015420512775865
15788980 27 18333735727477823883
17349148 13 17060347326648434235
17834072 33 18342739641045627655
17844677 252 18340212976737927777
17857418 61 18341891896295874783
18222031 100 17418103113470570116
19489759 90 18411138039328251017
200 152 17346883342903023137
20281389 69 17894347787222516317
20369508 70 18060137669697142280
20511986 3 18339348730269792102
20645477 70 18343308037397720054
21279426 13 18193275195756675173
221357 26 18342736308795129809
22224240 67 16558742426293416686
23035841 295 10807933760748857349
23402539 116 18409164420146008437
23536379 177 18334858307564805273
23559900 14 18341045311197685825
26918003 58 18272653462782211299
29717793 49 18273218581762734622
300161 21 18411135848520507055
3004659 81 18260832583929880846
3411729 13 17986942145992425688
347723 3 15140679181331559832
34797466 226 15482672398895098224
351380 180 18413389843262758743
3545911 37 18410293623299348321
4072396 5 18272929410900987406
4073 2 18041002898592530458
4214541 1 18411983563838673361
5104073 3 18343026622460517489
5283173 99 18339641144491646353
542803 24 17822013128970011189
5486654 2 12391508693761868189
59682541 35 13254784759648244118
59755656 215 18114178601841054987
59755656 520 17385721422549517979
67856867 119 18201153372684922369
7495541 125 18343021133318602824
9971528 1 17894633677325211780

>  <PUBCHEM_SHAPE_MULTIPOLES>  (1) 
418.21
17.6
1.61
0.86
8.65
0.02
-0.08
0.23
-0.84
-0.33
0.19
-0.37
0
0.09

>  <PUBCHEM_SHAPE_SELFOVERLAP>  (1) 
870.646

>  <PUBCHEM_SHAPE_VOLUME>  (1) 
237.3

>  <PUBCHEM_COORDINATE_TYPE>  (1) 
2
5
10

$$$$
