42361
     RDKit          3D

 22 24  0  0  1  0  0  0  0  0999 V2000
    3.7596    1.4339    2.5200 Cl  0  0  0  0  0  0  0  0  0  0  0  0
    5.0664    2.6625   -0.1738 Cl  0  0  0  0  0  0  0  0  0  0  0  0
    0.3227   -1.8445    0.5584 O   0  0  0  0  0  0  0  0  0  0  0  0
    1.2540   -2.7335   -1.3498 O   0  0  0  0  0  0  0  0  0  0  0  0
   -4.1269    1.7896   -0.1922 N   0  0  0  0  0  0  0  0  0  0  0  0
   -2.0451   -0.2358   -0.5609 C   0  0  0  0  0  0  0  0  0  0  0  0
   -2.9910   -0.2428    0.6523 C   0  0  0  0  0  0  0  0  0  0  0  0
   -1.5961   -1.6611   -0.9120 C   0  0  0  0  0  0  0  0  0  0  0  0
   -2.3101   -0.8942    1.8617 C   0  0  0  0  0  0  0  0  0  0  0  0
   -2.7363    0.4482   -1.7449 C   0  0  0  0  0  0  0  0  0  0  0  0
   -3.4610    1.1852    0.9721 C   0  0  0  0  0  0  0  0  0  0  0  0
   -0.9683   -2.3846    0.2830 C   0  0  0  0  0  0  0  0  0  0  0  0
   -1.8433   -2.3151    1.5365 C   0  0  0  0  0  0  0  0  0  0  0  0
   -3.2314    1.8437   -1.3558 C   0  0  0  0  0  0  0  0  0  0  0  0
   -4.6204    3.1264    0.1369 C   0  0  0  0  0  0  0  0  0  0  0  0
    1.2150   -1.8922   -0.4655 C   0  0  0  0  0  0  0  0  0  0  0  0
    2.1709   -0.7595   -0.3762 C   0  0  0  0  0  0  0  0  0  0  0  0
    2.4871   -0.2495    0.8665 C   0  0  0  0  0  0  0  0  0  0  0  0
    2.7130   -0.2513   -1.5391 C   0  0  0  0  0  0  0  0  0  0  0  0
    3.3845    0.8151    0.9498 C   0  0  0  0  0  0  0  0  0  0  0  0
    3.6104    0.8132   -1.4558 C   0  0  0  0  0  0  0  0  0  0  0  0
    3.9463    1.3464   -0.2113 C   0  0  0  0  0  0  0  0  0  0  0  0
  1 20  1  0
  2 22  1  0
  3 12  1  0
  3 16  1  0
  4 16  2  0
  5 11  1  0
  5 14  1  0
  5 15  1  0
  6  7  1  0
  6  8  1  0
  6 10  1  0
  7  9  1  0
  7 11  1  0
  8 12  1  0
  9 13  1  0
 10 14  1  0
 12 13  1  0
 16 17  1  0
 17 18  2  0
 17 19  1  0
 18 20  1  0
 19 21  2  0
 20 22  2  0
 21 22  1  0
M  END
>  <PUBCHEM_COMPOUND_CID>  (1) 
42361

>  <PUBCHEM_CONFORMER_RMSD>  (1) 
0.8

>  <PUBCHEM_CONFORMER_DIVERSEORDER>  (1) 
2
68
40
111
55
127
67
84
65
19
129
124
18
97
24
61
47
105
79
3
52
63
123
32
78
96
93
38
21
106
72
17
94
98
35
62
22
56
1
114
12
88
110
30
74
28
69
82
85
13
44
64
4
15
49
107
104
23
71
11
20
86
76
87
45
113
91
29
60
122
36
118
83
100
89
10
7
31
112
92
108
130
34
33
5
41
90
131
46
66
48
14
77
73
39
51
128
80
8
121
53
99
117
6
50
81
101
16
125
57
27
25
70
37
95
115
54
116
103
26
58
9
75
109
120
42
59
119
126
102
43

>  <PUBCHEM_MMFF94_PARTIAL_CHARGES>  (1) 
19
1 -0.18
11 0.27
12 0.28
14 0.27
15 0.27
16 0.63
17 0.09
18 -0.15
19 -0.15
2 -0.18
20 0.18
21 -0.15
22 0.18
3 -0.43
4 -0.57
41 0.15
42 0.15
43 0.15
5 -0.81

>  <PUBCHEM_EFFECTIVE_ROTOR_COUNT>  (1) 
4.6

>  <PUBCHEM_PHARMACOPHORE_FEATURES>  (1) 
5
1 4 acceptor
1 5 cation
6 17 18 19 20 21 22 rings
6 5 6 7 10 11 14 rings
6 6 7 8 9 12 13 rings

>  <PUBCHEM_HEAVY_ATOM_COUNT>  (1) 
22

>  <PUBCHEM_ATOM_DEF_STEREO_COUNT>  (1) 
1

>  <PUBCHEM_ATOM_UDEF_STEREO_COUNT>  (1) 
2

>  <PUBCHEM_BOND_DEF_STEREO_COUNT>  (1) 
0

>  <PUBCHEM_BOND_UDEF_STEREO_COUNT>  (1) 
0

>  <PUBCHEM_ISOTOPIC_ATOM_COUNT>  (1) 
0

>  <PUBCHEM_COMPONENT_COUNT>  (1) 
1

>  <PUBCHEM_CACTVS_TAUTO_COUNT>  (1) 
1

>  <PUBCHEM_CONFORMER_ID>  (1) 
0000A57900000002

>  <PUBCHEM_MMFF94_ENERGY>  (1) 
50.4542

>  <PUBCHEM_FEATURE_SELFOVERLAP>  (1) 
25.389

>  <PUBCHEM_SHAPE_FINGERPRINT>  (1) 
10165383 225 17982208691808840602
10498660 4 18060418023223112913
10928967 22 10087639337953999405
11221954 11 18336266756074261599
11552529 35 16372702984003613714
12633257 1 17240476992311778600
12788726 201 18044646736262631507
13134695 92 17841710708368730542
13583140 156 15357693106445553165
13965767 371 17749385936627965260
14142880 1 18260546770841139703
14251740 57 11315183520291263769
14341114 328 16661219155700388532
14347329 18 18340485673054887976
14429115 67 7853270048334346101
14468879 13 18410858754763697681
14848178 96 18340207367252228241
14957384 54 18264198279180218192
15295992 7 18043821883329382779
15342168 16 18337955584934644189
18186145 218 17560251339690099002
18981168 100 18339656576118937870
21033648 29 18271803583908641640
21304303 282 17127848587878378006
21401589 2 18334856130169750489
21427221 339 17313089865981972610
21475661 188 17901946344852710149
21864079 5 18262802994323648124
22182937 141 18335427893300890109
22956985 138 15156736826890350578
23503958 25 18266191680390917592
23559900 14 18119252765971945595
238 59 17489588935275525682
27216 239 18261678180911454531
312425 83 15554177986276992912
4463277 69 9078526215371841289
469060 322 18051132798151651851
474 4 18264487283039192453
484985 159 8429503214109209485
5252454 2 18200892758554051682
574716 61 15051459361503118024
57724786 102 18334856083109635360
633830 44 18122063105450606933
7097593 13 16588295099360458858
7808743 9 18336271253211319836
90316 7 16153430541209059751
9981440 41 18270102608817845530

>  <PUBCHEM_SHAPE_MULTIPOLES>  (1) 
439.77
9.69
3.27
1.94
3.56
0.33
0.53
9.99
0.69
-1.84
-0.03
0.64
0.04
1.23

>  <PUBCHEM_SHAPE_SELFOVERLAP>  (1) 
911.277

>  <PUBCHEM_SHAPE_VOLUME>  (1) 
252.6

>  <PUBCHEM_COORDINATE_TYPE>  (1) 
2
5
10

$$$$
