4236
     RDKit          3D

 19 20  0  0  1  0  0  0  0  0999 V2000
   -0.9501   -1.3296   -0.4483 S   0  0  0  0  0  0  0  0  0  0  0  0
   -0.6587   -2.7047    0.0393 O   0  0  0  0  0  0  0  0  0  0  0  0
   -4.0124   -1.4111   -1.2303 O   0  0  0  0  0  0  0  0  0  0  0  0
   -4.3180   -2.0980    0.9414 N   0  0  0  0  0  0  0  0  0  0  0  0
    0.2271   -0.2123    0.4418 C   0  0  0  0  0  0  0  0  0  0  0  0
   -0.0707    1.2358    0.2451 C   0  0  0  0  0  0  0  0  0  0  0  0
    1.6802   -0.5968    0.1666 C   0  0  0  0  0  0  0  0  0  0  0  0
   -2.4087   -0.7168    0.4216 C   0  0  0  0  0  0  0  0  0  0  0  0
    0.0765    2.1287    1.3065 C   0  0  0  0  0  0  0  0  0  0  0  0
    2.4159   -1.1686    1.1803 C   0  0  0  0  0  0  0  0  0  0  0  0
   -0.4967    1.6972   -1.0005 C   0  0  0  0  0  0  0  0  0  0  0  0
    2.2013   -0.3573   -1.0852 C   0  0  0  0  0  0  0  0  0  0  0  0
   -0.2023    3.4830    1.1225 C   0  0  0  0  0  0  0  0  0  0  0  0
    3.7423   -1.5194    0.9291 C   0  0  0  0  0  0  0  0  0  0  0  0
   -0.7755    3.0515   -1.1845 C   0  0  0  0  0  0  0  0  0  0  0  0
    3.5277   -0.7082   -1.3365 C   0  0  0  0  0  0  0  0  0  0  0  0
   -0.6282    3.9444   -0.1231 C   0  0  0  0  0  0  0  0  0  0  0  0
    4.2982   -1.2893   -0.3294 C   0  0  0  0  0  0  0  0  0  0  0  0
   -3.6479   -1.4286   -0.0566 C   0  0  0  0  0  0  0  0  0  0  0  0
  1  2  2  0
  1  5  1  0
  1  8  1  0
  3 19  2  0
  4 19  1  0
  5  6  1  0
  5  7  1  0
  6  9  2  0
  6 11  1  0
  7 10  2  0
  7 12  1  0
  8 19  1  0
  9 13  1  0
 10 14  1  0
 11 15  2  0
 12 16  2  0
 13 17  2  0
 14 18  2  0
 15 17  1  0
 16 18  1  0
M  END
>  <PUBCHEM_COMPOUND_CID>  (1) 
4236

>  <PUBCHEM_CONFORMER_RMSD>  (1) 
0.6

>  <PUBCHEM_CONFORMER_DIVERSEORDER>  (1) 
1
23
35
30
12
10
6
28
27
36
20
26
21
19
34
29
7
31
32
13
16
37
25
38
15
33
18
5
11
17
22
24
8
9
3
14
4
2

>  <PUBCHEM_MMFF94_PARTIAL_CHARGES>  (1) 
31
1 0.11
10 -0.15
11 -0.15
12 -0.15
13 -0.15
14 -0.15
15 -0.15
16 -0.15
17 -0.15
18 -0.15
19 0.57
2 -0.5
23 0.15
24 0.15
25 0.15
26 0.15
27 0.15
28 0.15
29 0.15
3 -0.57
30 0.15
31 0.15
32 0.15
33 0.37
34 0.37
4 -0.8
5 0.48
6 -0.14
7 -0.14
8 0.25
9 -0.15

>  <PUBCHEM_EFFECTIVE_ROTOR_COUNT>  (1) 
5

>  <PUBCHEM_PHARMACOPHORE_FEATURES>  (1) 
5
1 2 acceptor
1 3 acceptor
1 4 donor
6 6 9 11 13 15 17 rings
6 7 10 12 14 16 18 rings

>  <PUBCHEM_HEAVY_ATOM_COUNT>  (1) 
19

>  <PUBCHEM_ATOM_DEF_STEREO_COUNT>  (1) 
0

>  <PUBCHEM_ATOM_UDEF_STEREO_COUNT>  (1) 
1

>  <PUBCHEM_BOND_DEF_STEREO_COUNT>  (1) 
0

>  <PUBCHEM_BOND_UDEF_STEREO_COUNT>  (1) 
0

>  <PUBCHEM_ISOTOPIC_ATOM_COUNT>  (1) 
0

>  <PUBCHEM_COMPONENT_COUNT>  (1) 
1

>  <PUBCHEM_CACTVS_TAUTO_COUNT>  (1) 
2

>  <PUBCHEM_CONFORMER_ID>  (1) 
0000108C00000001

>  <PUBCHEM_MMFF94_ENERGY>  (1) 
49.1352

>  <PUBCHEM_FEATURE_SELFOVERLAP>  (1) 
25.371

>  <PUBCHEM_SHAPE_FINGERPRINT>  (1) 
104564 63 18337672992965587047
11578080 2 17751332123712086228
11582403 64 15362187669573022485
121448 382 17621860016456545640
12553582 1 18411140255289289235
12643181 29 17332528970039065798
12788726 201 18335423435388977362
13052359 8 18047746001695152545
13134695 92 18339917242395493405
13140716 1 18411982429804082625
13583140 156 17485331558356811930
13681431 1 18195818580900215457
14181834 199 17984413311575090711
14347329 18 16517621705153191959
16752209 62 18263355902511798718
16945 1 18122626054655266488
17357779 13 18200013097838622653
1813 80 18271817847025507207
20097449 115 18411138069229446321
20510252 161 18340484461583388386
20600515 1 18129959977770009430
20671657 1 17979082905216243823
20671657 53 18339643442504416875
21029758 27 18409737291415990891
21041028 32 18340781415812170521
21285901 2 18059307456391956055
21524375 3 17540263038409194048
21756936 100 16883626053486382102
22112679 90 18125470615880025993
22907989 373 18267870484518037380
23402539 116 18413108338216522166
23419403 2 17558799928084919289
23557571 272 18269834220822256526
23558518 356 17972325005893790834
23559900 14 17553759561622334486
2748010 2 18267843099664262549
283562 15 18336547110302294154
3091708 16 9353103972172624065
350125 39 17402907626171540451
59755656 520 17622168957991616404
6442390 28 17336205774711157121
68521 5 18338516343889988524
7164475 11 18263646169560806038
7364860 26 17910117141875021281
81228 2 18339375058376826538
9981440 41 16981199923201163802

>  <PUBCHEM_SHAPE_MULTIPOLES>  (1) 
378.14
6.38
4.22
1.32
2.2
4.24
-0.05
-6.72
-0.44
-4.24
0.38
0.26
0.32
-0.01

>  <PUBCHEM_SHAPE_SELFOVERLAP>  (1) 
788.105

>  <PUBCHEM_SHAPE_VOLUME>  (1) 
213.9

>  <PUBCHEM_COORDINATE_TYPE>  (1) 
2
5
10

$$$$
