42377
     RDKit          3D

 22 22  0  0  1  0  0  0  0  0999 V2000
   -2.6432    1.7043    0.0517 O   0  0  0  0  0  0  0  0  0  0  0  0
   -5.3400    2.0008   -0.5570 O   0  0  0  0  0  0  0  0  0  0  0  0
    5.8583   -1.7781   -1.3584 O   0  0  0  0  0  0  0  0  0  0  0  0
   -4.0229   -1.4575   -0.6794 N   0  0  0  0  0  0  0  0  0  0  0  0
    5.6493   -0.1524    0.2962 N   0  0  0  0  0  0  0  0  0  0  0  0
   -4.5905    0.9157   -1.1108 C   0  0  0  0  0  0  0  0  0  0  0  0
   -4.7846   -0.3075   -0.2116 C   0  0  0  0  0  0  0  0  0  0  0  0
   -4.1805   -2.5892    0.2242 C   0  0  0  0  0  0  0  0  0  0  0  0
   -3.1312    1.3474   -1.2378 C   0  0  0  0  0  0  0  0  0  0  0  0
    2.8550    0.8302    1.0157 C   0  0  0  0  0  0  0  0  0  0  0  0
    3.3011   -0.6387    0.8770 C   0  0  0  0  0  0  0  0  0  0  0  0
    1.4041    1.0612    0.7609 C   0  0  0  0  0  0  0  0  0  0  0  0
   -3.2793   -2.4215    1.4442 C   0  0  0  0  0  0  0  0  0  0  0  0
   -3.8605   -3.8816   -0.5200 C   0  0  0  0  0  0  0  0  0  0  0  0
    4.7789   -0.8764    1.1812 C   0  0  0  0  0  0  0  0  0  0  0  0
   -1.3107    1.4928    0.2854 C   0  0  0  0  0  0  0  0  0  0  0  0
    0.9593    1.3509   -0.5291 C   0  0  0  0  0  0  0  0  0  0  0  0
    0.4913    0.9872    1.8131 C   0  0  0  0  0  0  0  0  0  0  0  0
   -0.3980    1.5668   -0.7669 C   0  0  0  0  0  0  0  0  0  0  0  0
   -0.8660    1.2031    1.5754 C   0  0  0  0  0  0  0  0  0  0  0  0
    6.1185   -0.6665   -0.9056 C   0  0  0  0  0  0  0  0  0  0  0  0
    6.9917    0.3090   -1.6483 C   0  0  0  0  0  0  0  0  0  0  0  0
  1  9  1  0
  1 16  1  0
  2  6  1  0
  3 21  2  0
  4  7  1  0
  4  8  1  0
  5 15  1  0
  5 21  1  0
  6  7  1  0
  6  9  1  0
  8 13  1  0
  8 14  1  0
 10 11  1  0
 10 12  1  0
 11 15  1  0
 12 17  2  0
 12 18  1  0
 16 19  2  0
 16 20  1  0
 17 19  1  0
 18 20  2  0
 21 22  1  0
M  END
>  <PUBCHEM_COMPOUND_CID>  (1) 
42377

>  <PUBCHEM_CONFORMER_RMSD>  (1) 
1.2

>  <PUBCHEM_CONFORMER_DIVERSEORDER>  (1) 
1
20
55
4
46
23
53
45
49
24
8
11
29
47
27
13
17
54
44
22
39
34
38
51
12
35
21
16
36
50
28
10
52
3
25
32
37
18
2
31
42
9
15
56
43
26
7
40
14
30
6
5
48
33
41
57
19

>  <PUBCHEM_MMFF94_PARTIAL_CHARGES>  (1) 
26
1 -0.36
10 0.14
12 -0.14
15 0.3
16 0.08
17 -0.15
18 -0.15
19 -0.15
2 -0.68
20 -0.15
21 0.57
22 0.06
27 0.36
3 -0.57
4 -0.9
42 0.15
43 0.15
44 0.15
45 0.15
46 0.4
47 0.37
5 -0.73
6 0.28
7 0.27
8 0.27
9 0.28

>  <PUBCHEM_EFFECTIVE_ROTOR_COUNT>  (1) 
11

>  <PUBCHEM_PHARMACOPHORE_FEATURES>  (1) 
9
1 1 acceptor
1 2 acceptor
1 2 donor
1 3 acceptor
1 4 cation
1 4 donor
1 5 donor
3 8 13 14 hydrophobe
6 12 16 17 18 19 20 rings

>  <PUBCHEM_HEAVY_ATOM_COUNT>  (1) 
22

>  <PUBCHEM_ATOM_DEF_STEREO_COUNT>  (1) 
0

>  <PUBCHEM_ATOM_UDEF_STEREO_COUNT>  (1) 
1

>  <PUBCHEM_BOND_DEF_STEREO_COUNT>  (1) 
0

>  <PUBCHEM_BOND_UDEF_STEREO_COUNT>  (1) 
0

>  <PUBCHEM_ISOTOPIC_ATOM_COUNT>  (1) 
0

>  <PUBCHEM_COMPONENT_COUNT>  (1) 
1

>  <PUBCHEM_CACTVS_TAUTO_COUNT>  (1) 
2

>  <PUBCHEM_CONFORMER_ID>  (1) 
0000A58900000001

>  <PUBCHEM_MMFF94_ENERGY>  (1) 
37.1685

>  <PUBCHEM_FEATURE_SELFOVERLAP>  (1) 
45.675

>  <PUBCHEM_SHAPE_FINGERPRINT>  (1) 
10042902 136 18267867365981747023
11796584 16 18341040857110650618
12422481 6 13470144964193380088
12596602 18 14261052312209417647
12821665 9 17749963287759723828
12969540 114 14345791656292949560
13257819 101 12251895997375221170
13383661 66 18129114470783237746
13941219 33 17988095425766861475
14251740 79 18408319986894896203
14251751 18 18340773727393540350
14251757 5 18188777270124799530
14461889 52 18272075137900808466
15209294 21 11959734897198115841
15537594 2 17967526844597536427
16120349 21 18339367465909089883
193927 3 17775284963306565336
20621476 21 18131638893808787534
20871999 31 17749390386224432098
23379529 103 18046910656415854299
23559900 14 18341037592804325672
25122255 55 18202006525310112886
2838139 119 11314301789375029058
2916195 48 7925909283701380356
3089732 80 18202285827186729374
484985 159 18131641088690082603
7918774 8 17775294871817066814
999808 66 17060349487929672694

>  <PUBCHEM_SHAPE_MULTIPOLES>  (1) 
425.18
15.96
3.09
1.62
20.61
2.98
-0.2
7.36
7.4
-5.63
0.3
1.18
-0.07
1.09

>  <PUBCHEM_SHAPE_SELFOVERLAP>  (1) 
840.471

>  <PUBCHEM_SHAPE_VOLUME>  (1) 
253.5

>  <PUBCHEM_COORDINATE_TYPE>  (1) 
2
5
10

$$$$
