42372
     RDKit          3D

 16 16  0  0  1  0  0  0  0  0999 V2000
   -1.7892    0.8205    0.4408 O   0  0  0  0  0  0  0  0  0  0  0  0
   -1.9851   -1.4477    0.0839 O   0  0  0  0  0  0  0  0  0  0  0  0
   -4.6375   -1.2244   -0.4274 N   0  0  0  0  0  0  0  0  0  0  0  0
   -0.3961    0.6538    0.7243 C   0  0  0  0  0  0  0  0  0  0  0  0
    0.3027    0.0930   -0.5342 C   0  0  0  0  0  0  0  0  0  0  0  0
    0.1759    2.0411    1.0420 C   0  0  0  0  0  0  0  0  0  0  0  0
   -0.2497   -0.2572    1.9460 C   0  0  0  0  0  0  0  0  0  0  0  0
    1.8012   -0.0718   -0.4226 C   0  0  0  0  0  0  0  0  0  0  0  0
   -2.4701   -0.3247    0.1325 C   0  0  0  0  0  0  0  0  0  0  0  0
   -3.9215    0.0185   -0.1459 C   0  0  0  0  0  0  0  0  0  0  0  0
    2.6270    0.9785   -0.7871 C   0  0  0  0  0  0  0  0  0  0  0  0
    2.3181   -1.2695    0.0425 C   0  0  0  0  0  0  0  0  0  0  0  0
    4.0097    0.8266   -0.6839 C   0  0  0  0  0  0  0  0  0  0  0  0
    3.7009   -1.4213    0.1458 C   0  0  0  0  0  0  0  0  0  0  0  0
   -4.0328    0.9578   -1.3392 C   0  0  0  0  0  0  0  0  0  0  0  0
    4.5467   -0.3731   -0.2174 C   0  0  0  0  0  0  0  0  0  0  0  0
  1  4  1  0
  1  9  1  0
  2  9  2  0
  3 10  1  0
  4  5  1  0
  4  6  1  0
  4  7  1  0
  5  8  1  0
  8 11  2  0
  8 12  1  0
  9 10  1  0
 10 15  1  0
 11 13  1  0
 12 14  2  0
 13 16  2  0
 14 16  1  0
M  END
>  <PUBCHEM_COMPOUND_CID>  (1) 
42372

>  <PUBCHEM_CONFORMER_RMSD>  (1) 
0.6

>  <PUBCHEM_CONFORMER_DIVERSEORDER>  (1) 
1
65
35
38
3
48
68
42
13
60
15
54
30
27
77
23
82
66
36
73
50
52
18
51
21
20
12
53
46
37
29
71
6
41
9
40
64
74
55
44
5
17
19
70
78
39
22
24
25
81
57
8
16
26
43
10
61
79
31
76
34
47
59
58
11
72
14
32
28
75
67
4
69
45
62
7
49
80
2
56
33
63

>  <PUBCHEM_MMFF94_PARTIAL_CHARGES>  (1) 
20
1 -0.43
10 0.33
11 -0.15
12 -0.15
13 -0.15
14 -0.15
16 -0.15
2 -0.57
26 0.15
27 0.15
3 -0.99
31 0.15
32 0.15
33 0.15
34 0.36
35 0.36
4 0.28
5 0.14
8 -0.14
9 0.66

>  <PUBCHEM_EFFECTIVE_ROTOR_COUNT>  (1) 
5

>  <PUBCHEM_PHARMACOPHORE_FEATURES>  (1) 
5
1 2 acceptor
1 3 cation
1 3 donor
3 4 6 7 hydrophobe
6 8 11 12 13 14 16 rings

>  <PUBCHEM_HEAVY_ATOM_COUNT>  (1) 
16

>  <PUBCHEM_ATOM_DEF_STEREO_COUNT>  (1) 
0

>  <PUBCHEM_ATOM_UDEF_STEREO_COUNT>  (1) 
1

>  <PUBCHEM_BOND_DEF_STEREO_COUNT>  (1) 
0

>  <PUBCHEM_BOND_UDEF_STEREO_COUNT>  (1) 
0

>  <PUBCHEM_ISOTOPIC_ATOM_COUNT>  (1) 
0

>  <PUBCHEM_COMPONENT_COUNT>  (1) 
1

>  <PUBCHEM_CACTVS_TAUTO_COUNT>  (1) 
1

>  <PUBCHEM_CONFORMER_ID>  (1) 
0000A58400000001

>  <PUBCHEM_MMFF94_ENERGY>  (1) 
39.8931

>  <PUBCHEM_FEATURE_SELFOVERLAP>  (1) 
25.371

>  <PUBCHEM_SHAPE_FINGERPRINT>  (1) 
10922049 32 7997967994246305896
11132069 177 14764341630851938549
11543360 7 18187645842499263239
12916748 109 16660366982770456741
13549 16 18040714749257402557
13705890 14 18335420183565431945
14252887 29 14908187455785121878
14943859 89 12973607741760994532
15309172 13 10881404231291478793
15375358 24 17240490229912570844
15775835 57 12829207792947631369
17834072 14 18272363161864206152
1798214 20 18413388730855848558
1813 80 16415484864964784504
18175812 5 11672064138094478537
18186145 218 16732982024581522285
18222031 100 16630520734901764012
19010151 120 17988652890994109592
19784866 170 8790614736146650327
200 152 18412263917739112654
20279233 1 17022913350075487986
20281475 54 18131071519764451987
20645477 70 18334296427248703438
20671657 53 18059859484359470609
20871999 31 18408879651293216055
21069387 34 18187938222593428962
21119208 17 18187365419604995238
21524375 3 12901546853599351377
231179 274 13118272668708330535
23402539 116 18201157654756526449
23402655 69 18186804651785084860
23526113 38 18259707812918955667
23557571 272 17489030327787475904
23559900 14 18411697682468071378
25 1 16371004066396894881
26918003 58 18334857216880683874
276578 36 12973881507429937432
296302 2 17095533928310524604
4028521 119 17095797742202541925
4921388 177 16660934386679038467
4990 188 17167861963058450499
633830 44 16587744226533229647
69090 78 17967814959192986819
7495541 125 18270120248691199635
9709674 26 18336273361681747846

>  <PUBCHEM_SHAPE_MULTIPOLES>  (1) 
312.55
8.84
1.53
1.2
2.07
0.13
-0.39
-1.6
3.25
-0.17
-0.15
0.39
0.26
-0.12

>  <PUBCHEM_SHAPE_SELFOVERLAP>  (1) 
637.771

>  <PUBCHEM_SHAPE_VOLUME>  (1) 
180.8

>  <PUBCHEM_COORDINATE_TYPE>  (1) 
2
5
10

$$$$
