42380
     RDKit          3D

 24 25  0  0  1  0  0  0  0  0999 V2000
   -2.9653   -1.5986    2.0220 O   0  0  0  0  0  0  0  0  0  0  0  0
    2.9338   -1.6413   -0.2658 O   0  0  0  0  0  0  0  0  0  0  0  0
    5.6255   -1.7379   -0.9617 O   0  0  0  0  0  0  0  0  0  0  0  0
   -3.3230   -0.5053    0.0085 N   0  0  0  0  0  0  0  0  0  0  0  0
    4.2183    1.6415   -0.4047 N   0  0  0  0  0  0  0  0  0  0  0  0
   -4.7403   -0.2817    0.1882 C   0  0  0  0  0  0  0  0  0  0  0  0
   -5.0002    1.0283    0.9396 C   0  0  0  0  0  0  0  0  0  0  0  0
   -5.4768   -0.3068   -1.1554 C   0  0  0  0  0  0  0  0  0  0  0  0
   -4.7069    2.2612    0.0849 C   0  0  0  0  0  0  0  0  0  0  0  0
   -5.1826    0.9283   -2.0068 C   0  0  0  0  0  0  0  0  0  0  0  0
   -5.4594    2.2187   -1.2416 C   0  0  0  0  0  0  0  0  0  0  0  0
   -2.5469   -1.1545    0.9560 C   0  0  0  0  0  0  0  0  0  0  0  0
   -1.1022   -1.2817    0.6338 C   0  0  0  0  0  0  0  0  0  0  0  0
    4.8375   -0.5894   -1.2879 C   0  0  0  0  0  0  0  0  0  0  0  0
    5.0184    0.4460   -0.1754 C   0  0  0  0  0  0  0  0  0  0  0  0
    4.3651    2.5851    0.6951 C   0  0  0  0  0  0  0  0  0  0  0  0
   -0.1644   -1.3785    1.6619 C   0  0  0  0  0  0  0  0  0  0  0  0
   -0.6835   -1.3051   -0.6966 C   0  0  0  0  0  0  0  0  0  0  0  0
    3.3875   -1.0312   -1.4732 C   0  0  0  0  0  0  0  0  0  0  0  0
    1.6106   -1.5220    0.0293 C   0  0  0  0  0  0  0  0  0  0  0  0
    1.1919   -1.4987    1.3597 C   0  0  0  0  0  0  0  0  0  0  0  0
    0.6728   -1.4252   -0.9988 C   0  0  0  0  0  0  0  0  0  0  0  0
    3.9973    3.9855    0.2150 C   0  0  0  0  0  0  0  0  0  0  0  0
    3.4929    2.1632    1.8742 C   0  0  0  0  0  0  0  0  0  0  0  0
  1 12  2  0
  2 19  1  0
  2 20  1  0
  3 14  1  0
  4  6  1  0
  4 12  1  0
  5 15  1  0
  5 16  1  0
  6  7  1  0
  6  8  1  0
  7  9  1  0
  8 10  1  0
  9 11  1  0
 10 11  1  0
 12 13  1  0
 13 17  2  0
 13 18  1  0
 14 15  1  0
 14 19  1  0
 16 23  1  0
 16 24  1  0
 17 21  1  0
 18 22  2  0
 20 21  2  0
 20 22  1  0
M  END
>  <PUBCHEM_COMPOUND_CID>  (1) 
42380

>  <PUBCHEM_CONFORMER_RMSD>  (1) 
1

>  <PUBCHEM_CONFORMER_DIVERSEORDER>  (1) 
1
16
35
18
25
23
45
31
30
50
27
49
52
5
39
42
8
36
22
12
24
19
26
4
32
40
17
53
34
14
41
37
7
48
28
15
44
43
54
33
13
20
47
3
38
51
9
46
29
2
21
10
11
6

>  <PUBCHEM_MMFF94_PARTIAL_CHARGES>  (1) 
24
1 -0.57
12 0.54
13 0.09
14 0.28
15 0.27
16 0.27
17 -0.15
18 -0.15
19 0.28
2 -0.36
20 0.08
21 -0.15
22 -0.15
3 -0.68
36 0.37
4 -0.73
41 0.36
44 0.15
45 0.15
46 0.15
47 0.15
5 -0.9
54 0.4
6 0.3

>  <PUBCHEM_EFFECTIVE_ROTOR_COUNT>  (1) 
10.2

>  <PUBCHEM_PHARMACOPHORE_FEATURES>  (1) 
10
1 1 acceptor
1 2 acceptor
1 3 acceptor
1 3 donor
1 4 donor
1 5 cation
1 5 donor
3 16 23 24 hydrophobe
6 13 17 18 20 21 22 rings
6 6 7 8 9 10 11 rings

>  <PUBCHEM_HEAVY_ATOM_COUNT>  (1) 
24

>  <PUBCHEM_ATOM_DEF_STEREO_COUNT>  (1) 
0

>  <PUBCHEM_ATOM_UDEF_STEREO_COUNT>  (1) 
1

>  <PUBCHEM_BOND_DEF_STEREO_COUNT>  (1) 
0

>  <PUBCHEM_BOND_UDEF_STEREO_COUNT>  (1) 
0

>  <PUBCHEM_ISOTOPIC_ATOM_COUNT>  (1) 
0

>  <PUBCHEM_COMPONENT_COUNT>  (1) 
1

>  <PUBCHEM_CACTVS_TAUTO_COUNT>  (1) 
2

>  <PUBCHEM_CONFORMER_ID>  (1) 
0000A58C00000001

>  <PUBCHEM_MMFF94_ENERGY>  (1) 
41.8898

>  <PUBCHEM_FEATURE_SELFOVERLAP>  (1) 
50.75

>  <PUBCHEM_SHAPE_FINGERPRINT>  (1) 
10763959 59 18411987953469323468
11089746 13 18410009914481026414
11595378 159 15719386196692733069
12422481 6 15141224504248880387
12596602 18 14273749446696091804
12623949 98 10735574947711445651
12633257 1 16298666182645693111
12778500 126 17458332028128832720
12969540 114 18411131437895315831
14187579 7 18343017749412401065
14251751 18 10807938180069978657
14251764 38 18341621416309452224
14556957 393 16845298211575958273
14739800 52 18041827467846460185
14848178 96 18410575110581030744
15003188 100 18413387661308791172
15799311 1 9078824259767896929
17868525 174 18409729526790067346
17959699 21 18343584070492376978
1813 80 12319738072253690739
193927 3 12175617391315485391
21033648 29 18113621209063351954
212916 134 17313101990115947682
21315763 76 17917713535036766896
21388113 180 18266175217803169948
21421861 104 13767916910941255778
21475661 188 18334856164613832612
21968339 14 18060415816400979584
23559900 14 17894640231809626510
2838139 119 18411133636665162181
3117164 225 12686185442241998679
312425 54 7925635540019055421
328310 1195 18272654553952019072
33382 64 8574710204483532678
3459 39 17313377924922014823
34797466 226 18202569488364824583
44317340 157 18060419136168047849
508706 21 18113335315077516669
5104073 3 16298955234661943947
550186 83 16515681152428951084

>  <PUBCHEM_SHAPE_MULTIPOLES>  (1) 
466.34
15.3
3.34
1.78
5.05
3.55
-0.18
8.95
5.05
-3.54
-0.51
0.59
-0.23
2.73

>  <PUBCHEM_SHAPE_SELFOVERLAP>  (1) 
945.452

>  <PUBCHEM_SHAPE_VOLUME>  (1) 
271

>  <PUBCHEM_COORDINATE_TYPE>  (1) 
2
5
10

$$$$
