42385
     RDKit          3D

 15 16  0  0  0  0  0  0  0  0999 V2000
   -1.3978   -1.2039    0.3913 S   0  0  0  0  0  0  0  0  0  0  0  0
   -3.3466   -1.7844    0.4617 S   0  0  0  0  0  0  0  0  0  0  0  0
    4.3325   -0.4740    0.4516 O   0  0  0  0  0  0  0  0  0  0  0  0
   -0.8694    1.2849   -0.3494 N   0  0  0  0  0  0  0  0  0  0  0  0
   -3.1228    0.7466   -0.2939 N   0  0  0  0  0  0  0  0  0  0  0  0
   -5.3254   -0.1210   -0.1419 N   0  0  0  0  0  0  0  0  0  0  0  0
    0.4420    0.8428   -0.1482 C   0  0  0  0  0  0  0  0  0  0  0  0
    3.0567   -0.0423    0.2549 C   0  0  0  0  0  0  0  0  0  0  0  0
    1.1530    0.2661   -1.2005 C   0  0  0  0  0  0  0  0  0  0  0  0
    1.0381    0.9770    1.1057 C   0  0  0  0  0  0  0  0  0  0  0  0
    2.4603   -0.1766   -0.9989 C   0  0  0  0  0  0  0  0  0  0  0  0
    2.3456    0.5344    1.3073 C   0  0  0  0  0  0  0  0  0  0  0  0
   -1.8013    0.4160   -0.1268 C   0  0  0  0  0  0  0  0  0  0  0  0
   -3.9665   -0.2117   -0.0457 C   0  0  0  0  0  0  0  0  0  0  0  0
    5.0015   -1.0538   -0.6673 C   0  0  0  0  0  0  0  0  0  0  0  0
  1  2  1  0
  1 13  1  0
  2 14  1  0
  3  8  1  0
  3 15  1  0
  4  7  1  0
  4 13  2  0
  5 13  1  0
  5 14  2  0
  6 14  1  0
  7  9  2  0
  7 10  1  0
  8 11  2  0
  8 12  1  0
  9 11  1  0
 10 12  2  0
M  END
>  <PUBCHEM_COMPOUND_CID>  (1) 
42385

>  <PUBCHEM_CONFORMER_RMSD>  (1) 
0.6

>  <PUBCHEM_CONFORMER_DIVERSEORDER>  (1) 
1

>  <PUBCHEM_MMFF94_PARTIAL_CHARGES>  (1) 
21
1 -0.14
10 -0.15
11 -0.15
12 -0.15
13 0.8
14 0.64
15 0.28
16 0.15
17 0.15
18 0.15
19 0.15
2 -0.14
23 0.4
24 0.4
3 -0.36
4 -0.63
5 -0.66
6 -0.85
7 0.18
8 0.08
9 -0.15

>  <PUBCHEM_EFFECTIVE_ROTOR_COUNT>  (1) 
2

>  <PUBCHEM_PHARMACOPHORE_FEATURES>  (1) 
6
1 3 acceptor
1 6 donor
3 4 5 13 cation
3 5 6 14 cation
5 1 2 5 13 14 rings
6 7 8 9 10 11 12 rings

>  <PUBCHEM_HEAVY_ATOM_COUNT>  (1) 
15

>  <PUBCHEM_ATOM_DEF_STEREO_COUNT>  (1) 
0

>  <PUBCHEM_ATOM_UDEF_STEREO_COUNT>  (1) 
0

>  <PUBCHEM_BOND_DEF_STEREO_COUNT>  (1) 
0

>  <PUBCHEM_BOND_UDEF_STEREO_COUNT>  (1) 
0

>  <PUBCHEM_ISOTOPIC_ATOM_COUNT>  (1) 
0

>  <PUBCHEM_COMPONENT_COUNT>  (1) 
1

>  <PUBCHEM_CACTVS_TAUTO_COUNT>  (1) 
3

>  <PUBCHEM_CONFORMER_ID>  (1) 
0000A59100000001

>  <PUBCHEM_MMFF94_ENERGY>  (1) 
49.01

>  <PUBCHEM_FEATURE_SELFOVERLAP>  (1) 
30.494

>  <PUBCHEM_SHAPE_FINGERPRINT>  (1) 
10465860 250 18272086080739142640
11471102 22 17132119043552808808
11543360 7 18040445395200614916
12236239 1 17022620866475202877
12251169 10 16415477159851185348
12346177 29 18339633560138265615
124424 183 18202845456823845481
13288520 33 18335423443772748262
13296908 3 18338233889924491545
13760787 19 16081084896699574635
14115302 16 18114187457525354398
14252887 29 16702028543641086942
14386348 63 18272654545135302815
14576447 43 16660642985636975258
14911166 2 15140686869301894692
14993402 34 17022620874991212896
16752209 62 17895459359482170205
17804303 29 18409731789668113483
17834072 33 17894918459779797780
17834072 8 18040991843794908351
18186145 218 15719669969629615455
18522853 276 11815896764656718227
19422 9 17458632262873650327
20201158 50 18131635577481858038
20279233 1 17988929985183221559
20374829 77 18408321090137274050
20645476 183 16660645184934803875
20645477 70 17632294566587389182
20681677 155 17676206887858067555
20871999 31 17894630327181960404
21119208 17 17022623074014507487
21618674 57 18059860545474570067
22485316 2 18335137617709265154
231179 274 10665228163886169454
23402539 116 17632570540328412133
23402655 69 14779536877411006751
23557571 272 18339081488888813668
23559900 14 18337109059649420612
26918003 58 17060339634726088283
3060560 45 14634867552770691618
4047638 21 8430315749302501932
42 15 17775567541825977345
474 4 14332544791947009642
58051976 100 17385723629835458615
69090 78 17775278400638715767
7364860 26 18117843423993383860

>  <PUBCHEM_SHAPE_MULTIPOLES>  (1) 
295.58
9.38
1.34
1.07
1.28
0.34
0.08
3.3
-0.6
0.51
0.12
-0.74
-0.09
0.7

>  <PUBCHEM_SHAPE_SELFOVERLAP>  (1) 
604.562

>  <PUBCHEM_SHAPE_VOLUME>  (1) 
173

>  <PUBCHEM_COORDINATE_TYPE>  (1) 
2
5
10

$$$$
