42383
     RDKit          3D

 13 14  0  0  0  0  0  0  0  0999 V2000
   -0.8086   -1.3026    0.0144 S   0  0  0  0  0  0  0  0  0  0  0  0
   -2.8059   -1.6898    0.0081 S   0  0  0  0  0  0  0  0  0  0  0  0
   -0.0346    1.2316   -0.0099 N   0  0  0  0  0  0  0  0  0  0  0  0
   -2.3307    0.9181   -0.0043 N   0  0  0  0  0  0  0  0  0  0  0  0
   -4.6092    0.2583   -0.0025 N   0  0  0  0  0  0  0  0  0  0  0  0
    1.2264    0.6272   -0.0051 C   0  0  0  0  0  0  0  0  0  0  0  0
    1.8538    0.3136   -1.2109 C   0  0  0  0  0  0  0  0  0  0  0  0
    1.8567    0.3373    1.2050 C   0  0  0  0  0  0  0  0  0  0  0  0
    3.1112   -0.2901   -1.2066 C   0  0  0  0  0  0  0  0  0  0  0  0
    3.1142   -0.2664    1.2092 C   0  0  0  0  0  0  0  0  0  0  0  0
    3.7414   -0.5801    0.0034 C   0  0  0  0  0  0  0  0  0  0  0  0
   -1.0485    0.4287   -0.0007 C   0  0  0  0  0  0  0  0  0  0  0  0
   -3.2660    0.0141   -0.0002 C   0  0  0  0  0  0  0  0  0  0  0  0
  1  2  1  0
  1 12  1  0
  2 13  1  0
  3  6  1  0
  3 12  2  0
  4 12  1  0
  4 13  2  0
  5 13  1  0
  6  7  2  0
  6  8  1  0
  7  9  1  0
  8 10  2  0
  9 11  2  0
 10 11  1  0
M  END
>  <PUBCHEM_COMPOUND_CID>  (1) 
42383

>  <PUBCHEM_CONFORMER_RMSD>  (1) 
0.4

>  <PUBCHEM_CONFORMER_DIVERSEORDER>  (1) 
1

>  <PUBCHEM_MMFF94_PARTIAL_CHARGES>  (1) 
20
1 -0.14
10 -0.15
11 -0.15
12 0.8
13 0.64
14 0.15
15 0.15
16 0.15
17 0.15
18 0.15
19 0.4
2 -0.14
20 0.4
3 -0.63
4 -0.66
5 -0.85
6 0.18
7 -0.15
8 -0.15
9 -0.15

>  <PUBCHEM_EFFECTIVE_ROTOR_COUNT>  (1) 
1

>  <PUBCHEM_PHARMACOPHORE_FEATURES>  (1) 
5
1 5 donor
3 3 4 12 cation
3 4 5 13 cation
5 1 2 4 12 13 rings
6 6 7 8 9 10 11 rings

>  <PUBCHEM_HEAVY_ATOM_COUNT>  (1) 
13

>  <PUBCHEM_ATOM_DEF_STEREO_COUNT>  (1) 
0

>  <PUBCHEM_ATOM_UDEF_STEREO_COUNT>  (1) 
0

>  <PUBCHEM_BOND_DEF_STEREO_COUNT>  (1) 
0

>  <PUBCHEM_BOND_UDEF_STEREO_COUNT>  (1) 
0

>  <PUBCHEM_ISOTOPIC_ATOM_COUNT>  (1) 
0

>  <PUBCHEM_COMPONENT_COUNT>  (1) 
1

>  <PUBCHEM_CACTVS_TAUTO_COUNT>  (1) 
3

>  <PUBCHEM_CONFORMER_ID>  (1) 
0000A58F00000001

>  <PUBCHEM_MMFF94_ENERGY>  (1) 
34.6263

>  <PUBCHEM_FEATURE_SELFOVERLAP>  (1) 
25.42

>  <PUBCHEM_SHAPE_FINGERPRINT>  (1) 
10219947 1 15841551873098454672
10751810 167 18041286529679506111
11031198 65 14562533985588111750
11062470 55 14189574130823999749
11471102 22 16415481541160769826
12251169 10 15339115741019051436
12346177 29 18272359915285759423
12932764 1 17603860130778278349
13296908 3 18272369827505645875
13538477 17 17967534613813689579
13581323 91 18409724054220951776
14115302 16 18260835903417491270
14144814 61 18259703406308883251
14993402 34 17894635846204236774
15219456 202 17703224126314854978
15375358 24 17989201559890952178
15775835 57 17675928711189523103
16945 1 18410573963792763141
18186145 218 13479126882758907244
18522853 295 18410579487147183531
19049666 15 17416133784596477136
19422 9 17531250586203468347
20201158 50 17704077282750229262
20279233 1 17775568649648036455
20281407 28 18201445782832614566
20645476 183 17604159223705893551
20645477 70 16487258724941477428
20871998 22 14475859385597875636
21119208 17 17530686497983343870
22485316 2 18408602573861901938
232386 152 18335697286471312990
23402539 116 17989198232061691061
23402655 69 16153422831225662054
23463225 33 18187079525075489834
23559900 14 18343023294361963812
465052 167 17895490214701434819
474 4 13685427214951037426
522135 26 16588021303458115233
57426455 114 18202841058661510723
57812782 119 17489587865839134027
69090 78 17275096241552453567
7364860 26 18125723632577805416
74978 22 18189336930032245975
77492 1 17676206862056640864
81228 2 17844547533877212281
8272917 22 16588579782703990219

>  <PUBCHEM_SHAPE_MULTIPOLES>  (1) 
260.29
7.24
1.27
1.07
3.14
0.35
0
0.89
0
0.8
0
-1.13
0.01
0.01

>  <PUBCHEM_SHAPE_SELFOVERLAP>  (1) 
532.149

>  <PUBCHEM_SHAPE_VOLUME>  (1) 
152.4

>  <PUBCHEM_COORDINATE_TYPE>  (1) 
2
5
10

$$$$
