42381
     RDKit          3D

 22 22  0  0  1  0  0  0  0  0999 V2000
    2.0746   -1.7784    0.2708 O   0  0  0  0  0  0  0  0  0  0  0  0
    4.8173   -2.2132    0.1294 O   0  0  0  0  0  0  0  0  0  0  0  0
   -4.1892   -1.6102    0.5435 O   0  0  0  0  0  0  0  0  0  0  0  0
    3.6833    1.2327   -0.6127 N   0  0  0  0  0  0  0  0  0  0  0  0
   -3.8643    0.6196   -0.0785 N   0  0  0  0  0  0  0  0  0  0  0  0
    4.3154    0.1328    0.1031 C   0  0  0  0  0  0  0  0  0  0  0  0
    4.2075   -1.1887   -0.6613 C   0  0  0  0  0  0  0  0  0  0  0  0
    3.7506    2.4648    0.1611 C   0  0  0  0  0  0  0  0  0  0  0  0
    2.7671   -1.5983   -0.9607 C   0  0  0  0  0  0  0  0  0  0  0  0
    2.6686    2.4735    1.2372 C   0  0  0  0  0  0  0  0  0  0  0  0
    3.6027    3.6607   -0.7743 C   0  0  0  0  0  0  0  0  0  0  0  0
   -5.2752    0.9773   -0.1190 C   0  0  0  0  0  0  0  0  0  0  0  0
   -2.9295    1.6929   -0.4093 C   0  0  0  0  0  0  0  0  0  0  0  0
    0.7323   -1.5077    0.2670 C   0  0  0  0  0  0  0  0  0  0  0  0
   -2.0030   -0.9603    0.2605 C   0  0  0  0  0  0  0  0  0  0  0  0
   -3.4293   -0.6755    0.2575 C   0  0  0  0  0  0  0  0  0  0  0  0
   -1.2573   -0.7743    1.4245 C   0  0  0  0  0  0  0  0  0  0  0  0
   -1.3810   -1.4201   -0.9003 C   0  0  0  0  0  0  0  0  0  0  0  0
    0.1103   -1.0481    1.4279 C   0  0  0  0  0  0  0  0  0  0  0  0
   -0.0134   -1.6937   -0.8970 C   0  0  0  0  0  0  0  0  0  0  0  0
   -5.8679    0.7427   -1.4931 C   0  0  0  0  0  0  0  0  0  0  0  0
   -2.5196    2.4715    0.8237 C   0  0  0  0  0  0  0  0  0  0  0  0
  1  9  1  0
  1 14  1  0
  2  7  1  0
  3 16  2  0
  4  6  1  0
  4  8  1  0
  5 12  1  0
  5 13  1  0
  5 16  1  0
  6  7  1  0
  7  9  1  0
  8 10  1  0
  8 11  1  0
 12 21  1  0
 13 22  1  0
 14 19  2  0
 14 20  1  0
 15 16  1  0
 15 17  2  0
 15 18  1  0
 17 19  1  0
 18 20  2  0
M  END
>  <PUBCHEM_COMPOUND_CID>  (1) 
42381

>  <PUBCHEM_CONFORMER_RMSD>  (1) 
1

>  <PUBCHEM_CONFORMER_DIVERSEORDER>  (1) 
1
20
5
27
23
32
33
7
45
26
25
37
35
21
11
16
31
40
28
29
18
42
39
15
38
30
22
8
46
19
17
41
4
36
6
34
2
10
9
12
43
13
3
24
14
44

>  <PUBCHEM_MMFF94_PARTIAL_CHARGES>  (1) 
24
1 -0.36
12 0.3
13 0.3
14 0.08
15 0.09
16 0.54
17 -0.15
18 -0.15
19 -0.15
2 -0.68
20 -0.15
27 0.36
3 -0.57
4 -0.9
40 0.4
41 0.15
42 0.15
43 0.15
44 0.15
5 -0.66
6 0.27
7 0.28
8 0.27
9 0.28

>  <PUBCHEM_EFFECTIVE_ROTOR_COUNT>  (1) 
10

>  <PUBCHEM_PHARMACOPHORE_FEATURES>  (1) 
8
1 1 acceptor
1 2 acceptor
1 2 donor
1 3 acceptor
1 4 cation
1 4 donor
3 8 10 11 hydrophobe
6 14 15 17 18 19 20 rings

>  <PUBCHEM_HEAVY_ATOM_COUNT>  (1) 
22

>  <PUBCHEM_ATOM_DEF_STEREO_COUNT>  (1) 
0

>  <PUBCHEM_ATOM_UDEF_STEREO_COUNT>  (1) 
1

>  <PUBCHEM_BOND_DEF_STEREO_COUNT>  (1) 
0

>  <PUBCHEM_BOND_UDEF_STEREO_COUNT>  (1) 
0

>  <PUBCHEM_ISOTOPIC_ATOM_COUNT>  (1) 
0

>  <PUBCHEM_COMPONENT_COUNT>  (1) 
1

>  <PUBCHEM_CACTVS_TAUTO_COUNT>  (1) 
1

>  <PUBCHEM_CONFORMER_ID>  (1) 
0000A58D00000001

>  <PUBCHEM_MMFF94_ENERGY>  (1) 
47.8457

>  <PUBCHEM_FEATURE_SELFOVERLAP>  (1) 
40.6

>  <PUBCHEM_SHAPE_FINGERPRINT>  (1) 
11089746 13 18261385607702665727
11595378 159 15502646066689669725
12166972 35 17917146083799707842
12596602 18 14346095117059575124
12670546 177 17632853123058525927
13402501 40 18408040719410510572
13583140 156 18260841353557488707
14251764 38 18410862048703653960
14466204 15 18264203600692157786
14468879 13 18118969337011533904
14848178 96 18335702775318470876
14931854 50 18342183237145306988
15295992 7 18113344111128107010
17868525 174 18262228916426259434
17959699 21 18411701010413721347
19930381 70 17908983553781897465
212916 134 16443062794675519043
21475661 188 18187079581073588588
21623110 236 18411991273500577473
221357 26 18342456989332585796
22289505 5 18411986845541685038
23227448 37 18270962461196424135
23559900 14 18409729517467578850
2838139 119 18335976485474176789
345986 75 17172345617754972386
351380 180 18409167688478898950
474 4 18260548952320574340
633830 44 18260820535819083162
9981440 41 17977662336446313552

>  <PUBCHEM_SHAPE_MULTIPOLES>  (1) 
425.18
11.68
3.47
1.23
4.59
2.72
-0.09
3.98
2.97
-3.92
0.15
0.37
0.04
0.45

>  <PUBCHEM_SHAPE_SELFOVERLAP>  (1) 
846.281

>  <PUBCHEM_SHAPE_VOLUME>  (1) 
253.4

>  <PUBCHEM_COORDINATE_TYPE>  (1) 
2
5
10

$$$$
