42406
     RDKit          3D

 28 32  0  0  0  0  0  0  0  0999 V2000
   -1.0816    0.1276    0.0664 N   0  0  0  0  0  0  0  0  0  0  0  0
    1.7684   -3.6649   -0.1971 N   0  0  0  0  0  0  0  0  0  0  0  0
   -1.1673    1.5146   -0.1184 C   0  0  0  0  0  0  0  0  0  0  0  0
    0.2609   -0.1981    0.1776 C   0  0  0  0  0  0  0  0  0  0  0  0
    0.1441    2.0166   -0.1571 C   0  0  0  0  0  0  0  0  0  0  0  0
    1.0244    0.9315    0.0434 C   0  0  0  0  0  0  0  0  0  0  0  0
   -2.2741    2.3748   -0.2960 C   0  0  0  0  0  0  0  0  0  0  0  0
   -2.1473   -0.8323    0.1107 C   0  0  0  0  0  0  0  0  0  0  0  0
   -3.7028    1.9137   -0.2736 C   0  0  0  0  0  0  0  0  0  0  0  0
   -3.9299    0.8908    0.8272 C   0  0  0  0  0  0  0  0  0  0  0  0
    0.8064   -1.5209    0.5901 C   0  0  0  0  0  0  0  0  0  0  0  0
   -3.4762   -0.4894    0.4259 C   0  0  0  0  0  0  0  0  0  0  0  0
    0.3680    3.3916   -0.3702 C   0  0  0  0  0  0  0  0  0  0  0  0
   -2.0088    3.7398   -0.5316 C   0  0  0  0  0  0  0  0  0  0  0  0
    1.2608   -2.3616   -0.6126 C   0  0  0  0  0  0  0  0  0  0  0  0
    2.4593    0.9326    0.1342 C   0  0  0  0  0  0  0  0  0  0  0  0
   -1.8440   -2.1797   -0.1775 C   0  0  0  0  0  0  0  0  0  0  0  0
   -0.7154    4.2425   -0.5621 C   0  0  0  0  0  0  0  0  0  0  0  0
   -4.4560   -1.5062    0.4383 C   0  0  0  0  0  0  0  0  0  0  0  0
   -2.8311   -3.1665   -0.1615 C   0  0  0  0  0  0  0  0  0  0  0  0
   -4.1394   -2.8301    0.1458 C   0  0  0  0  0  0  0  0  0  0  0  0
    3.0781    1.0925    1.3733 C   0  0  0  0  0  0  0  0  0  0  0  0
    3.2297    0.7735   -1.0167 C   0  0  0  0  0  0  0  0  0  0  0  0
    2.0966   -4.4851   -1.3640 C   0  0  0  0  0  0  0  0  0  0  0  0
    2.9433   -3.5095    0.6617 C   0  0  0  0  0  0  0  0  0  0  0  0
    4.4702    1.0934    1.4615 C   0  0  0  0  0  0  0  0  0  0  0  0
    4.6218    0.7743   -0.9285 C   0  0  0  0  0  0  0  0  0  0  0  0
    5.2420    0.9342    0.3107 C   0  0  0  0  0  0  0  0  0  0  0  0
  1  3  1  0
  1  4  1  0
  1  8  1  0
  2 15  1  0
  2 24  1  0
  2 25  1  0
  3  5  2  0
  3  7  1  0
  4  6  2  0
  4 11  1  0
  5  6  1  0
  5 13  1  0
  6 16  1  0
  7  9  1  0
  7 14  2  0
  8 12  2  0
  8 17  1  0
  9 10  1  0
 10 12  1  0
 11 15  1  0
 12 19  1  0
 13 18  2  0
 14 18  1  0
 16 22  2  0
 16 23  1  0
 17 20  2  0
 19 21  2  0
 20 21  1  0
 22 26  1  0
 23 27  2  0
 26 28  2  0
 27 28  1  0
M  END
>  <PUBCHEM_COMPOUND_CID>  (1) 
42406

>  <PUBCHEM_CONFORMER_RMSD>  (1) 
0.8

>  <PUBCHEM_CONFORMER_DIVERSEORDER>  (1) 
1
2

>  <PUBCHEM_MMFF94_PARTIAL_CHARGES>  (1) 
39
1 0.33
10 0.14
11 0.18
12 -0.14
13 -0.15
14 -0.15
15 0.27
16 0.05
17 -0.15
18 -0.15
19 -0.15
2 -0.81
20 -0.15
21 -0.15
22 -0.15
23 -0.15
24 0.27
25 0.27
26 -0.15
27 -0.15
28 -0.15
3 -0.15
35 0.15
36 0.15
39 0.15
4 -0.33
40 0.15
41 0.15
42 0.15
43 0.15
44 0.15
45 0.15
52 0.15
53 0.15
54 0.15
6 -0.05
7 -0.14
8 -0.02
9 0.14

>  <PUBCHEM_EFFECTIVE_ROTOR_COUNT>  (1) 
4.4

>  <PUBCHEM_PHARMACOPHORE_FEATURES>  (1) 
7
1 1 cation
1 2 cation
5 1 3 4 5 6 rings
6 16 22 23 26 27 28 rings
6 3 5 7 13 14 18 rings
6 8 12 17 19 20 21 rings
7 1 3 7 8 9 10 12 rings

>  <PUBCHEM_HEAVY_ATOM_COUNT>  (1) 
28

>  <PUBCHEM_ATOM_DEF_STEREO_COUNT>  (1) 
0

>  <PUBCHEM_ATOM_UDEF_STEREO_COUNT>  (1) 
0

>  <PUBCHEM_BOND_DEF_STEREO_COUNT>  (1) 
0

>  <PUBCHEM_BOND_UDEF_STEREO_COUNT>  (1) 
0

>  <PUBCHEM_ISOTOPIC_ATOM_COUNT>  (1) 
0

>  <PUBCHEM_COMPONENT_COUNT>  (1) 
1

>  <PUBCHEM_CACTVS_TAUTO_COUNT>  (1) 
1

>  <PUBCHEM_CONFORMER_ID>  (1) 
0000A5A600000001

>  <PUBCHEM_MMFF94_ENERGY>  (1) 
109.1376

>  <PUBCHEM_FEATURE_SELFOVERLAP>  (1) 
35.663

>  <PUBCHEM_SHAPE_FINGERPRINT>  (1) 
10319926 262 18268406028886789888
10411042 1 18192430998713101609
10616163 171 18409166627532247650
10930396 42 16821611196540623986
1100329 8 17689712386656038130
11513181 2 18200305499333694543
11578080 2 17169536424889485078
11963148 33 18262514930804776555
12236239 1 17603863425656861464
12422481 6 18192972873811037674
12553582 1 18335982085931877041
12788726 201 18187646937795493496
12839892 36 18339347635264109186
13140716 1 18268429216798249569
13149001 5 17689434880386975142
14081887 123 18411975845424097393
14117953 113 18268992162846873239
14178342 30 18341618143765301673
14223421 5 18339359656492227610
14790565 3 18193285310669187084
14955137 171 18118986894842965003
15042514 8 18408880745951149024
15219462 58 17202475611493142250
16112460 7 17623579648342009569
18681886 176 17979347882764810467
19591789 44 18266461095009959068
20028762 73 17912649304296184263
20775438 99 17980166761667082503
20905425 154 18340492166633573638
21033648 29 17773023370487339672
21421861 104 18188210879854588554
21796203 349 17756464738369139913
22113638 7 17907009930531443238
22182313 1 18190182282913061149
22311459 1 18337956792068230969
2334 1 18264769857490984241
23366157 5 17970073232113198290
23558518 356 18116152177641017490
23559900 14 17979912714335874198
2748010 2 18119812409164344397
3178227 256 17975989974639035835
335352 9 18337110189732098613
3380486 145 18335431157919400329
350125 39 17977671900605660824
4409770 3 18115571670220726941
469060 322 18337403745760879313
5265222 85 18411986897571993804
59554788 170 18121511158892284721
59755656 215 18409165493576583095
6433294 58 18196094348256020270
9709674 26 18051407375198998644

>  <PUBCHEM_SHAPE_MULTIPOLES>  (1) 
566.26
8.61
5.79
1.02
2.9
2.21
-0.07
1.18
-1.47
-0.86
1.7
0.86
0.1
0.85

>  <PUBCHEM_SHAPE_SELFOVERLAP>  (1) 
1260.868

>  <PUBCHEM_SHAPE_VOLUME>  (1) 
301.1

>  <PUBCHEM_COORDINATE_TYPE>  (1) 
2
5
10

$$$$
