42407
     RDKit          3D

 22 25  0  0  0  0  0  0  0  0999 V2000
    0.5121   -0.3519   -0.1647 N   0  0  0  0  0  0  0  0  0  0  0  0
   -4.0253   -0.9170    0.3405 N   0  0  0  0  0  0  0  0  0  0  0  0
   -0.1392    0.8891   -0.1924 C   0  0  0  0  0  0  0  0  0  0  0  0
   -1.5108    0.6415   -0.3680 C   0  0  0  0  0  0  0  0  0  0  0  0
   -1.6920   -0.7577   -0.4084 C   0  0  0  0  0  0  0  0  0  0  0  0
   -0.4564   -1.3360   -0.2820 C   0  0  0  0  0  0  0  0  0  0  0  0
    0.3511    2.2123   -0.1200 C   0  0  0  0  0  0  0  0  0  0  0  0
    1.8012    2.5573    0.0607 C   0  0  0  0  0  0  0  0  0  0  0  0
    1.9189   -0.6171   -0.0658 C   0  0  0  0  0  0  0  0  0  0  0  0
    2.4607    1.6349    1.0724 C   0  0  0  0  0  0  0  0  0  0  0  0
    2.8377    0.3052    0.4709 C   0  0  0  0  0  0  0  0  0  0  0  0
   -2.9836   -1.4669   -0.5366 C   0  0  0  0  0  0  0  0  0  0  0  0
   -2.4154    1.7175   -0.4694 C   0  0  0  0  0  0  0  0  0  0  0  0
   -0.5814    3.2621   -0.2513 C   0  0  0  0  0  0  0  0  0  0  0  0
   -0.2554   -2.7975   -0.0982 C   0  0  0  0  0  0  0  0  0  0  0  0
   -1.9388    3.0231   -0.4160 C   0  0  0  0  0  0  0  0  0  0  0  0
    2.3978   -1.8600   -0.5313 C   0  0  0  0  0  0  0  0  0  0  0  0
    4.2044   -0.0470    0.5200 C   0  0  0  0  0  0  0  0  0  0  0  0
    3.7544   -2.1836   -0.4747 C   0  0  0  0  0  0  0  0  0  0  0  0
    4.6598   -1.2761    0.0506 C   0  0  0  0  0  0  0  0  0  0  0  0
   -3.6119   -1.0141    1.7377 C   0  0  0  0  0  0  0  0  0  0  0  0
   -5.2881   -1.6181    0.1259 C   0  0  0  0  0  0  0  0  0  0  0  0
  1  3  1  0
  1  6  1  0
  1  9  1  0
  2 12  1  0
  2 21  1  0
  2 22  1  0
  3  4  2  0
  3  7  1  0
  4  5  1  0
  4 13  1  0
  5  6  2  0
  5 12  1  0
  6 15  1  0
  7  8  1  0
  7 14  2  0
  8 10  1  0
  9 11  2  0
  9 17  1  0
 10 11  1  0
 11 18  1  0
 13 16  2  0
 14 16  1  0
 17 19  2  0
 18 20  2  0
 19 20  1  0
M  END
>  <PUBCHEM_COMPOUND_CID>  (1) 
42407

>  <PUBCHEM_CONFORMER_RMSD>  (1) 
0.6

>  <PUBCHEM_CONFORMER_DIVERSEORDER>  (1) 
2
4
1
5
3

>  <PUBCHEM_MMFF94_PARTIAL_CHARGES>  (1) 
28
1 0.33
10 0.14
11 -0.14
12 0.45
13 -0.15
14 -0.15
15 0.18
16 -0.15
17 -0.15
18 -0.15
19 -0.15
2 -0.81
20 -0.15
21 0.27
22 0.27
29 0.15
3 -0.15
30 0.15
34 0.15
35 0.15
36 0.15
37 0.15
38 0.15
5 -0.18
6 -0.33
7 -0.14
8 0.14
9 -0.02

>  <PUBCHEM_EFFECTIVE_ROTOR_COUNT>  (1) 
2.4

>  <PUBCHEM_PHARMACOPHORE_FEATURES>  (1) 
6
1 1 cation
1 2 cation
5 1 3 4 5 6 rings
6 3 4 7 13 14 16 rings
6 9 11 17 18 19 20 rings
7 1 3 7 8 9 10 11 rings

>  <PUBCHEM_HEAVY_ATOM_COUNT>  (1) 
22

>  <PUBCHEM_ATOM_DEF_STEREO_COUNT>  (1) 
0

>  <PUBCHEM_ATOM_UDEF_STEREO_COUNT>  (1) 
0

>  <PUBCHEM_BOND_DEF_STEREO_COUNT>  (1) 
0

>  <PUBCHEM_BOND_UDEF_STEREO_COUNT>  (1) 
0

>  <PUBCHEM_ISOTOPIC_ATOM_COUNT>  (1) 
0

>  <PUBCHEM_COMPONENT_COUNT>  (1) 
1

>  <PUBCHEM_CACTVS_TAUTO_COUNT>  (1) 
1

>  <PUBCHEM_CONFORMER_ID>  (1) 
0000A5A700000002

>  <PUBCHEM_MMFF94_ENERGY>  (1) 
82.1812

>  <PUBCHEM_FEATURE_SELFOVERLAP>  (1) 
30.586

>  <PUBCHEM_SHAPE_FINGERPRINT>  (1) 
10366900 7 18187090554667862690
10411042 1 18410292518954995047
10688039 33 18187364337521312525
10967382 1 18194677300842099484
1100329 8 17183619893236021067
11578080 2 17129828778107259177
11680986 33 18340194215819735805
12236239 1 17775003557445269183
12403259 226 18340482279497272334
12422481 6 18269857349732965969
12553582 1 18339075020651611372
12788726 201 18260550009072420786
13140716 1 18268142063673865328
138480 1 15168543687333221421
14223421 5 18411975832565296144
14790565 3 17399803090508847813
15042514 8 18121497960368041914
15196674 1 18339638950163544060
15475509 84 17988376892375528449
16945 1 18194677287909796332
17357779 13 18337376197924895605
17492 89 18264767654310366250
1813 80 18270417039115294735
19591789 44 18411418380053917247
20028762 73 18130223882410806215
20510252 161 18341047424142078346
20739085 24 18264227935755421121
21029758 27 18334863839271686094
21041028 32 18411704300765053293
21267235 1 18411705379012945182
21279426 13 18334846200764401709
221490 88 18341048507022358958
22182313 1 18337370712993565741
23184049 59 18270686479741321571
2334 1 18411130338146109604
23419403 2 17559932395033485920
23557571 272 18270689666944633294
23559900 14 17911229517779727134
23845131 108 17403469468530809009
2748010 2 18338784650502588844
335352 9 18195805163538668141
350125 39 18412266133657822944
352729 6 17908699532168784838
5104073 3 18269264674210636346
5283268 108 18409450310101199017
9709674 26 17983010047133768462

>  <PUBCHEM_SHAPE_MULTIPOLES>  (1) 
442.79
7.96
3.63
0.91
1.04
2.07
-0.28
-5.34
-1.39
0.56
0.43
0.35
-0.08
1.02

>  <PUBCHEM_SHAPE_SELFOVERLAP>  (1) 
979.97

>  <PUBCHEM_SHAPE_VOLUME>  (1) 
238.2

>  <PUBCHEM_COORDINATE_TYPE>  (1) 
2
5
10

$$$$
