42408
     RDKit          3D

 27 31  0  0  0  0  0  0  0  0999 V2000
    0.5681    0.4191   -0.1972 N   0  0  0  0  0  0  0  0  0  0  0  0
   -3.9979    0.2202    0.2943 N   0  0  0  0  0  0  0  0  0  0  0  0
    0.0180    1.7084   -0.1905 C   0  0  0  0  0  0  0  0  0  0  0  0
   -1.3682    1.5763   -0.3763 C   0  0  0  0  0  0  0  0  0  0  0  0
   -1.6602    0.1979   -0.4576 C   0  0  0  0  0  0  0  0  0  0  0  0
   -0.4753   -0.4807   -0.3453 C   0  0  0  0  0  0  0  0  0  0  0  0
    0.6119    2.9856   -0.0786 C   0  0  0  0  0  0  0  0  0  0  0  0
    2.0842    3.2084    0.1153 C   0  0  0  0  0  0  0  0  0  0  0  0
    1.9488    0.0396   -0.1028 C   0  0  0  0  0  0  0  0  0  0  0  0
    2.6633    2.2075    1.1014 C   0  0  0  0  0  0  0  0  0  0  0  0
    2.9358    0.8698    0.4624 C   0  0  0  0  0  0  0  0  0  0  0  0
   -3.0105   -0.3923   -0.6029 C   0  0  0  0  0  0  0  0  0  0  0  0
   -2.1835    2.7236   -0.4485 C   0  0  0  0  0  0  0  0  0  0  0  0
   -0.2332    4.1099   -0.1816 C   0  0  0  0  0  0  0  0  0  0  0  0
   -0.4248   -1.9229   -0.1460 C   0  0  0  0  0  0  0  0  0  0  0  0
   -1.6045    3.9849   -0.3562 C   0  0  0  0  0  0  0  0  0  0  0  0
    2.3291   -1.2236   -0.6031 C   0  0  0  0  0  0  0  0  0  0  0  0
    4.2697    0.4083    0.5045 C   0  0  0  0  0  0  0  0  0  0  0  0
    3.6553   -1.6561   -0.5528 C   0  0  0  0  0  0  0  0  0  0  0  0
    4.6278   -0.8392    0.0007 C   0  0  0  0  0  0  0  0  0  0  0  0
   -0.3818   -2.7648   -1.2486 C   0  0  0  0  0  0  0  0  0  0  0  0
   -0.4214   -2.4340    1.1442 C   0  0  0  0  0  0  0  0  0  0  0  0
   -3.5929    0.0451    1.6866 C   0  0  0  0  0  0  0  0  0  0  0  0
   -5.3184   -0.3597    0.0645 C   0  0  0  0  0  0  0  0  0  0  0  0
   -0.3345   -4.1457   -1.0570 C   0  0  0  0  0  0  0  0  0  0  0  0
   -0.3740   -3.8148    1.3359 C   0  0  0  0  0  0  0  0  0  0  0  0
   -0.3307   -4.6707    0.2352 C   0  0  0  0  0  0  0  0  0  0  0  0
  1  3  1  0
  1  6  1  0
  1  9  1  0
  2 12  1  0
  2 23  1  0
  2 24  1  0
  3  4  2  0
  3  7  1  0
  4  5  1  0
  4 13  1  0
  5  6  2  0
  5 12  1  0
  6 15  1  0
  7  8  1  0
  7 14  2  0
  8 10  1  0
  9 11  2  0
  9 17  1  0
 10 11  1  0
 11 18  1  0
 13 16  2  0
 14 16  1  0
 15 21  2  0
 15 22  1  0
 17 19  2  0
 18 20  2  0
 19 20  1  0
 21 25  1  0
 22 26  2  0
 25 27  2  0
 26 27  1  0
M  END
>  <PUBCHEM_COMPOUND_CID>  (1) 
42408

>  <PUBCHEM_CONFORMER_RMSD>  (1) 
0.8

>  <PUBCHEM_CONFORMER_DIVERSEORDER>  (1) 
1
2

>  <PUBCHEM_MMFF94_PARTIAL_CHARGES>  (1) 
38
1 0.33
10 0.14
11 -0.14
12 0.45
13 -0.15
14 -0.15
15 0.05
16 -0.15
17 -0.15
18 -0.15
19 -0.15
2 -0.81
20 -0.15
21 -0.15
22 -0.15
23 0.27
24 0.27
25 -0.15
26 -0.15
27 -0.15
3 -0.15
34 0.15
35 0.15
36 0.15
37 0.15
38 0.15
39 0.15
40 0.15
41 0.15
42 0.15
49 0.15
5 -0.18
50 0.15
51 0.15
6 -0.2
7 -0.14
8 0.14
9 -0.02

>  <PUBCHEM_EFFECTIVE_ROTOR_COUNT>  (1) 
3.4

>  <PUBCHEM_PHARMACOPHORE_FEATURES>  (1) 
7
1 1 cation
1 2 cation
5 1 3 4 5 6 rings
6 15 21 22 25 26 27 rings
6 3 4 7 13 14 16 rings
6 9 11 17 18 19 20 rings
7 1 3 7 8 9 10 11 rings

>  <PUBCHEM_HEAVY_ATOM_COUNT>  (1) 
27

>  <PUBCHEM_ATOM_DEF_STEREO_COUNT>  (1) 
0

>  <PUBCHEM_ATOM_UDEF_STEREO_COUNT>  (1) 
0

>  <PUBCHEM_BOND_DEF_STEREO_COUNT>  (1) 
0

>  <PUBCHEM_BOND_UDEF_STEREO_COUNT>  (1) 
0

>  <PUBCHEM_ISOTOPIC_ATOM_COUNT>  (1) 
0

>  <PUBCHEM_COMPONENT_COUNT>  (1) 
1

>  <PUBCHEM_CACTVS_TAUTO_COUNT>  (1) 
1

>  <PUBCHEM_CONFORMER_ID>  (1) 
0000A5A800000001

>  <PUBCHEM_MMFF94_ENERGY>  (1) 
104.2241

>  <PUBCHEM_FEATURE_SELFOVERLAP>  (1) 
35.663

>  <PUBCHEM_SHAPE_FINGERPRINT>  (1) 
10967382 1 18267017439346143612
1100329 8 18265328593616816307
11578080 2 16770410675970366418
12035758 1 18410860996510130394
12553582 1 18338512066546128204
12633257 1 18265037189308694554
12788726 201 18335987476400650802
13140716 1 18050278464953059568
13911987 19 18334010601211094743
14022347 108 18335708243296758586
140371 6 17618770792504055423
14223421 5 17978232651751526253
14251757 5 18338254712506204726
14725015 67 18337662023560961264
14790565 3 18410583872209280629
15513586 35 15947878886542587306
16728300 4 17535155909961611746
16945 1 18339355396064485852
19319366 153 15951360885375887619
19591789 44 18339359669287393660
20028762 73 18200875179754550031
20510252 161 18341047407089153960
20739085 24 18264512674944609289
20905425 154 17836368142260616926
21197605 99 18051704531898879499
21421861 104 17830463778126140603
2334 1 18339355280131978332
2748010 2 18338504245062769452
283562 15 18339080367596121201
3178227 256 18335710476975333835
3380486 145 18046635778292340320
3383291 50 18264203609346448546
350125 39 18412267203205231244
5265222 85 18267591217978027526
57527358 35 15553063021235455786
59755656 215 18120093875529826917
81228 2 18052798515111798546

>  <PUBCHEM_SHAPE_MULTIPOLES>  (1) 
545.69
6.58
6.16
1.08
0.32
1.59
0.24
-0.5
1.05
0.81
-0.27
0.32
0.59
0.72

>  <PUBCHEM_SHAPE_SELFOVERLAP>  (1) 
1223.958

>  <PUBCHEM_SHAPE_VOLUME>  (1) 
288

>  <PUBCHEM_COORDINATE_TYPE>  (1) 
2
5
10

$$$$
