42401
     RDKit          3D

 21 24  0  0  0  0  0  0  0  0999 V2000
    0.0862    0.0291   -0.1823 N   0  0  0  0  0  0  0  0  0  0  0  0
   -4.8789    0.0775    0.2818 N   0  0  0  0  0  0  0  0  0  0  0  0
    1.0151    1.0749   -0.0913 C   0  0  0  0  0  0  0  0  0  0  0  0
   -1.1676    0.5955   -0.3482 C   0  0  0  0  0  0  0  0  0  0  0  0
    2.4186    1.0771    0.0714 C   0  0  0  0  0  0  0  0  0  0  0  0
    3.2427   -0.1675    0.2349 C   0  0  0  0  0  0  0  0  0  0  0  0
    0.3307   -1.3845   -0.1476 C   0  0  0  0  0  0  0  0  0  0  0  0
    0.3094    2.2800   -0.2443 C   0  0  0  0  0  0  0  0  0  0  0  0
    2.5511   -1.1649    1.1494 C   0  0  0  0  0  0  0  0  0  0  0  0
    1.4824   -1.9499    0.4327 C   0  0  0  0  0  0  0  0  0  0  0  0
   -1.0576    1.9606   -0.3905 C   0  0  0  0  0  0  0  0  0  0  0  0
   -2.4748   -0.1066   -0.2916 C   0  0  0  0  0  0  0  0  0  0  0  0
    3.0762    2.3246    0.0525 C   0  0  0  0  0  0  0  0  0  0  0  0
    0.9994    3.5089   -0.2321 C   0  0  0  0  0  0  0  0  0  0  0  0
   -0.6295   -2.2420   -0.7249 C   0  0  0  0  0  0  0  0  0  0  0  0
   -3.6118    0.7972    0.2096 C   0  0  0  0  0  0  0  0  0  0  0  0
    1.6348   -3.3537    0.4121 C   0  0  0  0  0  0  0  0  0  0  0  0
    2.3829    3.5186   -0.0894 C   0  0  0  0  0  0  0  0  0  0  0  0
   -0.4545   -3.6268   -0.7356 C   0  0  0  0  0  0  0  0  0  0  0  0
    0.6794   -4.1842   -0.1674 C   0  0  0  0  0  0  0  0  0  0  0  0
   -5.9339    0.9361    0.8007 C   0  0  0  0  0  0  0  0  0  0  0  0
  1  3  1  0
  1  4  1  0
  1  7  1  0
  2 16  1  0
  2 21  1  0
  3  5  2  0
  3  8  1  0
  4 11  2  0
  4 12  1  0
  5  6  1  0
  5 13  1  0
  6  9  1  0
  7 10  2  0
  7 15  1  0
  8 11  1  0
  8 14  2  0
  9 10  1  0
 10 17  1  0
 12 16  1  0
 13 18  2  0
 14 18  1  0
 15 19  2  0
 17 20  2  0
 19 20  1  0
M  END
>  <PUBCHEM_COMPOUND_CID>  (1) 
42401

>  <PUBCHEM_CONFORMER_RMSD>  (1) 
0.6

>  <PUBCHEM_CONFORMER_DIVERSEORDER>  (1) 
1
5
6
4
2
3

>  <PUBCHEM_MMFF94_PARTIAL_CHARGES>  (1) 
29
1 0.33
10 -0.14
11 -0.15
12 0.18
13 -0.15
14 -0.15
15 -0.15
16 0.27
17 -0.15
18 -0.15
19 -0.15
2 -0.9
20 -0.15
21 0.27
26 0.15
29 0.15
3 -0.15
30 0.15
31 0.15
34 0.15
35 0.15
36 0.15
37 0.15
38 0.36
4 -0.33
5 -0.14
6 0.14
7 -0.02
9 0.14

>  <PUBCHEM_EFFECTIVE_ROTOR_COUNT>  (1) 
3.4

>  <PUBCHEM_PHARMACOPHORE_FEATURES>  (1) 
7
1 1 cation
1 2 cation
1 2 donor
5 1 3 4 8 11 rings
6 3 5 8 13 14 18 rings
6 7 10 15 17 19 20 rings
7 1 3 5 6 7 9 10 rings

>  <PUBCHEM_HEAVY_ATOM_COUNT>  (1) 
21

>  <PUBCHEM_ATOM_DEF_STEREO_COUNT>  (1) 
0

>  <PUBCHEM_ATOM_UDEF_STEREO_COUNT>  (1) 
0

>  <PUBCHEM_BOND_DEF_STEREO_COUNT>  (1) 
0

>  <PUBCHEM_BOND_UDEF_STEREO_COUNT>  (1) 
0

>  <PUBCHEM_ISOTOPIC_ATOM_COUNT>  (1) 
0

>  <PUBCHEM_COMPONENT_COUNT>  (1) 
1

>  <PUBCHEM_CACTVS_TAUTO_COUNT>  (1) 
1

>  <PUBCHEM_CONFORMER_ID>  (1) 
0000A5A100000001

>  <PUBCHEM_MMFF94_ENERGY>  (1) 
69.0574

>  <PUBCHEM_FEATURE_SELFOVERLAP>  (1) 
35.66

>  <PUBCHEM_SHAPE_FINGERPRINT>  (1) 
10411042 1 17906171750737278883
10493431 412 18267862967987860176
10967382 1 18410285883340941646
1100329 8 18339075016562547704
11578080 2 16050697925201400858
12553582 1 18194956349278644375
12788726 201 16968011727480738936
12954195 1 17038965395102874140
13140716 1 18337382863666607554
13785724 45 17766292977126660471
138480 1 18194402186838509175
14178342 30 17691390232894765344
14790565 3 18410583876963190332
14863182 85 18336274435507695230
14866123 147 18050285062048966074
14955137 171 18409733920030271938
15927050 60 18267588099171679470
16728300 4 17462537556815020626
16945 1 18337936918800702948
17138139 8 17412154914768515951
19591789 44 18337954600843547966
20028762 73 18201433722781291015
20157964 124 18411418389836303085
20510252 161 16970827576701379480
20645477 70 18262508213981093157
20739085 24 18335430040753448189
20905425 154 17765152766009090254
21197605 99 18119823641031728083
21421861 104 18126303964701542153
2334 1 18048585216940425470
23419403 2 17750496404669600479
23558518 356 17614560775698447220
238 59 17612821120474438967
2748010 2 17763160468082323822
3060560 45 18411705378453366886
3091708 16 9114440671486484441
3178227 256 18336845137744983409
335352 9 18338799030681018956
3421961 26 18266182721606089883
484985 159 13995022970177447258
57527306 92 15481801542451488626
6438718 38 17266960065649416447
6443956 14 18120377549561330885
7832392 63 18267581506307170076
81228 2 17109309945185719112
8272917 22 18412270502209041313

>  <PUBCHEM_SHAPE_MULTIPOLES>  (1) 
422.21
6.51
5.36
0.81
12.82
2.9
0.06
-3.68
2.22
-3.75
-0.7
0.06
0.21
-0.71

>  <PUBCHEM_SHAPE_SELFOVERLAP>  (1) 
932.984

>  <PUBCHEM_SHAPE_VOLUME>  (1) 
225.4

>  <PUBCHEM_COORDINATE_TYPE>  (1) 
2
5
10

$$$$
