42402
     RDKit          3D

 23 26  0  0  0  0  0  0  0  0999 V2000
    0.3899   -0.0464   -0.2128 N   0  0  0  0  0  0  0  0  0  0  0  0
   -4.4354   -0.1618    0.5744 N   0  0  0  0  0  0  0  0  0  0  0  0
    1.3464    0.9683   -0.0697 C   0  0  0  0  0  0  0  0  0  0  0  0
   -0.8387    0.5615   -0.4155 C   0  0  0  0  0  0  0  0  0  0  0  0
    0.6843    2.1971   -0.2285 C   0  0  0  0  0  0  0  0  0  0  0  0
   -0.6854    1.9230   -0.4307 C   0  0  0  0  0  0  0  0  0  0  0  0
    2.7422    0.9239    0.1449 C   0  0  0  0  0  0  0  0  0  0  0  0
    0.5894   -1.4674   -0.1929 C   0  0  0  0  0  0  0  0  0  0  0  0
    3.5209   -0.3483    0.3179 C   0  0  0  0  0  0  0  0  0  0  0  0
   -2.1654   -0.1094   -0.4154 C   0  0  0  0  0  0  0  0  0  0  0  0
    2.7651   -1.3378    1.1892 C   0  0  0  0  0  0  0  0  0  0  0  0
    1.7005   -2.0776    0.4201 C   0  0  0  0  0  0  0  0  0  0  0  0
    1.4107    3.4034   -0.1700 C   0  0  0  0  0  0  0  0  0  0  0  0
   -3.1509    0.5303    0.5737 C   0  0  0  0  0  0  0  0  0  0  0  0
    3.4380    2.1503    0.1715 C   0  0  0  0  0  0  0  0  0  0  0  0
   -1.7600    2.9250   -0.6006 C   0  0  0  0  0  0  0  0  0  0  0  0
   -0.3743   -2.2851   -0.8199 C   0  0  0  0  0  0  0  0  0  0  0  0
    2.7875    3.3676    0.0242 C   0  0  0  0  0  0  0  0  0  0  0  0
    1.8104   -3.4850    0.3815 C   0  0  0  0  0  0  0  0  0  0  0  0
   -0.2416   -3.6744   -0.8473 C   0  0  0  0  0  0  0  0  0  0  0  0
    0.8524   -4.2759   -0.2469 C   0  0  0  0  0  0  0  0  0  0  0  0
   -5.0652   -0.0789   -0.7442 C   0  0  0  0  0  0  0  0  0  0  0  0
   -5.3209    0.3977    1.5967 C   0  0  0  0  0  0  0  0  0  0  0  0
  1  3  1  0
  1  4  1  0
  1  8  1  0
  2 14  1  0
  2 22  1  0
  2 23  1  0
  3  5  2  0
  3  7  1  0
  4  6  2  0
  4 10  1  0
  5  6  1  0
  5 13  1  0
  6 16  1  0
  7  9  1  0
  7 15  2  0
  8 12  2  0
  8 17  1  0
  9 11  1  0
 10 14  1  0
 11 12  1  0
 12 19  1  0
 13 18  2  0
 15 18  1  0
 17 20  2  0
 19 21  2  0
 20 21  1  0
M  END
>  <PUBCHEM_COMPOUND_CID>  (1) 
42402

>  <PUBCHEM_CONFORMER_RMSD>  (1) 
0.6

>  <PUBCHEM_CONFORMER_DIVERSEORDER>  (1) 
3
2
1
4

>  <PUBCHEM_MMFF94_PARTIAL_CHARGES>  (1) 
29
1 0.33
10 0.18
11 0.14
12 -0.14
13 -0.15
14 0.27
15 -0.15
16 0.18
17 -0.15
18 -0.15
19 -0.15
2 -0.81
20 -0.15
21 -0.15
22 0.27
23 0.27
3 -0.15
30 0.15
33 0.15
37 0.15
38 0.15
39 0.15
4 -0.33
40 0.15
41 0.15
6 -0.18
7 -0.14
8 -0.02
9 0.14

>  <PUBCHEM_EFFECTIVE_ROTOR_COUNT>  (1) 
3.4

>  <PUBCHEM_PHARMACOPHORE_FEATURES>  (1) 
6
1 1 cation
1 2 cation
5 1 3 4 5 6 rings
6 3 5 7 13 15 18 rings
6 8 12 17 19 20 21 rings
7 1 3 7 8 9 11 12 rings

>  <PUBCHEM_HEAVY_ATOM_COUNT>  (1) 
23

>  <PUBCHEM_ATOM_DEF_STEREO_COUNT>  (1) 
0

>  <PUBCHEM_ATOM_UDEF_STEREO_COUNT>  (1) 
0

>  <PUBCHEM_BOND_DEF_STEREO_COUNT>  (1) 
0

>  <PUBCHEM_BOND_UDEF_STEREO_COUNT>  (1) 
0

>  <PUBCHEM_ISOTOPIC_ATOM_COUNT>  (1) 
0

>  <PUBCHEM_COMPONENT_COUNT>  (1) 
1

>  <PUBCHEM_CACTVS_TAUTO_COUNT>  (1) 
1

>  <PUBCHEM_CONFORMER_ID>  (1) 
0000A5A200000003

>  <PUBCHEM_MMFF94_ENERGY>  (1) 
87.6388

>  <PUBCHEM_FEATURE_SELFOVERLAP>  (1) 
30.586

>  <PUBCHEM_SHAPE_FINGERPRINT>  (1) 
10411042 1 17978507529659360271
10493431 412 18195808689764885560
10967382 1 18410004459956683556
1100329 8 18339072821902642800
12553582 1 18267028245842543551
12788726 201 16966063916957347147
13140716 1 18265044915649073594
138480 1 18194681458259542238
14178342 30 17547839111474325272
14223421 5 18193274079249761667
14363568 33 18268998587896167578
14790565 3 18337962310305375101
14863182 85 18189634859192230677
14866123 147 18122621923576976082
14955137 171 18410015395207494682
15420108 30 18343021137977424155
15927050 60 18195530518113611926
16728300 4 17535153732834893514
16945 1 18337936957518868060
17138139 8 17412718968470568495
19591789 44 18337953518511717934
20028762 73 18201712994176041247
20101258 96 17548425808154206959
20645477 70 18334564734161055133
20739085 24 18335434460274802277
21197605 99 18048049738057668995
21421861 104 18126587651507178617
2334 1 17832414672499341204
23419403 2 17750493123251406223
23558518 356 17471572599883700708
23559900 14 17977654312703501501
2748010 2 17907277880993352654
3178227 256 18336561468298362888
335352 9 18338513166379496636
3380486 145 17833000346750595353
350125 39 18409729547827618828
484985 159 14283535929539437226
58807428 26 18339072821517917456
6438718 38 17483125125353862998
6443956 14 18120656833988559133
81228 2 17183055281156337536
8272917 22 18412269411229202421
9709674 26 17331669155380145159

>  <PUBCHEM_SHAPE_MULTIPOLES>  (1) 
463.37
7.13
5.26
0.97
11
2.83
0.2
-2.3
2.46
-4.16
-0.91
0.69
0.19
-0.4

>  <PUBCHEM_SHAPE_SELFOVERLAP>  (1) 
1018.142

>  <PUBCHEM_SHAPE_VOLUME>  (1) 
250.7

>  <PUBCHEM_COORDINATE_TYPE>  (1) 
2
5
10

$$$$
