42414
     RDKit          3D

 21 23  0  0  0  0  0  0  0  0999 V2000
   -3.4781    2.1251   -0.2542 O   0  0  0  0  0  0  0  0  0  0  0  0
   -4.8429   -0.2701    0.0822 O   0  0  0  0  0  0  0  0  0  0  0  0
    1.4462   -1.3994    0.1752 N   0  0  0  0  0  0  0  0  0  0  0  0
   -0.6797   -0.2263    0.0370 C   0  0  0  0  0  0  0  0  0  0  0  0
    0.7159   -0.2707    0.0298 C   0  0  0  0  0  0  0  0  0  0  0  0
    1.5308    0.9716   -0.1455 C   0  0  0  0  0  0  0  0  0  0  0  0
   -1.3688   -1.4448    0.2080 C   0  0  0  0  0  0  0  0  0  0  0  0
   -1.4017    0.9687   -0.1177 C   0  0  0  0  0  0  0  0  0  0  0  0
    3.0247    0.7290   -0.1268 C   0  0  0  0  0  0  0  0  0  0  0  0
   -2.7732   -1.4397    0.2203 C   0  0  0  0  0  0  0  0  0  0  0  0
   -2.7962    0.9554   -0.1027 C   0  0  0  0  0  0  0  0  0  0  0  0
   -3.4804   -0.2462    0.0658 C   0  0  0  0  0  0  0  0  0  0  0  0
   -0.6311   -2.6245    0.3602 C   0  0  0  0  0  0  0  0  0  0  0  0
    0.7530   -2.5466    0.3366 C   0  0  0  0  0  0  0  0  0  0  0  0
    3.6801    0.4591   -1.3155 C   0  0  0  0  0  0  0  0  0  0  0  0
    3.7025    0.7818    1.0786 C   0  0  0  0  0  0  0  0  0  0  0  0
    5.0568    0.2350   -1.2983 C   0  0  0  0  0  0  0  0  0  0  0  0
    5.0791    0.5579    1.0959 C   0  0  0  0  0  0  0  0  0  0  0  0
    5.7562    0.2844   -0.0926 C   0  0  0  0  0  0  0  0  0  0  0  0
   -3.7906    2.8513    0.9328 C   0  0  0  0  0  0  0  0  0  0  0  0
   -5.5026   -0.4511   -1.1690 C   0  0  0  0  0  0  0  0  0  0  0  0
  1 11  1  0
  1 20  1  0
  2 12  1  0
  2 21  1  0
  3  5  2  0
  3 14  1  0
  4  5  1  0
  4  7  2  0
  4  8  1  0
  5  6  1  0
  6  9  1  0
  7 10  1  0
  7 13  1  0
  8 11  2  0
  9 15  2  0
  9 16  1  0
 10 12  2  0
 11 12  1  0
 13 14  2  0
 15 17  1  0
 16 18  2  0
 17 19  2  0
 18 19  1  0
M  END
>  <PUBCHEM_COMPOUND_CID>  (1) 
42414

>  <PUBCHEM_CONFORMER_RMSD>  (1) 
0.6

>  <PUBCHEM_CONFORMER_DIVERSEORDER>  (1) 
1
29
6
19
28
26
14
21
25
30
27
32
31
12
5
23
22
13
10
2
20
11
9
4
3
24
18
17
7
8
15
16

>  <PUBCHEM_MMFF94_PARTIAL_CHARGES>  (1) 
28
1 -0.36
10 -0.15
11 0.08
12 0.08
13 -0.15
14 0.16
15 -0.15
16 -0.15
17 -0.15
18 -0.15
19 -0.15
2 -0.36
20 0.28
21 0.28
24 0.15
25 0.15
26 0.15
27 0.15
28 0.15
29 0.15
3 -0.62
30 0.15
31 0.15
32 0.15
5 0.17
6 0.29
8 -0.15
9 -0.14

>  <PUBCHEM_EFFECTIVE_ROTOR_COUNT>  (1) 
4

>  <PUBCHEM_PHARMACOPHORE_FEATURES>  (1) 
6
1 1 acceptor
1 2 acceptor
1 3 acceptor
6 3 4 5 7 13 14 rings
6 4 7 8 10 11 12 rings
6 9 15 16 17 18 19 rings

>  <PUBCHEM_HEAVY_ATOM_COUNT>  (1) 
21

>  <PUBCHEM_ATOM_DEF_STEREO_COUNT>  (1) 
0

>  <PUBCHEM_ATOM_UDEF_STEREO_COUNT>  (1) 
0

>  <PUBCHEM_BOND_DEF_STEREO_COUNT>  (1) 
0

>  <PUBCHEM_BOND_UDEF_STEREO_COUNT>  (1) 
0

>  <PUBCHEM_ISOTOPIC_ATOM_COUNT>  (1) 
0

>  <PUBCHEM_COMPONENT_COUNT>  (1) 
1

>  <PUBCHEM_CACTVS_TAUTO_COUNT>  (1) 
1

>  <PUBCHEM_CONFORMER_ID>  (1) 
0000A5AE00000001

>  <PUBCHEM_MMFF94_ENERGY>  (1) 
85.1256

>  <PUBCHEM_FEATURE_SELFOVERLAP>  (1) 
30.478

>  <PUBCHEM_SHAPE_FINGERPRINT>  (1) 
10411042 1 17688875662634618163
10646746 165 18412825802709586048
10670039 82 18334583404241869140
11315181 36 18186804716505246372
11552529 35 16227194667239754728
12011746 2 18335697265149282221
12236239 1 17385721439391328262
12390115 104 18199762366422783857
12403259 415 18202003248392594944
12403260 363 18410569634370997652
12592029 89 18259705592690291770
12596602 18 16733269048745806296
12788726 201 17390524243647645770
12916748 109 18412266159506397376
13140716 1 18048885383762573227
13540713 5 18124584294393026739
14251751 93 18131066039217241399
14466204 15 18410286983111578336
14573314 32 18272375256797930484
15042514 8 18191873546555897819
15183329 4 18187089425945720246
15196674 1 18337953381094032202
16752209 62 18336826493761534026
18186145 218 17988651800214607330
19489759 90 18342455949887086104
200 152 14764354829655548178
20645477 70 16702315533582607284
21033648 29 17560790035741706328
21279426 13 18198910206409090766
212916 134 18340473535292082786
21524375 3 18260545627852519443
22122407 14 15864078667064982757
221357 26 17989204854284219441
22182313 1 18266766668990788447
23366157 5 17824263687433374098
23402539 116 18339353179845290207
23536379 177 15984831436473997011
23557571 272 18202293493217841717
23559900 14 18270408316806817100
25147074 1 18266449920048283019
2838139 119 16444165605059894351
2916195 48 18059847390132517960
3004659 81 18261397720549495006
351380 180 18272929470418677752
469060 322 18265918941852980665
474 4 17676489445235348778
495365 180 17489582381920472530
5104073 3 18264211318320965483
5385378 56 18337961069259812651
58051976 378 18411418419009348935
59755656 215 18411417302117567407
633830 44 18272928311073245036
7226269 152 18202282481686631664
7495541 125 14404895955156822070
9862522 239 17896022287491328596
9981440 41 18333732399337606331

>  <PUBCHEM_SHAPE_MULTIPOLES>  (1) 
415.45
11.9
2.36
1.02
4.9
0.3
0.13
-4.14
1.67
-2.48
-0.64
0.7
-0.18
-0.36

>  <PUBCHEM_SHAPE_SELFOVERLAP>  (1) 
909.616

>  <PUBCHEM_SHAPE_VOLUME>  (1) 
225.7

>  <PUBCHEM_COORDINATE_TYPE>  (1) 
2
5
10

$$$$
