42421
     RDKit          3D

 22 24  0  0  1  0  0  0  0  0999 V2000
   -3.5094    2.6944    0.2219 Cl  0  0  0  0  0  0  0  0  0  0  0  0
    4.7554    1.5520   -0.1087 O   0  0  0  0  0  0  0  0  0  0  0  0
    4.9362   -0.9896    0.9954 O   0  0  0  0  0  0  0  0  0  0  0  0
   -0.9093   -1.4113   -0.4352 N   0  0  0  0  0  0  0  0  0  0  0  0
   -1.1064    0.0422   -0.5821 C   0  0  0  0  0  0  0  0  0  0  0  0
    0.0592    0.7154   -1.3148 C   0  0  0  0  0  0  0  0  0  0  0  0
   -2.4167    0.2651   -1.3299 C   0  0  0  0  0  0  0  0  0  0  0  0
    1.3562    0.3261   -0.6685 C   0  0  0  0  0  0  0  0  0  0  0  0
    1.4657   -0.9502   -0.1122 C   0  0  0  0  0  0  0  0  0  0  0  0
   -3.6095    0.0517   -0.4378 C   0  0  0  0  0  0  0  0  0  0  0  0
    0.2858   -1.8186   -0.1688 C   0  0  0  0  0  0  0  0  0  0  0  0
    2.4736    1.1626   -0.6702 C   0  0  0  0  0  0  0  0  0  0  0  0
    2.6594   -1.4052    0.4422 C   0  0  0  0  0  0  0  0  0  0  0  0
    3.6731    0.7232   -0.1045 C   0  0  0  0  0  0  0  0  0  0  0  0
    3.7652   -0.5565    0.4494 C   0  0  0  0  0  0  0  0  0  0  0  0
   -4.1599    1.0973    0.2939 C   0  0  0  0  0  0  0  0  0  0  0  0
   -4.1494   -1.2272   -0.3652 C   0  0  0  0  0  0  0  0  0  0  0  0
   -5.2661    0.8608    1.1099 C   0  0  0  0  0  0  0  0  0  0  0  0
   -5.2556   -1.4635    0.4510 C   0  0  0  0  0  0  0  0  0  0  0  0
   -5.8139   -0.4197    1.1886 C   0  0  0  0  0  0  0  0  0  0  0  0
    4.9185    2.4092    1.0190 C   0  0  0  0  0  0  0  0  0  0  0  0
    5.8478   -1.6583    0.1265 C   0  0  0  0  0  0  0  0  0  0  0  0
  1 16  1  0
  2 14  1  0
  2 21  1  0
  3 15  1  0
  3 22  1  0
  4  5  1  0
  4 11  2  0
  5  6  1  0
  5  7  1  0
  6  8  1  0
  7 10  1  0
  8  9  2  0
  8 12  1  0
  9 11  1  0
  9 13  1  0
 10 16  2  0
 10 17  1  0
 12 14  2  0
 13 15  2  0
 14 15  1  0
 16 18  1  0
 17 19  2  0
 18 20  2  0
 19 20  1  0
M  END
>  <PUBCHEM_COMPOUND_CID>  (1) 
42421

>  <PUBCHEM_CONFORMER_RMSD>  (1) 
0.8

>  <PUBCHEM_CONFORMER_DIVERSEORDER>  (1) 
1
40
18
39
7
35
12
36
26
9
22
37
15
27
21
17
4
30
3
11
14
10
24
6
38
29
34
5
23
31
33
20
28
19
16
25
32
8
13
2

>  <PUBCHEM_MMFF94_PARTIAL_CHARGES>  (1) 
29
1 -0.18
10 -0.14
11 0.3
12 -0.15
13 -0.15
14 0.08
15 0.08
16 0.18
17 -0.15
18 -0.15
19 -0.15
2 -0.36
20 -0.15
21 0.28
22 0.28
28 0.06
29 0.15
3 -0.36
30 0.15
31 0.15
32 0.15
33 0.15
34 0.15
4 -0.7
5 0.25
6 0.14
7 0.14
8 -0.14
9 0.09

>  <PUBCHEM_EFFECTIVE_ROTOR_COUNT>  (1) 
4.4

>  <PUBCHEM_PHARMACOPHORE_FEATURES>  (1) 
6
1 2 acceptor
1 3 acceptor
1 4 acceptor
6 10 16 17 18 19 20 rings
6 4 5 6 8 9 11 rings
6 8 9 12 13 14 15 rings

>  <PUBCHEM_HEAVY_ATOM_COUNT>  (1) 
22

>  <PUBCHEM_ATOM_DEF_STEREO_COUNT>  (1) 
0

>  <PUBCHEM_ATOM_UDEF_STEREO_COUNT>  (1) 
1

>  <PUBCHEM_BOND_DEF_STEREO_COUNT>  (1) 
0

>  <PUBCHEM_BOND_UDEF_STEREO_COUNT>  (1) 
0

>  <PUBCHEM_ISOTOPIC_ATOM_COUNT>  (1) 
0

>  <PUBCHEM_COMPONENT_COUNT>  (1) 
1

>  <PUBCHEM_CACTVS_TAUTO_COUNT>  (1) 
1

>  <PUBCHEM_CONFORMER_ID>  (1) 
0000A5B500000001

>  <PUBCHEM_MMFF94_ENERGY>  (1) 
83.5166

>  <PUBCHEM_FEATURE_SELFOVERLAP>  (1) 
30.477

>  <PUBCHEM_SHAPE_FINGERPRINT>  (1) 
10366900 7 15068623777110047348
11796584 16 13334730219859497305
12107183 9 17688025319396639057
12166972 35 18408610262112260048
12236239 1 18343301483340747767
12363563 72 15430044253562225781
12403259 415 18187356619480834644
12596602 18 18408323302377592017
12616971 3 17988916773774005460
12670543 26 10807943668911335450
12892183 10 18408322177027620797
13675066 3 18059855026204250127
13782708 43 16299220212743786354
14251764 18 18261108587329376474
14341114 176 18334580148360986265
14341114 328 18202289112852034729
14849402 71 18338799022339276864
15081414 286 18335415799169344364
15196674 1 18408601461354628660
15209294 21 18413673517505467613
15238133 3 17275101726357442424
15475509 35 16733529539276934218
15788980 27 17489585649451451759
15880784 105 18334297573967580851
17349148 13 16298393443843322183
17844677 252 18413112736099112916
17870717 6 12757152373033502537
1813 80 16298104293665167278
18222031 100 15357696396596353390
20028762 73 18336264626098602115
20739085 24 18187088325864315460
21033648 29 17603850204992917117
21065198 48 18409450276063168365
21267235 1 18261112938094622894
21637258 2 15068613864979422298
23402539 116 13038895621221560066
23522609 53 17679331605848047788
23559900 14 17984144760123786671
26918003 58 17967256408277522099
350125 39 18337107874586619740
392239 28 18342465863246748721
4072396 5 11959726024465634526
4093350 32 17418094339606634988
4280585 95 7923431010168206440
465052 167 17894633630460521994
5104073 3 18334568019399963528
542803 24 17704074009942711215
960060 61 10159700209362157928
9996256 80 18412262856608299814

>  <PUBCHEM_SHAPE_MULTIPOLES>  (1) 
437.9
14.44
2.26
1.1
0.14
0.9
0.03
0.29
-5.6
-0.82
-0.39
0.41
0.17
-0.05

>  <PUBCHEM_SHAPE_SELFOVERLAP>  (1) 
936.097

>  <PUBCHEM_SHAPE_VOLUME>  (1) 
244.9

>  <PUBCHEM_COORDINATE_TYPE>  (1) 
2
5
10

$$$$
