42429
     RDKit          3D

 14 15  0  0  0  0  0  0  0  0999 V2000
    0.8436    1.6527    0.0893 O   0  0  0  0  0  0  0  0  0  0  0  0
   -3.7914    0.6865   -0.0134 O   0  0  0  0  0  0  0  0  0  0  0  0
    4.8193    0.0878   -0.0458 O   0  0  0  0  0  0  0  0  0  0  0  0
    0.1380   -0.6786    0.0245 C   0  0  0  0  0  0  0  0  0  0  0  0
   -0.1309    0.6939    0.0383 C   0  0  0  0  0  0  0  0  0  0  0  0
    2.2042    1.2405   -0.1178 C   0  0  0  0  0  0  0  0  0  0  0  0
    2.4787   -0.2254   -0.0101 C   0  0  0  0  0  0  0  0  0  0  0  0
    1.5165   -1.1477    0.0611 C   0  0  0  0  0  0  0  0  0  0  0  0
   -1.4512    1.1512    0.0311 C   0  0  0  0  0  0  0  0  0  0  0  0
   -0.9255   -1.5885   -0.0050 C   0  0  0  0  0  0  0  0  0  0  0  0
   -2.5058    0.2398   -0.0020 C   0  0  0  0  0  0  0  0  0  0  0  0
   -2.2433   -1.1286   -0.0209 C   0  0  0  0  0  0  0  0  0  0  0  0
    3.8691   -0.6833    0.0156 C   0  0  0  0  0  0  0  0  0  0  0  0
   -4.8214   -0.3003   -0.0449 C   0  0  0  0  0  0  0  0  0  0  0  0
  1  5  1  0
  1  6  1  0
  2 11  1  0
  2 14  1  0
  3 13  2  0
  4  5  2  0
  4  8  1  0
  4 10  1  0
  5  9  1  0
  6  7  1  0
  7  8  2  0
  7 13  1  0
  9 11  2  0
 10 12  2  0
 11 12  1  0
M  END
>  <PUBCHEM_COMPOUND_CID>  (1) 
42429

>  <PUBCHEM_CONFORMER_RMSD>  (1) 
0.6

>  <PUBCHEM_CONFORMER_DIVERSEORDER>  (1) 
1
2

>  <PUBCHEM_MMFF94_PARTIAL_CHARGES>  (1) 
19
1 -0.36
10 -0.15
11 0.08
12 -0.15
13 0.5
14 0.28
17 0.15
18 0.15
19 0.15
2 -0.36
20 0.15
21 0.06
3 -0.57
4 0.03
5 0.08
6 0.42
7 -0.12
8 -0.18
9 -0.15

>  <PUBCHEM_EFFECTIVE_ROTOR_COUNT>  (1) 
2.4

>  <PUBCHEM_PHARMACOPHORE_FEATURES>  (1) 
5
1 1 acceptor
1 2 acceptor
1 3 acceptor
6 1 4 5 6 7 8 rings
6 4 5 9 10 11 12 rings

>  <PUBCHEM_HEAVY_ATOM_COUNT>  (1) 
14

>  <PUBCHEM_ATOM_DEF_STEREO_COUNT>  (1) 
0

>  <PUBCHEM_ATOM_UDEF_STEREO_COUNT>  (1) 
0

>  <PUBCHEM_BOND_DEF_STEREO_COUNT>  (1) 
0

>  <PUBCHEM_BOND_UDEF_STEREO_COUNT>  (1) 
0

>  <PUBCHEM_ISOTOPIC_ATOM_COUNT>  (1) 
0

>  <PUBCHEM_COMPONENT_COUNT>  (1) 
1

>  <PUBCHEM_CACTVS_TAUTO_COUNT>  (1) 
1

>  <PUBCHEM_CONFORMER_ID>  (1) 
0000A5BD00000001

>  <PUBCHEM_MMFF94_ENERGY>  (1) 
46.0086

>  <PUBCHEM_FEATURE_SELFOVERLAP>  (1) 
25.402

>  <PUBCHEM_SHAPE_FINGERPRINT>  (1) 
10130415 120 18409445890695740016
10967382 1 18410573963740197514
11132069 177 18412259545367518250
11401426 45 18413384341203969670
11471102 20 18410008844785840485
12032990 46 18411143514994938831
13221675 6 18409449176213962890
13380535 76 18411421704422265143
13690532 89 18410011013754932826
13862211 1 18410849949738342763
14115302 16 18041289836777996030
14325111 11 18410575115092002757
14911166 2 18410292510206441175
14993402 34 18411136922251697111
15196674 1 18410573985151451137
15536298 74 18271242828361599064
15775835 57 18259985954985362714
16945 1 18411145718328875515
17802600 8 18409444786810231381
18522853 276 18341895186108909384
200 152 18060697299651094191
20201158 50 18413109446191236894
20510252 161 18129662984934027448
21267235 1 18410865360033385127
21501502 16 18266741478953999007
23402539 116 18130781248863446477
23402655 69 18341323397777476861
23463225 33 18408322164279745286
23557571 272 13470419854521145747
23559900 14 18342175579771726098
2748010 2 18194401323302039391
366044 4 18410573981136493995
5104073 3 18338517550775793115
528886 8 18411414012056359586
53655031 270 18411138008851977851
53812653 166 18412822486725717386
69090 78 18272646861591804087
7364860 26 18270398437912882080
8809292 202 18260553367473348787

>  <PUBCHEM_SHAPE_MULTIPOLES>  (1) 
270.51
7.69
1.5
0.6
0.25
0.06
0
-0.32
0.16
-0.03
-0.01
0.01
-0.02
-0.04

>  <PUBCHEM_SHAPE_SELFOVERLAP>  (1) 
582.587

>  <PUBCHEM_SHAPE_VOLUME>  (1) 
148.7

>  <PUBCHEM_COORDINATE_TYPE>  (1) 
2
5
10

$$$$
