42427
     RDKit          3D

 13 14  0  0  0  0  0  0  0  0999 V2000
   -4.3617    1.4287    0.0506 Br  0  0  0  0  0  0  0  0  0  0  0  0
    0.7755   -1.7582   -0.0749 O   0  0  0  0  0  0  0  0  0  0  0  0
    4.4253    0.4635    0.0420 O   0  0  0  0  0  0  0  0  0  0  0  0
   -0.3181    0.4188   -0.0300 C   0  0  0  0  0  0  0  0  0  0  0  0
   -0.3487   -0.9797   -0.0302 C   0  0  0  0  0  0  0  0  0  0  0  0
    2.0449   -1.1176    0.1306 C   0  0  0  0  0  0  0  0  0  0  0  0
    2.0656    0.3722    0.0058 C   0  0  0  0  0  0  0  0  0  0  0  0
    0.9601    1.1159   -0.0744 C   0  0  0  0  0  0  0  0  0  0  0  0
   -1.5215    1.1338   -0.0066 C   0  0  0  0  0  0  0  0  0  0  0  0
   -1.5714   -1.6558   -0.0155 C   0  0  0  0  0  0  0  0  0  0  0  0
   -2.7414    0.4557    0.0172 C   0  0  0  0  0  0  0  0  0  0  0  0
   -2.7661   -0.9376    0.0120 C   0  0  0  0  0  0  0  0  0  0  0  0
    3.3575    1.0603   -0.0267 C   0  0  0  0  0  0  0  0  0  0  0  0
  1 11  1  0
  2  5  1  0
  2  6  1  0
  3 13  2  0
  4  5  2  0
  4  8  1  0
  4  9  1  0
  5 10  1  0
  6  7  1  0
  7  8  2  0
  7 13  1  0
  9 11  2  0
 10 12  2  0
 11 12  1  0
M  END
>  <PUBCHEM_COMPOUND_CID>  (1) 
42427

>  <PUBCHEM_CONFORMER_RMSD>  (1) 
0.4

>  <PUBCHEM_CONFORMER_DIVERSEORDER>  (1) 
1
2

>  <PUBCHEM_MMFF94_PARTIAL_CHARGES>  (1) 
18
1 -0.11
10 -0.15
11 0.11
12 -0.15
13 0.5
16 0.15
17 0.15
18 0.15
19 0.15
2 -0.36
20 0.06
3 -0.57
4 0.03
5 0.08
6 0.42
7 -0.12
8 -0.18
9 -0.15

>  <PUBCHEM_EFFECTIVE_ROTOR_COUNT>  (1) 
1.4

>  <PUBCHEM_PHARMACOPHORE_FEATURES>  (1) 
5
1 1 hydrophobe
1 2 acceptor
1 3 acceptor
6 2 4 5 6 7 8 rings
6 4 5 9 10 11 12 rings

>  <PUBCHEM_HEAVY_ATOM_COUNT>  (1) 
13

>  <PUBCHEM_ATOM_DEF_STEREO_COUNT>  (1) 
0

>  <PUBCHEM_ATOM_UDEF_STEREO_COUNT>  (1) 
0

>  <PUBCHEM_BOND_DEF_STEREO_COUNT>  (1) 
0

>  <PUBCHEM_BOND_UDEF_STEREO_COUNT>  (1) 
0

>  <PUBCHEM_ISOTOPIC_ATOM_COUNT>  (1) 
0

>  <PUBCHEM_COMPONENT_COUNT>  (1) 
1

>  <PUBCHEM_CACTVS_TAUTO_COUNT>  (1) 
1

>  <PUBCHEM_CONFORMER_ID>  (1) 
0000A5BB00000001

>  <PUBCHEM_MMFF94_ENERGY>  (1) 
32.5659

>  <PUBCHEM_FEATURE_SELFOVERLAP>  (1) 
25.402

>  <PUBCHEM_SHAPE_FINGERPRINT>  (1) 
10608611 8 18340484559919535552
10967382 1 18338234856028408397
11132069 177 18410570708376487824
11471102 20 18339357462006662413
11543360 7 15625929976222288721
12500047 106 18413101775527241857
13380535 21 18410582772744449903
13380535 76 18410855451723129367
14325111 11 18410856572540652140
14897335 6 18411697664887255901
15196674 1 18410575080389392514
15219456 202 18341057341126827047
15536298 74 18343021047677641830
15775835 57 18410013225758081305
16945 1 18338234997899628623
18186145 218 18269559343031532477
20645477 70 18271243794592227375
21501502 16 18410284800882913747
23402539 116 18201711873400163892
23402655 69 18271232817320470037
23463225 33 18334009493489346098
23559900 14 18273496793471901640
25 1 18339356375416879229
2748010 2 18410864230583587039
3312278 4 18413110580189008865
366044 4 18410855460138717827
449060 62 18341613664145930305
5104073 3 18409446985770002434
528886 8 18411414020661936521
53812653 166 18342173375441004384
6333449 129 18412823624865637895
69090 78 18412539895236799247
7364860 26 18269837506530734374

>  <PUBCHEM_SHAPE_MULTIPOLES>  (1) 
261.74
6.84
1.79
0.62
0.53
0.46
0
-3.2
-0.17
-0.48
0.01
-0.08
-0.02
-0.05

>  <PUBCHEM_SHAPE_SELFOVERLAP>  (1) 
551.612

>  <PUBCHEM_SHAPE_VOLUME>  (1) 
151.4

>  <PUBCHEM_COORDINATE_TYPE>  (1) 
2
5
10

$$$$
