42423
     RDKit          3D

 22 24  0  0  1  0  0  0  0  0999 V2000
   -7.1128   -0.3078    1.7925 Cl  0  0  0  0  0  0  0  0  0  0  0  0
    4.9863    1.4965    0.1323 O   0  0  0  0  0  0  0  0  0  0  0  0
    5.0199   -1.1224    1.0550 O   0  0  0  0  0  0  0  0  0  0  0  0
   -0.7660   -1.2006   -0.6513 N   0  0  0  0  0  0  0  0  0  0  0  0
   -0.9009    0.2666   -0.7002 C   0  0  0  0  0  0  0  0  0  0  0  0
    0.3217    0.9416   -1.3314 C   0  0  0  0  0  0  0  0  0  0  0  0
   -2.1662    0.5957   -1.4851 C   0  0  0  0  0  0  0  0  0  0  0  0
    1.5721    0.4543   -0.6603 C   0  0  0  0  0  0  0  0  0  0  0  0
    1.6076   -0.8617   -0.1942 C   0  0  0  0  0  0  0  0  0  0  0  0
   -3.4057    0.3688   -0.6627 C   0  0  0  0  0  0  0  0  0  0  0  0
    0.3994   -1.6746   -0.3643 C   0  0  0  0  0  0  0  0  0  0  0  0
    2.7193    1.2422   -0.5532 C   0  0  0  0  0  0  0  0  0  0  0  0
    2.7566   -1.4036    0.3761 C   0  0  0  0  0  0  0  0  0  0  0  0
    3.8742    0.7147    0.0298 C   0  0  0  0  0  0  0  0  0  0  0  0
    3.8924   -0.6038    0.4924 C   0  0  0  0  0  0  0  0  0  0  0  0
   -4.0224   -0.8747   -0.6833 C   0  0  0  0  0  0  0  0  0  0  0  0
   -3.9170    1.4066    0.1050 C   0  0  0  0  0  0  0  0  0  0  0  0
   -5.1721   -1.0846    0.0782 C   0  0  0  0  0  0  0  0  0  0  0  0
   -5.0666    1.1967    0.8666 C   0  0  0  0  0  0  0  0  0  0  0  0
   -5.6942   -0.0490    0.8533 C   0  0  0  0  0  0  0  0  0  0  0  0
    5.1302    2.2639    1.3253 C   0  0  0  0  0  0  0  0  0  0  0  0
    5.9442   -1.7646    0.1795 C   0  0  0  0  0  0  0  0  0  0  0  0
  1 20  1  0
  2 14  1  0
  2 21  1  0
  3 15  1  0
  3 22  1  0
  4  5  1  0
  4 11  2  0
  5  6  1  0
  5  7  1  0
  6  8  1  0
  7 10  1  0
  8  9  2  0
  8 12  1  0
  9 11  1  0
  9 13  1  0
 10 16  2  0
 10 17  1  0
 12 14  2  0
 13 15  2  0
 14 15  1  0
 16 18  1  0
 17 19  2  0
 18 20  2  0
 19 20  1  0
M  END
>  <PUBCHEM_COMPOUND_CID>  (1) 
42423

>  <PUBCHEM_CONFORMER_RMSD>  (1) 
0.8

>  <PUBCHEM_CONFORMER_DIVERSEORDER>  (1) 
1
16
14
8
17
18
2
5
15
4
11
12
10
13
6
9
7
3

>  <PUBCHEM_MMFF94_PARTIAL_CHARGES>  (1) 
29
1 -0.18
10 -0.14
11 0.3
12 -0.15
13 -0.15
14 0.08
15 0.08
16 -0.15
17 -0.15
18 -0.15
19 -0.15
2 -0.36
20 0.18
21 0.28
22 0.28
28 0.06
29 0.15
3 -0.36
30 0.15
31 0.15
32 0.15
33 0.15
34 0.15
4 -0.7
5 0.25
6 0.14
7 0.14
8 -0.14
9 0.09

>  <PUBCHEM_EFFECTIVE_ROTOR_COUNT>  (1) 
4.4

>  <PUBCHEM_PHARMACOPHORE_FEATURES>  (1) 
6
1 2 acceptor
1 3 acceptor
1 4 acceptor
6 10 16 17 18 19 20 rings
6 4 5 6 8 9 11 rings
6 8 9 12 13 14 15 rings

>  <PUBCHEM_HEAVY_ATOM_COUNT>  (1) 
22

>  <PUBCHEM_ATOM_DEF_STEREO_COUNT>  (1) 
0

>  <PUBCHEM_ATOM_UDEF_STEREO_COUNT>  (1) 
1

>  <PUBCHEM_BOND_DEF_STEREO_COUNT>  (1) 
0

>  <PUBCHEM_BOND_UDEF_STEREO_COUNT>  (1) 
0

>  <PUBCHEM_ISOTOPIC_ATOM_COUNT>  (1) 
0

>  <PUBCHEM_COMPONENT_COUNT>  (1) 
1

>  <PUBCHEM_CACTVS_TAUTO_COUNT>  (1) 
1

>  <PUBCHEM_CONFORMER_ID>  (1) 
0000A5B700000001

>  <PUBCHEM_MMFF94_ENERGY>  (1) 
81.3434

>  <PUBCHEM_FEATURE_SELFOVERLAP>  (1) 
30.477

>  <PUBCHEM_SHAPE_FINGERPRINT>  (1) 
10 15 18341619222271591345
10076449 9 18187090508372489118
10693767 8 8286215915313704288
11796584 16 14490470889855443929
12107183 9 17690843363451192825
12166972 35 18408046208236244552
12236239 1 18202280316584861367
12403259 415 18260819376589207916
12596602 18 18413108372734094185
12616971 3 18060127735252800068
12892183 10 18334573508315420077
13533116 47 18413388722746000890
13668630 136 14418142803051017539
13782708 43 16444179817075365562
14341114 176 18335423469415996885
14341114 328 18060704996253665601
146900 427 18341890822622616424
14848160 23 16732983141874379835
14849402 71 18341610477771535000
15081414 286 18408878560525179580
15183329 4 10231765478475202969
15188451 53 15719389568822035897
15238133 3 16845850196424527226
15475509 35 16950831515405698762
15788980 27 17313100835164942199
15880784 105 18335421266245357019
17349148 13 14345798214734267173
17844677 252 18411702054091001684
1813 80 16153708717117981390
18222031 100 14996284712543233726
19377110 9 18340770446439153695
200 152 10953459613542413087
20028762 73 18408321112061289367
20739085 24 18333735689224279172
21150785 3 12901556744724586371
21267235 1 18261675879436939206
21637258 2 14418126322865811416
22224240 67 18411420644319470227
23198884 109 8862947169827213339
23402655 69 10087638208445171647
23522609 53 17534374195791167204
23559900 14 7853276606807410391
2838139 119 15841261559026347465
3004659 81 15140969460759235791
3009799 131 11167942450795452718
3178227 256 18410291372979650386
3663271 9 18343584070682320403
4072396 5 11743833622122359502
4093350 32 17275102848119411844
465052 167 17894915101078877358
5104073 3 18261665982961968496
542803 24 17704353277327389253
960060 61 9439403544878382720

>  <PUBCHEM_SHAPE_MULTIPOLES>  (1) 
437.9
16.42
1.87
1.29
8.58
0.18
-0.14
-0.13
-8.98
-2.31
-0.3
0.96
0.25
0.21

>  <PUBCHEM_SHAPE_SELFOVERLAP>  (1) 
935.171

>  <PUBCHEM_SHAPE_VOLUME>  (1) 
245.8

>  <PUBCHEM_COORDINATE_TYPE>  (1) 
2
5
10

$$$$
