42433
     RDKit          3D

 15 16  0  0  0  0  0  0  0  0999 V2000
   -0.2283    1.4415   -0.1200 O   0  0  0  0  0  0  0  0  0  0  0  0
   -2.9279    1.4179   -0.2677 O   0  0  0  0  0  0  0  0  0  0  0  0
    4.0391    1.0277   -0.5671 O   0  0  0  0  0  0  0  0  0  0  0  0
   -0.1654   -0.9928   -0.0371 C   0  0  0  0  0  0  0  0  0  0  0  0
   -0.8507    0.2233   -0.1246 C   0  0  0  0  0  0  0  0  0  0  0  0
    1.9152    0.1718   -0.0536 C   0  0  0  0  0  0  0  0  0  0  0  0
    1.2004    1.4674   -0.2689 C   0  0  0  0  0  0  0  0  0  0  0  0
    1.2879   -1.0008    0.0613 C   0  0  0  0  0  0  0  0  0  0  0  0
   -2.2463    0.2399   -0.1917 C   0  0  0  0  0  0  0  0  0  0  0  0
   -0.8885   -2.1916   -0.0257 C   0  0  0  0  0  0  0  0  0  0  0  0
   -2.9602   -0.9576   -0.1836 C   0  0  0  0  0  0  0  0  0  0  0  0
    3.3767    0.1777    0.0334 C   0  0  0  0  0  0  0  0  0  0  0  0
   -2.2820   -2.1722   -0.1015 C   0  0  0  0  0  0  0  0  0  0  0  0
    4.0420   -0.8765    0.8824 C   0  0  0  0  0  0  0  0  0  0  0  0
   -3.3120    2.0241    0.9644 C   0  0  0  0  0  0  0  0  0  0  0  0
  1  5  1  0
  1  7  1  0
  2  9  1  0
  2 15  1  0
  3 12  2  0
  4  5  2  0
  4  8  1  0
  4 10  1  0
  5  9  1  0
  6  7  1  0
  6  8  2  0
  6 12  1  0
  9 11  2  0
 10 13  2  0
 11 13  1  0
 12 14  1  0
M  END
>  <PUBCHEM_COMPOUND_CID>  (1) 
42433

>  <PUBCHEM_CONFORMER_RMSD>  (1) 
0.6

>  <PUBCHEM_CONFORMER_DIVERSEORDER>  (1) 
5
1
3
2
6
4

>  <PUBCHEM_MMFF94_PARTIAL_CHARGES>  (1) 
19
1 -0.36
10 -0.15
11 -0.15
12 0.49
13 -0.15
14 0.06
15 0.28
18 0.15
19 0.15
2 -0.36
20 0.15
21 0.15
3 -0.57
4 0.03
5 0.08
6 -0.12
7 0.42
8 -0.18
9 0.08

>  <PUBCHEM_EFFECTIVE_ROTOR_COUNT>  (1) 
2.4

>  <PUBCHEM_PHARMACOPHORE_FEATURES>  (1) 
5
1 1 acceptor
1 2 acceptor
1 3 acceptor
6 1 4 5 6 7 8 rings
6 4 5 9 10 11 13 rings

>  <PUBCHEM_HEAVY_ATOM_COUNT>  (1) 
15

>  <PUBCHEM_ATOM_DEF_STEREO_COUNT>  (1) 
0

>  <PUBCHEM_ATOM_UDEF_STEREO_COUNT>  (1) 
0

>  <PUBCHEM_BOND_DEF_STEREO_COUNT>  (1) 
0

>  <PUBCHEM_BOND_UDEF_STEREO_COUNT>  (1) 
0

>  <PUBCHEM_ISOTOPIC_ATOM_COUNT>  (1) 
0

>  <PUBCHEM_COMPONENT_COUNT>  (1) 
1

>  <PUBCHEM_CACTVS_TAUTO_COUNT>  (1) 
2

>  <PUBCHEM_CONFORMER_ID>  (1) 
0000A5C100000005

>  <PUBCHEM_MMFF94_ENERGY>  (1) 
54.0235

>  <PUBCHEM_FEATURE_SELFOVERLAP>  (1) 
25.409

>  <PUBCHEM_SHAPE_FINGERPRINT>  (1) 
10062212 137 18336253587810338842
10608611 8 18270677679337455936
10967382 1 18266458698333584511
11132069 177 18338228280771107912
12382932 28 18412546474673074560
12491281 212 18409454678035264905
13140716 1 18410292531765985656
13380535 21 18339651044206212006
13380535 76 18341328890634544311
14144814 61 18335980947676015674
14325111 11 18409165523978775660
15196674 1 18409446990413121894
15219456 202 18130796615903374062
15309172 13 18335705983843358553
15375462 189 18040994025295202184
15442244 35 18408318887303990544
15669948 3 18340200907726728310
15775835 57 18333734593580116377
16945 1 18339926038256640535
1741750 31 18200877275254679547
18186145 218 18269277854821552524
19422 9 18259702320030466370
200 152 18271231837841047303
20510252 161 18272655687775711475
20871998 184 18200879590184478215
21267235 1 18335708260324127674
21501502 16 18336266850669056532
21524375 3 18340762633688017823
2334 1 18265614479620106436
23402539 116 18272078427540029095
23463225 33 18334288760842557418
23559900 14 18272655602688917710
2748010 2 16681181515015049535
335352 9 18265894653538133942
5104073 3 18408600371060566768
5706482 22 18341327804202834787
58807428 26 18264766558534108355
6333449 129 18412542111202560079
6992083 37 18260552216501215165
7364860 26 17908986852622865636
90316 7 18042103411211540424

>  <PUBCHEM_SHAPE_MULTIPOLES>  (1) 
291.09
6.53
2.24
0.75
4.4
0.23
-0.1
-1.26
-0.8
-1.84
-0.16
0.07
-0.1
-0.82

>  <PUBCHEM_SHAPE_SELFOVERLAP>  (1) 
624.385

>  <PUBCHEM_SHAPE_VOLUME>  (1) 
160.5

>  <PUBCHEM_COORDINATE_TYPE>  (1) 
2
5
10

$$$$
