42438
     RDKit          3D

 12 13  0  0  0  0  0  0  0  0999 V2000
    0.0050    1.7697   -0.1258 O   0  0  0  0  0  0  0  0  0  0  0  0
    4.2817   -0.6074   -0.0335 N   0  0  0  0  0  0  0  0  0  0  0  0
   -0.5537   -0.5920   -0.0189 C   0  0  0  0  0  0  0  0  0  0  0  0
   -0.9124    0.7585   -0.0451 C   0  0  0  0  0  0  0  0  0  0  0  0
    1.3639    1.4437    0.2057 C   0  0  0  0  0  0  0  0  0  0  0  0
    0.8537   -0.9644   -0.0746 C   0  0  0  0  0  0  0  0  0  0  0  0
    1.7709    0.0045    0.0331 C   0  0  0  0  0  0  0  0  0  0  0  0
   -1.5547   -1.5689    0.0289 C   0  0  0  0  0  0  0  0  0  0  0  0
   -2.2586    1.1309   -0.0361 C   0  0  0  0  0  0  0  0  0  0  0  0
   -2.8996   -1.1952    0.0516 C   0  0  0  0  0  0  0  0  0  0  0  0
   -3.2510    0.1533    0.0181 C   0  0  0  0  0  0  0  0  0  0  0  0
    3.1550   -0.3328   -0.0035 C   0  0  0  0  0  0  0  0  0  0  0  0
  1  4  1  0
  1  5  1  0
  2 12  3  0
  3  4  2  0
  3  6  1  0
  3  8  1  0
  4  9  1  0
  5  7  1  0
  6  7  2  0
  7 12  1  0
  8 10  2  0
  9 11  2  0
 10 11  1  0
M  END
>  <PUBCHEM_COMPOUND_CID>  (1) 
42438

>  <PUBCHEM_CONFORMER_RMSD>  (1) 
0.4

>  <PUBCHEM_CONFORMER_DIVERSEORDER>  (1) 
1

>  <PUBCHEM_MMFF94_PARTIAL_CHARGES>  (1) 
17
1 -0.36
10 -0.15
11 -0.15
12 0.49
15 0.15
16 0.15
17 0.15
18 0.15
19 0.15
2 -0.56
3 0.03
4 0.08
5 0.42
6 -0.18
7 -0.07
8 -0.15
9 -0.15

>  <PUBCHEM_EFFECTIVE_ROTOR_COUNT>  (1) 
0.4

>  <PUBCHEM_PHARMACOPHORE_FEATURES>  (1) 
4
1 1 acceptor
1 2 acceptor
6 1 3 4 5 6 7 rings
6 3 4 8 9 10 11 rings

>  <PUBCHEM_HEAVY_ATOM_COUNT>  (1) 
12

>  <PUBCHEM_ATOM_DEF_STEREO_COUNT>  (1) 
0

>  <PUBCHEM_ATOM_UDEF_STEREO_COUNT>  (1) 
0

>  <PUBCHEM_BOND_DEF_STEREO_COUNT>  (1) 
0

>  <PUBCHEM_BOND_UDEF_STEREO_COUNT>  (1) 
0

>  <PUBCHEM_ISOTOPIC_ATOM_COUNT>  (1) 
0

>  <PUBCHEM_COMPONENT_COUNT>  (1) 
1

>  <PUBCHEM_CACTVS_TAUTO_COUNT>  (1) 
1

>  <PUBCHEM_CONFORMER_ID>  (1) 
0000A5C600000001

>  <PUBCHEM_MMFF94_ENERGY>  (1) 
31.194

>  <PUBCHEM_FEATURE_SELFOVERLAP>  (1) 
20.328

>  <PUBCHEM_SHAPE_FINGERPRINT>  (1) 
10465860 71 18267608891103026604
11132069 177 18411414003745817904
12032990 46 18411705391391230410
124424 183 18334008384897413671
12932764 1 17313371344684061329
13024252 1 16081372938491337387
14144814 61 18409727344160866306
14325111 11 18411136965270071696
14911166 2 18409157797485623741
15219456 202 18200586012195493224
15536298 74 18270682090553841864
16945 1 18411135827288179177
17804303 29 18341899601377403104
193761 8 17834394905504120654
200 152 17846487158836028815
20201158 50 18341895173224098399
20588541 1 18341052912925679174
20871998 184 18273496762452205871
21501502 16 18267590284930250781
23402539 116 18202556268623961125
23402655 69 18124014755997229845
23463225 33 18408322164237638222
23552423 10 18116431633924998501
23559900 14 18341046316852944522
2748010 2 18266453389843820389
5084963 1 18272089443592936475
528886 8 18411694361888691275
53812653 166 18341610378237440697
6333449 129 18341328920619973095
7364860 26 18197780122882939360
75552 356 18411420591930257219
8809292 202 18260834851119212747

>  <PUBCHEM_SHAPE_MULTIPOLES>  (1) 
236.1
5.58
1.63
0.61
3.36
0.26
0
-1.28
0.02
-0.46
0.01
-0.03
0
0.08

>  <PUBCHEM_SHAPE_SELFOVERLAP>  (1) 
512.152

>  <PUBCHEM_SHAPE_VOLUME>  (1) 
127.2

>  <PUBCHEM_COORDINATE_TYPE>  (1) 
2
5
10

$$$$
