42436
     RDKit          3D

 15 16  0  0  0  0  0  0  0  0999 V2000
    0.2637    2.2413   -0.0361 O   0  0  0  0  0  0  0  0  0  0  0  0
   -1.6530   -2.1998    0.2798 O   0  0  0  0  0  0  0  0  0  0  0  0
    4.0051    0.1860   -0.6350 O   0  0  0  0  0  0  0  0  0  0  0  0
   -0.6251   -0.0226    0.1127 C   0  0  0  0  0  0  0  0  0  0  0  0
    1.7419    0.2349   -0.0164 C   0  0  0  0  0  0  0  0  0  0  0  0
   -0.7845    1.3637    0.0174 C   0  0  0  0  0  0  0  0  0  0  0  0
    1.5805    1.7045   -0.2405 C   0  0  0  0  0  0  0  0  0  0  0  0
    0.7126   -0.5974    0.1554 C   0  0  0  0  0  0  0  0  0  0  0  0
   -1.7574   -0.8426    0.1857 C   0  0  0  0  0  0  0  0  0  0  0  0
   -2.0643    1.9243    0.0036 C   0  0  0  0  0  0  0  0  0  0  0  0
   -3.0347   -0.2804    0.1629 C   0  0  0  0  0  0  0  0  0  0  0  0
    3.0920   -0.3305    0.0141 C   0  0  0  0  0  0  0  0  0  0  0  0
   -3.1879    1.1018    0.0729 C   0  0  0  0  0  0  0  0  0  0  0  0
    3.3314   -1.5517    0.8663 C   0  0  0  0  0  0  0  0  0  0  0  0
   -1.6205   -2.9315   -0.9429 C   0  0  0  0  0  0  0  0  0  0  0  0
  1  6  1  0
  1  7  1  0
  2  9  1  0
  2 15  1  0
  3 12  2  0
  4  6  2  0
  4  8  1  0
  4  9  1  0
  5  7  1  0
  5  8  2  0
  5 12  1  0
  6 10  1  0
  9 11  2  0
 10 13  2  0
 11 13  1  0
 12 14  1  0
M  END
>  <PUBCHEM_COMPOUND_CID>  (1) 
42436

>  <PUBCHEM_CONFORMER_RMSD>  (1) 
0.6

>  <PUBCHEM_CONFORMER_DIVERSEORDER>  (1) 
5
1
2
3
4
6

>  <PUBCHEM_MMFF94_PARTIAL_CHARGES>  (1) 
19
1 -0.36
10 -0.15
11 -0.15
12 0.49
13 -0.15
14 0.06
15 0.28
18 0.15
19 0.15
2 -0.36
20 0.15
21 0.15
3 -0.57
4 0.03
5 -0.12
6 0.08
7 0.42
8 -0.18
9 0.08

>  <PUBCHEM_EFFECTIVE_ROTOR_COUNT>  (1) 
2.4

>  <PUBCHEM_PHARMACOPHORE_FEATURES>  (1) 
5
1 1 acceptor
1 2 acceptor
1 3 acceptor
6 1 4 5 6 7 8 rings
6 4 6 9 10 11 13 rings

>  <PUBCHEM_HEAVY_ATOM_COUNT>  (1) 
15

>  <PUBCHEM_ATOM_DEF_STEREO_COUNT>  (1) 
0

>  <PUBCHEM_ATOM_UDEF_STEREO_COUNT>  (1) 
0

>  <PUBCHEM_BOND_DEF_STEREO_COUNT>  (1) 
0

>  <PUBCHEM_BOND_UDEF_STEREO_COUNT>  (1) 
0

>  <PUBCHEM_ISOTOPIC_ATOM_COUNT>  (1) 
0

>  <PUBCHEM_COMPONENT_COUNT>  (1) 
1

>  <PUBCHEM_CACTVS_TAUTO_COUNT>  (1) 
2

>  <PUBCHEM_CONFORMER_ID>  (1) 
0000A5C400000005

>  <PUBCHEM_MMFF94_ENERGY>  (1) 
54.8649

>  <PUBCHEM_FEATURE_SELFOVERLAP>  (1) 
25.402

>  <PUBCHEM_SHAPE_FINGERPRINT>  (1) 
10616163 171 18411142446012741166
10967382 1 18337954484842501074
11132069 177 18410006616125231256
11321824 6 18271516580670886486
12553582 1 18194401323439988514
13083527 12 17406515544755689274
13140716 1 18339363092450201523
13380535 76 18268427941028970959
14144814 61 18408886200633019880
14965852 173 18340487871412920370
14993402 34 18410290277045181645
15006816 218 17981043003251231814
15279308 51 18340202011300967959
15309172 13 18268156366051935697
15375462 189 18186522094318334242
15415430 112 18337682991839200542
15669948 3 18410572894520207158
16945 1 18410570695338592113
17804303 29 18342178838866167120
193761 8 18122625212984068801
20510252 161 18129101130165761048
20645476 183 17605017882120597990
20871998 184 18341900701110836911
21267235 1 18335712606688366170
21501502 16 18266742569933902725
2334 1 18050287273403053481
23402539 116 18271794693120292317
23419403 2 16754587586997279121
23463225 33 18190178992835905778
23552423 10 18117561953221514805
23559900 14 18343019961736432260
257057 1 17910379916654159847
2748010 2 18122623014002822861
34934 24 18335977632066719232
43471831 8 18121217571997231147
465052 167 18115045068875497707
54173680 148 18338518646193244035
6338986 31 17839162349415586799
69090 78 18411976945177895755
7364860 26 18197499730248634272
74978 22 18410853299780873332
81228 2 18193543683248200315
8809292 202 18334863860741449210
90525 40 18411703162224186567

>  <PUBCHEM_SHAPE_MULTIPOLES>  (1) 
291.09
5.58
2.65
0.75
3.59
1.07
0.02
0.53
-0.18
-1.33
0.43
0.15
0.24
-0.61

>  <PUBCHEM_SHAPE_SELFOVERLAP>  (1) 
624.531

>  <PUBCHEM_SHAPE_VOLUME>  (1) 
160.1

>  <PUBCHEM_COORDINATE_TYPE>  (1) 
2
5
10

$$$$
