42444
     RDKit          3D

 15 16  0  0  1  0  0  0  0  0999 V2000
   -0.9130    1.6772    0.5192 O   0  0  0  0  0  0  0  0  0  0  0  0
    3.7380   -1.1825   -0.2602 O   0  0  0  0  0  0  0  0  0  0  0  0
   -4.5367   -1.5891    0.1136 N   0  0  0  0  0  0  0  0  0  0  0  0
   -2.1779    1.1132    0.1157 C   0  0  0  0  0  0  0  0  0  0  0  0
    0.1615   -0.4530    0.0674 C   0  0  0  0  0  0  0  0  0  0  0  0
    0.2075    0.9239    0.2989 C   0  0  0  0  0  0  0  0  0  0  0  0
   -2.2402   -0.3992    0.0874 C   0  0  0  0  0  0  0  0  0  0  0  0
   -1.1236   -1.1382    0.0632 C   0  0  0  0  0  0  0  0  0  0  0  0
   -2.5509    1.7229   -1.2362 C   0  0  0  0  0  0  0  0  0  0  0  0
    1.3550   -1.1593   -0.1192 C   0  0  0  0  0  0  0  0  0  0  0  0
    1.4338    1.5894    0.3564 C   0  0  0  0  0  0  0  0  0  0  0  0
    2.5799   -0.4913   -0.0757 C   0  0  0  0  0  0  0  0  0  0  0  0
    2.6191    0.8813    0.1635 C   0  0  0  0  0  0  0  0  0  0  0  0
   -3.5068   -1.0553    0.1019 C   0  0  0  0  0  0  0  0  0  0  0  0
    4.9545   -0.4400   -0.1959 C   0  0  0  0  0  0  0  0  0  0  0  0
  1  4  1  0
  1  6  1  0
  2 12  1  0
  2 15  1  0
  3 14  3  0
  4  7  1  0
  4  9  1  0
  5  6  2  0
  5  8  1  0
  5 10  1  0
  6 11  1  0
  7  8  2  0
  7 14  1  0
 10 12  2  0
 11 13  2  0
 12 13  1  0
M  END
>  <PUBCHEM_COMPOUND_CID>  (1) 
42444

>  <PUBCHEM_CONFORMER_RMSD>  (1) 
0.6

>  <PUBCHEM_CONFORMER_DIVERSEORDER>  (1) 
2
1

>  <PUBCHEM_MMFF94_PARTIAL_CHARGES>  (1) 
18
1 -0.36
10 -0.15
11 -0.15
12 0.08
13 -0.15
14 0.49
15 0.28
17 0.15
2 -0.36
21 0.15
22 0.15
23 0.15
3 -0.56
4 0.42
5 0.03
6 0.08
7 -0.07
8 -0.18

>  <PUBCHEM_EFFECTIVE_ROTOR_COUNT>  (1) 
1.4

>  <PUBCHEM_PHARMACOPHORE_FEATURES>  (1) 
5
1 1 acceptor
1 2 acceptor
1 3 acceptor
6 1 4 5 6 7 8 rings
6 5 6 10 11 12 13 rings

>  <PUBCHEM_HEAVY_ATOM_COUNT>  (1) 
15

>  <PUBCHEM_ATOM_DEF_STEREO_COUNT>  (1) 
0

>  <PUBCHEM_ATOM_UDEF_STEREO_COUNT>  (1) 
1

>  <PUBCHEM_BOND_DEF_STEREO_COUNT>  (1) 
0

>  <PUBCHEM_BOND_UDEF_STEREO_COUNT>  (1) 
0

>  <PUBCHEM_ISOTOPIC_ATOM_COUNT>  (1) 
0

>  <PUBCHEM_COMPONENT_COUNT>  (1) 
1

>  <PUBCHEM_CACTVS_TAUTO_COUNT>  (1) 
1

>  <PUBCHEM_CONFORMER_ID>  (1) 
0000A5CC00000002

>  <PUBCHEM_MMFF94_ENERGY>  (1) 
46.9238

>  <PUBCHEM_FEATURE_SELFOVERLAP>  (1) 
25.402

>  <PUBCHEM_SHAPE_FINGERPRINT>  (1) 
10608611 8 18410285921763967400
11471102 20 18341046423499055207
11543360 7 16081375205828232083
11806522 49 18411139156030342842
12032990 46 18413110571367024010
13288520 33 18341616992898701974
13296908 3 18342173358403364944
14115302 16 17895203262908302270
14911166 2 18267858398074020564
15196674 1 18412265047057211032
15219456 202 18341604945051355920
15536298 74 18200875175226882680
16945 1 18195806267318720144
17802600 8 18410290332668571422
17844478 74 18261394485700317881
18522853 276 18343865523946661584
19026448 5 16950561039492007514
1986462 14 18336549330615289062
200 152 17917985079875002639
20871999 31 18259703376196860477
21267235 1 18340497736916174834
21501502 16 18411428314371496577
21501925 9 18412820309303885874
221490 88 18336833116157875843
23402539 116 18412821395793780039
23557571 272 18410580556530626661
23559900 14 18197492931948102066
25 1 17976246942516368621
2748010 2 18340475738046121017
2871803 45 18334006220566316283
3286 77 17846499296160373761
3312278 4 18339923701672865448
5104073 3 18341892957437569514
7364860 26 18199187472234039864
83771 10 18413110588847534563
8809292 202 18262523700884602611

>  <PUBCHEM_SHAPE_MULTIPOLES>  (1) 
291.97
7.51
1.86
0.75
2.8
0.42
-0.11
-3.08
-0.73
-1
-0.07
-0.21
0.22
0.6

>  <PUBCHEM_SHAPE_SELFOVERLAP>  (1) 
626.06

>  <PUBCHEM_SHAPE_VOLUME>  (1) 
160.3

>  <PUBCHEM_COORDINATE_TYPE>  (1) 
2
5
10

$$$$
