42441
     RDKit          3D

 14 15  0  0  0  0  0  0  0  0999 V2000
   -0.5844   -2.1656    0.0932 O   0  0  0  0  0  0  0  0  0  0  0  0
    1.5155    2.1677   -0.3936 O   0  0  0  0  0  0  0  0  0  0  0  0
   -4.3471    0.9577   -0.1256 N   0  0  0  0  0  0  0  0  0  0  0  0
    0.4009    0.0430   -0.1377 C   0  0  0  0  0  0  0  0  0  0  0  0
    0.5047   -1.3412    0.0242 C   0  0  0  0  0  0  0  0  0  0  0  0
    1.5652    0.8136   -0.2344 C   0  0  0  0  0  0  0  0  0  0  0  0
   -0.9151    0.6600   -0.2357 C   0  0  0  0  0  0  0  0  0  0  0  0
   -1.8510   -1.5507    0.3776 C   0  0  0  0  0  0  0  0  0  0  0  0
   -1.9910   -0.0974    0.0101 C   0  0  0  0  0  0  0  0  0  0  0  0
    1.7592   -1.9527    0.0767 C   0  0  0  0  0  0  0  0  0  0  0  0
    2.8187    0.2029   -0.1686 C   0  0  0  0  0  0  0  0  0  0  0  0
    2.9154   -1.1790   -0.0145 C   0  0  0  0  0  0  0  0  0  0  0  0
   -3.2898    0.4842   -0.0646 C   0  0  0  0  0  0  0  0  0  0  0  0
    1.4986    2.9574    0.7928 C   0  0  0  0  0  0  0  0  0  0  0  0
  1  5  1  0
  1  8  1  0
  2  6  1  0
  2 14  1  0
  3 13  3  0
  4  5  2  0
  4  6  1  0
  4  7  1  0
  5 10  1  0
  6 11  2  0
  7  9  2  0
  8  9  1  0
  9 13  1  0
 10 12  2  0
 11 12  1  0
M  END
>  <PUBCHEM_COMPOUND_CID>  (1) 
42441

>  <PUBCHEM_CONFORMER_RMSD>  (1) 
0.6

>  <PUBCHEM_CONFORMER_DIVERSEORDER>  (1) 
1

>  <PUBCHEM_MMFF94_PARTIAL_CHARGES>  (1) 
18
1 -0.36
10 -0.15
11 -0.15
12 -0.15
13 0.49
14 0.28
15 0.15
18 0.15
19 0.15
2 -0.36
20 0.15
3 -0.56
4 0.03
5 0.08
6 0.08
7 -0.18
8 0.42
9 -0.07

>  <PUBCHEM_EFFECTIVE_ROTOR_COUNT>  (1) 
1.4

>  <PUBCHEM_PHARMACOPHORE_FEATURES>  (1) 
5
1 1 acceptor
1 2 acceptor
1 3 acceptor
6 1 4 5 7 8 9 rings
6 4 5 6 10 11 12 rings

>  <PUBCHEM_HEAVY_ATOM_COUNT>  (1) 
14

>  <PUBCHEM_ATOM_DEF_STEREO_COUNT>  (1) 
0

>  <PUBCHEM_ATOM_UDEF_STEREO_COUNT>  (1) 
0

>  <PUBCHEM_BOND_DEF_STEREO_COUNT>  (1) 
0

>  <PUBCHEM_BOND_UDEF_STEREO_COUNT>  (1) 
0

>  <PUBCHEM_ISOTOPIC_ATOM_COUNT>  (1) 
0

>  <PUBCHEM_COMPONENT_COUNT>  (1) 
1

>  <PUBCHEM_CACTVS_TAUTO_COUNT>  (1) 
1

>  <PUBCHEM_CONFORMER_ID>  (1) 
0000A5C900000001

>  <PUBCHEM_MMFF94_ENERGY>  (1) 
48.4784

>  <PUBCHEM_FEATURE_SELFOVERLAP>  (1) 
25.402

>  <PUBCHEM_SHAPE_FINGERPRINT>  (1) 
10130415 120 18261107414091284762
10608611 8 18336827593178040657
10967382 1 18410012091770540678
11471102 20 18337105670814430447
12507560 14 18268705000636973943
13140716 1 18336824311443179776
13380535 21 18262531414634757805
13380535 76 18408885122733833131
13897977 150 18409727404501184029
13922767 16 18409726231848667497
14251717 144 18337948992064684807
14325111 11 18408605876923867695
14648413 74 18337111279783340608
14911166 2 18338243669502020070
15490181 7 17908991242005179950
15775835 57 18333739030302412870
16945 1 18410577296719150286
18186145 218 18342459218874111189
193761 8 18194120947884747582
20511035 2 18190470534957657910
20588541 1 18335143046621923302
20606313 2 18338796706623215319
21029758 11 18341047398451389148
21501502 16 18264486354830553215
21639500 275 18339063948373836357
2334 1 18049445043195954517
23402539 116 18127959824316527582
23402655 69 18339916009982583061
23559900 14 18269570472046378812
25 1 18334857173714713639
2748010 2 18120377811095296182
305870 269 18123180462277497352
3071541 12 18339363066912889172
5255222 1 18334006207454333996
528886 8 18409727339781541858
53812653 166 18410571807930170736
63268167 104 18409737243954780666
7364860 26 18341894129768468016
74978 22 18412829118023424855
7832392 63 18413666907150086703
81228 2 17834126247084289898

>  <PUBCHEM_SHAPE_MULTIPOLES>  (1) 
271.39
5.14
2.64
0.68
4.6
1.08
-0.04
0.82
0.2
-1.46
-0.49
-0.08
0.13
0.26

>  <PUBCHEM_SHAPE_SELFOVERLAP>  (1) 
584.644

>  <PUBCHEM_SHAPE_VOLUME>  (1) 
147.9

>  <PUBCHEM_COORDINATE_TYPE>  (1) 
2
5
10

$$$$
