42445
     RDKit          3D

 15 16  0  0  1  0  0  0  0  0999 V2000
   -0.6408    1.9750    0.2652 O   0  0  0  0  0  0  0  0  0  0  0  0
    1.9003   -2.1416    0.1889 O   0  0  0  0  0  0  0  0  0  0  0  0
   -4.0526   -1.5323    0.3938 N   0  0  0  0  0  0  0  0  0  0  0  0
   -1.8589    1.2700   -0.0512 C   0  0  0  0  0  0  0  0  0  0  0  0
    0.5700   -0.1292    0.2144 C   0  0  0  0  0  0  0  0  0  0  0  0
    0.5280    1.2671    0.1990 C   0  0  0  0  0  0  0  0  0  0  0  0
   -1.8303   -0.2247    0.1881 C   0  0  0  0  0  0  0  0  0  0  0  0
   -0.6714   -0.8843    0.3121 C   0  0  0  0  0  0  0  0  0  0  0  0
    1.8079   -0.7805    0.1741 C   0  0  0  0  0  0  0  0  0  0  0  0
   -2.2304    1.6067   -1.4960 C   0  0  0  0  0  0  0  0  0  0  0  0
    1.7106    2.0084    0.1564 C   0  0  0  0  0  0  0  0  0  0  0  0
    2.9893   -0.0392    0.1172 C   0  0  0  0  0  0  0  0  0  0  0  0
    2.9406    1.3538    0.1100 C   0  0  0  0  0  0  0  0  0  0  0  0
   -3.0560   -0.9458    0.3015 C   0  0  0  0  0  0  0  0  0  0  0  0
    1.8937   -2.8034   -1.0734 C   0  0  0  0  0  0  0  0  0  0  0  0
  1  4  1  0
  1  6  1  0
  2  9  1  0
  2 15  1  0
  3 14  3  0
  4  7  1  0
  4 10  1  0
  5  6  2  0
  5  8  1  0
  5  9  1  0
  6 11  1  0
  7  8  2  0
  7 14  1  0
  9 12  2  0
 11 13  2  0
 12 13  1  0
M  END
>  <PUBCHEM_COMPOUND_CID>  (1) 
42445

>  <PUBCHEM_CONFORMER_RMSD>  (1) 
0.6

>  <PUBCHEM_CONFORMER_DIVERSEORDER>  (1) 
2
1

>  <PUBCHEM_MMFF94_PARTIAL_CHARGES>  (1) 
18
1 -0.36
11 -0.15
12 -0.15
13 -0.15
14 0.49
15 0.28
17 0.15
2 -0.36
21 0.15
22 0.15
23 0.15
3 -0.56
4 0.42
5 0.03
6 0.08
7 -0.07
8 -0.18
9 0.08

>  <PUBCHEM_EFFECTIVE_ROTOR_COUNT>  (1) 
1.4

>  <PUBCHEM_PHARMACOPHORE_FEATURES>  (1) 
5
1 1 acceptor
1 2 acceptor
1 3 acceptor
6 1 4 5 6 7 8 rings
6 5 6 9 11 12 13 rings

>  <PUBCHEM_HEAVY_ATOM_COUNT>  (1) 
15

>  <PUBCHEM_ATOM_DEF_STEREO_COUNT>  (1) 
0

>  <PUBCHEM_ATOM_UDEF_STEREO_COUNT>  (1) 
1

>  <PUBCHEM_BOND_DEF_STEREO_COUNT>  (1) 
0

>  <PUBCHEM_BOND_UDEF_STEREO_COUNT>  (1) 
0

>  <PUBCHEM_ISOTOPIC_ATOM_COUNT>  (1) 
0

>  <PUBCHEM_COMPONENT_COUNT>  (1) 
1

>  <PUBCHEM_CACTVS_TAUTO_COUNT>  (1) 
1

>  <PUBCHEM_CONFORMER_ID>  (1) 
0000A5CD00000002

>  <PUBCHEM_MMFF94_ENERGY>  (1) 
49.7296

>  <PUBCHEM_FEATURE_SELFOVERLAP>  (1) 
25.402

>  <PUBCHEM_SHAPE_FINGERPRINT>  (1) 
10967382 1 18267024036378603698
11132069 177 18194678396011144499
11471102 20 18339077211063937049
11680986 33 18268702806087631018
12524768 44 18195524796805593344
13140716 1 17978507860170739258
13380535 21 18337398140733728601
13380535 76 18264771145654054306
14178342 30 18341326687326916896
14251717 144 18268709600794815747
14252887 29 18262815080567471091
15001771 113 18197789795106565880
15219456 202 18408880737492803837
161256 15 18408606993367431785
16945 1 18340204073059557616
17844478 74 18114183081365240297
17990270 104 18339080385018518514
18186145 218 17829876647523154261
193761 8 18339364033000774160
19973954 147 18338798896966930416
200 152 18130495418768766053
20201158 50 18335702788261109395
20588541 1 18191028004701445715
20645477 70 18411695517736482551
20871998 22 18411710871927840211
21501502 16 18335986389156993169
21524375 3 18192432090025224032
22721475 48 18335146418223777371
22802520 49 18335692793951469341
2334 1 18337953393942017410
23419403 2 16464946198393720616
23552423 10 18262241010505486794
23557571 272 17821726135245266085
23559900 14 17619908358481564358
2748010 2 18337669702756738278
2871803 45 18334571382285398775
7364860 26 18343304747468400330
74978 22 18120654621732177065
81228 2 17894921711181148113

>  <PUBCHEM_SHAPE_MULTIPOLES>  (1) 
291.97
5.17
2.69
0.88
2.53
0.83
-0.31
1.29
0.13
-0.93
-0.58
0.25
0
1

>  <PUBCHEM_SHAPE_SELFOVERLAP>  (1) 
626.059

>  <PUBCHEM_SHAPE_VOLUME>  (1) 
160.1

>  <PUBCHEM_COORDINATE_TYPE>  (1) 
2
5
10

$$$$
