42442
     RDKit          3D

 13 14  0  0  1  0  0  0  0  0999 V2000
    0.0287    1.5422    0.5694 O   0  0  0  0  0  0  0  0  0  0  0  0
   -4.0905   -1.0711    0.1604 N   0  0  0  0  0  0  0  0  0  0  0  0
   -1.3244    1.2122    0.1943 C   0  0  0  0  0  0  0  0  0  0  0  0
    0.7257   -0.7047   -0.0318 C   0  0  0  0  0  0  0  0  0  0  0  0
    1.0033    0.6319    0.2645 C   0  0  0  0  0  0  0  0  0  0  0  0
   -1.6331   -0.2665    0.0940 C   0  0  0  0  0  0  0  0  0  0  0  0
   -0.6533   -1.1730   -0.0145 C   0  0  0  0  0  0  0  0  0  0  0  0
   -1.6405    1.9488   -1.1082 C   0  0  0  0  0  0  0  0  0  0  0  0
    1.7809   -1.5826   -0.3038 C   0  0  0  0  0  0  0  0  0  0  0  0
    2.3228    1.0872    0.3017 C   0  0  0  0  0  0  0  0  0  0  0  0
    3.0991   -1.1237   -0.2804 C   0  0  0  0  0  0  0  0  0  0  0  0
    3.3697    0.2094    0.0238 C   0  0  0  0  0  0  0  0  0  0  0  0
   -2.9884   -0.7101    0.1306 C   0  0  0  0  0  0  0  0  0  0  0  0
  1  3  1  0
  1  5  1  0
  2 13  3  0
  3  6  1  0
  3  8  1  0
  4  5  2  0
  4  7  1  0
  4  9  1  0
  5 10  1  0
  6  7  2  0
  6 13  1  0
  9 11  2  0
 10 12  2  0
 11 12  1  0
M  END
>  <PUBCHEM_COMPOUND_CID>  (1) 
42442

>  <PUBCHEM_CONFORMER_RMSD>  (1) 
0.4

>  <PUBCHEM_CONFORMER_DIVERSEORDER>  (1) 
2
1

>  <PUBCHEM_MMFF94_PARTIAL_CHARGES>  (1) 
17
1 -0.36
10 -0.15
11 -0.15
12 -0.15
13 0.49
15 0.15
19 0.15
2 -0.56
20 0.15
21 0.15
22 0.15
3 0.42
4 0.03
5 0.08
6 -0.07
7 -0.18
9 -0.15

>  <PUBCHEM_EFFECTIVE_ROTOR_COUNT>  (1) 
0.4

>  <PUBCHEM_PHARMACOPHORE_FEATURES>  (1) 
4
1 1 acceptor
1 2 acceptor
6 1 3 4 5 6 7 rings
6 4 5 9 10 11 12 rings

>  <PUBCHEM_HEAVY_ATOM_COUNT>  (1) 
13

>  <PUBCHEM_ATOM_DEF_STEREO_COUNT>  (1) 
0

>  <PUBCHEM_ATOM_UDEF_STEREO_COUNT>  (1) 
1

>  <PUBCHEM_BOND_DEF_STEREO_COUNT>  (1) 
0

>  <PUBCHEM_BOND_UDEF_STEREO_COUNT>  (1) 
0

>  <PUBCHEM_ISOTOPIC_ATOM_COUNT>  (1) 
0

>  <PUBCHEM_COMPONENT_COUNT>  (1) 
1

>  <PUBCHEM_CACTVS_TAUTO_COUNT>  (1) 
1

>  <PUBCHEM_CONFORMER_ID>  (1) 
0000A5CA00000002

>  <PUBCHEM_MMFF94_ENERGY>  (1) 
32.4931

>  <PUBCHEM_FEATURE_SELFOVERLAP>  (1) 
20.328

>  <PUBCHEM_SHAPE_FINGERPRINT>  (1) 
10219947 1 18271530891707352451
10608611 8 18410568457697768516
11132069 177 18270955859778845027
11206711 2 18336268946407238998
11471102 20 18342173397031696815
12032990 46 18411423929267831651
12138202 97 17897716566332627341
12932764 1 17897172320898242408
14251717 144 18271240637928382079
14325111 11 18411700959048193560
15219456 202 18412820265953448444
15501101 241 18341615983465277921
15906896 17 16985473711813181553
161256 15 18411696616619979496
16945 1 18339634646157966004
17844478 74 18334581243535351289
200 152 17917700289035833461
20201158 50 18410576205660430618
20588541 1 18338519762710550819
20645477 70 18343299254327009639
21501502 16 18338240353644615120
2334 1 18339921524166592290
23402539 116 18188196693287452447
23463225 33 18412266142247406762
23552423 10 18335144137754522002
23559900 14 17908698437670289498
25 1 17616243689645064965
2748010 2 18341045207928416996
5084963 1 18335425642679926696
528886 8 18271240642112488698
8809292 202 18334300906599003962

>  <PUBCHEM_SHAPE_MULTIPOLES>  (1) 
256.68
5.43
1.86
0.75
1.13
0.41
0.1
-1.62
0.03
0.35
0.23
0.09
0.2
0.56

>  <PUBCHEM_SHAPE_SELFOVERLAP>  (1) 
553.559

>  <PUBCHEM_SHAPE_VOLUME>  (1) 
139.5

>  <PUBCHEM_COORDINATE_TYPE>  (1) 
2
5
10

$$$$
