42443
     RDKit          3D

 15 16  0  0  1  0  0  0  0  0999 V2000
   -0.0102    1.2010    0.5742 O   0  0  0  0  0  0  0  0  0  0  0  0
    2.6971    1.3490    0.6042 O   0  0  0  0  0  0  0  0  0  0  0  0
   -4.6659   -0.2544    0.1609 N   0  0  0  0  0  0  0  0  0  0  0  0
   -1.4034    1.2360    0.2018 C   0  0  0  0  0  0  0  0  0  0  0  0
    0.6952    0.0729    0.2559 C   0  0  0  0  0  0  0  0  0  0  0  0
    0.0808   -1.1433   -0.0519 C   0  0  0  0  0  0  0  0  0  0  0  0
   -2.0842   -0.1116    0.0896 C   0  0  0  0  0  0  0  0  0  0  0  0
   -1.3723   -1.2394   -0.0321 C   0  0  0  0  0  0  0  0  0  0  0  0
    2.0877    0.1712    0.2910 C   0  0  0  0  0  0  0  0  0  0  0  0
   -1.5203    2.0418   -1.0925 C   0  0  0  0  0  0  0  0  0  0  0  0
    0.8727   -2.2611   -0.3375 C   0  0  0  0  0  0  0  0  0  0  0  0
    2.8713   -0.9444   -0.0006 C   0  0  0  0  0  0  0  0  0  0  0  0
    2.2646   -2.1589   -0.3161 C   0  0  0  0  0  0  0  0  0  0  0  0
   -3.5081   -0.1902    0.1289 C   0  0  0  0  0  0  0  0  0  0  0  0
    2.9951    2.2314   -0.4758 C   0  0  0  0  0  0  0  0  0  0  0  0
  1  4  1  0
  1  5  1  0
  2  9  1  0
  2 15  1  0
  3 14  3  0
  4  7  1  0
  4 10  1  0
  5  6  2  0
  5  9  1  0
  6  8  1  0
  6 11  1  0
  7  8  2  0
  7 14  1  0
  9 12  2  0
 11 13  2  0
 12 13  1  0
M  END
>  <PUBCHEM_COMPOUND_CID>  (1) 
42443

>  <PUBCHEM_CONFORMER_RMSD>  (1) 
0.6

>  <PUBCHEM_CONFORMER_DIVERSEORDER>  (1) 
2
1

>  <PUBCHEM_MMFF94_PARTIAL_CHARGES>  (1) 
18
1 -0.36
11 -0.15
12 -0.15
13 -0.15
14 0.49
15 0.28
17 0.15
2 -0.36
21 0.15
22 0.15
23 0.15
3 -0.56
4 0.42
5 0.08
6 0.03
7 -0.07
8 -0.18
9 0.08

>  <PUBCHEM_EFFECTIVE_ROTOR_COUNT>  (1) 
1.4

>  <PUBCHEM_PHARMACOPHORE_FEATURES>  (1) 
5
1 1 acceptor
1 2 acceptor
1 3 acceptor
6 1 4 5 6 7 8 rings
6 5 6 9 11 12 13 rings

>  <PUBCHEM_HEAVY_ATOM_COUNT>  (1) 
15

>  <PUBCHEM_ATOM_DEF_STEREO_COUNT>  (1) 
0

>  <PUBCHEM_ATOM_UDEF_STEREO_COUNT>  (1) 
1

>  <PUBCHEM_BOND_DEF_STEREO_COUNT>  (1) 
0

>  <PUBCHEM_BOND_UDEF_STEREO_COUNT>  (1) 
0

>  <PUBCHEM_ISOTOPIC_ATOM_COUNT>  (1) 
0

>  <PUBCHEM_COMPONENT_COUNT>  (1) 
1

>  <PUBCHEM_CACTVS_TAUTO_COUNT>  (1) 
1

>  <PUBCHEM_CONFORMER_ID>  (1) 
0000A5CB00000002

>  <PUBCHEM_MMFF94_ENERGY>  (1) 
48.7977

>  <PUBCHEM_FEATURE_SELFOVERLAP>  (1) 
25.408

>  <PUBCHEM_SHAPE_FINGERPRINT>  (1) 
10608611 8 18336261232904723757
10967382 1 18411699923718280706
10980938 120 18343582958148640355
11132069 177 18340760545996256619
11206711 2 18193001426025347959
11471102 20 18413666903044847983
12346645 6 18412545435391228566
13140716 1 18339917242311513098
13380535 76 18338515352074563010
13897977 150 18339640160864332065
14251717 144 18342734126777384351
14252887 29 18261404364293969211
15219456 202 18337946792877937797
15375462 6 18335140877568350421
15775835 57 18200877386728656710
161256 15 18410293566810658799
16945 1 18338231570478965558
17844478 74 18261961747727044835
17990270 104 18267866073428426730
19973954 147 18267020561723700328
20559304 39 18339924818707416122
20588541 1 18338236067499349379
20645477 70 18342453712837054543
21501502 16 18268718220656879537
21524375 3 18338515356601372512
22802520 49 18191857921168897805
2334 1 18124312963364496370
23463225 33 18411980239069788699
23552423 10 18339080393481839522
23557571 272 17458623389740314197
23559900 14 18336821979413464666
2748010 2 17909543961320420806
3071541 158 18265336106174006718
3071541 37 18410299141852191414
350125 39 18339084791544369760
44154327 71 18262523731028365020
449060 62 18341899622904948217
528886 8 18268987751139519130
58051976 378 18341049704838550668
581208 293 18342451560583399507
7364860 26 18343303652446853670

>  <PUBCHEM_SHAPE_MULTIPOLES>  (1) 
291.97
5.71
2.47
0.76
4.06
0.3
0.08
0.36
-0.16
-1.74
0.54
0
0.2
0.33

>  <PUBCHEM_SHAPE_SELFOVERLAP>  (1) 
625.926

>  <PUBCHEM_SHAPE_VOLUME>  (1) 
160.4

>  <PUBCHEM_COORDINATE_TYPE>  (1) 
2
5
10

$$$$
