42456
     RDKit          3D

 22 24  0  0  1  0  0  0  0  0999 V2000
    5.8010   -0.4743   -0.8171 Br  0  0  0  0  0  0  0  0  0  0  0  0
    0.2533   -0.2909    1.5900 O   0  0  0  0  0  0  0  0  0  0  0  0
   -0.4632   -1.1027   -1.1821 O   0  0  0  0  0  0  0  0  0  0  0  0
   -1.0749    3.0447   -1.4894 O   0  0  0  0  0  0  0  0  0  0  0  0
   -2.0746    2.9344    0.4700 O   0  0  0  0  0  0  0  0  0  0  0  0
   -1.2113    2.5866   -0.3469 N   0  0  0  0  0  0  0  0  0  0  0  0
   -0.7712    0.6008    1.0900 C   0  0  0  0  0  0  0  0  0  0  0  0
   -1.8667   -0.2784    0.5773 C   0  0  0  0  0  0  0  0  0  0  0  0
   -0.2979    1.5751    0.0622 C   0  0  0  0  0  0  0  0  0  0  0  0
    1.8623    0.6263   -0.0085 C   0  0  0  0  0  0  0  0  0  0  0  0
    1.4899   -0.2743    0.9983 C   0  0  0  0  0  0  0  0  0  0  0  0
    0.9162    1.6309   -0.4781 C   0  0  0  0  0  0  0  0  0  0  0  0
   -1.6630   -1.0909   -0.5364 C   0  0  0  0  0  0  0  0  0  0  0  0
   -3.0994   -0.2772    1.2276 C   0  0  0  0  0  0  0  0  0  0  0  0
    3.1532    0.5613   -0.5464 C   0  0  0  0  0  0  0  0  0  0  0  0
    2.4025   -1.2263    1.4604 C   0  0  0  0  0  0  0  0  0  0  0  0
   -2.6957   -1.9050   -1.0019 C   0  0  0  0  0  0  0  0  0  0  0  0
   -4.1321   -1.0913    0.7622 C   0  0  0  0  0  0  0  0  0  0  0  0
    4.0604   -0.3934   -0.0844 C   0  0  0  0  0  0  0  0  0  0  0  0
    3.6855   -1.2858    0.9181 C   0  0  0  0  0  0  0  0  0  0  0  0
   -3.9302   -1.9051   -0.3526 C   0  0  0  0  0  0  0  0  0  0  0  0
   -0.3441   -1.9644   -2.3123 C   0  0  0  0  0  0  0  0  0  0  0  0
  1 19  1  0
  2  7  1  0
  2 11  1  0
  3 13  1  0
  3 22  1  0
  4  6  1  0
  5  6  2  0
  6  9  1  0
  7  8  1  0
  7  9  1  0
  8 13  2  0
  8 14  1  0
  9 12  2  0
 10 11  2  0
 10 12  1  0
 10 15  1  0
 11 16  1  0
 13 17  1  0
 14 18  2  0
 15 19  2  0
 16 20  2  0
 17 21  2  0
 18 21  1  0
 19 20  1  0
M  CHG  2   4  -1   6   1
M  END
>  <PUBCHEM_COMPOUND_CID>  (1) 
42456

>  <PUBCHEM_CONFORMER_RMSD>  (1) 
0.6

>  <PUBCHEM_CONFORMER_DIVERSEORDER>  (1) 
8
1
9
5
7
6
4
2
3

>  <PUBCHEM_MMFF94_PARTIAL_CHARGES>  (1) 
30
1 -0.11
10 0.03
11 0.08
12 -0.18
13 0.08
14 -0.15
15 -0.15
16 -0.15
17 -0.15
18 -0.15
19 0.11
2 -0.36
20 -0.15
21 -0.15
22 0.28
24 0.15
25 0.15
26 0.15
27 0.15
28 0.15
29 0.15
3 -0.36
30 0.15
31 0.15
4 -0.52
5 -0.52
6 0.84
7 0.56
8 -0.14
9 0.07

>  <PUBCHEM_EFFECTIVE_ROTOR_COUNT>  (1) 
3.4

>  <PUBCHEM_PHARMACOPHORE_FEATURES>  (1) 
9
1 1 hydrophobe
1 2 acceptor
1 3 acceptor
1 4 acceptor
1 4 anion
1 5 acceptor
6 10 11 15 16 19 20 rings
6 2 7 9 10 11 12 rings
6 8 13 14 17 18 21 rings

>  <PUBCHEM_HEAVY_ATOM_COUNT>  (1) 
22

>  <PUBCHEM_ATOM_DEF_STEREO_COUNT>  (1) 
0

>  <PUBCHEM_ATOM_UDEF_STEREO_COUNT>  (1) 
1

>  <PUBCHEM_BOND_DEF_STEREO_COUNT>  (1) 
0

>  <PUBCHEM_BOND_UDEF_STEREO_COUNT>  (1) 
0

>  <PUBCHEM_ISOTOPIC_ATOM_COUNT>  (1) 
0

>  <PUBCHEM_COMPONENT_COUNT>  (1) 
1

>  <PUBCHEM_CACTVS_TAUTO_COUNT>  (1) 
1

>  <PUBCHEM_CONFORMER_ID>  (1) 
0000A5D800000008

>  <PUBCHEM_MMFF94_ENERGY>  (1) 
79.0513

>  <PUBCHEM_FEATURE_SELFOVERLAP>  (1) 
45.783

>  <PUBCHEM_SHAPE_FINGERPRINT>  (1) 
10369192 42 16770114891064764536
104564 63 18410571756358973033
11578080 2 18129077057143391505
11582403 64 15265097563425609865
11725454 13 15122675670516850753
12035758 1 17405719073214688179
12236239 1 18342465879957002250
12403814 3 18342740723393275466
12422481 6 18055657043970956299
12553582 1 18336258033001257066
12633257 1 15482117192314433562
12714826 92 18272364248596173786
12788726 201 18334572404265848785
13911987 19 17313961834695999350
14251751 93 18341055103981641942
14863182 85 15683889919852723046
16752209 62 18269537386726029695
16945 1 18342167856502766723
17349148 13 17774158058725905583
17804303 29 17489592315451996931
1813 80 18411145769942466374
19784866 140 18186803586733701410
200 152 17967249810627656338
20361792 2 18266164196948028819
204376 136 10663828489625815793
21330990 113 17703524219684961719
21731516 1 18339909515385441130
22112679 90 18200318856523488217
22907989 373 18339632339687156284
23402539 116 18260833704536628122
23419403 2 15187333765895209959
23559900 14 16342881948099395204
23598288 3 18190729843776802970
23598291 2 18197501942098100383
25147074 1 17750509586261945840
2748010 2 17767705866352323159
312423 11 17895471411260805458
34934 24 18124594438156408824
465052 167 18196945581073664075
5845 1 12860850419246001009
6992083 37 18057890328054079367
90525 40 18340204081517337486

>  <PUBCHEM_SHAPE_MULTIPOLES>  (1) 
430.23
8.11
2.62
1.57
7.43
1.99
-0.25
-4.25
-0.03
-2.09
-1.12
-0.05
-0.5
-0.56

>  <PUBCHEM_SHAPE_SELFOVERLAP>  (1) 
935.179

>  <PUBCHEM_SHAPE_VOLUME>  (1) 
241.2

>  <PUBCHEM_COORDINATE_TYPE>  (1) 
2
5
10

$$$$
