42452
     RDKit          3D

 20 22  0  0  1  0  0  0  0  0999 V2000
    5.7587   -0.3544   -1.0926 Br  0  0  0  0  0  0  0  0  0  0  0  0
    0.2007   -0.8023    1.2550 O   0  0  0  0  0  0  0  0  0  0  0  0
   -1.1083    3.2352   -0.8327 O   0  0  0  0  0  0  0  0  0  0  0  0
   -2.1194    2.6083    1.0208 O   0  0  0  0  0  0  0  0  0  0  0  0
   -1.2517    2.4891    0.1453 N   0  0  0  0  0  0  0  0  0  0  0  0
   -0.8213    0.1910    1.0025 C   0  0  0  0  0  0  0  0  0  0  0  0
   -0.3413    1.4032    0.2745 C   0  0  0  0  0  0  0  0  0  0  0  0
   -1.9120   -0.5194    0.2661 C   0  0  0  0  0  0  0  0  0  0  0  0
    1.8182    0.5025   -0.0357 C   0  0  0  0  0  0  0  0  0  0  0  0
    1.4399   -0.6323    0.6939 C   0  0  0  0  0  0  0  0  0  0  0  0
    0.8760    1.5984   -0.2248 C   0  0  0  0  0  0  0  0  0  0  0  0
   -2.8799   -1.2277    0.9745 C   0  0  0  0  0  0  0  0  0  0  0  0
   -1.9557   -0.4703   -1.1252 C   0  0  0  0  0  0  0  0  0  0  0  0
    3.1115    0.5794   -0.5665 C   0  0  0  0  0  0  0  0  0  0  0  0
    2.3490   -1.6753    0.8900 C   0  0  0  0  0  0  0  0  0  0  0  0
    4.0149   -0.4663   -0.3715 C   0  0  0  0  0  0  0  0  0  0  0  0
    3.6342   -1.5921    0.3563 C   0  0  0  0  0  0  0  0  0  0  0  0
   -3.8971   -1.8906    0.2877 C   0  0  0  0  0  0  0  0  0  0  0  0
   -2.9728   -1.1331   -1.8121 C   0  0  0  0  0  0  0  0  0  0  0  0
   -3.9434   -1.8433   -1.1055 C   0  0  0  0  0  0  0  0  0  0  0  0
  1 16  1  0
  2  6  1  0
  2 10  1  0
  3  5  1  0
  4  5  2  0
  5  7  1  0
  6  7  1  0
  6  8  1  0
  7 11  2  0
  8 12  2  0
  8 13  1  0
  9 10  2  0
  9 11  1  0
  9 14  1  0
 10 15  1  0
 12 18  1  0
 13 19  2  0
 14 16  2  0
 15 17  2  0
 16 17  1  0
 18 20  2  0
 19 20  1  0
M  CHG  2   3  -1   5   1
M  END
>  <PUBCHEM_COMPOUND_CID>  (1) 
42452

>  <PUBCHEM_CONFORMER_RMSD>  (1) 
0.6

>  <PUBCHEM_CONFORMER_DIVERSEORDER>  (1) 
1
2
4
3

>  <PUBCHEM_MMFF94_PARTIAL_CHARGES>  (1) 
29
1 -0.11
10 0.08
11 -0.18
12 -0.15
13 -0.15
14 -0.15
15 -0.15
16 0.11
17 -0.15
18 -0.15
19 -0.15
2 -0.36
20 -0.15
22 0.15
23 0.15
24 0.15
25 0.15
26 0.15
27 0.15
28 0.15
29 0.15
3 -0.52
30 0.15
4 -0.52
5 0.84
6 0.56
7 0.07
8 -0.14
9 0.03

>  <PUBCHEM_EFFECTIVE_ROTOR_COUNT>  (1) 
2.4

>  <PUBCHEM_PHARMACOPHORE_FEATURES>  (1) 
8
1 1 hydrophobe
1 2 acceptor
1 3 acceptor
1 3 anion
1 4 acceptor
6 2 6 7 9 10 11 rings
6 8 12 13 18 19 20 rings
6 9 10 14 15 16 17 rings

>  <PUBCHEM_HEAVY_ATOM_COUNT>  (1) 
20

>  <PUBCHEM_ATOM_DEF_STEREO_COUNT>  (1) 
0

>  <PUBCHEM_ATOM_UDEF_STEREO_COUNT>  (1) 
1

>  <PUBCHEM_BOND_DEF_STEREO_COUNT>  (1) 
0

>  <PUBCHEM_BOND_UDEF_STEREO_COUNT>  (1) 
0

>  <PUBCHEM_ISOTOPIC_ATOM_COUNT>  (1) 
0

>  <PUBCHEM_COMPONENT_COUNT>  (1) 
1

>  <PUBCHEM_CACTVS_TAUTO_COUNT>  (1) 
1

>  <PUBCHEM_CONFORMER_ID>  (1) 
0000A5D400000001

>  <PUBCHEM_MMFF94_ENERGY>  (1) 
64.891

>  <PUBCHEM_FEATURE_SELFOVERLAP>  (1) 
40.706

>  <PUBCHEM_SHAPE_FINGERPRINT>  (1) 
10042902 136 17274255200824871494
10291535 26 13912327884550351734
104564 63 18341611486571085439
11045515 52 18113616824123581629
11046707 91 17846499244373144910
11578080 2 17774703342909107377
12403259 327 14764357084281867999
12553582 1 18412539946386627307
12633257 1 13686024275181399351
12714826 92 17917428696552153874
12788726 201 18339355245914379129
13009979 54 17559403654784980227
13583140 156 14476966640371255698
13911987 19 17825682298546693372
14576447 43 18410572924859583654
15309172 13 10087654709899602251
15906896 17 18196087738396173825
16752209 62 18270949155408755487
16945 1 18335980964887416704
17349148 13 17894624864626923768
1813 80 18130520728657626799
19784866 140 18408325501306148310
19862831 5 18040989635596194463
200 152 18334012809009199086
20157964 124 9365698870350469715
20291156 8 18342453798345932239
20361792 2 18200583821772630679
21501502 16 18189335667712794338
21731516 1 18272923955685970463
22112679 90 18129963272252453929
221357 26 18188758561784808807
22620623 9 18130782313667273693
23402539 116 18409735066775782422
23419403 2 16241723514915118856
23557571 272 18059300868460255656
23559900 14 18412535523008142936
23598288 3 18268424633698366294
25147074 1 18115584825688970298
2748010 2 17685226358077122296
2838139 119 14779542444047845358
2871803 45 18335701667633315078
46194498 28 17315909146940012047
465052 167 17984991642308377735
57096353 35 18260276243883863462
603831 33 18335698326143763394
6438718 38 18200036131785134689
7615 1 17897153642386289346
7970288 3 18200313341507016822
81228 2 18338217281460466817

>  <PUBCHEM_SHAPE_MULTIPOLES>  (1) 
394.94
8.66
2.62
1.32
7.59
2.28
-0.27
-5.39
-3.12
-1.94
0.03
-0.6
-0.33
-0.78

>  <PUBCHEM_SHAPE_SELFOVERLAP>  (1) 
859.796

>  <PUBCHEM_SHAPE_VOLUME>  (1) 
221.6

>  <PUBCHEM_COORDINATE_TYPE>  (1) 
2
5
10

$$$$
