42451
     RDKit          3D

 20 22  0  0  1  0  0  0  0  0999 V2000
    5.6088   -0.3598    1.0520 Cl  0  0  0  0  0  0  0  0  0  0  0  0
    0.2144   -0.8057   -1.2473 O   0  0  0  0  0  0  0  0  0  0  0  0
   -1.1038    3.2353    0.8276 O   0  0  0  0  0  0  0  0  0  0  0  0
   -2.1085    2.6047   -1.0281 O   0  0  0  0  0  0  0  0  0  0  0  0
   -1.2431    2.4878   -0.1499 N   0  0  0  0  0  0  0  0  0  0  0  0
   -0.8084    0.1886   -1.0024 C   0  0  0  0  0  0  0  0  0  0  0  0
   -0.3319    1.4021   -0.2743 C   0  0  0  0  0  0  0  0  0  0  0  0
   -1.9035   -0.5193   -0.2703 C   0  0  0  0  0  0  0  0  0  0  0  0
    1.8269    0.5028    0.0457 C   0  0  0  0  0  0  0  0  0  0  0  0
    1.4514   -0.6343   -0.6820 C   0  0  0  0  0  0  0  0  0  0  0  0
    0.8835    1.5986    0.2293 C   0  0  0  0  0  0  0  0  0  0  0  0
   -2.8686   -1.2279   -0.9822 C   0  0  0  0  0  0  0  0  0  0  0  0
   -1.9545   -0.4673    1.1206 C   0  0  0  0  0  0  0  0  0  0  0  0
    3.1185    0.5818    0.5802 C   0  0  0  0  0  0  0  0  0  0  0  0
    2.3613   -1.6777   -0.8723 C   0  0  0  0  0  0  0  0  0  0  0  0
    4.0230   -0.4642    0.3908 C   0  0  0  0  0  0  0  0  0  0  0  0
    3.6448   -1.5924   -0.3347 C   0  0  0  0  0  0  0  0  0  0  0  0
   -3.8903   -1.8880   -0.2995 C   0  0  0  0  0  0  0  0  0  0  0  0
   -2.9760   -1.1274    1.8035 C   0  0  0  0  0  0  0  0  0  0  0  0
   -3.9440   -1.8377    1.0934 C   0  0  0  0  0  0  0  0  0  0  0  0
  1 16  1  0
  2  6  1  0
  2 10  1  0
  3  5  1  0
  4  5  2  0
  5  7  1  0
  6  7  1  0
  6  8  1  0
  7 11  2  0
  8 12  2  0
  8 13  1  0
  9 10  2  0
  9 11  1  0
  9 14  1  0
 10 15  1  0
 12 18  1  0
 13 19  2  0
 14 16  2  0
 15 17  2  0
 16 17  1  0
 18 20  2  0
 19 20  1  0
M  CHG  2   3  -1   5   1
M  END
>  <PUBCHEM_COMPOUND_CID>  (1) 
42451

>  <PUBCHEM_CONFORMER_RMSD>  (1) 
0.6

>  <PUBCHEM_CONFORMER_DIVERSEORDER>  (1) 
2
1
4
3

>  <PUBCHEM_MMFF94_PARTIAL_CHARGES>  (1) 
29
1 -0.18
10 0.08
11 -0.18
12 -0.15
13 -0.15
14 -0.15
15 -0.15
16 0.18
17 -0.15
18 -0.15
19 -0.15
2 -0.36
20 -0.15
22 0.15
23 0.15
24 0.15
25 0.15
26 0.15
27 0.15
28 0.15
29 0.15
3 -0.52
30 0.15
4 -0.52
5 0.84
6 0.56
7 0.07
8 -0.14
9 0.03

>  <PUBCHEM_EFFECTIVE_ROTOR_COUNT>  (1) 
2.4

>  <PUBCHEM_PHARMACOPHORE_FEATURES>  (1) 
7
1 2 acceptor
1 3 acceptor
1 3 anion
1 4 acceptor
6 2 6 7 9 10 11 rings
6 8 12 13 18 19 20 rings
6 9 10 14 15 16 17 rings

>  <PUBCHEM_HEAVY_ATOM_COUNT>  (1) 
20

>  <PUBCHEM_ATOM_DEF_STEREO_COUNT>  (1) 
0

>  <PUBCHEM_ATOM_UDEF_STEREO_COUNT>  (1) 
1

>  <PUBCHEM_BOND_DEF_STEREO_COUNT>  (1) 
0

>  <PUBCHEM_BOND_UDEF_STEREO_COUNT>  (1) 
0

>  <PUBCHEM_ISOTOPIC_ATOM_COUNT>  (1) 
0

>  <PUBCHEM_COMPONENT_COUNT>  (1) 
1

>  <PUBCHEM_CACTVS_TAUTO_COUNT>  (1) 
1

>  <PUBCHEM_CONFORMER_ID>  (1) 
0000A5D300000002

>  <PUBCHEM_MMFF94_ENERGY>  (1) 
64.7158

>  <PUBCHEM_FEATURE_SELFOVERLAP>  (1) 
35.632

>  <PUBCHEM_SHAPE_FINGERPRINT>  (1) 
10366900 7 18408889568325593682
10618630 7 18335708259896495983
1100329 8 13798053914578255875
11132069 177 17989491831050674358
11315181 36 17530961376760712946
11578080 2 17201610416496870337
11582403 64 15740421199190191717
11680986 33 17984984783070766094
11796584 16 17167850985096207810
12035758 1 18339655434470124961
12251169 10 17846222197370650799
12363563 72 18188497972490292339
12403814 3 18131345323623714295
12553582 1 18340781436685834774
12824470 246 17530954766146707234
12892183 10 17203341012774762123
13083527 12 18338517555324227004
13134695 92 18193838373971422285
13140716 1 18054220209906868562
13544653 18 18260548977921560150
13583140 156 13039185913861160086
13965767 371 17197744396053317955
14178342 30 18189898604733931690
14223421 5 18342458102066511182
14341114 328 16486699198261860658
14787075 74 18189054368819349026
14790565 3 17474669928250224152
15099037 37 18410288091159827656
15209294 21 16702304576678280266
15885798 251 18261966223220124035
16945 1 18341334487008332796
17357779 13 18338222838984221325
1813 80 18041292035632245254
18186145 218 8142094134393866407
19591789 44 17039516258753975860
19862831 5 12901539173992324847
200 152 18040428919242148890
20600515 1 17968387839284727055
20671657 53 16877946082762792655
21049683 118 17761471622301412961
22182313 1 17988084375116254022
23175994 123 18113900515646080575
23382010 3 10953740066243112511
23402539 116 18334850632400523834
23419403 2 18045195357914769405
23526113 38 17533210015082751369
23559900 14 17023455469205421740
26918003 58 18114175354350004458
2748010 2 18057606469333388780
312423 11 18187094944714730540
314173 85 18413113874318297827
5104073 3 18269543954712292330
6049 1 17987249832753110126
6992083 37 17988368190639559863
81228 2 18262814951528372221
9709674 26 18127687124263633142
9981440 41 17698980921985993722

>  <PUBCHEM_SHAPE_MULTIPOLES>  (1) 
390.87
8.31
2.63
1.3
6.29
2.31
0.25
-5.35
2.84
-1.79
-0.06
-0.64
-0.3
0.76

>  <PUBCHEM_SHAPE_SELFOVERLAP>  (1) 
857.272

>  <PUBCHEM_SHAPE_VOLUME>  (1) 
211.9

>  <PUBCHEM_COORDINATE_TYPE>  (1) 
2
5
10

$$$$
