42461
     RDKit          3D

 22 24  0  0  1  0  0  0  0  0999 V2000
   -5.3802   -2.4960   -1.2714 Cl  0  0  0  0  0  0  0  0  0  0  0  0
    0.2176   -0.4237    1.4257 O   0  0  0  0  0  0  0  0  0  0  0  0
    5.2077   -0.5024   -0.9358 O   0  0  0  0  0  0  0  0  0  0  0  0
   -1.0455    3.3257   -1.1664 O   0  0  0  0  0  0  0  0  0  0  0  0
   -1.9975    3.0071    0.7939 O   0  0  0  0  0  0  0  0  0  0  0  0
   -1.1716    2.7320   -0.0869 N   0  0  0  0  0  0  0  0  0  0  0  0
   -0.7802    0.5640    1.0743 C   0  0  0  0  0  0  0  0  0  0  0  0
   -0.2923    1.6416    0.1629 C   0  0  0  0  0  0  0  0  0  0  0  0
   -1.9258   -0.1991    0.4899 C   0  0  0  0  0  0  0  0  0  0  0  0
    1.8223    0.6247   -0.0944 C   0  0  0  0  0  0  0  0  0  0  0  0
    1.4378   -0.3811    0.8023 C   0  0  0  0  0  0  0  0  0  0  0  0
    0.9086    1.7174   -0.4040 C   0  0  0  0  0  0  0  0  0  0  0  0
    3.0947    0.5776   -0.6764 C   0  0  0  0  0  0  0  0  0  0  0  0
    2.3202   -1.4194    1.1121 C   0  0  0  0  0  0  0  0  0  0  0  0
   -2.8854   -0.7605    1.3293 C   0  0  0  0  0  0  0  0  0  0  0  0
   -2.0292   -0.3451   -0.8914 C   0  0  0  0  0  0  0  0  0  0  0  0
    3.9716   -0.4633   -0.3669 C   0  0  0  0  0  0  0  0  0  0  0  0
    3.5849   -1.4602    0.5266 C   0  0  0  0  0  0  0  0  0  0  0  0
   -3.9542   -1.4719    0.7843 C   0  0  0  0  0  0  0  0  0  0  0  0
   -3.0982   -1.0563   -1.4364 C   0  0  0  0  0  0  0  0  0  0  0  0
   -4.0605   -1.6199   -0.5986 C   0  0  0  0  0  0  0  0  0  0  0  0
    6.0551   -1.5912   -0.5728 C   0  0  0  0  0  0  0  0  0  0  0  0
  1 21  1  0
  2  7  1  0
  2 11  1  0
  3 17  1  0
  3 22  1  0
  4  6  1  0
  5  6  2  0
  6  8  1  0
  7  8  1  0
  7  9  1  0
  8 12  2  0
  9 15  2  0
  9 16  1  0
 10 11  2  0
 10 12  1  0
 10 13  1  0
 11 14  1  0
 13 17  2  0
 14 18  2  0
 15 19  1  0
 16 20  2  0
 17 18  1  0
 19 21  2  0
 20 21  1  0
M  CHG  2   4  -1   6   1
M  END
>  <PUBCHEM_COMPOUND_CID>  (1) 
42461

>  <PUBCHEM_CONFORMER_RMSD>  (1) 
0.6

>  <PUBCHEM_CONFORMER_DIVERSEORDER>  (1) 
3
2
4
1

>  <PUBCHEM_MMFF94_PARTIAL_CHARGES>  (1) 
30
1 -0.18
10 0.03
11 0.08
12 -0.18
13 -0.15
14 -0.15
15 -0.15
16 -0.15
17 0.08
18 -0.15
19 -0.15
2 -0.36
20 -0.15
21 0.18
22 0.28
24 0.15
25 0.15
26 0.15
27 0.15
28 0.15
29 0.15
3 -0.36
30 0.15
31 0.15
4 -0.52
5 -0.52
6 0.84
7 0.56
8 0.07
9 -0.14

>  <PUBCHEM_EFFECTIVE_ROTOR_COUNT>  (1) 
3.4

>  <PUBCHEM_PHARMACOPHORE_FEATURES>  (1) 
8
1 2 acceptor
1 3 acceptor
1 4 acceptor
1 4 anion
1 5 acceptor
6 10 11 13 14 17 18 rings
6 2 7 8 10 11 12 rings
6 9 15 16 19 20 21 rings

>  <PUBCHEM_HEAVY_ATOM_COUNT>  (1) 
22

>  <PUBCHEM_ATOM_DEF_STEREO_COUNT>  (1) 
0

>  <PUBCHEM_ATOM_UDEF_STEREO_COUNT>  (1) 
1

>  <PUBCHEM_BOND_DEF_STEREO_COUNT>  (1) 
0

>  <PUBCHEM_BOND_UDEF_STEREO_COUNT>  (1) 
0

>  <PUBCHEM_ISOTOPIC_ATOM_COUNT>  (1) 
0

>  <PUBCHEM_COMPONENT_COUNT>  (1) 
1

>  <PUBCHEM_CACTVS_TAUTO_COUNT>  (1) 
1

>  <PUBCHEM_CONFORMER_ID>  (1) 
0000A5DD00000003

>  <PUBCHEM_MMFF94_ENERGY>  (1) 
79.1235

>  <PUBCHEM_FEATURE_SELFOVERLAP>  (1) 
40.707

>  <PUBCHEM_SHAPE_FINGERPRINT>  (1) 
10042902 136 17631728408220129710
10291535 26 13045953390866121326
104564 63 18410855417458187193
11045515 52 18040435516317249165
11046707 91 18060421313210207554
11578080 2 17988345044966279137
12236239 1 17988087793699542955
12403259 327 14835846252319950063
12553582 1 18408039636830676563
12633257 1 14189294932264852527
12714826 92 18059288769067852128
12788726 201 18263918835501512137
12892183 10 13973424434048987071
13009979 54 17988093308664268187
13583140 156 14907901526774584779
13911987 19 17823713051693794942
14508225 48 18259987089036512684
14576447 43 18408882945428143682
15309172 13 10735889365108402819
16752209 62 18339348669886886531
17349148 13 17603866689768203008
17539 30 18336541621339501101
1813 80 18201730594961893909
18222031 100 18271236231244573891
19784866 140 18333450949724302474
19784866 240 18129943498502883711
200 152 18259989275253616954
20157964 124 9510092234920731547
20361792 2 18270391806461647807
20388580 30 18267018539063019157
20626108 58 17916014853901819359
20775438 99 17331653148428183303
21033648 29 12902128534617190526
21637258 2 17775000210721467518
221357 26 18114730638609547271
22620623 9 18270116807953020637
23402539 116 18335708225847974546
23557571 272 18200880552605026008
23559900 14 17895762927897336376
23598288 3 18191865613323293579
23622692 118 18410856551661986388
25147074 1 17824256004205574730
2838139 119 13695864870148712726
2871803 45 18260266365226895914
46194498 28 17461429506654830583
463206 1 18264485264173299111
465052 167 18057045924873656055
70251023 43 18412261765707309282
7164475 11 18189325793203153010
7471813 234 18338517542249551124
7970288 3 18343300409162055183

>  <PUBCHEM_SHAPE_MULTIPOLES>  (1) 
426.16
10.3
2.87
1.35
5.21
2.56
0.06
-10.27
-3.61
-1.82
-0.58
-0.71
-0.25
-0.81

>  <PUBCHEM_SHAPE_SELFOVERLAP>  (1) 
929.777

>  <PUBCHEM_SHAPE_VOLUME>  (1) 
233.3

>  <PUBCHEM_COORDINATE_TYPE>  (1) 
2
5
10

$$$$
