42465
     RDKit          3D

 13 14  0  0  0  0  0  0  0  0999 V2000
   -4.2157    1.3863    0.0497 Cl  0  0  0  0  0  0  0  0  0  0  0  0
    0.7485   -1.7583   -0.0758 O   0  0  0  0  0  0  0  0  0  0  0  0
    4.4181    0.4302    0.0414 O   0  0  0  0  0  0  0  0  0  0  0  0
   -0.3254    0.4285   -0.0295 C   0  0  0  0  0  0  0  0  0  0  0  0
   -0.3686   -0.9697   -0.0304 C   0  0  0  0  0  0  0  0  0  0  0  0
    2.0237   -1.1293    0.1297 C   0  0  0  0  0  0  0  0  0  0  0  0
    2.0578    0.3604    0.0058 C   0  0  0  0  0  0  0  0  0  0  0  0
    0.9590    1.1141   -0.0738 C   0  0  0  0  0  0  0  0  0  0  0  0
   -1.5223    1.1543   -0.0054 C   0  0  0  0  0  0  0  0  0  0  0  0
   -1.5973   -1.6347   -0.0158 C   0  0  0  0  0  0  0  0  0  0  0  0
   -2.7482    0.4873    0.0183 C   0  0  0  0  0  0  0  0  0  0  0  0
   -2.7856   -0.9058    0.0124 C   0  0  0  0  0  0  0  0  0  0  0  0
    3.3559    1.0368   -0.0267 C   0  0  0  0  0  0  0  0  0  0  0  0
  1 11  1  0
  2  5  1  0
  2  6  1  0
  3 13  2  0
  4  5  2  0
  4  8  1  0
  4  9  1  0
  5 10  1  0
  6  7  1  0
  7  8  2  0
  7 13  1  0
  9 11  2  0
 10 12  2  0
 11 12  1  0
M  END
>  <PUBCHEM_COMPOUND_CID>  (1) 
42465

>  <PUBCHEM_CONFORMER_RMSD>  (1) 
0.4

>  <PUBCHEM_CONFORMER_DIVERSEORDER>  (1) 
1
2

>  <PUBCHEM_MMFF94_PARTIAL_CHARGES>  (1) 
18
1 -0.18
10 -0.15
11 0.18
12 -0.15
13 0.5
16 0.15
17 0.15
18 0.15
19 0.15
2 -0.36
20 0.06
3 -0.57
4 0.03
5 0.08
6 0.42
7 -0.12
8 -0.18
9 -0.15

>  <PUBCHEM_EFFECTIVE_ROTOR_COUNT>  (1) 
1.4

>  <PUBCHEM_PHARMACOPHORE_FEATURES>  (1) 
4
1 2 acceptor
1 3 acceptor
6 2 4 5 6 7 8 rings
6 4 5 9 10 11 12 rings

>  <PUBCHEM_HEAVY_ATOM_COUNT>  (1) 
13

>  <PUBCHEM_ATOM_DEF_STEREO_COUNT>  (1) 
0

>  <PUBCHEM_ATOM_UDEF_STEREO_COUNT>  (1) 
0

>  <PUBCHEM_BOND_DEF_STEREO_COUNT>  (1) 
0

>  <PUBCHEM_BOND_UDEF_STEREO_COUNT>  (1) 
0

>  <PUBCHEM_ISOTOPIC_ATOM_COUNT>  (1) 
0

>  <PUBCHEM_COMPONENT_COUNT>  (1) 
1

>  <PUBCHEM_CACTVS_TAUTO_COUNT>  (1) 
1

>  <PUBCHEM_CONFORMER_ID>  (1) 
0000A5E100000001

>  <PUBCHEM_MMFF94_ENERGY>  (1) 
32.3781

>  <PUBCHEM_FEATURE_SELFOVERLAP>  (1) 
20.328

>  <PUBCHEM_SHAPE_FINGERPRINT>  (1) 
10608611 8 18340766034933175968
10967382 1 18338517434801151629
11132069 177 18411133654029628144
11471102 20 18339075987024664029
11543360 7 15626211455383190409
13380535 21 18410582768444207847
13380535 76 18410573976725326215
14325111 11 18410856572545926892
14897335 6 18411697664845038407
15196674 1 18410575080410498018
15219456 202 18341621390570790143
15536298 74 18343021047740958334
15775835 57 18410013225742257049
16945 1 18338236093121557367
193761 8 17834113039801482580
20645477 70 18270679749416890303
20871998 184 18128824229561270591
21501502 16 18410285900383985531
23235685 24 18410849962575486053
23402539 116 18201711868904775532
23402655 69 18270951346643988461
23463225 33 18334009489183822802
23559900 14 18273496793498268896
2748010 2 18410864230583587039
3312278 4 18413110580173184609
449060 62 18341613664140662057
5104073 3 18409729560268890370
528886 8 18411414020646112265
53812653 166 18342453751022125320
6333449 129 18412824720077010623
69090 78 18413102849421936319
7364860 26 18269837506536015614

>  <PUBCHEM_SHAPE_MULTIPOLES>  (1) 
257.67
6.55
1.75
0.61
1.28
0.44
0
-2.73
-0.15
-0.5
0.01
-0.05
-0.01
-0.05

>  <PUBCHEM_SHAPE_SELFOVERLAP>  (1) 
549.047

>  <PUBCHEM_SHAPE_VOLUME>  (1) 
143.5

>  <PUBCHEM_COORDINATE_TYPE>  (1) 
2
5
10

$$$$
