42464
     RDKit          3D

 17 18  0  0  0  0  0  0  0  0999 V2000
    0.6758   -1.7629   -0.0016 O   0  0  0  0  0  0  0  0  0  0  0  0
   -4.3192    0.5831    0.0007 O   0  0  0  0  0  0  0  0  0  0  0  0
    3.2869    1.6771    1.1012 O   0  0  0  0  0  0  0  0  0  0  0  0
    3.2882    1.6772   -1.1013 O   0  0  0  0  0  0  0  0  0  0  0  0
    2.8340    1.3410   -0.0003 N   0  0  0  0  0  0  0  0  0  0  0  0
    1.9078   -0.9923    0.0008 C   0  0  0  0  0  0  0  0  0  0  0  0
    1.6886    0.4933   -0.0009 C   0  0  0  0  0  0  0  0  0  0  0  0
    2.6627   -1.4449    1.2602 C   0  0  0  0  0  0  0  0  0  0  0  0
    2.6683   -1.4471   -1.2546 C   0  0  0  0  0  0  0  0  0  0  0  0
   -0.6660    0.2774   -0.0009 C   0  0  0  0  0  0  0  0  0  0  0  0
   -0.5290   -1.1147   -0.0011 C   0  0  0  0  0  0  0  0  0  0  0  0
    0.5174    1.1251   -0.0019 C   0  0  0  0  0  0  0  0  0  0  0  0
   -1.9465    0.8439   -0.0004 C   0  0  0  0  0  0  0  0  0  0  0  0
   -1.6639   -1.9303   -0.0009 C   0  0  0  0  0  0  0  0  0  0  0  0
   -3.0773    0.0260   -0.0001 C   0  0  0  0  0  0  0  0  0  0  0  0
   -2.9361   -1.3600   -0.0007 C   0  0  0  0  0  0  0  0  0  0  0  0
   -4.3916    2.0080    0.0014 C   0  0  0  0  0  0  0  0  0  0  0  0
  1  6  1  0
  1 11  1  0
  2 15  1  0
  2 17  1  0
  3  5  1  0
  4  5  2  0
  5  7  1  0
  6  7  1  0
  6  8  1  0
  6  9  1  0
  7 12  2  0
 10 11  2  0
 10 12  1  0
 10 13  1  0
 11 14  1  0
 13 15  2  0
 14 16  2  0
 15 16  1  0
M  CHG  2   3  -1   5   1
M  END
>  <PUBCHEM_COMPOUND_CID>  (1) 
42464

>  <PUBCHEM_CONFORMER_RMSD>  (1) 
0.6

>  <PUBCHEM_CONFORMER_DIVERSEORDER>  (1) 
2
1

>  <PUBCHEM_MMFF94_PARTIAL_CHARGES>  (1) 
19
1 -0.36
10 0.03
11 0.08
12 -0.18
13 -0.15
14 -0.15
15 0.08
16 -0.15
17 0.28
2 -0.36
24 0.15
25 0.15
26 0.15
27 0.15
3 -0.52
4 -0.52
5 0.84
6 0.42
7 0.07

>  <PUBCHEM_EFFECTIVE_ROTOR_COUNT>  (1) 
2.4

>  <PUBCHEM_PHARMACOPHORE_FEATURES>  (1) 
8
1 1 acceptor
1 2 acceptor
1 3 acceptor
1 3 anion
1 4 acceptor
3 6 8 9 hydrophobe
6 1 6 7 10 11 12 rings
6 10 11 13 14 15 16 rings

>  <PUBCHEM_HEAVY_ATOM_COUNT>  (1) 
17

>  <PUBCHEM_ATOM_DEF_STEREO_COUNT>  (1) 
0

>  <PUBCHEM_ATOM_UDEF_STEREO_COUNT>  (1) 
0

>  <PUBCHEM_BOND_DEF_STEREO_COUNT>  (1) 
0

>  <PUBCHEM_BOND_UDEF_STEREO_COUNT>  (1) 
0

>  <PUBCHEM_ISOTOPIC_ATOM_COUNT>  (1) 
0

>  <PUBCHEM_COMPONENT_COUNT>  (1) 
1

>  <PUBCHEM_CACTVS_TAUTO_COUNT>  (1) 
1

>  <PUBCHEM_CONFORMER_ID>  (1) 
0000A5E000000002

>  <PUBCHEM_MMFF94_ENERGY>  (1) 
66.9439

>  <PUBCHEM_FEATURE_SELFOVERLAP>  (1) 
40.706

>  <PUBCHEM_SHAPE_FINGERPRINT>  (1) 
10608611 8 18412262852508251289
10967382 1 18410855434632781541
10980938 120 18410576201375681403
11132069 177 18337949090379551001
11543360 7 15626218069886033809
12173636 292 18411978062164779261
12251169 10 18335973169332136730
12382932 28 18339920519028220257
12932764 1 17749668502394519447
13140716 1 18409162190857638787
13296908 3 18334863835240787571
13380535 21 18339370750382288039
13380535 76 18339076107130942762
13922767 16 18340198579579770491
14144814 61 18411701002129599011
14178342 30 18191855923855916490
14325111 11 18410856568662331777
14897335 6 18411976983769278421
14911166 2 18268440031203718910
15196674 1 18410856555919861191
15219456 202 18342181089233896879
15442244 35 18337387128300093963
15536298 74 18342177764849952055
15775835 57 18408608084310204477
16945 1 18266740173384433959
18186145 218 18335701594497448029
20510252 161 18343308106433435131
20559304 39 18117274761917899802
20645477 70 18271807882838433279
21452121 103 18272362071280025832
21501502 16 18409160043484766671
2255824 54 18113902637223067130
22854114 111 18186801348733700843
2334 1 18410575132002898571
23463225 33 18334851706015545986
23559900 14 18200876163074953838
2748010 2 18411145757020783919
335352 9 18266458698349643007
474 4 17532098361218861852
495365 180 17632283571460620096
5104073 3 18409731742771542769
53812653 166 18271521021772318736
633830 44 18270117903723426437
7364860 26 18271807895966044806
74978 22 18411422778253565011
7832392 63 18410293609902691693
9709674 26 18341053007684368383

>  <PUBCHEM_SHAPE_MULTIPOLES>  (1) 
321.39
7.04
2.25
0.9
4.43
0.08
0
2.94
0
-0.37
0
-0.91
-0.07
0

>  <PUBCHEM_SHAPE_SELFOVERLAP>  (1) 
690.862

>  <PUBCHEM_SHAPE_VOLUME>  (1) 
178.3

>  <PUBCHEM_COORDINATE_TYPE>  (1) 
2
5
10

$$$$
