4246
     RDKit          3D

 23 25  0  0  1  0  0  0  0  0999 V2000
    0.5136   -1.5655    0.2792 O   0  0  0  0  0  0  0  0  0  0  0  0
   -0.0844    1.5281    0.1428 O   0  0  0  0  0  0  0  0  0  0  0  0
   -3.3441   -0.3383   -1.1917 O   0  0  0  0  0  0  0  0  0  0  0  0
   -3.4638    1.9158    0.5123 O   0  0  0  0  0  0  0  0  0  0  0  0
   -0.5591   -1.0490   -1.7003 O   0  0  0  0  0  0  0  0  0  0  0  0
   -1.6533    2.0780   -1.4411 O   0  0  0  0  0  0  0  0  0  0  0  0
    3.7579   -0.2323    0.8043 N   0  0  0  0  0  0  0  0  0  0  0  0
    2.3168    0.0291    0.5290 C   0  0  0  0  0  0  0  0  0  0  0  0
    1.7955   -1.1867   -0.2403 C   0  0  0  0  0  0  0  0  0  0  0  0
    2.8329   -2.2532    0.0689 C   0  0  0  0  0  0  0  0  0  0  0  0
    4.1201   -1.4478    0.0617 C   0  0  0  0  0  0  0  0  0  0  0  0
    2.2582    1.3252   -0.2191 C   0  0  0  0  0  0  0  0  0  0  0  0
    4.4912    0.9691    0.3533 C   0  0  0  0  0  0  0  0  0  0  0  0
    3.4814    1.8565   -0.2988 C   0  0  0  0  0  0  0  0  0  0  0  0
   -2.8844   -0.4277    0.1679 C   0  0  0  0  0  0  0  0  0  0  0  0
   -1.8471   -1.5973    0.2859 C   0  0  0  0  0  0  0  0  0  0  0  0
   -2.3646    0.9896    0.6208 C   0  0  0  0  0  0  0  0  0  0  0  0
    0.9861    1.8952   -0.7462 C   0  0  0  0  0  0  0  0  0  0  0  0
   -0.5764   -1.3621   -0.5169 C   0  0  0  0  0  0  0  0  0  0  0  0
   -4.1554   -0.8006    0.9689 C   0  0  0  0  0  0  0  0  0  0  0  0
   -1.3519    1.6061   -0.3502 C   0  0  0  0  0  0  0  0  0  0  0  0
   -2.3813   -2.9631   -0.1684 C   0  0  0  0  0  0  0  0  0  0  0  0
   -1.8879    1.0310    2.0780 C   0  0  0  0  0  0  0  0  0  0  0  0
  1  9  1  0
  1 19  1  0
  2 18  1  0
  2 21  1  0
  3 15  1  0
  4 17  1  0
  5 19  2  0
  6 21  2  0
  7  8  1  0
  7 11  1  0
  7 13  1  0
  8  9  1  0
  8 12  1  0
  9 10  1  0
 10 11  1  0
 12 14  2  0
 12 18  1  0
 13 14  1  0
 15 16  1  0
 15 17  1  0
 15 20  1  0
 16 19  1  0
 16 22  1  0
 17 21  1  0
 17 23  1  0
M  END
>  <PUBCHEM_COMPOUND_CID>  (1) 
4246

>  <PUBCHEM_CONFORMER_RMSD>  (1) 
0.6

>  <PUBCHEM_CONFORMER_DIVERSEORDER>  (1) 
9
47
42
125
15
70
84
17
112
93
65
92
95
33
12
43
98
31
145
34
138
116
49
120
148
172
142
104
106
132
114
162
171
32
124
136
113
74
129
60
102
164
58
122
109
161
111
91
4
8
82
139
133
11
146
165
96
141
168
118
78
67
81
166
144
134
77
86
46
143
52
105
160
22
16
88
119
72
7
103
108
123
89
154
14
79
110
21
157
57
64
54
24
30
10
62
66
55
99
135
100
36
45
75
44
152
50
83
115
130
163
37
61
28
80
40
121
153
76
18
158
126
117
90
169
26
71
159
101
39
41
167
48
13
2
87
69
68
73
170
35
5
51
155
150
128
1
25
23
20
137
85
56
151
127
6
156
3
149
147
53
97
38
140
107
19
131
63
27
29
59
94

>  <PUBCHEM_MMFF94_PARTIAL_CHARGES>  (1) 
22
1 -0.43
11 0.27
12 -0.28
13 0.41
14 -0.29
15 0.28
16 0.06
17 0.34
18 0.42
19 0.66
2 -0.43
21 0.66
3 -0.68
32 0.15
4 -0.68
45 0.4
46 0.4
5 -0.57
6 -0.57
7 -0.81
8 0.41
9 0.28

>  <PUBCHEM_EFFECTIVE_ROTOR_COUNT>  (1) 
1.8

>  <PUBCHEM_PHARMACOPHORE_FEATURES>  (1) 
9
1 3 acceptor
1 3 donor
1 4 acceptor
1 4 donor
1 5 acceptor
1 6 acceptor
1 7 cation
5 7 8 12 13 14 rings
5 7 8 9 10 11 rings

>  <PUBCHEM_HEAVY_ATOM_COUNT>  (1) 
23

>  <PUBCHEM_ATOM_DEF_STEREO_COUNT>  (1) 
0

>  <PUBCHEM_ATOM_UDEF_STEREO_COUNT>  (1) 
5

>  <PUBCHEM_BOND_DEF_STEREO_COUNT>  (1) 
0

>  <PUBCHEM_BOND_UDEF_STEREO_COUNT>  (1) 
0

>  <PUBCHEM_ISOTOPIC_ATOM_COUNT>  (1) 
0

>  <PUBCHEM_COMPONENT_COUNT>  (1) 
1

>  <PUBCHEM_CACTVS_TAUTO_COUNT>  (1) 
1

>  <PUBCHEM_CONFORMER_ID>  (1) 
0000109600000009

>  <PUBCHEM_MMFF94_ENERGY>  (1) 
59.8387

>  <PUBCHEM_FEATURE_SELFOVERLAP>  (1) 
46.042

>  <PUBCHEM_SHAPE_FINGERPRINT>  (1) 
10411042 1 15888838192260420535
10616163 171 18339365283089399814
10863032 1 18412826897414524168
10967382 1 18409448119931524454
1100329 8 15454802656484647654
11132069 177 18410852196179857314
11370993 70 18198904712771827609
12011746 2 18264489481619258639
12403814 3 18335138713448158689
12422481 6 18193865703122289769
12553582 1 18336548317056137940
12596599 1 17987250949159659458
12633257 1 18195815063443254762
13140716 1 17979075216718304064
13224815 77 18411419522857959912
13583140 156 16950833718117454040
14223421 5 18410011065553029270
14787075 74 18045220698353755667
15196674 1 18410294692070952448
15442244 35 18339360769337423034
15536298 74 18342741806194447942
16945 1 18269556203436611337
17492 89 18410857693717995050
1813 80 17022907869016749734
200 152 18130494297745476101
20261772 1 18339651125921152722
20691752 17 17967824820458685570
20715895 44 18051412869122332977
21267235 1 18410302414733724786
23227448 37 18410854369428261663
2334 1 18410289233610637358
23557571 272 17845101850851422702
23559900 14 18341326674763923722
2748010 2 18048316647981710950
335352 9 18194402191175557902
350125 39 18411423903772035690
392239 28 17916298532165124680
4340502 62 18128550262899653977
4409770 3 17177984926719870406
5104073 3 18410572855960168656
7064713 232 18272090448494296104
7097593 13 18189607251222171034
84936 31 16270530620699357998
9709674 26 18412263930524099590

>  <PUBCHEM_SHAPE_MULTIPOLES>  (1) 
433.13
7.6
2.82
1.19
3.11
0.58
-0.08
0.31
-1.45
-0.24
0.36
-0.76
-0.3
-0.36

>  <PUBCHEM_SHAPE_SELFOVERLAP>  (1) 
920.646

>  <PUBCHEM_SHAPE_VOLUME>  (1) 
242.3

>  <PUBCHEM_COORDINATE_TYPE>  (1) 
2
5
10

$$$$
