42467
     RDKit          3D

 14 15  0  0  0  0  0  0  0  0999 V2000
    3.4074   -1.6449    0.0252 O   0  0  0  0  0  0  0  0  0  0  0  0
    3.7217    1.1126    0.1461 O   0  0  0  0  0  0  0  0  0  0  0  0
   -2.6316   -0.2494    0.0598 N   0  0  0  0  0  0  0  0  0  0  0  0
   -2.4079    1.1140   -0.5972 C   0  0  0  0  0  0  0  0  0  0  0  0
   -1.4488   -1.1704   -0.2833 C   0  0  0  0  0  0  0  0  0  0  0  0
   -1.1193    1.7676   -0.1048 C   0  0  0  0  0  0  0  0  0  0  0  0
   -0.0862   -0.5471   -0.1405 C   0  0  0  0  0  0  0  0  0  0  0  0
    0.0729    0.8476   -0.1031 C   0  0  0  0  0  0  0  0  0  0  0  0
   -3.9150   -0.8602   -0.5076 C   0  0  0  0  0  0  0  0  0  0  0  0
   -2.8045   -0.1272    1.5733 C   0  0  0  0  0  0  0  0  0  0  0  0
    1.0463   -1.3732   -0.1069 C   0  0  0  0  0  0  0  0  0  0  0  0
    1.3614    1.3914    0.0035 C   0  0  0  0  0  0  0  0  0  0  0  0
    2.3231   -0.8213   -0.0109 C   0  0  0  0  0  0  0  0  0  0  0  0
    2.4805    0.5605    0.0464 C   0  0  0  0  0  0  0  0  0  0  0  0
  1 13  1  0
  2 14  1  0
  3  4  1  0
  3  5  1  0
  3  9  1  0
  3 10  1  0
  4  6  1  0
  5  7  1  0
  6  8  1  0
  7  8  2  0
  7 11  1  0
  8 12  1  0
 11 13  2  0
 12 14  2  0
 13 14  1  0
M  CHG  1   3   1
M  END
>  <PUBCHEM_COMPOUND_CID>  (1) 
42467

>  <PUBCHEM_CONFORMER_RMSD>  (1) 
0.4

>  <PUBCHEM_CONFORMER_DIVERSEORDER>  (1) 
1
2

>  <PUBCHEM_MMFF94_PARTIAL_CHARGES>  (1) 
18
1 -0.53
10 0.5
11 -0.15
12 -0.15
13 0.08
14 0.08
2 -0.53
27 0.15
28 0.15
29 0.45
3 -1.01
30 0.45
4 0.5
5 0.65
6 0.14
7 -0.14
8 -0.14
9 0.5

>  <PUBCHEM_EFFECTIVE_ROTOR_COUNT>  (1) 
0.8

>  <PUBCHEM_PHARMACOPHORE_FEATURES>  (1) 
5
1 1 donor
1 2 donor
1 3 cation
6 3 4 5 6 7 8 rings
6 7 8 11 12 13 14 rings

>  <PUBCHEM_HEAVY_ATOM_COUNT>  (1) 
14

>  <PUBCHEM_ATOM_DEF_STEREO_COUNT>  (1) 
0

>  <PUBCHEM_ATOM_UDEF_STEREO_COUNT>  (1) 
0

>  <PUBCHEM_BOND_DEF_STEREO_COUNT>  (1) 
0

>  <PUBCHEM_BOND_UDEF_STEREO_COUNT>  (1) 
0

>  <PUBCHEM_ISOTOPIC_ATOM_COUNT>  (1) 
0

>  <PUBCHEM_COMPONENT_COUNT>  (1) 
1

>  <PUBCHEM_CACTVS_TAUTO_COUNT>  (1) 
18

>  <PUBCHEM_CONFORMER_ID>  (1) 
0000A5E300000001

>  <PUBCHEM_MMFF94_ENERGY>  (1) 
40.8788

>  <PUBCHEM_FEATURE_SELFOVERLAP>  (1) 
25.396

>  <PUBCHEM_SHAPE_FINGERPRINT>  (1) 
10219947 1 18411421725838670103
10608611 8 18336822009436089692
10967382 1 18338795727391686382
10980938 120 18412545427075659030
11132069 177 18340763840383878512
11471102 20 18410568492141487389
11471102 22 18262532484081673273
11769659 78 18409724028372137174
12032990 46 18339364063392618798
12932764 1 18412833473051554910
13296908 3 18334575715738381006
13380535 76 18337669832017480130
13571099 22 18410006633009558437
14144814 61 18341895198951548203
14325111 11 18410571764774944828
14576447 43 17984968547899630991
15196674 1 18410853243977862669
15219456 202 18408321060072347052
15309172 13 18343872121006125347
15536298 74 18343581837462739438
15775835 57 18272655679059227937
16945 1 18335709398104975508
17844478 74 18186530903412373881
19422 9 18060706078121271975
200 152 18059564807185671839
20201158 50 18333448768049448299
20279233 1 17894911853761562555
20645477 70 18410848828867929943
21501502 16 18339081488593050368
21501925 9 18336814321818844978
2334 1 18409730629905780164
23402655 69 18341320137818152085
23463225 33 18410573989504479844
23552423 10 18260548900791373476
23559900 14 18195234522032022802
25 1 17612858306602578205
2748010 2 18337668603498532724
3248919 1 17168148939830108631
5084963 1 18201715150365089611
5104073 3 18411134714670123849
528886 8 18339917237736587362
53812653 166 18200868608280013432
57812782 119 17894909641774218681
581208 293 18339357564943407124
63268167 104 18341613741217912969
7364860 26 18342737451271936500
8809292 202 18187653470256036811

>  <PUBCHEM_SHAPE_MULTIPOLES>  (1) 
271.39
5.92
1.75
0.84
0.23
0.15
0.26
-0.97
0.21
0.5
-0.14
-0.68
-0.01
0.06

>  <PUBCHEM_SHAPE_SELFOVERLAP>  (1) 
569.912

>  <PUBCHEM_SHAPE_VOLUME>  (1) 
155.4

>  <PUBCHEM_COORDINATE_TYPE>  (1) 
2
5
10

$$$$
