42487
     RDKit          3D

 21 21  0  0  0  0  0  0  0  0999 V2000
    1.5558    1.8873   -0.5583 O   0  0  0  0  0  0  0  0  0  0  0  0
   -5.0104   -1.7770    0.3188 O   0  0  0  0  0  0  0  0  0  0  0  0
    5.2310   -0.6652    0.4365 N   0  0  0  0  0  0  0  0  0  0  0  0
    1.6402    0.1519    0.9786 N   0  0  0  0  0  0  0  0  0  0  0  0
   -4.6393    0.4787   -0.2413 N   0  0  0  0  0  0  0  0  0  0  0  0
    3.7863   -0.7332    0.2193 C   0  0  0  0  0  0  0  0  0  0  0  0
    5.8869   -1.8520   -0.1112 C   0  0  0  0  0  0  0  0  0  0  0  0
    5.7819    0.5476   -0.1669 C   0  0  0  0  0  0  0  0  0  0  0  0
    3.0612    0.1827    1.1942 C   0  0  0  0  0  0  0  0  0  0  0  0
    5.6910   -1.9426   -1.6151 C   0  0  0  0  0  0  0  0  0  0  0  0
    7.2726    0.6661    0.1016 C   0  0  0  0  0  0  0  0  0  0  0  0
    0.9945    1.0204    0.1064 C   0  0  0  0  0  0  0  0  0  0  0  0
   -0.4814    0.8780    0.0153 C   0  0  0  0  0  0  0  0  0  0  0  0
   -1.2669    1.9745   -0.3406 C   0  0  0  0  0  0  0  0  0  0  0  0
   -1.0820   -0.3515    0.2858 C   0  0  0  0  0  0  0  0  0  0  0  0
   -3.2532    0.6120   -0.1550 C   0  0  0  0  0  0  0  0  0  0  0  0
   -2.6526    1.8416   -0.4257 C   0  0  0  0  0  0  0  0  0  0  0  0
   -2.4679   -0.4845    0.2008 C   0  0  0  0  0  0  0  0  0  0  0  0
   -5.4128   -0.6668   -0.0079 C   0  0  0  0  0  0  0  0  0  0  0  0
   -6.8669   -0.3983   -0.2059 C   0  0  0  0  0  0  0  0  0  0  0  0
   -7.7679   -1.3697   -0.0293 C   0  0  0  0  0  0  0  0  0  0  0  0
  1 12  2  0
  2 19  2  0
  3  6  1  0
  3  7  1  0
  3  8  1  0
  4  9  1  0
  4 12  1  0
  5 16  1  0
  5 19  1  0
  6  9  1  0
  7 10  1  0
  8 11  1  0
 12 13  1  0
 13 14  2  0
 13 15  1  0
 14 17  1  0
 15 18  2  0
 16 17  2  0
 16 18  1  0
 19 20  1  0
 20 21  2  0
M  END
>  <PUBCHEM_COMPOUND_CID>  (1) 
42487

>  <PUBCHEM_CONFORMER_RMSD>  (1) 
1

>  <PUBCHEM_CONFORMER_DIVERSEORDER>  (1) 
1
11
18
12
3
24
26
9
4
22
19
16
8
14
23
15
25
5
7
20
10
17
2
13
6
21

>  <PUBCHEM_MMFF94_PARTIAL_CHARGES>  (1) 
28
1 -0.57
12 0.54
13 0.09
14 -0.15
15 -0.15
16 0.12
17 -0.15
18 -0.15
19 0.62
2 -0.57
20 -0.14
21 -0.3
3 -0.81
36 0.37
37 0.15
38 0.15
39 0.15
4 -0.73
40 0.15
41 0.37
42 0.15
43 0.15
44 0.15
5 -0.55
6 0.27
7 0.27
8 0.27
9 0.3

>  <PUBCHEM_EFFECTIVE_ROTOR_COUNT>  (1) 
10

>  <PUBCHEM_PHARMACOPHORE_FEATURES>  (1) 
7
1 1 acceptor
1 2 acceptor
1 21 hydrophobe
1 3 cation
1 4 donor
1 5 donor
6 13 14 15 16 17 18 rings

>  <PUBCHEM_HEAVY_ATOM_COUNT>  (1) 
21

>  <PUBCHEM_ATOM_DEF_STEREO_COUNT>  (1) 
0

>  <PUBCHEM_ATOM_UDEF_STEREO_COUNT>  (1) 
0

>  <PUBCHEM_BOND_DEF_STEREO_COUNT>  (1) 
0

>  <PUBCHEM_BOND_UDEF_STEREO_COUNT>  (1) 
0

>  <PUBCHEM_ISOTOPIC_ATOM_COUNT>  (1) 
0

>  <PUBCHEM_COMPONENT_COUNT>  (1) 
1

>  <PUBCHEM_CACTVS_TAUTO_COUNT>  (1) 
5

>  <PUBCHEM_CONFORMER_ID>  (1) 
0000A5F700000001

>  <PUBCHEM_MMFF94_ENERGY>  (1) 
47.1682

>  <PUBCHEM_FEATURE_SELFOVERLAP>  (1) 
35.521

>  <PUBCHEM_SHAPE_FINGERPRINT>  (1) 
10 15 12535341320334676443
10299344 5 18202567275997497042
10595046 47 18260829255446479016
10968037 39 18186519912438167049
11524674 6 16702017600085932095
117890 112 8934994880512273458
12236239 1 17676202438324891040
12516196 113 18342736321595441000
12616971 3 14404891518487462128
13073987 5 17775284911977915720
13288520 33 18408882945754762473
13533116 47 18060416949687017536
13668630 136 18334575750662836183
13673619 4 18202002105878429648
13685833 64 18343865515277754962
13885169 127 18341612578052389601
13968360 50 15213009437010050232
14123256 10 17240480316748295739
14123256 34 18334580161704954275
14216079 64 18413669102411378303
14251718 22 18260264144681383096
14251764 18 18060702796818869017
14556957 393 16153997846090553807
14598715 104 10447655643742514411
14617045 38 18201720656624355294
15048467 5 9151176459056708987
15183329 4 15213304105678056470
17844677 252 18339366258611738296
18006028 8 18341891913918953137
18335252 98 18413952789491041802
19784866 240 18412831278587225161
20157964 124 12612749104221151064
21049683 271 18339643442663497384
21150785 3 14779265324304667419
21267235 1 18333733537988696635
21623969 137 17632297839890883294
220451 1 16271919420445311532
2297311 6 18410293588623261289
23016692 55 18333453131583311711
23035841 295 18334292063719770715
23522609 53 18195275297660993928
23559900 14 18188767370330267921
2838139 119 11025794322959862090
28498 318 18412542103377516663
3004659 81 17894625985444823041
33382 64 17988645155974417018
33532 11 18060136535620288183
335352 9 18334007316579191815
34797466 226 18060143167746040852
4325135 7 18261111894396152820
4340502 62 14764351556938110917
465052 167 18343866631884784670
59755656 215 18334293150246828323

>  <PUBCHEM_SHAPE_MULTIPOLES>  (1) 
405.49
20.91
1.92
0.89
2.36
0.03
-0.08
11.06
-1.82
-0.38
-0.47
-0.97
0.17
1.12

>  <PUBCHEM_SHAPE_SELFOVERLAP>  (1) 
817.517

>  <PUBCHEM_SHAPE_VOLUME>  (1) 
237.5

>  <PUBCHEM_COORDINATE_TYPE>  (1) 
2
5
10

$$$$
