4248
     RDKit          3D

 41 45  0  0  1  0  0  0  0  0999 V2000
   -8.9662   -1.9867   -1.9445 Cl  0  0  0  0  0  0  0  0  0  0  0  0
    2.7264    2.3618    1.4153 S   0  0  0  0  0  0  0  0  0  0  0  0
   -0.4613    4.5192   -0.5535 O   0  0  0  0  0  0  0  0  0  0  0  0
    1.4338    5.1793   -1.6275 O   0  0  0  0  0  0  0  0  0  0  0  0
    3.1702   -3.0005   -1.9439 O   0  0  0  0  0  0  0  0  0  0  0  0
   -4.4425   -0.3623   -0.3180 N   0  0  0  0  0  0  0  0  0  0  0  0
    2.8165    5.0303    0.9190 C   0  0  0  0  0  0  0  0  0  0  0  0
    3.6729    6.2492    0.7380 C   0  0  0  0  0  0  0  0  0  0  0  0
    3.5016    5.6483    2.1023 C   0  0  0  0  0  0  0  0  0  0  0  0
    3.3390    3.7285    0.4114 C   0  0  0  0  0  0  0  0  0  0  0  0
    1.3411    5.1918    0.8056 C   0  0  0  0  0  0  0  0  0  0  0  0
    0.8164    4.9767   -0.5926 C   0  0  0  0  0  0  0  0  0  0  0  0
    3.0132    1.0161    0.1823 C   0  0  0  0  0  0  0  0  0  0  0  0
    3.2620   -0.2967    0.9789 C   0  0  0  0  0  0  0  0  0  0  0  0
    1.9214    0.9872   -0.8332 C   0  0  0  0  0  0  0  0  0  0  0  0
    3.5093   -1.5306    0.0909 C   0  0  0  0  0  0  0  0  0  0  0  0
    0.6188    0.6702   -0.4479 C   0  0  0  0  0  0  0  0  0  0  0  0
    2.2029    1.2769   -2.1683 C   0  0  0  0  0  0  0  0  0  0  0  0
    3.6192   -2.8435    0.8225 C   0  0  0  0  0  0  0  0  0  0  0  0
    3.8428   -4.0339    0.1308 C   0  0  0  0  0  0  0  0  0  0  0  0
   -0.4023    0.6428   -1.3979 C   0  0  0  0  0  0  0  0  0  0  0  0
    1.1818    1.2497   -3.1182 C   0  0  0  0  0  0  0  0  0  0  0  0
    3.9796   -4.0443   -1.3565 C   0  0  0  0  0  0  0  0  0  0  0  0
    3.4941   -2.8572    2.2117 C   0  0  0  0  0  0  0  0  0  0  0  0
   -0.1207    0.9326   -2.7329 C   0  0  0  0  0  0  0  0  0  0  0  0
    3.9410   -5.2380    0.8282 C   0  0  0  0  0  0  0  0  0  0  0  0
    3.5924   -4.0611    2.9091 C   0  0  0  0  0  0  0  0  0  0  0  0
   -1.7785    0.3073   -0.9918 C   0  0  0  0  0  0  0  0  0  0  0  0
    3.5051   -5.3490   -2.0442 C   0  0  0  0  0  0  0  0  0  0  0  0
    5.4402   -3.7629   -1.7724 C   0  0  0  0  0  0  0  0  0  0  0  0
    3.8160   -5.2515    2.2173 C   0  0  0  0  0  0  0  0  0  0  0  0
   -2.2603    0.3829    0.2714 C   0  0  0  0  0  0  0  0  0  0  0  0
   -3.6240    0.0700    0.6685 C   0  0  0  0  0  0  0  0  0  0  0  0
   -4.0111    0.2221    1.9844 C   0  0  0  0  0  0  0  0  0  0  0  0
   -5.7159   -0.6648   -0.0018 C   0  0  0  0  0  0  0  0  0  0  0  0
   -5.3237   -0.0903    2.3071 C   0  0  0  0  0  0  0  0  0  0  0  0
   -6.2051   -0.5418    1.3156 C   0  0  0  0  0  0  0  0  0  0  0  0
   -6.5919   -1.1133   -0.9866 C   0  0  0  0  0  0  0  0  0  0  0  0
   -7.5404   -0.8663    1.6098 C   0  0  0  0  0  0  0  0  0  0  0  0
   -7.9194   -1.4360   -0.6942 C   0  0  0  0  0  0  0  0  0  0  0  0
   -8.3946   -1.3123    0.6055 C   0  0  0  0  0  0  0  0  0  0  0  0
  1 40  1  0
  2 10  1  0
  2 13  1  0
  3 12  1  0
  4 12  2  0
  5 23  1  0
  6 33  2  0
  6 35  1  0
  7  8  1  0
  7  9  1  0
  7 10  1  0
  7 11  1  0
  8  9  1  0
 11 12  1  0
 13 14  1  0
 13 15  1  0
 14 16  1  0
 15 17  2  0
 15 18  1  0
 16 19  1  0
 17 21  1  0
 18 22  2  0
 19 20  2  0
 19 24  1  0
 20 23  1  0
 20 26  1  0
 21 25  2  0
 21 28  1  0
 22 25  1  0
 23 29  1  0
 23 30  1  0
 24 27  2  0
 26 31  2  0
 27 31  1  0
 28 32  2  0
 32 33  1  0
 33 34  1  0
 34 36  2  0
 35 37  2  0
 35 38  1  0
 36 37  1  0
 37 39  1  0
 38 40  2  0
 39 41  2  0
 40 41  1  0
M  END
>  <PUBCHEM_COMPOUND_CID>  (1) 
4248

>  <PUBCHEM_CONFORMER_RMSD>  (1) 
1.2

>  <PUBCHEM_CONFORMER_DIVERSEORDER>  (1) 
1
247
351
281
263
146
77
322
314
349
95
92
143
229
169
162
309
48
202
284
187
197
167
259
367
180
272
277
231
128
280
183
365
50
170
241
68
119
85
307
234
139
98
286
164
226
172
221
210
189
216
114
358
332
262
205
294
325
246
155
346
177
331
165
81
47
201
214
52
129
250
86
185
211
160
302
341
91
330
174
329
147
339
223
315
158
215
335
184
324
260
198
299
218
366
107
328
293
301
235
12
66
127
360
290
71
21
342
279
333
182
338
319
270
320
196
323
255
29
199
137
244
120
295
116
191
283
220
141
239
88
61
240
312
287
58
356
354
157
176
208
59
46
30
138
209
69
42
361
236
186
232
171
274
133
344
125
267
305
297
230
321
49
296
362
304
327
28
258
53
161
336
217
39
359
275
136
310
51
99
67
249
15
303
271
24
334
105
248
181
144
153
179
195
212
100
194
64
242
265
345
306
282
192
121
269
206
253
227
76
364
130
291
213
134
73
207
343
109
80
55
278
326
25
27
108
63
178
93
8
101
173
163
74
317
311
340
65
90
352
60
16
148
222
264
41
200
117
228
102
132
11
6
289
9
36
149
122
233
140
56
75
104
273
166
368
40
175
79
5
243
82
308
106
355
103
363
347
357
266
252
193
37
72
44
145
110
83
348
245
34
31
135
276
188
350
237
142
257
254
13
204
38
89
225
268
26
313
190
219
97
300
131
288
156
33
224
112
32
111
87
337
126
298
151
203
2
123
84
285
150
168
10
14
96
124
251
57
45
154
4
22
238
62
23
17
318
3
35
20
159
19
70
353
78
43
94
152
18
261
54
113
292
118
256
115
7
316

>  <PUBCHEM_MMFF94_PARTIAL_CHARGES>  (1) 
58
1 -0.18
10 0.32
11 0.16
12 0.66
13 0.37
15 -0.14
16 0.14
17 -0.15
18 -0.15
19 -0.14
2 -0.46
20 -0.14
21 0.03
22 -0.15
23 0.42
24 -0.15
25 -0.15
26 -0.15
27 -0.15
28 -0.18
3 -0.65
31 -0.15
32 -0.18
33 0.34
34 -0.15
35 0.31
36 -0.15
38 -0.15
39 -0.15
4 -0.57
40 0.18
41 -0.15
42 0.1
43 0.1
44 0.1
45 0.1
5 -0.68
53 0.5
56 0.15
57 0.15
58 0.15
59 0.15
6 -0.62
60 0.15
61 0.15
62 0.15
69 0.15
7 -0.19
70 0.15
71 0.4
72 0.15
73 0.15
74 0.15
75 0.15
76 0.15
77 0.15
8 -0.2
9 -0.2

>  <PUBCHEM_EFFECTIVE_ROTOR_COUNT>  (1) 
12.6

>  <PUBCHEM_PHARMACOPHORE_FEATURES>  (1) 
12
1 3 acceptor
1 4 acceptor
1 5 acceptor
1 5 donor
1 6 acceptor
3 23 29 30 hydrophobe
3 3 4 12 anion
5 2 10 13 14 16 hydrophobe
6 15 17 18 21 22 25 rings
6 19 20 24 26 27 31 rings
6 35 37 38 39 40 41 rings
6 6 33 34 35 36 37 rings

>  <PUBCHEM_HEAVY_ATOM_COUNT>  (1) 
41

>  <PUBCHEM_ATOM_DEF_STEREO_COUNT>  (1) 
0

>  <PUBCHEM_ATOM_UDEF_STEREO_COUNT>  (1) 
1

>  <PUBCHEM_BOND_DEF_STEREO_COUNT>  (1) 
0

>  <PUBCHEM_BOND_UDEF_STEREO_COUNT>  (1) 
1

>  <PUBCHEM_ISOTOPIC_ATOM_COUNT>  (1) 
0

>  <PUBCHEM_COMPONENT_COUNT>  (1) 
1

>  <PUBCHEM_CACTVS_TAUTO_COUNT>  (1) 
1

>  <PUBCHEM_CONFORMER_ID>  (1) 
0000109800000001

>  <PUBCHEM_MMFF94_ENERGY>  (1) 
132.5217

>  <PUBCHEM_FEATURE_SELFOVERLAP>  (1) 
60.985

>  <PUBCHEM_SHAPE_FINGERPRINT>  (1) 
10842077 115 17752507591783790467
10951579 204 16516792673359890895
11763715 3 18050311196872389992
12758862 65 17895180113508909640
131258 43 18263944154544433310
16096371 109 18264768951300650465
19319366 153 18057037132468972352
23845131 108 17832983119995532248
4408954 64 17978536151294281257
4408954 87 17331700435559040314
4756326 101 14563968883298521318
57816373 69 18341899550323800799
6697151 62 18267284457852949693
86090 222 17676211268683051347

>  <PUBCHEM_SHAPE_MULTIPOLES>  (1) 
826.89
18.57
10.38
2.84
61.19
7.15
0.43
-18.59
-2.25
-26.86
-2.46
-1.11
-1.5
0.2

>  <PUBCHEM_SHAPE_SELFOVERLAP>  (1) 
1762.267

>  <PUBCHEM_SHAPE_VOLUME>  (1) 
463.3

>  <PUBCHEM_COORDINATE_TYPE>  (1) 
2
5
10

$$$$
