42486
     RDKit          3D

  8  8  0  0  1  0  0  0  0  0999 V2000
   -0.7310   -1.4753    0.2418 S   0  0  0  0  0  0  0  0  0  0  0  0
    2.3995   -0.6384   -0.6000 O   0  0  0  0  0  0  0  0  0  0  0  0
    1.7142    0.8061    1.0247 O   0  0  0  0  0  0  0  0  0  0  0  0
   -0.6692    1.1221   -0.3287 N   0  0  0  0  0  0  0  0  0  0  0  0
    0.1231   -0.0922   -0.5456 C   0  0  0  0  0  0  0  0  0  0  0  0
   -2.0752    0.6943   -0.3867 C   0  0  0  0  0  0  0  0  0  0  0  0
   -2.2319   -0.5098    0.5320 C   0  0  0  0  0  0  0  0  0  0  0  0
    1.4705    0.0931    0.0626 C   0  0  0  0  0  0  0  0  0  0  0  0
  1  5  1  0
  1  7  1  0
  2  8  1  0
  3  8  2  0
  4  5  1  0
  4  6  1  0
  5  8  1  0
  6  7  1  0
M  END
>  <PUBCHEM_COMPOUND_CID>  (1) 
42486

>  <PUBCHEM_CONFORMER_RMSD>  (1) 
0.4

>  <PUBCHEM_CONFORMER_DIVERSEORDER>  (1) 
1
4
3
2

>  <PUBCHEM_MMFF94_PARTIAL_CHARGES>  (1) 
10
1 -0.46
14 0.36
15 0.5
2 -0.65
3 -0.57
4 -0.9
5 0.56
6 0.27
7 0.23
8 0.66

>  <PUBCHEM_EFFECTIVE_ROTOR_COUNT>  (1) 
2

>  <PUBCHEM_PHARMACOPHORE_FEATURES>  (1) 
6
1 2 acceptor
1 3 acceptor
1 4 cation
1 4 donor
3 2 3 8 anion
5 1 4 5 6 7 rings

>  <PUBCHEM_HEAVY_ATOM_COUNT>  (1) 
8

>  <PUBCHEM_ATOM_DEF_STEREO_COUNT>  (1) 
0

>  <PUBCHEM_ATOM_UDEF_STEREO_COUNT>  (1) 
1

>  <PUBCHEM_BOND_DEF_STEREO_COUNT>  (1) 
0

>  <PUBCHEM_BOND_UDEF_STEREO_COUNT>  (1) 
0

>  <PUBCHEM_ISOTOPIC_ATOM_COUNT>  (1) 
0

>  <PUBCHEM_COMPONENT_COUNT>  (1) 
1

>  <PUBCHEM_CACTVS_TAUTO_COUNT>  (1) 
1

>  <PUBCHEM_CONFORMER_ID>  (1) 
0000A5F600000001

>  <PUBCHEM_MMFF94_ENERGY>  (1) 
8.346

>  <PUBCHEM_FEATURE_SELFOVERLAP>  (1) 
30.502

>  <PUBCHEM_SHAPE_FINGERPRINT>  (1) 
10857977 72 18261672687679788627
12932741 1 18413385444978987812
15310529 11 14996279240844465119
16714656 1 18187655694996088647
20645464 45 18342447171258562072
21040471 1 18188766150290108127
23235685 24 18115028502643278589
23552423 10 17967257485449539838
24536 1 18263072365807926092
29004967 10 17417536821716081350
5084963 1 18411987952983909599

>  <PUBCHEM_SHAPE_MULTIPOLES>  (1) 
151.77
3.1
1.28
0.85
0.46
0.24
-0.09
-0.02
-0.13
-0.39
-0.01
0.19
-0.04
0.39

>  <PUBCHEM_SHAPE_SELFOVERLAP>  (1) 
286.198

>  <PUBCHEM_SHAPE_VOLUME>  (1) 
95.4

>  <PUBCHEM_COORDINATE_TYPE>  (1) 
2
5
10

$$$$
