42481
     RDKit          3D

 25 28  0  0  1  0  0  0  0  0999 V2000
    4.1246    4.0965    1.2210 Cl  0  0  0  0  0  0  0  0  0  0  0  0
    1.3519   -0.6639   -1.8341 S   0  0  0  0  0  0  0  0  0  0  0  0
   -0.8602    0.5889    0.0345 N   0  0  0  0  0  0  0  0  0  0  0  0
   -4.4686    0.3552    0.2420 N   0  0  0  0  0  0  0  0  0  0  0  0
   -3.1296    0.4431   -0.3146 C   0  0  0  0  0  0  0  0  0  0  0  0
   -2.0497    0.0174    0.6687 C   0  0  0  0  0  0  0  0  0  0  0  0
   -2.7294    1.8702   -0.6817 C   0  0  0  0  0  0  0  0  0  0  0  0
   -1.2337    1.9469   -0.3731 C   0  0  0  0  0  0  0  0  0  0  0  0
    0.3054    0.5650    0.9045 C   0  0  0  0  0  0  0  0  0  0  0  0
    0.5694   -0.8290    1.4966 C   0  0  0  0  0  0  0  0  0  0  0  0
    1.5526    1.1536    0.2777 C   0  0  0  0  0  0  0  0  0  0  0  0
   -5.4569    0.9001   -0.6931 C   0  0  0  0  0  0  0  0  0  0  0  0
    1.0367   -2.0123    0.6691 C   0  0  0  0  0  0  0  0  0  0  0  0
   -4.8024   -1.0320    0.5764 C   0  0  0  0  0  0  0  0  0  0  0  0
    2.1137    0.6506   -0.9079 C   0  0  0  0  0  0  0  0  0  0  0  0
    2.1956    2.2232    0.9276 C   0  0  0  0  0  0  0  0  0  0  0  0
    1.4001   -2.0344   -0.6899 C   0  0  0  0  0  0  0  0  0  0  0  0
   -6.8640    0.7807   -0.1450 C   0  0  0  0  0  0  0  0  0  0  0  0
    1.1289   -3.2236    1.3980 C   0  0  0  0  0  0  0  0  0  0  0  0
    3.2833    1.2267   -1.4268 C   0  0  0  0  0  0  0  0  0  0  0  0
    3.3615    2.7852    0.4083 C   0  0  0  0  0  0  0  0  0  0  0  0
    1.8187   -3.2514   -1.2708 C   0  0  0  0  0  0  0  0  0  0  0  0
    3.9054    2.2867   -0.7692 C   0  0  0  0  0  0  0  0  0  0  0  0
    1.5509   -4.4149    0.8111 C   0  0  0  0  0  0  0  0  0  0  0  0
    1.8959   -4.4285   -0.5292 C   0  0  0  0  0  0  0  0  0  0  0  0
  1 21  1  0
  2 15  1  0
  2 17  1  0
  3  6  1  0
  3  8  1  0
  3  9  1  0
  4  5  1  0
  4 12  1  0
  4 14  1  0
  5  6  1  0
  5  7  1  0
  7  8  1  0
  9 10  1  0
  9 11  1  0
 10 13  1  0
 11 15  2  0
 11 16  1  0
 12 18  1  0
 13 17  2  0
 13 19  1  0
 15 20  1  0
 16 21  2  0
 17 22  1  0
 19 24  2  0
 20 23  2  0
 21 23  1  0
 22 25  2  0
 24 25  1  0
M  END
>  <PUBCHEM_COMPOUND_CID>  (1) 
42481

>  <PUBCHEM_CONFORMER_RMSD>  (1) 
0.8

>  <PUBCHEM_CONFORMER_DIVERSEORDER>  (1) 
1
11
8
7
2
9
4
6
10
5
3
12

>  <PUBCHEM_MMFF94_PARTIAL_CHARGES>  (1) 
30
1 -0.18
10 0.14
11 -0.14
12 0.27
13 -0.14
14 0.27
15 0.1
16 -0.15
17 0.1
19 -0.15
2 -0.2
20 -0.15
21 0.18
22 -0.15
23 -0.15
24 -0.15
25 -0.15
3 -0.81
4 -0.81
41 0.15
45 0.15
46 0.15
47 0.15
48 0.15
49 0.15
5 0.27
50 0.15
6 0.27
8 0.27
9 0.41

>  <PUBCHEM_EFFECTIVE_ROTOR_COUNT>  (1) 
4.6

>  <PUBCHEM_PHARMACOPHORE_FEATURES>  (1) 
6
1 3 cation
1 4 cation
5 3 5 6 7 8 rings
6 11 15 16 20 21 23 rings
6 13 17 19 22 24 25 rings
7 2 9 10 11 13 15 17 rings

>  <PUBCHEM_HEAVY_ATOM_COUNT>  (1) 
25

>  <PUBCHEM_ATOM_DEF_STEREO_COUNT>  (1) 
2

>  <PUBCHEM_ATOM_UDEF_STEREO_COUNT>  (1) 
0

>  <PUBCHEM_BOND_DEF_STEREO_COUNT>  (1) 
0

>  <PUBCHEM_BOND_UDEF_STEREO_COUNT>  (1) 
0

>  <PUBCHEM_ISOTOPIC_ATOM_COUNT>  (1) 
0

>  <PUBCHEM_COMPONENT_COUNT>  (1) 
1

>  <PUBCHEM_CACTVS_TAUTO_COUNT>  (1) 
1

>  <PUBCHEM_CONFORMER_ID>  (1) 
0000A5F100000001

>  <PUBCHEM_MMFF94_ENERGY>  (1) 
74.3521

>  <PUBCHEM_FEATURE_SELFOVERLAP>  (1) 
30.46

>  <PUBCHEM_SHAPE_FINGERPRINT>  (1) 
10074138 170 17691099953477243368
10369192 42 18114747152073485845
10721379 63 18268999695543900017
10764073 3 13482736545252492766
11488393 25 18336841805077585410
12532896 13 18196648721228056852
12730499 353 18410303527351482321
12788726 201 16969438314026904330
13004483 165 17256238251183929502
13257819 37 17972340635379221950
13681431 1 18050005498232403738
13955234 65 18411420575135477811
14347424 109 18268156366943674537
14863182 85 18188221995219199421
14955137 171 18339914901928759666
15324884 4 17974599049342445808
15927050 60 18267861877894452314
16728300 4 17607771008356565768
17539 30 17404014220421998538
1813 80 17839179615184142435
20197701 30 18338514269758407736
20567600 347 18335140929187163610
20645477 70 18338516340296758295
21033648 29 18195242441430146496
21049683 118 17983550164946086192
21120745 212 17476651875885302318
21304303 282 17691932236524039174
21344244 246 18339932502710344870
21452121 199 18051973619498136290
22149856 69 18115047264031268441
22182313 1 17823161011168516755
22956985 138 18042111082028633994
23557571 272 17168141188052826661
23559900 14 18192983821566194659
23598288 3 17174066709517566376
238 59 18337691753319510350
27425 322 18127403677786937109
312423 11 18197784298007557769
404807 78 17031308310486503807
460360 51 18123192308156268905
57359948 33 17749095687813667911
59755656 215 18261394416543062916
59755656 520 18194109940495712332
6025842 7 18410570669937930151
621550 34 18335413574086199613
6442390 28 18266179619922316181
6669772 16 18271523204269611788
70251023 43 18119816803121149187
7364860 26 18338233752369551866
7399639 24 18335129921503034597
77188 2 17979349755613124858
81228 2 17474388457862834322

>  <PUBCHEM_SHAPE_MULTIPOLES>  (1) 
510.25
9.58
5.44
1.45
20.44
5.31
-0.13
-8.31
-0.74
-8.21
1.1
-1.05
0.31
1.28

>  <PUBCHEM_SHAPE_SELFOVERLAP>  (1) 
1072.889

>  <PUBCHEM_SHAPE_VOLUME>  (1) 
289.7

>  <PUBCHEM_COORDINATE_TYPE>  (1) 
2
5
10

$$$$
