42496
     RDKit          3D

 25 27  0  0  0  0  0  0  0  0999 V2000
    2.7342    2.0910    1.1089 O   0  0  0  0  0  0  0  0  0  0  0  0
    4.8038    1.5091   -0.4050 O   0  0  0  0  0  0  0  0  0  0  0  0
   -2.5189    0.9543   -0.4393 N   0  0  0  0  0  0  0  0  0  0  0  0
    0.9422    0.6582    0.7723 N   0  0  0  0  0  0  0  0  0  0  0  0
    5.8375   -3.1815   -0.6154 N   0  0  0  0  0  0  0  0  0  0  0  0
   -0.0972    1.6111    1.0915 C   0  0  0  0  0  0  0  0  0  0  0  0
   -1.3081    0.9172    1.7196 C   0  0  0  0  0  0  0  0  0  0  0  0
   -0.5271    2.3959   -0.1502 C   0  0  0  0  0  0  0  0  0  0  0  0
   -2.1087    0.1114    0.6918 C   0  0  0  0  0  0  0  0  0  0  0  0
   -1.3542    1.5410   -1.1155 C   0  0  0  0  0  0  0  0  0  0  0  0
   -3.3262    0.1843   -1.3853 C   0  0  0  0  0  0  0  0  0  0  0  0
   -4.5746   -0.3606   -0.7439 C   0  0  0  0  0  0  0  0  0  0  0  0
    2.2886    0.9864    0.8094 C   0  0  0  0  0  0  0  0  0  0  0  0
    3.2307   -0.0973    0.4285 C   0  0  0  0  0  0  0  0  0  0  0  0
   -4.5444   -1.6119   -0.1442 C   0  0  0  0  0  0  0  0  0  0  0  0
   -5.7379    0.3962   -0.7608 C   0  0  0  0  0  0  0  0  0  0  0  0
    4.4397    0.2193   -0.1575 C   0  0  0  0  0  0  0  0  0  0  0  0
   -5.7007   -2.1167    0.4504 C   0  0  0  0  0  0  0  0  0  0  0  0
   -6.8943   -0.1088   -0.1661 C   0  0  0  0  0  0  0  0  0  0  0  0
    2.8569   -1.4026    0.6804 C   0  0  0  0  0  0  0  0  0  0  0  0
   -6.8756   -1.3653    0.4394 C   0  0  0  0  0  0  0  0  0  0  0  0
    5.3116   -0.8120   -0.5067 C   0  0  0  0  0  0  0  0  0  0  0  0
    3.7287   -2.4337    0.3312 C   0  0  0  0  0  0  0  0  0  0  0  0
    4.9560   -2.1386   -0.2624 C   0  0  0  0  0  0  0  0  0  0  0  0
    4.4380    2.0537   -1.6710 C   0  0  0  0  0  0  0  0  0  0  0  0
  1 13  2  0
  2 17  1  0
  2 25  1  0
  3  9  1  0
  3 10  1  0
  3 11  1  0
  4  6  1  0
  4 13  1  0
  5 24  1  0
  6  7  1  0
  6  8  1  0
  7  9  1  0
  8 10  1  0
 11 12  1  0
 12 15  2  0
 12 16  1  0
 13 14  1  0
 14 17  2  0
 14 20  1  0
 15 18  1  0
 16 19  2  0
 17 22  1  0
 18 21  2  0
 19 21  1  0
 20 23  2  0
 22 24  2  0
 23 24  1  0
M  END
>  <PUBCHEM_COMPOUND_CID>  (1) 
42496

>  <PUBCHEM_CONFORMER_RMSD>  (1) 
0.8

>  <PUBCHEM_CONFORMER_DIVERSEORDER>  (1) 
1
97
11
78
117
62
69
137
38
34
35
126
106
22
121
82
116
94
56
104
29
84
44
96
71
88
111
136
14
113
101
61
9
114
58
115
74
90
135
40
15
60
139
45
77
80
36
18
108
73
6
79
63
92
30
21
59
103
132
87
123
138
17
86
110
8
53
66
85
54
37
127
76
28
65
43
16
75
81
23
70
91
95
131
57
102
105
41
93
39
124
112
52
133
107
67
10
27
32
109
72
49
122
120
129
19
100
55
47
12
3
20
31
130
68
119
140
5
98
125
46
134
141
4
51
13
99
25
48
89
83
50
24
33
64
2
118
42
7
128
26

>  <PUBCHEM_MMFF94_PARTIAL_CHARGES>  (1) 
34
1 -0.57
10 0.27
11 0.41
12 -0.14
13 0.54
14 0.09
15 -0.15
16 -0.15
17 0.08
18 -0.15
19 -0.15
2 -0.36
20 -0.15
21 -0.15
22 -0.15
23 -0.15
24 0.1
25 0.28
3 -0.81
37 0.37
38 0.15
39 0.15
4 -0.73
40 0.15
41 0.15
42 0.15
43 0.15
44 0.15
45 0.15
46 0.4
47 0.4
5 -0.9
6 0.3
9 0.27

>  <PUBCHEM_EFFECTIVE_ROTOR_COUNT>  (1) 
7.2

>  <PUBCHEM_PHARMACOPHORE_FEATURES>  (1) 
9
1 1 acceptor
1 2 acceptor
1 3 cation
1 4 donor
1 5 cation
1 5 donor
6 12 15 16 18 19 21 rings
6 14 17 20 22 23 24 rings
6 3 6 7 8 9 10 rings

>  <PUBCHEM_HEAVY_ATOM_COUNT>  (1) 
25

>  <PUBCHEM_ATOM_DEF_STEREO_COUNT>  (1) 
0

>  <PUBCHEM_ATOM_UDEF_STEREO_COUNT>  (1) 
0

>  <PUBCHEM_BOND_DEF_STEREO_COUNT>  (1) 
0

>  <PUBCHEM_BOND_UDEF_STEREO_COUNT>  (1) 
0

>  <PUBCHEM_ISOTOPIC_ATOM_COUNT>  (1) 
0

>  <PUBCHEM_COMPONENT_COUNT>  (1) 
1

>  <PUBCHEM_CACTVS_TAUTO_COUNT>  (1) 
3

>  <PUBCHEM_CONFORMER_ID>  (1) 
0000A60000000001

>  <PUBCHEM_MMFF94_ENERGY>  (1) 
82.3247

>  <PUBCHEM_FEATURE_SELFOVERLAP>  (1) 
45.681

>  <PUBCHEM_SHAPE_FINGERPRINT>  (1) 
10670039 82 13624086431820830222
11089746 13 10951779577240162629
117089 54 17770793312316169254
12166972 35 18260553294727787382
12592606 108 18202279217870195391
12596602 18 15194990709168647679
12633257 1 14332828418417212578
12760667 363 18059850637196007747
12788726 201 17561092397017549449
13103583 49 16845573162533872423
13402501 40 18409166615022554651
13533116 47 18272087218662895984
1361 2 17895479227626315940
13955234 65 17915168233948377496
14251764 30 18412260666686493263
14347424 109 17489583472319874977
14420673 8 18410857647237725943
15183329 4 18408321065079354211
15238133 3 11455597829811269482
15352257 5 18409166649645881275
15475509 8 17967533433457643989
15537594 2 18130783507599655911
15799311 1 18340221747008002459
173720 79 12901535884216382753
18335252 98 18334581294848209547
20567600 234 8358257051479136497
20567600 247 18339640165681811727
21033650 10 16950841380365808877
21344244 181 18187087264992115195
21344244 246 18408893919828545588
21682296 61 18413389843970114719
21859007 373 12822752496294630451
221357 26 18409728426735282850
22950370 63 18411135853353635417
23522609 53 18056789648227620929
23559900 14 18339916121710027729
24771750 20 17173790727520049021
2767999 5 12324239473147702223
2838139 119 8862674482053104931
3004659 81 18334292046292137490
33382 64 18413389851894962993
345986 75 17561080280988595723
3472631 163 14924235962254288428
34797466 226 17458345286038689061
351380 3 17846495950312362567
4107672 100 17823134528511023877
439807 62 18336828602152743263
4435113 14 18335715969880621187
46194498 28 17822289127990488300
465052 167 18131070432937227326
484989 97 18334868237857151018
5104073 3 17632292337699914104
53794403 172 15286501996326713324
54039377 194 18201159850329301886
7970288 3 18201155430359664814
8509985 295 8502658095255985326
8863177 126 18340766056956690683
9981440 41 12103570823059896525
999808 66 18113911485536328931

>  <PUBCHEM_SHAPE_MULTIPOLES>  (1) 
487.81
17.63
2.82
1.27
13.08
0.97
0.01
10.83
-3.72
-3.48
-0.2
-0.11
-0.55
0.42

>  <PUBCHEM_SHAPE_SELFOVERLAP>  (1) 
1037.874

>  <PUBCHEM_SHAPE_VOLUME>  (1) 
270.7

>  <PUBCHEM_COORDINATE_TYPE>  (1) 
2
5
10

$$$$
