4249
     RDKit          3D

 26 28  0  0  0  0  0  0  0  0999 V2000
   -8.7584    1.3675    0.4256 F   0  0  0  0  0  0  0  0  0  0  0  0
    2.9453    1.3058   -1.2889 O   0  0  0  0  0  0  0  0  0  0  0  0
   -3.1761   -0.6294   -1.6259 O   0  0  0  0  0  0  0  0  0  0  0  0
    0.4751   -0.3834    0.7340 N   0  0  0  0  0  0  0  0  0  0  0  0
    3.1828    0.3592   -0.2363 C   0  0  0  0  0  0  0  0  0  0  0  0
    2.4641   -0.9555   -0.6134 C   0  0  0  0  0  0  0  0  0  0  0  0
    2.5750    0.8925    1.0816 C   0  0  0  0  0  0  0  0  0  0  0  0
    0.9360   -0.8347   -0.5834 C   0  0  0  0  0  0  0  0  0  0  0  0
    1.0412    0.9266    1.0714 C   0  0  0  0  0  0  0  0  0  0  0  0
    4.7043    0.2527   -0.1205 C   0  0  0  0  0  0  0  0  0  0  0  0
   -0.9861   -0.3376    0.7783 C   0  0  0  0  0  0  0  0  0  0  0  0
   -1.5678   -1.7231    0.4896 C   0  0  0  0  0  0  0  0  0  0  0  0
    5.3354   -0.9686   -0.3504 C   0  0  0  0  0  0  0  0  0  0  0  0
    5.4567    1.3774    0.2141 C   0  0  0  0  0  0  0  0  0  0  0  0
   -3.0986   -1.7285    0.5213 C   0  0  0  0  0  0  0  0  0  0  0  0
    6.7229   -1.0655   -0.2453 C   0  0  0  0  0  0  0  0  0  0  0  0
    6.8442    1.2804    0.3191 C   0  0  0  0  0  0  0  0  0  0  0  0
    7.4773    0.0590    0.0894 C   0  0  0  0  0  0  0  0  0  0  0  0
   -3.7285   -0.8507   -0.5510 C   0  0  0  0  0  0  0  0  0  0  0  0
    8.9607   -0.0448    0.2020 C   0  0  0  0  0  0  0  0  0  0  0  0
   -5.0718   -0.2589   -0.2910 C   0  0  0  0  0  0  0  0  0  0  0  0
   -5.9502   -0.9437    0.5187 C   0  0  0  0  0  0  0  0  0  0  0  0
   -5.3842    0.9513   -0.8691 C   0  0  0  0  0  0  0  0  0  0  0  0
   -7.2066   -0.3893    0.7631 C   0  0  0  0  0  0  0  0  0  0  0  0
   -6.6406    1.5056   -0.6245 C   0  0  0  0  0  0  0  0  0  0  0  0
   -7.5519    0.8354    0.1915 C   0  0  0  0  0  0  0  0  0  0  0  0
  1 26  1  0
  2  5  1  0
  3 19  2  0
  4  8  1  0
  4  9  1  0
  4 11  1  0
  5  6  1  0
  5  7  1  0
  5 10  1  0
  6  8  1  0
  7  9  1  0
 10 13  2  0
 10 14  1  0
 11 12  1  0
 12 15  1  0
 13 16  1  0
 14 17  2  0
 15 19  1  0
 16 18  2  0
 17 18  1  0
 18 20  1  0
 19 21  1  0
 21 22  2  0
 21 23  1  0
 22 24  1  0
 23 25  2  0
 24 26  2  0
 25 26  1  0
M  END
>  <PUBCHEM_COMPOUND_CID>  (1) 
4249

>  <PUBCHEM_CONFORMER_RMSD>  (1) 
0.8

>  <PUBCHEM_CONFORMER_DIVERSEORDER>  (1) 
1
443
182
424
266
381
228
213
349
160
377
187
292
177
6
242
356
58
261
252
265
276
77
338
37
301
189
202
411
403
316
327
163
218
414
271
284
185
400
128
406
74
454
392
57
149
291
250
221
355
106
229
118
224
67
328
352
320
387
259
21
31
69
234
423
442
298
401
5
68
3
432
159
365
116
391
36
205
249
19
363
97
76
122
347
332
158
12
105
282
354
428
388
138
179
449
275
346
214
302
321
290
412
170
367
166
126
455
75
119
450
181
27
309
394
422
111
343
169
51
60
317
335
207
305
289
216
53
315
225
446
164
409
435
233
42
80
100
155
52
263
358
407
223
90
24
366
70
16
371
59
436
279
136
99
330
272
453
92
389
307
222
83
14
49
184
131
342
270
110
23
344
127
71
264
325
237
121
281
334
451
88
277
393
13
286
445
206
378
415
133
404
117
268
420
314
63
280
154
417
278
139
357
383
456
102
78
157
137
123
81
143
438
196
10
161
295
447
130
362
239
256
11
61
339
124
364
254
333
382
390
35
439
62
331
247
395
293
430
457
101
311
374
408
135
386
2
47
243
219
297
152
217
40
64
146
341
38
336
429
153
178
248
172
397
103
50
294
329
385
440
215
246
54
431
9
17
109
324
87
208
376
437
235
427
361
194
368
168
4
204
210
203
257
426
34
370
236
348
32
405
25
175
283
380
296
193
373
369
452
190
396
313
22
372
48
399
20
384
421
319
173
91
238
273
28
192
43
114
134
84
441
433
418
359
165
94
300
260
95
44
39
79
312
183
326
144
323
350
162
209
253
186
231
180
115
306
458
448
255
345
227
65
86
402
45
198
197
85
337
303
410
29
98
108
245
129
140
212
232
156
151
419
104
288
398
7
191
322
318
444
33
132
8
171
125
413
199
167
147
89
425
145
226
251
287
73
304
55
258
107
375
26
340
72
142
176
195
112
82
18
200
240
41
188
93
150
299
269
15
310
141
230
267
360
308
120
96
148
201
113
220
30
56
211
379
274
416
46
351
434
174
241
244
285
66
262
353

>  <PUBCHEM_MMFF94_PARTIAL_CHARGES>  (1) 
32
1 -0.19
10 -0.14
11 0.27
13 -0.15
14 -0.15
15 0.06
16 -0.15
17 -0.15
18 -0.14
19 0.42
2 -0.68
20 0.14
21 0.09
22 -0.15
23 -0.15
24 -0.15
25 -0.15
26 0.19
3 -0.57
39 0.4
4 -0.81
40 0.15
41 0.15
44 0.15
45 0.15
49 0.15
5 0.42
50 0.15
51 0.15
52 0.15
8 0.27
9 0.27

>  <PUBCHEM_EFFECTIVE_ROTOR_COUNT>  (1) 
7.2

>  <PUBCHEM_PHARMACOPHORE_FEATURES>  (1) 
7
1 2 acceptor
1 2 donor
1 3 acceptor
1 4 cation
6 10 13 14 16 17 18 rings
6 21 22 23 24 25 26 rings
6 4 5 6 7 8 9 rings

>  <PUBCHEM_HEAVY_ATOM_COUNT>  (1) 
26

>  <PUBCHEM_ATOM_DEF_STEREO_COUNT>  (1) 
0

>  <PUBCHEM_ATOM_UDEF_STEREO_COUNT>  (1) 
0

>  <PUBCHEM_BOND_DEF_STEREO_COUNT>  (1) 
0

>  <PUBCHEM_BOND_UDEF_STEREO_COUNT>  (1) 
0

>  <PUBCHEM_ISOTOPIC_ATOM_COUNT>  (1) 
0

>  <PUBCHEM_COMPONENT_COUNT>  (1) 
1

>  <PUBCHEM_CACTVS_TAUTO_COUNT>  (1) 
2

>  <PUBCHEM_CONFORMER_ID>  (1) 
0000109900000001

>  <PUBCHEM_MMFF94_ENERGY>  (1) 
64.9899

>  <PUBCHEM_FEATURE_SELFOVERLAP>  (1) 
35.522

>  <PUBCHEM_SHAPE_FINGERPRINT>  (1) 
10 15 17386002846181435657
10165383 225 18335419055044178483
10299344 5 13045943512330362362
10391435 84 11239703176562272525
106641 1 11025802002561470366
10670039 82 18336259064495209685
10730089 173 18334575737878135041
11135609 99 9943223962387741833
11135926 11 16630533933689875007
11315181 36 8718830895156475039
11646440 116 16081088181806328276
11719270 70 17704354355876455614
11724838 91 9367344838913443306
11796584 16 18408886274265337626
12166972 35 13479135704738188006
12664476 115 18411134724268178337
12838862 33 16558741296157822534
13914758 101 18408604743215921688
14150022 121 13046211755252151231
14251752 14 18413106147735221587
14251764 18 13767924624385748282
14251764 46 18187082862808241763
1454969 45 12463569599657242938
14675020 138 18335685158428299050
14849402 71 14924240368722157310
14856354 85 14779551201222183539
14933364 13 18261111876683390505
15119646 104 16630253506331814998
15142383 8 18341894100104448212
15183329 4 17203890756304569667
15716309 27 11386365950385881907
15728490 51 12107795116173421729
1577012 14 17968085413995727283
18335252 98 8502658112815766424
18608769 82 18336549400147447979
19611394 137 17387431219223267059
19841028 212 18262234418786755826
20105231 36 12973881486614465232
20238998 120 18272370884659341432
20281389 69 18186518808668456285
21033648 29 18339068415303231152
21095086 128 8142089762866024576
21150785 3 14045742620937537059
21267235 1 11819268950230107490
21298829 104 16487267547247427715
21315759 40 14273737360573627090
21365058 27 15863789495791305131
21585482 111 18191867817855911101
21756936 100 18259981592295972915
21792934 111 17847053386424620864
22224240 67 13614239283386966300
23559900 14 17417801915640001107
246663 6 12179843896674388810
28498 318 18272373058075484950
3009799 131 17917992789209540674
3633792 109 18201725038018303386
4073 2 17968381263943459546
4098825 35 18410292536266583603
4325135 7 15769777957603328112
4339292 15 17417240070612286415
5385378 56 17531241721491671050
5758199 1 16443063898128686561
59682541 35 12468646031942270213
5969126 39 15410899535197318721
59755656 520 17676203598383273547
6009941 240 18334579074725138426
6081469 158 18343587314163175078
9953998 17 17603309250716667337

>  <PUBCHEM_SHAPE_MULTIPOLES>  (1) 
511.07
27.43
1.55
1.03
4.59
0
0.08
6.83
-0.64
0.76
-0.02
0.48
0.06
0.81

>  <PUBCHEM_SHAPE_SELFOVERLAP>  (1) 
1084.157

>  <PUBCHEM_SHAPE_VOLUME>  (1) 
286.6

>  <PUBCHEM_COORDINATE_TYPE>  (1) 
2
5
10

$$$$
