42492
     RDKit          3D

 30 32  0  0  0  0  0  0  0  0999 V2000
   -5.7662    2.3677    0.6443 Cl  0  0  0  0  0  0  0  0  0  0  0  0
   -8.1892   -2.5269   -0.4996 Cl  0  0  0  0  0  0  0  0  0  0  0  0
   -0.7973    2.8325   -1.6931 O   0  0  0  0  0  0  0  0  0  0  0  0
   -1.0107   -0.8051   -0.7325 O   0  0  0  0  0  0  0  0  0  0  0  0
   -4.9982   -2.9282    0.3326 O   0  0  0  0  0  0  0  0  0  0  0  0
    3.6997    0.5872    0.7578 N   0  0  0  0  0  0  0  0  0  0  0  0
    0.2881    1.7761    0.0627 N   0  0  0  0  0  0  0  0  0  0  0  0
   -5.6103   -0.6673    0.5565 N   0  0  0  0  0  0  0  0  0  0  0  0
    1.5723    2.4129   -0.1259 C   0  0  0  0  0  0  0  0  0  0  0  0
    2.3053    2.5831    1.2068 C   0  0  0  0  0  0  0  0  0  0  0  0
    2.4418    1.6222   -1.1064 C   0  0  0  0  0  0  0  0  0  0  0  0
    2.8396    1.2522    1.7457 C   0  0  0  0  0  0  0  0  0  0  0  0
    2.9710    0.3234   -0.4902 C   0  0  0  0  0  0  0  0  0  0  0  0
    4.2432   -0.6552    1.3059 C   0  0  0  0  0  0  0  0  0  0  0  0
    5.5158   -1.0645    0.6131 C   0  0  0  0  0  0  0  0  0  0  0  0
   -0.8020    2.0456   -0.7501 C   0  0  0  0  0  0  0  0  0  0  0  0
   -2.0579    1.3290   -0.4090 C   0  0  0  0  0  0  0  0  0  0  0  0
    6.7464   -0.6190    1.0955 C   0  0  0  0  0  0  0  0  0  0  0  0
    5.4643   -1.8891   -0.5108 C   0  0  0  0  0  0  0  0  0  0  0  0
   -2.1103   -0.0650   -0.4146 C   0  0  0  0  0  0  0  0  0  0  0  0
    7.9256   -0.9980    0.4539 C   0  0  0  0  0  0  0  0  0  0  0  0
    6.6436   -2.2679   -1.1526 C   0  0  0  0  0  0  0  0  0  0  0  0
   -3.1941    2.0685   -0.0803 C   0  0  0  0  0  0  0  0  0  0  0  0
    7.8744   -1.8222   -0.6705 C   0  0  0  0  0  0  0  0  0  0  0  0
   -3.2990   -0.7196   -0.0916 C   0  0  0  0  0  0  0  0  0  0  0  0
   -4.3826    1.4137    0.2431 C   0  0  0  0  0  0  0  0  0  0  0  0
   -4.4352    0.0197    0.2374 C   0  0  0  0  0  0  0  0  0  0  0  0
   -0.8303   -1.1389   -2.1071 C   0  0  0  0  0  0  0  0  0  0  0  0
   -5.8174   -2.0512    0.5943 C   0  0  0  0  0  0  0  0  0  0  0  0
   -7.2303   -2.4157    0.9847 C   0  0  0  0  0  0  0  0  0  0  0  0
  1 26  1  0
  2 30  1  0
  3 16  2  0
  4 20  1  0
  4 28  1  0
  5 29  2  0
  6 12  1  0
  6 13  1  0
  6 14  1  0
  7  9  1  0
  7 16  1  0
  8 27  1  0
  8 29  1  0
  9 10  1  0
  9 11  1  0
 10 12  1  0
 11 13  1  0
 14 15  1  0
 15 18  2  0
 15 19  1  0
 16 17  1  0
 17 20  2  0
 17 23  1  0
 18 21  1  0
 19 22  2  0
 20 25  1  0
 21 24  2  0
 22 24  1  0
 23 26  2  0
 25 27  2  0
 26 27  1  0
 29 30  1  0
M  END
>  <PUBCHEM_COMPOUND_CID>  (1) 
42492

>  <PUBCHEM_CONFORMER_RMSD>  (1) 
1

>  <PUBCHEM_CONFORMER_DIVERSEORDER>  (1) 
2
23
26
35
32
63
20
78
79
15
25
77
34
59
46
38
49
28
29
56
27
22
74
30
67
21
75
55
64
83
69
57
50
70
68
66
36
6
72
14
18
52
54
82
19
9
1
60
40
42
65
24
76
31
10
62
44
81
43
12
4
16
3
7
39
33
17
61
58
53
13
48
41
45
51
5
37
11
71
73
80
47
8

>  <PUBCHEM_MMFF94_PARTIAL_CHARGES>  (1) 
37
1 -0.18
12 0.27
13 0.27
14 0.41
15 -0.14
16 0.54
17 0.09
18 -0.15
19 -0.15
2 -0.29
20 0.08
21 -0.15
22 -0.15
23 -0.15
24 -0.15
25 -0.15
26 0.18
27 0.12
28 0.28
29 0.57
3 -0.57
30 0.35
4 -0.36
42 0.37
43 0.15
44 0.15
45 0.15
46 0.15
47 0.15
48 0.15
49 0.15
5 -0.57
50 0.37
6 -0.81
7 -0.73
8 -0.55
9 0.3

>  <PUBCHEM_EFFECTIVE_ROTOR_COUNT>  (1) 
10.2

>  <PUBCHEM_PHARMACOPHORE_FEATURES>  (1) 
9
1 3 acceptor
1 4 acceptor
1 5 acceptor
1 6 cation
1 7 donor
1 8 donor
6 15 18 19 21 22 24 rings
6 17 20 23 25 26 27 rings
6 6 9 10 11 12 13 rings

>  <PUBCHEM_HEAVY_ATOM_COUNT>  (1) 
30

>  <PUBCHEM_ATOM_DEF_STEREO_COUNT>  (1) 
0

>  <PUBCHEM_ATOM_UDEF_STEREO_COUNT>  (1) 
0

>  <PUBCHEM_BOND_DEF_STEREO_COUNT>  (1) 
0

>  <PUBCHEM_BOND_UDEF_STEREO_COUNT>  (1) 
0

>  <PUBCHEM_ISOTOPIC_ATOM_COUNT>  (1) 
0

>  <PUBCHEM_COMPONENT_COUNT>  (1) 
1

>  <PUBCHEM_CACTVS_TAUTO_COUNT>  (1) 
5

>  <PUBCHEM_CONFORMER_ID>  (1) 
0000A5FC00000002

>  <PUBCHEM_MMFF94_ENERGY>  (1) 
84.4563

>  <PUBCHEM_FEATURE_SELFOVERLAP>  (1) 
45.671

>  <PUBCHEM_SHAPE_FINGERPRINT>  (1) 
10042902 136 18259704505915768364
10319926 262 18342459227242499633
10692045 39 16272216266867329574
10981352 41 18341043124832705994
117089 54 18335149716764767267
11756154 67 18335422369719714054
12107183 9 18337114454361012113
12422481 6 18060415833032333495
12522641 68 16089846041410262500
12633257 1 16773505659784944064
12988421 55 13398629407591966349
13402501 40 18272087146339652358
13533116 47 18264487476455431585
1361 87 17313677069594973395
13673619 4 18408040719236131960
13685833 64 18412825777071482282
13782708 43 18342173375398546294
13911987 19 13912319088768624113
14068700 675 18113338596495710876
14123256 34 18335141998660569554
14420673 8 18341051809134836897
14556957 393 15285927909755435822
14767858 380 16515693196023189376
15064986 96 17489031452768188495
15347591 1 18410856603202438145
15510800 12 18412823590632792807
15537594 2 17895472510392345840
16110190 28 18343297072662646380
16120349 21 18409172100170051929
18335252 98 18343019970701088722
18608769 82 18410855452087503058
19302320 297 12175619607302976098
19841028 212 18115305713007855443
20511986 3 10159701261318272912
20737093 207 17678166098771627954
20982279 24 17532667918035265427
21304304 249 18337110163651526063
21682296 61 18410577310152730499
21987483 16 17413297320393243599
23522609 53 17971504873346528252
255183 451 18261394485321107900
2838139 119 9078817581626592640
3383291 50 18408321111681377907
3504750 166 18272650191193784823
437795 70 18259990396335579722
437815 12 18343299241325900792
474113 269 18271798078245943143
5104073 3 18272937158843220161
54039377 194 18410578375594822326
56633871 153 18272365416701087183
5718773 13 18409730694594085583
57816373 69 18270960262494960847
636775 8 18270408175463527158
9962374 69 18199459033866841503
9981440 41 10663808711550215212
999808 66 18342458123409660714

>  <PUBCHEM_SHAPE_MULTIPOLES>  (1) 
588.57
23.06
3.55
1.38
6.68
0.2
-0.17
-23.12
4.18
-3.68
-0.22
0.85
0.09
1.42

>  <PUBCHEM_SHAPE_SELFOVERLAP>  (1) 
1222.398

>  <PUBCHEM_SHAPE_VOLUME>  (1) 
334.7

>  <PUBCHEM_COORDINATE_TYPE>  (1) 
2
5
10

$$$$
