42498
     RDKit          3D

 29 31  0  0  0  0  0  0  0  0999 V2000
   -0.9754   -2.2927    1.0967 O   0  0  0  0  0  0  0  0  0  0  0  0
    0.3204    0.6513    2.1196 O   0  0  0  0  0  0  0  0  0  0  0  0
    5.6717   -1.1022   -1.3909 O   0  0  0  0  0  0  0  0  0  0  0  0
   -1.5994   -0.6765   -0.4740 N   0  0  0  0  0  0  0  0  0  0  0  0
   -5.1164   -2.8489    0.4302 N   0  0  0  0  0  0  0  0  0  0  0  0
    4.7369    0.2386    0.3004 N   0  0  0  0  0  0  0  0  0  0  0  0
    6.9814    0.4096   -0.2319 N   0  0  0  0  0  0  0  0  0  0  0  0
   -2.9818   -1.0843   -0.5028 C   0  0  0  0  0  0  0  0  0  0  0  0
   -3.6333   -0.9213    0.8719 C   0  0  0  0  0  0  0  0  0  0  0  0
   -3.1134   -2.5303   -0.9836 C   0  0  0  0  0  0  0  0  0  0  0  0
   -5.0647   -1.4547    0.8715 C   0  0  0  0  0  0  0  0  0  0  0  0
   -4.5636   -3.0056   -0.9156 C   0  0  0  0  0  0  0  0  0  0  0  0
   -1.2408    0.4470   -1.3451 C   0  0  0  0  0  0  0  0  0  0  0  0
   -0.6913   -1.3496    0.3592 C   0  0  0  0  0  0  0  0  0  0  0  0
   -1.9749    1.7028   -0.9735 C   0  0  0  0  0  0  0  0  0  0  0  0
    0.7181   -0.9264    0.3571 C   0  0  0  0  0  0  0  0  0  0  0  0
   -3.2103    1.9866   -1.5556 C   0  0  0  0  0  0  0  0  0  0  0  0
   -1.4215    2.5859   -0.0464 C   0  0  0  0  0  0  0  0  0  0  0  0
    1.1714    0.0574    1.2359 C   0  0  0  0  0  0  0  0  0  0  0  0
    1.6043   -1.5222   -0.5403 C   0  0  0  0  0  0  0  0  0  0  0  0
    2.5110    0.4455    1.2173 C   0  0  0  0  0  0  0  0  0  0  0  0
   -3.8924    3.1533   -1.2104 C   0  0  0  0  0  0  0  0  0  0  0  0
   -2.1036    3.7526    0.2987 C   0  0  0  0  0  0  0  0  0  0  0  0
    2.9439   -1.1339   -0.5589 C   0  0  0  0  0  0  0  0  0  0  0  0
    3.3973   -0.1501    0.3199 C   0  0  0  0  0  0  0  0  0  0  0  0
   -3.3391    4.0364   -0.2833 C   0  0  0  0  0  0  0  0  0  0  0  0
    0.8711    1.6464    2.9796 C   0  0  0  0  0  0  0  0  0  0  0  0
    5.7764   -0.2377   -0.5241 C   0  0  0  0  0  0  0  0  0  0  0  0
    8.2180    0.1227   -0.9217 C   0  0  0  0  0  0  0  0  0  0  0  0
  1 14  2  0
  2 19  1  0
  2 27  1  0
  3 28  2  0
  4  8  1  0
  4 13  1  0
  4 14  1  0
  5 11  1  0
  5 12  1  0
  6 25  1  0
  6 28  1  0
  7 28  1  0
  7 29  1  0
  8  9  1  0
  8 10  1  0
  9 11  1  0
 10 12  1  0
 13 15  1  0
 14 16  1  0
 15 17  2  0
 15 18  1  0
 16 19  2  0
 16 20  1  0
 17 22  1  0
 18 23  2  0
 19 21  1  0
 20 24  2  0
 21 25  2  0
 22 26  2  0
 23 26  1  0
 24 25  1  0
M  END
>  <PUBCHEM_COMPOUND_CID>  (1) 
42498

>  <PUBCHEM_CONFORMER_RMSD>  (1) 
1

>  <PUBCHEM_CONFORMER_DIVERSEORDER>  (1) 
2
103
71
106
33
117
102
92
86
39
95
44
19
58
98
57
29
88
125
100
42
110
69
74
76
108
120
45
112
105
101
118
66
15
93
18
43
90
123
122
52
99
3
107
85
119
75
121
54
87
97
48
35
38
32
37
62
36
6
113
65
20
25
49
126
111
115
68
50
31
13
81
116
124
64
78
70
30
72
104
21
9
24
16
27
61
67
94
63
55
82
51
60
46
7
28
114
12
34
127
8
10
83
89
80
59
4
22
84
40
96
53
109
79
1
73
17
14
56
23
5
26
47
77
11
41
91

>  <PUBCHEM_MMFF94_PARTIAL_CHARGES>  (1) 
38
1 -0.57
11 0.27
12 0.27
13 0.44
14 0.54
15 -0.14
16 0.09
17 -0.15
18 -0.15
19 0.08
2 -0.36
20 -0.15
21 -0.15
22 -0.15
23 -0.15
24 -0.15
25 0.12
26 -0.15
27 0.28
28 0.69
29 0.3
3 -0.57
39 0.36
4 -0.66
42 0.15
43 0.15
44 0.15
45 0.15
46 0.15
47 0.15
48 0.15
49 0.15
5 -0.9
50 0.37
54 0.37
6 -0.55
7 -0.73
8 0.3

>  <PUBCHEM_EFFECTIVE_ROTOR_COUNT>  (1) 
10.2

>  <PUBCHEM_PHARMACOPHORE_FEATURES>  (1) 
10
1 1 acceptor
1 2 acceptor
1 3 acceptor
1 5 cation
1 5 donor
1 6 donor
1 7 donor
6 15 17 18 22 23 26 rings
6 16 19 20 21 24 25 rings
6 5 8 9 10 11 12 rings

>  <PUBCHEM_HEAVY_ATOM_COUNT>  (1) 
29

>  <PUBCHEM_ATOM_DEF_STEREO_COUNT>  (1) 
0

>  <PUBCHEM_ATOM_UDEF_STEREO_COUNT>  (1) 
0

>  <PUBCHEM_BOND_DEF_STEREO_COUNT>  (1) 
0

>  <PUBCHEM_BOND_UDEF_STEREO_COUNT>  (1) 
0

>  <PUBCHEM_ISOTOPIC_ATOM_COUNT>  (1) 
0

>  <PUBCHEM_COMPONENT_COUNT>  (1) 
1

>  <PUBCHEM_CACTVS_TAUTO_COUNT>  (1) 
5

>  <PUBCHEM_CONFORMER_ID>  (1) 
0000A60200000002

>  <PUBCHEM_MMFF94_ENERGY>  (1) 
86.0401

>  <PUBCHEM_FEATURE_SELFOVERLAP>  (1) 
50.794

>  <PUBCHEM_SHAPE_FINGERPRINT>  (1) 
10076449 9 18410853279250127015
10165383 225 18271531888614642689
10290309 65 18130793300621710390
11069576 57 16472593787302507911
11101153 10 18115595988320061516
11135926 11 16200434646675719302
11445158 3 16700892885030815245
11578080 2 18196100949351534215
12107698 1 18261394494343104276
12390115 104 18262807254720040132
12403259 415 18201711873816648448
12788726 201 18187637033542919227
12954195 1 18410289198776145454
13073987 5 18334009472484339418
13540713 5 17824242839735803698
13673619 4 18130228271312617307
13690498 29 18271803557795946678
14713325 29 18341054021058838005
14955137 171 18046353195794607995
15131766 46 16125823070903038080
15849732 13 14692579822664073043
1813 80 18265889353881033571
21033650 10 18334862701691116634
21049683 271 18055922236441745858
21236236 1 18333450924328687940
21304303 172 18341334470640807687
21792961 116 18059858316856145574
22182313 1 17773573049376963944
23536364 44 17917152689432879344
23557571 272 18410013238621994926
2747138 104 18115877463016761842
283562 15 18259702294392947267
4058900 60 17621038656081418961
4098825 35 18337395933737710534
4258327 124 17604156926151676829
46194498 28 18201162156789536428
469060 322 18262533540728245225
6287921 2 17552906739413018755
7237137 82 18410859850017456444
7808743 9 18189610549487983396

>  <PUBCHEM_SHAPE_MULTIPOLES>  (1) 
559.27
13.81
4.07
1.71
30.18
2.84
0.97
-3.07
-5.11
-8.96
-0.62
0.11
0.6
1.42

>  <PUBCHEM_SHAPE_SELFOVERLAP>  (1) 
1181.52

>  <PUBCHEM_SHAPE_VOLUME>  (1) 
311.3

>  <PUBCHEM_COORDINATE_TYPE>  (1) 
2
5
10

$$$$
