42516
     RDKit          3D

 25 27  0  0  1  0  0  0  0  0999 V2000
   -1.4623    4.9429    1.7554 Cl  0  0  0  0  0  0  0  0  0  0  0  0
   -5.9315   -2.9424    0.3025 Cl  0  0  0  0  0  0  0  0  0  0  0  0
    1.1605    0.5906   -1.1267 N   0  0  0  0  0  0  0  0  0  0  0  0
    2.4372    0.4209   -1.7222 N   0  0  0  0  0  0  0  0  0  0  0  0
    3.7329   -2.6621    1.0233 N   0  0  0  0  0  0  0  0  0  0  0  0
    3.2769   -0.5739   -1.0358 C   0  0  0  0  0  0  0  0  0  0  0  0
    0.7236    1.7236   -0.4780 C   0  0  0  0  0  0  0  0  0  0  0  0
    3.3746   -0.3019    0.4669 C   0  0  0  0  0  0  0  0  0  0  0  0
   -0.5813    1.4734   -0.0477 C   0  0  0  0  0  0  0  0  0  0  0  0
   -0.9111    0.1522   -0.4608 C   0  0  0  0  0  0  0  0  0  0  0  0
    0.1796   -0.3644   -1.1216 C   0  0  0  0  0  0  0  0  0  0  0  0
    4.2583   -1.3126    1.2002 C   0  0  0  0  0  0  0  0  0  0  0  0
    2.3785    0.1467   -3.1669 C   0  0  0  0  0  0  0  0  0  0  0  0
    1.3770    2.9383   -0.2414 C   0  0  0  0  0  0  0  0  0  0  0  0
   -2.1221   -0.5951   -0.2762 C   0  0  0  0  0  0  0  0  0  0  0  0
   -1.2697    2.4834    0.6531 C   0  0  0  0  0  0  0  0  0  0  0  0
    0.6743    3.9253    0.4556 C   0  0  0  0  0  0  0  0  0  0  0  0
   -0.6287    3.7036    0.8969 C   0  0  0  0  0  0  0  0  0  0  0  0
   -2.5026   -1.5523   -1.2174 C   0  0  0  0  0  0  0  0  0  0  0  0
   -2.9213   -0.3646    0.8444 C   0  0  0  0  0  0  0  0  0  0  0  0
    2.3893   -2.7701    1.5938 C   0  0  0  0  0  0  0  0  0  0  0  0
    4.6259   -3.6467    1.6362 C   0  0  0  0  0  0  0  0  0  0  0  0
   -3.6804   -2.2778   -1.0386 C   0  0  0  0  0  0  0  0  0  0  0  0
   -4.0991   -1.0902    1.0233 C   0  0  0  0  0  0  0  0  0  0  0  0
   -4.4786   -2.0469    0.0818 C   0  0  0  0  0  0  0  0  0  0  0  0
  1 18  1  0
  2 25  1  0
  3  4  1  0
  3  7  1  0
  3 11  1  0
  4  6  1  0
  4 13  1  0
  5 12  1  0
  5 21  1  0
  5 22  1  0
  6  8  1  0
  7  9  2  0
  7 14  1  0
  8 12  1  0
  9 10  1  0
  9 16  1  0
 10 11  2  0
 10 15  1  0
 14 17  2  0
 15 19  2  0
 15 20  1  0
 16 18  2  0
 17 18  1  0
 19 23  1  0
 20 24  2  0
 23 25  2  0
 24 25  1  0
M  END
>  <PUBCHEM_COMPOUND_CID>  (1) 
42516

>  <PUBCHEM_CONFORMER_RMSD>  (1) 
0.8

>  <PUBCHEM_CONFORMER_DIVERSEORDER>  (1) 
8
27
13
34
47
42
44
50
12
31
41
5
21
24
48
19
15
10
22
2
43
39
36
11
49
40
37
1
45
38
46
16
23
14
7
9
32
30
17
18
35
28
33
29
26
3
4
20
6
25

>  <PUBCHEM_MMFF94_PARTIAL_CHARGES>  (1) 
31
1 -0.18
10 -0.05
11 -0.3
12 0.27
13 0.27
14 -0.15
15 0.05
16 -0.15
17 -0.15
18 0.18
19 -0.15
2 -0.18
20 -0.15
21 0.27
22 0.27
23 -0.15
24 -0.15
25 0.18
3 0.45
30 0.15
36 0.15
37 0.15
38 0.15
39 0.15
4 -0.69
40 0.15
47 0.15
48 0.15
5 -0.81
6 0.27
7 -0.15

>  <PUBCHEM_EFFECTIVE_ROTOR_COUNT>  (1) 
6

>  <PUBCHEM_PHARMACOPHORE_FEATURES>  (1) 
4
1 5 cation
5 3 7 9 10 11 rings
6 15 19 20 23 24 25 rings
6 7 9 14 16 17 18 rings

>  <PUBCHEM_HEAVY_ATOM_COUNT>  (1) 
25

>  <PUBCHEM_ATOM_DEF_STEREO_COUNT>  (1) 
0

>  <PUBCHEM_ATOM_UDEF_STEREO_COUNT>  (1) 
0

>  <PUBCHEM_BOND_DEF_STEREO_COUNT>  (1) 
0

>  <PUBCHEM_BOND_UDEF_STEREO_COUNT>  (1) 
0

>  <PUBCHEM_ISOTOPIC_ATOM_COUNT>  (1) 
0

>  <PUBCHEM_COMPONENT_COUNT>  (1) 
1

>  <PUBCHEM_CACTVS_TAUTO_COUNT>  (1) 
1

>  <PUBCHEM_CONFORMER_ID>  (1) 
0000A61400000008

>  <PUBCHEM_MMFF94_ENERGY>  (1) 
55.6361

>  <PUBCHEM_FEATURE_SELFOVERLAP>  (1) 
20.389

>  <PUBCHEM_SHAPE_FINGERPRINT>  (1) 
10074138 170 17981026536377995241
10411042 1 18057347113121936477
11552529 35 17976244752309758226
11578080 2 18114166571184615901
12160290 23 17842000987685526221
12553582 1 18343311382918794047
12633257 1 16844992602824745210
12788726 201 18267041503904964936
12839892 36 17474117496871976457
13004483 165 18268413681632014347
13009979 54 18189619341707894782
13140716 1 18343308063210098377
13533116 47 18189897707355396563
13692114 37 17694510239494888833
13955234 65 17907576175204432667
14022347 108 18127156201501802999
14178342 30 18050286964598600646
14251757 17 16081087090858540611
14787075 74 18264494060787872580
15420108 30 16985179377409032828
15475509 35 17898863606506929179
15842332 3 17971217853750771236
17868525 174 18339356470365407513
1813 80 18272656782997802231
18681886 176 16412405270677280941
19319366 153 17973173000099572814
20369508 70 18266461090968251607
20505436 4 17251517094610286820
21033648 29 16630534994821148787
21344244 78 17774164642678155403
21421861 104 18339651147259170441
23366157 5 17978792642831592613
23559900 14 17679582509331752367
23598288 3 18266175028660474767
345986 75 18334849489849695779
3886686 26 17475795351563175850
392239 28 18267003116357699082
394222 165 17266658808032026897
397830 11 11239176614574902063
4058900 60 17545049650701731561
46194498 28 16443343229854199143
463206 1 18262234529290061555
474 4 17265261342308289217
484985 159 17756692049550255258
5104073 3 17984438588207234227
58807428 26 17188691940348617032
59554788 281 17692526719748182949
6086070 43 18341322380313378247
79837 15 17621883089242191889
90316 7 18272092669182096793
9841814 1 18198350743536642583

>  <PUBCHEM_SHAPE_MULTIPOLES>  (1) 
503.28
9.01
5.83
1.96
5.81
6.11
0.99
-14.04
-2.41
-0.51
-4.2
-1.9
-0.4
-2.92

>  <PUBCHEM_SHAPE_SELFOVERLAP>  (1) 
1055.736

>  <PUBCHEM_SHAPE_VOLUME>  (1) 
289.3

>  <PUBCHEM_COORDINATE_TYPE>  (1) 
2
5
10

$$$$
