42514
     RDKit          3D

 24 26  0  0  1  0  0  0  0  0999 V2000
   -3.0374    4.1335    1.7246 Cl  0  0  0  0  0  0  0  0  0  0  0  0
    0.7225    0.6962   -1.1349 N   0  0  0  0  0  0  0  0  0  0  0  0
    1.9861    0.8996   -1.7476 N   0  0  0  0  0  0  0  0  0  0  0  0
    4.1629   -1.6132    1.0216 N   0  0  0  0  0  0  0  0  0  0  0  0
    3.0891    0.2095   -1.0601 C   0  0  0  0  0  0  0  0  0  0  0  0
   -0.0225    1.6616   -0.4958 C   0  0  0  0  0  0  0  0  0  0  0  0
    3.1181    0.5257    0.4369 C   0  0  0  0  0  0  0  0  0  0  0  0
   -1.1907    1.0457   -0.0418 C   0  0  0  0  0  0  0  0  0  0  0  0
   -1.1203   -0.3214   -0.4306 C   0  0  0  0  0  0  0  0  0  0  0  0
    0.0672   -0.5054   -1.1008 C   0  0  0  0  0  0  0  0  0  0  0  0
    4.2684   -0.1659    1.1709 C   0  0  0  0  0  0  0  0  0  0  0  0
    1.9956    0.5939   -3.1871 C   0  0  0  0  0  0  0  0  0  0  0  0
    0.2458    3.0191   -0.2869 C   0  0  0  0  0  0  0  0  0  0  0  0
   -2.0548   -1.3890   -0.2166 C   0  0  0  0  0  0  0  0  0  0  0  0
   -2.1392    1.8204    0.6550 C   0  0  0  0  0  0  0  0  0  0  0  0
   -0.7095    3.7676    0.4066 C   0  0  0  0  0  0  0  0  0  0  0  0
   -1.8842    3.1796    0.8712 C   0  0  0  0  0  0  0  0  0  0  0  0
   -2.1456   -2.4330   -1.1380 C   0  0  0  0  0  0  0  0  0  0  0  0
   -2.8735   -1.3845    0.9134 C   0  0  0  0  0  0  0  0  0  0  0  0
    2.9171   -2.1023    1.6144 C   0  0  0  0  0  0  0  0  0  0  0  0
    5.3131   -2.2793    1.6347 C   0  0  0  0  0  0  0  0  0  0  0  0
   -3.0541   -3.4707   -0.9301 C   0  0  0  0  0  0  0  0  0  0  0  0
   -3.7819   -2.4224    1.1213 C   0  0  0  0  0  0  0  0  0  0  0  0
   -3.8722   -3.4655    0.1996 C   0  0  0  0  0  0  0  0  0  0  0  0
  1 17  1  0
  2  3  1  0
  2  6  1  0
  2 10  1  0
  3  5  1  0
  3 12  1  0
  4 11  1  0
  4 20  1  0
  4 21  1  0
  5  7  1  0
  6  8  2  0
  6 13  1  0
  7 11  1  0
  8  9  1  0
  8 15  1  0
  9 10  2  0
  9 14  1  0
 13 16  2  0
 14 18  2  0
 14 19  1  0
 15 17  2  0
 16 17  1  0
 18 22  1  0
 19 23  2  0
 22 24  2  0
 23 24  1  0
M  END
>  <PUBCHEM_COMPOUND_CID>  (1) 
42514

>  <PUBCHEM_CONFORMER_RMSD>  (1) 
0.8

>  <PUBCHEM_CONFORMER_DIVERSEORDER>  (1) 
8
28
32
49
39
41
45
27
12
16
33
13
43
40
37
22
36
46
2
25
48
24
34
47
9
19
1
23
42
50
51
29
4
35
15
21
10
44
7
30
18
17
38
5
31
14
11
26
6
20
3

>  <PUBCHEM_MMFF94_PARTIAL_CHARGES>  (1) 
31
1 -0.18
10 -0.3
11 0.27
12 0.27
13 -0.15
14 0.05
15 -0.15
16 -0.15
17 0.18
18 -0.15
19 -0.15
2 0.45
20 0.27
21 0.27
22 -0.15
23 -0.15
24 -0.15
29 0.15
3 -0.69
35 0.15
36 0.15
37 0.15
38 0.15
39 0.15
4 -0.81
46 0.15
47 0.15
48 0.15
5 0.27
6 -0.15
9 -0.05

>  <PUBCHEM_EFFECTIVE_ROTOR_COUNT>  (1) 
6

>  <PUBCHEM_PHARMACOPHORE_FEATURES>  (1) 
4
1 4 cation
5 2 6 8 9 10 rings
6 14 18 19 22 23 24 rings
6 6 8 13 15 16 17 rings

>  <PUBCHEM_HEAVY_ATOM_COUNT>  (1) 
24

>  <PUBCHEM_ATOM_DEF_STEREO_COUNT>  (1) 
0

>  <PUBCHEM_ATOM_UDEF_STEREO_COUNT>  (1) 
0

>  <PUBCHEM_BOND_DEF_STEREO_COUNT>  (1) 
0

>  <PUBCHEM_BOND_UDEF_STEREO_COUNT>  (1) 
0

>  <PUBCHEM_ISOTOPIC_ATOM_COUNT>  (1) 
0

>  <PUBCHEM_COMPONENT_COUNT>  (1) 
1

>  <PUBCHEM_CACTVS_TAUTO_COUNT>  (1) 
1

>  <PUBCHEM_CONFORMER_ID>  (1) 
0000A61200000008

>  <PUBCHEM_MMFF94_ENERGY>  (1) 
54.8729

>  <PUBCHEM_FEATURE_SELFOVERLAP>  (1) 
20.389

>  <PUBCHEM_SHAPE_FINGERPRINT>  (1) 
10074138 170 18268978813508008817
11070050 100 17124544310528674297
11552529 35 18266161873798139386
11578080 2 17898270939310744869
11582403 64 16911694265185768484
12160290 23 18200887158164910077
12549972 3 17057824914178548214
12553582 1 18198075869872340879
12633257 1 17059772346713721818
12788726 201 18266479735072824779
12839892 36 17977957782778103737
13004483 165 18340753927536419723
13009979 54 18260831484323606350
13140716 1 18198633305509746865
13533116 47 17758112984194603995
13692114 37 18054519002582003193
14022347 108 17981076254993273071
14178342 30 18337954468132637150
14787075 74 17903924697088932732
14844126 61 18338504270769094722
15475509 35 17393055345316621283
15842332 3 18042144127501305668
1813 80 18056204802224319367
18681886 176 16122494905282803925
19319366 153 17539701608921571294
20505436 4 17465432652182126164
20600515 1 18202004352199150889
20775530 9 18041546001813625154
21033648 29 16701478835056632131
21344244 78 17557436680254670827
21421861 104 18122074353400483273
21731228 192 17836363748498497489
23366157 5 17473547327468036869
23598288 3 18336270063288873551
266924 78 16373294465155652796
345986 75 18334847363809307227
392239 28 18051114081163496904
4058900 60 17040081408110700929
463206 1 18117835736065604538
5486654 36 18263072224733778466
58807428 26 17764593118553378937
59554788 281 18124593085611125709
7097593 13 18191301586061289008
81228 2 18129966519268887093
90316 7 18271815673988066731
9841814 1 17909280409268395839
9981440 41 16700027355031901408

>  <PUBCHEM_SHAPE_MULTIPOLES>  (1) 
480.84
7.96
5.43
2.01
8.05
2.52
-1.04
-7.57
4.49
-6.95
2.04
1.76
-0.03
-3.05

>  <PUBCHEM_SHAPE_SELFOVERLAP>  (1) 
1016.77

>  <PUBCHEM_SHAPE_VOLUME>  (1) 
273.2

>  <PUBCHEM_COORDINATE_TYPE>  (1) 
2
5
10

$$$$
