42518
     RDKit          3D

 25 27  0  0  1  0  0  0  0  0999 V2000
    2.1770    4.2017   -1.6233 F   0  0  0  0  0  0  0  0  0  0  0  0
   -0.4153    0.3855    1.2963 N   0  0  0  0  0  0  0  0  0  0  0  0
   -1.6338    0.3527    2.0234 N   0  0  0  0  0  0  0  0  0  0  0  0
   -3.8380   -1.0664   -0.6460 N   0  0  0  0  0  0  0  0  0  0  0  0
   -2.6501   -0.5275    1.4250 C   0  0  0  0  0  0  0  0  0  0  0  0
   -2.8434   -0.1820   -0.0485 C   0  0  0  0  0  0  0  0  0  0  0  0
    0.0778    1.4713    0.6084 C   0  0  0  0  0  0  0  0  0  0  0  0
    1.2918    1.0804    0.0395 C   0  0  0  0  0  0  0  0  0  0  0  0
    1.5090   -0.2762    0.4099 C   0  0  0  0  0  0  0  0  0  0  0  0
    0.4425   -0.6753    1.1822 C   0  0  0  0  0  0  0  0  0  0  0  0
   -5.1191   -0.9462    0.0516 C   0  0  0  0  0  0  0  0  0  0  0  0
   -4.0042   -0.7670   -2.0690 C   0  0  0  0  0  0  0  0  0  0  0  0
   -1.4557    0.0488    3.4522 C   0  0  0  0  0  0  0  0  0  0  0  0
   -0.4525    2.7564    0.4480 C   0  0  0  0  0  0  0  0  0  0  0  0
    2.5991   -1.1544    0.0941 C   0  0  0  0  0  0  0  0  0  0  0  0
    2.0136    2.0163   -0.7277 C   0  0  0  0  0  0  0  0  0  0  0  0
   -6.1470   -1.9092   -0.5182 C   0  0  0  0  0  0  0  0  0  0  0  0
   -2.6848   -0.8861   -2.8129 C   0  0  0  0  0  0  0  0  0  0  0  0
    0.2811    3.6677   -0.3170 C   0  0  0  0  0  0  0  0  0  0  0  0
    1.4954    3.3055   -0.8967 C   0  0  0  0  0  0  0  0  0  0  0  0
    2.5473   -1.9475   -1.0526 C   0  0  0  0  0  0  0  0  0  0  0  0
    3.7120   -1.2157    0.9337 C   0  0  0  0  0  0  0  0  0  0  0  0
    3.6068   -2.8013   -1.3594 C   0  0  0  0  0  0  0  0  0  0  0  0
    4.7715   -2.0694    0.6266 C   0  0  0  0  0  0  0  0  0  0  0  0
    4.7188   -2.8622   -0.5198 C   0  0  0  0  0  0  0  0  0  0  0  0
  1 20  1  0
  2  3  1  0
  2  7  1  0
  2 10  1  0
  3  5  1  0
  3 13  1  0
  4  6  1  0
  4 11  1  0
  4 12  1  0
  5  6  1  0
  7  8  2  0
  7 14  1  0
  8  9  1  0
  8 16  1  0
  9 10  2  0
  9 15  1  0
 11 17  1  0
 12 18  1  0
 14 19  2  0
 15 21  2  0
 15 22  1  0
 16 20  2  0
 19 20  1  0
 21 23  1  0
 22 24  2  0
 23 25  2  0
 24 25  1  0
M  END
>  <PUBCHEM_COMPOUND_CID>  (1) 
42518

>  <PUBCHEM_CONFORMER_RMSD>  (1) 
0.8

>  <PUBCHEM_CONFORMER_DIVERSEORDER>  (1) 
2
37
71
25
68
45
66
40
32
8
49
9
20
36
65
64
44
14
29
13
69
51
42
70
23
26
15
56
30
12
67
58
61
27
53
31
41
54
57
38
3
28
34
50
19
21
59
55
46
4
22
62
24
16
33
6
43
11
18
60
1
17
39
47
7
63
5
48
52
10
35

>  <PUBCHEM_MMFF94_PARTIAL_CHARGES>  (1) 
31
1 -0.19
10 -0.3
11 0.27
12 0.27
13 0.27
14 -0.15
15 0.05
16 -0.15
19 -0.15
2 0.45
20 0.19
21 -0.15
22 -0.15
23 -0.15
24 -0.15
25 -0.15
3 -0.69
30 0.15
38 0.15
39 0.15
4 -0.81
46 0.15
47 0.15
48 0.15
49 0.15
5 0.27
50 0.15
51 0.15
6 0.27
7 -0.15
9 -0.05

>  <PUBCHEM_EFFECTIVE_ROTOR_COUNT>  (1) 
7

>  <PUBCHEM_PHARMACOPHORE_FEATURES>  (1) 
4
1 4 cation
5 2 7 8 9 10 rings
6 15 21 22 23 24 25 rings
6 7 8 14 16 19 20 rings

>  <PUBCHEM_HEAVY_ATOM_COUNT>  (1) 
25

>  <PUBCHEM_ATOM_DEF_STEREO_COUNT>  (1) 
0

>  <PUBCHEM_ATOM_UDEF_STEREO_COUNT>  (1) 
0

>  <PUBCHEM_BOND_DEF_STEREO_COUNT>  (1) 
0

>  <PUBCHEM_BOND_UDEF_STEREO_COUNT>  (1) 
0

>  <PUBCHEM_ISOTOPIC_ATOM_COUNT>  (1) 
0

>  <PUBCHEM_COMPONENT_COUNT>  (1) 
1

>  <PUBCHEM_CACTVS_TAUTO_COUNT>  (1) 
1

>  <PUBCHEM_CONFORMER_ID>  (1) 
0000A61600000002

>  <PUBCHEM_MMFF94_ENERGY>  (1) 
52.5426

>  <PUBCHEM_FEATURE_SELFOVERLAP>  (1) 
20.389

>  <PUBCHEM_SHAPE_FINGERPRINT>  (1) 
11477941 20 17905078901294240238
11497681 19 17988925531914708718
11552529 35 16844438324478749242
11578080 2 16661226839565381092
12160290 23 17468491317626661656
12363563 72 18262527996083779682
12553582 1 18118432590764589002
12730499 353 17901113228686980465
12788726 201 17609778595886454216
13009979 54 17918005957400065083
13083527 12 18341890788616312216
13140716 1 17755332014313164464
13149001 5 17967820491142617035
133893 2 18193018077782483056
13681431 1 18335707160727973952
13899415 180 18336535032700854662
13911987 19 18041862665694703630
14508225 48 18262519183032317380
14556957 393 17825416023686201222
15021287 119 18338533941262778441
15842332 3 17843716389233541777
17357779 13 18335979766633797314
17539 30 18047752602980843236
17980427 26 17762948532526126380
1813 80 18343025454045140422
18915476 22 17972895914347121897
19141452 34 17913781513340315673
20693207 138 17314817258615416507
21304303 282 16955893520542059284
22620623 9 17979641139232043266
23114952 82 18042404810425317437
23402539 116 18264768762295371066
23536364 44 17824251610195743087
23598288 3 17757585986831402084
238 59 18118684554799196029
340366 18 18341609283764754349
437795 70 17908385149591081629
46194498 28 18187917443641715903
469060 322 18268157456768380974
5080951 261 17834091071428969914
5281201 14 18187637046870451893
57527293 21 18053960454848948770
5969126 39 18265048042907601838
6823239 73 16733250327283888119
7471813 234 18410014325285708800
81228 2 17900838049974544656

>  <PUBCHEM_SHAPE_MULTIPOLES>  (1) 
492.27
9.66
4.17
2.31
6.88
4.52
-0.75
-12.07
2.48
-4.03
2.4
1.84
-0.09
-1.16

>  <PUBCHEM_SHAPE_SELFOVERLAP>  (1) 
1047.479

>  <PUBCHEM_SHAPE_VOLUME>  (1) 
279.1

>  <PUBCHEM_COORDINATE_TYPE>  (1) 
2
5
10

$$$$
