42524
     RDKit          3D

 31 33  0  0  0  0  0  0  0  0999 V2000
    1.6270   -2.9307    4.8145 Br  0  0  0  0  0  0  0  0  0  0  0  0
   -1.2967    1.4265    0.0634 N   0  0  0  0  0  0  0  0  0  0  0  0
   -0.3604    0.3690    0.1996 N   0  0  0  0  0  0  0  0  0  0  0  0
    1.1300    4.2616   -0.2047 N   0  0  0  0  0  0  0  0  0  0  0  0
   -4.2984   -0.5970   -0.8820 N   0  0  0  0  0  0  0  0  0  0  0  0
   -0.7078    2.6665   -0.4673 C   0  0  0  0  0  0  0  0  0  0  0  0
   -2.4983    1.0514   -0.6990 C   0  0  0  0  0  0  0  0  0  0  0  0
    0.5360    3.0424    0.3325 C   0  0  0  0  0  0  0  0  0  0  0  0
   -3.0972   -0.2347   -0.1376 C   0  0  0  0  0  0  0  0  0  0  0  0
   -0.0389   -0.2693    1.3762 C   0  0  0  0  0  0  0  0  0  0  0  0
    0.9161   -1.2408    1.0690 C   0  0  0  0  0  0  0  0  0  0  0  0
    0.3563   -0.1639   -0.8379 C   0  0  0  0  0  0  0  0  0  0  0  0
    1.1558   -1.1627   -0.3314 C   0  0  0  0  0  0  0  0  0  0  0  0
    2.2738    4.6784    0.6079 C   0  0  0  0  0  0  0  0  0  0  0  0
    1.5398    4.0648   -1.5961 C   0  0  0  0  0  0  0  0  0  0  0  0
   -5.3122    0.4523   -0.7654 C   0  0  0  0  0  0  0  0  0  0  0  0
   -4.8325   -1.8745   -0.4075 C   0  0  0  0  0  0  0  0  0  0  0  0
   -0.5155   -0.0632    2.6758 C   0  0  0  0  0  0  0  0  0  0  0  0
    2.0411   -1.9314   -1.1587 C   0  0  0  0  0  0  0  0  0  0  0  0
    1.4217   -2.0472    2.1079 C   0  0  0  0  0  0  0  0  0  0  0  0
    0.0004   -0.8750    3.6900 C   0  0  0  0  0  0  0  0  0  0  0  0
    0.9542   -1.8524    3.4127 C   0  0  0  0  0  0  0  0  0  0  0  0
    1.8788    4.8900    2.0548 C   0  0  0  0  0  0  0  0  0  0  0  0
    2.1005    5.3382   -2.1948 C   0  0  0  0  0  0  0  0  0  0  0  0
   -6.5444    0.1268   -1.5840 C   0  0  0  0  0  0  0  0  0  0  0  0
   -3.8035   -2.9808   -0.5166 C   0  0  0  0  0  0  0  0  0  0  0  0
    3.3526   -1.5020   -1.3662 C   0  0  0  0  0  0  0  0  0  0  0  0
    1.5920   -3.1095   -1.7568 C   0  0  0  0  0  0  0  0  0  0  0  0
    4.2134   -2.2492   -2.1702 C   0  0  0  0  0  0  0  0  0  0  0  0
    2.4527   -3.8569   -2.5607 C   0  0  0  0  0  0  0  0  0  0  0  0
    3.7634   -3.4267   -2.7673 C   0  0  0  0  0  0  0  0  0  0  0  0
  1 22  1  0
  2  3  1  0
  2  6  1  0
  2  7  1  0
  3 10  1  0
  3 12  1  0
  4  8  1  0
  4 14  1  0
  4 15  1  0
  5  9  1  0
  5 16  1  0
  5 17  1  0
  6  8  1  0
  7  9  1  0
 10 11  2  0
 10 18  1  0
 11 13  1  0
 11 20  1  0
 12 13  2  0
 13 19  1  0
 14 23  1  0
 15 24  1  0
 16 25  1  0
 17 26  1  0
 18 21  2  0
 19 27  2  0
 19 28  1  0
 20 22  2  0
 21 22  1  0
 27 29  1  0
 28 30  2  0
 29 31  2  0
 30 31  1  0
M  END
>  <PUBCHEM_COMPOUND_CID>  (1) 
42524

>  <PUBCHEM_CONFORMER_RMSD>  (1) 
1.2

>  <PUBCHEM_CONFORMER_DIVERSEORDER>  (1) 
1
16
6
8
19
17
14
4
15
12
22
7
2
23
18
10
11
9
20
5
3
21
13

>  <PUBCHEM_MMFF94_PARTIAL_CHARGES>  (1) 
35
1 -0.11
10 -0.15
12 -0.3
13 -0.05
14 0.27
15 0.27
16 0.27
17 0.27
18 -0.15
19 0.05
2 -0.69
20 -0.15
21 -0.15
22 0.11
27 -0.15
28 -0.15
29 -0.15
3 0.45
30 -0.15
31 -0.15
4 -0.81
40 0.15
49 0.15
5 -0.81
50 0.15
51 0.15
6 0.27
64 0.15
65 0.15
66 0.15
67 0.15
68 0.15
7 0.27
8 0.27
9 0.27

>  <PUBCHEM_EFFECTIVE_ROTOR_COUNT>  (1) 
12

>  <PUBCHEM_PHARMACOPHORE_FEATURES>  (1) 
6
1 1 hydrophobe
1 4 cation
1 5 cation
5 3 10 11 12 13 rings
6 10 11 18 20 21 22 rings
6 19 27 28 29 30 31 rings

>  <PUBCHEM_HEAVY_ATOM_COUNT>  (1) 
31

>  <PUBCHEM_ATOM_DEF_STEREO_COUNT>  (1) 
0

>  <PUBCHEM_ATOM_UDEF_STEREO_COUNT>  (1) 
0

>  <PUBCHEM_BOND_DEF_STEREO_COUNT>  (1) 
0

>  <PUBCHEM_BOND_UDEF_STEREO_COUNT>  (1) 
0

>  <PUBCHEM_ISOTOPIC_ATOM_COUNT>  (1) 
0

>  <PUBCHEM_COMPONENT_COUNT>  (1) 
1

>  <PUBCHEM_CACTVS_TAUTO_COUNT>  (1) 
1

>  <PUBCHEM_CONFORMER_ID>  (1) 
0000A61C00000001

>  <PUBCHEM_MMFF94_ENERGY>  (1) 
59.9744

>  <PUBCHEM_FEATURE_SELFOVERLAP>  (1) 
30.538

>  <PUBCHEM_SHAPE_FINGERPRINT>  (1) 
10764073 3 15218865487331778649
11445158 3 17125587927488509360
11488393 25 18194977459021694707
11578080 2 16765053435230593914
11763715 3 17682101197737640875
12058002 1 18272096010545562330
12160290 23 17255676396484339041
12293681 160 17678196930927074410
12788726 201 17686064894470200857
15664445 248 18411410683546401851
15775530 1 17683552857976254480
15815584 197 17823972536522547569
15876981 60 17322644411758909642
15878777 1 12509513113535175306
20600515 1 17765964257230716977
20602899 9 17193220227331758773
21133665 82 18046050817402608608
21716022 299 16880190001570537035
23419403 2 17683003046480785585
23559900 14 18272925034471770495
376196 1 17974846482424608189
4017518 198 17984425415537593996
44802255 64 16185715398447187226
46194498 28 18267309918641334239
497634 4 16842216156076800534
550186 7 17034444189992424515
57527585 103 17392248089101169320
57527585 21 17616586870943990446
59444896 2 17114049858329755626
621550 5 17344621531024627241
9841814 1 18262221245672756105

>  <PUBCHEM_SHAPE_MULTIPOLES>  (1) 
623.98
7.95
7.41
4.32
13.54
15.54
-5.2
-9.06
7.9
-4.93
1.32
-5.56
-4.32
0.62

>  <PUBCHEM_SHAPE_SELFOVERLAP>  (1) 
1284.234

>  <PUBCHEM_SHAPE_VOLUME>  (1) 
368.5

>  <PUBCHEM_COORDINATE_TYPE>  (1) 
2
5
10

$$$$
