42526
     RDKit          3D

 27 29  0  0  0  0  0  0  0  0999 V2000
    2.2158   -0.4815   -0.2254 N   0  0  0  0  0  0  0  0  0  0  0  0
    0.8625   -0.1469    0.0391 N   0  0  0  0  0  0  0  0  0  0  0  0
    3.2709    2.7047   -1.8788 N   0  0  0  0  0  0  0  0  0  0  0  0
    1.9394   -4.1917    0.1707 N   0  0  0  0  0  0  0  0  0  0  0  0
    0.3828    0.3757    1.2190 C   0  0  0  0  0  0  0  0  0  0  0  0
    2.8461    0.3810   -1.2377 C   0  0  0  0  0  0  0  0  0  0  0  0
    2.4153   -1.9023   -0.5530 C   0  0  0  0  0  0  0  0  0  0  0  0
   -0.9930    0.5556    1.0595 C   0  0  0  0  0  0  0  0  0  0  0  0
   -1.3209    0.1228   -0.2558 C   0  0  0  0  0  0  0  0  0  0  0  0
   -0.1597   -0.3031   -0.8583 C   0  0  0  0  0  0  0  0  0  0  0  0
    2.6311    1.8497   -0.8849 C   0  0  0  0  0  0  0  0  0  0  0  0
    1.7570   -2.7834    0.5046 C   0  0  0  0  0  0  0  0  0  0  0  0
    1.0545    0.6997    2.4031 C   0  0  0  0  0  0  0  0  0  0  0  0
   -1.7366    1.0848    2.1329 C   0  0  0  0  0  0  0  0  0  0  0  0
   -2.5892    0.0938   -0.9265 C   0  0  0  0  0  0  0  0  0  0  0  0
   -1.0781    1.4135    3.3233 C   0  0  0  0  0  0  0  0  0  0  0  0
    0.2961    1.2231    3.4542 C   0  0  0  0  0  0  0  0  0  0  0  0
   -3.4006   -1.0379   -0.8373 C   0  0  0  0  0  0  0  0  0  0  0  0
   -3.0122    1.1972   -1.6684 C   0  0  0  0  0  0  0  0  0  0  0  0
   -1.8601    1.9741    4.4645 C   0  0  0  0  0  0  0  0  0  0  0  0
    4.7142    2.4633   -1.9127 C   0  0  0  0  0  0  0  0  0  0  0  0
    2.9981    4.1148   -1.5972 C   0  0  0  0  0  0  0  0  0  0  0  0
    1.3863   -5.0460    1.2226 C   0  0  0  0  0  0  0  0  0  0  0  0
    1.3140   -4.5006   -1.1162 C   0  0  0  0  0  0  0  0  0  0  0  0
   -4.6333   -1.0662   -1.4896 C   0  0  0  0  0  0  0  0  0  0  0  0
   -4.2449    1.1688   -2.3206 C   0  0  0  0  0  0  0  0  0  0  0  0
   -5.0555    0.0370   -2.2310 C   0  0  0  0  0  0  0  0  0  0  0  0
  1  2  1  0
  1  6  1  0
  1  7  1  0
  2  5  1  0
  2 10  1  0
  3 11  1  0
  3 21  1  0
  3 22  1  0
  4 12  1  0
  4 23  1  0
  4 24  1  0
  5  8  2  0
  5 13  1  0
  6 11  1  0
  7 12  1  0
  8  9  1  0
  8 14  1  0
  9 10  2  0
  9 15  1  0
 13 17  2  0
 14 16  2  0
 15 18  2  0
 15 19  1  0
 16 17  1  0
 16 20  1  0
 18 25  1  0
 19 26  2  0
 25 27  2  0
 26 27  1  0
M  END
>  <PUBCHEM_COMPOUND_CID>  (1) 
42526

>  <PUBCHEM_CONFORMER_RMSD>  (1) 
0.8

>  <PUBCHEM_CONFORMER_DIVERSEORDER>  (1) 
4
107
76
108
15
38
98
22
69
72
66
50
97
114
109
47
126
124
118
82
130
115
62
112
25
78
64
77
58
129
34
113
111
125
86
106
128
57
18
31
102
23
121
40
79
32
42
119
12
73
67
83
60
53
43
120
96
55
94
35
117
123
44
122
110
21
56
91
54
30
46
27
127
85
51
100
28
49
37
92
101
70
41
104
74
103
71
61
39
93
24
14
65
84
80
13
16
90
20
68
87
29
99
33
116
89
19
81
75
48
45
88
6
59
95
36
52
10
26
105
63
17
5
11
8
9
7
3
1
2

>  <PUBCHEM_MMFF94_PARTIAL_CHARGES>  (1) 
35
1 -0.69
10 -0.3
11 0.27
12 0.27
13 -0.15
14 -0.15
15 0.05
16 -0.14
17 -0.15
18 -0.15
19 -0.15
2 0.45
20 0.14
21 0.27
22 0.27
23 0.27
24 0.27
25 -0.15
26 -0.15
27 -0.15
3 -0.81
32 0.15
37 0.15
38 0.15
39 0.15
4 -0.81
40 0.15
41 0.15
5 -0.15
57 0.15
58 0.15
59 0.15
6 0.27
7 0.27
9 -0.05

>  <PUBCHEM_EFFECTIVE_ROTOR_COUNT>  (1) 
8

>  <PUBCHEM_PHARMACOPHORE_FEATURES>  (1) 
5
1 3 cation
1 4 cation
5 2 5 8 9 10 rings
6 15 18 19 25 26 27 rings
6 5 8 13 14 16 17 rings

>  <PUBCHEM_HEAVY_ATOM_COUNT>  (1) 
27

>  <PUBCHEM_ATOM_DEF_STEREO_COUNT>  (1) 
0

>  <PUBCHEM_ATOM_UDEF_STEREO_COUNT>  (1) 
0

>  <PUBCHEM_BOND_DEF_STEREO_COUNT>  (1) 
0

>  <PUBCHEM_BOND_UDEF_STEREO_COUNT>  (1) 
0

>  <PUBCHEM_ISOTOPIC_ATOM_COUNT>  (1) 
0

>  <PUBCHEM_COMPONENT_COUNT>  (1) 
1

>  <PUBCHEM_CACTVS_TAUTO_COUNT>  (1) 
1

>  <PUBCHEM_CONFORMER_ID>  (1) 
0000A61E00000004

>  <PUBCHEM_MMFF94_ENERGY>  (1) 
65.2683

>  <PUBCHEM_FEATURE_SELFOVERLAP>  (1) 
25.465

>  <PUBCHEM_SHAPE_FINGERPRINT>  (1) 
10721379 63 18338517421921531791
11578080 2 17333620819222178304
11582403 64 17096631279153064852
11725454 13 17168697669310622764
12058002 1 18189322481635955160
12293681 160 17916306219834524952
12788726 201 17345773897121282873
13009979 54 17628918932736178550
13149001 5 17270036469145276460
133893 2 18266754484468691462
14022347 108 16702015405162081303
14114206 34 17702961334588592601
14468879 13 17532938422378013412
15420108 30 15732694917754002797
15815584 197 17199346543350514601
15842332 3 17915195519684989538
15878777 1 17560518396018232336
17980427 26 17762669115096583252
19319366 153 17769417943205989520
20505436 4 17340734796450022864
20600515 1 16128078048913380535
21639891 77 17335620195065273976
229495 10 18122371019829786793
23419403 2 16333029456109251112
23559900 14 18193249976199434079
238 59 18113908134601871054
266924 78 18119839982463617846
376196 1 17458611371931606061
474 4 16370996460147477581
81228 2 16198741299441246889
9981440 41 17968658349300121572

>  <PUBCHEM_SHAPE_MULTIPOLES>  (1) 
535.72
7.44
5.11
3.99
5.29
7.39
4.84
-2.9
-8.8
-7.18
-0.02
1.92
-4.18
-3.4

>  <PUBCHEM_SHAPE_SELFOVERLAP>  (1) 
1128.736

>  <PUBCHEM_SHAPE_VOLUME>  (1) 
304.5

>  <PUBCHEM_COORDINATE_TYPE>  (1) 
2
5
10

$$$$
