42522
     RDKit          3D

 27 29  0  0  0  0  0  0  0  0999 V2000
   -1.7489    1.8728    4.3867 F   0  0  0  0  0  0  0  0  0  0  0  0
    2.2094   -0.4849   -0.2401 N   0  0  0  0  0  0  0  0  0  0  0  0
    0.8593   -0.1492    0.0371 N   0  0  0  0  0  0  0  0  0  0  0  0
    3.2660    2.7182   -1.8597 N   0  0  0  0  0  0  0  0  0  0  0  0
    1.9227   -4.1991    0.1097 N   0  0  0  0  0  0  0  0  0  0  0  0
    2.8366    0.3881   -1.2454 C   0  0  0  0  0  0  0  0  0  0  0  0
    2.4021   -1.9022   -0.5872 C   0  0  0  0  0  0  0  0  0  0  0  0
    0.3884    0.3609    1.2260 C   0  0  0  0  0  0  0  0  0  0  0  0
   -0.9875    0.5481    1.0766 C   0  0  0  0  0  0  0  0  0  0  0  0
   -1.3248    0.1326   -0.2418 C   0  0  0  0  0  0  0  0  0  0  0  0
   -0.1686   -0.2904   -0.8561 C   0  0  0  0  0  0  0  0  0  0  0  0
    2.6290    1.8530   -0.8728 C   0  0  0  0  0  0  0  0  0  0  0  0
    1.7471   -2.7946    0.4629 C   0  0  0  0  0  0  0  0  0  0  0  0
    1.0682    0.6680    2.4100 C   0  0  0  0  0  0  0  0  0  0  0  0
   -2.5972    0.1168   -0.9052 C   0  0  0  0  0  0  0  0  0  0  0  0
   -1.7229    1.0671    2.1606 C   0  0  0  0  0  0  0  0  0  0  0  0
    0.3179    1.1815    3.4718 C   0  0  0  0  0  0  0  0  0  0  0  0
   -1.0563    1.3788    3.3511 C   0  0  0  0  0  0  0  0  0  0  0  0
    4.7081    2.4722   -1.9053 C   0  0  0  0  0  0  0  0  0  0  0  0
    2.9999    4.1257   -1.5584 C   0  0  0  0  0  0  0  0  0  0  0  0
    1.3730   -5.0651    1.1538 C   0  0  0  0  0  0  0  0  0  0  0  0
    1.2885   -4.4894   -1.1772 C   0  0  0  0  0  0  0  0  0  0  0  0
   -3.4126   -1.0127   -0.8248 C   0  0  0  0  0  0  0  0  0  0  0  0
   -3.0200    1.2308   -1.6311 C   0  0  0  0  0  0  0  0  0  0  0  0
   -4.6492   -1.0281   -1.4699 C   0  0  0  0  0  0  0  0  0  0  0  0
   -4.2568    1.2153   -2.2760 C   0  0  0  0  0  0  0  0  0  0  0  0
   -5.0713    0.0858   -2.1953 C   0  0  0  0  0  0  0  0  0  0  0  0
  1 18  1  0
  2  3  1  0
  2  6  1  0
  2  7  1  0
  3  8  1  0
  3 11  1  0
  4 12  1  0
  4 19  1  0
  4 20  1  0
  5 13  1  0
  5 21  1  0
  5 22  1  0
  6 12  1  0
  7 13  1  0
  8  9  2  0
  8 14  1  0
  9 10  1  0
  9 16  1  0
 10 11  2  0
 10 15  1  0
 14 17  2  0
 15 23  2  0
 15 24  1  0
 16 18  2  0
 17 18  1  0
 23 25  1  0
 24 26  2  0
 25 27  2  0
 26 27  1  0
M  END
>  <PUBCHEM_COMPOUND_CID>  (1) 
42522

>  <PUBCHEM_CONFORMER_RMSD>  (1) 
0.8

>  <PUBCHEM_CONFORMER_DIVERSEORDER>  (1) 
3
108
75
107
15
39
97
21
69
67
33
109
131
51
114
47
78
63
118
98
124
126
64
79
60
128
112
129
115
82
110
13
66
86
32
121
23
100
119
125
40
73
56
18
57
25
111
95
35
44
117
85
106
83
96
53
123
120
122
54
42
43
130
31
58
72
55
113
27
30
46
77
22
127
49
91
37
102
28
103
74
104
70
92
61
50
41
101
29
38
24
93
14
71
65
45
80
90
16
12
84
99
68
20
87
48
89
19
88
76
116
34
6
59
81
94
36
10
52
26
62
105
17
5
8
11
9
7
4
2
1

>  <PUBCHEM_MMFF94_PARTIAL_CHARGES>  (1) 
35
1 -0.19
10 -0.05
11 -0.3
12 0.27
13 0.27
14 -0.15
15 0.05
16 -0.15
17 -0.15
18 0.19
19 0.27
2 -0.69
20 0.27
21 0.27
22 0.27
23 -0.15
24 -0.15
25 -0.15
26 -0.15
27 -0.15
3 0.45
32 0.15
37 0.15
38 0.15
39 0.15
4 -0.81
5 -0.81
52 0.15
53 0.15
54 0.15
55 0.15
56 0.15
6 0.27
7 0.27
8 -0.15

>  <PUBCHEM_EFFECTIVE_ROTOR_COUNT>  (1) 
8

>  <PUBCHEM_PHARMACOPHORE_FEATURES>  (1) 
5
1 4 cation
1 5 cation
5 3 8 9 10 11 rings
6 15 23 24 25 26 27 rings
6 8 9 14 16 17 18 rings

>  <PUBCHEM_HEAVY_ATOM_COUNT>  (1) 
27

>  <PUBCHEM_ATOM_DEF_STEREO_COUNT>  (1) 
0

>  <PUBCHEM_ATOM_UDEF_STEREO_COUNT>  (1) 
0

>  <PUBCHEM_BOND_DEF_STEREO_COUNT>  (1) 
0

>  <PUBCHEM_BOND_UDEF_STEREO_COUNT>  (1) 
0

>  <PUBCHEM_ISOTOPIC_ATOM_COUNT>  (1) 
0

>  <PUBCHEM_COMPONENT_COUNT>  (1) 
1

>  <PUBCHEM_CACTVS_TAUTO_COUNT>  (1) 
1

>  <PUBCHEM_CONFORMER_ID>  (1) 
0000A61A00000003

>  <PUBCHEM_MMFF94_ENERGY>  (1) 
62.6752

>  <PUBCHEM_FEATURE_SELFOVERLAP>  (1) 
25.465

>  <PUBCHEM_SHAPE_FINGERPRINT>  (1) 
10721379 63 18338517417631832751
11578080 2 17333903393710497240
11582403 64 17168971447684599476
11725454 13 17241036738325261364
12058002 1 18189323581158119448
12293681 160 17916588790043713840
12788726 201 17346055372082162785
13009979 54 17629200407728713478
13149001 5 17270599414809005260
133893 2 18266755583975057510
14022347 108 16702015405156793567
14114206 34 17703242809554766761
14468879 13 17533220996882189092
15420108 30 15732975297529883733
15815584 197 17199346543371607081
15842332 3 17915478094178615698
15878777 1 12904970840171677448
17980427 26 17762669115107139260
19319366 153 17769698318639358904
20505436 4 17268959776905708120
20600515 1 16128359519568743663
21639891 77 17335620195044181464
229495 10 18122652494785385449
23419403 2 16333310931075412248
23559900 14 18265590140430720159
238 59 18114189609578588222
266924 78 18120122561236380574
376196 1 17458893946409401477
474 4 16370996460142215805
81228 2 16126965176085055825
9981440 41 17968939824276832220

>  <PUBCHEM_SHAPE_MULTIPOLES>  (1) 
528.45
7.49
5.12
3.72
6.37
7.43
5.35
-4.2
-8.34
-7.53
-1.73
1.27
-3.16
-2.09

>  <PUBCHEM_SHAPE_SELFOVERLAP>  (1) 
1117.632

>  <PUBCHEM_SHAPE_VOLUME>  (1) 
302.1

>  <PUBCHEM_COORDINATE_TYPE>  (1) 
2
5
10

$$$$
