42534
     RDKit          3D

 32 34  0  0  0  0  0  0  0  0999 V2000
   -6.7160    1.3581   -2.4386 Cl  0  0  0  0  0  0  0  0  0  0  0  0
   -1.5662    1.1781    4.9593 F   0  0  0  0  0  0  0  0  0  0  0  0
    2.0380   -0.5780   -0.1945 N   0  0  0  0  0  0  0  0  0  0  0  0
    0.7342   -0.1760    0.1967 N   0  0  0  0  0  0  0  0  0  0  0  0
    3.3826    2.7676   -1.1932 N   0  0  0  0  0  0  0  0  0  0  0  0
    1.3802   -4.2420   -0.5690 N   0  0  0  0  0  0  0  0  0  0  0  0
    2.7305    0.4139   -1.0326 C   0  0  0  0  0  0  0  0  0  0  0  0
    2.0777   -1.9092   -0.8203 C   0  0  0  0  0  0  0  0  0  0  0  0
    2.6807    1.7878   -0.3711 C   0  0  0  0  0  0  0  0  0  0  0  0
    1.3563   -2.9258    0.0596 C   0  0  0  0  0  0  0  0  0  0  0  0
    0.3418    0.1291    1.4805 C   0  0  0  0  0  0  0  0  0  0  0  0
   -1.0107    0.4733    1.4259 C   0  0  0  0  0  0  0  0  0  0  0  0
   -0.3203   -0.0369   -0.6652 C   0  0  0  0  0  0  0  0  0  0  0  0
   -1.4148    0.3640    0.0658 C   0  0  0  0  0  0  0  0  0  0  0  0
    3.2675    4.1054   -0.6106 C   0  0  0  0  0  0  0  0  0  0  0  0
    4.7910    2.3985   -1.3441 C   0  0  0  0  0  0  0  0  0  0  0  0
    0.7662   -5.2417    0.3060 C   0  0  0  0  0  0  0  0  0  0  0  0
    0.6937   -4.2076   -1.8614 C   0  0  0  0  0  0  0  0  0  0  0  0
    1.0728    0.1268    2.6738 C   0  0  0  0  0  0  0  0  0  0  0  0
   -2.6945    0.6043   -0.5373 C   0  0  0  0  0  0  0  0  0  0  0  0
   -1.6676    0.8330    2.6193 C   0  0  0  0  0  0  0  0  0  0  0  0
    0.4001    0.4871    3.8449 C   0  0  0  0  0  0  0  0  0  0  0  0
   -0.9490    0.8352    3.8204 C   0  0  0  0  0  0  0  0  0  0  0  0
    1.8188    4.5147   -0.4426 C   0  0  0  0  0  0  0  0  0  0  0  0
    5.5248    3.3674   -2.2480 C   0  0  0  0  0  0  0  0  0  0  0  0
    1.4571   -5.2996    1.6527 C   0  0  0  0  0  0  0  0  0  0  0  0
    0.7626   -5.5487   -2.5621 C   0  0  0  0  0  0  0  0  0  0  0  0
   -3.6196   -0.4343   -0.6497 C   0  0  0  0  0  0  0  0  0  0  0  0
   -3.0146    1.8763   -1.0134 C   0  0  0  0  0  0  0  0  0  0  0  0
   -4.8630   -0.2010   -1.2374 C   0  0  0  0  0  0  0  0  0  0  0  0
   -4.2581    2.1094   -1.6009 C   0  0  0  0  0  0  0  0  0  0  0  0
   -5.1822    1.0708   -1.7129 C   0  0  0  0  0  0  0  0  0  0  0  0
  1 32  1  0
  2 23  1  0
  3  4  1  0
  3  7  1  0
  3  8  1  0
  4 11  1  0
  4 13  1  0
  5  9  1  0
  5 15  1  0
  5 16  1  0
  6 10  1  0
  6 17  1  0
  6 18  1  0
  7  9  1  0
  8 10  1  0
 11 12  2  0
 11 19  1  0
 12 14  1  0
 12 21  1  0
 13 14  2  0
 14 20  1  0
 15 24  1  0
 16 25  1  0
 17 26  1  0
 18 27  1  0
 19 22  2  0
 20 28  2  0
 20 29  1  0
 21 23  2  0
 22 23  1  0
 28 30  1  0
 29 31  2  0
 30 32  2  0
 31 32  1  0
M  END
>  <PUBCHEM_COMPOUND_CID>  (1) 
42534

>  <PUBCHEM_CONFORMER_RMSD>  (1) 
1.2

>  <PUBCHEM_CONFORMER_DIVERSEORDER>  (1) 
1
23
7
16
11
5
15
3
17
12
20
4
14
6
8
18
25
26
19
9
24
13
10
21
2
22

>  <PUBCHEM_MMFF94_PARTIAL_CHARGES>  (1) 
35
1 -0.18
10 0.27
11 -0.15
13 -0.3
14 -0.05
15 0.27
16 0.27
17 0.27
18 0.27
19 -0.15
2 -0.19
20 0.05
21 -0.15
22 -0.15
23 0.19
28 -0.15
29 -0.15
3 -0.69
30 -0.15
31 -0.15
32 0.18
4 0.45
41 0.15
5 -0.81
50 0.15
51 0.15
52 0.15
6 -0.81
65 0.15
66 0.15
67 0.15
68 0.15
7 0.27
8 0.27
9 0.27

>  <PUBCHEM_EFFECTIVE_ROTOR_COUNT>  (1) 
12

>  <PUBCHEM_PHARMACOPHORE_FEATURES>  (1) 
5
1 5 cation
1 6 cation
5 4 11 12 13 14 rings
6 11 12 19 21 22 23 rings
6 20 28 29 30 31 32 rings

>  <PUBCHEM_HEAVY_ATOM_COUNT>  (1) 
32

>  <PUBCHEM_ATOM_DEF_STEREO_COUNT>  (1) 
0

>  <PUBCHEM_ATOM_UDEF_STEREO_COUNT>  (1) 
0

>  <PUBCHEM_BOND_DEF_STEREO_COUNT>  (1) 
0

>  <PUBCHEM_BOND_UDEF_STEREO_COUNT>  (1) 
0

>  <PUBCHEM_ISOTOPIC_ATOM_COUNT>  (1) 
0

>  <PUBCHEM_COMPONENT_COUNT>  (1) 
1

>  <PUBCHEM_CACTVS_TAUTO_COUNT>  (1) 
1

>  <PUBCHEM_CONFORMER_ID>  (1) 
0000A62600000001

>  <PUBCHEM_MMFF94_ENERGY>  (1) 
59.9018

>  <PUBCHEM_FEATURE_SELFOVERLAP>  (1) 
25.465

>  <PUBCHEM_SHAPE_FINGERPRINT>  (1) 
10032420 55 17842540014918685023
10258939 38 17397236371271959034
10721379 63 18268714900625950821
11115154 58 17394163231850516669
11443803 9 17898829486558631628
11582403 64 17604416513610620432
11725454 13 17676763283538829812
12058002 1 18191862323378540784
12160290 23 17910688879790979410
12788726 201 16701199490420168953
14114206 34 17346332521958585537
15082195 135 18122597524200805381
15198563 99 17183067380073696430
15324884 4 17606434092215713262
15484559 13 18413103978993067876
15878777 1 14084972989721517002
17980427 26 17622777133950359552
19319366 153 17916851491723986919
23559900 14 18268127800519693261
266924 78 18124065396969477674
376196 1 17822001038732531909
44802255 64 18045520852717782556
5080951 261 17907878528307358152
57527573 199 16041333363456832479
59025328 239 17907856202276153854
6677587 24 17900783211652703733
9981440 41 18114466763781483428

>  <PUBCHEM_SHAPE_MULTIPOLES>  (1) 
633.22
9.15
7.38
3.93
11.59
11.5
6.16
-11.53
-10.52
-10.32
-4.72
0.95
-0.51
-1.29

>  <PUBCHEM_SHAPE_SELFOVERLAP>  (1) 
1312.676

>  <PUBCHEM_SHAPE_VOLUME>  (1) 
368.3

>  <PUBCHEM_COORDINATE_TYPE>  (1) 
2
5
10

$$$$
