42541
     RDKit          3D

 20 21  0  0  0  0  0  0  0  0999 V2000
    0.3644    0.2884    0.9781 Si  0  0  0  0  0  4  0  0  0  0  0  0
   -0.9276    1.1286    0.3374 O   0  0  0  0  0  0  0  0  0  0  0  0
   -4.6006    1.1419    0.0291 N   0  0  0  0  0  0  0  0  0  0  0  0
    0.3418   -1.4423    0.2444 C   0  0  0  0  0  0  0  0  0  0  0  0
    1.9420    1.0172    0.2509 C   0  0  0  0  0  0  0  0  0  0  0  0
    0.4034    0.3081    2.8354 C   0  0  0  0  0  0  0  0  0  0  0  0
   -2.2516    0.6540    0.5436 C   0  0  0  0  0  0  0  0  0  0  0  0
   -3.2227    1.6015   -0.1422 C   0  0  0  0  0  0  0  0  0  0  0  0
    0.3077   -1.5974   -1.1333 C   0  0  0  0  0  0  0  0  0  0  0  0
    3.1558    0.4060    0.5179 C   0  0  0  0  0  0  0  0  0  0  0  0
    0.3593   -2.5412    1.0903 C   0  0  0  0  0  0  0  0  0  0  0  0
    1.8628    2.1524   -0.5384 C   0  0  0  0  0  0  0  0  0  0  0  0
    0.2903   -2.8814   -1.6779 C   0  0  0  0  0  0  0  0  0  0  0  0
    4.3242    0.9457   -0.0198 C   0  0  0  0  0  0  0  0  0  0  0  0
    0.3420   -3.8252    0.5454 C   0  0  0  0  0  0  0  0  0  0  0  0
    3.0313    2.6920   -1.0760 C   0  0  0  0  0  0  0  0  0  0  0  0
    0.3076   -3.9953   -0.8386 C   0  0  0  0  0  0  0  0  0  0  0  0
    4.2619    2.0885   -0.8167 C   0  0  0  0  0  0  0  0  0  0  0  0
   -4.7603   -0.2072   -0.5123 C   0  0  0  0  0  0  0  0  0  0  0  0
   -5.5318    2.0658   -0.6174 C   0  0  0  0  0  0  0  0  0  0  0  0
  1  2  1  0
  1  4  1  0
  1  5  1  0
  1  6  1  0
  2  7  1  0
  3  8  1  0
  3 19  1  0
  3 20  1  0
  4  9  2  0
  4 11  1  0
  5 10  2  0
  5 12  1  0
  7  8  1  0
  9 13  1  0
 10 14  1  0
 11 15  2  0
 12 16  2  0
 13 17  2  0
 14 18  2  0
 15 17  1  0
 16 18  1  0
M  END
>  <PUBCHEM_COMPOUND_CID>  (1) 
42541

>  <PUBCHEM_CONFORMER_RMSD>  (1) 
0.8

>  <PUBCHEM_CONFORMER_DIVERSEORDER>  (1) 
1
16
12
22
10
13
3
14
15
19
2
17
6
7
4
18
8
5
11
20
9
21

>  <PUBCHEM_MMFF94_PARTIAL_CHARGES>  (1) 
30
1 0.82
10 -0.15
11 -0.15
12 -0.15
13 -0.15
14 -0.15
15 -0.15
16 -0.15
17 -0.15
18 -0.15
19 0.27
2 -0.58
20 0.27
28 0.15
29 0.15
3 -0.81
30 0.15
31 0.15
32 0.15
33 0.15
34 0.15
35 0.15
36 0.15
37 0.15
4 -0.22
5 -0.22
6 -0.08
7 0.28
8 0.27
9 -0.15

>  <PUBCHEM_EFFECTIVE_ROTOR_COUNT>  (1) 
6

>  <PUBCHEM_PHARMACOPHORE_FEATURES>  (1) 
3
1 3 cation
6 4 9 11 13 15 17 rings
6 5 10 12 14 16 18 rings

>  <PUBCHEM_HEAVY_ATOM_COUNT>  (1) 
20

>  <PUBCHEM_ATOM_DEF_STEREO_COUNT>  (1) 
0

>  <PUBCHEM_ATOM_UDEF_STEREO_COUNT>  (1) 
0

>  <PUBCHEM_BOND_DEF_STEREO_COUNT>  (1) 
0

>  <PUBCHEM_BOND_UDEF_STEREO_COUNT>  (1) 
0

>  <PUBCHEM_ISOTOPIC_ATOM_COUNT>  (1) 
0

>  <PUBCHEM_COMPONENT_COUNT>  (1) 
1

>  <PUBCHEM_CACTVS_TAUTO_COUNT>  (1) 
1

>  <PUBCHEM_CONFORMER_ID>  (1) 
0000A62D00000001

>  <PUBCHEM_MMFF94_ENERGY>  (1) 
45.0633

>  <PUBCHEM_FEATURE_SELFOVERLAP>  (1) 
15.223

>  <PUBCHEM_SHAPE_FINGERPRINT>  (1) 
11421498 54 18059867121270356969
11488393 25 18268729241580495187
12592029 89 18335984181569995176
12714826 92 17482291696109389314
12788726 201 17759234485495155666
13083527 12 17904753389179300082
13149001 5 17487617661208834752
13257819 37 18192732221712075966
133893 2 18053963756918800187
13681431 1 17909275675924311315
13836976 161 18412256212430828501
14251751 93 18341048639813125439
14251757 17 15913044391026418239
14863182 85 17416386676634911431
15163728 17 18116739394133670861
15502722 9 18267307538817170309
15849732 13 18263348236601441170
15906896 17 18120658186819160138
16752209 62 18125996302739430730
17980427 26 17023733645774272144
18681886 176 18337663200372139464
20197701 30 18413384349957389096
20567600 347 18411704279079135999
20600515 1 16532811818313905658
20602899 9 18058748999263962832
20645476 183 18338236093242792332
20645477 70 18196646303599124261
21054139 6 18271509988554892215
21285901 2 17626128677220413119
21344244 246 18199757955433634710
21524375 3 18408885169730345776
2255824 54 18196091041321015339
23419403 2 17694274032766621935
23559900 14 18125146148950277073
23598288 3 17972320878545685850
298252 57 18335421304826502176
3060560 45 18408884006031565948
3759504 43 18336265759625998550
38695281 34 18410008827864564093
4280585 95 17691686684200942958
46194498 28 18191583039536744293
474 4 18335985289930344801
60123966 16 17829027842085115941
6025842 7 18338510825595660485
6138700 20 18195253218067126886
81228 2 17620174868957720331
81539 233 18410010996807094397
8272917 22 18337391513868177237

>  <PUBCHEM_SHAPE_MULTIPOLES>  (1) 
418.95
7.99
4.46
1.6
9.18
5.36
0.82
-9.79
-2.66
-0.77
-1.57
-0.43
0.37
-0.47

>  <PUBCHEM_SHAPE_SELFOVERLAP>  (1) 
852.808

>  <PUBCHEM_SHAPE_VOLUME>  (1) 
244.4

>  <PUBCHEM_COORDINATE_TYPE>  (1) 
2
5
10

$$$$
