42544
     RDKit          3D

 32 34  0  0  0  0  0  0  0  0999 V2000
   -1.8011    1.3106    5.2430 Cl  0  0  0  0  0  0  0  0  0  0  0  0
   -6.7001    1.2647   -2.5246 Cl  0  0  0  0  0  0  0  0  0  0  0  0
    2.0505   -0.5640   -0.1791 N   0  0  0  0  0  0  0  0  0  0  0  0
    0.7393   -0.1715    0.1955 N   0  0  0  0  0  0  0  0  0  0  0  0
    1.4334   -4.2381   -0.5243 N   0  0  0  0  0  0  0  0  0  0  0  0
    3.3717    2.7849   -1.1977 N   0  0  0  0  0  0  0  0  0  0  0  0
    2.1099   -1.9010   -0.7914 C   0  0  0  0  0  0  0  0  0  0  0  0
    2.7414    0.4264   -1.0202 C   0  0  0  0  0  0  0  0  0  0  0  0
    1.3900   -2.9162    0.0911 C   0  0  0  0  0  0  0  0  0  0  0  0
    2.6716    1.8063   -0.3728 C   0  0  0  0  0  0  0  0  0  0  0  0
    0.3319    0.1445    1.4721 C   0  0  0  0  0  0  0  0  0  0  0  0
   -1.0228    0.4761    1.4008 C   0  0  0  0  0  0  0  0  0  0  0  0
   -0.3081   -0.0514   -0.6778 C   0  0  0  0  0  0  0  0  0  0  0  0
   -1.4130    0.3479    0.0384 C   0  0  0  0  0  0  0  0  0  0  0  0
    0.8207   -5.2355    0.3544 C   0  0  0  0  0  0  0  0  0  0  0  0
    0.7595   -4.2231   -1.8236 C   0  0  0  0  0  0  0  0  0  0  0  0
    4.7850    2.4285   -1.3311 C   0  0  0  0  0  0  0  0  0  0  0  0
    3.2375    4.1271   -0.6296 C   0  0  0  0  0  0  0  0  0  0  0  0
    1.0516    0.1620    2.6721 C   0  0  0  0  0  0  0  0  0  0  0  0
   -2.6893    0.5695   -0.5789 C   0  0  0  0  0  0  0  0  0  0  0  0
   -1.6942    0.8434    2.5839 C   0  0  0  0  0  0  0  0  0  0  0  0
    0.3647    0.5294    3.8327 C   0  0  0  0  0  0  0  0  0  0  0  0
   -0.9871    0.8653    3.7915 C   0  0  0  0  0  0  0  0  0  0  0  0
    1.4988   -5.2734    1.7083 C   0  0  0  0  0  0  0  0  0  0  0  0
    0.8487   -5.5702   -2.5106 C   0  0  0  0  0  0  0  0  0  0  0  0
    5.5181    3.3959   -2.2373 C   0  0  0  0  0  0  0  0  0  0  0  0
    1.7832    4.5235   -0.4798 C   0  0  0  0  0  0  0  0  0  0  0  0
   -3.6040   -0.4786   -0.6874 C   0  0  0  0  0  0  0  0  0  0  0  0
   -3.0166    1.8330   -1.0726 C   0  0  0  0  0  0  0  0  0  0  0  0
   -4.8441   -0.2636   -1.2888 C   0  0  0  0  0  0  0  0  0  0  0  0
   -4.2567    2.0479   -1.6739 C   0  0  0  0  0  0  0  0  0  0  0  0
   -5.1705    0.9997   -1.7820 C   0  0  0  0  0  0  0  0  0  0  0  0
  1 23  1  0
  2 32  1  0
  3  4  1  0
  3  7  1  0
  3  8  1  0
  4 11  1  0
  4 13  1  0
  5  9  1  0
  5 15  1  0
  5 16  1  0
  6 10  1  0
  6 17  1  0
  6 18  1  0
  7  9  1  0
  8 10  1  0
 11 12  2  0
 11 19  1  0
 12 14  1  0
 12 21  1  0
 13 14  2  0
 14 20  1  0
 15 24  1  0
 16 25  1  0
 17 26  1  0
 18 27  1  0
 19 22  2  0
 20 28  2  0
 20 29  1  0
 21 23  2  0
 22 23  1  0
 28 30  1  0
 29 31  2  0
 30 32  2  0
 31 32  1  0
M  END
>  <PUBCHEM_COMPOUND_CID>  (1) 
42544

>  <PUBCHEM_CONFORMER_RMSD>  (1) 
1.2

>  <PUBCHEM_CONFORMER_DIVERSEORDER>  (1) 
1
23
9
16
17
10
3
18
22
19
7
13
11
8
27
4
12
15
6
20
14
5
24
25
26
2
21

>  <PUBCHEM_MMFF94_PARTIAL_CHARGES>  (1) 
35
1 -0.18
10 0.27
11 -0.15
13 -0.3
14 -0.05
15 0.27
16 0.27
17 0.27
18 0.27
19 -0.15
2 -0.18
20 0.05
21 -0.15
22 -0.15
23 0.18
28 -0.15
29 -0.15
3 -0.69
30 -0.15
31 -0.15
32 0.18
4 0.45
41 0.15
5 -0.81
50 0.15
51 0.15
52 0.15
6 -0.81
65 0.15
66 0.15
67 0.15
68 0.15
7 0.27
8 0.27
9 0.27

>  <PUBCHEM_EFFECTIVE_ROTOR_COUNT>  (1) 
12

>  <PUBCHEM_PHARMACOPHORE_FEATURES>  (1) 
5
1 5 cation
1 6 cation
5 4 11 12 13 14 rings
6 11 12 19 21 22 23 rings
6 20 28 29 30 31 32 rings

>  <PUBCHEM_HEAVY_ATOM_COUNT>  (1) 
32

>  <PUBCHEM_ATOM_DEF_STEREO_COUNT>  (1) 
0

>  <PUBCHEM_ATOM_UDEF_STEREO_COUNT>  (1) 
0

>  <PUBCHEM_BOND_DEF_STEREO_COUNT>  (1) 
0

>  <PUBCHEM_BOND_UDEF_STEREO_COUNT>  (1) 
0

>  <PUBCHEM_ISOTOPIC_ATOM_COUNT>  (1) 
0

>  <PUBCHEM_COMPONENT_COUNT>  (1) 
1

>  <PUBCHEM_CACTVS_TAUTO_COUNT>  (1) 
1

>  <PUBCHEM_CONFORMER_ID>  (1) 
0000A63000000001

>  <PUBCHEM_MMFF94_ENERGY>  (1) 
60.5756

>  <PUBCHEM_FEATURE_SELFOVERLAP>  (1) 
25.465

>  <PUBCHEM_SHAPE_FINGERPRINT>  (1) 
10032420 55 17842257444720058607
10258939 38 17396952701582745426
10721379 63 18268432326127036917
11115154 58 17393879562140230013
11377469 6 17700691753262266159
11443803 9 17898548015871613524
11582403 64 17604415414098992648
12058002 1 18192142703080497249
12160290 23 17910407404814262282
12788726 201 16772974514280524025
14114206 34 17346332526269364089
15082195 135 18122597528495759709
15198563 99 17182785905112810038
15324884 4 17606151517722100078
15484559 13 18412821404525808964
15878777 1 12017609967916055626
17980427 26 17623058613221991928
19319366 153 17988627615074896743
21639891 77 17195158666922190560
23559900 14 18267845226026086599
266924 78 18124065396980027258
376196 1 17749379399535065189
44802255 64 18045519753216723764
5080951 261 17907034107656408256
57527573 199 15969274674223317103
59025328 239 17907573632088057454
6677587 24 17900783211636859997
9981440 41 18114465668559548204

>  <PUBCHEM_SHAPE_MULTIPOLES>  (1) 
642.36
9.08
7.31
4.36
10.57
11.5
7.69
-10.29
-11.33
-11.03
-4.3
2.49
-1.51
-1.73

>  <PUBCHEM_SHAPE_SELFOVERLAP>  (1) 
1320.703

>  <PUBCHEM_SHAPE_VOLUME>  (1) 
375

>  <PUBCHEM_COORDINATE_TYPE>  (1) 
2
5
10

$$$$
