42551
     RDKit          3D

 29 33  0  0  1  0  0  0  0  0999 V2000
   -0.4789   -2.1127   -0.8419 O   0  0  0  0  0  0  0  0  0  0  0  0
    2.6849    0.5112    0.7006 N   0  0  0  0  0  0  0  0  0  0  0  0
   -1.8749   -0.9679   -2.1630 N   0  0  0  0  0  0  0  0  0  0  0  0
   -1.5828   -2.1666   -2.7868 N   0  0  0  0  0  0  0  0  0  0  0  0
    3.8378    1.1541    0.0415 C   0  0  0  0  0  0  0  0  0  0  0  0
    4.5335   -1.1078    1.0516 C   0  0  0  0  0  0  0  0  0  0  0  0
    3.0187   -0.8446    1.1755 C   0  0  0  0  0  0  0  0  0  0  0  0
    4.4459    0.2534   -1.0514 C   0  0  0  0  0  0  0  0  0  0  0  0
    4.8993    1.3707    1.1407 C   0  0  0  0  0  0  0  0  0  0  0  0
    4.8974   -1.0801   -0.4424 C   0  0  0  0  0  0  0  0  0  0  0  0
    5.2922    0.0235    1.7646 C   0  0  0  0  0  0  0  0  0  0  0  0
    1.4700    0.5288   -0.1033 C   0  0  0  0  0  0  0  0  0  0  0  0
    0.2712    0.0657    0.7465 C   0  0  0  0  0  0  0  0  0  0  0  0
   -1.1446    0.0357    0.0266 C   0  0  0  0  0  0  0  0  0  0  0  0
   -1.3276    1.5041   -0.4913 C   0  0  0  0  0  0  0  0  0  0  0  0
   -2.2633   -0.3622    1.0552 C   0  0  0  0  0  0  0  0  0  0  0  0
   -1.2141   -1.0557   -1.1108 C   0  0  0  0  0  0  0  0  0  0  0  0
   -1.9065    2.3941    0.3563 C   0  0  0  0  0  0  0  0  0  0  0  0
   -3.5473   -0.3216    0.6181 C   0  0  0  0  0  0  0  0  0  0  0  0
   -0.8933    1.7782   -1.7489 C   0  0  0  0  0  0  0  0  0  0  0  0
   -1.8597   -0.7163    2.3014 C   0  0  0  0  0  0  0  0  0  0  0  0
   -2.0691    3.7006   -0.1043 C   0  0  0  0  0  0  0  0  0  0  0  0
   -4.5408   -0.6750    1.5313 C   0  0  0  0  0  0  0  0  0  0  0  0
   -1.0560    3.0848   -2.2093 C   0  0  0  0  0  0  0  0  0  0  0  0
   -2.8531   -1.0698    3.2145 C   0  0  0  0  0  0  0  0  0  0  0  0
   -0.7651   -2.8018   -1.9803 C   0  0  0  0  0  0  0  0  0  0  0  0
   -1.6438    4.0460   -1.3868 C   0  0  0  0  0  0  0  0  0  0  0  0
   -4.1937   -1.0492    2.8293 C   0  0  0  0  0  0  0  0  0  0  0  0
   -0.1363   -4.1197   -2.1330 C   0  0  0  0  0  0  0  0  0  0  0  0
  1 17  1  0
  1 26  1  0
  2  5  1  0
  2  7  1  0
  2 12  1  0
  3  4  1  0
  3 17  2  0
  4 26  2  0
  5  8  1  0
  5  9  1  0
  6  7  1  0
  6 10  1  0
  6 11  1  0
  8 10  1  0
  9 11  1  0
 12 13  1  0
 13 14  1  0
 14 15  1  0
 14 16  1  0
 14 17  1  0
 15 18  2  0
 15 20  1  0
 16 19  2  0
 16 21  1  0
 18 22  1  0
 19 23  1  0
 20 24  2  0
 21 25  2  0
 22 27  2  0
 23 28  2  0
 24 27  1  0
 25 28  1  0
 26 29  1  0
M  END
>  <PUBCHEM_COMPOUND_CID>  (1) 
42551

>  <PUBCHEM_CONFORMER_RMSD>  (1) 
0.8

>  <PUBCHEM_CONFORMER_DIVERSEORDER>  (1) 
1
25
8
23
19
11
34
22
15
4
24
6
33
30
16
20
31
7
17
32
9
21
5
12
18
2
26
10
27
29
14
3
28
13

>  <PUBCHEM_MMFF94_PARTIAL_CHARGES>  (1) 
33
1 -0.28
12 0.27
14 0.47
15 -0.14
16 -0.14
17 0.3
18 -0.15
19 -0.15
2 -0.81
20 -0.15
21 -0.15
22 -0.15
23 -0.15
24 -0.15
25 -0.15
26 0.3
27 -0.15
28 -0.15
29 0.18
3 -0.34
4 -0.34
46 0.15
47 0.15
48 0.15
49 0.15
5 0.27
50 0.15
51 0.15
52 0.15
53 0.15
54 0.15
55 0.15
7 0.27

>  <PUBCHEM_EFFECTIVE_ROTOR_COUNT>  (1) 
7.2

>  <PUBCHEM_PHARMACOPHORE_FEATURES>  (1) 
5
1 2 cation
5 1 3 4 17 26 rings
6 15 18 20 22 24 27 rings
6 16 19 21 23 25 28 rings
8 2 5 6 7 8 9 10 11 rings

>  <PUBCHEM_HEAVY_ATOM_COUNT>  (1) 
29

>  <PUBCHEM_ATOM_DEF_STEREO_COUNT>  (1) 
0

>  <PUBCHEM_ATOM_UDEF_STEREO_COUNT>  (1) 
0

>  <PUBCHEM_BOND_DEF_STEREO_COUNT>  (1) 
0

>  <PUBCHEM_BOND_UDEF_STEREO_COUNT>  (1) 
0

>  <PUBCHEM_ISOTOPIC_ATOM_COUNT>  (1) 
0

>  <PUBCHEM_COMPONENT_COUNT>  (1) 
1

>  <PUBCHEM_CACTVS_TAUTO_COUNT>  (1) 
1

>  <PUBCHEM_CONFORMER_ID>  (1) 
0000A63700000001

>  <PUBCHEM_MMFF94_ENERGY>  (1) 
100.3766

>  <PUBCHEM_FEATURE_SELFOVERLAP>  (1) 
25.374

>  <PUBCHEM_SHAPE_FINGERPRINT>  (1) 
10721379 63 17043421698248986583
10764073 3 18121517768900143201
107951 10 17681267759254905276
10906281 52 18262534585123125221
11297750 10 17691436030668807223
11443803 9 17617893056119000405
11578080 2 17411376168219798161
12160290 23 17972002938954461420
12403814 3 18412820308945196137
12422481 6 18266763306463523025
12516196 113 17895486941535143163
12597179 24 18051415072287288853
12633257 1 17846501469482546424
13135754 10 18114759122062546660
133893 2 17179389496478277677
13583140 156 18262790775378756184
14468879 13 18194673770257500565
14840074 17 18339937016008114605
14856354 85 17458916938207801354
150020 26 18051706442969058566
15131766 46 17701529843543554576
15775530 1 17834416531049480639
17980427 23 18340225054576406705
17980427 26 17105964097485886829
20600515 1 18042712600972515361
20681651 13 17773854515906222922
21033648 29 17916288486226193208
21716022 299 16759428878296267342
23419403 2 17479202781241654263
266924 78 17035847180009586079
3027735 51 17915433087116497926
3187 122 18187657876929327925
3380486 145 18048579701923537797
376196 1 17617071643465521276
469060 322 18338225085152455135
484985 159 16444450313756464640
497634 4 17416394575464637520
5171179 24 17838629859681660063
57527452 28 17703781562226698671
59755656 520 17132122329482625058
9981440 41 17912344451553492320

>  <PUBCHEM_SHAPE_MULTIPOLES>  (1) 
575.99
9.1
3.99
2.97
12.91
2.59
-0.26
-1.26
6.55
-3.23
-3.28
-2.45
-2.36
1.35

>  <PUBCHEM_SHAPE_SELFOVERLAP>  (1) 
1266.6

>  <PUBCHEM_SHAPE_VOLUME>  (1) 
309.2

>  <PUBCHEM_COORDINATE_TYPE>  (1) 
2
5
10

$$$$
