42569
     RDKit          3D

 22 22  0  0  0  0  0  0  0  0999 V2000
    0.4740   -2.2377    0.0989 O   0  0  0  0  0  0  0  0  0  0  0  0
    1.3962    2.3112    0.0325 O   0  0  0  0  0  0  0  0  0  0  0  0
   -3.6198    1.9540    0.7875 O   0  0  0  0  0  0  0  0  0  0  0  0
    0.9375    0.0363    0.0654 N   0  0  0  0  0  0  0  0  0  0  0  0
   -4.0903   -0.0829   -0.2200 N   0  0  0  0  0  0  0  0  0  0  0  0
   -5.4658    0.1381   -0.1944 N   0  0  0  0  0  0  0  0  0  0  0  0
    2.1945   -3.9012   -0.0118 C   0  0  0  0  0  0  0  0  0  0  0  0
    3.6275    3.1731   -0.0750 C   0  0  0  0  0  0  0  0  0  0  0  0
    3.6966   -4.1622   -0.0800 C   0  0  0  0  0  0  0  0  0  0  0  0
    5.1109    2.8284   -0.1718 C   0  0  0  0  0  0  0  0  0  0  0  0
    1.8837   -2.4115    0.0207 C   0  0  0  0  0  0  0  0  0  0  0  0
    2.7607    1.9223   -0.0425 C   0  0  0  0  0  0  0  0  0  0  0  0
    0.0120   -0.9477    0.1202 C   0  0  0  0  0  0  0  0  0  0  0  0
    0.4681    1.3040    0.0881 C   0  0  0  0  0  0  0  0  0  0  0  0
   -1.7978    0.5924    0.2166 C   0  0  0  0  0  0  0  0  0  0  0  0
    4.0045   -5.6509   -0.0687 C   0  0  0  0  0  0  0  0  0  0  0  0
   -1.3535   -0.7250    0.1958 C   0  0  0  0  0  0  0  0  0  0  0  0
   -0.8760    1.6321    0.1621 C   0  0  0  0  0  0  0  0  0  0  0  0
    5.9700    4.0805   -0.2475 C   0  0  0  0  0  0  0  0  0  0  0  0
   -3.2203    0.8829    0.2958 C   0  0  0  0  0  0  0  0  0  0  0  0
   -6.1225   -0.9084    0.5865 C   0  0  0  0  0  0  0  0  0  0  0  0
   -5.9902    0.1722   -1.5583 C   0  0  0  0  0  0  0  0  0  0  0  0
  1 11  1  0
  1 13  1  0
  2 12  1  0
  2 14  1  0
  3 20  2  0
  4 13  2  0
  4 14  1  0
  5  6  1  0
  5 20  1  0
  6 21  1  0
  6 22  1  0
  7  9  1  0
  7 11  1  0
  8 10  1  0
  8 12  1  0
  9 16  1  0
 10 19  1  0
 13 17  1  0
 14 18  2  0
 15 17  2  0
 15 18  1  0
 15 20  1  0
M  END
>  <PUBCHEM_COMPOUND_CID>  (1) 
42569

>  <PUBCHEM_CONFORMER_RMSD>  (1) 
1

>  <PUBCHEM_CONFORMER_DIVERSEORDER>  (1) 
1
10
31
29
28
23
25
20
12
22
34
26
16
21
7
19
33
5
9
11
24
15
14
17
6
4
27
18
3
13
32
8
30
2

>  <PUBCHEM_MMFF94_PARTIAL_CHARGES>  (1) 
19
1 -0.36
11 0.28
12 0.28
13 0.39
14 0.39
15 0.09
17 -0.15
18 -0.15
2 -0.36
20 0.54
21 0.27
22 0.27
3 -0.57
35 0.15
36 0.15
4 -0.62
43 0.37
5 -0.42
6 -0.55

>  <PUBCHEM_EFFECTIVE_ROTOR_COUNT>  (1) 
11

>  <PUBCHEM_PHARMACOPHORE_FEATURES>  (1) 
6
1 16 hydrophobe
1 19 hydrophobe
1 2 acceptor
1 3 acceptor
1 5 donor
6 4 13 14 15 17 18 rings

>  <PUBCHEM_HEAVY_ATOM_COUNT>  (1) 
22

>  <PUBCHEM_ATOM_DEF_STEREO_COUNT>  (1) 
0

>  <PUBCHEM_ATOM_UDEF_STEREO_COUNT>  (1) 
0

>  <PUBCHEM_BOND_DEF_STEREO_COUNT>  (1) 
0

>  <PUBCHEM_BOND_UDEF_STEREO_COUNT>  (1) 
0

>  <PUBCHEM_ISOTOPIC_ATOM_COUNT>  (1) 
0

>  <PUBCHEM_COMPONENT_COUNT>  (1) 
1

>  <PUBCHEM_CACTVS_TAUTO_COUNT>  (1) 
2

>  <PUBCHEM_CONFORMER_ID>  (1) 
0000A64900000001

>  <PUBCHEM_MMFF94_ENERGY>  (1) 
43.7962

>  <PUBCHEM_FEATURE_SELFOVERLAP>  (1) 
30.446

>  <PUBCHEM_SHAPE_FINGERPRINT>  (1) 
10050765 1 18338801101113776617
10411042 1 18050286960182443746
11045515 52 17683814207095022742
12788726 201 16963517452448771714
13009979 54 17844249510696965155
13257819 101 17314203696936138645
13540713 4 18114464462390902989
13540713 5 18130229247130251145
138480 1 18194405485985250730
13968360 50 18337666524528542116
14508225 48 17905879288822067310
15042514 8 17328873604517791290
15927050 60 18269558402228544654
167882 2 18410012113398468392
17492 89 18411136901705645843
20554085 129 18129365159338828000
20600515 1 17409656449912372292
22849339 104 17761518154694093540
23366157 5 18260835847524874632
23402539 116 18126846233997289765
23559900 14 18265326223422928483
249999 5 18411135835909996426
5385378 56 18411145752868274177
57816332 2 18267865162827029334
57816332 4 18336557005932889258
59755656 215 18410013264339200613
59755656 520 18194395817565897252
6669772 16 18340491170364555198
6700243 42 16980421396265972254
6898599 12 17542232706480741476
77188 2 18050285869613756310
9981440 41 18265057005976796000

>  <PUBCHEM_SHAPE_MULTIPOLES>  (1) 
420.2
13.18
6.79
0.77
11.62
9.22
-0.16
-6.22
-2.13
-19.08
-0.29
0.88
-0.07
-0.25

>  <PUBCHEM_SHAPE_SELFOVERLAP>  (1) 
830.575

>  <PUBCHEM_SHAPE_VOLUME>  (1) 
252.5

>  <PUBCHEM_COORDINATE_TYPE>  (1) 
2
5
10

$$$$
