42567
     RDKit          3D

 22 22  0  0  0  0  0  0  0  0999 V2000
    0.4671   -2.2740   -0.2844 O   0  0  0  0  0  0  0  0  0  0  0  0
    0.9485    2.3406   -0.1401 O   0  0  0  0  0  0  0  0  0  0  0  0
   -3.8770    1.1163   -1.7105 O   0  0  0  0  0  0  0  0  0  0  0  0
    0.7103    0.0331   -0.2121 N   0  0  0  0  0  0  0  0  0  0  0  0
   -4.3541   -0.0699    0.2379 N   0  0  0  0  0  0  0  0  0  0  0  0
   -3.8640   -0.7746    1.3474 N   0  0  0  0  0  0  0  0  0  0  0  0
    2.3310   -3.7684   -0.1041 C   0  0  0  0  0  0  0  0  0  0  0  0
    3.0713    3.4069    0.1596 C   0  0  0  0  0  0  0  0  0  0  0  0
    3.8394   -3.8880    0.0934 C   0  0  0  0  0  0  0  0  0  0  0  0
    4.5746    3.2031    0.3247 C   0  0  0  0  0  0  0  0  0  0  0  0
    1.8786   -2.3151   -0.1124 C   0  0  0  0  0  0  0  0  0  0  0  0
    2.3357    2.0812    0.0249 C   0  0  0  0  0  0  0  0  0  0  0  0
   -2.0492    0.3308   -0.5443 C   0  0  0  0  0  0  0  0  0  0  0  0
   -0.1122   -1.0330   -0.3327 C   0  0  0  0  0  0  0  0  0  0  0  0
    0.1255    1.2511   -0.2606 C   0  0  0  0  0  0  0  0  0  0  0  0
   -1.4846   -0.9391   -0.4990 C   0  0  0  0  0  0  0  0  0  0  0  0
   -1.2357    1.4520   -0.4235 C   0  0  0  0  0  0  0  0  0  0  0  0
    4.2811   -5.3418    0.1443 C   0  0  0  0  0  0  0  0  0  0  0  0
    5.3103    4.5304    0.4156 C   0  0  0  0  0  0  0  0  0  0  0  0
   -3.4846    0.4868   -0.7165 C   0  0  0  0  0  0  0  0  0  0  0  0
   -5.7981    0.0621    0.1137 C   0  0  0  0  0  0  0  0  0  0  0  0
   -3.6138    0.1096    2.4788 C   0  0  0  0  0  0  0  0  0  0  0  0
  1 11  1  0
  1 14  1  0
  2 12  1  0
  2 15  1  0
  3 20  2  0
  4 14  2  0
  4 15  1  0
  5  6  1  0
  5 20  1  0
  5 21  1  0
  6 22  1  0
  7  9  1  0
  7 11  1  0
  8 10  1  0
  8 12  1  0
  9 18  1  0
 10 19  1  0
 13 16  2  0
 13 17  1  0
 13 20  1  0
 14 16  1  0
 15 17  2  0
M  END
>  <PUBCHEM_COMPOUND_CID>  (1) 
42567

>  <PUBCHEM_CONFORMER_RMSD>  (1) 
1

>  <PUBCHEM_CONFORMER_DIVERSEORDER>  (1) 
1
51
26
62
35
40
11
46
45
52
30
49
12
14
27
31
37
17
21
39
20
24
44
54
13
43
60
47
33
18
28
10
42
16
38
5
56
22
41
9
36
7
55
6
57
34
48
4
50
8
59
58
23
53
19
61
15
3
25
29
32
2

>  <PUBCHEM_MMFF94_PARTIAL_CHARGES>  (1) 
19
1 -0.36
11 0.28
12 0.28
13 0.09
14 0.39
15 0.39
16 -0.15
17 -0.15
2 -0.36
20 0.54
21 0.3
22 0.27
3 -0.57
35 0.15
36 0.15
4 -0.62
46 0.36
5 -0.35
6 -0.64

>  <PUBCHEM_EFFECTIVE_ROTOR_COUNT>  (1) 
11

>  <PUBCHEM_PHARMACOPHORE_FEATURES>  (1) 
6
1 18 hydrophobe
1 19 hydrophobe
1 2 acceptor
1 3 acceptor
1 6 donor
6 4 13 14 15 16 17 rings

>  <PUBCHEM_HEAVY_ATOM_COUNT>  (1) 
22

>  <PUBCHEM_ATOM_DEF_STEREO_COUNT>  (1) 
0

>  <PUBCHEM_ATOM_UDEF_STEREO_COUNT>  (1) 
0

>  <PUBCHEM_BOND_DEF_STEREO_COUNT>  (1) 
0

>  <PUBCHEM_BOND_UDEF_STEREO_COUNT>  (1) 
0

>  <PUBCHEM_ISOTOPIC_ATOM_COUNT>  (1) 
0

>  <PUBCHEM_COMPONENT_COUNT>  (1) 
1

>  <PUBCHEM_CACTVS_TAUTO_COUNT>  (1) 
1

>  <PUBCHEM_CONFORMER_ID>  (1) 
0000A64700000001

>  <PUBCHEM_MMFF94_ENERGY>  (1) 
47.8445

>  <PUBCHEM_FEATURE_SELFOVERLAP>  (1) 
30.446

>  <PUBCHEM_SHAPE_FINGERPRINT>  (1) 
10411042 1 18051128095130606462
12293681 160 16891716044293171845
12788726 201 17109027924732214554
13140716 1 18267588086212924286
13540713 4 18114456774388835653
13540713 5 18131340930732157119
138480 1 18267296535554037270
14444916 359 18194136311916487564
14508225 48 17763723422156665700
14866123 147 17763462120937061178
15042514 8 17112126903009231422
15927050 60 18269556216306300078
167882 2 18338783559612421029
1813 80 17843411678215058935
20101258 96 17835525921107572122
20603629 256 18339377300650487619
22224240 67 18124882510951914185
23175994 123 18120659033165165855
23558518 356 15454509091359589319
23559900 14 18191576467746177023
249999 5 18411698798600470474
5385378 56 18411423937952887361
58807428 26 18195532708214681792
6669772 16 18341053033991840060
77188 2 18123186801875832718

>  <PUBCHEM_SHAPE_MULTIPOLES>  (1) 
420.2
10.88
6.71
1.16
3.86
4.75
0.61
-3.51
2.14
-19.87
0.59
1.85
-0.16
0.95

>  <PUBCHEM_SHAPE_SELFOVERLAP>  (1) 
831.179

>  <PUBCHEM_SHAPE_VOLUME>  (1) 
251.6

>  <PUBCHEM_COORDINATE_TYPE>  (1) 
2
5
10

$$$$
