42560
     RDKit          3D

 14 14  0  0  1  0  0  0  0  0999 V2000
   -2.0237    1.9559    0.1445 O   0  0  0  0  0  0  0  0  0  0  0  0
    2.6882   -0.2490   -1.8321 O   0  0  0  0  0  0  0  0  0  0  0  0
    3.6194    1.1856   -0.3522 O   0  0  0  0  0  0  0  0  0  0  0  0
   -4.1941    0.6108   -0.2721 O   0  0  0  0  0  0  0  0  0  0  0  0
    2.5688    0.0173    1.8349 N   0  0  0  0  0  0  0  0  0  0  0  0
    0.6813   -0.4937    0.3227 C   0  0  0  0  0  0  0  0  0  0  0  0
    2.1578   -0.5266    0.5285 C   0  0  0  0  0  0  0  0  0  0  0  0
    0.0029    0.7250    0.3278 C   0  0  0  0  0  0  0  0  0  0  0  0
   -0.0217   -1.6824    0.1264 C   0  0  0  0  0  0  0  0  0  0  0  0
   -1.3785    0.7553    0.1364 C   0  0  0  0  0  0  0  0  0  0  0  0
   -2.0815   -0.4333   -0.0599 C   0  0  0  0  0  0  0  0  0  0  0  0
   -1.4033   -1.6521   -0.0647 C   0  0  0  0  0  0  0  0  0  0  0  0
    2.9080    0.2112   -0.5766 C   0  0  0  0  0  0  0  0  0  0  0  0
   -3.5235   -0.4240   -0.2634 C   0  0  0  0  0  0  0  0  0  0  0  0
  1 10  1  0
  2 13  1  0
  3 13  2  0
  4 14  2  0
  5  7  1  0
  6  7  1  0
  6  8  2  0
  6  9  1  0
  7 13  1  0
  8 10  1  0
  9 12  2  0
 10 11  2  0
 11 12  1  0
 11 14  1  0
M  END
>  <PUBCHEM_COMPOUND_CID>  (1) 
42560

>  <PUBCHEM_CONFORMER_RMSD>  (1) 
0.6

>  <PUBCHEM_CONFORMER_DIVERSEORDER>  (1) 
2
17
6
9
14
7
15
10
11
13
16
12
1
8
3
5
4

>  <PUBCHEM_MMFF94_PARTIAL_CHARGES>  (1) 
22
1 -0.53
10 0.08
11 0.09
12 -0.15
13 0.66
14 0.42
16 0.15
17 0.15
18 0.15
19 0.36
2 -0.65
20 0.36
21 0.06
22 0.45
23 0.5
3 -0.57
4 -0.57
5 -0.99
6 -0.14
7 0.47
8 -0.15
9 -0.15

>  <PUBCHEM_EFFECTIVE_ROTOR_COUNT>  (1) 
3

>  <PUBCHEM_PHARMACOPHORE_FEATURES>  (1) 
8
1 1 donor
1 2 acceptor
1 3 acceptor
1 4 acceptor
1 5 cation
1 5 donor
3 2 3 13 anion
6 6 8 9 10 11 12 rings

>  <PUBCHEM_HEAVY_ATOM_COUNT>  (1) 
14

>  <PUBCHEM_ATOM_DEF_STEREO_COUNT>  (1) 
0

>  <PUBCHEM_ATOM_UDEF_STEREO_COUNT>  (1) 
1

>  <PUBCHEM_BOND_DEF_STEREO_COUNT>  (1) 
0

>  <PUBCHEM_BOND_UDEF_STEREO_COUNT>  (1) 
0

>  <PUBCHEM_ISOTOPIC_ATOM_COUNT>  (1) 
0

>  <PUBCHEM_COMPONENT_COUNT>  (1) 
1

>  <PUBCHEM_CACTVS_TAUTO_COUNT>  (1) 
5

>  <PUBCHEM_CONFORMER_ID>  (1) 
0000A64000000002

>  <PUBCHEM_MMFF94_ENERGY>  (1) 
34.7242

>  <PUBCHEM_FEATURE_SELFOVERLAP>  (1) 
40.655

>  <PUBCHEM_SHAPE_FINGERPRINT>  (1) 
11206711 2 18340481188828968877
11543360 7 15697420226839841297
11769659 78 13830125083795769285
12932764 1 17632569444410125059
13538477 17 18113892805800249202
14993402 34 18260551134184930093
15775835 57 17894631487034042404
16945 1 18412258450177355019
18186145 218 17703789206603723251
19026448 4 16056873663424882035
19026448 5 16805317795467576363
20201158 50 17560809844141249118
20279233 1 17275101756211424306
20559304 39 18188199923487714802
20645476 183 17894637001477112383
20645477 70 15052016766437456212
21501502 16 18125158230408535067
22802520 49 18127998367611511262
23402539 116 18342167904084945734
23402655 69 18197197189279873781
23552423 10 18119247259960859795
23557571 272 18126295378766232182
23559900 14 18272090522278496150
2748010 2 18123747548379064815
369184 2 16081082679984870091
474 4 17096655503164721268
4990 188 17703792500880672959
537710 114 18334013900036315973
53812653 8 18408322172727164169
7364860 26 18337105675447482066
77492 1 17749383788869971330

>  <PUBCHEM_SHAPE_MULTIPOLES>  (1) 
259.66
6.07
1.5
1.06
0.85
0.01
-0.01
-1.48
-1.03
0.61
0.03
-1.16
0.04
-0.15

>  <PUBCHEM_SHAPE_SELFOVERLAP>  (1) 
546.831

>  <PUBCHEM_SHAPE_VOLUME>  (1) 
145.1

>  <PUBCHEM_COORDINATE_TYPE>  (1) 
2
5
10

$$$$
