42575
     RDKit          3D

 22 26  0  0  0  0  0  0  0  0999 V2000
    1.4754    0.1478   -0.0027 C   0  0  0  0  0  0  0  0  0  0  0  0
   -1.4755   -0.1480   -0.0031 C   0  0  0  0  0  0  0  0  0  0  0  0
    0.5816    1.3675   -0.0067 C   0  0  0  0  0  0  0  0  0  0  0  0
   -0.5818   -1.3675   -0.0062 C   0  0  0  0  0  0  0  0  0  0  0  0
    0.9067   -1.1350   -0.0022 C   0  0  0  0  0  0  0  0  0  0  0  0
   -0.9068    1.1349   -0.0025 C   0  0  0  0  0  0  0  0  0  0  0  0
    2.8974    0.3000   -0.0006 C   0  0  0  0  0  0  0  0  0  0  0  0
   -2.8974   -0.3000   -0.0010 C   0  0  0  0  0  0  0  0  0  0  0  0
    1.7407   -2.2608    0.0010 C   0  0  0  0  0  0  0  0  0  0  0  0
   -1.7405    2.2607    0.0008 C   0  0  0  0  0  0  0  0  0  0  0  0
    3.7159   -0.8578    0.0026 C   0  0  0  0  0  0  0  0  0  0  0  0
   -3.7158    0.8578    0.0025 C   0  0  0  0  0  0  0  0  0  0  0  0
    3.1251   -2.1246    0.0035 C   0  0  0  0  0  0  0  0  0  0  0  0
   -3.1249    2.1245    0.0035 C   0  0  0  0  0  0  0  0  0  0  0  0
    3.5517    1.5548   -0.0018 C   0  0  0  0  0  0  0  0  0  0  0  0
   -3.5517   -1.5549   -0.0025 C   0  0  0  0  0  0  0  0  0  0  0  0
    5.1159   -0.7368    0.0043 C   0  0  0  0  0  0  0  0  0  0  0  0
   -5.1158    0.7371    0.0048 C   0  0  0  0  0  0  0  0  0  0  0  0
    4.9445    1.6604    0.0000 C   0  0  0  0  0  0  0  0  0  0  0  0
   -4.9445   -1.6604   -0.0002 C   0  0  0  0  0  0  0  0  0  0  0  0
    5.7264    0.5145    0.0029 C   0  0  0  0  0  0  0  0  0  0  0  0
   -5.7265   -0.5143    0.0035 C   0  0  0  0  0  0  0  0  0  0  0  0
  1  3  1  0
  1  5  2  0
  1  7  1  0
  2  4  1  0
  2  6  2  0
  2  8  1  0
  3  6  1  0
  4  5  1  0
  5  9  1  0
  6 10  1  0
  7 11  2  0
  7 15  1  0
  8 12  2  0
  8 16  1  0
  9 13  2  0
 10 14  2  0
 11 13  1  0
 11 17  1  0
 12 14  1  0
 12 18  1  0
 15 19  2  0
 16 20  2  0
 17 21  2  0
 18 22  2  0
 19 21  1  0
 20 22  1  0
M  END
>  <PUBCHEM_COMPOUND_CID>  (1) 
42575

>  <PUBCHEM_CONFORMER_RMSD>  (1) 
0.6

>  <PUBCHEM_CONFORMER_DIVERSEORDER>  (1) 
1

>  <PUBCHEM_MMFF94_PARTIAL_CHARGES>  (1) 
30
1 -0.14
10 -0.15
13 -0.15
14 -0.15
15 -0.15
16 -0.15
17 -0.15
18 -0.15
19 -0.15
2 -0.14
20 -0.15
21 -0.15
22 -0.15
27 0.15
28 0.15
29 0.15
3 0.29
30 0.15
31 0.15
32 0.15
33 0.15
34 0.15
35 0.15
36 0.15
37 0.15
38 0.15
4 0.29
5 -0.14
6 -0.14
9 -0.15

>  <PUBCHEM_EFFECTIVE_ROTOR_COUNT>  (1) 
0.4

>  <PUBCHEM_PHARMACOPHORE_FEATURES>  (1) 
5
6 1 2 3 4 5 6 rings
6 1 5 7 9 11 13 rings
6 2 6 8 10 12 14 rings
6 7 11 15 17 19 21 rings
6 8 12 16 18 20 22 rings

>  <PUBCHEM_HEAVY_ATOM_COUNT>  (1) 
22

>  <PUBCHEM_ATOM_DEF_STEREO_COUNT>  (1) 
0

>  <PUBCHEM_ATOM_UDEF_STEREO_COUNT>  (1) 
0

>  <PUBCHEM_BOND_DEF_STEREO_COUNT>  (1) 
0

>  <PUBCHEM_BOND_UDEF_STEREO_COUNT>  (1) 
0

>  <PUBCHEM_ISOTOPIC_ATOM_COUNT>  (1) 
0

>  <PUBCHEM_COMPONENT_COUNT>  (1) 
1

>  <PUBCHEM_CACTVS_TAUTO_COUNT>  (1) 
1

>  <PUBCHEM_CONFORMER_ID>  (1) 
0000A64F00000001

>  <PUBCHEM_MMFF94_ENERGY>  (1) 
73.6991

>  <PUBCHEM_FEATURE_SELFOVERLAP>  (1) 
25.461

>  <PUBCHEM_SHAPE_FINGERPRINT>  (1) 
10 15 18338788031723370384
10090160 65 18187362159746150350
10595046 47 18410855473013063698
10616163 171 18412545396800151343
10670039 82 18261408728213240716
10835480 77 18336537257832199845
10906281 52 18262820534674341353
11135609 12 17751094694183840427
11488393 25 17344649053624272462
11578080 2 17097194044533688847
11963148 33 18337102483696853299
12107183 9 17690280408807113425
12166972 35 17821731654273265676
12236239 1 18410856559639789613
12403259 415 18272923938648864240
12788726 201 17202771384674431113
13140716 1 17978511158620979441
13167823 11 18411698759819287638
13224815 77 18410573963676614666
13402501 40 18410575110432882882
13533116 47 17168414970590012706
13862211 1 18410852187426704079
14341114 176 18410580565104665175
14528608 73 18411702110199532422
14787075 74 18409728490811444411
14790565 3 18411986896300973268
15196674 1 18410575063188242437
15536298 74 18341050727077391382
15788980 27 16588022402959206567
15927050 60 17405710762184139548
15961568 22 18186525427635631540
17349148 13 17894915135047991772
17492 89 18267584611252741550
17834072 33 18411136939405121014
17844677 252 18341621352063634494
1813 80 17240487987591522373
18681886 176 18411979183452125064
200 152 18273776047301336025
20645477 70 18343023246832857358
21236236 1 18413389813652019121
21267235 1 18411427193379699062
21673915 165 18410293605407231759
221357 26 18272373062154089988
221490 88 18338804412011179370
22393880 68 18265337209780291294
23402539 116 18410006663095538983
23559900 14 18411413981975673241
239999 70 18273220777187524110
245318 6 17171539984647931972
2871803 45 18408039602264956034
3004659 81 18334013878772307088
335352 9 18410855451538227647
34797466 226 17632584876480892436
34934 24 18410288095581505879
350125 39 18411136944196213792
3545911 37 18409168800711865837
4073 2 18113624511856708610
4214541 1 18410575041919452581
4325135 7 18410573993741386021
4340502 62 17022903458249179002
474 4 17822299006736658116
474229 33 18411699906591379958
5104073 3 18410573946496746394
5283173 99 18041831810512414837
5486654 2 18410578430601079110
59755656 215 18410579474742511782
67856867 119 18189057645325937076
7495541 125 17846774135301913816
77779 3 18411419470938505222
9709674 26 18409737226865101786

>  <PUBCHEM_SHAPE_MULTIPOLES>  (1) 
452.75
12.83
2.4
0.62
0
0
0
0
-0.02
0
0
0
0
-0.01

>  <PUBCHEM_SHAPE_SELFOVERLAP>  (1) 
1039.347

>  <PUBCHEM_SHAPE_VOLUME>  (1) 
213.3

>  <PUBCHEM_COORDINATE_TYPE>  (1) 
2
5
10

$$$$
