42573
     RDKit          3D

 20 20  0  0  0  0  0  0  0  0999 V2000
    0.5935    2.3303   -0.0034 O   0  0  0  0  0  0  0  0  0  0  0  0
    0.0625   -2.2809    0.0509 O   0  0  0  0  0  0  0  0  0  0  0  0
   -4.4033    1.5313    0.5973 O   0  0  0  0  0  0  0  0  0  0  0  0
   -6.0490   -0.3513   -0.3938 O   0  0  0  0  0  0  0  0  0  0  0  0
    0.3305    0.0245    0.0236 N   0  0  0  0  0  0  0  0  0  0  0  0
   -4.6566   -0.5137   -0.4357 N   0  0  0  0  0  0  0  0  0  0  0  0
    2.7452    3.3802   -0.0347 C   0  0  0  0  0  0  0  0  0  0  0  0
    1.9221   -3.7909    0.0098 C   0  0  0  0  0  0  0  0  0  0  0  0
    4.2552    3.1639   -0.0765 C   0  0  0  0  0  0  0  0  0  0  0  0
    3.4425   -3.9221   -0.0032 C   0  0  0  0  0  0  0  0  0  0  0  0
    1.9881    2.0597   -0.0276 C   0  0  0  0  0  0  0  0  0  0  0  0
    1.4839   -2.3333    0.0242 C   0  0  0  0  0  0  0  0  0  0  0  0
   -0.2464    1.2472    0.0234 C   0  0  0  0  0  0  0  0  0  0  0  0
   -0.5087   -1.0352    0.0496 C   0  0  0  0  0  0  0  0  0  0  0  0
    5.0061    4.4849   -0.1272 C   0  0  0  0  0  0  0  0  0  0  0  0
    3.8762   -5.3790    0.0260 C   0  0  0  0  0  0  0  0  0  0  0  0
   -2.4461    0.3442    0.0739 C   0  0  0  0  0  0  0  0  0  0  0  0
   -1.6154    1.4589    0.0476 C   0  0  0  0  0  0  0  0  0  0  0  0
   -1.8901   -0.9303    0.0751 C   0  0  0  0  0  0  0  0  0  0  0  0
   -3.8902    0.5116    0.1005 C   0  0  0  0  0  0  0  0  0  0  0  0
  1 11  1  0
  1 13  1  0
  2 12  1  0
  2 14  1  0
  3 20  2  0
  4  6  1  0
  5 13  2  0
  5 14  1  0
  6 20  1  0
  7  9  1  0
  7 11  1  0
  8 10  1  0
  8 12  1  0
  9 15  1  0
 10 16  1  0
 13 18  1  0
 14 19  2  0
 17 18  2  0
 17 19  1  0
 17 20  1  0
M  END
>  <PUBCHEM_COMPOUND_CID>  (1) 
42573

>  <PUBCHEM_CONFORMER_RMSD>  (1) 
1

>  <PUBCHEM_CONFORMER_DIVERSEORDER>  (1) 
1
45
29
24
14
7
26
40
2
17
20
10
22
21
15
18
33
38
37
3
41
8
42
31
23
4
44
34
35
43
46
47
30
11
12
32
19
6
27
28
39
9
13
25
5
36
16

>  <PUBCHEM_MMFF94_PARTIAL_CHARGES>  (1) 
18
1 -0.36
11 0.28
12 0.28
13 0.39
14 0.39
17 0.09
18 -0.15
19 -0.15
2 -0.36
20 0.54
3 -0.57
39 0.15
4 -0.44
40 0.15
41 0.37
42 0.4
5 -0.62
6 -0.39

>  <PUBCHEM_EFFECTIVE_ROTOR_COUNT>  (1) 
10

>  <PUBCHEM_PHARMACOPHORE_FEATURES>  (1) 
6
1 15 hydrophobe
1 16 hydrophobe
1 2 acceptor
1 3 acceptor
1 6 donor
6 5 13 14 17 18 19 rings

>  <PUBCHEM_HEAVY_ATOM_COUNT>  (1) 
20

>  <PUBCHEM_ATOM_DEF_STEREO_COUNT>  (1) 
0

>  <PUBCHEM_ATOM_UDEF_STEREO_COUNT>  (1) 
0

>  <PUBCHEM_BOND_DEF_STEREO_COUNT>  (1) 
0

>  <PUBCHEM_BOND_UDEF_STEREO_COUNT>  (1) 
0

>  <PUBCHEM_ISOTOPIC_ATOM_COUNT>  (1) 
0

>  <PUBCHEM_COMPONENT_COUNT>  (1) 
1

>  <PUBCHEM_CACTVS_TAUTO_COUNT>  (1) 
4

>  <PUBCHEM_CONFORMER_ID>  (1) 
0000A64D00000001

>  <PUBCHEM_MMFF94_ENERGY>  (1) 
40.9829

>  <PUBCHEM_FEATURE_SELFOVERLAP>  (1) 
30.446

>  <PUBCHEM_SHAPE_FINGERPRINT>  (1) 
10050765 1 18410856522119623313
10411042 1 18050285869039107019
107951 10 18052830422930054980
11045515 52 17755869619015277262
11056379 131 17258505435649986830
12523318 42 17549531264829182544
13540713 4 18114183004746938349
13540713 5 18202284668130784033
138480 1 18266459802736258994
13968360 50 18265323083574663527
14508225 48 17906719315832256293
14844126 61 17399511720628120296
15042514 8 17184474759278998962
15927050 60 18269278035189755638
15961568 22 18195242218872334698
167882 2 18410011031087815277
20554085 129 18057870532181021929
20600515 1 17481431478046719141
21304253 13 17836369237820409017
22849339 104 17688895437248897420
2297311 6 17764877892186766382
23366157 5 18260832570475286289
23557571 272 17480297868710919270
23559900 14 18265326218969679531
23566358 27 18412816989342145679
23598288 3 17177156379904081708
249999 5 18411138047680860931
283562 15 17910116051180525819
3091708 16 9113314771421405922
532947 4 18412271653170365740
5385378 56 18411145761753698801
77188 2 18122343471988300830
9981440 41 18265054823869678497

>  <PUBCHEM_SHAPE_MULTIPOLES>  (1) 
378.15
9.9
7.42
0.62
7.67
6.14
0
-4.41
-0.64
-18.66
-0.05
0.07
-0.01
-0.45

>  <PUBCHEM_SHAPE_SELFOVERLAP>  (1) 
753.071

>  <PUBCHEM_SHAPE_VOLUME>  (1) 
224.6

>  <PUBCHEM_COORDINATE_TYPE>  (1) 
2
5
10

$$$$
