42588
     RDKit          3D

 25 26  0  0  0  0  0  0  0  0999 V2000
   -3.7861   -0.7650    0.5776 O   0  0  0  0  0  0  0  0  0  0  0  0
    0.3838    4.6273   -0.6195 O   0  0  0  0  0  0  0  0  0  0  0  0
   -1.9973   -0.9981   -0.8596 O   0  0  0  0  0  0  0  0  0  0  0  0
    2.7210   -1.8591   -1.3866 O   0  0  0  0  0  0  0  0  0  0  0  0
    5.0737   -3.1808   -1.5566 O   0  0  0  0  0  0  0  0  0  0  0  0
    1.9423   -0.4201    0.8476 N   0  0  0  0  0  0  0  0  0  0  0  0
    4.7223   -2.4646   -0.4047 N   0  0  0  0  0  0  0  0  0  0  0  0
   -0.2256   -0.0117    1.0947 C   0  0  0  0  0  0  0  0  0  0  0  0
    0.3920    1.1615    0.5781 C   0  0  0  0  0  0  0  0  0  0  0  0
    0.7529   -0.9665    1.2493 C   0  0  0  0  0  0  0  0  0  0  0  0
    1.7518    0.8787    0.4325 C   0  0  0  0  0  0  0  0  0  0  0  0
   -1.6604   -0.1766    1.4086 C   0  0  0  0  0  0  0  0  0  0  0  0
    3.2174   -1.1071    0.8573 C   0  0  0  0  0  0  0  0  0  0  0  0
   -0.0767    2.4409    0.2193 C   0  0  0  0  0  0  0  0  0  0  0  0
   -4.6687   -1.2408   -0.4438 C   0  0  0  0  0  0  0  0  0  0  0  0
    2.6700    1.8152   -0.0557 C   0  0  0  0  0  0  0  0  0  0  0  0
    0.6568   -2.3561    1.7454 C   0  0  0  0  0  0  0  0  0  0  0  0
   -2.4662   -0.6940    0.2290 C   0  0  0  0  0  0  0  0  0  0  0  0
    0.8301    3.3878   -0.2705 C   0  0  0  0  0  0  0  0  0  0  0  0
    2.1819    3.0776   -0.4052 C   0  0  0  0  0  0  0  0  0  0  0  0
   -4.2374   -2.6520   -0.8405 C   0  0  0  0  0  0  0  0  0  0  0  0
   -6.0807   -1.2540    0.1378 C   0  0  0  0  0  0  0  0  0  0  0  0
   -4.5882   -0.2906   -1.6377 C   0  0  0  0  0  0  0  0  0  0  0  0
    3.5011   -1.8347   -0.4382 C   0  0  0  0  0  0  0  0  0  0  0  0
   -1.0098    4.8829   -0.4586 C   0  0  0  0  0  0  0  0  0  0  0  0
  1 15  1  0
  1 18  1  0
  2 19  1  0
  2 25  1  0
  3 18  2  0
  4 24  2  0
  5  7  1  0
  6 10  1  0
  6 11  1  0
  6 13  1  0
  7 24  1  0
  8  9  1  0
  8 10  2  0
  8 12  1  0
  9 11  2  0
  9 14  1  0
 10 17  1  0
 11 16  1  0
 12 18  1  0
 13 24  1  0
 14 19  2  0
 15 21  1  0
 15 22  1  0
 15 23  1  0
 16 20  2  0
 19 20  1  0
M  END
>  <PUBCHEM_COMPOUND_CID>  (1) 
42588

>  <PUBCHEM_CONFORMER_RMSD>  (1) 
0.8

>  <PUBCHEM_CONFORMER_DIVERSEORDER>  (1) 
1
282
111
72
43
157
257
171
66
92
263
230
289
109
277
281
136
125
96
224
146
36
250
64
283
15
271
58
124
242
202
143
148
176
228
216
39
156
253
264
235
131
204
73
201
133
104
205
287
140
232
284
41
279
120
214
247
237
160
85
261
256
115
206
8
203
137
272
135
193
212
184
83
173
267
252
149
245
225
145
76
234
34
107
236
280
196
161
110
77
213
51
258
70
154
119
210
141
9
219
49
114
181
244
69
123
227
190
166
117
74
288
183
276
46
177
47
126
211
132
270
147
273
220
93
26
286
63
269
134
231
209
241
222
65
27
139
285
30
165
86
112
25
226
265
24
266
75
178
217
207
259
59
195
198
103
199
130
19
80
113
60
20
208
12
128
10
162
215
192
53
274
48
255
29
159
240
17
33
56
94
127
50
6
238
95
116
151
175
91
79
194
67
189
218
233
62
187
105
99
71
98
14
142
200
152
106
150
249
243
191
90
23
174
81
138
108
246
21
16
163
37
144
172
18
188
186
260
97
122
223
44
7
254
180
179
153
102
87
100
22
155
11
4
268
28
229
248
61
221
68
278
262
55
13
158
275
168
121
170
182
118
197
84
78
40
57
88
5
167
129
38
54
45
3
31
185
82
164
89
42
101
32
35
169
251
2
239
52

>  <PUBCHEM_MMFF94_PARTIAL_CHARGES>  (1) 
26
1 -0.43
10 -0.33
11 -0.15
12 0.24
13 0.32
14 -0.15
15 0.28
16 -0.15
17 0.18
18 0.66
19 0.08
2 -0.36
20 -0.15
24 0.57
25 0.28
3 -0.57
30 0.15
31 0.15
35 0.15
4 -0.57
45 0.37
49 0.4
5 -0.44
6 0.05
7 -0.39
8 -0.18

>  <PUBCHEM_EFFECTIVE_ROTOR_COUNT>  (1) 
8

>  <PUBCHEM_PHARMACOPHORE_FEATURES>  (1) 
8
1 2 acceptor
1 3 acceptor
1 4 acceptor
1 6 cation
1 7 donor
4 15 21 22 23 hydrophobe
5 6 8 9 10 11 rings
6 9 11 14 16 19 20 rings

>  <PUBCHEM_HEAVY_ATOM_COUNT>  (1) 
25

>  <PUBCHEM_ATOM_DEF_STEREO_COUNT>  (1) 
0

>  <PUBCHEM_ATOM_UDEF_STEREO_COUNT>  (1) 
0

>  <PUBCHEM_BOND_DEF_STEREO_COUNT>  (1) 
0

>  <PUBCHEM_BOND_UDEF_STEREO_COUNT>  (1) 
0

>  <PUBCHEM_ISOTOPIC_ATOM_COUNT>  (1) 
0

>  <PUBCHEM_COMPONENT_COUNT>  (1) 
1

>  <PUBCHEM_CACTVS_TAUTO_COUNT>  (1) 
3

>  <PUBCHEM_CONFORMER_ID>  (1) 
0000A65C00000001

>  <PUBCHEM_MMFF94_ENERGY>  (1) 
63.5675

>  <PUBCHEM_FEATURE_SELFOVERLAP>  (1) 
40.687

>  <PUBCHEM_SHAPE_FINGERPRINT>  (1) 
10815517 723 18055640508553328857
10906281 52 18189625006775208824
116883 192 18339073787737982556
12553582 1 18262242101285197578
12730499 353 17825668022212545011
12769317 202 17973708466684204685
12788726 201 17973160630176775403
13009979 54 17988937647346875355
13149001 5 18042136503744815002
13899415 180 18410282593264299678
13911987 19 18041861592031766878
14251757 5 18047184159985829493
14508225 48 18337395937821336956
14556957 393 17973195901181498902
15081414 286 18336546126828707673
17539 30 18122063105007702868
1813 80 18342176639732356114
20388580 30 18343304772921946426
20645477 70 18337950203156077347
21860390 5 18264486367778674612
221357 26 18261099799678667509
22620623 9 17980487767549047774
23536364 44 18116423744070134671
23559900 14 18195804291580802515
23598288 3 17612036971062896418
23598291 2 18342750606582645897
238 59 18048597311336248715
3060560 45 18050004699268792660
340366 18 18271800259435455047
376196 1 17612019786967576577
4280585 95 18411695448869494490
46194498 28 18263071271113765223
474 4 17831009501071674105
5281201 14 18261100924864977991
58779409 8 17688307889585202572
5969126 39 18339079273191772526
6287921 2 17680142177935142437
6443956 14 18334570274120740917
70251023 43 18410296869635449482
9709674 26 18191301783456016755

>  <PUBCHEM_SHAPE_MULTIPOLES>  (1) 
475.18
9.43
5.28
1.37
11.33
6.86
0.02
-9.84
3.84
-4.95
1.79
-0.11
-0.93
0.77

>  <PUBCHEM_SHAPE_SELFOVERLAP>  (1) 
1002.169

>  <PUBCHEM_SHAPE_VOLUME>  (1) 
270.9

>  <PUBCHEM_COORDINATE_TYPE>  (1) 
2
5
10

$$$$
