42585
     RDKit          3D

 20 22  0  0  1  0  0  0  0  0999 V2000
    2.2321   -0.9634   -0.5200 O   0  0  0  0  0  0  0  0  0  0  0  0
   -4.6544   -1.0279   -0.2299 O   0  0  0  0  0  0  0  0  0  0  0  0
   -2.9109   -2.2428    0.3371 O   0  0  0  0  0  0  0  0  0  0  0  0
    2.5881   -2.9076    0.6759 O   0  0  0  0  0  0  0  0  0  0  0  0
    1.6915    1.1159    0.3349 N   0  0  0  0  0  0  0  0  0  0  0  0
   -1.2395    0.0049    0.1083 N   0  0  0  0  0  0  0  0  0  0  0  0
   -1.7991    2.0743   -0.4434 N   0  0  0  0  0  0  0  0  0  0  0  0
    0.8152    3.0587   -0.2684 N   0  0  0  0  0  0  0  0  0  0  0  0
   -3.4183   -1.1339    0.0075 N   0  0  0  0  0  0  0  0  0  0  0  0
    1.8802   -0.2796    0.6770 C   0  0  0  0  0  0  0  0  0  0  0  0
    0.6992   -0.9448    1.3785 C   0  0  0  0  0  0  0  0  0  0  0  0
   -0.4924   -1.1826    0.4605 C   0  0  0  0  0  0  0  0  0  0  0  0
   -0.7905    1.2841   -0.1139 C   0  0  0  0  0  0  0  0  0  0  0  0
    0.5451    1.7879   -0.0174 C   0  0  0  0  0  0  0  0  0  0  0  0
   -2.5964   -0.0037   -0.0971 C   0  0  0  0  0  0  0  0  0  0  0  0
    2.7284    2.0169    0.3018 C   0  0  0  0  0  0  0  0  0  0  0  0
   -2.9163    1.2857   -0.4343 C   0  0  0  0  0  0  0  0  0  0  0  0
    2.1603    3.2061   -0.0732 C   0  0  0  0  0  0  0  0  0  0  0  0
    2.5665   -2.2805   -0.3745 C   0  0  0  0  0  0  0  0  0  0  0  0
    2.9111   -2.8677   -1.7095 C   0  0  0  0  0  0  0  0  0  0  0  0
  1 10  1  0
  1 19  1  0
  2  9  1  0
  3  9  2  0
  4 19  2  0
  5 10  1  0
  5 14  1  0
  5 16  1  0
  6 12  1  0
  6 13  1  0
  6 15  1  0
  7 13  2  0
  7 17  1  0
  8 14  2  0
  8 18  1  0
  9 15  1  0
 10 11  1  0
 11 12  1  0
 13 14  1  0
 15 17  2  0
 16 18  2  0
 19 20  1  0
M  CHG  2   2  -1   9   1
M  END
>  <PUBCHEM_COMPOUND_CID>  (1) 
42585

>  <PUBCHEM_CONFORMER_RMSD>  (1) 
0.6

>  <PUBCHEM_CONFORMER_DIVERSEORDER>  (1) 
1
13
4
6
7
3
8
5
15
11
14
9
2
16
12
10

>  <PUBCHEM_MMFF94_PARTIAL_CHARGES>  (1) 
22
1 -0.43
10 0.54
12 0.26
13 0.19
14 0.19
15 -0.07
16 -0.3
17 0.08
18 0.08
19 0.66
2 -0.52
20 0.06
26 0.15
27 0.15
28 0.15
3 -0.52
4 -0.57
5 0.05
6 0.05
7 -0.57
8 -0.57
9 0.96

>  <PUBCHEM_EFFECTIVE_ROTOR_COUNT>  (1) 
3.6

>  <PUBCHEM_PHARMACOPHORE_FEATURES>  (1) 
9
1 2 acceptor
1 2 anion
1 3 acceptor
1 4 acceptor
3 5 8 14 cation
3 6 7 13 cation
5 5 8 14 16 18 rings
5 6 7 13 15 17 rings
7 5 6 10 11 12 13 14 rings

>  <PUBCHEM_HEAVY_ATOM_COUNT>  (1) 
20

>  <PUBCHEM_ATOM_DEF_STEREO_COUNT>  (1) 
0

>  <PUBCHEM_ATOM_UDEF_STEREO_COUNT>  (1) 
1

>  <PUBCHEM_BOND_DEF_STEREO_COUNT>  (1) 
0

>  <PUBCHEM_BOND_UDEF_STEREO_COUNT>  (1) 
0

>  <PUBCHEM_ISOTOPIC_ATOM_COUNT>  (1) 
0

>  <PUBCHEM_COMPONENT_COUNT>  (1) 
1

>  <PUBCHEM_CACTVS_TAUTO_COUNT>  (1) 
1

>  <PUBCHEM_CONFORMER_ID>  (1) 
0000A65900000001

>  <PUBCHEM_MMFF94_ENERGY>  (1) 
42.2758

>  <PUBCHEM_FEATURE_SELFOVERLAP>  (1) 
45.847

>  <PUBCHEM_SHAPE_FINGERPRINT>  (1) 
10616163 171 17976538630829941099
10967382 1 18264203789148407721
11578080 2 16952225682747845356
12054548 360 18266181626009848630
12553582 1 18050570642460699002
12788726 201 17616266784100790842
12839892 36 18051956298063596714
13140716 1 18194956353367571745
13380535 76 18046059629804145872
13533116 47 18201721799744792179
14178342 30 18339067250819318792
14223421 5 18335979869707867557
14790565 3 17331128195987002344
14863182 85 17901677290699555151
15475509 8 17553776058005727501
16945 1 18337673134441226889
17990270 104 18410005529060661888
19591789 44 17689436413447667386
20028762 73 16973941376726282751
20600515 1 17687427245006057392
20602899 9 17624723510403489504
20645477 70 18337098081918630215
20905425 154 18410573972583378948
21524375 3 17902786697984969024
221490 88 18335706056810479291
22802520 49 18127405644717843114
23184049 29 18265045847451248272
2334 1 18408317770132731641
23419403 2 16471844886496944886
23557571 272 17695897840301285114
23559900 14 18411408506034750145
23566358 2 18335692841327913549
2748010 2 18264757792458208520
3060560 45 18196373843326413876
3084891 72 17401476057753169381
314173 41 18267591203905747551
352729 6 17831021590839876096
5262128 65 18341333292722724071
59755656 215 18335134336396774069
6138700 20 18409733976592671580
7364860 26 18340486759074400016
7832392 63 18194396702207710705
81228 2 17622726419081958520
8272917 22 18339364188115202589
84936 31 17774991397901788842
9709674 26 18336542806966394979

>  <PUBCHEM_SHAPE_MULTIPOLES>  (1) 
363.21
5.82
3.97
0.96
4.65
0.88
0.07
-3.46
1.02
-3.22
0.65
-0.63
-0.57
0.92

>  <PUBCHEM_SHAPE_SELFOVERLAP>  (1) 
794.109

>  <PUBCHEM_SHAPE_VOLUME>  (1) 
193.5

>  <PUBCHEM_COORDINATE_TYPE>  (1) 
2
5
10

$$$$
