42586
     RDKit          3D

 20 20  0  0  1  0  0  0  0  0999 V2000
    3.8417    0.6531   -0.4189 O   0  0  0  0  0  0  0  0  0  0  0  0
   -1.2738   -3.4391    0.1024 O   0  0  0  0  0  0  0  0  0  0  0  0
    0.9752   -2.3805   -0.5609 O   0  0  0  0  0  0  0  0  0  0  0  0
    2.5539   -0.5969    1.0177 O   0  0  0  0  0  0  0  0  0  0  0  0
    0.2662   -0.1176   -0.4130 N   0  0  0  0  0  0  0  0  0  0  0  0
    1.4866    0.5178   -0.8399 C   0  0  0  0  0  0  0  0  0  0  0  0
   -0.8745    0.7298   -0.0687 C   0  0  0  0  0  0  0  0  0  0  0  0
   -0.9912    1.1412    1.2271 C   0  0  0  0  0  0  0  0  0  0  0  0
   -1.7483    1.0533   -1.0656 C   0  0  0  0  0  0  0  0  0  0  0  0
    1.3135    2.0286   -0.8456 C   0  0  0  0  0  0  0  0  0  0  0  0
    0.1155   -1.5308   -0.3095 C   0  0  0  0  0  0  0  0  0  0  0  0
    2.6697    0.1237    0.0316 C   0  0  0  0  0  0  0  0  0  0  0  0
   -2.0801    1.9487    1.5558 C   0  0  0  0  0  0  0  0  0  0  0  0
   -2.8371    1.8609   -0.7368 C   0  0  0  0  0  0  0  0  0  0  0  0
   -0.0200    0.7720    2.3014 C   0  0  0  0  0  0  0  0  0  0  0  0
   -1.5980    0.5895   -2.4783 C   0  0  0  0  0  0  0  0  0  0  0  0
   -3.0029    2.3086    0.5740 C   0  0  0  0  0  0  0  0  0  0  0  0
   -1.2587   -2.0274    0.1019 C   0  0  0  0  0  0  0  0  0  0  0  0
    5.0078    0.3215    0.3423 C   0  0  0  0  0  0  0  0  0  0  0  0
   -2.5455   -3.9565    0.4829 C   0  0  0  0  0  0  0  0  0  0  0  0
  1 12  1  0
  1 19  1  0
  2 18  1  0
  2 20  1  0
  3 11  2  0
  4 12  2  0
  5  6  1  0
  5  7  1  0
  5 11  1  0
  6 10  1  0
  6 12  1  0
  7  8  2  0
  7  9  1  0
  8 13  1  0
  8 15  1  0
  9 14  2  0
  9 16  1  0
 11 18  1  0
 13 17  2  0
 14 17  1  0
M  END
>  <PUBCHEM_COMPOUND_CID>  (1) 
42586

>  <PUBCHEM_CONFORMER_RMSD>  (1) 
0.8

>  <PUBCHEM_CONFORMER_DIVERSEORDER>  (1) 
12
25
16
45
2
14
47
43
37
22
1
32
39
23
11
26
18
41
40
3
7
35
46
38
42
33
19
34
5
27
30
29
13
15
44
24
28
4
31
8
36
10
17
20
9
21
6

>  <PUBCHEM_MMFF94_PARTIAL_CHARGES>  (1) 
22
1 -0.43
11 0.57
12 0.66
13 -0.15
14 -0.15
15 0.14
16 0.14
17 -0.15
18 0.34
19 0.28
2 -0.56
20 0.28
25 0.15
26 0.15
3 -0.57
33 0.15
4 -0.57
5 -0.48
6 0.36
7 0.12
8 -0.14
9 -0.14

>  <PUBCHEM_EFFECTIVE_ROTOR_COUNT>  (1) 
7

>  <PUBCHEM_PHARMACOPHORE_FEATURES>  (1) 
4
1 2 acceptor
1 3 acceptor
1 4 acceptor
6 7 8 9 13 14 17 rings

>  <PUBCHEM_HEAVY_ATOM_COUNT>  (1) 
20

>  <PUBCHEM_ATOM_DEF_STEREO_COUNT>  (1) 
0

>  <PUBCHEM_ATOM_UDEF_STEREO_COUNT>  (1) 
1

>  <PUBCHEM_BOND_DEF_STEREO_COUNT>  (1) 
0

>  <PUBCHEM_BOND_UDEF_STEREO_COUNT>  (1) 
0

>  <PUBCHEM_ISOTOPIC_ATOM_COUNT>  (1) 
0

>  <PUBCHEM_COMPONENT_COUNT>  (1) 
1

>  <PUBCHEM_CACTVS_TAUTO_COUNT>  (1) 
1

>  <PUBCHEM_CONFORMER_ID>  (1) 
0000A65A0000000C

>  <PUBCHEM_MMFF94_ENERGY>  (1) 
88.6502

>  <PUBCHEM_FEATURE_SELFOVERLAP>  (1) 
20.313

>  <PUBCHEM_SHAPE_FINGERPRINT>  (1) 
104564 63 18339363092598446295
11582403 64 16156485993574940231
11725454 13 16806988971284411725
121448 382 18271795796773971265
12788726 201 18048044248840946570
13134695 92 17548418562966346055
13140716 1 18123195868267113867
13583140 156 16588019079103237356
14787075 74 18060132146427111313
14817 1 12489947609435988925
15309172 13 18262805047091214044
16945 1 18267041581520448415
18915476 22 17612864908004046965
19765921 60 17986103016002198729
20510252 161 18198062684644209258
20600515 1 16907258122193098262
20645476 183 18342453703650949288
21339142 149 17989200447721503220
23419403 2 17697866317684832153
23559900 14 18202001002868120460
2748010 2 18048625653846787055
283562 15 18191583267001615010
394222 165 17340415822203463401
404807 14 13751073234670157326
4340502 62 18269568147988925993
59755656 520 18340492153764229502
77492 1 17485637170305556773
81228 2 18189911987330078970
9981440 41 17415810644717288394

>  <PUBCHEM_SHAPE_MULTIPOLES>  (1) 
383.13
5.42
3.6
1.69
7.3
4.96
-0.03
-1.72
-0.34
-3.94
-0.49
-0.82
-0.83
-0.07

>  <PUBCHEM_SHAPE_SELFOVERLAP>  (1) 
787.508

>  <PUBCHEM_SHAPE_VOLUME>  (1) 
220.7

>  <PUBCHEM_COORDINATE_TYPE>  (1) 
2
5
10

$$$$
