42583
     RDKit          3D

 15 17  0  0  0  0  0  0  0  0999 V2000
   -4.1789    0.3198   -0.0107 O   0  0  0  0  0  0  0  0  0  0  0  0
   -3.0754   -1.5741    0.1087 O   0  0  0  0  0  0  0  0  0  0  0  0
   -0.6460   -0.1891    0.0422 N   0  0  0  0  0  0  0  0  0  0  0  0
    2.0460   -0.8532   -0.0899 N   0  0  0  0  0  0  0  0  0  0  0  0
   -0.2531    1.9936   -0.0960 N   0  0  0  0  0  0  0  0  0  0  0  0
    2.7156    1.2537    0.1355 N   0  0  0  0  0  0  0  0  0  0  0  0
   -3.0830   -0.3113    0.0285 N   0  0  0  0  0  0  0  0  0  0  0  0
   -0.3085   -1.5924    0.2199 C   0  0  0  0  0  0  0  0  0  0  0  0
    1.0947   -1.9289   -0.3180 C   0  0  0  0  0  0  0  0  0  0  0  0
    0.2983    0.8051   -0.0139 C   0  0  0  0  0  0  0  0  0  0  0  0
    1.6742    0.4638    0.0129 C   0  0  0  0  0  0  0  0  0  0  0  0
   -1.8740    0.3902   -0.0174 C   0  0  0  0  0  0  0  0  0  0  0  0
    3.4019   -0.9164   -0.0193 C   0  0  0  0  0  0  0  0  0  0  0  0
   -1.6080    1.7411   -0.1039 C   0  0  0  0  0  0  0  0  0  0  0  0
    3.7961    0.3981    0.1213 C   0  0  0  0  0  0  0  0  0  0  0  0
  1  7  1  0
  2  7  2  0
  3  8  1  0
  3 10  1  0
  3 12  1  0
  4  9  1  0
  4 11  1  0
  4 13  1  0
  5 10  2  0
  5 14  1  0
  6 11  2  0
  6 15  1  0
  7 12  1  0
  8  9  1  0
 10 11  1  0
 12 14  2  0
 13 15  2  0
M  CHG  2   1  -1   7   1
M  END
>  <PUBCHEM_COMPOUND_CID>  (1) 
42583

>  <PUBCHEM_CONFORMER_RMSD>  (1) 
0.6

>  <PUBCHEM_CONFORMER_DIVERSEORDER>  (1) 
1

>  <PUBCHEM_MMFF94_PARTIAL_CHARGES>  (1) 
18
1 -0.52
10 0.19
11 0.19
12 -0.07
13 -0.3
14 0.08
15 0.08
2 -0.52
20 0.15
21 0.15
22 0.15
3 0.05
4 0.05
5 -0.57
6 -0.57
7 0.96
8 0.26
9 0.26

>  <PUBCHEM_EFFECTIVE_ROTOR_COUNT>  (1) 
1.4

>  <PUBCHEM_PHARMACOPHORE_FEATURES>  (1) 
8
1 1 acceptor
1 1 anion
1 2 acceptor
3 3 5 10 cation
3 4 6 11 cation
5 3 5 10 12 14 rings
5 4 6 11 13 15 rings
6 3 4 8 9 10 11 rings

>  <PUBCHEM_HEAVY_ATOM_COUNT>  (1) 
15

>  <PUBCHEM_ATOM_DEF_STEREO_COUNT>  (1) 
0

>  <PUBCHEM_ATOM_UDEF_STEREO_COUNT>  (1) 
0

>  <PUBCHEM_BOND_DEF_STEREO_COUNT>  (1) 
0

>  <PUBCHEM_BOND_UDEF_STEREO_COUNT>  (1) 
0

>  <PUBCHEM_ISOTOPIC_ATOM_COUNT>  (1) 
0

>  <PUBCHEM_COMPONENT_COUNT>  (1) 
1

>  <PUBCHEM_CACTVS_TAUTO_COUNT>  (1) 
1

>  <PUBCHEM_CONFORMER_ID>  (1) 
0000A65700000001

>  <PUBCHEM_MMFF94_ENERGY>  (1) 
26.294

>  <PUBCHEM_FEATURE_SELFOVERLAP>  (1) 
40.926

>  <PUBCHEM_SHAPE_FINGERPRINT>  (1) 
10219947 1 18410858780232892113
10608611 8 18338794520448302092
108231 29 18271243919014260672
10967382 1 18410855442964142862
11132069 177 18412539929121868450
11471102 20 18411414003635113101
11806522 49 18268706289633500079
12032990 46 18410299124456245722
13380535 76 18410575089332988890
14325111 11 18410855434638147240
14614273 12 18115300060514246157
14790565 3 15450885887461782483
15196674 1 18410855490203703243
15219456 202 18338795598463695693
15536298 74 18272089362146949630
15775835 57 18273496788385390230
16945 1 17978792303085752576
193761 8 17906170646529023147
19591789 44 15956133439891057933
200 152 18060128826232625765
20201158 50 18410293592628058763
20510252 161 18272088271130629664
20588541 1 18411422825397783650
20645477 70 18341889633043477415
21267235 1 18410583872219303811
21501502 16 18194402186653763018
2334 1 17834396000736533922
23402539 116 18339631317690336534
23402655 69 18341888559227650877
23463225 33 18408040706314007798
23559900 14 18411697678262703242
2748010 2 18266740177789865980
2871803 45 18336541634113126327
3312278 4 18410857655257383297
43471831 8 18261951834795365626
5104073 3 18410855460128175786
528886 8 18411975879667381859
53812653 166 18343297093578157816
69090 78 18273207616716736350
7364860 26 18197778795748633382
8809292 202 18260553337503549195

>  <PUBCHEM_SHAPE_MULTIPOLES>  (1) 
272.05
5.99
1.93
0.59
0.96
0.12
0
0.3
0.17
0.18
-0.06
-0.06
0.02
0.18

>  <PUBCHEM_SHAPE_SELFOVERLAP>  (1) 
607.497

>  <PUBCHEM_SHAPE_VOLUME>  (1) 
145.4

>  <PUBCHEM_COORDINATE_TYPE>  (1) 
2
5
10

$$$$
