42594
     RDKit          3D

 36 40  0  0  1  0  0  0  0  0999 V2000
   -2.4984   -0.3600   -0.1055 O   0  0  0  0  0  0  0  0  0  0  0  0
   -2.9610   -2.4002   -1.2211 O   0  0  0  0  0  0  0  0  0  0  0  0
   -2.9113    2.1485    1.1437 O   0  0  0  0  0  0  0  0  0  0  0  0
   -3.2239   -4.5554    1.7653 O   0  0  0  0  0  0  0  0  0  0  0  0
    0.1283   -1.4830   -1.4001 O   0  0  0  0  0  0  0  0  0  0  0  0
    1.7052    3.3199    0.8133 O   0  0  0  0  0  0  0  0  0  0  0  0
   -3.9754    4.0891   -1.2818 O   0  0  0  0  0  0  0  0  0  0  0  0
    2.4786   -2.2987   -1.1003 O   0  0  0  0  0  0  0  0  0  0  0  0
    4.0265    2.3633    1.0014 O   0  0  0  0  0  0  0  0  0  0  0  0
   -3.3719   -1.7901    2.3309 N   0  0  0  0  0  0  0  0  0  0  0  0
   -1.8460    0.4714   -1.0661 C   0  0  0  0  0  0  0  0  0  0  0  0
   -2.4353    2.7261   -0.0658 C   0  0  0  0  0  0  0  0  0  0  0  0
   -2.6564    1.7608   -1.2324 C   0  0  0  0  0  0  0  0  0  0  0  0
   -0.9566    3.1058    0.0641 C   0  0  0  0  0  0  0  0  0  0  0  0
   -0.4119    0.7185   -0.6593 C   0  0  0  0  0  0  0  0  0  0  0  0
   -0.0063    1.9407   -0.0962 C   0  0  0  0  0  0  0  0  0  0  0  0
   -3.4932   -1.1736   -0.7183 C   0  0  0  0  0  0  0  0  0  0  0  0
   -4.2807   -2.4183    1.3668 C   0  0  0  0  0  0  0  0  0  0  0  0
   -4.6496   -1.4283    0.2546 C   0  0  0  0  0  0  0  0  0  0  0  0
   -3.6485   -3.6694    0.7363 C   0  0  0  0  0  0  0  0  0  0  0  0
   -2.4947   -3.2970   -0.2063 C   0  0  0  0  0  0  0  0  0  0  0  0
    0.5308   -0.3115   -0.8211 C   0  0  0  0  0  0  0  0  0  0  0  0
   -3.2821    3.9492   -0.2755 C   0  0  0  0  0  0  0  0  0  0  0  0
    1.3366    2.1163    0.2783 C   0  0  0  0  0  0  0  0  0  0  0  0
    1.8641   -0.1300   -0.4366 C   0  0  0  0  0  0  0  0  0  0  0  0
    2.2672    1.0843    0.1129 C   0  0  0  0  0  0  0  0  0  0  0  0
   -1.9170   -4.5157   -0.9203 C   0  0  0  0  0  0  0  0  0  0  0  0
   -3.2424    4.9934    0.8072 C   0  0  0  0  0  0  0  0  0  0  0  0
    2.8336   -1.2300   -0.6185 C   0  0  0  0  0  0  0  0  0  0  0  0
    3.6718    1.2945    0.5200 C   0  0  0  0  0  0  0  0  0  0  0  0
    4.2379   -1.0225   -0.2105 C   0  0  0  0  0  0  0  0  0  0  0  0
    4.6427    0.1961    0.3384 C   0  0  0  0  0  0  0  0  0  0  0  0
    5.1673   -2.0561   -0.3773 C   0  0  0  0  0  0  0  0  0  0  0  0
    5.9767    0.3811    0.7208 C   0  0  0  0  0  0  0  0  0  0  0  0
    6.4956   -1.8677    0.0055 C   0  0  0  0  0  0  0  0  0  0  0  0
    6.8994   -0.6517    0.5533 C   0  0  0  0  0  0  0  0  0  0  0  0
  1 11  1  0
  1 17  1  0
  2 17  1  0
  2 21  1  0
  3 12  1  0
  4 20  1  0
  5 22  1  0
  6 24  1  0
  7 23  2  0
  8 29  2  0
  9 30  2  0
 10 18  1  0
 11 13  1  0
 11 15  1  0
 12 13  1  0
 12 14  1  0
 12 23  1  0
 14 16  1  0
 15 16  2  0
 15 22  1  0
 16 24  1  0
 17 19  1  0
 18 19  1  0
 18 20  1  0
 20 21  1  0
 21 27  1  0
 22 25  2  0
 23 28  1  0
 24 26  2  0
 25 26  1  0
 25 29  1  0
 26 30  1  0
 29 31  1  0
 30 32  1  0
 31 32  2  0
 31 33  1  0
 32 34  1  0
 33 35  2  0
 34 36  2  0
 35 36  1  0
M  END
>  <PUBCHEM_COMPOUND_CID>  (1) 
42594

>  <PUBCHEM_CONFORMER_RMSD>  (1) 
0.8

>  <PUBCHEM_CONFORMER_DIVERSEORDER>  (1) 
1
62
27
57
20
61
35
17
67
51
24
14
58
42
65
31
63
66
29
32
26
49
52
37
43
11
56
55
6
2
10
47
46
34
60
50
40
18
39
7
21
48
28
25
15
23
19
44
53
3
5
13
54
38
22
9
59
12
64
33
36
41
30
45
16
4
8

>  <PUBCHEM_MMFF94_PARTIAL_CHARGES>  (1) 
43
1 -0.56
10 -0.99
11 0.42
12 0.34
14 0.14
15 -0.14
16 -0.14
17 0.56
18 0.27
2 -0.56
20 0.28
21 0.28
22 0.08
23 0.45
24 0.08
25 0.09
26 0.09
28 0.06
29 0.4
3 -0.68
30 0.4
31 0.09
32 0.09
33 -0.15
34 -0.15
35 -0.15
36 -0.15
4 -0.68
48 0.4
5 -0.53
52 0.36
53 0.36
57 0.4
58 0.45
59 0.45
6 -0.53
60 0.15
61 0.15
62 0.15
63 0.15
7 -0.57
8 -0.57
9 -0.57

>  <PUBCHEM_EFFECTIVE_ROTOR_COUNT>  (1) 
5

>  <PUBCHEM_PHARMACOPHORE_FEATURES>  (1) 
18
1 1 acceptor
1 10 cation
1 10 donor
1 2 acceptor
1 3 acceptor
1 3 donor
1 4 acceptor
1 4 donor
1 5 donor
1 6 donor
1 7 acceptor
1 8 acceptor
1 9 acceptor
6 11 12 13 14 15 16 rings
6 15 16 22 24 25 26 rings
6 2 17 18 19 20 21 rings
6 25 26 29 30 31 32 rings
6 31 32 33 34 35 36 rings

>  <PUBCHEM_HEAVY_ATOM_COUNT>  (1) 
36

>  <PUBCHEM_ATOM_DEF_STEREO_COUNT>  (1) 
2

>  <PUBCHEM_ATOM_UDEF_STEREO_COUNT>  (1) 
4

>  <PUBCHEM_BOND_DEF_STEREO_COUNT>  (1) 
0

>  <PUBCHEM_BOND_UDEF_STEREO_COUNT>  (1) 
0

>  <PUBCHEM_ISOTOPIC_ATOM_COUNT>  (1) 
0

>  <PUBCHEM_COMPONENT_COUNT>  (1) 
1

>  <PUBCHEM_CACTVS_TAUTO_COUNT>  (1) 
54

>  <PUBCHEM_CONFORMER_ID>  (1) 
0000A66200000001

>  <PUBCHEM_MMFF94_ENERGY>  (1) 
106.6879

>  <PUBCHEM_FEATURE_SELFOVERLAP>  (1) 
91.458

>  <PUBCHEM_SHAPE_FINGERPRINT>  (1) 
10290309 65 17688028613589530196
10462674 296 17551221201137239894
10653451 467 18408610271614258969
10906281 52 17771630049001028988
10940486 97 18334301929212697140
1100329 8 17688587165354327055
11135609 12 18335143115357276328
11135609 187 17977651031955903013
11227688 84 17910097346186145231
12422481 6 18059584632354315894
12608794 3 18269295533529500561
12788726 201 18262252125812244710
13140716 1 18125435568841103495
14415360 78 18048864213389918949
14790565 3 17693939592427517664
14844126 61 18409727365857359427
14950920 106 17631179751886032698
15361156 5 18261680384235010622
15927050 60 17908420261043086271
15968369 26 18056484942215769126
16112460 7 17913216360311524553
16993438 75 18411415081740748999
19315092 285 16555921233637854047
19611394 137 18410571825901454666
20587220 46 13849619661491021265
20739085 24 17763187242660800005
21033648 29 17488156263551395330
21133410 171 17401705026750704606
21133410 52 16686530162891319388
21796203 349 17396732111803433619
22182313 1 17846227609535619332
23559900 14 18339065073381311836
23569943 247 14762946222660026236
3380486 145 18194401328335849055
3383291 50 18339914940567549771
392239 28 18337956795915318850
4058900 60 17690564087298180157
4073 2 18338232666518279578
4144715 1 18411423874092698198
4408954 64 16665480867571181617
4409770 3 18335975416243273055
44802255 64 17241884285975874607
45266715 3 17978217267537875437
460360 51 18270974453230183956
4616759 239 18058433336885640824
5080951 261 17968359166204475480
5104073 3 18270670988416414040
513202 73 18408328795477343675
56633871 153 18197220463011772739
59755656 520 18191015708279149509
79837 15 18196939876950802825

>  <PUBCHEM_SHAPE_MULTIPOLES>  (1) 
683.06
12.64
6.36
1.3
19.47
0.68
0.29
-4.59
2.81
-10.84
0.99
-1.21
-0.61
2.14

>  <PUBCHEM_SHAPE_SELFOVERLAP>  (1) 
1516.206

>  <PUBCHEM_SHAPE_VOLUME>  (1) 
359.1

>  <PUBCHEM_COORDINATE_TYPE>  (1) 
2
5
10

$$$$
