42599
     RDKit          3D

 28 29  0  0  1  0  0  0  0  0999 V2000
   -3.7342   -1.7911   -3.1518 O   0  0  0  0  0  0  0  0  0  0  0  0
   -3.7492   -1.7598    1.5288 O   0  0  0  0  0  0  0  0  0  0  0  0
    1.3015   -1.9800    3.4246 O   0  0  0  0  0  0  0  0  0  0  0  0
   -3.9844    1.6089    1.4511 O   0  0  0  0  0  0  0  0  0  0  0  0
   -3.8478    3.7626    0.7504 O   0  0  0  0  0  0  0  0  0  0  0  0
   -1.9116   -1.5537   -1.5380 C   0  0  0  0  0  0  0  0  0  0  0  0
   -1.8904   -1.5334   -0.0022 C   0  0  0  0  0  0  0  0  0  0  0  0
   -3.4038   -1.3908   -1.8348 C   0  0  0  0  0  0  0  0  0  0  0  0
   -3.1351   -2.3488    0.3903 C   0  0  0  0  0  0  0  0  0  0  0  0
   -4.0788   -2.3059   -0.8162 C   0  0  0  0  0  0  0  0  0  0  0  0
   -1.0642   -0.4578   -2.1761 C   0  0  0  0  0  0  0  0  0  0  0  0
   -0.6355   -2.0900    0.5922 C   0  0  0  0  0  0  0  0  0  0  0  0
   -1.3793    0.9591   -1.7831 C   0  0  0  0  0  0  0  0  0  0  0  0
    0.1727   -1.4009    1.4108 C   0  0  0  0  0  0  0  0  0  0  0  0
    1.4337   -1.9650    2.0047 C   0  0  0  0  0  0  0  0  0  0  0  0
   -0.5725    1.8228   -1.1480 C   0  0  0  0  0  0  0  0  0  0  0  0
    2.6466   -1.1035    1.6236 C   0  0  0  0  0  0  0  0  0  0  0  0
   -0.9672    3.2295   -0.8035 C   0  0  0  0  0  0  0  0  0  0  0  0
    2.9411   -1.0741    0.1163 C   0  0  0  0  0  0  0  0  0  0  0  0
   -0.9254    3.5305    0.7011 C   0  0  0  0  0  0  0  0  0  0  0  0
    4.1837   -0.3001   -0.2458 C   0  0  0  0  0  0  0  0  0  0  0  0
   -1.8402    2.6333    1.5402 C   0  0  0  0  0  0  0  0  0  0  0  0
    4.0862    1.0560   -0.5188 C   0  0  0  0  0  0  0  0  0  0  0  0
    5.4036   -0.9573   -0.3002 C   0  0  0  0  0  0  0  0  0  0  0  0
   -3.3064    2.7559    1.1861 C   0  0  0  0  0  0  0  0  0  0  0  0
    5.2354    1.7719   -0.8541 C   0  0  0  0  0  0  0  0  0  0  0  0
    6.5529   -0.2415   -0.6354 C   0  0  0  0  0  0  0  0  0  0  0  0
    6.4688    1.1231   -0.9123 C   0  0  0  0  0  0  0  0  0  0  0  0
  1  8  1  0
  2  9  1  0
  3 15  1  0
  4 25  1  0
  5 25  2  0
  6  7  1  0
  6  8  1  0
  6 11  1  0
  7  9  1  0
  7 12  1  0
  8 10  1  0
  9 10  1  0
 11 13  1  0
 12 14  2  0
 13 16  2  0
 14 15  1  0
 15 17  1  0
 16 18  1  0
 17 19  1  0
 18 20  1  0
 19 21  1  0
 20 22  1  0
 21 23  2  0
 21 24  1  0
 22 25  1  0
 23 26  1  0
 24 27  2  0
 26 28  2  0
 27 28  1  0
M  END
>  <PUBCHEM_COMPOUND_CID>  (1) 
42599

>  <PUBCHEM_CONFORMER_RMSD>  (1) 
1.2

>  <PUBCHEM_CONFORMER_DIVERSEORDER>  (1) 
1
222
124
448
381
114
338
35
95
225
213
37
353
400
484
495
474
311
9
177
208
59
220
161
465
24
70
77
80
253
275
418
380
79
123
280
38
115
204
363
457
159
175
407
103
34
402
285
48
97
292
181
243
166
28
91
251
205
322
390
198
265
84
486
5
93
333
240
468
7
218
443
424
74
214
408
11
88
143
154
374
151
57
477
12
203
51
132
514
195
354
26
105
364
304
395
83
73
312
344
13
39
437
171
497
219
138
36
130
186
110
370
71
106
61
394
4
6
150
266
207
510
20
44
128
201
277
396
62
435
349
185
137
168
441
118
403
87
405
432
140
385
174
42
231
40
446
483
90
164
10
2
184
66
367
480
75
377
25
54
29
261
3

>  <PUBCHEM_MMFF94_PARTIAL_CHARGES>  (1) 
37
1 -0.68
11 0.14
12 -0.29
13 -0.29
14 -0.29
15 0.42
16 -0.29
18 0.14
19 0.14
2 -0.68
21 -0.14
22 0.06
23 -0.15
24 -0.15
25 0.66
26 -0.15
27 -0.15
28 -0.15
3 -0.68
37 0.15
38 0.4
39 0.4
4 -0.65
40 0.15
41 0.15
43 0.15
5 -0.57
52 0.4
55 0.15
56 0.15
57 0.15
58 0.15
59 0.15
60 0.5
7 0.14
8 0.28
9 0.28

>  <PUBCHEM_EFFECTIVE_ROTOR_COUNT>  (1) 
12

>  <PUBCHEM_PHARMACOPHORE_FEATURES>  (1) 
12
1 1 acceptor
1 1 donor
1 2 acceptor
1 2 donor
1 3 acceptor
1 3 donor
1 4 acceptor
1 5 acceptor
3 4 5 25 anion
4 16 18 20 22 hydrophobe
5 6 7 8 9 10 rings
6 21 23 24 26 27 28 rings

>  <PUBCHEM_HEAVY_ATOM_COUNT>  (1) 
28

>  <PUBCHEM_ATOM_DEF_STEREO_COUNT>  (1) 
0

>  <PUBCHEM_ATOM_UDEF_STEREO_COUNT>  (1) 
0

>  <PUBCHEM_BOND_DEF_STEREO_COUNT>  (1) 
0

>  <PUBCHEM_BOND_UDEF_STEREO_COUNT>  (1) 
2

>  <PUBCHEM_ISOTOPIC_ATOM_COUNT>  (1) 
0

>  <PUBCHEM_COMPONENT_COUNT>  (1) 
1

>  <PUBCHEM_CACTVS_TAUTO_COUNT>  (1) 
1

>  <PUBCHEM_CONFORMER_ID>  (1) 
0000A66700000001

>  <PUBCHEM_MMFF94_ENERGY>  (1) 
49.1935

>  <PUBCHEM_FEATURE_SELFOVERLAP>  (1) 
60.956

>  <PUBCHEM_SHAPE_FINGERPRINT>  (1) 
10871710 139 18410015425066082873
11578080 2 17201944564725431351
12788726 201 18267004099388452669
131258 43 17198536327407692255
14840074 17 18265054635535240801
15876981 60 18341057418736724389
19311894 1 18122623860871133268
20642791 239 17896299441973376717
35225 105 17985817143295416801
3610482 184 18191047654936532740
469060 322 16443357493339686078
4742675 86 17967542298111387456
5171179 24 17845084245949424896
6786 2 17270614460511790659

>  <PUBCHEM_SHAPE_MULTIPOLES>  (1) 
546.88
11.93
4.28
2.52
20.75
3.99
0.25
0.52
-3.57
-5.41
1.45
-1.91
-1.22
-3.2

>  <PUBCHEM_SHAPE_SELFOVERLAP>  (1) 
1110.634

>  <PUBCHEM_SHAPE_VOLUME>  (1) 
317.5

>  <PUBCHEM_COORDINATE_TYPE>  (1) 
2
5
10

$$$$
