42590
     RDKit          3D

 33 35  0  0  0  0  0  0  0  0999 V2000
    7.6599    0.4421   -2.3997 Cl  0  0  0  0  0  0  0  0  0  0  0  0
    0.7204   -4.6838    0.6658 O   0  0  0  0  0  0  0  0  0  0  0  0
   -2.1498    0.2648   -1.1731 O   0  0  0  0  0  0  0  0  0  0  0  0
    2.7148    2.6749    1.4259 O   0  0  0  0  0  0  0  0  0  0  0  0
   -6.0932    1.7746    0.3058 O   0  0  0  0  0  0  0  0  0  0  0  0
   -4.5280   -1.6804   -1.2422 O   0  0  0  0  0  0  0  0  0  0  0  0
   -3.9978    2.7297    0.1746 O   0  0  0  0  0  0  0  0  0  0  0  0
   -5.7177    0.1583   -1.9664 O   0  0  0  0  0  0  0  0  0  0  0  0
    1.6166    0.7693    0.8911 N   0  0  0  0  0  0  0  0  0  0  0  0
   -0.5241    0.1072    1.0787 C   0  0  0  0  0  0  0  0  0  0  0  0
    0.2747   -1.0500    0.9253 C   0  0  0  0  0  0  0  0  0  0  0  0
    0.3111    1.1954    1.0479 C   0  0  0  0  0  0  0  0  0  0  0  0
    1.6058   -0.6273    0.8052 C   0  0  0  0  0  0  0  0  0  0  0  0
   -2.0112    0.1397    1.2400 C   0  0  0  0  0  0  0  0  0  0  0  0
   -0.0246   -2.4276    0.8762 C   0  0  0  0  0  0  0  0  0  0  0  0
    2.6451   -1.5643    0.6469 C   0  0  0  0  0  0  0  0  0  0  0  0
   -0.0819    2.6199    1.1661 C   0  0  0  0  0  0  0  0  0  0  0  0
    2.7391    1.6209    0.7989 C   0  0  0  0  0  0  0  0  0  0  0  0
   -2.7394    0.2341   -0.0926 C   0  0  0  0  0  0  0  0  0  0  0  0
    1.0079   -3.3533    0.7132 C   0  0  0  0  0  0  0  0  0  0  0  0
    2.3243   -2.9249    0.6014 C   0  0  0  0  0  0  0  0  0  0  0  0
   -4.2643    0.3191   -0.0191 C   0  0  0  0  0  0  0  0  0  0  0  0
    3.9521    1.3299    0.0105 C   0  0  0  0  0  0  0  0  0  0  0  0
   -4.7349    1.7524    0.1609 C   0  0  0  0  0  0  0  0  0  0  0  0
   -4.9339   -0.3765   -1.1931 C   0  0  0  0  0  0  0  0  0  0  0  0
    3.8587    1.1387   -1.3680 C   0  0  0  0  0  0  0  0  0  0  0  0
    5.1922    1.2466    0.6437 C   0  0  0  0  0  0  0  0  0  0  0  0
    5.0053    0.8641   -2.1134 C   0  0  0  0  0  0  0  0  0  0  0  0
    6.3388    0.9719   -0.1016 C   0  0  0  0  0  0  0  0  0  0  0  0
   -0.6513   -5.0556    0.7867 C   0  0  0  0  0  0  0  0  0  0  0  0
    6.2453    0.7806   -1.4801 C   0  0  0  0  0  0  0  0  0  0  0  0
   -6.6727    3.0705    0.4878 C   0  0  0  0  0  0  0  0  0  0  0  0
   -5.0875   -2.4609   -2.3032 C   0  0  0  0  0  0  0  0  0  0  0  0
  1 31  1  0
  2 20  1  0
  2 30  1  0
  3 19  2  0
  4 18  2  0
  5 24  1  0
  5 32  1  0
  6 25  1  0
  6 33  1  0
  7 24  2  0
  8 25  2  0
  9 12  1  0
  9 13  1  0
  9 18  1  0
 10 11  1  0
 10 12  2  0
 10 14  1  0
 11 13  2  0
 11 15  1  0
 12 17  1  0
 13 16  1  0
 14 19  1  0
 15 20  2  0
 16 21  2  0
 18 23  1  0
 19 22  1  0
 20 21  1  0
 22 24  1  0
 22 25  1  0
 23 26  2  0
 23 27  1  0
 26 28  1  0
 27 29  2  0
 28 31  2  0
 29 31  1  0
M  END
>  <PUBCHEM_COMPOUND_CID>  (1) 
42590

>  <PUBCHEM_CONFORMER_RMSD>  (1) 
1.2

>  <PUBCHEM_CONFORMER_DIVERSEORDER>  (1) 
1
96
95
125
110
162
150
15
117
25
86
139
113
36
142
19
48
85
154
51
47
45
131
130
71
56
138
78
133
107
30
49
158
147
156
10
106
159
53
31
39
67
38
103
163
137
121
143
44
81
65
97
46
92
126
108
128
41
99
118
73
161
83
70
12
146
153
34
134
111
79
145
77
119
17
6
9
26
74
37
69
55
166
64
164
114
35
152
68
18
62
22
112
27
43
61
94
165
54
50
149
40
42
82
21
8
129
140
102
58
87
98
160
57
132
89
90
148
101
60
72
120
124
75
167
32
93
141
59
5
80
88
84
24
66
63
116
155
7
52
135
29
3
127
28
115
109
136
151
76
123
33
122
20
144
105
16
2
4
157
91
23
14
104
11
13
100

>  <PUBCHEM_MMFF94_PARTIAL_CHARGES>  (1) 
39
1 -0.18
10 -0.18
12 -0.33
13 -0.15
14 0.24
15 -0.15
16 -0.15
17 0.18
18 0.49
19 0.45
2 -0.36
20 0.08
21 -0.15
22 0.18
23 0.09
24 0.66
25 0.66
26 -0.15
27 -0.15
28 -0.15
29 -0.15
3 -0.57
30 0.28
31 0.18
32 0.28
33 0.28
36 0.15
37 0.15
4 -0.57
41 0.15
43 0.15
44 0.15
45 0.15
46 0.15
5 -0.43
6 -0.43
7 -0.57
8 -0.57
9 0.29

>  <PUBCHEM_EFFECTIVE_ROTOR_COUNT>  (1) 
10

>  <PUBCHEM_PHARMACOPHORE_FEATURES>  (1) 
9
1 2 acceptor
1 22 anion
1 3 acceptor
1 4 acceptor
1 7 acceptor
1 8 acceptor
5 9 10 11 12 13 rings
6 11 13 15 16 20 21 rings
6 23 26 27 28 29 31 rings

>  <PUBCHEM_HEAVY_ATOM_COUNT>  (1) 
33

>  <PUBCHEM_ATOM_DEF_STEREO_COUNT>  (1) 
0

>  <PUBCHEM_ATOM_UDEF_STEREO_COUNT>  (1) 
0

>  <PUBCHEM_BOND_DEF_STEREO_COUNT>  (1) 
0

>  <PUBCHEM_BOND_UDEF_STEREO_COUNT>  (1) 
0

>  <PUBCHEM_ISOTOPIC_ATOM_COUNT>  (1) 
0

>  <PUBCHEM_COMPONENT_COUNT>  (1) 
1

>  <PUBCHEM_CACTVS_TAUTO_COUNT>  (1) 
5

>  <PUBCHEM_CONFORMER_ID>  (1) 
0000A65E00000001

>  <PUBCHEM_MMFF94_ENERGY>  (1) 
90.5262

>  <PUBCHEM_FEATURE_SELFOVERLAP>  (1) 
45.762

>  <PUBCHEM_SHAPE_FINGERPRINT>  (1) 
10190108 129 18265908020167637595
105312 117 18187936122380736502
10693767 8 18060132120699837262
11991303 11 17749954491482656962
12202916 173 17988927761197030710
12293681 160 18201445753026599552
12440610 7 18054501689426856336
12516196 113 10375871866305702028
12788726 201 17345473687703651137
13690498 29 18059287777700793951
13911987 19 18334298681705074418
14790565 3 18410012109135338424
14931854 50 18269539680866853023
15183329 4 17703516497502847748
15250474 111 18199164249635897191
15775530 1 17337589407025612792
19319366 153 18338232648526527227
20775438 99 17480278502708085156
21033648 144 17676206849356758319
21307412 95 18199774530355494982
21344244 181 17844811575814069382
21814621 53 15985106318675915450
22393880 68 18131061662851586937
23536364 44 18129388248908742491
23576562 1 17825398637658865988
25223398 141 17970073454860901099
2838139 119 17167858694862885788
3103668 31 18047474718771619003
4058900 60 18187647976929730835
46194498 28 17825108108305155437
504579 68 18271792533158126189
513532 50 17917703613952391962
563151 40 18412270540842771579

>  <PUBCHEM_SHAPE_MULTIPOLES>  (1) 
634.93
16.25
4.58
1.87
1.23
6.44
1.24
-11.81
11.58
-3.01
-1.76
0.7
0.12
-2.18

>  <PUBCHEM_SHAPE_SELFOVERLAP>  (1) 
1358.374

>  <PUBCHEM_SHAPE_VOLUME>  (1) 
353.1

>  <PUBCHEM_COORDINATE_TYPE>  (1) 
2
5
10

$$$$
