42596
     RDKit          3D

 22 24  0  0  0  0  0  0  0  0999 V2000
   -0.5013    2.2546   -0.0030 O   0  0  0  0  0  0  0  0  0  0  0  0
   -1.9720   -2.8825   -0.0007 O   0  0  0  0  0  0  0  0  0  0  0  0
    2.2327    2.2289   -1.0967 O   0  0  0  0  0  0  0  0  0  0  0  0
    2.2331    2.2274    1.0985 O   0  0  0  0  0  0  0  0  0  0  0  0
    4.5136   -0.2944   -1.0970 O   0  0  0  0  0  0  0  0  0  0  0  0
    4.5130   -0.2948    1.0982 O   0  0  0  0  0  0  0  0  0  0  0  0
    2.0366    1.6620    0.0005 N   0  0  0  0  0  0  0  0  0  0  0  0
    3.9226   -0.4158    0.0005 N   0  0  0  0  0  0  0  0  0  0  0  0
    0.2062   -0.0126   -0.0006 C   0  0  0  0  0  0  0  0  0  0  0  0
   -0.1905   -1.3515   -0.0006 C   0  0  0  0  0  0  0  0  0  0  0  0
   -2.2350    0.7108   -0.0001 C   0  0  0  0  0  0  0  0  0  0  0  0
   -2.6317   -0.6282    0.0002 C   0  0  0  0  0  0  0  0  0  0  0  0
   -0.8015    1.0675   -0.0006 C   0  0  0  0  0  0  0  0  0  0  0  0
   -1.6240   -1.7082    0.0002 C   0  0  0  0  0  0  0  0  0  0  0  0
    1.5680    0.3122   -0.0003 C   0  0  0  0  0  0  0  0  0  0  0  0
    0.7747   -2.3657   -0.0008 C   0  0  0  0  0  0  0  0  0  0  0  0
    2.5265   -0.7016    0.0000 C   0  0  0  0  0  0  0  0  0  0  0  0
    2.1307   -2.0376   -0.0005 C   0  0  0  0  0  0  0  0  0  0  0  0
   -3.2001    1.7250   -0.0001 C   0  0  0  0  0  0  0  0  0  0  0  0
   -3.9936   -0.9530    0.0009 C   0  0  0  0  0  0  0  0  0  0  0  0
   -4.5562    1.3969    0.0007 C   0  0  0  0  0  0  0  0  0  0  0  0
   -4.9521    0.0608    0.0014 C   0  0  0  0  0  0  0  0  0  0  0  0
  1 13  2  0
  2 14  2  0
  3  7  1  0
  4  7  2  0
  5  8  1  0
  6  8  2  0
  7 15  1  0
  8 17  1  0
  9 10  2  0
  9 13  1  0
  9 15  1  0
 10 14  1  0
 10 16  1  0
 11 12  2  0
 11 13  1  0
 11 19  1  0
 12 14  1  0
 12 20  1  0
 15 17  2  0
 16 18  2  0
 17 18  1  0
 19 21  2  0
 20 22  2  0
 21 22  1  0
M  CHG  4   3  -1   5  -1   7   1   8   1
M  END
>  <PUBCHEM_COMPOUND_CID>  (1) 
42596

>  <PUBCHEM_CONFORMER_RMSD>  (1) 
0.6

>  <PUBCHEM_CONFORMER_DIVERSEORDER>  (1) 
1

>  <PUBCHEM_MMFF94_PARTIAL_CHARGES>  (1) 
28
1 -0.57
10 0.09
11 0.09
12 0.09
13 0.4
14 0.4
15 0.13
16 -0.15
17 0.13
18 -0.15
19 -0.15
2 -0.57
20 -0.15
21 -0.15
22 -0.15
23 0.15
24 0.15
25 0.15
26 0.15
27 0.15
28 0.15
3 -0.52
4 -0.52
5 -0.52
6 -0.52
7 0.91
8 0.91
9 0.09

>  <PUBCHEM_EFFECTIVE_ROTOR_COUNT>  (1) 
2

>  <PUBCHEM_PHARMACOPHORE_FEATURES>  (1) 
11
1 1 acceptor
1 2 acceptor
1 3 acceptor
1 3 anion
1 4 acceptor
1 5 acceptor
1 5 anion
1 6 acceptor
6 11 12 19 20 21 22 rings
6 9 10 11 12 13 14 rings
6 9 10 15 16 17 18 rings

>  <PUBCHEM_HEAVY_ATOM_COUNT>  (1) 
22

>  <PUBCHEM_ATOM_DEF_STEREO_COUNT>  (1) 
0

>  <PUBCHEM_ATOM_UDEF_STEREO_COUNT>  (1) 
0

>  <PUBCHEM_BOND_DEF_STEREO_COUNT>  (1) 
0

>  <PUBCHEM_BOND_UDEF_STEREO_COUNT>  (1) 
0

>  <PUBCHEM_ISOTOPIC_ATOM_COUNT>  (1) 
0

>  <PUBCHEM_COMPONENT_COUNT>  (1) 
1

>  <PUBCHEM_CACTVS_TAUTO_COUNT>  (1) 
1

>  <PUBCHEM_CONFORMER_ID>  (1) 
0000A66400000001

>  <PUBCHEM_MMFF94_ENERGY>  (1) 
80.7512

>  <PUBCHEM_FEATURE_SELFOVERLAP>  (1) 
56.033

>  <PUBCHEM_SHAPE_FINGERPRINT>  (1) 
10411042 1 16609416387608982127
10608611 8 18411416228681295465
10616163 171 18411703222707370983
10967382 1 18338797814698507751
11132069 177 18413105048054912163
11471102 20 18338514136535527631
11578080 2 16915085468462778099
12011746 2 18339645542358237958
12236239 1 17821731624593368942
12403259 415 18408880733562229749
12403814 3 17530683178263807239
13140716 1 18338229483187942698
13221675 6 18410573955218873687
13862211 1 18410568457539525926
14178342 30 18050834813082395323
14790565 3 18409458002762581692
15099037 51 18411421691468382375
15196674 1 18410574019527020263
15536298 74 18343300404882015177
1601671 61 18409731716711691710
16945 1 18410855434458825158
17804303 29 18411984662975780764
1813 80 16807007629345395338
18186145 218 18408599254126618893
19591789 44 18410857698233735219
200 152 18060695079268955711
20510252 161 18200312092023921937
20691752 17 17531795982599157546
21267235 1 18410865364887554111
21421861 104 17607521332573597587
21501502 16 18265051512397047742
23227448 37 18342172314784600903
2334 1 18122627416249323238
23402539 116 18343011182216832479
23463225 33 18409166580593464967
23558518 356 18045217390986104194
23559900 14 18343867693670212446
2748010 2 18267024049242484462
335352 9 18410573946502131103
34934 24 18411130312286823306
350125 39 18409452522067378453
3680242 22 18263363594634410330
474 4 17967818287913681269
5104073 3 18338237167248374241
69090 78 18412822486894717095
7364860 26 18342175544341206506
9709674 26 18412549803642637223
9981440 41 17468760045072099928

>  <PUBCHEM_SHAPE_MULTIPOLES>  (1) 
407.57
8.35
2.69
0.76
1.15
0.22
0
-1.03
0
-0.07
0
-0.54
-0.18
0

>  <PUBCHEM_SHAPE_SELFOVERLAP>  (1) 
921.215

>  <PUBCHEM_SHAPE_VOLUME>  (1) 
212

>  <PUBCHEM_COORDINATE_TYPE>  (1) 
2
5
10

$$$$
