42595
     RDKit          3D

 11 12  0  0  1  0  0  0  0  0999 V2000
   -2.2085    0.7175    0.4726 N   0  0  0  0  0  0  0  0  0  0  0  0
   -3.4135    0.8826   -0.2827 N   0  0  0  0  0  0  0  0  0  0  0  0
    0.7934    0.8005    0.7452 C   0  0  0  0  0  0  0  0  0  0  0  0
    2.2057   -0.6590   -0.1685 C   0  0  0  0  0  0  0  0  0  0  0  0
   -0.0792   -0.4660    0.5775 C   0  0  0  0  0  0  0  0  0  0  0  0
    2.1420    0.1732    1.1123 C   0  0  0  0  0  0  0  0  0  0  0  0
    0.8884   -1.4547   -0.1054 C   0  0  0  0  0  0  0  0  0  0  0  0
    1.1283    1.4454   -0.6105 C   0  0  0  0  0  0  0  0  0  0  0  0
    2.0759    0.4232   -1.2544 C   0  0  0  0  0  0  0  0  0  0  0  0
   -1.3848   -0.2747   -0.1772 C   0  0  0  0  0  0  0  0  0  0  0  0
   -2.1477   -1.5879   -0.3089 C   0  0  0  0  0  0  0  0  0  0  0  0
  1  2  1  0
  1 10  1  0
  3  5  1  0
  3  6  1  0
  3  8  1  0
  4  6  1  0
  4  7  1  0
  4  9  1  0
  5  7  1  0
  5 10  1  0
  8  9  1  0
 10 11  1  0
M  END
>  <PUBCHEM_COMPOUND_CID>  (1) 
42595

>  <PUBCHEM_CONFORMER_RMSD>  (1) 
0.6

>  <PUBCHEM_CONFORMER_DIVERSEORDER>  (1) 
1
16
18
8
12
9
20
4
15
17
7
22
13
2
11
21
6
5
19
3
10
14

>  <PUBCHEM_MMFF94_PARTIAL_CHARGES>  (1) 
6
1 -0.63
10 0.27
2 -0.72
27 0.36
28 0.36
29 0.36

>  <PUBCHEM_EFFECTIVE_ROTOR_COUNT>  (1) 
3

>  <PUBCHEM_PHARMACOPHORE_FEATURES>  (1) 
3
1 1 donor
1 2 donor
7 3 4 5 6 7 8 9 rings

>  <PUBCHEM_HEAVY_ATOM_COUNT>  (1) 
11

>  <PUBCHEM_ATOM_DEF_STEREO_COUNT>  (1) 
0

>  <PUBCHEM_ATOM_UDEF_STEREO_COUNT>  (1) 
4

>  <PUBCHEM_BOND_DEF_STEREO_COUNT>  (1) 
0

>  <PUBCHEM_BOND_UDEF_STEREO_COUNT>  (1) 
0

>  <PUBCHEM_ISOTOPIC_ATOM_COUNT>  (1) 
0

>  <PUBCHEM_COMPONENT_COUNT>  (1) 
1

>  <PUBCHEM_CACTVS_TAUTO_COUNT>  (1) 
1

>  <PUBCHEM_CONFORMER_ID>  (1) 
0000A66300000001

>  <PUBCHEM_MMFF94_ENERGY>  (1) 
30.4245

>  <PUBCHEM_FEATURE_SELFOVERLAP>  (1) 
16.529

>  <PUBCHEM_SHAPE_FINGERPRINT>  (1) 
12897270 3 18194404613474062471
12932764 1 18131075982182815915
15775835 57 18186806902195116525
16945 1 18200320918002243488
20653085 51 17389978812907405604
20653091 64 17822845515301971946
21040471 1 18339924934497394842
23552423 10 18408603690522049219
23559900 14 18130797746486990726
2748010 2 18200030775607449531
3248919 1 18041273357120401819
5084963 1 17677878201145523354
528886 8 18334301959034166174

>  <PUBCHEM_SHAPE_MULTIPOLES>  (1) 
216.41
3.97
1.48
1.03
2.9
0.19
-0.02
-0.49
-0.38
0.33
-0.17
-0.56
-0.14
-0.17

>  <PUBCHEM_SHAPE_SELFOVERLAP>  (1) 
446.943

>  <PUBCHEM_SHAPE_VOLUME>  (1) 
128.9

>  <PUBCHEM_COORDINATE_TYPE>  (1) 
2
5
10

$$$$
