42598
     RDKit          3D

 25 26  0  0  0  0  0  0  0  0999 V2000
    0.7994    0.1459    0.3925 O   0  0  0  0  0  0  0  0  0  0  0  0
   -1.2999   -0.3688    1.9612 O   0  0  0  0  0  0  0  0  0  0  0  0
   -0.0533   -1.6956   -0.6890 O   0  0  0  0  0  0  0  0  0  0  0  0
    4.4777    0.5131   -0.1185 N   0  0  0  0  0  0  0  0  0  0  0  0
    4.9023   -0.8590    0.3850 C   0  0  0  0  0  0  0  0  0  0  0  0
    3.0950    0.8467    0.4227 C   0  0  0  0  0  0  0  0  0  0  0  0
    4.4389    0.5054   -1.6398 C   0  0  0  0  0  0  0  0  0  0  0  0
    5.4748    1.5593    0.3583 C   0  0  0  0  0  0  0  0  0  0  0  0
    6.2974   -1.1697   -0.1334 C   0  0  0  0  0  0  0  0  0  0  0  0
    2.0996   -0.1804   -0.0800 C   0  0  0  0  0  0  0  0  0  0  0  0
    6.7513   -2.5528    0.3046 C   0  0  0  0  0  0  0  0  0  0  0  0
   -1.5602   -0.2185    0.5507 C   0  0  0  0  0  0  0  0  0  0  0  0
   -0.2117   -0.7039    0.0129 C   0  0  0  0  0  0  0  0  0  0  0  0
   -1.8279    1.2541    0.2311 C   0  0  0  0  0  0  0  0  0  0  0  0
   -2.7468   -1.0914    0.1353 C   0  0  0  0  0  0  0  0  0  0  0  0
   -2.4347    2.0356    1.1871 C   0  0  0  0  0  0  0  0  0  0  0  0
   -3.1231   -1.1045   -1.1880 C   0  0  0  0  0  0  0  0  0  0  0  0
   -1.4509    1.7400   -0.9997 C   0  0  0  0  0  0  0  0  0  0  0  0
   -3.3910   -1.8299    1.1009 C   0  0  0  0  0  0  0  0  0  0  0  0
   -2.6786    3.3778    0.8960 C   0  0  0  0  0  0  0  0  0  0  0  0
   -4.2042   -1.9003   -1.5668 C   0  0  0  0  0  0  0  0  0  0  0  0
   -1.6947    3.0823   -1.2906 C   0  0  0  0  0  0  0  0  0  0  0  0
   -4.4721   -2.6258    0.7221 C   0  0  0  0  0  0  0  0  0  0  0  0
   -2.3085    3.9012   -0.3427 C   0  0  0  0  0  0  0  0  0  0  0  0
   -4.8787   -2.6609   -0.6119 C   0  0  0  0  0  0  0  0  0  0  0  0
  1 10  1  0
  1 13  1  0
  2 12  1  0
  3 13  2  0
  4  5  1  0
  4  6  1  0
  4  7  1  0
  4  8  1  0
  5  9  1  0
  6 10  1  0
  9 11  1  0
 12 13  1  0
 12 14  1  0
 12 15  1  0
 14 16  2  0
 14 18  1  0
 15 17  2  0
 15 19  1  0
 16 20  1  0
 17 21  1  0
 18 22  2  0
 19 23  2  0
 20 24  2  0
 21 25  2  0
 22 24  1  0
 23 25  1  0
M  CHG  1   4   1
M  END
>  <PUBCHEM_COMPOUND_CID>  (1) 
42598

>  <PUBCHEM_CONFORMER_RMSD>  (1) 
1

>  <PUBCHEM_CONFORMER_DIVERSEORDER>  (1) 
1
106
19
90
22
79
34
60
71
53
23
83
64
67
11
28
97
94
81
46
26
38
47
96
72
32
105
30
8
45
65
82
15
42
40
31
56
16
27
73
92
103
36
55
51
44
48
102
43
21
87
93
70
100
78
104
41
17
39
68
29
75
61
59
88
18
89
14
50
54
63
7
9
5
35
33
6
80
57
25
37
13
86
101
69
74
10
2
3
95
52
49
99
4
84
20
76
12
77
85
91
24
98
107
58
66
62

>  <PUBCHEM_MMFF94_PARTIAL_CHARGES>  (1) 
34
1 -0.43
10 0.28
12 0.63
13 0.66
14 -0.14
15 -0.14
16 -0.15
17 -0.15
18 -0.15
19 -0.15
2 -0.68
20 -0.15
21 -0.15
22 -0.15
23 -0.15
24 -0.15
25 -0.15
3 -0.57
4 -1.01
43 0.15
44 0.15
45 0.15
46 0.15
47 0.4
48 0.15
49 0.15
5 0.5
50 0.15
51 0.15
52 0.15
53 0.15
6 0.5
7 0.5
8 0.5

>  <PUBCHEM_EFFECTIVE_ROTOR_COUNT>  (1) 
9

>  <PUBCHEM_PHARMACOPHORE_FEATURES>  (1) 
7
1 11 hydrophobe
1 2 acceptor
1 2 donor
1 3 acceptor
1 4 cation
6 14 16 18 20 22 24 rings
6 15 17 19 21 23 25 rings

>  <PUBCHEM_HEAVY_ATOM_COUNT>  (1) 
25

>  <PUBCHEM_ATOM_DEF_STEREO_COUNT>  (1) 
0

>  <PUBCHEM_ATOM_UDEF_STEREO_COUNT>  (1) 
0

>  <PUBCHEM_BOND_DEF_STEREO_COUNT>  (1) 
0

>  <PUBCHEM_BOND_UDEF_STEREO_COUNT>  (1) 
0

>  <PUBCHEM_ISOTOPIC_ATOM_COUNT>  (1) 
0

>  <PUBCHEM_COMPONENT_COUNT>  (1) 
1

>  <PUBCHEM_CACTVS_TAUTO_COUNT>  (1) 
1

>  <PUBCHEM_CONFORMER_ID>  (1) 
0000A66600000001

>  <PUBCHEM_MMFF94_ENERGY>  (1) 
82.9034

>  <PUBCHEM_FEATURE_SELFOVERLAP>  (1) 
35.521

>  <PUBCHEM_SHAPE_FINGERPRINT>  (1) 
10670039 82 18263098724871983612
11045515 52 18189892192358347573
11101153 10 18264495147325382356
11405975 8 18337955576640037192
11545043 162 18130217173976876930
11809386 21 18336540526243984506
12107183 9 17830449484807380018
12166972 35 17458909352377626598
12403259 226 18342734161010658848
12403260 363 18410293623220071390
12788726 201 18261942012273484875
12916754 54 18409729577865574496
13073987 5 18413668016158718216
13533116 47 18339359768916160642
13583140 156 17488731295184652646
13911987 19 17971203761478016799
14118638 360 18408885157863302092
14347332 77 18411979157133870350
14508225 48 18337101367373751221
14713325 29 18341049614512128097
14840074 17 17986681569529452951
14910302 57 17917168107990900390
14955137 171 18123757719173267419
15439362 3 17550103658887633788
15849732 13 18059865021563994319
17349148 13 17676775344002000654
17844677 252 18411704288296584008
1813 80 18056493956950377535
18393751 57 17550086505232152048
18927931 339 18411707581719290471
21236236 1 18411981342865918600
21424621 283 11386905780541639431
23175994 123 18190176987534714295
23402539 116 18409449228138750819
23557571 272 18411982477138003877
23559900 14 17895751936616914794
283562 15 18408599279769796195
312423 11 18260556636497121492
3610482 184 17824569412580856724
44062 13 18340489950620066856
497634 4 18186801374772400662
508706 21 18337968787643370534
5104073 3 18341890767447301592
5924683 9 18410011022577079956
59755656 520 18191581943866727781
6677587 24 15366646211252197797
70251023 43 18338794640601502065

>  <PUBCHEM_SHAPE_MULTIPOLES>  (1) 
491.9
13.54
4.08
1.35
26.6
2.8
-0.12
-9.66
-0.56
-5.16
-0.18
-0.93
0.07
-0.64

>  <PUBCHEM_SHAPE_SELFOVERLAP>  (1) 
1025.649

>  <PUBCHEM_SHAPE_VOLUME>  (1) 
280.3

>  <PUBCHEM_COORDINATE_TYPE>  (1) 
2
5
10

$$$$
