42608
     RDKit          3D

 22 24  0  0  0  0  0  0  0  0999 V2000
   -0.5460   -2.9358   -0.2348 O   0  0  0  0  0  0  0  0  0  0  0  0
   -2.6721    3.0682   -0.1291 O   0  0  0  0  0  0  0  0  0  0  0  0
   -1.5654    1.8468   -1.6944 O   0  0  0  0  0  0  0  0  0  0  0  0
    3.9586   -1.4174    0.6989 N   0  0  0  0  0  0  0  0  0  0  0  0
   -1.0238   -0.6750   -0.6496 N   0  0  0  0  0  0  0  0  0  0  0  0
    2.1750   -1.2514   -0.6119 C   0  0  0  0  0  0  0  0  0  0  0  0
    2.5647    0.0607   -0.2227 C   0  0  0  0  0  0  0  0  0  0  0  0
    3.6860   -0.0717    0.5992 C   0  0  0  0  0  0  0  0  0  0  0  0
    1.0369   -1.6093   -1.4828 C   0  0  0  0  0  0  0  0  0  0  0  0
    3.0509   -2.1384   -0.0296 C   0  0  0  0  0  0  0  0  0  0  0  0
    2.0696    1.3522   -0.4916 C   0  0  0  0  0  0  0  0  0  0  0  0
    4.3396    1.0273    1.1678 C   0  0  0  0  0  0  0  0  0  0  0  0
   -0.2648   -1.8414   -0.7128 C   0  0  0  0  0  0  0  0  0  0  0  0
    2.7133    2.4608    0.0704 C   0  0  0  0  0  0  0  0  0  0  0  0
    3.8306    2.2985    0.8871 C   0  0  0  0  0  0  0  0  0  0  0  0
   -2.2812   -0.4961   -0.0254 C   0  0  0  0  0  0  0  0  0  0  0  0
   -2.9079    0.7399   -0.0522 C   0  0  0  0  0  0  0  0  0  0  0  0
   -2.8621   -1.5832    0.6097 C   0  0  0  0  0  0  0  0  0  0  0  0
   -4.1462    0.8930    0.5711 C   0  0  0  0  0  0  0  0  0  0  0  0
   -4.1006   -1.4301    1.2330 C   0  0  0  0  0  0  0  0  0  0  0  0
   -4.7426   -0.1920    1.2138 C   0  0  0  0  0  0  0  0  0  0  0  0
   -2.3124    1.8942   -0.7141 C   0  0  0  0  0  0  0  0  0  0  0  0
  1 13  2  0
  2 22  1  0
  3 22  2  0
  4  8  1  0
  4 10  1  0
  5 13  1  0
  5 16  1  0
  6  7  1  0
  6  9  1  0
  6 10  2  0
  7  8  2  0
  7 11  1  0
  8 12  1  0
  9 13  1  0
 11 14  2  0
 12 15  2  0
 14 15  1  0
 16 17  2  0
 16 18  1  0
 17 19  1  0
 17 22  1  0
 18 20  2  0
 19 21  2  0
 20 21  1  0
M  END
>  <PUBCHEM_COMPOUND_CID>  (1) 
42608

>  <PUBCHEM_CONFORMER_RMSD>  (1) 
0.8

>  <PUBCHEM_CONFORMER_DIVERSEORDER>  (1) 
2
3
13
45
20
42
49
46
22
16
48
1
41
19
29
40
12
21
6
43
11
24
17
44
8
37
18
23
26
9
32
36
47
51
27
31
4
7
50
34
35
5
28
14
39
25
10
33
38
30
15

>  <PUBCHEM_MMFF94_PARTIAL_CHARGES>  (1) 
33
1 -0.57
10 -0.3
11 -0.15
12 -0.15
13 0.57
14 -0.15
15 -0.15
16 0.12
17 0.09
18 -0.15
19 -0.15
2 -0.65
20 -0.15
21 -0.15
22 0.63
25 0.15
26 0.27
27 0.15
28 0.15
29 0.15
3 -0.57
30 0.37
31 0.15
32 0.15
33 0.15
34 0.15
35 0.15
36 0.5
4 0.03
5 -0.55
6 -0.18
8 -0.15
9 0.24

>  <PUBCHEM_EFFECTIVE_ROTOR_COUNT>  (1) 
5

>  <PUBCHEM_PHARMACOPHORE_FEATURES>  (1) 
10
1 1 acceptor
1 2 acceptor
1 3 acceptor
1 4 cation
1 4 donor
1 5 donor
3 2 3 22 anion
5 4 6 7 8 10 rings
6 16 17 18 19 20 21 rings
6 7 8 11 12 14 15 rings

>  <PUBCHEM_HEAVY_ATOM_COUNT>  (1) 
22

>  <PUBCHEM_ATOM_DEF_STEREO_COUNT>  (1) 
0

>  <PUBCHEM_ATOM_UDEF_STEREO_COUNT>  (1) 
0

>  <PUBCHEM_BOND_DEF_STEREO_COUNT>  (1) 
0

>  <PUBCHEM_BOND_UDEF_STEREO_COUNT>  (1) 
0

>  <PUBCHEM_ISOTOPIC_ATOM_COUNT>  (1) 
0

>  <PUBCHEM_COMPONENT_COUNT>  (1) 
1

>  <PUBCHEM_CACTVS_TAUTO_COUNT>  (1) 
3

>  <PUBCHEM_CONFORMER_ID>  (1) 
0000A67000000002

>  <PUBCHEM_MMFF94_ENERGY>  (1) 
58.9705

>  <PUBCHEM_FEATURE_SELFOVERLAP>  (1) 
50.895

>  <PUBCHEM_SHAPE_FINGERPRINT>  (1) 
10366900 7 18113631087530889610
10871710 139 17476080601773266260
1100329 8 15888555617080979268
11370993 70 18341043038827806473
12363563 72 12468626227589475594
12403259 226 18191592956073080519
12403814 3 18340201990248176411
12596602 18 16733266841185383160
12633257 1 18338527322143051433
12892183 10 18186796976689349138
12925494 130 18125444112344387393
13140716 1 18338517413432199948
13583140 156 17969202478606241454
14026960 21 18412267254707266031
14223421 5 18408324384371629518
14341114 176 18333737900915931074
14466204 15 18121494657686319938
15342168 16 17775012297159981543
15806764 133 17913793642264747063
1813 80 16950852500336597805
20681677 76 18336820910034894031
20715895 44 18126850400410784329
21033648 29 17916002595896144234
21065199 12 18408323276301689802
21792934 111 18261402109953213977
22749437 52 18271523104757740544
23559900 14 18189070710922250799
2838139 119 14547589527250292346
312425 83 12823304532604348954
3187 122 17967814951141363141
350125 39 18410302397506064628
474 4 18131635564708005219
49207404 50 18411709793711538419
5081480 168 17058114124449414284
5104073 3 18338248102377599627
5283173 99 18113887236055659893
7097593 13 18188198828324392874
7808743 9 17982733275357347112
960060 61 8142085325632220611

>  <PUBCHEM_SHAPE_MULTIPOLES>  (1) 
425.18
9.5
3.17
1.22
1.56
0.61
0.09
1.99
-4.52
-0.64
0.42
0.22
0.04
1.24

>  <PUBCHEM_SHAPE_SELFOVERLAP>  (1) 
937.571

>  <PUBCHEM_SHAPE_VOLUME>  (1) 
228.1

>  <PUBCHEM_COORDINATE_TYPE>  (1) 
2
5
10

$$$$
