4260
     RDKit          3D

 20 20  0  0  0  0  0  0  0  0999 V2000
    1.7437   -0.3844    0.7567 O   0  0  0  0  0  0  0  0  0  0  0  0
   -3.4242    0.6438   -0.8709 O   0  0  0  0  0  0  0  0  0  0  0  0
   -4.1283    0.3788    1.3458 O   0  0  0  0  0  0  0  0  0  0  0  0
    5.1249    0.9429    0.1310 N   0  0  0  0  0  0  0  0  0  0  0  0
    0.1209   -2.5937   -0.0481 C   0  0  0  0  0  0  0  0  0  0  0  0
   -0.3676   -1.1827   -0.0508 C   0  0  0  0  0  0  0  0  0  0  0  0
    0.4822   -0.1424    0.3578 C   0  0  0  0  0  0  0  0  0  0  0  0
   -1.6734   -0.9138   -0.4613 C   0  0  0  0  0  0  0  0  0  0  0  0
    0.1257   -3.2159   -1.4565 C   0  0  0  0  0  0  0  0  0  0  0  0
   -0.6767   -3.4893    0.9177 C   0  0  0  0  0  0  0  0  0  0  0  0
   -1.3127    1.4420   -0.0651 C   0  0  0  0  0  0  0  0  0  0  0  0
   -0.0070    1.1731    0.3453 C   0  0  0  0  0  0  0  0  0  0  0  0
   -2.1459    0.3985   -0.4684 C   0  0  0  0  0  0  0  0  0  0  0  0
    2.7280    0.6189    0.5434 C   0  0  0  0  0  0  0  0  0  0  0  0
    4.0809   -0.0528    0.3710 C   0  0  0  0  0  0  0  0  0  0  0  0
   -1.8018    2.8528   -0.0664 C   0  0  0  0  0  0  0  0  0  0  0  0
    4.8114    1.7359   -1.0570 C   0  0  0  0  0  0  0  0  0  0  0  0
    6.4267    0.2933   -0.0169 C   0  0  0  0  0  0  0  0  0  0  0  0
   -4.3684    0.6069    0.1676 C   0  0  0  0  0  0  0  0  0  0  0  0
   -5.7383    0.8879   -0.3750 C   0  0  0  0  0  0  0  0  0  0  0  0
  1  7  1  0
  1 14  1  0
  2 13  1  0
  2 19  1  0
  3 19  2  0
  4 15  1  0
  4 17  1  0
  4 18  1  0
  5  6  1  0
  5  9  1  0
  5 10  1  0
  6  7  2  0
  6  8  1  0
  7 12  1  0
  8 13  2  0
 11 12  2  0
 11 13  1  0
 11 16  1  0
 14 15  1  0
 19 20  1  0
M  END
>  <PUBCHEM_COMPOUND_CID>  (1) 
4260

>  <PUBCHEM_CONFORMER_RMSD>  (1) 
0.8

>  <PUBCHEM_CONFORMER_DIVERSEORDER>  (1) 
1
74
93
72
82
4
92
46
94
97
61
51
89
81
65
98
78
76
64
77
54
100
88
29
86
70
21
49
31
52
11
19
44
55
79
91
47
101
66
102
32
95
62
90
87
73
71
12
57
23
39
27
84
50
80
34
25
68
85
99
48
6
40
45
37
13
42
10
59
60
33
41
7
96
38
58
28
53
22
56
63
15
20
5
24
14
26
2
3
16
8
30
18
17
83
36
69
43
35
9
67
75

>  <PUBCHEM_MMFF94_PARTIAL_CHARGES>  (1) 
20
1 -0.36
11 -0.14
12 -0.15
13 0.08
14 0.28
15 0.27
16 0.14
17 0.27
18 0.27
19 0.66
2 -0.23
20 0.06
22 0.15
29 0.15
3 -0.57
4 -0.81
5 0.14
6 -0.14
7 0.08
8 -0.15

>  <PUBCHEM_EFFECTIVE_ROTOR_COUNT>  (1) 
7

>  <PUBCHEM_PHARMACOPHORE_FEATURES>  (1) 
5
1 1 acceptor
1 3 acceptor
1 4 cation
3 5 9 10 hydrophobe
6 6 7 8 11 12 13 rings

>  <PUBCHEM_HEAVY_ATOM_COUNT>  (1) 
20

>  <PUBCHEM_ATOM_DEF_STEREO_COUNT>  (1) 
0

>  <PUBCHEM_ATOM_UDEF_STEREO_COUNT>  (1) 
0

>  <PUBCHEM_BOND_DEF_STEREO_COUNT>  (1) 
0

>  <PUBCHEM_BOND_UDEF_STEREO_COUNT>  (1) 
0

>  <PUBCHEM_ISOTOPIC_ATOM_COUNT>  (1) 
0

>  <PUBCHEM_COMPONENT_COUNT>  (1) 
1

>  <PUBCHEM_CACTVS_TAUTO_COUNT>  (1) 
1

>  <PUBCHEM_CONFORMER_ID>  (1) 
000010A400000001

>  <PUBCHEM_MMFF94_ENERGY>  (1) 
63.0685

>  <PUBCHEM_FEATURE_SELFOVERLAP>  (1) 
25.371

>  <PUBCHEM_SHAPE_FINGERPRINT>  (1) 
107951 10 18333455361268249178
10906281 52 18189067425657481761
12173636 292 18411408510704543388
12236239 1 17894910737465840692
12592029 89 18336542699318107946
12788726 201 17988647350723869976
12969540 114 18263626476877154909
13140716 1 18339637962337098377
14790565 3 18411705365690765089
15042514 8 18264210377486029410
16945 1 18270100328627463021
17980427 23 13407080249947270951
19784866 170 18337112272464345273
200 152 10879997947466690968
204376 136 18408322181296246643
20602899 9 17775570853346366178
20645476 183 18113609119031373426
20645477 56 18410570713072375272
20871999 31 18267860769265129110
21236236 1 18339923835186655811
21524375 3 18340762659225907994
22224240 67 18411421726598182955
23227448 37 18189900996988667356
23366157 5 17829612764283906298
23402539 116 18342450473914534412
23557571 272 18196945581020124174
23559900 14 17686609148678805099
283562 15 18340767040319741257
293599 30 18411134740418951192
3759504 43 18260264178645748954
458136 41 18272093729923156379
474229 33 18410012134983990283
5486654 2 18410011044157365997
559249 180 18410568510049804858
57003041 33 18408598137445820733
81228 2 17835493283329375427
81539 233 18337102355094753919

>  <PUBCHEM_SHAPE_MULTIPOLES>  (1) 
389
10.99
3.19
1
9.75
3.05
0.09
-7.29
0.56
-0.78
0.38
-0.09
0.36
-0.2

>  <PUBCHEM_SHAPE_SELFOVERLAP>  (1) 
784.577

>  <PUBCHEM_SHAPE_VOLUME>  (1) 
230.1

>  <PUBCHEM_COORDINATE_TYPE>  (1) 
2
5
10

$$$$
