42606
     RDKit          3D

 21 23  0  0  0  0  0  0  0  0999 V2000
   -0.0749    1.3457    0.1710 O   0  0  0  0  0  0  0  0  0  0  0  0
   -4.0339   -1.6203   -1.0304 O   0  0  0  0  0  0  0  0  0  0  0  0
    3.9207    1.2263   -1.3806 N   0  0  0  0  0  0  0  0  0  0  0  0
   -1.6263   -0.2430   -0.5911 N   0  0  0  0  0  0  0  0  0  0  0  0
    2.0580    0.0615   -1.0631 C   0  0  0  0  0  0  0  0  0  0  0  0
    2.9942   -0.3142   -0.0595 C   0  0  0  0  0  0  0  0  0  0  0  0
    4.1541    0.4311   -0.2813 C   0  0  0  0  0  0  0  0  0  0  0  0
    0.6880   -0.4649   -1.2300 C   0  0  0  0  0  0  0  0  0  0  0  0
    2.6566    1.0101   -1.8599 C   0  0  0  0  0  0  0  0  0  0  0  0
    2.9660   -1.2197    1.0197 C   0  0  0  0  0  0  0  0  0  0  0  0
    5.2919    0.3157    0.5252 C   0  0  0  0  0  0  0  0  0  0  0  0
   -0.3654    0.3343   -0.4599 C   0  0  0  0  0  0  0  0  0  0  0  0
    4.0966   -1.3458    1.8350 C   0  0  0  0  0  0  0  0  0  0  0  0
    5.2406   -0.5889    1.5897 C   0  0  0  0  0  0  0  0  0  0  0  0
   -2.8441    0.2058   -0.0270 C   0  0  0  0  0  0  0  0  0  0  0  0
   -4.0164   -0.4947   -0.2616 C   0  0  0  0  0  0  0  0  0  0  0  0
   -2.8329    1.3496    0.7558 C   0  0  0  0  0  0  0  0  0  0  0  0
   -5.2088   -0.0398    0.3014 C   0  0  0  0  0  0  0  0  0  0  0  0
   -4.0254    1.8044    1.3186 C   0  0  0  0  0  0  0  0  0  0  0  0
   -5.2134    1.1098    1.0913 C   0  0  0  0  0  0  0  0  0  0  0  0
   -3.8255   -2.8631   -0.3633 C   0  0  0  0  0  0  0  0  0  0  0  0
  1 12  2  0
  2 16  1  0
  2 21  1  0
  3  7  1  0
  3  9  1  0
  4 12  1  0
  4 15  1  0
  5  6  1  0
  5  8  1  0
  5  9  2  0
  6  7  2  0
  6 10  1  0
  7 11  1  0
  8 12  1  0
 10 13  2  0
 11 14  2  0
 13 14  1  0
 15 16  2  0
 15 17  1  0
 16 18  1  0
 17 19  2  0
 18 20  2  0
 19 20  1  0
M  END
>  <PUBCHEM_COMPOUND_CID>  (1) 
42606

>  <PUBCHEM_CONFORMER_RMSD>  (1) 
0.8

>  <PUBCHEM_CONFORMER_DIVERSEORDER>  (1) 
1
57
70
26
51
2
68
40
62
44
63
37
28
20
13
49
75
56
42
80
66
41
53
54
55
61
74
71
33
21
23
14
22
77
65
17
79
29
15
25
73
69
52
58
18
59
32
38
46
9
3
76
30
64
4
67
78
16
47
27
31
6
19
24
72
48
36
10
7
60
11
35
39
50
34
8
5
43
45
12

>  <PUBCHEM_MMFF94_PARTIAL_CHARGES>  (1) 
31
1 -0.57
10 -0.15
11 -0.15
12 0.57
13 -0.15
14 -0.15
15 0.12
16 0.08
17 -0.15
18 -0.15
19 -0.15
2 -0.36
20 -0.15
21 0.28
24 0.15
25 0.27
26 0.15
27 0.15
28 0.15
29 0.15
3 0.03
30 0.37
31 0.15
32 0.15
33 0.15
34 0.15
4 -0.55
5 -0.18
7 -0.15
8 0.24
9 -0.3

>  <PUBCHEM_EFFECTIVE_ROTOR_COUNT>  (1) 
5

>  <PUBCHEM_PHARMACOPHORE_FEATURES>  (1) 
8
1 1 acceptor
1 2 acceptor
1 3 cation
1 3 donor
1 4 donor
5 3 5 6 7 9 rings
6 15 16 17 18 19 20 rings
6 6 7 10 11 13 14 rings

>  <PUBCHEM_HEAVY_ATOM_COUNT>  (1) 
21

>  <PUBCHEM_ATOM_DEF_STEREO_COUNT>  (1) 
0

>  <PUBCHEM_ATOM_UDEF_STEREO_COUNT>  (1) 
0

>  <PUBCHEM_BOND_DEF_STEREO_COUNT>  (1) 
0

>  <PUBCHEM_BOND_UDEF_STEREO_COUNT>  (1) 
0

>  <PUBCHEM_ISOTOPIC_ATOM_COUNT>  (1) 
0

>  <PUBCHEM_COMPONENT_COUNT>  (1) 
1

>  <PUBCHEM_CACTVS_TAUTO_COUNT>  (1) 
2

>  <PUBCHEM_CONFORMER_ID>  (1) 
0000A66E00000001

>  <PUBCHEM_MMFF94_ENERGY>  (1) 
61.5444

>  <PUBCHEM_FEATURE_SELFOVERLAP>  (1) 
40.688

>  <PUBCHEM_SHAPE_FINGERPRINT>  (1) 
10319926 262 17846495877498670814
10912923 1 18334861653122919381
11370993 144 15123249727176655639
11545043 162 17346328085114807438
11595378 159 18342175510029454496
12107183 9 17759518867937573985
12236239 1 18334296465486170917
12403259 415 16415487055487373492
12523318 42 18059285565339351499
12596602 18 18341326777800590480
12616971 3 18040719168747017237
12633257 1 18408042909410756093
12730499 353 14979956978103724316
12788726 201 18050012395623795063
12839892 36 18341609313128373071
12969540 114 15410605939807482813
13034934 17 16487255508258951047
13167823 11 18187366536396861751
13533116 47 17530971275753241849
13544653 18 16950281784686426052
13583140 156 18198600208011573084
13631057 29 17682410486986486611
13914758 101 17531522089115547869
14341114 328 18410294709472296280
14848178 96 13038318429668561586
14849402 71 18263081180052417584
15081414 286 14692571061458135114
15250474 111 18334571395149753875
15788980 27 17313101947408536365
17349148 13 17967252000718007802
17844677 252 14261365630094675449
17857418 61 18260259767898666339
1813 80 17531820051453434199
19050596 39 18408325492562830221
19377110 9 18335145344387131305
19489759 90 17917709093913981819
200 152 17458340831909631116
20511986 3 18261659433331611281
20554085 129 17845363359505752259
20645477 56 15913323606686885213
20645477 70 16226048903240769560
21033648 29 16200146577937745459
21065201 7 17988937647019658638
21424621 283 16844185441942867145
21623969 137 16443070495451543792
21728266 224 18340197583596146951
22061861 79 15864067671953653851
2215653 11 14851602185363153051
22289505 5 14404906847737119672
23175994 123 15574719105867785573
23366157 5 18048599510666329533
23503953 91 18410857637792696933
23557571 272 17560816398082325901
23559900 14 17702401579758238396
239999 70 14634876362139122452
268830 7 18334579065913592781
314194 84 17240475884790660250
341906 21 17989209222102227768
345986 75 17822839871958214096
439807 62 17823976956408781651
5104073 3 18271529818192304473
5281201 14 13912332286591311750
573450 72 18411699889717309935
5758199 1 18113903819024947260
602551 16 17988921227581803550
67856867 119 18336546143718498044
7064713 232 18412537700213664042
90127 26 15554459465558758609
960060 61 9799687099999975600

>  <PUBCHEM_SHAPE_MULTIPOLES>  (1) 
410.47
13.73
1.83
1.6
1.48
0.93
0.08
0.66
4.64
1.96
0.05
-1.31
-0.08
-2.87

>  <PUBCHEM_SHAPE_SELFOVERLAP>  (1) 
897.318

>  <PUBCHEM_SHAPE_VOLUME>  (1) 
223.2

>  <PUBCHEM_COORDINATE_TYPE>  (1) 
2
5
10

$$$$
