42609
     RDKit          3D

  8  7  0  0  0  0  0  0  0  0999 V2000
   -0.8062    0.5312   -0.2328 O   0  0  0  0  0  0  0  0  0  0  0  0
    0.0037   -1.6170   -0.0569 O   0  0  0  0  0  0  0  0  0  0  0  0
    1.4610    0.1891    0.0352 N   0  0  0  0  0  0  0  0  0  0  0  0
    2.6730   -0.6058    0.2091 C   0  0  0  0  0  0  0  0  0  0  0  0
    1.6454    1.6330   -0.0047 C   0  0  0  0  0  0  0  0  0  0  0  0
    0.1965   -0.4018   -0.0860 C   0  0  0  0  0  0  0  0  0  0  0  0
   -2.0816    0.0081   -0.3489 C   0  0  0  0  0  0  0  0  0  0  0  0
   -3.0920    0.2632    0.4850 C   0  0  0  0  0  0  0  0  0  0  0  0
  1  6  1  0
  1  7  1  0
  2  6  2  0
  3  4  1  0
  3  5  1  0
  3  6  1  0
  7  8  2  0
M  END
>  <PUBCHEM_COMPOUND_CID>  (1) 
42609

>  <PUBCHEM_CONFORMER_RMSD>  (1) 
0.6

>  <PUBCHEM_CONFORMER_DIVERSEORDER>  (1) 
1
3
2

>  <PUBCHEM_MMFF94_PARTIAL_CHARGES>  (1) 
11
1 -0.23
15 0.15
16 0.15
17 0.15
2 -0.57
3 -0.66
4 0.3
5 0.3
6 0.78
7 -0.07
8 -0.3

>  <PUBCHEM_EFFECTIVE_ROTOR_COUNT>  (1) 
3

>  <PUBCHEM_PHARMACOPHORE_FEATURES>  (1) 
1
1 2 acceptor

>  <PUBCHEM_HEAVY_ATOM_COUNT>  (1) 
8

>  <PUBCHEM_ATOM_DEF_STEREO_COUNT>  (1) 
0

>  <PUBCHEM_ATOM_UDEF_STEREO_COUNT>  (1) 
0

>  <PUBCHEM_BOND_DEF_STEREO_COUNT>  (1) 
0

>  <PUBCHEM_BOND_UDEF_STEREO_COUNT>  (1) 
0

>  <PUBCHEM_ISOTOPIC_ATOM_COUNT>  (1) 
0

>  <PUBCHEM_COMPONENT_COUNT>  (1) 
1

>  <PUBCHEM_CACTVS_TAUTO_COUNT>  (1) 
1

>  <PUBCHEM_CONFORMER_ID>  (1) 
0000A67100000001

>  <PUBCHEM_MMFF94_ENERGY>  (1) 
18.778

>  <PUBCHEM_FEATURE_SELFOVERLAP>  (1) 
5.074

>  <PUBCHEM_SHAPE_FINGERPRINT>  (1) 
10857977 72 17240767328170017769
12932764 1 17530956986639452563
14325111 11 18411136969702052621
14390081 3 17988923396677152161
20096714 4 18338794619242755140
21040471 1 18267302212836229220
29004967 10 18262241019163947683
5084963 1 18272644653888735137
5460574 1 9367342643451827703

>  <PUBCHEM_SHAPE_MULTIPOLES>  (1) 
147.92
4.18
1.33
0.64
1.65
0.11
-0.02
0.33
-0.59
-0.71
0.01
0.13
0.02
-0.09

>  <PUBCHEM_SHAPE_SELFOVERLAP>  (1) 
271.877

>  <PUBCHEM_SHAPE_VOLUME>  (1) 
94.8

>  <PUBCHEM_COORDINATE_TYPE>  (1) 
2
5
10

$$$$
