42614
     RDKit          3D

 14 13  0  0  0  0  0  0  0  0999 V2000
    2.6282   -1.0964   -0.3128 O   0  0  0  0  0  0  0  0  0  0  0  0
   -0.0936   -1.9409   -0.5551 O   0  0  0  0  0  0  0  0  0  0  0  0
   -3.3544    1.1296   -0.0303 O   0  0  0  0  0  0  0  0  0  0  0  0
    2.8005    1.1269    0.3357 N   0  0  0  0  0  0  0  0  0  0  0  0
    0.7172    0.1825    0.0632 N   0  0  0  0  0  0  0  0  0  0  0  0
   -1.9801    0.9647   -0.2542 N   0  0  0  0  0  0  0  0  0  0  0  0
   -3.6346   -1.7546    0.6430 N   0  0  0  0  0  0  0  0  0  0  0  0
    4.2430    1.1928    0.3528 C   0  0  0  0  0  0  0  0  0  0  0  0
    4.8582   -0.1404   -0.0373 C   0  0  0  0  0  0  0  0  0  0  0  0
    2.1005   -0.0299   -0.0009 C   0  0  0  0  0  0  0  0  0  0  0  0
   -0.2381   -0.7778   -0.2155 C   0  0  0  0  0  0  0  0  0  0  0  0
   -1.6278   -0.2627   -0.0567 C   0  0  0  0  0  0  0  0  0  0  0  0
   -2.7398   -1.0854    0.3301 C   0  0  0  0  0  0  0  0  0  0  0  0
   -3.6790    2.4918   -0.2620 C   0  0  0  0  0  0  0  0  0  0  0  0
  1 10  2  0
  2 11  2  0
  3  6  1  0
  3 14  1  0
  4  8  1  0
  4 10  1  0
  5 10  1  0
  5 11  1  0
  6 12  2  0
  7 13  3  0
  8  9  1  0
 11 12  1  0
 12 13  1  0
M  END
>  <PUBCHEM_COMPOUND_CID>  (1) 
42614

>  <PUBCHEM_CONFORMER_RMSD>  (1) 
0.6

>  <PUBCHEM_CONFORMER_DIVERSEORDER>  (1) 
1
13
14
8
12
5
11
4
2
6
9
7
10
3

>  <PUBCHEM_MMFF94_PARTIAL_CHARGES>  (1) 
15
1 -0.57
10 0.69
11 0.63
12 0.56
13 0.45
14 0.28
17 0.37
2 -0.57
21 0.37
3 -0.22
4 -0.73
5 -0.49
6 -0.51
7 -0.56
8 0.3

>  <PUBCHEM_EFFECTIVE_ROTOR_COUNT>  (1) 
6

>  <PUBCHEM_PHARMACOPHORE_FEATURES>  (1) 
6
1 1 acceptor
1 2 acceptor
1 4 donor
1 5 donor
1 6 acceptor
1 7 acceptor

>  <PUBCHEM_HEAVY_ATOM_COUNT>  (1) 
14

>  <PUBCHEM_ATOM_DEF_STEREO_COUNT>  (1) 
0

>  <PUBCHEM_ATOM_UDEF_STEREO_COUNT>  (1) 
0

>  <PUBCHEM_BOND_DEF_STEREO_COUNT>  (1) 
0

>  <PUBCHEM_BOND_UDEF_STEREO_COUNT>  (1) 
1

>  <PUBCHEM_ISOTOPIC_ATOM_COUNT>  (1) 
0

>  <PUBCHEM_COMPONENT_COUNT>  (1) 
1

>  <PUBCHEM_CACTVS_TAUTO_COUNT>  (1) 
5

>  <PUBCHEM_CONFORMER_ID>  (1) 
0000A67600000001

>  <PUBCHEM_MMFF94_ENERGY>  (1) 
32.6

>  <PUBCHEM_FEATURE_SELFOVERLAP>  (1) 
30.501

>  <PUBCHEM_SHAPE_FINGERPRINT>  (1) 
10608611 8 18412262817932241589
122479 349 18339078186132503933
12507560 40 18411421704537978406
12932764 1 17560793376988703146
13214271 11 18411416219869931981
14325111 11 18411699885169161022
15219456 202 18342745087075013943
15501527 16 18413110563130796752
18186145 218 18060150816407061378
1986462 14 18334295379149543534
20510252 161 18341617035795445827
20645477 56 18335424517678303869
20645477 70 17489028137222163206
23402539 116 18263358243764918719
23402655 69 17988921146198769460
23500284 214 18338802208819557273
23557571 272 18340497719667415885
23559900 14 18271244894699914798
5104073 3 18409444787327028040
6430166 295 18411695461780276464
77779 3 18408605868412956928

>  <PUBCHEM_SHAPE_MULTIPOLES>  (1) 
250.58
8.95
2.05
0.66
5.63
0.53
0.01
2.9
0.79
-2.41
-0.07
-0.05
-0.06
0.79

>  <PUBCHEM_SHAPE_SELFOVERLAP>  (1) 
488.917

>  <PUBCHEM_SHAPE_VOLUME>  (1) 
147.5

>  <PUBCHEM_COORDINATE_TYPE>  (1) 
2
5
10

$$$$
