42625
     RDKit          3D

 14 13  0  0  0  0  0  0  0  0999 V2000
   -4.4934   -2.6016    0.0267 Cl  0  0  0  0  0  0  0  0  0  0  0  0
   -2.2871    3.9410   -0.3961 Cl  0  0  0  0  0  0  0  0  0  0  0  0
    3.1058    0.0015    0.3938 O   0  0  0  0  0  0  0  0  0  0  0  0
    2.2146   -1.2756   -1.2959 O   0  0  0  0  0  0  0  0  0  0  0  0
   -1.4770    0.0555    0.3084 N   0  0  0  0  0  0  0  0  0  0  0  0
    0.8843   -0.3244    0.3461 N   0  0  0  0  0  0  0  0  0  0  0  0
   -2.7699   -0.5101   -0.0834 C   0  0  0  0  0  0  0  0  0  0  0  0
   -1.3386    1.4040   -0.2497 C   0  0  0  0  0  0  0  0  0  0  0  0
   -0.3910   -0.8223   -0.1350 C   0  0  0  0  0  0  0  0  0  0  0  0
   -2.9325   -1.8991    0.5141 C   0  0  0  0  0  0  0  0  0  0  0  0
   -2.4364    2.3063    0.2920 C   0  0  0  0  0  0  0  0  0  0  0  0
    2.0811   -0.5970   -0.2827 C   0  0  0  0  0  0  0  0  0  0  0  0
    4.4146   -0.2014   -0.1506 C   0  0  0  0  0  0  0  0  0  0  0  0
    5.4254    0.5233    0.7123 C   0  0  0  0  0  0  0  0  0  0  0  0
  1 10  1  0
  2 11  1  0
  3 12  1  0
  3 13  1  0
  4 12  2  0
  5  7  1  0
  5  8  1  0
  5  9  1  0
  6  9  1  0
  6 12  1  0
  7 10  1  0
  8 11  1  0
 13 14  1  0
M  END
>  <PUBCHEM_COMPOUND_CID>  (1) 
42625

>  <PUBCHEM_CONFORMER_RMSD>  (1) 
0.8

>  <PUBCHEM_CONFORMER_DIVERSEORDER>  (1) 
1
99
134
22
53
122
128
97
74
112
113
107
48
69
2
91
156
158
63
129
132
168
141
120
23
88
89
20
45
109
25
126
9
138
26
90
105
150
27
153
157
33
101
47
165
149
103
102
166
169
79
104
55
139
28
66
68
62
116
57
8
110
13
71
142
78
123
127
58
118
81
159
154
164
16
124
125
24
95
85
82
73
83
100
72
11
119
160
130
131
167
35
135
19
39
106
52
155
115
42
98
14
67
70
86
133
152
60
56
59
140
87
147
80
114
32
144
37
43
17
148
61
54
145
143
40
121
29
161
7
111
94
4
108
30
51
146
137
44
50
3
34
12
18
136
77
49
36
15
64
10
6
38
117
76
5
162
41
93
21
65
31
96
46
84
163
151
92
75

>  <PUBCHEM_MMFF94_PARTIAL_CHARGES>  (1) 
14
1 -0.29
10 0.29
11 0.29
12 0.78
13 0.28
2 -0.29
25 0.37
3 -0.43
4 -0.57
5 -0.81
6 -0.73
7 0.27
8 0.27
9 0.57

>  <PUBCHEM_EFFECTIVE_ROTOR_COUNT>  (1) 
9

>  <PUBCHEM_PHARMACOPHORE_FEATURES>  (1) 
3
1 4 acceptor
1 5 cation
1 6 donor

>  <PUBCHEM_HEAVY_ATOM_COUNT>  (1) 
14

>  <PUBCHEM_ATOM_DEF_STEREO_COUNT>  (1) 
0

>  <PUBCHEM_ATOM_UDEF_STEREO_COUNT>  (1) 
0

>  <PUBCHEM_BOND_DEF_STEREO_COUNT>  (1) 
0

>  <PUBCHEM_BOND_UDEF_STEREO_COUNT>  (1) 
0

>  <PUBCHEM_ISOTOPIC_ATOM_COUNT>  (1) 
0

>  <PUBCHEM_COMPONENT_COUNT>  (1) 
1

>  <PUBCHEM_CACTVS_TAUTO_COUNT>  (1) 
2

>  <PUBCHEM_CONFORMER_ID>  (1) 
0000A68100000001

>  <PUBCHEM_MMFF94_ENERGY>  (1) 
15.9408

>  <PUBCHEM_FEATURE_SELFOVERLAP>  (1) 
15.223

>  <PUBCHEM_SHAPE_FINGERPRINT>  (1) 
12841375 25 18266741462502376747
14123255 52 17976257937263445885
14178342 30 18260833639990994110
1741750 31 18195245503461603945
200 152 17749665293917072075
20645477 56 18267875973138178865
20671657 1 17686340863119418707
20693207 138 17772781327837865350
21339142 36 18336255847432381751
21426921 1 18409729538794137369
21524375 3 17538570903067604201
22182937 141 18271529671710320177
22943178 12 18058736793025144398
23380061 127 18335417967626155282
23402539 116 18335695082931830014
23557571 272 18270972258275146196
23558518 356 18188498956101314435
23559900 14 17912644601897559094
314173 85 18340218487318105555
5104073 3 18271523105448688274
573450 72 18187916241119405762
633830 44 14333123118252400802
68521 5 18409449198231936437
81228 2 18335152968502545467

>  <PUBCHEM_SHAPE_MULTIPOLES>  (1) 
270.15
9.55
3.5
0.8
11.9
4.08
-0.09
-3.38
1.33
-6.66
-0.32
0.33
-0.09
0.68

>  <PUBCHEM_SHAPE_SELFOVERLAP>  (1) 
484.27

>  <PUBCHEM_SHAPE_VOLUME>  (1) 
176.7

>  <PUBCHEM_COORDINATE_TYPE>  (1) 
2
5
10

$$$$
