42622
     RDKit          3D

 16 16  0  0  0  0  0  0  0  0999 V2000
   -3.1479    1.1675   -1.1179 O   0  0  0  0  0  0  0  0  0  0  0  0
   -4.1615   -0.7274    0.6440 O   0  0  0  0  0  0  0  0  0  0  0  0
    4.3211    0.8688   -0.3499 O   0  0  0  0  0  0  0  0  0  0  0  0
    3.8922   -1.1997   -0.9731 O   0  0  0  0  0  0  0  0  0  0  0  0
    3.5775   -0.1151   -0.4647 N   0  0  0  0  0  0  0  0  0  0  0  0
    2.0169    1.6262    2.0163 N   0  0  0  0  0  0  0  0  0  0  0  0
   -0.1160   -0.6998   -0.2904 C   0  0  0  0  0  0  0  0  0  0  0  0
   -2.3266    0.2393   -0.5526 C   0  0  0  0  0  0  0  0  0  0  0  0
   -0.9670    0.2448   -0.8641 C   0  0  0  0  0  0  0  0  0  0  0  0
   -0.6247   -1.6500    0.5951 C   0  0  0  0  0  0  0  0  0  0  0  0
   -2.8354   -0.7109    0.3329 C   0  0  0  0  0  0  0  0  0  0  0  0
   -1.9844   -1.6554    0.9068 C   0  0  0  0  0  0  0  0  0  0  0  0
    1.3015   -0.6943   -0.6155 C   0  0  0  0  0  0  0  0  0  0  0  0
    2.2491    0.0117    0.0286 C   0  0  0  0  0  0  0  0  0  0  0  0
   -3.3177    2.3967   -0.4149 C   0  0  0  0  0  0  0  0  0  0  0  0
    2.1229    0.8974    1.1194 C   0  0  0  0  0  0  0  0  0  0  0  0
  1  8  1  0
  1 15  1  0
  2 11  1  0
  3  5  1  0
  4  5  2  0
  5 14  1  0
  6 16  3  0
  7  9  2  0
  7 10  1  0
  7 13  1  0
  8  9  1  0
  8 11  2  0
 10 12  2  0
 11 12  1  0
 13 14  2  0
 14 16  1  0
M  CHG  2   3  -1   5   1
M  END
>  <PUBCHEM_COMPOUND_CID>  (1) 
42622

>  <PUBCHEM_CONFORMER_RMSD>  (1) 
0.6

>  <PUBCHEM_CONFORMER_DIVERSEORDER>  (1) 
2
11
4
10
7
9
6
3
8
1
5

>  <PUBCHEM_MMFF94_PARTIAL_CHARGES>  (1) 
21
1 -0.36
10 -0.15
11 0.08
12 -0.15
13 -0.18
14 0.27
15 0.28
16 0.49
17 0.15
18 0.15
19 0.15
2 -0.53
20 0.15
24 0.45
3 -0.52
4 -0.52
5 0.84
6 -0.56
7 0.03
8 0.08
9 -0.15

>  <PUBCHEM_EFFECTIVE_ROTOR_COUNT>  (1) 
3

>  <PUBCHEM_PHARMACOPHORE_FEATURES>  (1) 
7
1 1 acceptor
1 2 donor
1 3 acceptor
1 3 anion
1 4 acceptor
1 6 acceptor
6 7 8 9 10 11 12 rings

>  <PUBCHEM_HEAVY_ATOM_COUNT>  (1) 
16

>  <PUBCHEM_ATOM_DEF_STEREO_COUNT>  (1) 
0

>  <PUBCHEM_ATOM_UDEF_STEREO_COUNT>  (1) 
0

>  <PUBCHEM_BOND_DEF_STEREO_COUNT>  (1) 
0

>  <PUBCHEM_BOND_UDEF_STEREO_COUNT>  (1) 
1

>  <PUBCHEM_ISOTOPIC_ATOM_COUNT>  (1) 
0

>  <PUBCHEM_COMPONENT_COUNT>  (1) 
1

>  <PUBCHEM_CACTVS_TAUTO_COUNT>  (1) 
3

>  <PUBCHEM_CONFORMER_ID>  (1) 
0000A67E00000002

>  <PUBCHEM_MMFF94_ENERGY>  (1) 
55.6443

>  <PUBCHEM_FEATURE_SELFOVERLAP>  (1) 
35.601

>  <PUBCHEM_SHAPE_FINGERPRINT>  (1) 
10608611 8 18410009961683189220
124424 183 18272650113156223758
12916754 54 17418084473111993751
12932764 1 18343293799206658574
13134695 92 17418094308877394648
13464514 151 17983015544528259693
13764800 53 18261109643416733593
14144814 61 17095517400717362750
15219456 202 18410297969157769542
15653759 3 18409730689903219746
16945 1 18114174298215285155
18186145 218 17275098457460146286
19049666 15 18412262800768203322
19422 9 16588019100345731370
20510252 161 18333735719294129665
20645477 70 17774734073748191622
21524375 3 18120077408714663791
21618674 53 16588602953846894972
21639500 275 17203038690263660304
23175994 123 17988095430246054742
23402539 116 18260545667282873687
23493267 7 18187364302881791448
23557571 272 18336270128336044231
23559900 14 18337110060872750934
23598294 1 17531242859641672889
25 1 18197777700425912685
6049 1 18342173414090415809
6438718 38 16055215479167103121
77492 1 15267348439472990674
81228 2 17691958684511538019
90316 7 16660633034234817029

>  <PUBCHEM_SHAPE_MULTIPOLES>  (1) 
295.83
7.35
1.87
1.23
2.76
0.55
0.45
1.64
-0.76
-1.44
0.31
0.55
0.31
1.44

>  <PUBCHEM_SHAPE_SELFOVERLAP>  (1) 
622.079

>  <PUBCHEM_SHAPE_VOLUME>  (1) 
165.3

>  <PUBCHEM_COORDINATE_TYPE>  (1) 
2
5
10

$$$$
