42629
     RDKit          3D

 18 18  0  0  0  0  0  0  0  0999 V2000
    3.8261   -3.8730    0.1513 Cl  0  0  0  0  0  0  0  0  0  0  0  0
    5.6406    2.7887    0.5347 Cl  0  0  0  0  0  0  0  0  0  0  0  0
   -1.7073   -0.2394   -0.8684 O   0  0  0  0  0  0  0  0  0  0  0  0
   -1.0540    0.9941    0.9937 O   0  0  0  0  0  0  0  0  0  0  0  0
    2.8520    0.0095   -0.3252 N   0  0  0  0  0  0  0  0  0  0  0  0
    0.4840    0.2393   -0.5671 N   0  0  0  0  0  0  0  0  0  0  0  0
    2.7371   -1.3893    0.0981 C   0  0  0  0  0  0  0  0  0  0  0  0
    4.0567    0.6043    0.2584 C   0  0  0  0  0  0  0  0  0  0  0  0
    1.6714    0.7855    0.0629 C   0  0  0  0  0  0  0  0  0  0  0  0
    3.9666   -2.1687   -0.3420 C   0  0  0  0  0  0  0  0  0  0  0  0
    4.1688    2.0636   -0.1547 C   0  0  0  0  0  0  0  0  0  0  0  0
   -0.7824    0.3926   -0.0414 C   0  0  0  0  0  0  0  0  0  0  0  0
   -3.0248   -0.1359   -0.4123 C   0  0  0  0  0  0  0  0  0  0  0  0
   -3.7843    0.9357   -0.8250 C   0  0  0  0  0  0  0  0  0  0  0  0
   -3.5096   -1.1094    0.4318 C   0  0  0  0  0  0  0  0  0  0  0  0
   -5.0985    1.0394   -0.3691 C   0  0  0  0  0  0  0  0  0  0  0  0
   -4.8240   -1.0057    0.8874 C   0  0  0  0  0  0  0  0  0  0  0  0
   -5.6183    0.0687    0.4869 C   0  0  0  0  0  0  0  0  0  0  0  0
  1 10  1  0
  2 11  1  0
  3 12  1  0
  3 13  1  0
  4 12  2  0
  5  7  1  0
  5  8  1  0
  5  9  1  0
  6  9  1  0
  6 12  1  0
  7 10  1  0
  8 11  1  0
 13 14  2  0
 13 15  1  0
 14 16  1  0
 15 17  2  0
 16 18  2  0
 17 18  1  0
M  END
>  <PUBCHEM_COMPOUND_CID>  (1) 
42629

>  <PUBCHEM_CONFORMER_RMSD>  (1) 
0.8

>  <PUBCHEM_CONFORMER_DIVERSEORDER>  (1) 
1
287
219
194
262
40
188
223
337
210
209
319
33
114
162
8
281
264
57
32
203
336
75
342
176
156
310
276
106
63
24
178
343
6
249
119
113
15
359
353
88
257
70
357
183
315
48
19
304
186
295
137
9
91
92
104
300
82
76
239
324
134
294
43
339
233
17
108
135
147
222
250
154
208
179
5
193
318
196
49
261
11
192
258
47
173
309
31
22
197
328
93
34
145
332
60
71
299
85
290
346
89
265
4
45
158
185
291
221
30
322
198
175
335
211
216
280
36
128
306
270
205
41
255
320
23
325
115
267
360
174
3
244
225
269
289
293
20
217
13
26
131
228
165
253
144
236
326
39
283
348
151
2
79
86
350
313
245
349
282
330
160
14
101
121
303
167
21
321
286
243
118
187
202
266
169
146
215
166
98
184
314
27
72
246
54
25
344
126
150
56
83
256
252
354
117
64
170
78
51
69
164
73
231
334
279
168
277
213
143
96
181
237
327
308
42
138
50
296
80
68
275
340
155
302
195
65
311
102
161
152
29
81
268
297
53
229
206
139
338
77
58
248
12
59
94
129
52
355
212
149
38
7
112
254
46
331
123
61
177
159
84
133
62
347
67
87
356
201
263
352
272
305
251
28
124
242
37
235
125
312
232
191
120
18
44
224
323
199
298
153
301
10
240
200
97
241
148
35
230
341
214
136
163
100
288
271
351
95
234
358
16
238
273
116
172
74
132
103
292
122
190
182
218
316
130
66
220
207
180
109
140
345
274
142
127
317
227
157
333
55
278
285
105
260
90
107
171
284
99
226
307
329
110
111
247
189
259
141
204

>  <PUBCHEM_MMFF94_PARTIAL_CHARGES>  (1) 
24
1 -0.29
10 0.29
11 0.29
12 0.78
13 0.08
14 -0.15
15 -0.15
16 -0.15
17 -0.15
18 -0.15
2 -0.29
29 0.37
3 -0.23
30 0.15
31 0.15
32 0.15
33 0.15
34 0.15
4 -0.57
5 -0.81
6 -0.73
7 0.27
8 0.27
9 0.57

>  <PUBCHEM_EFFECTIVE_ROTOR_COUNT>  (1) 
9

>  <PUBCHEM_PHARMACOPHORE_FEATURES>  (1) 
4
1 4 acceptor
1 5 cation
1 6 donor
6 13 14 15 16 17 18 rings

>  <PUBCHEM_HEAVY_ATOM_COUNT>  (1) 
18

>  <PUBCHEM_ATOM_DEF_STEREO_COUNT>  (1) 
0

>  <PUBCHEM_ATOM_UDEF_STEREO_COUNT>  (1) 
0

>  <PUBCHEM_BOND_DEF_STEREO_COUNT>  (1) 
0

>  <PUBCHEM_BOND_UDEF_STEREO_COUNT>  (1) 
0

>  <PUBCHEM_ISOTOPIC_ATOM_COUNT>  (1) 
0

>  <PUBCHEM_COMPONENT_COUNT>  (1) 
1

>  <PUBCHEM_CACTVS_TAUTO_COUNT>  (1) 
2

>  <PUBCHEM_CONFORMER_ID>  (1) 
0000A68500000001

>  <PUBCHEM_MMFF94_ENERGY>  (1) 
40.907

>  <PUBCHEM_FEATURE_SELFOVERLAP>  (1) 
20.297

>  <PUBCHEM_SHAPE_FINGERPRINT>  (1) 
10835480 77 18408878534401915213
10912923 1 17775564243502032263
11287383 113 18186802521175662529
11405975 8 18337954467878942313
12107183 9 17837781027734826353
12730499 353 18409174341926533474
12788726 201 17203338783739067921
13073987 5 18412550899138469985
13533116 47 18412547574221865970
13631057 29 17769366455091150063
13675066 3 18261111876783604509
13760787 5 18131627872621642269
13911882 115 18187940532990656530
13955234 65 18412259532999672322
14252887 29 18187086156779067464
17844677 252 18338242574311830517
17859628 70 18339644439206354910
1813 80 16370729223118832055
20645477 70 18410573946808404222
21065198 57 18408323263733337959
21065199 12 18334295370612401917
21315759 148 18187376436728872947
23402539 116 14418400122931117117
23557571 272 17313383396663007476
23559900 14 18337105666445856922
239999 70 18259704480668262674
300161 21 18336259124149556509
312423 11 18130240246150800520
33824 294 18408885144630351042
3421961 26 18337389332251670158
5104073 3 18333733490142904105
542803 24 16988569025970891673
59755656 215 18409451384671191644
6025842 7 18412262835755702230
621550 34 18333724737300390868
77779 3 18335139782763107501
90127 26 18187087209188700817
9709674 26 18187090580564175859

>  <PUBCHEM_SHAPE_MULTIPOLES>  (1) 
352.47
14.44
3.05
0.85
4.91
2.4
0.03
-2.84
1.65
-7.8
0.29
0.46
-0.06
1.1

>  <PUBCHEM_SHAPE_SELFOVERLAP>  (1) 
687.89

>  <PUBCHEM_SHAPE_VOLUME>  (1) 
214.1

>  <PUBCHEM_COORDINATE_TYPE>  (1) 
2
5
10

$$$$
