42639
     RDKit          3D

 25 28  0  0  0  0  0  0  0  0999 V2000
   -2.6114    1.1424    1.0899 S   0  0  0  0  0  0  0  0  0  0  0  0
    0.3180   -2.4514    1.2078 O   0  0  0  0  0  0  0  0  0  0  0  0
   -2.9216    2.5579    0.9168 O   0  0  0  0  0  0  0  0  0  0  0  0
   -2.8571    0.5064    2.3789 O   0  0  0  0  0  0  0  0  0  0  0  0
    2.5101   -2.4399    0.6200 O   0  0  0  0  0  0  0  0  0  0  0  0
    3.3207    0.3990   -0.3074 N   0  0  0  0  0  0  0  0  0  0  0  0
    1.4659   -1.7587    0.7281 N   0  0  0  0  0  0  0  0  0  0  0  0
   -0.7323   -1.5497    1.2626 N   0  0  0  0  0  0  0  0  0  0  0  0
    4.3129    1.2149    0.4019 C   0  0  0  0  0  0  0  0  0  0  0  0
    3.6487    0.0291   -1.6916 C   0  0  0  0  0  0  0  0  0  0  0  0
    5.6928    0.5623    0.3336 C   0  0  0  0  0  0  0  0  0  0  0  0
    5.0248   -0.6296   -1.7591 C   0  0  0  0  0  0  0  0  0  0  0  0
    6.0907    0.2383   -1.1011 C   0  0  0  0  0  0  0  0  0  0  0  0
    1.9656    0.5211    0.0236 C   0  0  0  0  0  0  0  0  0  0  0  0
    1.1278   -0.4921    0.5011 C   0  0  0  0  0  0  0  0  0  0  0  0
    1.2620    1.7442   -0.0948 C   0  0  0  0  0  0  0  0  0  0  0  0
   -0.2699   -0.3635    0.8420 C   0  0  0  0  0  0  0  0  0  0  0  0
   -0.9365    0.8686    0.7113 C   0  0  0  0  0  0  0  0  0  0  0  0
   -0.1170    1.9113    0.2315 C   0  0  0  0  0  0  0  0  0  0  0  0
   -3.6114    0.3090   -0.1168 C   0  0  0  0  0  0  0  0  0  0  0  0
   -3.9940   -0.9963    0.1188 C   0  0  0  0  0  0  0  0  0  0  0  0
   -3.9806    0.9862   -1.2617 C   0  0  0  0  0  0  0  0  0  0  0  0
   -4.7787   -1.6519   -0.8300 C   0  0  0  0  0  0  0  0  0  0  0  0
   -4.7653    0.3308   -2.2107 C   0  0  0  0  0  0  0  0  0  0  0  0
   -5.1643   -0.9884   -1.9948 C   0  0  0  0  0  0  0  0  0  0  0  0
  1  3  2  0
  1  4  2  0
  1 18  1  0
  1 20  1  0
  2  7  1  0
  2  8  1  0
  5  7  1  0
  6  9  1  0
  6 10  1  0
  6 14  1  0
  7 15  2  0
  8 17  2  0
  9 11  1  0
 10 12  1  0
 11 13  1  0
 12 13  1  0
 14 15  1  0
 14 16  2  0
 15 17  1  0
 16 19  1  0
 17 18  1  0
 18 19  2  0
 20 21  2  0
 20 22  1  0
 21 23  1  0
 22 24  2  0
 23 25  2  0
 24 25  1  0
M  CHG  2   5  -1   7   1
M  END
>  <PUBCHEM_COMPOUND_CID>  (1) 
42639

>  <PUBCHEM_CONFORMER_RMSD>  (1) 
0.8

>  <PUBCHEM_CONFORMER_DIVERSEORDER>  (1) 
1
4
5
2
6
3

>  <PUBCHEM_MMFF94_PARTIAL_CHARGES>  (1) 
29
1 1.32
10 0.37
14 0.1
15 -0.08
16 -0.15
17 0.29
18 -0.01
19 -0.15
2 -0.12
20 -0.01
21 -0.15
22 -0.15
23 -0.15
24 -0.15
25 -0.15
3 -0.65
36 0.15
37 0.15
38 0.15
39 0.15
4 -0.65
40 0.15
41 0.15
42 0.15
5 -0.63
6 -0.84
7 0.95
8 -0.41
9 0.37

>  <PUBCHEM_EFFECTIVE_ROTOR_COUNT>  (1) 
4.2

>  <PUBCHEM_PHARMACOPHORE_FEATURES>  (1) 
9
1 3 acceptor
1 4 acceptor
1 5 anion
1 6 cation
1 8 acceptor
5 2 7 8 15 17 rings
6 14 15 16 17 18 19 rings
6 20 21 22 23 24 25 rings
6 6 9 10 11 12 13 rings

>  <PUBCHEM_HEAVY_ATOM_COUNT>  (1) 
25

>  <PUBCHEM_ATOM_DEF_STEREO_COUNT>  (1) 
0

>  <PUBCHEM_ATOM_UDEF_STEREO_COUNT>  (1) 
0

>  <PUBCHEM_BOND_DEF_STEREO_COUNT>  (1) 
0

>  <PUBCHEM_BOND_UDEF_STEREO_COUNT>  (1) 
0

>  <PUBCHEM_ISOTOPIC_ATOM_COUNT>  (1) 
0

>  <PUBCHEM_COMPONENT_COUNT>  (1) 
1

>  <PUBCHEM_CACTVS_TAUTO_COUNT>  (1) 
1

>  <PUBCHEM_CONFORMER_ID>  (1) 
0000A68F00000001

>  <PUBCHEM_MMFF94_ENERGY>  (1) 
59.3443

>  <PUBCHEM_FEATURE_SELFOVERLAP>  (1) 
45.815

>  <PUBCHEM_SHAPE_FINGERPRINT>  (1) 
10042902 136 16342560916499918679
10319688 77 16307074968455466811
105312 117 17313107466230839839
11089746 13 14129333026925650324
11370993 144 12757141385848023056
11796584 16 15841562824953830229
12035759 4 18341609330487128759
121448 382 18409451405602637755
12553582 1 18201711869606181075
12788726 201 17916580922365761129
13103583 49 12391517537637614167
13257819 101 16153417359664498726
13583140 156 15936702556962338432
13911987 19 18041289854005487668
14251751 18 15913329078691491870
14251764 30 16414908777360454959
14787075 74 18130789014122717544
14931854 50 18336811066576890319
14950920 106 12462997901040342239
15163728 17 15791737356172048343
15527383 91 11455891390472444851
17349148 13 18407762542857549816
19784866 140 18201999954236879871
19784866 170 10015598206598842041
21033648 144 17024329602303469444
21033648 29 12540701469796041236
21054139 6 18411411839177532174
21637258 2 16200145495495093636
22182313 1 17974016342323393136
22393880 68 18340475712650909373
23379529 103 17701538635204095319
23402539 116 18341902865832499688
23559900 14 18266200430252182236
25147074 1 18265049124553474185
2838139 119 16008742524274830692
33382 64 16271933718074968006
3737641 26 11311515583955563772
4015057 19 18270129031963137008
5104073 3 16415204429966024618
7495541 125 15051728711955729392
7970288 3 17059484287963409039

>  <PUBCHEM_SHAPE_MULTIPOLES>  (1) 
479.92
12.88
2.12
1.83
6.46
0.03
-0.27
-2.35
-7.48
-0.95
0.59
-1.11
-0.53
-0.67

>  <PUBCHEM_SHAPE_SELFOVERLAP>  (1) 
1030.438

>  <PUBCHEM_SHAPE_VOLUME>  (1) 
265.3

>  <PUBCHEM_COORDINATE_TYPE>  (1) 
2
5
10

$$$$
