4263
     RDKit          3D

 12 12  0  0  1  0  0  0  0  0999 V2000
   -2.4475    0.0783   -1.2622 O   0  0  0  0  0  0  0  0  0  0  0  0
    0.9171   -2.3380    0.2044 O   0  0  0  0  0  0  0  0  0  0  0  0
    2.3181    1.5899    0.4907 O   0  0  0  0  0  0  0  0  0  0  0  0
   -1.2052   -1.3579    0.0732 N   0  0  0  0  0  0  0  0  0  0  0  0
   -1.7433   -0.0289   -0.0334 C   0  0  0  0  0  0  0  0  0  0  0  0
   -0.4806    0.7951   -0.0669 C   0  0  0  0  0  0  0  0  0  0  0  0
    0.6220    0.0348    0.0301 C   0  0  0  0  0  0  0  0  0  0  0  0
   -2.6660    0.2826    1.1390 C   0  0  0  0  0  0  0  0  0  0  0  0
    0.1769   -1.3729    0.1172 C   0  0  0  0  0  0  0  0  0  0  0  0
   -0.5623    2.2808   -0.2035 C   0  0  0  0  0  0  0  0  0  0  0  0
    2.0075    0.4818    0.0349 C   0  0  0  0  0  0  0  0  0  0  0  0
    3.0634   -0.4456   -0.5235 C   0  0  0  0  0  0  0  0  0  0  0  0
  1  5  1  0
  2  9  2  0
  3 11  2  0
  4  5  1  0
  4  9  1  0
  5  6  1  0
  5  8  1  0
  6  7  2  0
  6 10  1  0
  7  9  1  0
  7 11  1  0
 11 12  1  0
M  END
>  <PUBCHEM_COMPOUND_CID>  (1) 
4263

>  <PUBCHEM_CONFORMER_RMSD>  (1) 
0.4

>  <PUBCHEM_CONFORMER_DIVERSEORDER>  (1) 
1
4
5
2
3
6

>  <PUBCHEM_MMFF94_PARTIAL_CHARGES>  (1) 
13
1 -0.68
10 0.14
11 0.49
12 0.06
13 0.37
2 -0.57
20 0.4
3 -0.57
4 -0.73
5 0.72
6 -0.28
7 0.03
9 0.62

>  <PUBCHEM_EFFECTIVE_ROTOR_COUNT>  (1) 
1.4

>  <PUBCHEM_PHARMACOPHORE_FEATURES>  (1) 
7
1 1 acceptor
1 1 donor
1 2 acceptor
1 3 acceptor
1 4 donor
1 7 anion
5 4 5 6 7 9 rings

>  <PUBCHEM_HEAVY_ATOM_COUNT>  (1) 
12

>  <PUBCHEM_ATOM_DEF_STEREO_COUNT>  (1) 
0

>  <PUBCHEM_ATOM_UDEF_STEREO_COUNT>  (1) 
1

>  <PUBCHEM_BOND_DEF_STEREO_COUNT>  (1) 
0

>  <PUBCHEM_BOND_UDEF_STEREO_COUNT>  (1) 
0

>  <PUBCHEM_ISOTOPIC_ATOM_COUNT>  (1) 
0

>  <PUBCHEM_COMPONENT_COUNT>  (1) 
1

>  <PUBCHEM_CACTVS_TAUTO_COUNT>  (1) 
12

>  <PUBCHEM_CONFORMER_ID>  (1) 
000010A700000001

>  <PUBCHEM_MMFF94_ENERGY>  (1) 
21.5509

>  <PUBCHEM_FEATURE_SELFOVERLAP>  (1) 
35.566

>  <PUBCHEM_SHAPE_FINGERPRINT>  (1) 
11206711 2 18337954459331336004
12423570 1 17483389725789085095
12524768 44 18340204214782733916
12897270 3 18409442570575230908
161256 15 18196105351603120727
16945 1 18338513049787358922
17844478 74 18114198405639662985
193761 8 17833269722756661145
21040471 1 18265053707399525554
21501502 16 17975976466623452305
2334 1 18194120956706621834
23493267 7 17240765034261992321
23552423 10 18263366893274723214
23559900 14 18341624754732833276
2748010 2 18266179615833103230
369184 2 18340768238203588232
5084963 1 18131344202842835496
528886 8 18411420617721173243

>  <PUBCHEM_SHAPE_MULTIPOLES>  (1) 
224.37
3.74
1.99
0.85
0.86
0.05
-0.05
0.24
0.01
0.39
0.09
-0.46
0.05
0.14

>  <PUBCHEM_SHAPE_SELFOVERLAP>  (1) 
464.896

>  <PUBCHEM_SHAPE_VOLUME>  (1) 
131

>  <PUBCHEM_COORDINATE_TYPE>  (1) 
2
5
10

$$$$
