42634
     RDKit          3D

 34 38  0  0  0  0  0  0  0  0999 V2000
   -1.7497   -1.7282   -2.6303 Cl  0  0  0  0  0  0  0  0  0  0  0  0
    0.3601    2.3344   -2.0288 O   0  0  0  0  0  0  0  0  0  0  0  0
   -0.4342    2.1600    1.9730 O   0  0  0  0  0  0  0  0  0  0  0  0
   -1.5784    2.9345   -3.0526 O   0  0  0  0  0  0  0  0  0  0  0  0
   -0.3463    0.1002    2.9299 O   0  0  0  0  0  0  0  0  0  0  0  0
   -2.8951    1.6852   -0.6706 N   0  0  0  0  0  0  0  0  0  0  0  0
    2.5773    1.0411    1.7014 N   0  0  0  0  0  0  0  0  0  0  0  0
    0.2096   -0.2425   -0.7708 C   0  0  0  0  0  0  0  0  0  0  0  0
   -1.1247    0.3525   -0.5420 C   0  0  0  0  0  0  0  0  0  0  0  0
    1.3980    0.2382    0.0666 C   0  0  0  0  0  0  0  0  0  0  0  0
   -2.1119   -0.1309    0.3616 C   0  0  0  0  0  0  0  0  0  0  0  0
    2.7213    0.2187   -0.3674 C   0  0  0  0  0  0  0  0  0  0  0  0
   -1.6356    1.4696   -1.1619 C   0  0  0  0  0  0  0  0  0  0  0  0
    1.3009    0.7327    1.3142 C   0  0  0  0  0  0  0  0  0  0  0  0
    0.1280   -1.7723   -0.6541 C   0  0  0  0  0  0  0  0  0  0  0  0
   -3.2125    0.7229    0.2614 C   0  0  0  0  0  0  0  0  0  0  0  0
    3.4655    0.7376    0.6943 C   0  0  0  0  0  0  0  0  0  0  0  0
   -2.1750   -1.2162    1.2579 C   0  0  0  0  0  0  0  0  0  0  0  0
    3.3964   -0.1767   -1.5393 C   0  0  0  0  0  0  0  0  0  0  0  0
   -4.3776    0.5449    1.0158 C   0  0  0  0  0  0  0  0  0  0  0  0
    4.8565    0.8813    0.6425 C   0  0  0  0  0  0  0  0  0  0  0  0
   -0.7289   -2.4812   -1.4599 C   0  0  0  0  0  0  0  0  0  0  0  0
    0.9435   -2.3677    0.2799 C   0  0  0  0  0  0  0  0  0  0  0  0
   -3.7686    2.7686   -1.0729 C   0  0  0  0  0  0  0  0  0  0  0  0
    2.9416    1.6049    2.9851 C   0  0  0  0  0  0  0  0  0  0  0  0
   -1.0038    2.2930   -2.1490 C   0  0  0  0  0  0  0  0  0  0  0  0
    0.1414    0.9272    2.1322 C   0  0  0  0  0  0  0  0  0  0  0  0
   -3.3340   -1.4067    2.0191 C   0  0  0  0  0  0  0  0  0  0  0  0
    4.7876   -0.0388   -1.6054 C   0  0  0  0  0  0  0  0  0  0  0  0
   -4.4172   -0.5384    1.8982 C   0  0  0  0  0  0  0  0  0  0  0  0
    5.5046    0.4823   -0.5300 C   0  0  0  0  0  0  0  0  0  0  0  0
   -0.7748   -3.8689   -1.3251 C   0  0  0  0  0  0  0  0  0  0  0  0
    0.8975   -3.7554    0.4147 C   0  0  0  0  0  0  0  0  0  0  0  0
    0.0384   -4.5059   -0.3878 C   0  0  0  0  0  0  0  0  0  0  0  0
  1 22  1  0
  2 26  1  0
  3 27  1  0
  4 26  2  0
  5 27  2  0
  6 13  1  0
  6 16  1  0
  6 24  1  0
  7 14  1  0
  7 17  1  0
  7 25  1  0
  8  9  1  0
  8 10  1  0
  8 15  1  0
  9 11  1  0
  9 13  2  0
 10 12  1  0
 10 14  2  0
 11 16  2  0
 11 18  1  0
 12 17  2  0
 12 19  1  0
 13 26  1  0
 14 27  1  0
 15 22  2  0
 15 23  1  0
 16 20  1  0
 17 21  1  0
 18 28  2  0
 19 29  2  0
 20 30  2  0
 21 31  2  0
 22 32  1  0
 23 33  2  0
 28 30  1  0
 29 31  1  0
 32 34  2  0
 33 34  1  0
M  END
>  <PUBCHEM_COMPOUND_CID>  (1) 
42634

>  <PUBCHEM_CONFORMER_RMSD>  (1) 
0.8

>  <PUBCHEM_CONFORMER_DIVERSEORDER>  (1) 
2
3
14
9
15
18
12
16
4
6
7
11
10
1
17
13
5
8

>  <PUBCHEM_MMFF94_PARTIAL_CHARGES>  (1) 
46
1 -0.18
10 -0.18
13 -0.24
14 -0.24
15 -0.14
16 -0.15
17 -0.15
18 -0.15
19 -0.15
2 -0.65
20 -0.15
21 -0.15
22 0.18
23 -0.15
24 0.26
25 0.26
26 0.81
27 0.81
28 -0.15
29 -0.15
3 -0.65
30 -0.15
31 -0.15
32 -0.15
33 -0.15
34 -0.15
36 0.15
37 0.15
38 0.15
39 0.15
4 -0.57
40 0.15
47 0.15
48 0.15
49 0.15
5 -0.57
50 0.15
51 0.15
52 0.15
53 0.15
54 0.5
55 0.5
6 0.05
7 0.05
8 0.51
9 -0.18

>  <PUBCHEM_EFFECTIVE_ROTOR_COUNT>  (1) 
5

>  <PUBCHEM_PHARMACOPHORE_FEATURES>  (1) 
13
1 2 acceptor
1 3 acceptor
1 4 acceptor
1 5 acceptor
1 6 cation
1 7 cation
3 2 4 26 anion
3 3 5 27 anion
5 6 9 11 13 16 rings
5 7 10 12 14 17 rings
6 11 16 18 20 28 30 rings
6 12 17 19 21 29 31 rings
6 15 22 23 32 33 34 rings

>  <PUBCHEM_HEAVY_ATOM_COUNT>  (1) 
34

>  <PUBCHEM_ATOM_DEF_STEREO_COUNT>  (1) 
0

>  <PUBCHEM_ATOM_UDEF_STEREO_COUNT>  (1) 
0

>  <PUBCHEM_BOND_DEF_STEREO_COUNT>  (1) 
0

>  <PUBCHEM_BOND_UDEF_STEREO_COUNT>  (1) 
0

>  <PUBCHEM_ISOTOPIC_ATOM_COUNT>  (1) 
0

>  <PUBCHEM_COMPONENT_COUNT>  (1) 
1

>  <PUBCHEM_CACTVS_TAUTO_COUNT>  (1) 
1

>  <PUBCHEM_CONFORMER_ID>  (1) 
0000A68A00000002

>  <PUBCHEM_MMFF94_ENERGY>  (1) 
116.4331

>  <PUBCHEM_FEATURE_SELFOVERLAP>  (1) 
66.273

>  <PUBCHEM_SHAPE_FINGERPRINT>  (1) 
10165383 225 18342184353345699289
10190108 129 18196948862434375131
10863032 1 18042129752013371235
10906281 52 17895479120785260661
11115154 58 17054404656071203959
11578080 2 17831048756956565521
11582403 64 16671835872474560245
12058002 1 17683853952727850113
131258 43 17045155645603241078
13782708 43 18341057349885924182
14279260 333 17201380485960554774
14341114 328 16805610239474698204
14856354 85 17386013892494521034
21033648 29 18272082803489757256
21756936 100 17313098658139197612
22121540 332 18198064673204122117
229495 10 18195522589340447479
23419403 2 18050851014221320555
23559900 14 17752496351616934239
3298306 158 18339642218381007398
3380486 145 16477383225340030038
3729539 64 18055090769940234134
44802255 64 18116457928569899638
469060 322 18190165953468488207
5265222 85 18336278933404058382
550186 7 17894631405255720324
7226269 152 17988921168137485690
81228 2 17908971446295600262
9925002 15 17832151893293691831

>  <PUBCHEM_SHAPE_MULTIPOLES>  (1) 
668.13
7.63
3.97
2.85
5.66
4.55
-0.05
-3.49
-1.05
-1.6
1.43
-0.79
-1.6
1.57

>  <PUBCHEM_SHAPE_SELFOVERLAP>  (1) 
1510.654

>  <PUBCHEM_SHAPE_VOLUME>  (1) 
352.9

>  <PUBCHEM_COORDINATE_TYPE>  (1) 
2
5
10

$$$$
