42638
     RDKit          3D

 20 21  0  0  0  0  0  0  0  0999 V2000
    2.5008   -0.0439   -1.2493 O   0  0  0  0  0  0  0  0  0  0  0  0
    2.9253    3.6305    0.5064 O   0  0  0  0  0  0  0  0  0  0  0  0
    2.8444   -3.6107    0.7609 O   0  0  0  0  0  0  0  0  0  0  0  0
   -1.2018   -0.1368   -2.7668 O   0  0  0  0  0  0  0  0  0  0  0  0
   -4.1486    0.1153    1.9567 O   0  0  0  0  0  0  0  0  0  0  0  0
   -4.4136    0.0041   -0.2196 O   0  0  0  0  0  0  0  0  0  0  0  0
    2.1111   -0.0003    0.0950 N   0  0  0  0  0  0  0  0  0  0  0  0
    0.0329   -0.1082   -2.1413 N   0  0  0  0  0  0  0  0  0  0  0  0
   -2.2429   -0.0869   -1.8556 N   0  0  0  0  0  0  0  0  0  0  0  0
   -3.6700    0.0540    0.7944 N   0  0  0  0  0  0  0  0  0  0  0  0
    2.7831    1.2466    0.6660 C   0  0  0  0  0  0  0  0  0  0  0  0
    2.7678   -1.2186    0.7411 C   0  0  0  0  0  0  0  0  0  0  0  0
    0.6723    0.0137    0.2553 C   0  0  0  0  0  0  0  0  0  0  0  0
   -0.2229   -0.0397   -0.8288 C   0  0  0  0  0  0  0  0  0  0  0  0
    2.2860    2.4867   -0.0456 C   0  0  0  0  0  0  0  0  0  0  0  0
    2.2154   -2.4949    0.1436 C   0  0  0  0  0  0  0  0  0  0  0  0
    0.0533    0.0805    1.5168 C   0  0  0  0  0  0  0  0  0  0  0  0
   -1.6695   -0.0261   -0.6473 C   0  0  0  0  0  0  0  0  0  0  0  0
   -1.3553    0.0937    1.6936 C   0  0  0  0  0  0  0  0  0  0  0  0
   -2.2679    0.0411    0.6244 C   0  0  0  0  0  0  0  0  0  0  0  0
  1  7  1  0
  2 15  1  0
  3 16  1  0
  4  8  1  0
  4  9  1  0
  5 10  1  0
  6 10  2  0
  7 11  1  0
  7 12  1  0
  7 13  1  0
  8 14  2  0
  9 18  2  0
 10 20  1  0
 11 15  1  0
 12 16  1  0
 13 14  1  0
 13 17  2  0
 14 18  1  0
 17 19  1  0
 18 20  1  0
 19 20  2  0
M  CHG  4   1  -1   5  -1   7   1  10   1
M  END
>  <PUBCHEM_COMPOUND_CID>  (1) 
42638

>  <PUBCHEM_CONFORMER_RMSD>  (1) 
0.8

>  <PUBCHEM_CONFORMER_DIVERSEORDER>  (1) 
1
13
7
10
14
9
11
5
4
12
6
8
3
2

>  <PUBCHEM_MMFF94_PARTIAL_CHARGES>  (1) 
24
1 -0.75
10 0.91
11 0.26
12 0.26
13 0.01
14 0.29
15 0.28
16 0.28
17 -0.15
18 0.29
19 -0.15
2 -0.68
20 0.13
29 0.15
3 -0.68
30 0.15
31 0.4
32 0.4
4 0.24
5 -0.52
6 -0.52
7 0.23
8 -0.41
9 -0.41

>  <PUBCHEM_EFFECTIVE_ROTOR_COUNT>  (1) 
6

>  <PUBCHEM_PHARMACOPHORE_FEATURES>  (1) 
12
1 1 anion
1 2 acceptor
1 2 donor
1 3 acceptor
1 3 donor
1 5 acceptor
1 5 anion
1 6 acceptor
1 8 acceptor
1 9 acceptor
5 4 8 9 14 18 rings
6 13 14 17 18 19 20 rings

>  <PUBCHEM_HEAVY_ATOM_COUNT>  (1) 
20

>  <PUBCHEM_ATOM_DEF_STEREO_COUNT>  (1) 
0

>  <PUBCHEM_ATOM_UDEF_STEREO_COUNT>  (1) 
0

>  <PUBCHEM_BOND_DEF_STEREO_COUNT>  (1) 
0

>  <PUBCHEM_BOND_UDEF_STEREO_COUNT>  (1) 
0

>  <PUBCHEM_ISOTOPIC_ATOM_COUNT>  (1) 
0

>  <PUBCHEM_COMPONENT_COUNT>  (1) 
1

>  <PUBCHEM_CACTVS_TAUTO_COUNT>  (1) 
1

>  <PUBCHEM_CONFORMER_ID>  (1) 
0000A68E00000001

>  <PUBCHEM_MMFF94_ENERGY>  (1) 
66.1724

>  <PUBCHEM_FEATURE_SELFOVERLAP>  (1) 
61.16

>  <PUBCHEM_SHAPE_FINGERPRINT>  (1) 
11132069 177 16370998625090250377
11640471 11 17773876574420671256
13538477 17 17203321243171621566
13583140 156 18411705391813074313
14115302 16 16200167494776818332
14289901 80 18411702118979345425
14787075 74 17481708971789212963
14817 1 11108329941004017606
15375462 175 15841284704388749403
15906896 17 16898197644396434498
16752209 62 16200142248964041701
16945 1 18410002239379301278
1813 80 17986678052563595718
18915476 22 18261095383961488318
19765921 60 17843118358003181144
19786989 88 18262505022182173184
20600515 1 13891550134004936647
20645476 183 17417256570673350397
21486144 27 18188207705641439921
22112679 90 17274522292055801034
22149856 69 14207819229908876639
2255824 54 18342742931497069562
22802520 49 16951682476490421402
22892500 29 18334864925988297064
23419403 2 17677871514472176904
23493267 7 17560255733009022199
23526113 38 17680118830202841906
23557571 272 16950275191990669925
23559900 14 16081355329046399930
23598291 2 17988640817667051476
266924 78 18339624729126017934
2748010 2 16371272351671619975
31174 14 18334295340363131426
3286 77 18187930521300251579
394222 165 17988651838621425954
4072396 5 16844160139910743467
4340502 62 18268151040334888163
474 4 18198057178401580296
6049 1 17677043547255291189
621550 5 17605854515948211470
77492 1 17774993609329839855
81228 2 17182752404942887176
8272917 22 18341342123233351291
84936 31 18334015029385686142

>  <PUBCHEM_SHAPE_MULTIPOLES>  (1) 
356.45
6.15
2.54
1.97
4.63
0
0.97
0.22
-1.85
-5.1
-0.71
1.49
-0.08
-0.24

>  <PUBCHEM_SHAPE_SELFOVERLAP>  (1) 
749.177

>  <PUBCHEM_SHAPE_VOLUME>  (1) 
202.5

>  <PUBCHEM_COORDINATE_TYPE>  (1) 
2
5
10

$$$$
