42649
     RDKit          3D

 16 17  0  0  0  0  0  0  0  0999 V2000
    0.8066   -1.7843   -0.0011 S   0  0  0  0  0  0  0  0  0  0  0  0
   -2.5850    2.3060    0.0004 S   0  0  0  0  0  0  0  0  0  0  0  0
    4.5203    1.3443   -0.0010 O   0  0  0  0  0  0  0  0  0  0  0  0
    5.1430   -0.7653    0.0003 O   0  0  0  0  0  0  0  0  0  0  0  0
   -4.2608   -2.0711    0.0017 O   0  0  0  0  0  0  0  0  0  0  0  0
   -1.9154   -0.1907   -0.0011 N   0  0  0  0  0  0  0  0  0  0  0  0
    4.2453    0.1165   -0.0003 N   0  0  0  0  0  0  0  0  0  0  0  0
   -4.2742    0.3021   -0.0013 N   0  0  0  0  0  0  0  0  0  0  0  0
    0.5756   -0.0876    0.0002 C   0  0  0  0  0  0  0  0  0  0  0  0
   -0.7528    0.5544    0.0002 C   0  0  0  0  0  0  0  0  0  0  0  0
    1.7711    0.5968    0.0012 C   0  0  0  0  0  0  0  0  0  0  0  0
    2.8916   -0.2832    0.0009 C   0  0  0  0  0  0  0  0  0  0  0  0
   -0.9132    1.9236    0.0011 C   0  0  0  0  0  0  0  0  0  0  0  0
    2.5098   -1.6068   -0.0003 C   0  0  0  0  0  0  0  0  0  0  0  0
   -2.9438    0.6280   -0.0011 C   0  0  0  0  0  0  0  0  0  0  0  0
   -4.8180   -0.9826    0.0001 C   0  0  0  0  0  0  0  0  0  0  0  0
  1  9  1  0
  1 14  1  0
  2 13  1  0
  2 15  1  0
  3  7  1  0
  4  7  2  0
  5 16  2  0
  6 10  1  0
  6 15  2  0
  7 12  1  0
  8 15  1  0
  8 16  1  0
  9 10  1  0
  9 11  2  0
 10 13  2  0
 11 12  1  0
 12 14  2  0
M  CHG  2   3  -1   7   1
M  END
>  <PUBCHEM_COMPOUND_CID>  (1) 
42649

>  <PUBCHEM_CONFORMER_RMSD>  (1) 
0.6

>  <PUBCHEM_CONFORMER_DIVERSEORDER>  (1) 
1
11
2
4
5
6
3
8
7
12
10
9

>  <PUBCHEM_MMFF94_PARTIAL_CHARGES>  (1) 
21
1 -0.08
10 0.23
11 -0.15
12 0.08
13 -0.11
14 -0.11
15 0.44
16 0.57
17 0.15
18 0.15
19 0.15
2 -0.08
20 0.37
21 0.06
3 -0.52
4 -0.52
5 -0.57
6 -0.57
7 0.96
8 -0.49
9 0.04

>  <PUBCHEM_EFFECTIVE_ROTOR_COUNT>  (1) 
4

>  <PUBCHEM_PHARMACOPHORE_FEATURES>  (1) 
7
1 3 acceptor
1 3 anion
1 4 acceptor
1 5 acceptor
1 8 donor
5 1 9 11 12 14 rings
5 2 6 10 13 15 rings

>  <PUBCHEM_HEAVY_ATOM_COUNT>  (1) 
16

>  <PUBCHEM_ATOM_DEF_STEREO_COUNT>  (1) 
0

>  <PUBCHEM_ATOM_UDEF_STEREO_COUNT>  (1) 
0

>  <PUBCHEM_BOND_DEF_STEREO_COUNT>  (1) 
0

>  <PUBCHEM_BOND_UDEF_STEREO_COUNT>  (1) 
0

>  <PUBCHEM_ISOTOPIC_ATOM_COUNT>  (1) 
0

>  <PUBCHEM_COMPONENT_COUNT>  (1) 
1

>  <PUBCHEM_CACTVS_TAUTO_COUNT>  (1) 
3

>  <PUBCHEM_CONFORMER_ID>  (1) 
0000A69900000001

>  <PUBCHEM_MMFF94_ENERGY>  (1) 
19.1207

>  <PUBCHEM_FEATURE_SELFOVERLAP>  (1) 
35.602

>  <PUBCHEM_SHAPE_FINGERPRINT>  (1) 
10608611 8 18193274096509265428
10616163 171 18412265008740394847
11806522 49 18335702762454310717
124424 183 12252189562621546599
12839892 36 18265597823980104274
13032168 30 18411142428890381587
13167823 11 18336824200011835402
13214271 11 18343016658389864125
13862211 1 18410288129424617338
13911882 115 18060149738223214206
14252887 29 17489879227756687854
14787075 74 18337391650847870128
15196674 1 18410573950823374278
17834072 33 18335140903580825260
17862501 102 18260825982122080898
18785283 64 17772171266514943824
200 152 18335419075896366759
20261772 1 17988639739746512919
20510252 161 18271527494435739889
20645477 56 18043813078957902797
20645477 70 18126280844185634470
20871999 31 18261099765424281317
21079973 296 18334579074582349643
21267235 1 18410864247710637070
21618674 54 18265050236817998061
221490 88 18118408582044895699
22485316 2 18336263462192905043
23402539 116 18260543420465909783
23402655 69 18337105653629468397
23557571 272 18201162044302962349
23559900 14 18125153827998770566
25610 137 18411982446851861745
2871803 45 18408317774754778919
3312278 4 18341049610523258921
34934 24 18336541613218395441
4214541 1 18338517426222000384
474229 33 18411136965365218638
4990 188 18059583438722224942
5104073 3 18340767022796325168
58051976 378 18412544284334887703
6333272 397 18408603686696385480
7495541 125 17846211189806879672
77779 3 18340488863639997548
9709674 26 18337399235760653962

>  <PUBCHEM_SHAPE_MULTIPOLES>  (1) 
304.42
9.85
2.16
0.59
2
0.1
0
-1.9
0
-1.43
0
-0.04
0.01
0

>  <PUBCHEM_SHAPE_SELFOVERLAP>  (1) 
626.724

>  <PUBCHEM_SHAPE_VOLUME>  (1) 
176.8

>  <PUBCHEM_COORDINATE_TYPE>  (1) 
2
5
10

$$$$
