42648
     RDKit          3D

 22 24  0  0  0  0  0  0  0  0999 V2000
    3.0780   -1.7135    0.0049 S   0  0  0  0  0  0  0  0  0  0  0  0
   -2.0762   -3.0253   -3.0251 O   0  0  0  0  0  0  0  0  0  0  0  0
   -2.1188   -3.1315    2.9631 O   0  0  0  0  0  0  0  0  0  0  0  0
   -1.8433   -0.9715    0.0082 N   0  0  0  0  0  0  0  0  0  0  0  0
    0.4612   -0.4964    0.0063 N   0  0  0  0  0  0  0  0  0  0  0  0
    1.2468    1.7817    0.0067 N   0  0  0  0  0  0  0  0  0  0  0  0
   -0.7966   -0.0162    0.0081 C   0  0  0  0  0  0  0  0  0  0  0  0
   -2.3813   -1.4608   -1.2416 C   0  0  0  0  0  0  0  0  0  0  0  0
   -2.3700   -1.4729    1.2580 C   0  0  0  0  0  0  0  0  0  0  0  0
   -1.1104    1.3401    0.0093 C   0  0  0  0  0  0  0  0  0  0  0  0
   -0.0217    2.2274    0.0085 C   0  0  0  0  0  0  0  0  0  0  0  0
   -1.5020   -2.5636   -1.8093 C   0  0  0  0  0  0  0  0  0  0  0  0
   -1.5789   -2.6837    1.7267 C   0  0  0  0  0  0  0  0  0  0  0  0
   -2.4325    1.8175    0.0111 C   0  0  0  0  0  0  0  0  0  0  0  0
    1.4193    0.4442    0.0056 C   0  0  0  0  0  0  0  0  0  0  0  0
   -0.2961    3.5928    0.0097 C   0  0  0  0  0  0  0  0  0  0  0  0
   -2.6779    3.1870    0.0122 C   0  0  0  0  0  0  0  0  0  0  0  0
    2.7758   -0.0235    0.0060 C   0  0  0  0  0  0  0  0  0  0  0  0
   -1.6082    4.0754    0.0114 C   0  0  0  0  0  0  0  0  0  0  0  0
    3.9536    0.7019    0.0073 C   0  0  0  0  0  0  0  0  0  0  0  0
    5.1058   -0.1362    0.0072 C   0  0  0  0  0  0  0  0  0  0  0  0
    4.7734   -1.4729    0.0058 C   0  0  0  0  0  0  0  0  0  0  0  0
  1 18  1  0
  1 22  1  0
  2 12  1  0
  3 13  1  0
  4  7  1  0
  4  8  1  0
  4  9  1  0
  5  7  2  0
  5 15  1  0
  6 11  1  0
  6 15  2  0
  7 10  1  0
  8 12  1  0
  9 13  1  0
 10 11  2  0
 10 14  1  0
 11 16  1  0
 14 17  2  0
 15 18  1  0
 16 19  2  0
 17 19  1  0
 18 20  2  0
 20 21  1  0
 21 22  2  0
M  END
>  <PUBCHEM_COMPOUND_CID>  (1) 
42648

>  <PUBCHEM_CONFORMER_RMSD>  (1) 
0.8

>  <PUBCHEM_CONFORMER_DIVERSEORDER>  (1) 
1
22
26
21
17
23
19
12
18
29
3
36
10
20
35
33
16
30
7
25
34
6
9
32
24
14
31
15
8
13
11
4
28
27
5
2

>  <PUBCHEM_MMFF94_PARTIAL_CHARGES>  (1) 
30
1 -0.08
11 0.31
12 0.28
13 0.28
14 -0.15
15 0.67
16 -0.15
17 -0.15
18 -0.01
19 -0.15
2 -0.68
20 -0.15
21 -0.15
22 -0.11
3 -0.68
31 0.15
32 0.15
33 0.15
34 0.15
35 0.15
36 0.4
37 0.4
38 0.15
39 0.15
4 -0.84
5 -0.62
6 -0.62
7 0.41
8 0.37
9 0.37

>  <PUBCHEM_EFFECTIVE_ROTOR_COUNT>  (1) 
6

>  <PUBCHEM_PHARMACOPHORE_FEATURES>  (1) 
9
1 2 acceptor
1 2 donor
1 3 acceptor
1 3 donor
3 4 5 7 cation
3 5 6 15 cation
5 1 18 20 21 22 rings
6 10 11 14 16 17 19 rings
6 5 6 7 10 11 15 rings

>  <PUBCHEM_HEAVY_ATOM_COUNT>  (1) 
22

>  <PUBCHEM_ATOM_DEF_STEREO_COUNT>  (1) 
0

>  <PUBCHEM_ATOM_UDEF_STEREO_COUNT>  (1) 
0

>  <PUBCHEM_BOND_DEF_STEREO_COUNT>  (1) 
0

>  <PUBCHEM_BOND_UDEF_STEREO_COUNT>  (1) 
0

>  <PUBCHEM_ISOTOPIC_ATOM_COUNT>  (1) 
0

>  <PUBCHEM_COMPONENT_COUNT>  (1) 
1

>  <PUBCHEM_CACTVS_TAUTO_COUNT>  (1) 
1

>  <PUBCHEM_CONFORMER_ID>  (1) 
0000A69800000001

>  <PUBCHEM_MMFF94_ENERGY>  (1) 
71.1897

>  <PUBCHEM_FEATURE_SELFOVERLAP>  (1) 
45.843

>  <PUBCHEM_SHAPE_FINGERPRINT>  (1) 
10616163 171 18339924814591738518
107951 10 17901686868276502750
11578080 2 17345170363573853112
12160290 23 18197519366670118164
12553582 1 18195252350077122254
12592029 89 17469609503234164249
12788726 201 18336254669930737371
12969540 37 16961841238224420314
13004483 165 18128794491001900534
13140716 1 18338528528823685472
138480 1 16172000948593258442
13911987 19 17326326027412947420
14844126 61 18341879771919943394
15042514 8 18337116670115288961
16945 1 17474106978275125681
17980427 23 12975893515373393653
18915476 22 16967721448164047311
19591789 44 17758400673297128960
20101258 96 18339369689820745656
21041028 32 18191599737752282457
21524375 3 17978506429883559544
23419403 2 17319850960033029023
23557571 272 18340218410076947796
23558518 356 18262523563677595002
23559900 14 18055628427110108778
23598288 3 18337127725260486116
23728640 28 18199740358588144982
266924 78 16968579075791790951
2748010 2 17985007919463477823
3091708 16 8987760374498881705
352729 6 18052826849085085100
3759504 43 17896607180511883353
394222 165 17472696923405677649
43471831 8 17540539019890715665
5104073 3 18409445848642879560
559249 180 18049718521766941042
58807428 26 17758403967648126864
6138700 20 16827281339028487998
621550 5 16953390276094626651
6438718 38 18342743983315761827
6992083 37 17915753161127684167
81228 2 18336530677435653193
9709674 26 18197782107447415510

>  <PUBCHEM_SHAPE_MULTIPOLES>  (1) 
429.92
6.82
4.91
1.66
11.95
0.43
-0.09
0.73
0.05
-5.74
0.11
-1.71
-3.22
0.02

>  <PUBCHEM_SHAPE_SELFOVERLAP>  (1) 
914.26

>  <PUBCHEM_SHAPE_VOLUME>  (1) 
241

>  <PUBCHEM_COORDINATE_TYPE>  (1) 
2
5
10

$$$$
