42650
     RDKit          3D

 17 18  0  0  0  0  0  0  0  0999 V2000
    1.1222    1.7648    0.0005 S   0  0  0  0  0  0  0  0  0  0  0  0
   -2.1378   -2.4310   -0.0001 S   0  0  0  0  0  0  0  0  0  0  0  0
   -3.9188    1.8816    0.0006 O   0  0  0  0  0  0  0  0  0  0  0  0
    4.9334   -1.2442    0.0014 O   0  0  0  0  0  0  0  0  0  0  0  0
    5.4889    0.8840   -0.0004 O   0  0  0  0  0  0  0  0  0  0  0  0
   -1.5478    0.0858    0.0008 N   0  0  0  0  0  0  0  0  0  0  0  0
   -3.8898   -0.4817    0.0010 N   0  0  0  0  0  0  0  0  0  0  0  0
    4.6195   -0.0258    0.0003 N   0  0  0  0  0  0  0  0  0  0  0  0
    0.9453    0.0617   -0.0004 C   0  0  0  0  0  0  0  0  0  0  0  0
   -0.3621   -0.6221   -0.0002 C   0  0  0  0  0  0  0  0  0  0  0  0
    2.1618   -0.5844   -0.0012 C   0  0  0  0  0  0  0  0  0  0  0  0
    3.2538    0.3307   -0.0010 C   0  0  0  0  0  0  0  0  0  0  0  0
   -2.5497   -0.7652    0.0010 C   0  0  0  0  0  0  0  0  0  0  0  0
   -0.4790   -1.9957   -0.0009 C   0  0  0  0  0  0  0  0  0  0  0  0
    2.8302    1.6416   -0.0002 C   0  0  0  0  0  0  0  0  0  0  0  0
   -4.4820    0.7922    0.0008 C   0  0  0  0  0  0  0  0  0  0  0  0
   -5.9883    0.7078   -0.0021 C   0  0  0  0  0  0  0  0  0  0  0  0
  1  9  1  0
  1 15  1  0
  2 13  1  0
  2 14  1  0
  3 16  2  0
  4  8  1  0
  5  8  2  0
  6 10  1  0
  6 13  2  0
  7 13  1  0
  7 16  1  0
  8 12  1  0
  9 10  1  0
  9 11  2  0
 10 14  2  0
 11 12  1  0
 12 15  2  0
 16 17  1  0
M  CHG  2   4  -1   8   1
M  END
>  <PUBCHEM_COMPOUND_CID>  (1) 
42650

>  <PUBCHEM_CONFORMER_RMSD>  (1) 
0.6

>  <PUBCHEM_CONFORMER_DIVERSEORDER>  (1) 
1
11
6
12
2
10
14
15
9
13
16
3
8
4
7
5

>  <PUBCHEM_MMFF94_PARTIAL_CHARGES>  (1) 
21
1 -0.08
10 0.23
11 -0.15
12 0.08
13 0.44
14 -0.11
15 -0.11
16 0.57
17 0.06
18 0.15
19 0.15
2 -0.08
20 0.15
21 0.37
3 -0.57
4 -0.52
5 -0.52
6 -0.57
7 -0.49
8 0.96
9 0.04

>  <PUBCHEM_EFFECTIVE_ROTOR_COUNT>  (1) 
4

>  <PUBCHEM_PHARMACOPHORE_FEATURES>  (1) 
7
1 3 acceptor
1 4 acceptor
1 4 anion
1 5 acceptor
1 7 donor
5 1 9 11 12 15 rings
5 2 6 10 13 14 rings

>  <PUBCHEM_HEAVY_ATOM_COUNT>  (1) 
17

>  <PUBCHEM_ATOM_DEF_STEREO_COUNT>  (1) 
0

>  <PUBCHEM_ATOM_UDEF_STEREO_COUNT>  (1) 
0

>  <PUBCHEM_BOND_DEF_STEREO_COUNT>  (1) 
0

>  <PUBCHEM_BOND_UDEF_STEREO_COUNT>  (1) 
0

>  <PUBCHEM_ISOTOPIC_ATOM_COUNT>  (1) 
0

>  <PUBCHEM_COMPONENT_COUNT>  (1) 
1

>  <PUBCHEM_CACTVS_TAUTO_COUNT>  (1) 
3

>  <PUBCHEM_CONFORMER_ID>  (1) 
0000A69A00000001

>  <PUBCHEM_MMFF94_ENERGY>  (1) 
22.6344

>  <PUBCHEM_FEATURE_SELFOVERLAP>  (1) 
35.602

>  <PUBCHEM_SHAPE_FINGERPRINT>  (1) 
10447042 23 10015586060679359505
10608611 8 18197214956499163281
11401426 45 18131068246740740634
11458722 120 18335419045652299666
12500047 106 18342173414069452979
13533116 47 17632296718825394702
13675066 3 18271525402797014682
14251764 18 18334289894671530762
15048467 5 18113340842895345644
15099037 51 18411699880832021791
15196674 1 18338799025731488229
15375358 24 18130792265254282526
15442244 35 18337672026545217412
15531645 54 18412265008481568182
17834072 8 18342745100397454014
18186145 218 17749941275820105878
187816 3 17418094317219227531
19141452 34 18410290341485606398
200 152 17561362902579194279
20281389 69 18260264135812159461
20621476 66 18413112745042943257
20645477 56 18410293627367397391
20645477 70 16988292975601134782
20681677 155 18261108612540141386
21065198 57 18338797948000710602
21150785 3 11311776220362481240
21267235 1 18337680801142447035
21279426 13 18123753058484430908
212847 35 18408044022023829972
21421861 104 17823123537568426570
21524375 3 18410575076764396711
2215653 11 18060147509630689614
23218964 4 18408321068825701454
23402539 116 18201714068128244309
23402655 69 18411136978534554534
23558518 356 17827360191402527083
23559900 14 18201717388560041728
293599 30 18409730651354054403
300161 21 18343298202265139514
3004659 81 18334298635478883686
335352 9 18410856551450898974
34934 24 18411695517788924642
351380 180 18342174475353513141
3545911 37 18412265038820489891
366044 4 18410292506323216227
4214541 1 18410574024033055591
4463277 17 18409731790269701516
495365 180 17346587613030045178
5104073 3 18336262465596988962
532947 4 18127981814544412775
59755656 520 18040427811853080755
633830 44 17531806977889385258
6430166 295 18409729568827084525
7495541 125 12035734236479860582
77779 3 18336829809333744582
7832392 63 18337667628292848032
9981440 41 17109317637662687288
9996256 80 18340771533203575235

>  <PUBCHEM_SHAPE_MULTIPOLES>  (1) 
325
11.56
2.13
0.6
0.78
0.49
0
-3.6
0
0.88
0
0.04
0.01
0

>  <PUBCHEM_SHAPE_SELFOVERLAP>  (1) 
667.022

>  <PUBCHEM_SHAPE_VOLUME>  (1) 
189.6

>  <PUBCHEM_COORDINATE_TYPE>  (1) 
2
5
10

$$$$
