42651
     RDKit          3D

 16 17  0  0  0  0  0  0  0  0999 V2000
    2.5464   -2.2947    0.0002 S   0  0  0  0  0  0  0  0  0  0  0  0
   -5.0961    0.8024    0.0020 O   0  0  0  0  0  0  0  0  0  0  0  0
   -4.4503   -1.3002    0.0016 O   0  0  0  0  0  0  0  0  0  0  0  0
    4.2236    2.0819    0.0030 O   0  0  0  0  0  0  0  0  0  0  0  0
   -1.8129   -0.5629    0.0002 N   0  0  0  0  0  0  0  0  0  0  0  0
    1.8775    0.2024   -0.0014 N   0  0  0  0  0  0  0  0  0  0  0  0
   -4.1778   -0.0659    0.0013 N   0  0  0  0  0  0  0  0  0  0  0  0
    4.2363   -0.2912   -0.0003 N   0  0  0  0  0  0  0  0  0  0  0  0
   -0.6135    0.1001   -0.0015 C   0  0  0  0  0  0  0  0  0  0  0  0
    0.7105   -0.5402   -0.0008 C   0  0  0  0  0  0  0  0  0  0  0  0
   -0.8784    1.4517   -0.0024 C   0  0  0  0  0  0  0  0  0  0  0  0
   -2.8394    0.3450   -0.0006 C   0  0  0  0  0  0  0  0  0  0  0  0
   -2.2868    1.6067   -0.0021 C   0  0  0  0  0  0  0  0  0  0  0  0
    0.8747   -1.9117    0.0001 C   0  0  0  0  0  0  0  0  0  0  0  0
    2.9057   -0.6167   -0.0009 C   0  0  0  0  0  0  0  0  0  0  0  0
    4.7805    0.9933    0.0015 C   0  0  0  0  0  0  0  0  0  0  0  0
  1 14  1  0
  1 15  1  0
  2  7  1  0
  3  7  2  0
  4 16  2  0
  5  9  1  0
  5 12  1  0
  6 10  1  0
  6 15  2  0
  7 12  1  0
  8 15  1  0
  8 16  1  0
  9 10  1  0
  9 11  2  0
 10 14  2  0
 11 13  1  0
 12 13  2  0
M  CHG  2   2  -1   7   1
M  END
>  <PUBCHEM_COMPOUND_CID>  (1) 
42651

>  <PUBCHEM_CONFORMER_RMSD>  (1) 
0.6

>  <PUBCHEM_CONFORMER_DIVERSEORDER>  (1) 
1
11
2
12
5
6
3
4
10
7
8
9

>  <PUBCHEM_MMFF94_PARTIAL_CHARGES>  (1) 
22
1 -0.08
10 0.23
11 -0.15
12 -0.07
13 -0.15
14 -0.11
15 0.44
16 0.57
17 0.27
18 0.15
19 0.15
2 -0.52
20 0.15
21 0.37
22 0.06
3 -0.52
4 -0.57
5 0.03
6 -0.57
7 0.96
8 -0.49
9 -0.15

>  <PUBCHEM_EFFECTIVE_ROTOR_COUNT>  (1) 
4

>  <PUBCHEM_PHARMACOPHORE_FEATURES>  (1) 
9
1 2 acceptor
1 2 anion
1 3 acceptor
1 4 acceptor
1 5 cation
1 5 donor
1 8 donor
5 1 6 10 14 15 rings
5 5 9 11 12 13 rings

>  <PUBCHEM_HEAVY_ATOM_COUNT>  (1) 
16

>  <PUBCHEM_ATOM_DEF_STEREO_COUNT>  (1) 
0

>  <PUBCHEM_ATOM_UDEF_STEREO_COUNT>  (1) 
0

>  <PUBCHEM_BOND_DEF_STEREO_COUNT>  (1) 
0

>  <PUBCHEM_BOND_UDEF_STEREO_COUNT>  (1) 
0

>  <PUBCHEM_ISOTOPIC_ATOM_COUNT>  (1) 
0

>  <PUBCHEM_COMPONENT_COUNT>  (1) 
1

>  <PUBCHEM_CACTVS_TAUTO_COUNT>  (1) 
3

>  <PUBCHEM_CONFORMER_ID>  (1) 
0000A69B00000001

>  <PUBCHEM_MMFF94_ENERGY>  (1) 
17.5016

>  <PUBCHEM_FEATURE_SELFOVERLAP>  (1) 
45.749

>  <PUBCHEM_SHAPE_FINGERPRINT>  (1) 
10090160 65 18260261984080770142
10608611 8 18263924332885466972
11806522 49 18408604781601673231
12916754 54 18268713805245954274
13081056 2 18411983551043500828
13533116 47 17168135681461427394
14528608 73 18413107285838453028
14787075 74 18339358677208068115
15196674 1 18410573967987438695
15375358 24 18186804677391494683
15536298 74 18340771442544687678
17834072 33 18343862238349512063
18186145 218 18200319814665114164
200 152 18272364257528954069
20645477 56 17897163525175037837
20645477 70 18269272365758954895
21267235 1 18339651040175118670
21524375 3 18410292528124944386
21652331 79 18410291423975756772
22485316 2 18410572856118559647
22854114 59 18408886230771702296
23402539 116 18187358835583797151
23402655 69 18342452604455514447
23559900 14 18195238910913735762
25610 137 18413389808776608217
34934 24 18409725141406983303
4463277 17 18411420597148630985
449060 50 18408886221975935535
449060 62 18341895186430532760
474 4 18113624525369214660
474229 33 18410011082580300882
4990 188 17917721167135753030
5104073 3 18336829675968050867
5374978 207 18261108539314440776
537710 114 18413110580337188976
58051976 378 18342175548937068766
6333272 397 18409166632359932384
7364860 26 18340770317685450638
77779 3 18340488859313329771
9709674 26 18337678511730089234

>  <PUBCHEM_SHAPE_MULTIPOLES>  (1) 
295.59
9.78
2.07
0.58
2.64
0.27
0
-2.24
0.01
-1.56
0
-0.05
0.02
0

>  <PUBCHEM_SHAPE_SELFOVERLAP>  (1) 
622.325

>  <PUBCHEM_SHAPE_VOLUME>  (1) 
168.4

>  <PUBCHEM_COORDINATE_TYPE>  (1) 
2
5
10

$$$$
