42654
     RDKit          3D

 12 13  0  0  0  0  0  0  0  0999 V2000
    2.9049    1.4392    0.0000 S   0  0  0  0  0  0  0  0  0  0  0  0
   -2.9050   -1.4392   -0.0001 S   0  0  0  0  0  0  0  0  0  0  0  0
    1.6473   -0.8193    0.0003 N   0  0  0  0  0  0  0  0  0  0  0  0
   -1.6472    0.8193    0.0002 N   0  0  0  0  0  0  0  0  0  0  0  0
    4.0060   -0.9819   -0.0006 N   0  0  0  0  0  0  0  0  0  0  0  0
   -4.0060    0.9820   -0.0006 N   0  0  0  0  0  0  0  0  0  0  0  0
    0.7004    0.1864    0.0002 C   0  0  0  0  0  0  0  0  0  0  0  0
   -0.7004   -0.1864    0.0002 C   0  0  0  0  0  0  0  0  0  0  0  0
    1.1904    1.4756    0.0001 C   0  0  0  0  0  0  0  0  0  0  0  0
   -1.1903   -1.4755    0.0001 C   0  0  0  0  0  0  0  0  0  0  0  0
    2.8442   -0.2759    0.0002 C   0  0  0  0  0  0  0  0  0  0  0  0
   -2.8442    0.2758    0.0002 C   0  0  0  0  0  0  0  0  0  0  0  0
  1  9  1  0
  1 11  1  0
  2 10  1  0
  2 12  1  0
  3  7  1  0
  3 11  2  0
  4  8  1  0
  4 12  2  0
  5 11  1  0
  6 12  1  0
  7  8  1  0
  7  9  2  0
  8 10  2  0
M  END
>  <PUBCHEM_COMPOUND_CID>  (1) 
42654

>  <PUBCHEM_CONFORMER_RMSD>  (1) 
0.4

>  <PUBCHEM_CONFORMER_DIVERSEORDER>  (1) 
1
2

>  <PUBCHEM_MMFF94_PARTIAL_CHARGES>  (1) 
18
1 -0.08
10 -0.11
11 0.46
12 0.46
13 0.15
14 0.15
15 0.4
16 0.4
17 0.4
18 0.4
2 -0.08
3 -0.57
4 -0.57
5 -0.88
6 -0.88
7 0.23
8 0.23
9 -0.11

>  <PUBCHEM_EFFECTIVE_ROTOR_COUNT>  (1) 
1

>  <PUBCHEM_PHARMACOPHORE_FEATURES>  (1) 
6
1 5 donor
1 6 donor
3 3 5 11 cation
3 4 6 12 cation
5 1 3 7 9 11 rings
5 2 4 8 10 12 rings

>  <PUBCHEM_HEAVY_ATOM_COUNT>  (1) 
12

>  <PUBCHEM_ATOM_DEF_STEREO_COUNT>  (1) 
0

>  <PUBCHEM_ATOM_UDEF_STEREO_COUNT>  (1) 
0

>  <PUBCHEM_BOND_DEF_STEREO_COUNT>  (1) 
0

>  <PUBCHEM_BOND_UDEF_STEREO_COUNT>  (1) 
0

>  <PUBCHEM_ISOTOPIC_ATOM_COUNT>  (1) 
0

>  <PUBCHEM_COMPONENT_COUNT>  (1) 
1

>  <PUBCHEM_CACTVS_TAUTO_COUNT>  (1) 
3

>  <PUBCHEM_CONFORMER_ID>  (1) 
0000A69E00000001

>  <PUBCHEM_MMFF94_ENERGY>  (1) 
11.8735

>  <PUBCHEM_FEATURE_SELFOVERLAP>  (1) 
30.446

>  <PUBCHEM_SHAPE_FINGERPRINT>  (1) 
10130415 120 18412542089822786288
10608611 8 18339357573422903265
11062470 55 16487252153588636504
11471102 20 18410852161720119516
12032990 46 18410016554278711850
12932764 1 17559676328856288386
13296908 3 18337110163054965706
13380535 76 18341895164982479399
14144814 61 18410855494487900299
14325111 11 18410574028164512065
14965852 173 18410574023985732247
15219456 202 18339642342633897952
15442244 35 18411138000531295928
15536298 74 18342175609288085320
15775835 57 18261114066969044409
16945 1 18338798914062254086
18186145 218 17894905248006837654
18511873 20 18410855438653325409
19422 9 18335143132410447358
200 152 17917702535441048279
20201158 50 18343022164073778702
20279233 1 15769776857511425958
20645477 70 18341892987133399678
20871998 184 18056767743851829799
21501502 16 18338517559349909079
21501925 9 18338504344289498810
23402539 116 18059566963365028741
23402655 69 18341608218117122565
23463225 33 18409729547658404582
23552423 10 18189052151993654071
23559900 14 18343298159415738866
2748010 2 18338797930514743447
3248919 1 17531808098622596320
5104073 3 18410856593999528928
6430166 295 18336825286696421037
69090 78 18341888606693785095
7364860 26 18270119162038346776
8809292 202 18334018297776976042
93112 12 18410855477308031117

>  <PUBCHEM_SHAPE_MULTIPOLES>  (1) 
234.73
6.63
1.63
0.6
0
0
0
0
0
0
0
0
0
0

>  <PUBCHEM_SHAPE_SELFOVERLAP>  (1) 
481.567

>  <PUBCHEM_SHAPE_VOLUME>  (1) 
139.3

>  <PUBCHEM_COORDINATE_TYPE>  (1) 
2
5
10

$$$$
