42655
     RDKit          3D

 18 19  0  0  0  0  0  0  0  0999 V2000
    6.5165   -1.0004    0.0195 S   0  0  0  0  0  0  0  0  0  0  0  0
   -6.5157    1.0023    0.0190 S   0  0  0  0  0  0  0  0  0  0  0  0
    1.9397   -1.4880    0.0036 O   0  0  0  0  0  0  0  0  0  0  0  0
   -1.9389    1.4865    0.0041 O   0  0  0  0  0  0  0  0  0  0  0  0
    2.9931    0.6142   -0.0030 N   0  0  0  0  0  0  0  0  0  0  0  0
   -2.9935   -0.6150   -0.0023 N   0  0  0  0  0  0  0  0  0  0  0  0
    5.2955    1.2780    0.0044 N   0  0  0  0  0  0  0  0  0  0  0  0
   -5.2965   -1.2771    0.0045 N   0  0  0  0  0  0  0  0  0  0  0  0
    0.5899    0.4829   -0.0518 C   0  0  0  0  0  0  0  0  0  0  0  0
   -0.5901   -0.4849   -0.0519 C   0  0  0  0  0  0  0  0  0  0  0  0
    1.9150   -0.2607   -0.0032 C   0  0  0  0  0  0  0  0  0  0  0  0
   -1.9149    0.2592   -0.0026 C   0  0  0  0  0  0  0  0  0  0  0  0
    4.3525    0.2830    0.0053 C   0  0  0  0  0  0  0  0  0  0  0  0
   -4.3528   -0.2826    0.0056 C   0  0  0  0  0  0  0  0  0  0  0  0
    4.8015   -1.0090    0.0130 C   0  0  0  0  0  0  0  0  0  0  0  0
   -4.8007    1.0096    0.0129 C   0  0  0  0  0  0  0  0  0  0  0  0
    6.4835    0.7152    0.0115 C   0  0  0  0  0  0  0  0  0  0  0  0
   -6.4840   -0.7133    0.0113 C   0  0  0  0  0  0  0  0  0  0  0  0
  1 15  1  0
  1 17  1  0
  2 16  1  0
  2 18  1  0
  3 11  2  0
  4 12  2  0
  5 11  1  0
  5 13  1  0
  6 12  1  0
  6 14  1  0
  7 13  1  0
  7 17  2  0
  8 14  1  0
  8 18  2  0
  9 10  1  0
  9 11  1  0
 10 12  1  0
 13 15  2  0
 14 16  2  0
M  END
>  <PUBCHEM_COMPOUND_CID>  (1) 
42655

>  <PUBCHEM_CONFORMER_RMSD>  (1) 
0.8

>  <PUBCHEM_CONFORMER_DIVERSEORDER>  (1) 
1
7
5
6
4
15
13
3
9
17
2
16
10
11
14
12
8

>  <PUBCHEM_MMFF94_PARTIAL_CHARGES>  (1) 
24
1 -0.08
10 0.06
11 0.57
12 0.57
13 0.29
14 0.29
15 -0.11
16 -0.11
17 0.23
18 0.23
2 -0.08
23 0.37
24 0.37
25 0.15
26 0.15
27 0.15
28 0.15
3 -0.57
4 -0.57
5 -0.49
6 -0.49
7 -0.57
8 -0.57
9 0.06

>  <PUBCHEM_EFFECTIVE_ROTOR_COUNT>  (1) 
7

>  <PUBCHEM_PHARMACOPHORE_FEATURES>  (1) 
8
1 3 acceptor
1 4 acceptor
1 5 donor
1 6 donor
1 7 acceptor
1 8 acceptor
5 1 7 13 15 17 rings
5 2 8 14 16 18 rings

>  <PUBCHEM_HEAVY_ATOM_COUNT>  (1) 
18

>  <PUBCHEM_ATOM_DEF_STEREO_COUNT>  (1) 
0

>  <PUBCHEM_ATOM_UDEF_STEREO_COUNT>  (1) 
0

>  <PUBCHEM_BOND_DEF_STEREO_COUNT>  (1) 
0

>  <PUBCHEM_BOND_UDEF_STEREO_COUNT>  (1) 
0

>  <PUBCHEM_ISOTOPIC_ATOM_COUNT>  (1) 
0

>  <PUBCHEM_COMPONENT_COUNT>  (1) 
1

>  <PUBCHEM_CACTVS_TAUTO_COUNT>  (1) 
3

>  <PUBCHEM_CONFORMER_ID>  (1) 
0000A69F00000001

>  <PUBCHEM_MMFF94_ENERGY>  (1) 
27.8085

>  <PUBCHEM_FEATURE_SELFOVERLAP>  (1) 
40.598

>  <PUBCHEM_SHAPE_FINGERPRINT>  (1) 
10968037 39 18410292519534814919
11315181 36 18272934934482196361
11524674 6 16558749035873715087
11719270 70 18131348575436710398
12091667 2 18408886244257867443
12166972 35 18187367631930572916
12236239 1 18410575088958046255
12516196 113 18343581849894350569
12916748 109 16415484839890851672
13167372 99 18340771455334975352
13288520 33 18410573998964793909
13533116 47 17168416065880435242
1420 363 18335424568727197050
14251718 22 18410573985167281921
14251732 16 18410574010921255011
14251764 18 18410855468718096429
14251764 46 18410291410668400451
14933364 13 18410575084663325781
15716309 27 18343019999758284719
17093844 174 18113616790475863025
17834072 33 18343581854109865142
17834076 25 18409729564532110723
19489759 90 16877942728947163613
200 152 18272369776213886833
20281389 69 18408039606586582912
21267235 1 18410580582221224300
21315763 28 18411136935120696717
220451 1 16081087082262954466
22224240 67 16950280737231273018
23035841 295 18261109668801311635
23402539 116 18411133649818868687
23521765 1 18341895194640646151
23536379 177 18410573976561516771
23559900 14 18339636849946090425
300161 21 18187079534329861171
34797466 226 17060064778547493780
3545911 37 18408603651740424726
4073 2 18041285455885357394
42788 4 18410856563976974380
4325135 7 18410855460128162085
4463277 17 18411699885311715737
542803 24 17240767284777135813
57583515 80 18333733516065493233
59755656 215 18409733924393979998
59755656 520 17603863425166504907
8209 1 18410573985156732405

>  <PUBCHEM_SHAPE_MULTIPOLES>  (1) 
346.47
20.7
1.33
0.6
0
0
0
0.01
0.22
0
0
0
0
-0.01

>  <PUBCHEM_SHAPE_SELFOVERLAP>  (1) 
701.287

>  <PUBCHEM_SHAPE_VOLUME>  (1) 
203.7

>  <PUBCHEM_COORDINATE_TYPE>  (1) 
2
5
10

$$$$
