42657
     RDKit          3D

 22 24  0  0  1  0  0  0  0  0999 V2000
    1.0181    0.7553    1.5345 O   0  0  0  0  0  0  0  0  0  0  0  0
    3.6539    1.2769    1.3265 O   0  0  0  0  0  0  0  0  0  0  0  0
   -2.8157   -1.8465    0.7968 N   0  0  0  0  0  0  0  0  0  0  0  0
    0.0914    0.1887   -0.5004 N   0  0  0  0  0  0  0  0  0  0  0  0
   -2.3289   -0.1370   -0.9626 C   0  0  0  0  0  0  0  0  0  0  0  0
   -3.7398    0.4622   -0.7549 C   0  0  0  0  0  0  0  0  0  0  0  0
   -1.2422    0.6711   -0.2057 C   0  0  0  0  0  0  0  0  0  0  0  0
   -3.7739    1.9637   -1.0623 C   0  0  0  0  0  0  0  0  0  0  0  0
   -4.2643    0.1540    0.6581 C   0  0  0  0  0  0  0  0  0  0  0  0
   -2.3607   -1.6355   -0.5845 C   0  0  0  0  0  0  0  0  0  0  0  0
   -1.3183    2.1643   -0.5531 C   0  0  0  0  0  0  0  0  0  0  0  0
   -2.7034    2.7496   -0.3152 C   0  0  0  0  0  0  0  0  0  0  0  0
   -4.1828   -1.3401    0.9749 C   0  0  0  0  0  0  0  0  0  0  0  0
   -2.7483   -3.2649    1.1481 C   0  0  0  0  0  0  0  0  0  0  0  0
    1.1580    0.2659    0.4142 C   0  0  0  0  0  0  0  0  0  0  0  0
    2.4438   -0.2945   -0.0226 C   0  0  0  0  0  0  0  0  0  0  0  0
    3.6380    0.2328    0.4507 C   0  0  0  0  0  0  0  0  0  0  0  0
    2.4380   -1.3577   -0.9161 C   0  0  0  0  0  0  0  0  0  0  0  0
    4.8483   -0.3130    0.0228 C   0  0  0  0  0  0  0  0  0  0  0  0
    3.6485   -1.9032   -1.3440 C   0  0  0  0  0  0  0  0  0  0  0  0
    4.8535   -1.3809   -0.8746 C   0  0  0  0  0  0  0  0  0  0  0  0
    3.6868    2.5890    0.7692 C   0  0  0  0  0  0  0  0  0  0  0  0
  1 15  2  0
  2 17  1  0
  2 22  1  0
  3 10  1  0
  3 13  1  0
  3 14  1  0
  4  7  1  0
  4 15  1  0
  5  6  1  0
  5  7  1  0
  5 10  1  0
  6  8  1  0
  6  9  1  0
  7 11  1  0
  8 12  1  0
  9 13  1  0
 11 12  1  0
 15 16  1  0
 16 17  2  0
 16 18  1  0
 17 19  1  0
 18 20  2  0
 19 21  2  0
 20 21  1  0
M  END
>  <PUBCHEM_COMPOUND_CID>  (1) 
42657

>  <PUBCHEM_CONFORMER_RMSD>  (1) 
0.8

>  <PUBCHEM_CONFORMER_DIVERSEORDER>  (1) 
11
38
1
28
36
44
14
15
39
31
29
33
34
5
8
20
37
22
2
43
27
4
16
10
23
45
3
17
18
25
35
42
19
6
30
26
40
41
24
32
21
12
9
13
7

>  <PUBCHEM_MMFF94_PARTIAL_CHARGES>  (1) 
21
1 -0.57
10 0.27
13 0.27
14 0.27
15 0.54
16 0.09
17 0.08
18 -0.15
19 -0.15
2 -0.36
20 -0.15
21 -0.15
22 0.28
3 -0.81
38 0.37
4 -0.73
42 0.15
43 0.15
44 0.15
45 0.15
7 0.3

>  <PUBCHEM_EFFECTIVE_ROTOR_COUNT>  (1) 
5.6

>  <PUBCHEM_PHARMACOPHORE_FEATURES>  (1) 
7
1 1 acceptor
1 2 acceptor
1 3 cation
1 4 donor
6 16 17 18 19 20 21 rings
6 3 5 6 9 10 13 rings
6 5 6 7 8 11 12 rings

>  <PUBCHEM_HEAVY_ATOM_COUNT>  (1) 
22

>  <PUBCHEM_ATOM_DEF_STEREO_COUNT>  (1) 
2

>  <PUBCHEM_ATOM_UDEF_STEREO_COUNT>  (1) 
1

>  <PUBCHEM_BOND_DEF_STEREO_COUNT>  (1) 
0

>  <PUBCHEM_BOND_UDEF_STEREO_COUNT>  (1) 
0

>  <PUBCHEM_ISOTOPIC_ATOM_COUNT>  (1) 
0

>  <PUBCHEM_COMPONENT_COUNT>  (1) 
1

>  <PUBCHEM_CACTVS_TAUTO_COUNT>  (1) 
2

>  <PUBCHEM_CONFORMER_ID>  (1) 
0000A6A10000000B

>  <PUBCHEM_MMFF94_ENERGY>  (1) 
58.9788

>  <PUBCHEM_FEATURE_SELFOVERLAP>  (1) 
35.585

>  <PUBCHEM_SHAPE_FINGERPRINT>  (1) 
10366900 7 18343574148949053223
105312 117 17460020791878644157
107951 10 18190745224434771231
11370993 144 18130797737042370841
11405975 8 18411133611195915496
11552529 35 17487617652851196527
11796584 16 18188771622743932546
12173636 292 18043521716881580749
12236239 1 16443068274615951751
13034934 17 17984124127200844432
13224815 77 18259984898592167496
13402501 40 18413395323794613415
14251757 17 18341335483293455218
14251757 5 17895493516914366587
14386348 63 18413112757542638782
15163728 17 16810089495844374133
15375358 24 18412534410189152359
15961568 22 17896036706240620564
17349148 13 15574704803426327016
17844677 252 18334581239372623140
17913733 40 17631439241737336968
1813 80 17386287713596748061
200 152 16917058928330030732
20645477 70 17632855296385694414
20693207 138 18340778065373514014
21065198 57 18412260619088158846
21065201 7 18187360996020691442
21792961 116 18200887158898055398
22122407 14 16702035200835186827
221490 88 18342178873647703702
22943178 12 18412821391456283180
23557571 272 18334013929863645192
23559900 14 18411976928219650668
4015057 19 18059275631016627213
4214541 1 18339923714568505268
4921388 177 18187370904378562831
5104073 3 18411976940925432624
5281201 14 18343019961188241588
602551 16 18187086165364052322
6049 1 18413390929916118188
6287921 2 18337674242980944892
9709674 26 18413383237439579374

>  <PUBCHEM_SHAPE_MULTIPOLES>  (1) 
431.05
10.62
3.01
1.27
5.65
0.07
-0.09
1.27
0.06
-1.76
-0.39
0.13
0.18
2.84

>  <PUBCHEM_SHAPE_SELFOVERLAP>  (1) 
903.632

>  <PUBCHEM_SHAPE_VOLUME>  (1) 
240.1

>  <PUBCHEM_COORDINATE_TYPE>  (1) 
2
5
10

$$$$
