42660
     RDKit          3D

 26 28  0  0  1  0  0  0  0  0999 V2000
   -0.2452    0.5737   -2.1472 O   0  0  0  0  0  0  0  0  0  0  0  0
    3.5459   -2.0081    1.5365 O   0  0  0  0  0  0  0  0  0  0  0  0
    4.5047    1.9082   -1.0475 O   0  0  0  0  0  0  0  0  0  0  0  0
    5.3480   -0.0901    0.6737 O   0  0  0  0  0  0  0  0  0  0  0  0
   -3.5736    1.9651    0.8739 N   0  0  0  0  0  0  0  0  0  0  0  0
   -0.9118   -0.4923   -0.1992 N   0  0  0  0  0  0  0  0  0  0  0  0
   -3.2045   -0.5059    0.7603 C   0  0  0  0  0  0  0  0  0  0  0  0
   -4.7032   -0.7033    0.4319 C   0  0  0  0  0  0  0  0  0  0  0  0
   -2.3239   -0.5498   -0.5163 C   0  0  0  0  0  0  0  0  0  0  0  0
   -4.9403   -1.9501   -0.4280 C   0  0  0  0  0  0  0  0  0  0  0  0
   -5.2943    0.5608   -0.2156 C   0  0  0  0  0  0  0  0  0  0  0  0
   -3.0388    0.7933    1.5813 C   0  0  0  0  0  0  0  0  0  0  0  0
   -2.5977   -1.8184   -1.3359 C   0  0  0  0  0  0  0  0  0  0  0  0
   -4.0714   -1.9854   -1.6792 C   0  0  0  0  0  0  0  0  0  0  0  0
   -5.0124    1.8075    0.6244 C   0  0  0  0  0  0  0  0  0  0  0  0
   -3.3201    3.1859    1.6389 C   0  0  0  0  0  0  0  0  0  0  0  0
    0.0164    0.0733   -1.0565 C   0  0  0  0  0  0  0  0  0  0  0  0
    1.4287    0.0303   -0.5976 C   0  0  0  0  0  0  0  0  0  0  0  0
    2.3039    0.9984   -1.0440 C   0  0  0  0  0  0  0  0  0  0  0  0
    1.8203   -0.9768    0.2602 C   0  0  0  0  0  0  0  0  0  0  0  0
    3.1464   -1.0175    0.6908 C   0  0  0  0  0  0  0  0  0  0  0  0
    3.6302    0.9578   -0.6136 C   0  0  0  0  0  0  0  0  0  0  0  0
    4.0514   -0.0501    0.2539 C   0  0  0  0  0  0  0  0  0  0  0  0
    2.5587   -2.9570    1.9352 C   0  0  0  0  0  0  0  0  0  0  0  0
    4.6199    3.0909   -0.2589 C   0  0  0  0  0  0  0  0  0  0  0  0
    6.2628   -0.8404   -0.1219 C   0  0  0  0  0  0  0  0  0  0  0  0
  1 17  2  0
  2 21  1  0
  2 24  1  0
  3 22  1  0
  3 25  1  0
  4 23  1  0
  4 26  1  0
  5 12  1  0
  5 15  1  0
  5 16  1  0
  6  9  1  0
  6 17  1  0
  7  8  1  0
  7  9  1  0
  7 12  1  0
  8 10  1  0
  8 11  1  0
  9 13  1  0
 10 14  1  0
 11 15  1  0
 13 14  1  0
 17 18  1  0
 18 19  2  0
 18 20  1  0
 19 22  1  0
 20 21  2  0
 21 23  1  0
 22 23  2  0
M  END
>  <PUBCHEM_COMPOUND_CID>  (1) 
42660

>  <PUBCHEM_CONFORMER_RMSD>  (1) 
0.8

>  <PUBCHEM_CONFORMER_DIVERSEORDER>  (1) 
67
37
98
82
27
48
71
40
101
95
74
91
38
89
110
81
28
69
114
80
99
86
97
33
42
72
84
100
92
49
25
112
77
34
41
102
90
113
26
64
58
83
16
44
106
36
75
60
11
104
115
35
107
68
61
96
87
88
111
103
65
31
39
63
59
43
51
116
52
62
70
66
1
109
93
94
55
32
108
3
45
6
12
54
50
56
85
5
20
10
14
79
57
47
4
105
73
9
53
30
13
78
46
19
2
29
7
22
15
21
8
17
76
18
23
24

>  <PUBCHEM_MMFF94_PARTIAL_CHARGES>  (1) 
23
1 -0.57
12 0.27
15 0.27
16 0.27
17 0.54
18 0.09
19 -0.15
2 -0.36
20 -0.15
21 0.08
22 0.08
23 0.08
24 0.28
25 0.28
26 0.28
3 -0.36
4 -0.36
42 0.37
46 0.15
47 0.15
5 -0.81
6 -0.73
9 0.3

>  <PUBCHEM_EFFECTIVE_ROTOR_COUNT>  (1) 
7.6

>  <PUBCHEM_PHARMACOPHORE_FEATURES>  (1) 
9
1 1 acceptor
1 2 acceptor
1 3 acceptor
1 4 acceptor
1 5 cation
1 6 donor
6 18 19 20 21 22 23 rings
6 5 7 8 11 12 15 rings
6 7 8 9 10 13 14 rings

>  <PUBCHEM_HEAVY_ATOM_COUNT>  (1) 
26

>  <PUBCHEM_ATOM_DEF_STEREO_COUNT>  (1) 
2

>  <PUBCHEM_ATOM_UDEF_STEREO_COUNT>  (1) 
1

>  <PUBCHEM_BOND_DEF_STEREO_COUNT>  (1) 
0

>  <PUBCHEM_BOND_UDEF_STEREO_COUNT>  (1) 
0

>  <PUBCHEM_ISOTOPIC_ATOM_COUNT>  (1) 
0

>  <PUBCHEM_COMPONENT_COUNT>  (1) 
1

>  <PUBCHEM_CACTVS_TAUTO_COUNT>  (1) 
2

>  <PUBCHEM_CONFORMER_ID>  (1) 
0000A6A400000043

>  <PUBCHEM_MMFF94_ENERGY>  (1) 
89.7074

>  <PUBCHEM_FEATURE_SELFOVERLAP>  (1) 
45.738

>  <PUBCHEM_SHAPE_FINGERPRINT>  (1) 
11089746 13 18410857655173182084
11595378 159 18343581845894463915
12107183 9 17906171746162120323
12236239 1 18411419539721500054
12596602 18 18337673126067401131
12670546 56 18410013255728043365
12788726 201 18272088361731228287
13167823 11 18410854369380964239
13533116 47 18261110777420079275
13583140 156 18261404351235214849
13631057 29 17902793299418683703
13726171 33 17631751446382741728
14386348 63 15936410039455761483
14739800 52 18201145659467101744
14849402 71 18263644121463305568
15142526 21 18048315836755794032
17818456 19 18127691522109645075
17844677 252 18343310283491315044
19377110 9 18337099163944342832
19489759 90 17917992772087739023
20511986 3 18408594864612234249
20645477 70 17313373543982013242
20739085 24 17822018622755773468
21033648 29 16298373682572336103
21033650 10 17985578660793691220
21065198 48 18409730677023631535
21792961 116 15482682256646518932
23522609 53 18116741568083637012
23557571 272 17203343221152414493
23559900 14 17488754354236623319
341906 21 17846498110549017793
3633792 109 18114730591343983479
508706 21 15697725822178995835
5104073 3 18187646937610611008
9849439 229 17483976882495354985
9981440 41 18200886072044469123

>  <PUBCHEM_SHAPE_MULTIPOLES>  (1) 
501.63
14.14
2.99
1.64
4.56
1.27
0.11
1.58
1.06
-0.43
0.96
-0.19
-0.38
-3.77

>  <PUBCHEM_SHAPE_SELFOVERLAP>  (1) 
1048.666

>  <PUBCHEM_SHAPE_VOLUME>  (1) 
282.5

>  <PUBCHEM_COORDINATE_TYPE>  (1) 
2
5
10

$$$$
