42668
     RDKit          3D

 20 22  0  0  0  0  0  0  0  0999 V2000
   -1.5435   -3.1448    0.0001 Cl  0  0  0  0  0  0  0  0  0  0  0  0
   -2.4012    3.0686   -0.0005 Cl  0  0  0  0  0  0  0  0  0  0  0  0
    3.0823   -2.5048   -0.0012 Cl  0  0  0  0  0  0  0  0  0  0  0  0
   -4.4837   -1.9739   -0.0001 Cl  0  0  0  0  0  0  0  0  0  0  0  0
   -4.9142    1.1452    0.0002 Cl  0  0  0  0  0  0  0  0  0  0  0  0
    5.5977   -0.5052    0.0002 Cl  0  0  0  0  0  0  0  0  0  0  0  0
    0.5278   -1.1339    0.0001 O   0  0  0  0  0  0  0  0  0  0  0  0
    0.1381    1.6932   -0.0003 O   0  0  0  0  0  0  0  0  0  0  0  0
   -0.7225   -0.5695    0.0001 C   0  0  0  0  0  0  0  0  0  0  0  0
   -0.9130    0.8115   -0.0001 C   0  0  0  0  0  0  0  0  0  0  0  0
    1.5790   -0.2523    0.0002 C   0  0  0  0  0  0  0  0  0  0  0  0
    1.3886    1.1288   -0.0001 C   0  0  0  0  0  0  0  0  0  0  0  0
   -1.8206   -1.4290    0.0002 C   0  0  0  0  0  0  0  0  0  0  0  0
   -2.2025    1.3417    0.0001 C   0  0  0  0  0  0  0  0  0  0  0  0
    2.8687   -0.7824    0.0005 C   0  0  0  0  0  0  0  0  0  0  0  0
    2.4867    1.9882   -0.0002 C   0  0  0  0  0  0  0  0  0  0  0  0
   -3.1115   -0.8999    0.0002 C   0  0  0  0  0  0  0  0  0  0  0  0
   -3.3022    0.4831    0.0002 C   0  0  0  0  0  0  0  0  0  0  0  0
    3.9683    0.0762    0.0005 C   0  0  0  0  0  0  0  0  0  0  0  0
    3.7776    1.4591    0.0001 C   0  0  0  0  0  0  0  0  0  0  0  0
  1 13  1  0
  2 14  1  0
  3 15  1  0
  4 17  1  0
  5 18  1  0
  6 19  1  0
  7  9  1  0
  7 11  1  0
  8 10  1  0
  8 12  1  0
  9 10  2  0
  9 13  1  0
 10 14  1  0
 11 12  2  0
 11 15  1  0
 12 16  1  0
 13 17  2  0
 14 18  2  0
 15 19  2  0
 16 20  2  0
 17 18  1  0
 19 20  1  0
M  END
>  <PUBCHEM_COMPOUND_CID>  (1) 
42668

>  <PUBCHEM_CONFORMER_RMSD>  (1) 
0.6

>  <PUBCHEM_CONFORMER_DIVERSEORDER>  (1) 
1

>  <PUBCHEM_MMFF94_PARTIAL_CHARGES>  (1) 
22
1 -0.18
10 0.08
11 0.08
12 0.08
13 0.18
14 0.18
15 0.18
16 -0.15
17 0.18
18 0.18
19 0.18
2 -0.18
20 -0.15
21 0.15
22 0.15
3 -0.18
4 -0.18
5 -0.18
6 -0.18
7 -0.17
8 -0.17
9 0.08

>  <PUBCHEM_EFFECTIVE_ROTOR_COUNT>  (1) 
0.4

>  <PUBCHEM_PHARMACOPHORE_FEATURES>  (1) 
5
1 7 acceptor
1 8 acceptor
6 11 12 15 16 19 20 rings
6 7 8 9 10 11 12 rings
6 9 10 13 14 17 18 rings

>  <PUBCHEM_HEAVY_ATOM_COUNT>  (1) 
20

>  <PUBCHEM_ATOM_DEF_STEREO_COUNT>  (1) 
0

>  <PUBCHEM_ATOM_UDEF_STEREO_COUNT>  (1) 
0

>  <PUBCHEM_BOND_DEF_STEREO_COUNT>  (1) 
0

>  <PUBCHEM_BOND_UDEF_STEREO_COUNT>  (1) 
0

>  <PUBCHEM_ISOTOPIC_ATOM_COUNT>  (1) 
0

>  <PUBCHEM_COMPONENT_COUNT>  (1) 
1

>  <PUBCHEM_CACTVS_TAUTO_COUNT>  (1) 
1

>  <PUBCHEM_CONFORMER_ID>  (1) 
0000A6AC00000001

>  <PUBCHEM_MMFF94_ENERGY>  (1) 
58.0128

>  <PUBCHEM_FEATURE_SELFOVERLAP>  (1) 
25.449

>  <PUBCHEM_SHAPE_FINGERPRINT>  (1) 
10411042 1 17906172107114355235
10608611 8 18411979174086944616
10616163 171 18411702127290263406
10967382 1 18410855425805346692
11578080 2 17058633286836758427
12107183 9 17688024215568944978
12173636 292 18410570648331394037
12236239 1 17894631457322621054
12403259 226 18341044215643863249
12553582 1 18267857466203241183
13140716 1 18123189275233449018
13583140 156 14261355730416760015
138480 1 16969421817252777155
13862211 1 18339922744407341999
14178342 30 18337656582254083186
14790565 3 17907585726616411617
14866123 147 16614772116757168850
15042514 8 18337394954247861707
15196674 1 18410856598310494880
15442244 35 18266458715814127602
15536298 74 18413389838740983528
16945 1 18338516446958751492
17492 89 18410855442991445587
17804303 29 18412829109396696884
1813 80 17240482532787910004
19591789 44 17977386036166553207
200 152 18131631209505191298
20510252 161 18342740715204391257
21267235 1 18338243755253802482
21421861 104 17896310317105188762
21501502 16 18411138043217023300
221490 88 18264776630759411538
2334 1 18338797818850900833
23402539 116 18342451565200003535
23557571 272 18271816768809036574
23558518 356 18262245421574043339
23559900 14 18413384354611325472
238 59 16671018815144851093
2748010 2 18337955562910915037
2871803 45 18335414724709698854
335352 9 18410573963703060316
34934 24 18410851062503962178
350125 39 18410014290941924513
3545911 37 18410575063204294092
4214541 1 18410575088958085185
474 4 17169556422647514068
5104073 3 18411136969491134944
559249 180 18335696122714731858
58051976 100 18409168800727631805
59755656 215 18338235959824428390
69090 78 18411979152748887909
7364860 26 18413107234778860610
8809292 202 18262238944689845842
9709674 26 18411705400018432702
9981440 41 17180250418752833768

>  <PUBCHEM_SHAPE_MULTIPOLES>  (1) 
411.07
9.67
3.16
0.62
3.54
0.51
0
0.6
0
-1.66
0
-0.01
0.01
0

>  <PUBCHEM_SHAPE_SELFOVERLAP>  (1) 
860.976

>  <PUBCHEM_SHAPE_VOLUME>  (1) 
237.1

>  <PUBCHEM_COORDINATE_TYPE>  (1) 
2
5
10

$$$$
