42667
     RDKit          3D

 21 22  0  0  0  0  0  0  0  0999 V2000
    2.8144    2.5355   -0.4514 Cl  0  0  0  0  0  0  0  0  0  0  0  0
   -2.8909   -1.4005    1.2308 O   0  0  0  0  0  0  0  0  0  0  0  0
   -5.9639    1.4635    0.4781 O   0  0  0  0  0  0  0  0  0  0  0  0
   -3.7137    1.7269    0.6034 O   0  0  0  0  0  0  0  0  0  0  0  0
    1.8069   -0.3348    0.0590 C   0  0  0  0  0  0  0  0  0  0  0  0
   -0.9167   -0.7247    0.1563 C   0  0  0  0  0  0  0  0  0  0  0  0
    3.2382   -0.1296    0.0071 C   0  0  0  0  0  0  0  0  0  0  0  0
    1.1299   -0.2263    1.2736 C   0  0  0  0  0  0  0  0  0  0  0  0
    1.1040   -0.6409   -1.1065 C   0  0  0  0  0  0  0  0  0  0  0  0
   -0.2501   -0.4239    1.3229 C   0  0  0  0  0  0  0  0  0  0  0  0
   -0.2760   -0.8384   -1.0572 C   0  0  0  0  0  0  0  0  0  0  0  0
   -2.3917   -0.9357    0.2082 C   0  0  0  0  0  0  0  0  0  0  0  0
   -3.2207   -0.5844   -1.0227 C   0  0  0  0  0  0  0  0  0  0  0  0
    3.7964    1.1311   -0.2178 C   0  0  0  0  0  0  0  0  0  0  0  0
    4.0733   -1.2341    0.1904 C   0  0  0  0  0  0  0  0  0  0  0  0
   -4.6013   -0.1187   -0.6374 C   0  0  0  0  0  0  0  0  0  0  0  0
    5.1821    1.2861   -0.2588 C   0  0  0  0  0  0  0  0  0  0  0  0
    5.4590   -1.0789    0.1491 C   0  0  0  0  0  0  0  0  0  0  0  0
    6.0133    0.1810   -0.0755 C   0  0  0  0  0  0  0  0  0  0  0  0
   -4.6886    1.1080    0.2013 C   0  0  0  0  0  0  0  0  0  0  0  0
   -5.7040   -0.7610   -1.0527 C   0  0  0  0  0  0  0  0  0  0  0  0
  1 14  1  0
  2 12  2  0
  3 20  1  0
  4 20  2  0
  5  7  1  0
  5  8  2  0
  5  9  1  0
  6 10  2  0
  6 11  1  0
  6 12  1  0
  7 14  2  0
  7 15  1  0
  8 10  1  0
  9 11  2  0
 12 13  1  0
 13 16  1  0
 14 17  1  0
 15 18  2  0
 16 20  1  0
 16 21  2  0
 17 19  2  0
 18 19  1  0
M  END
>  <PUBCHEM_COMPOUND_CID>  (1) 
42667

>  <PUBCHEM_CONFORMER_RMSD>  (1) 
0.8

>  <PUBCHEM_CONFORMER_DIVERSEORDER>  (1) 
1
38
36
49
6
23
53
11
40
52
22
43
7
56
21
48
50
16
26
47
14
31
42
57
35
20
32
5
39
46
18
19
44
51
45
41
17
33
15
2
54
34
27
37
25
13
3
29
30
10
4
12
28
55
9
24
8

>  <PUBCHEM_MMFF94_PARTIAL_CHARGES>  (1) 
30
1 -0.18
10 -0.15
11 -0.15
12 0.42
13 0.2
14 0.18
15 -0.15
16 -0.12
17 -0.15
18 -0.15
19 -0.15
2 -0.57
20 0.71
21 -0.3
22 0.15
23 0.15
24 0.15
25 0.15
28 0.15
29 0.15
3 -0.65
30 0.15
31 0.15
32 0.15
33 0.15
34 0.5
4 -0.57
6 0.09
8 -0.15
9 -0.15

>  <PUBCHEM_EFFECTIVE_ROTOR_COUNT>  (1) 
5

>  <PUBCHEM_PHARMACOPHORE_FEATURES>  (1) 
7
1 2 acceptor
1 21 hydrophobe
1 3 acceptor
1 4 acceptor
3 3 4 20 anion
6 5 6 8 9 10 11 rings
6 7 14 15 17 18 19 rings

>  <PUBCHEM_HEAVY_ATOM_COUNT>  (1) 
21

>  <PUBCHEM_ATOM_DEF_STEREO_COUNT>  (1) 
0

>  <PUBCHEM_ATOM_UDEF_STEREO_COUNT>  (1) 
0

>  <PUBCHEM_BOND_DEF_STEREO_COUNT>  (1) 
0

>  <PUBCHEM_BOND_UDEF_STEREO_COUNT>  (1) 
0

>  <PUBCHEM_ISOTOPIC_ATOM_COUNT>  (1) 
0

>  <PUBCHEM_COMPONENT_COUNT>  (1) 
1

>  <PUBCHEM_CACTVS_TAUTO_COUNT>  (1) 
3

>  <PUBCHEM_CONFORMER_ID>  (1) 
0000A6AB00000001

>  <PUBCHEM_MMFF94_ENERGY>  (1) 
60.5014

>  <PUBCHEM_FEATURE_SELFOVERLAP>  (1) 
35.58

>  <PUBCHEM_SHAPE_FINGERPRINT>  (1) 
10 15 15140965084060895908
10595046 47 18341609360372584471
106641 1 14201689688163412580
11089746 13 18260263053379699809
11405975 8 18187083992094627066
117890 112 18410856560009054704
12107183 9 17762616187940392546
12166972 35 17989203784742423984
12236239 1 18131630084777933630
12403259 415 17060328648178685555
12670546 56 18260542303642556978
13167372 99 18340487776939717520
13288520 33 8646765600051930283
13533116 47 17822847577335096050
13583140 156 18336270157683390610
13675066 3 16081087073836725055
13785724 45 17765435344930357886
14251752 14 17775565308115903415
14251764 18 18334573547581769260
14341114 176 18113058229330197788
15048467 5 18409729560558922836
15183329 4 18411698772941403980
15788980 27 18131071536817759550
17349148 13 14333131900969988642
17844677 252 18336836397549865083
18186145 218 17603578655943888378
18222031 100 14333406744701843290
19489759 90 18273493464154705571
200 152 17988923370654049674
20281389 69 18187079546650618133
20645477 56 17312817186845465951
20645477 70 18412261706116513070
20832881 197 18040714741326883930
21033648 144 18189324822292897812
21033648 29 17750234871342459816
21033650 10 17416153661847879304
21150785 3 17274537736905909948
21503847 285 18113898290721457772
221357 26 18334285474733854916
22224240 67 16370729223509085529
23198884 109 18410291411233013331
23402539 116 18272084989680201909
23402655 69 18409449224075697198
23536379 177 18413668002356217102
23557571 272 13614252481125518058
23559900 14 18261392278292979770
23569914 152 13105941452530132641
23569943 247 17097196243652631082
239999 70 7925638830196443896
2838139 119 18410291419438339381
29717793 49 17989212530144761766
3004659 81 18060139800354498334
3009799 131 15123504787924920539
351380 180 18409729568827350996
3545911 37 17458061569173543099
4073 2 17967819400822414466
4325135 7 18273494585784527493
474 4 17968095390556013164
5104073 3 17822290240618730344
542803 24 18411134731881777095
54446538 1 18411978079017957893
59755656 520 18040996237799971603
633830 44 18114456864002828198
7495541 125 17703503419443170723
8272917 22 18411702046102681238

>  <PUBCHEM_SHAPE_MULTIPOLES>  (1) 
416.43
14.55
1.73
1.11
4.25
1.04
-0.07
2.86
1.3
-0.43
-0.02
0.67
-0.2
-0.84

>  <PUBCHEM_SHAPE_SELFOVERLAP>  (1) 
889.93

>  <PUBCHEM_SHAPE_VOLUME>  (1) 
230.3

>  <PUBCHEM_COORDINATE_TYPE>  (1) 
2
5
10

$$$$
