42661
     RDKit          3D

 21 23  0  0  1  0  0  0  0  0999 V2000
   -6.7141    0.2472    1.1676 Cl  0  0  0  0  0  0  0  0  0  0  0  0
   -0.8953   -1.7208   -1.3852 O   0  0  0  0  0  0  0  0  0  0  0  0
    4.1632   -1.3891    0.3385 N   0  0  0  0  0  0  0  0  0  0  0  0
   -0.2989    0.4116   -0.6981 N   0  0  0  0  0  0  0  0  0  0  0  0
    1.9916   -0.2459   -0.0734 C   0  0  0  0  0  0  0  0  0  0  0  0
    2.2764    0.7543    1.0691 C   0  0  0  0  0  0  0  0  0  0  0  0
    1.0731    0.3570   -1.1592 C   0  0  0  0  0  0  0  0  0  0  0  0
    2.7521    2.1187    0.5444 C   0  0  0  0  0  0  0  0  0  0  0  0
    3.2790    0.1470    2.0602 C   0  0  0  0  0  0  0  0  0  0  0  0
    3.3041   -0.7802   -0.6874 C   0  0  0  0  0  0  0  0  0  0  0  0
    1.5300    1.7409   -1.6312 C   0  0  0  0  0  0  0  0  0  0  0  0
    1.7761    2.7025   -0.4715 C   0  0  0  0  0  0  0  0  0  0  0  0
    4.5254   -0.4166    1.3760 C   0  0  0  0  0  0  0  0  0  0  0  0
    5.3652   -1.9580   -0.2710 C   0  0  0  0  0  0  0  0  0  0  0  0
   -1.1745   -0.6489   -0.8547 C   0  0  0  0  0  0  0  0  0  0  0  0
   -2.5547   -0.4256   -0.3521 C   0  0  0  0  0  0  0  0  0  0  0  0
   -3.2989   -1.5131    0.0552 C   0  0  0  0  0  0  0  0  0  0  0  0
   -3.0472    0.8622   -0.3071 C   0  0  0  0  0  0  0  0  0  0  0  0
   -4.5941   -1.3037    0.5287 C   0  0  0  0  0  0  0  0  0  0  0  0
   -4.3425    1.0718    0.1664 C   0  0  0  0  0  0  0  0  0  0  0  0
   -5.1160   -0.0112    0.5845 C   0  0  0  0  0  0  0  0  0  0  0  0
  1 21  1  0
  2 15  2  0
  3 10  1  0
  3 13  1  0
  3 14  1  0
  4  7  1  0
  4 15  1  0
  5  6  1  0
  5  7  1  0
  5 10  1  0
  6  8  1  0
  6  9  1  0
  7 11  1  0
  8 12  1  0
  9 13  1  0
 11 12  1  0
 15 16  1  0
 16 17  2  0
 16 18  1  0
 17 19  1  0
 18 20  2  0
 19 21  2  0
 20 21  1  0
M  END
>  <PUBCHEM_COMPOUND_CID>  (1) 
42661

>  <PUBCHEM_CONFORMER_RMSD>  (1) 
0.8

>  <PUBCHEM_CONFORMER_DIVERSEORDER>  (1) 
3
2
5
6
9
1
4
10
7
8

>  <PUBCHEM_MMFF94_PARTIAL_CHARGES>  (1) 
20
1 -0.18
10 0.27
13 0.27
14 0.27
15 0.54
16 0.09
17 -0.15
18 -0.15
19 -0.15
2 -0.57
20 -0.15
21 0.18
3 -0.81
37 0.37
4 -0.73
41 0.15
42 0.15
43 0.15
44 0.15
7 0.3

>  <PUBCHEM_EFFECTIVE_ROTOR_COUNT>  (1) 
4.6

>  <PUBCHEM_PHARMACOPHORE_FEATURES>  (1) 
6
1 2 acceptor
1 3 cation
1 4 donor
6 16 17 18 19 20 21 rings
6 3 5 6 9 10 13 rings
6 5 6 7 8 11 12 rings

>  <PUBCHEM_HEAVY_ATOM_COUNT>  (1) 
21

>  <PUBCHEM_ATOM_DEF_STEREO_COUNT>  (1) 
2

>  <PUBCHEM_ATOM_UDEF_STEREO_COUNT>  (1) 
1

>  <PUBCHEM_BOND_DEF_STEREO_COUNT>  (1) 
0

>  <PUBCHEM_BOND_UDEF_STEREO_COUNT>  (1) 
0

>  <PUBCHEM_ISOTOPIC_ATOM_COUNT>  (1) 
0

>  <PUBCHEM_COMPONENT_COUNT>  (1) 
1

>  <PUBCHEM_CACTVS_TAUTO_COUNT>  (1) 
2

>  <PUBCHEM_CONFORMER_ID>  (1) 
0000A6A500000003

>  <PUBCHEM_MMFF94_ENERGY>  (1) 
42.3792

>  <PUBCHEM_FEATURE_SELFOVERLAP>  (1) 
30.501

>  <PUBCHEM_SHAPE_FINGERPRINT>  (1) 
10319926 262 18410019823492577411
10498660 4 9511465536825911955
10928967 22 16878490302480238547
11140007 195 18343582919641517214
11405975 8 18411423942558759683
12507560 40 18408599279701425749
12553582 1 17603856797809926826
12633257 1 18187368744437352547
12670546 177 9007062365875760427
128620 24 9223228568004649149
13103583 49 18114456769334206577
13150687 139 8214136383347050736
13533116 47 18042125517639873483
13583140 156 17968638468217638159
13675066 3 18273492381722661735
14223995 32 17909553853126710089
14251758 9 18334570218739392125
14251764 30 18041559131618183194
14341114 176 18411139134212647769
14420673 8 18336831870649774930
14528608 73 9799689294464539323
14739800 52 17844806095303976400
15188451 53 18338786931847965859
15238133 3 17988938738453483401
15475509 84 17417526900869246824
15527383 91 18409164416030356452
15537594 2 16225766324320743323
17492 89 18191590959087692259
1813 80 17822286864938056548
18222031 100 15140960707974608567
18335252 98 11023819588304544685
19862831 5 10015598223973753789
20567600 254 8862649193486145534
20871999 31 7997973488094676079
21033648 29 17845352389220599873
21065198 48 18265052608130490989
21150785 3 12967121676616509961
21503847 285 18335138708720765640
21521239 73 11819271123541517232
21521721 280 16732996353352115964
21774942 28 15122676761517503081
21859007 373 17969767619626390021
2215653 11 13479129130018671115
22393880 68 8790620233388207136
22950370 63 17968377849533778610
23503953 91 18341330080561823363
23559900 14 18335426802400172599
23596394 208 11746930997052267702
23622692 88 18201716254171581094
239999 70 12396305871773647798
2871803 45 10881399816170489614
3060560 45 9295283950477239578
312423 11 18189898789233026399
3411729 13 18189899893477886932
34797466 226 11314318226025018987
351380 180 17060335210846372739
351380 3 17095242501551983795
3680242 22 18271821133277018689
3737641 26 17678447572476343386
465052 167 17167870759478760875
5104073 3 18338248171286876251
57724786 102 17274817004111623912
5924683 9 17916857058481877487
7097593 13 18265043820115889036
8509985 295 17917711309632076617
8863177 126 17023482952838384035
960060 61 8142091935998105145
9841814 1 17749099020086108112

>  <PUBCHEM_SHAPE_MULTIPOLES>  (1) 
418.21
12.98
2.11
1.45
12.72
0.74
-0.27
-3.85
-5.45
-1.84
0.42
-0.99
0.12
-0.09

>  <PUBCHEM_SHAPE_SELFOVERLAP>  (1) 
870.793

>  <PUBCHEM_SHAPE_VOLUME>  (1) 
237.5

>  <PUBCHEM_COORDINATE_TYPE>  (1) 
2
5
10

$$$$
