42670
     RDKit          3D

 20 22  0  0  0  0  0  0  0  0999 V2000
   -1.8261    3.1361    0.0009 Cl  0  0  0  0  0  0  0  0  0  0  0  0
   -1.8272   -3.1360   -0.0018 Cl  0  0  0  0  0  0  0  0  0  0  0  0
   -4.5792    1.5749   -0.0014 Cl  0  0  0  0  0  0  0  0  0  0  0  0
   -4.5799   -1.5737    0.0029 Cl  0  0  0  0  0  0  0  0  0  0  0  0
    2.9070    3.1236    0.0006 Cl  0  0  0  0  0  0  0  0  0  0  0  0
    2.9059   -3.1240    0.0035 Cl  0  0  0  0  0  0  0  0  0  0  0  0
    0.4999    1.4269    0.0002 O   0  0  0  0  0  0  0  0  0  0  0  0
    0.4999   -1.4269   -0.0012 O   0  0  0  0  0  0  0  0  0  0  0  0
   -0.6617    0.6970    0.0000 C   0  0  0  0  0  0  0  0  0  0  0  0
   -0.6617   -0.6970   -0.0007 C   0  0  0  0  0  0  0  0  0  0  0  0
    1.6616    0.6970   -0.0002 C   0  0  0  0  0  0  0  0  0  0  0  0
    1.6616   -0.6972   -0.0007 C   0  0  0  0  0  0  0  0  0  0  0  0
   -1.8668    1.3984    0.0006 C   0  0  0  0  0  0  0  0  0  0  0  0
   -1.8669   -1.3985   -0.0010 C   0  0  0  0  0  0  0  0  0  0  0  0
    2.8668    1.3983    0.0001 C   0  0  0  0  0  0  0  0  0  0  0  0
    2.8668   -1.3985   -0.0010 C   0  0  0  0  0  0  0  0  0  0  0  0
   -3.0734    0.6980    0.0004 C   0  0  0  0  0  0  0  0  0  0  0  0
   -3.0734   -0.6980   -0.0004 C   0  0  0  0  0  0  0  0  0  0  0  0
    4.0734    0.6979   -0.0001 C   0  0  0  0  0  0  0  0  0  0  0  0
    4.0734   -0.6981   -0.0006 C   0  0  0  0  0  0  0  0  0  0  0  0
  1 13  1  0
  2 14  1  0
  3 17  1  0
  4 18  1  0
  5 15  1  0
  6 16  1  0
  7  9  1  0
  7 11  1  0
  8 10  1  0
  8 12  1  0
  9 10  2  0
  9 13  1  0
 10 14  1  0
 11 12  2  0
 11 15  1  0
 12 16  1  0
 13 17  2  0
 14 18  2  0
 15 19  2  0
 16 20  2  0
 17 18  1  0
 19 20  1  0
M  END
>  <PUBCHEM_COMPOUND_CID>  (1) 
42670

>  <PUBCHEM_CONFORMER_RMSD>  (1) 
0.6

>  <PUBCHEM_CONFORMER_DIVERSEORDER>  (1) 
1

>  <PUBCHEM_MMFF94_PARTIAL_CHARGES>  (1) 
22
1 -0.18
10 0.08
11 0.08
12 0.08
13 0.18
14 0.18
15 0.18
16 0.18
17 0.18
18 0.18
19 -0.15
2 -0.18
20 -0.15
21 0.15
22 0.15
3 -0.18
4 -0.18
5 -0.18
6 -0.18
7 -0.17
8 -0.17
9 0.08

>  <PUBCHEM_EFFECTIVE_ROTOR_COUNT>  (1) 
0.4

>  <PUBCHEM_PHARMACOPHORE_FEATURES>  (1) 
5
1 7 acceptor
1 8 acceptor
6 11 12 15 16 19 20 rings
6 7 8 9 10 11 12 rings
6 9 10 13 14 17 18 rings

>  <PUBCHEM_HEAVY_ATOM_COUNT>  (1) 
20

>  <PUBCHEM_ATOM_DEF_STEREO_COUNT>  (1) 
0

>  <PUBCHEM_ATOM_UDEF_STEREO_COUNT>  (1) 
0

>  <PUBCHEM_BOND_DEF_STEREO_COUNT>  (1) 
0

>  <PUBCHEM_BOND_UDEF_STEREO_COUNT>  (1) 
0

>  <PUBCHEM_ISOTOPIC_ATOM_COUNT>  (1) 
0

>  <PUBCHEM_COMPONENT_COUNT>  (1) 
1

>  <PUBCHEM_CACTVS_TAUTO_COUNT>  (1) 
1

>  <PUBCHEM_CONFORMER_ID>  (1) 
0000A6AE00000001

>  <PUBCHEM_MMFF94_ENERGY>  (1) 
56.798

>  <PUBCHEM_FEATURE_SELFOVERLAP>  (1) 
25.449

>  <PUBCHEM_SHAPE_FINGERPRINT>  (1) 
10608611 8 18410571799192757348
10616163 171 18339645654175444238
10967382 1 18338799051527600806
1100329 8 17690843363071364840
11578080 2 17130407185457892963
12173636 292 18338513028486700085
12403259 226 18409726223158830996
12553582 1 18339635771413387599
13140716 1 18266455597710023480
138480 1 17185594616346333875
14178342 30 18338500994315208986
14223421 5 18410575110670356972
14790565 3 18268435629622402257
14866123 147 16540738691665582130
15196674 1 18410575089037167495
15375462 6 18338800121127503380
15420108 30 15682817225958325056
15442244 35 18266740169347741226
15536298 74 18341895194983505028
16945 1 18410856564240692486
17492 89 18410855430238399523
17804303 29 18411705369921532404
19591789 44 17833552297297617180
200 152 18059850675639638997
20510252 161 18342459218726353417
20645477 70 18341612585866864454
21267235 1 18338525225866967575
21421861 104 17896591796313550202
21501502 16 18411700988870163584
221490 88 18409174294291639514
2334 1 17978511167516855904
23366157 5 18113900464227694798
23402539 116 18343576370096134887
23463225 33 18410293592775511492
23557571 272 18272099334702152676
23558518 356 18263089829297945377
23559900 14 18341326708922883722
238 59 16526342863158962541
2748010 2 17979070814397801024
335352 9 18338797788786117214
34934 24 18411131425073600162
350125 39 18410296895394872176
4214541 1 18410573985383663649
474 4 17459756011155177140
5104073 3 18410292510253888713
58051976 100 18410014303768414629
69090 78 18411415077519303303
7364860 26 18412263939472379396
7832392 63 18267020566430085336
9709674 26 18411423912051318590
9981440 41 18120370127974109520

>  <PUBCHEM_SHAPE_MULTIPOLES>  (1) 
411.07
8.31
3.76
0.62
1.46
0
0
0
0
-0.39
0
0.02
0
0

>  <PUBCHEM_SHAPE_SELFOVERLAP>  (1) 
861.183

>  <PUBCHEM_SHAPE_VOLUME>  (1) 
237.1

>  <PUBCHEM_COORDINATE_TYPE>  (1) 
2
5
10

$$$$
