42674
     RDKit          3D

 18 19  0  0  0  0  0  0  0  0999 V2000
    3.3290    2.4637    0.4269 O   0  0  0  0  0  0  0  0  0  0  0  0
   -1.8900   -1.5049    0.1065 C   0  0  0  0  0  0  0  0  0  0  0  0
   -1.7852    1.5425   -0.1564 C   0  0  0  0  0  0  0  0  0  0  0  0
   -3.0691   -0.6373   -0.3873 C   0  0  0  0  0  0  0  0  0  0  0  0
   -3.0532    0.7501    0.2317 C   0  0  0  0  0  0  0  0  0  0  0  0
   -0.5682   -0.7267    0.0874 C   0  0  0  0  0  0  0  0  0  0  0  0
   -0.5200    0.6849   -0.0260 C   0  0  0  0  0  0  0  0  0  0  0  0
   -2.1602   -1.9864    1.5492 C   0  0  0  0  0  0  0  0  0  0  0  0
   -1.8429   -2.7446   -0.8185 C   0  0  0  0  0  0  0  0  0  0  0  0
   -1.9004    2.0362   -1.6157 C   0  0  0  0  0  0  0  0  0  0  0  0
   -1.7418    2.7792    0.7728 C   0  0  0  0  0  0  0  0  0  0  0  0
    0.6475   -1.4335    0.2253 C   0  0  0  0  0  0  0  0  0  0  0  0
    0.7441    1.3155   -0.0575 C   0  0  0  0  0  0  0  0  0  0  0  0
    1.8804   -0.7841    0.2105 C   0  0  0  0  0  0  0  0  0  0  0  0
    1.9290    0.5918    0.0607 C   0  0  0  0  0  0  0  0  0  0  0  0
    3.1280   -1.5930    0.3547 C   0  0  0  0  0  0  0  0  0  0  0  0
    3.1989    1.3047    0.0273 C   0  0  0  0  0  0  0  0  0  0  0  0
    3.6742   -2.0582   -0.9916 C   0  0  0  0  0  0  0  0  0  0  0  0
  1 17  2  0
  2  4  1  0
  2  6  1  0
  2  8  1  0
  2  9  1  0
  3  5  1  0
  3  7  1  0
  3 10  1  0
  3 11  1  0
  4  5  1  0
  6  7  2  0
  6 12  1  0
  7 13  1  0
 12 14  2  0
 13 15  2  0
 14 15  1  0
 14 16  1  0
 15 17  1  0
 16 18  1  0
M  END
>  <PUBCHEM_COMPOUND_CID>  (1) 
42674

>  <PUBCHEM_CONFORMER_RMSD>  (1) 
0.6

>  <PUBCHEM_CONFORMER_DIVERSEORDER>  (1) 
1
3
2

>  <PUBCHEM_MMFF94_PARTIAL_CHARGES>  (1) 
14
1 -0.57
12 -0.15
13 -0.15
14 -0.14
15 0.09
16 0.14
17 0.42
2 0.14
3 0.14
35 0.15
36 0.15
39 0.06
6 -0.14
7 -0.14

>  <PUBCHEM_EFFECTIVE_ROTOR_COUNT>  (1) 
2.8

>  <PUBCHEM_PHARMACOPHORE_FEATURES>  (1) 
6
1 1 acceptor
1 18 hydrophobe
3 2 8 9 hydrophobe
3 3 10 11 hydrophobe
6 2 3 4 5 6 7 rings
6 6 7 12 13 14 15 rings

>  <PUBCHEM_HEAVY_ATOM_COUNT>  (1) 
18

>  <PUBCHEM_ATOM_DEF_STEREO_COUNT>  (1) 
0

>  <PUBCHEM_ATOM_UDEF_STEREO_COUNT>  (1) 
0

>  <PUBCHEM_BOND_DEF_STEREO_COUNT>  (1) 
0

>  <PUBCHEM_BOND_UDEF_STEREO_COUNT>  (1) 
0

>  <PUBCHEM_ISOTOPIC_ATOM_COUNT>  (1) 
0

>  <PUBCHEM_COMPONENT_COUNT>  (1) 
1

>  <PUBCHEM_CACTVS_TAUTO_COUNT>  (1) 
1

>  <PUBCHEM_CONFORMER_ID>  (1) 
0000A6B200000001

>  <PUBCHEM_MMFF94_ENERGY>  (1) 
61.1253

>  <PUBCHEM_FEATURE_SELFOVERLAP>  (1) 
30.465

>  <PUBCHEM_SHAPE_FINGERPRINT>  (1) 
10608611 8 18409443683198769568
10756046 5 18410294688203201380
10967382 1 18338795748718875217
11132069 177 18195803200791328560
11578080 2 17416948699038486251
11680986 33 18408328799592722040
12553582 1 17978792633619367051
13140716 1 18408604751378802898
13380535 21 18410019844508536152
14223421 5 18410292553451616984
14614273 12 18188478172754354837
14790565 3 17548153129977595056
15042514 8 17544470217132527818
15196674 1 18410572890562512139
15422964 175 17899713532741339627
15442244 35 18339359643981859154
15490181 7 18043235860674061849
15536298 74 18341894087061297258
16945 1 18195519286140999991
17804303 29 18265623091145501510
18186145 218 18195521493896913772
19591789 44 16900191062887431280
19868273 325 18122057869437151391
20510252 161 18412543206625254489
20525323 117 18264483056290148314
20645476 183 17387710309401682542
20871999 31 18194701288799275230
21501502 16 18411697694851793696
21524375 3 18046064852848134087
221490 88 18410020948684461346
22802520 49 18409741659297465210
23184049 29 18409725171107926434
2334 1 18408885174262417018
23366157 5 18113336414994695872
23388829 49 17977383059822821453
23402539 116 18049712220569415246
23419403 2 13818528822193720382
23557571 272 18266750258015033558
23558518 356 18335704914148517097
23559900 14 18342449344934292728
238 59 17033277140141121949
25 1 17687742740534529909
2748010 2 18409728465321163390
3084891 72 17619344304188011890
335352 9 18194964041374712852
34934 24 18267296724073811659
350125 39 18265621991671121721
589210 1 18410855460497407456
6049 1 18337966635706044586
69090 78 18339353085487709239
7364860 26 18342738525050462864
74978 22 18339359648181861252
81228 2 18260831535514937537
8809292 202 18334582295586385979
9709674 26 18411135844463072462

>  <PUBCHEM_SHAPE_MULTIPOLES>  (1) 
364.56
5.72
3.29
1.06
3.97
0.28
-0.09
-0.32
-0.35
-0.41
-0.01
-0.46
-0.11
0.68

>  <PUBCHEM_SHAPE_SELFOVERLAP>  (1) 
765.335

>  <PUBCHEM_SHAPE_VOLUME>  (1) 
207.3

>  <PUBCHEM_COORDINATE_TYPE>  (1) 
2
5
10

$$$$
