42686
     RDKit          3D

 14 13  0  0  0  0  0  0  0  0999 V2000
   -1.8781    0.0550   -0.6586 O   0  0  0  0  0  0  0  0  0  0  0  0
   -3.0753   -0.0137    1.3085 O   0  0  0  0  0  0  0  0  0  0  0  0
   -0.8814   -0.5386    0.1273 N   0  0  0  0  0  0  0  0  0  0  0  0
    4.6555    2.4021   -0.1134 N   0  0  0  0  0  0  0  0  0  0  0  0
   -3.9742    0.8565   -0.6426 N   0  0  0  0  0  0  0  0  0  0  0  0
    1.4339   -1.3786   -0.0688 C   0  0  0  0  0  0  0  0  0  0  0  0
    2.6197   -0.4197   -0.3387 C   0  0  0  0  0  0  0  0  0  0  0  0
    1.3149   -1.7335    1.4199 C   0  0  0  0  0  0  0  0  0  0  0  0
    1.6501   -2.6731   -0.8714 C   0  0  0  0  0  0  0  0  0  0  0  0
    0.1600   -0.7413   -0.6111 C   0  0  0  0  0  0  0  0  0  0  0  0
    2.5177    0.9430    0.3578 C   0  0  0  0  0  0  0  0  0  0  0  0
    3.7133    1.7572    0.0932 C   0  0  0  0  0  0  0  0  0  0  0  0
   -2.9831    0.2718    0.1184 C   0  0  0  0  0  0  0  0  0  0  0  0
   -5.2729    1.2130   -0.1203 C   0  0  0  0  0  0  0  0  0  0  0  0
  1  3  1  0
  1 13  1  0
  2 13  2  0
  3 10  2  0
  4 12  3  0
  5 13  1  0
  5 14  1  0
  6  7  1  0
  6  8  1  0
  6  9  1  0
  6 10  1  0
  7 11  1  0
 11 12  1  0
M  END
>  <PUBCHEM_COMPOUND_CID>  (1) 
42686

>  <PUBCHEM_CONFORMER_RMSD>  (1) 
0.6

>  <PUBCHEM_CONFORMER_DIVERSEORDER>  (1) 
1
130
145
20
143
136
152
115
122
58
117
150
173
106
177
135
167
131
50
181
124
174
104
161
154
22
113
114
168
162
146
107
139
118
93
95
44
21
74
132
92
147
62
86
125
116
155
163
89
137
123
129
172
101
138
80
108
35
120
102
128
98
91
105
178
119
144
148
141
121
127
76
99
171
78
87
134
157
180
51
65
158
38
175
3
165
73
15
72
179
64
57
97
79
166
82
25
90
111
176
69
85
77
28
2
71
170
126
63
37
110
153
109
55
39
160
96
66
60
83
100
47
142
6
45
34
182
133
13
151
49
81
156
103
40
32
169
19
88
53
149
112
33
8
70
94
159
52
164
42
59
61
5
140
43
11
54
75
68
30
23
48
14
4
10
18
41
84
17
16
56
31
36
29
24
67
27
46
9
26
12
7

>  <PUBCHEM_MMFF94_PARTIAL_CHARGES>  (1) 
13
1 -0.09
10 0.33
11 0.2
12 0.36
13 0.78
14 0.3
2 -0.57
23 0.06
26 0.37
3 -0.51
4 -0.56
5 -0.73
6 0.06

>  <PUBCHEM_EFFECTIVE_ROTOR_COUNT>  (1) 
6

>  <PUBCHEM_PHARMACOPHORE_FEATURES>  (1) 
5
1 2 acceptor
1 3 acceptor
1 4 acceptor
1 5 donor
3 6 8 9 hydrophobe

>  <PUBCHEM_HEAVY_ATOM_COUNT>  (1) 
14

>  <PUBCHEM_ATOM_DEF_STEREO_COUNT>  (1) 
0

>  <PUBCHEM_ATOM_UDEF_STEREO_COUNT>  (1) 
0

>  <PUBCHEM_BOND_DEF_STEREO_COUNT>  (1) 
0

>  <PUBCHEM_BOND_UDEF_STEREO_COUNT>  (1) 
1

>  <PUBCHEM_ISOTOPIC_ATOM_COUNT>  (1) 
0

>  <PUBCHEM_COMPONENT_COUNT>  (1) 
1

>  <PUBCHEM_CACTVS_TAUTO_COUNT>  (1) 
2

>  <PUBCHEM_CONFORMER_ID>  (1) 
0000A6BE00000001

>  <PUBCHEM_MMFF94_ENERGY>  (1) 
17.5348

>  <PUBCHEM_FEATURE_SELFOVERLAP>  (1) 
25.388

>  <PUBCHEM_SHAPE_FINGERPRINT>  (1) 
122479 349 18118122700531900968
12616999 72 17846210042987509151
13955234 65 18339365145445250947
14123255 52 18341047523037336164
14178342 30 16950289520234009555
14251764 38 18047455743679796237
14774955 27 18409722976379787877
15342168 16 18409728499459732901
170605 34 18409729564753890722
17834072 32 18192713564870670012
20621476 66 18264208188023756436
20645477 70 18340484457162002583
21499 59 18342737459413309478
21524375 3 18265326390868383598
21618674 25 17967812734906005171
2255824 54 18057887943888872711
22959321 60 18114187462094608841
231179 274 18408602574030934388
23532345 1 18412546479179051307
3060560 45 18201722799923799782
449060 50 18409452483855615613
449060 62 18342174457783377245
474 4 18410575114838964080
7364860 26 18341895126338277798
81539 233 18408603669215667084

>  <PUBCHEM_SHAPE_MULTIPOLES>  (1) 
261.43
9.11
2.42
1
9.31
0.22
0.27
-7.97
-0.34
-3.55
-0.23
0.09
0.42
0.25

>  <PUBCHEM_SHAPE_SELFOVERLAP>  (1) 
497.048

>  <PUBCHEM_SHAPE_VOLUME>  (1) 
159.5

>  <PUBCHEM_COORDINATE_TYPE>  (1) 
2
5
10

$$$$
