42680
     RDKit          3D

 17 19  0  0  1  0  0  0  0  0999 V2000
   -0.8048    2.0934   -1.2290 O   0  0  0  0  0  0  0  0  0  0  0  0
    1.6242    0.3212    0.2719 N   0  0  0  0  0  0  0  0  0  0  0  0
   -0.8080   -0.0064    0.1140 C   0  0  0  0  0  0  0  0  0  0  0  0
   -2.2292    0.0916    0.7550 C   0  0  0  0  0  0  0  0  0  0  0  0
   -2.8829   -0.5679   -0.4860 C   0  0  0  0  0  0  0  0  0  0  0  0
   -0.9756    0.6870   -1.2738 C   0  0  0  0  0  0  0  0  0  0  0  0
   -0.6875   -1.5253   -0.2033 C   0  0  0  0  0  0  0  0  0  0  0  0
   -2.4264    0.3351   -1.6569 C   0  0  0  0  0  0  0  0  0  0  0  0
   -2.1172   -1.9022   -0.6291 C   0  0  0  0  0  0  0  0  0  0  0  0
    0.3466    0.5120    0.9512 C   0  0  0  0  0  0  0  0  0  0  0  0
   -2.4424   -0.6892    2.0662 C   0  0  0  0  0  0  0  0  0  0  0  0
   -2.7234    1.5263    1.0392 C   0  0  0  0  0  0  0  0  0  0  0  0
    1.8891   -1.1062    0.0335 C   0  0  0  0  0  0  0  0  0  0  0  0
    2.7220    0.9704    0.9856 C   0  0  0  0  0  0  0  0  0  0  0  0
    3.3785   -1.4445   -0.1246 C   0  0  0  0  0  0  0  0  0  0  0  0
    3.9826    0.9867    0.1124 C   0  0  0  0  0  0  0  0  0  0  0  0
    4.1545   -0.2823   -0.7263 C   0  0  0  0  0  0  0  0  0  0  0  0
  1  6  1  0
  2 10  1  0
  2 13  1  0
  2 14  1  0
  3  4  1  0
  3  6  1  0
  3  7  1  0
  3 10  1  0
  4  5  1  0
  4 11  1  0
  4 12  1  0
  5  8  1  0
  5  9  1  0
  6  8  1  0
  7  9  1  0
 13 15  1  0
 14 16  1  0
 15 17  1  0
 16 17  1  0
M  END
>  <PUBCHEM_COMPOUND_CID>  (1) 
42680

>  <PUBCHEM_CONFORMER_RMSD>  (1) 
0.6

>  <PUBCHEM_CONFORMER_DIVERSEORDER>  (1) 
2
5
4
8
7
10
11
12
1
3
6
9

>  <PUBCHEM_MMFF94_PARTIAL_CHARGES>  (1) 
7
1 -0.68
10 0.27
13 0.27
14 0.27
2 -0.81
34 0.4
6 0.28

>  <PUBCHEM_EFFECTIVE_ROTOR_COUNT>  (1) 
4.2

>  <PUBCHEM_PHARMACOPHORE_FEATURES>  (1) 
6
1 1 acceptor
1 1 donor
1 2 cation
3 4 11 12 hydrophobe
6 2 13 14 15 16 17 rings
7 3 4 5 6 7 8 9 rings

>  <PUBCHEM_HEAVY_ATOM_COUNT>  (1) 
17

>  <PUBCHEM_ATOM_DEF_STEREO_COUNT>  (1) 
0

>  <PUBCHEM_ATOM_UDEF_STEREO_COUNT>  (1) 
3

>  <PUBCHEM_BOND_DEF_STEREO_COUNT>  (1) 
0

>  <PUBCHEM_BOND_UDEF_STEREO_COUNT>  (1) 
0

>  <PUBCHEM_ISOTOPIC_ATOM_COUNT>  (1) 
0

>  <PUBCHEM_COMPONENT_COUNT>  (1) 
1

>  <PUBCHEM_CACTVS_TAUTO_COUNT>  (1) 
1

>  <PUBCHEM_CONFORMER_ID>  (1) 
0000A6B800000002

>  <PUBCHEM_MMFF94_ENERGY>  (1) 
82.9028

>  <PUBCHEM_FEATURE_SELFOVERLAP>  (1) 
30.446

>  <PUBCHEM_SHAPE_FINGERPRINT>  (1) 
11578080 2 16700867446166479280
12173636 292 18202563964530264933
12403814 3 18260831488006403646
12932764 1 18261388927975824154
12969540 114 17823679907610669501
13024252 1 15647047162533418575
13214271 11 17822296815817929929
13224815 77 18187364354896106970
13296908 3 18259985976808352434
13764800 53 16805602512727896533
14144814 61 18060418023592235154
15309172 13 18409731755039622578
15775835 57 18411140208086496206
16945 1 17844508089240014859
17844478 74 18187374220130037378
18186145 218 18413108351523059686
19422 9 17203333333810514854
19868273 325 17894907451267155516
200 152 17489010647914736967
20279233 1 18336252510031646434
20525323 117 17676480631677471292
21501502 16 18272929406078577326
21524375 3 17103380893273621501
22802520 49 17969218928541773802
23402539 116 17385718119629515342
23493267 7 17313662650951682504
23557571 272 17240772804126602794
23559900 14 17845642768049506872
369184 2 17917988395368293395
45790113 50 17489026084185317689
465052 167 15768644477100515847
74978 22 18060133245701154410
77492 1 17060621101023011850
81228 2 17895182260481496741
90525 40 16702304555023712750

>  <PUBCHEM_SHAPE_MULTIPOLES>  (1) 
339
6.51
1.73
1.48
6.71
0.15
-0.02
0.07
-0.04
-0.22
0.08
-1.26
-0.3
0.05

>  <PUBCHEM_SHAPE_SELFOVERLAP>  (1) 
713.673

>  <PUBCHEM_SHAPE_VOLUME>  (1) 
196.6

>  <PUBCHEM_COORDINATE_TYPE>  (1) 
2
5
10

$$$$
