42692
     RDKit          3D

 23 25  0  0  0  0  0  0  0  0999 V2000
    3.6547    1.6807   -0.0346 O   0  0  0  0  0  0  0  0  0  0  0  0
   -2.5765    2.7939    0.4732 O   0  0  0  0  0  0  0  0  0  0  0  0
    1.7789   -1.8881    0.2342 N   0  0  0  0  0  0  0  0  0  0  0  0
   -0.5810   -0.6283   -0.3684 N   0  0  0  0  0  0  0  0  0  0  0  0
    1.5626    0.5185   -0.2041 C   0  0  0  0  0  0  0  0  0  0  0  0
    2.3002   -0.7468   -0.5156 C   0  0  0  0  0  0  0  0  0  0  0  0
    0.1651    0.5355   -0.1418 C   0  0  0  0  0  0  0  0  0  0  0  0
   -0.4885    1.7437    0.1525 C   0  0  0  0  0  0  0  0  0  0  0  0
    2.2929    1.6863    0.0238 C   0  0  0  0  0  0  0  0  0  0  0  0
    1.8960   -1.6519    1.6729 C   0  0  0  0  0  0  0  0  0  0  0  0
    2.4850   -3.1128   -0.1413 C   0  0  0  0  0  0  0  0  0  0  0  0
   -1.9806   -0.6718   -0.3200 C   0  0  0  0  0  0  0  0  0  0  0  0
   -2.7107    0.4934   -0.0325 C   0  0  0  0  0  0  0  0  0  0  0  0
   -1.9735    1.7597    0.2175 C   0  0  0  0  0  0  0  0  0  0  0  0
    0.2411    2.9139    0.3811 C   0  0  0  0  0  0  0  0  0  0  0  0
    1.6336    2.8801    0.3156 C   0  0  0  0  0  0  0  0  0  0  0  0
    1.3584   -2.8295    2.4682 C   0  0  0  0  0  0  0  0  0  0  0  0
    2.3223   -3.4082   -1.6227 C   0  0  0  0  0  0  0  0  0  0  0  0
   -2.6725   -1.8649   -0.5548 C   0  0  0  0  0  0  0  0  0  0  0  0
   -4.1074    0.4672    0.0192 C   0  0  0  0  0  0  0  0  0  0  0  0
   -4.0673   -1.8929   -0.5035 C   0  0  0  0  0  0  0  0  0  0  0  0
   -4.7821   -0.7301   -0.2172 C   0  0  0  0  0  0  0  0  0  0  0  0
    4.2493    1.9524   -1.3019 C   0  0  0  0  0  0  0  0  0  0  0  0
  1  9  1  0
  1 23  1  0
  2 14  2  0
  3  6  1  0
  3 10  1  0
  3 11  1  0
  4  7  1  0
  4 12  1  0
  5  6  1  0
  5  7  2  0
  5  9  1  0
  7  8  1  0
  8 14  1  0
  8 15  2  0
  9 16  2  0
 10 17  1  0
 11 18  1  0
 12 13  2  0
 12 19  1  0
 13 14  1  0
 13 20  1  0
 15 16  1  0
 19 21  2  0
 20 22  2  0
 21 22  1  0
M  END
>  <PUBCHEM_COMPOUND_CID>  (1) 
42692

>  <PUBCHEM_CONFORMER_RMSD>  (1) 
0.8

>  <PUBCHEM_CONFORMER_DIVERSEORDER>  (1) 
1
3
2
4

>  <PUBCHEM_MMFF94_PARTIAL_CHARGES>  (1) 
28
1 -0.36
10 0.27
11 0.27
12 0.1
13 0.09
14 0.4
15 -0.15
16 -0.15
19 -0.15
2 -0.57
20 -0.15
21 -0.15
22 -0.15
23 0.28
3 -0.81
30 0.4
31 0.15
32 0.15
39 0.15
4 -0.6
40 0.15
41 0.15
42 0.15
5 -0.14
6 0.41
7 0.1
8 0.09
9 0.08

>  <PUBCHEM_EFFECTIVE_ROTOR_COUNT>  (1) 
5

>  <PUBCHEM_PHARMACOPHORE_FEATURES>  (1) 
8
1 1 acceptor
1 2 acceptor
1 3 cation
1 4 cation
1 4 donor
6 12 13 19 20 21 22 rings
6 4 7 8 12 13 14 rings
6 5 7 8 9 15 16 rings

>  <PUBCHEM_HEAVY_ATOM_COUNT>  (1) 
23

>  <PUBCHEM_ATOM_DEF_STEREO_COUNT>  (1) 
0

>  <PUBCHEM_ATOM_UDEF_STEREO_COUNT>  (1) 
0

>  <PUBCHEM_BOND_DEF_STEREO_COUNT>  (1) 
0

>  <PUBCHEM_BOND_UDEF_STEREO_COUNT>  (1) 
0

>  <PUBCHEM_ISOTOPIC_ATOM_COUNT>  (1) 
0

>  <PUBCHEM_COMPONENT_COUNT>  (1) 
1

>  <PUBCHEM_CACTVS_TAUTO_COUNT>  (1) 
3

>  <PUBCHEM_CONFORMER_ID>  (1) 
0000A6C400000001

>  <PUBCHEM_MMFF94_ENERGY>  (1) 
83.5647

>  <PUBCHEM_FEATURE_SELFOVERLAP>  (1) 
40.647

>  <PUBCHEM_SHAPE_FINGERPRINT>  (1) 
10616163 171 18341333413377401927
10967382 1 18340767164783673557
1100329 8 17980486654957683689
11578080 2 17459737138741467796
11725454 13 13914619301364343366
12553582 1 17976818684056685691
12839892 36 18340750612275003784
13083527 12 17969478469236451400
13140716 1 17981036732825612273
138480 1 18341051804982508926
14022347 108 17617949027873962042
14178342 30 18341319042259282320
14223421 5 18411976966552726429
14790565 3 18123759917516489141
15196674 1 18054509372743456149
15442244 35 18269275673220869429
16752209 62 17400074171611064557
16945 1 18342173422765071001
17134984 74 17552041389819849511
17492 89 18412544289210675223
17909252 39 18059028194077640118
19591789 44 17908986856680118535
20028762 73 17842838003918158326
20567600 347 18335987570789964254
20600515 1 17619326737803244848
20645477 70 18410003352071646087
20905425 154 18342459218462882060
21197605 99 15886037387631107211
21267235 1 18126295370397668301
21421861 104 18334573512583734505
2255824 54 18265330805657290909
23184049 29 18266168431548256465
2334 1 18339921520003870573
23366157 5 18187371974083765620
23559900 14 18128248995837598903
23566358 2 18410289177391077477
2748010 2 16250542362869447261
2871803 45 18339922743990461365
34934 24 18342171224073663813
352729 6 17901965349924420800
4280585 95 18051417258584132446
59755656 215 18339366365157369351
6138700 20 18410860975905426276
7097593 13 18119237372972297571
7364860 26 18413387635649744030
81228 2 17547829877204461122
9709674 26 18410295809137424463

>  <PUBCHEM_SHAPE_MULTIPOLES>  (1) 
451.63
7.28
4.33
1.28
5.33
1
0.57
0.53
-1.81
-3.22
0.27
-1.13
1.27
-0.92

>  <PUBCHEM_SHAPE_SELFOVERLAP>  (1) 
974.669

>  <PUBCHEM_SHAPE_VOLUME>  (1) 
248.5

>  <PUBCHEM_COORDINATE_TYPE>  (1) 
2
5
10

$$$$
