427
     RDKit          3D

 17 16  0  0  1  0  0  0  0  0999 V2000
    1.6076   -1.8935   -1.3451 O   0  0  0  0  0  0  0  0  0  0  0  0
    0.6508   -2.2201    0.6862 O   0  0  0  0  0  0  0  0  0  0  0  0
    4.5743   -0.0314   -0.8987 O   0  0  0  0  0  0  0  0  0  0  0  0
    3.2795    1.8347   -0.8358 O   0  0  0  0  0  0  0  0  0  0  0  0
    1.6430    0.5050    1.0009 N   0  0  0  0  0  0  0  0  0  0  0  0
   -3.4934   -0.0783    0.1199 N   0  0  0  0  0  0  0  0  0  0  0  0
   -5.5874    0.9445   -0.4627 N   0  0  0  0  0  0  0  0  0  0  0  0
   -5.3849   -0.2899    1.4425 N   0  0  0  0  0  0  0  0  0  0  0  0
    0.8851    0.0520   -0.1630 C   0  0  0  0  0  0  0  0  0  0  0  0
   -0.5787    0.4989   -0.0314 C   0  0  0  0  0  0  0  0  0  0  0  0
   -1.4399    0.0169   -1.2080 C   0  0  0  0  0  0  0  0  0  0  0  0
    3.0411    0.1174    0.8899 C   0  0  0  0  0  0  0  0  0  0  0  0
   -2.8901    0.4754   -1.0934 C   0  0  0  0  0  0  0  0  0  0  0  0
    1.0274   -1.4586   -0.1952 C   0  0  0  0  0  0  0  0  0  0  0  0
    3.8013    0.5760    2.1269 C   0  0  0  0  0  0  0  0  0  0  0  0
    3.6090    0.7582   -0.3587 C   0  0  0  0  0  0  0  0  0  0  0  0
   -4.7447    0.1929    0.3256 C   0  0  0  0  0  0  0  0  0  0  0  0
  1 14  1  0
  2 14  2  0
  3 16  1  0
  4 16  2  0
  5  9  1  0
  5 12  1  0
  6 13  1  0
  6 17  2  3
  7 17  1  0
  8 17  1  0
  9 10  1  0
  9 14  1  0
 10 11  1  0
 11 13  1  0
 12 15  1  0
 12 16  1  0
M  END
>  <PUBCHEM_COMPOUND_CID>  (1) 
427

>  <PUBCHEM_CONFORMER_RMSD>  (1) 
0.8

>  <PUBCHEM_CONFORMER_DIVERSEORDER>  (1) 
5
150
77
118
148
1
103
19
201
191
100
175
211
130
144
106
161
189
43
123
40
167
192
172
14
135
108
13
127
99
52
112
111
165
182
21
117
79
194
23
210
84
122
98
86
180
204
199
83
70
95
209
186
152
145
176
87
125
33
11
30
163
164
170
3
7
138
20
207
193
88
198
187
181
136
97
109
154
142
110
185
104
160
39
94
82
137
57
206
59
42
56
47
91
71
126
121
184
45
128
92
173
25
58
29
166
155
129
69
48
124
9
65
107
146
36
141
61
158
75
156
44
212
216
208
17
213
62
217
26
12
51
74
214
55
4
140
102
202
34
169
81
22
24
153
89
205
96
41
197
171
35
179
133
218
15
177
139
18
195
63
159
131
76
10
190
50
143
64
38
78
85
37
116
2
32
28
203
120
46
67
157
174
60
49
105
200
119
168
114
72
80
93
134
31
73
149
27
178
53
113
183
151
188
162
54
115
132
68
101
6
90
215
16
147
8
66
196

>  <PUBCHEM_MMFF94_PARTIAL_CHARGES>  (1) 
21
1 -0.65
12 0.33
13 0.25
14 0.66
16 0.66
17 0.55
2 -0.57
23 0.36
3 -0.65
30 0.5
31 0.5
32 0.4
33 0.4
34 0.4
35 0.4
4 -0.57
5 -0.9
6 -0.7
7 -0.85
8 -0.85
9 0.33

>  <PUBCHEM_EFFECTIVE_ROTOR_COUNT>  (1) 
8

>  <PUBCHEM_PHARMACOPHORE_FEATURES>  (1) 
11
1 1 acceptor
1 2 acceptor
1 3 acceptor
1 4 acceptor
1 5 cation
1 5 donor
1 7 donor
1 8 donor
3 1 2 14 anion
3 3 4 16 anion
4 6 7 8 17 cation

>  <PUBCHEM_HEAVY_ATOM_COUNT>  (1) 
17

>  <PUBCHEM_ATOM_DEF_STEREO_COUNT>  (1) 
0

>  <PUBCHEM_ATOM_UDEF_STEREO_COUNT>  (1) 
2

>  <PUBCHEM_BOND_DEF_STEREO_COUNT>  (1) 
0

>  <PUBCHEM_BOND_UDEF_STEREO_COUNT>  (1) 
0

>  <PUBCHEM_ISOTOPIC_ATOM_COUNT>  (1) 
0

>  <PUBCHEM_COMPONENT_COUNT>  (1) 
1

>  <PUBCHEM_CACTVS_TAUTO_COUNT>  (1) 
2

>  <PUBCHEM_CONFORMER_ID>  (1) 
000001AB00000005

>  <PUBCHEM_MMFF94_ENERGY>  (1) 
29.6341

>  <PUBCHEM_FEATURE_SELFOVERLAP>  (1) 
55.994

>  <PUBCHEM_SHAPE_FINGERPRINT>  (1) 
10354089 29 17704077300536500201
10366900 7 18412259558706217985
11089746 13 16702015357880679761
11806522 49 13840264792737999789
13583140 156 16299486375412532351
14251739 40 14490189397218679438
14252887 29 18410016498924087443
15375358 24 18040714749800682515
15848700 24 10665220428549959594
15880784 105 16950282906005635097
17834072 14 12324232871688198359
17834072 33 17417804050692408023
18186145 218 17917981806941345172
200 152 12757149074292877805
20279233 1 17895191074539767223
20645477 70 18198897020875699911
21501925 9 12973604426014587351
21503847 285 17418372514703589289
23402539 116 15936404555346793023
23402655 69 15625937685751784816
23557571 272 16371000750919519725
31174 14 13623795156108213628
3286 77 14996824534625332184
32948 21 12607410975015019259
347723 3 17131839750767696350
449060 50 18409735067060430813
465052 167 17603864481933583810
474 4 17631720698753573440
4990 188 15410897370438985173
633830 44 17489297637740355212
7164475 11 12247142817536059042
9999458 23 17894349973814361982

>  <PUBCHEM_SHAPE_MULTIPOLES>  (1) 
306.45
10.89
1.48
1.44
12.68
0.24
-0.32
3.42
2.12
-1.11
-0.37
-0.61
-0.32
-0.43

>  <PUBCHEM_SHAPE_SELFOVERLAP>  (1) 
594.803

>  <PUBCHEM_SHAPE_VOLUME>  (1) 
183.2

>  <PUBCHEM_COORDINATE_TYPE>  (1) 
2
5
10

$$$$
