42717
     RDKit          3D

 14 15  0  0  1  0  0  0  0  0999 V2000
    0.4746    0.8978   -0.3007 N   0  0  0  0  0  0  0  0  0  0  0  0
   -1.2547   -1.4019   -0.2642 N   0  0  0  0  0  0  0  0  0  0  0  0
   -1.1974    0.3838    1.5066 C   0  0  0  0  0  0  0  0  0  0  0  0
   -2.0006    0.9516   -0.7455 C   0  0  0  0  0  0  0  0  0  0  0  0
   -2.2621    1.1720    0.7442 C   0  0  0  0  0  0  0  0  0  0  0  0
    0.1970    0.9427    1.1423 C   0  0  0  0  0  0  0  0  0  0  0  0
   -0.6012    1.5068   -1.0965 C   0  0  0  0  0  0  0  0  0  0  0  0
   -1.3521   -1.1182    1.1751 C   0  0  0  0  0  0  0  0  0  0  0  0
   -2.1509   -0.5536   -1.0635 C   0  0  0  0  0  0  0  0  0  0  0  0
    1.7667    1.5048   -0.6086 C   0  0  0  0  0  0  0  0  0  0  0  0
   -1.4837   -2.8175   -0.5395 C   0  0  0  0  0  0  0  0  0  0  0  0
    2.8914    0.7405    0.0877 C   0  0  0  0  0  0  0  0  0  0  0  0
    2.9171   -0.7246   -0.3496 C   0  0  0  0  0  0  0  0  0  0  0  0
    4.0559   -1.4840    0.3121 C   0  0  0  0  0  0  0  0  0  0  0  0
  1  6  1  0
  1  7  1  0
  1 10  1  0
  2  8  1  0
  2  9  1  0
  2 11  1  0
  3  5  1  0
  3  6  1  0
  3  8  1  0
  4  5  1  0
  4  7  1  0
  4  9  1  0
 10 12  1  0
 12 13  1  0
 13 14  1  0
M  END
>  <PUBCHEM_COMPOUND_CID>  (1) 
42717

>  <PUBCHEM_CONFORMER_RMSD>  (1) 
0.6

>  <PUBCHEM_CONFORMER_DIVERSEORDER>  (1) 
2
6
8
4
13
3
12
1
10
5
11
7
9

>  <PUBCHEM_MMFF94_PARTIAL_CHARGES>  (1) 
8
1 -0.81
10 0.27
11 0.27
2 -0.81
6 0.27
7 0.27
8 0.27
9 0.27

>  <PUBCHEM_EFFECTIVE_ROTOR_COUNT>  (1) 
4.4

>  <PUBCHEM_PHARMACOPHORE_FEATURES>  (1) 
5
1 1 cation
1 14 hydrophobe
1 2 cation
6 1 3 4 5 6 7 rings
6 2 3 4 5 8 9 rings

>  <PUBCHEM_HEAVY_ATOM_COUNT>  (1) 
14

>  <PUBCHEM_ATOM_DEF_STEREO_COUNT>  (1) 
0

>  <PUBCHEM_ATOM_UDEF_STEREO_COUNT>  (1) 
2

>  <PUBCHEM_BOND_DEF_STEREO_COUNT>  (1) 
0

>  <PUBCHEM_BOND_UDEF_STEREO_COUNT>  (1) 
0

>  <PUBCHEM_ISOTOPIC_ATOM_COUNT>  (1) 
0

>  <PUBCHEM_COMPONENT_COUNT>  (1) 
1

>  <PUBCHEM_CACTVS_TAUTO_COUNT>  (1) 
1

>  <PUBCHEM_CONFORMER_ID>  (1) 
0000A6DD00000002

>  <PUBCHEM_MMFF94_ENERGY>  (1) 
16.509

>  <PUBCHEM_FEATURE_SELFOVERLAP>  (1) 
27.061

>  <PUBCHEM_SHAPE_FINGERPRINT>  (1) 
10922049 32 17969221145009019581
12592029 89 18193559956863350035
12932764 1 18338813302688440628
13024252 1 15502381123137065305
13764800 53 10879985887277515230
13839132 238 8789513050811741945
14577589 140 18263651675392108448
14817 1 13659339746724281609
15001771 113 18123191474367532535
16945 1 18125721429248656273
17093844 170 14449086818037318678
19837323 101 12469457535731494977
22802520 49 18040435533380885008
23500284 5 18125447655027228507
23559900 14 18271792567386157720
369184 2 17703795824816348081
598444 67 17532668840117798291
74978 22 18341337751252315604

>  <PUBCHEM_SHAPE_MULTIPOLES>  (1) 
278.15
4.85
2.29
1.3
6.02
1.43
-0.25
1.49
0.08
-0.48
0.43
-0.67
-0.16
-0.35

>  <PUBCHEM_SHAPE_SELFOVERLAP>  (1) 
552.177

>  <PUBCHEM_SHAPE_VOLUME>  (1) 
159.7

>  <PUBCHEM_COORDINATE_TYPE>  (1) 
2
5
10

$$$$
