42715
     RDKit          3D

 25 27  0  0  0  0  0  0  0  0999 V2000
    3.2375   -3.5859   -0.6573 O   0  0  0  0  0  0  0  0  0  0  0  0
    0.1829   -0.3559    1.4440 O   0  0  0  0  0  0  0  0  0  0  0  0
    2.6673    2.6812   -1.2984 O   0  0  0  0  0  0  0  0  0  0  0  0
   -2.6553    1.4287    1.8767 O   0  0  0  0  0  0  0  0  0  0  0  0
    2.5460   -1.0201    0.3627 N   0  0  0  0  0  0  0  0  0  0  0  0
    2.1684   -1.4347   -0.9956 C   0  0  0  0  0  0  0  0  0  0  0  0
    3.7816   -1.7023    0.7720 C   0  0  0  0  0  0  0  0  0  0  0  0
    2.7052    0.4308    0.4370 C   0  0  0  0  0  0  0  0  0  0  0  0
    2.0198   -2.9524   -1.0510 C   0  0  0  0  0  0  0  0  0  0  0  0
    3.5958   -3.2138    0.6742 C   0  0  0  0  0  0  0  0  0  0  0  0
    1.4340    1.1535    0.0787 C   0  0  0  0  0  0  0  0  0  0  0  0
    0.2233    0.7200    0.6056 C   0  0  0  0  0  0  0  0  0  0  0  0
    1.4853    2.2481   -0.7761 C   0  0  0  0  0  0  0  0  0  0  0  0
   -0.9534    1.3911    0.2727 C   0  0  0  0  0  0  0  0  0  0  0  0
    0.3085    2.9190   -1.1091 C   0  0  0  0  0  0  0  0  0  0  0  0
   -0.9108    2.4905   -0.5848 C   0  0  0  0  0  0  0  0  0  0  0  0
   -2.2383    0.9617    0.8076 C   0  0  0  0  0  0  0  0  0  0  0  0
   -3.0990   -0.0397    0.1111 C   0  0  0  0  0  0  0  0  0  0  0  0
    0.3215   -0.0939    2.8380 C   0  0  0  0  0  0  0  0  0  0  0  0
    3.3868    3.6584   -0.5494 C   0  0  0  0  0  0  0  0  0  0  0  0
   -2.6579   -0.5737   -1.0778 C   0  0  0  0  0  0  0  0  0  0  0  0
   -4.2994   -0.3898    0.6855 C   0  0  0  0  0  0  0  0  0  0  0  0
   -3.4619   -1.5096   -1.7287 C   0  0  0  0  0  0  0  0  0  0  0  0
   -5.1032   -1.3257    0.0347 C   0  0  0  0  0  0  0  0  0  0  0  0
   -4.6844   -1.8856   -1.1724 C   0  0  0  0  0  0  0  0  0  0  0  0
  1  9  1  0
  1 10  1  0
  2 12  1  0
  2 19  1  0
  3 13  1  0
  3 20  1  0
  4 17  2  0
  5  6  1  0
  5  7  1  0
  5  8  1  0
  6  9  1  0
  7 10  1  0
  8 11  1  0
 11 12  2  0
 11 13  1  0
 12 14  1  0
 13 15  2  0
 14 16  2  0
 14 17  1  0
 15 16  1  0
 17 18  1  0
 18 21  2  0
 18 22  1  0
 21 23  1  0
 22 24  2  0
 23 25  2  0
 24 25  1  0
M  END
>  <PUBCHEM_COMPOUND_CID>  (1) 
42715

>  <PUBCHEM_CONFORMER_RMSD>  (1) 
0.8

>  <PUBCHEM_CONFORMER_DIVERSEORDER>  (1) 
1
13
8
11
12
6
14
10
16
7
5
9
2
15
4
3

>  <PUBCHEM_MMFF94_PARTIAL_CHARGES>  (1) 
32
1 -0.56
10 0.28
11 -0.14
12 0.08
13 0.08
14 0.09
15 -0.15
16 -0.15
17 0.4
18 0.09
19 0.28
2 -0.36
20 0.28
21 -0.15
22 -0.15
23 -0.15
24 -0.15
25 -0.15
3 -0.36
36 0.15
37 0.15
4 -0.57
44 0.15
45 0.15
46 0.15
47 0.15
48 0.15
5 -0.81
6 0.27
7 0.27
8 0.41
9 0.28

>  <PUBCHEM_EFFECTIVE_ROTOR_COUNT>  (1) 
7.2

>  <PUBCHEM_PHARMACOPHORE_FEATURES>  (1) 
8
1 1 acceptor
1 2 acceptor
1 3 acceptor
1 4 acceptor
1 5 cation
6 1 5 6 7 9 10 rings
6 11 12 13 14 15 16 rings
6 18 21 22 23 24 25 rings

>  <PUBCHEM_HEAVY_ATOM_COUNT>  (1) 
25

>  <PUBCHEM_ATOM_DEF_STEREO_COUNT>  (1) 
0

>  <PUBCHEM_ATOM_UDEF_STEREO_COUNT>  (1) 
0

>  <PUBCHEM_BOND_DEF_STEREO_COUNT>  (1) 
0

>  <PUBCHEM_BOND_UDEF_STEREO_COUNT>  (1) 
0

>  <PUBCHEM_ISOTOPIC_ATOM_COUNT>  (1) 
0

>  <PUBCHEM_COMPONENT_COUNT>  (1) 
1

>  <PUBCHEM_CACTVS_TAUTO_COUNT>  (1) 
1

>  <PUBCHEM_CONFORMER_ID>  (1) 
0000A6DB00000001

>  <PUBCHEM_MMFF94_ENERGY>  (1) 
100.5029

>  <PUBCHEM_FEATURE_SELFOVERLAP>  (1) 
40.598

>  <PUBCHEM_SHAPE_FINGERPRINT>  (1) 
11069576 57 18200297935669705895
11578080 2 18128793375002104249
12363563 72 18115308873565662786
12403259 327 16559021689013842867
12422481 6 17842303388554656443
12553582 1 18264784159462937838
12633257 1 15841260541377833427
13009979 54 18202007598909323859
13083527 12 18336533976471371420
13149001 5 17458926905930129162
13257819 101 16155663790816582564
13899415 180 18115300064925322558
13911987 19 17609791051133974709
14114206 34 17025449789887665294
14863182 85 18267857475009310784
15099037 8 18341896264388365377
15842332 3 18129119895194336457
17138139 8 17267493333141702647
17818456 19 17915755180242504633
17974551 9 14615457620376319834
1813 80 18337112259078263783
19141452 34 18054229821742938473
20645477 70 18115300206748647761
20775530 9 18200869561330684695
21285901 2 17458892855761911013
21421861 104 18271825526695732831
21452121 199 18339348700078121928
23559900 14 18272638035534302841
392239 28 17130112448012965098
404807 78 16817688680013200839
4280585 95 18190446178425222418
46194498 28 18042106791598404807
57527293 21 18122896539602029578
6669772 16 17604702425678782770
70251023 43 18187922842288921721

>  <PUBCHEM_SHAPE_MULTIPOLES>  (1) 
486.03
8.38
4.27
1.72
7.43
0.22
0.81
5.47
-1.11
-5.87
-1.72
0.42
0.07
-1.61

>  <PUBCHEM_SHAPE_SELFOVERLAP>  (1) 
1042.434

>  <PUBCHEM_SHAPE_VOLUME>  (1) 
268.1

>  <PUBCHEM_COORDINATE_TYPE>  (1) 
2
5
10

$$$$
