42713
     RDKit          3D

 25 27  0  0  0  0  0  0  0  0999 V2000
   -0.1938    0.3608   -1.4358 O   0  0  0  0  0  0  0  0  0  0  0  0
   -2.6677   -2.6921    1.2985 O   0  0  0  0  0  0  0  0  0  0  0  0
    2.6413   -1.4210   -1.8912 O   0  0  0  0  0  0  0  0  0  0  0  0
   -2.5521    1.0205   -0.3404 N   0  0  0  0  0  0  0  0  0  0  0  0
   -2.1689    1.4189    1.0213 C   0  0  0  0  0  0  0  0  0  0  0  0
   -3.7849    1.6984   -0.7652 C   0  0  0  0  0  0  0  0  0  0  0  0
   -1.9493    2.9299    1.1131 C   0  0  0  0  0  0  0  0  0  0  0  0
   -3.6184    3.2183   -0.7317 C   0  0  0  0  0  0  0  0  0  0  0  0
   -3.1809    3.6983    0.6475 C   0  0  0  0  0  0  0  0  0  0  0  0
   -2.7121   -0.4310   -0.4228 C   0  0  0  0  0  0  0  0  0  0  0  0
   -1.4397   -1.1563   -0.0741 C   0  0  0  0  0  0  0  0  0  0  0  0
   -0.2310   -0.7198   -0.6033 C   0  0  0  0  0  0  0  0  0  0  0  0
   -1.4877   -2.2559    0.7743 C   0  0  0  0  0  0  0  0  0  0  0  0
    0.9470   -1.3930   -0.2790 C   0  0  0  0  0  0  0  0  0  0  0  0
   -0.3098   -2.9290    1.0985 C   0  0  0  0  0  0  0  0  0  0  0  0
    0.9076   -2.4976    0.5718 C   0  0  0  0  0  0  0  0  0  0  0  0
    2.2297   -0.9610   -0.8171 C   0  0  0  0  0  0  0  0  0  0  0  0
    3.0942    0.0357   -0.1182 C   0  0  0  0  0  0  0  0  0  0  0  0
   -0.3381    0.1066   -2.8307 C   0  0  0  0  0  0  0  0  0  0  0  0
   -3.3901   -3.6648    0.5465 C   0  0  0  0  0  0  0  0  0  0  0  0
    2.6596    0.5612    1.0769 C   0  0  0  0  0  0  0  0  0  0  0  0
    4.2917    0.3891   -0.6962 C   0  0  0  0  0  0  0  0  0  0  0  0
    3.4672    1.4922    1.7300 C   0  0  0  0  0  0  0  0  0  0  0  0
    5.0993    1.3200   -0.0429 C   0  0  0  0  0  0  0  0  0  0  0  0
    4.6870    1.8715    1.1703 C   0  0  0  0  0  0  0  0  0  0  0  0
  1 12  1  0
  1 19  1  0
  2 13  1  0
  2 20  1  0
  3 17  2  0
  4  5  1  0
  4  6  1  0
  4 10  1  0
  5  7  1  0
  6  8  1  0
  7  9  1  0
  8  9  1  0
 10 11  1  0
 11 12  2  0
 11 13  1  0
 12 14  1  0
 13 15  2  0
 14 16  2  0
 14 17  1  0
 15 16  1  0
 17 18  1  0
 18 21  2  0
 18 22  1  0
 21 23  1  0
 22 24  2  0
 23 25  2  0
 24 25  1  0
M  END
>  <PUBCHEM_COMPOUND_CID>  (1) 
42713

>  <PUBCHEM_CONFORMER_RMSD>  (1) 
0.8

>  <PUBCHEM_CONFORMER_DIVERSEORDER>  (1) 
1
14
4
7
5
6
16
10
8
13
3
2
12
9
15
11

>  <PUBCHEM_MMFF94_PARTIAL_CHARGES>  (1) 
29
1 -0.36
10 0.41
11 -0.14
12 0.08
13 0.08
14 0.09
15 -0.15
16 -0.15
17 0.4
18 0.09
19 0.28
2 -0.36
20 0.28
21 -0.15
22 -0.15
23 -0.15
24 -0.15
25 -0.15
3 -0.57
38 0.15
39 0.15
4 -0.81
46 0.15
47 0.15
48 0.15
49 0.15
5 0.27
50 0.15
6 0.27

>  <PUBCHEM_EFFECTIVE_ROTOR_COUNT>  (1) 
7.2

>  <PUBCHEM_PHARMACOPHORE_FEATURES>  (1) 
7
1 1 acceptor
1 2 acceptor
1 3 acceptor
1 4 cation
6 11 12 13 14 15 16 rings
6 18 21 22 23 24 25 rings
6 4 5 6 7 8 9 rings

>  <PUBCHEM_HEAVY_ATOM_COUNT>  (1) 
25

>  <PUBCHEM_ATOM_DEF_STEREO_COUNT>  (1) 
0

>  <PUBCHEM_ATOM_UDEF_STEREO_COUNT>  (1) 
0

>  <PUBCHEM_BOND_DEF_STEREO_COUNT>  (1) 
0

>  <PUBCHEM_BOND_UDEF_STEREO_COUNT>  (1) 
0

>  <PUBCHEM_ISOTOPIC_ATOM_COUNT>  (1) 
0

>  <PUBCHEM_COMPONENT_COUNT>  (1) 
1

>  <PUBCHEM_CACTVS_TAUTO_COUNT>  (1) 
1

>  <PUBCHEM_CONFORMER_ID>  (1) 
0000A6D900000001

>  <PUBCHEM_MMFF94_ENERGY>  (1) 
91.7759

>  <PUBCHEM_FEATURE_SELFOVERLAP>  (1) 
35.522

>  <PUBCHEM_SHAPE_FINGERPRINT>  (1) 
10006869 2 18409726232445260715
10165383 225 17899999143987184596
10498660 4 18343013359428167456
10670039 82 18194700378472177292
11221954 11 18202285766830047984
11370993 70 18336260137487746145
11646440 116 18118131492457180643
12107183 9 18116134581861821234
12156800 1 15832339137925951424
12633257 1 17894899746723833692
12788726 201 17899150573991891066
13140716 1 17827096287601326123
13878862 14 17323503100112726285
13965767 371 17677889029016533084
13994607 96 18270956968017875964
14081887 123 18337111267004258603
14142880 1 18188196689097798615
14178342 30 18114185241359555591
14468879 13 18060411417647677716
14787075 74 18341598340082640901
14848178 96 18267018349821415396
17876694 64 17678465374814623807
17980427 26 18050549760419182391
20510252 161 18264492951947994218
20600515 1 17681275782275413414
21033648 29 18263369083708745645
21049683 118 18189041011365668361
22182937 141 18341620308186336297
22956985 138 16097417368509604602
23557571 272 18265625444635014694
23559900 14 18409175398335930222
238 59 17060047125968085112
23845131 108 18119539734981591417
283562 15 18261955270716617291
3187 122 18193826278874194001
3886686 26 18045475566187715394
469060 322 18116169920520156987
474 4 18193270785068251329
495365 180 17609769804262427125
633830 44 17983574105146703517
7399639 24 18058741345627616318
7808743 9 18261683622909734620
84936 182 17979070479627975857
9981440 41 18339910563341865130

>  <PUBCHEM_SHAPE_MULTIPOLES>  (1) 
491.9
8.39
4.42
1.73
7.19
0.09
0.81
-6.13
-0.91
-5.84
-1.87
0.38
-0.07
1.58

>  <PUBCHEM_SHAPE_SELFOVERLAP>  (1) 
1051.977

>  <PUBCHEM_SHAPE_VOLUME>  (1) 
272.5

>  <PUBCHEM_COORDINATE_TYPE>  (1) 
2
5
10

$$$$
