42723
     RDKit          3D

 21 24  0  0  0  0  0  0  0  0999 V2000
   -5.1053   -2.1123   -0.0003 O   0  0  0  0  0  0  0  0  0  0  0  0
   -1.4313    1.9545    0.0001 N   0  0  0  0  0  0  0  0  0  0  0  0
    4.1846   -0.9993   -0.0001 N   0  0  0  0  0  0  0  0  0  0  0  0
   -0.5416   -0.0885    0.0004 C   0  0  0  0  0  0  0  0  0  0  0  0
   -0.2382    1.2706    0.0002 C   0  0  0  0  0  0  0  0  0  0  0  0
    0.5210   -1.0162    0.0004 C   0  0  0  0  0  0  0  0  0  0  0  0
    1.0755    1.7551   -0.0001 C   0  0  0  0  0  0  0  0  0  0  0  0
    1.8516   -0.5581    0.0002 C   0  0  0  0  0  0  0  0  0  0  0  0
   -1.9677   -0.2089    0.0002 C   0  0  0  0  0  0  0  0  0  0  0  0
    2.1292    0.8249    0.0000 C   0  0  0  0  0  0  0  0  0  0  0  0
   -2.4943    1.0828    0.0002 C   0  0  0  0  0  0  0  0  0  0  0  0
    2.9242   -1.4513    0.0000 C   0  0  0  0  0  0  0  0  0  0  0  0
    0.2415   -2.4911   -0.0005 C   0  0  0  0  0  0  0  0  0  0  0  0
    3.4634    1.2492    0.0000 C   0  0  0  0  0  0  0  0  0  0  0  0
    1.3316    3.2301   -0.0005 C   0  0  0  0  0  0  0  0  0  0  0  0
   -2.8605   -1.3012    0.0001 C   0  0  0  0  0  0  0  0  0  0  0  0
   -3.8701    1.3397    0.0000 C   0  0  0  0  0  0  0  0  0  0  0  0
    4.4800    0.3049   -0.0001 C   0  0  0  0  0  0  0  0  0  0  0  0
   -4.2390   -1.0604   -0.0001 C   0  0  0  0  0  0  0  0  0  0  0  0
   -4.7341    0.2414    0.0000 C   0  0  0  0  0  0  0  0  0  0  0  0
    5.2793   -1.9660    0.0000 C   0  0  0  0  0  0  0  0  0  0  0  0
  1 19  1  0
  2  5  1  0
  2 11  1  0
  3 12  2  0
  3 18  1  0
  3 21  1  0
  4  5  2  0
  4  6  1  0
  4  9  1  0
  5  7  1  0
  6  8  2  0
  6 13  1  0
  7 10  2  0
  7 15  1  0
  8 10  1  0
  8 12  1  0
  9 11  2  0
  9 16  1  0
 10 14  1  0
 11 17  1  0
 14 18  2  0
 16 19  2  0
 17 20  2  0
 19 20  1  0
M  CHG  1   3   1
M  END
>  <PUBCHEM_COMPOUND_CID>  (1) 
42723

>  <PUBCHEM_CONFORMER_RMSD>  (1) 
0.6

>  <PUBCHEM_CONFORMER_DIVERSEORDER>  (1) 
1

>  <PUBCHEM_MMFF94_PARTIAL_CHARGES>  (1) 
25
1 -0.53
11 -0.15
12 0.21
13 0.14
14 -0.15
15 0.14
16 -0.15
17 -0.15
18 0.21
19 0.08
2 0.03
20 -0.15
21 0.49
22 0.27
23 0.15
27 0.15
3 -0.21
31 0.15
32 0.15
33 0.15
34 0.15
38 0.45
5 -0.15
6 -0.14
7 -0.14

>  <PUBCHEM_EFFECTIVE_ROTOR_COUNT>  (1) 
0

>  <PUBCHEM_PHARMACOPHORE_FEATURES>  (1) 
7
1 1 donor
1 2 cation
1 2 donor
5 2 4 5 9 11 rings
6 3 8 10 12 14 18 rings
6 4 5 6 7 8 10 rings
6 9 11 16 17 19 20 rings

>  <PUBCHEM_HEAVY_ATOM_COUNT>  (1) 
21

>  <PUBCHEM_ATOM_DEF_STEREO_COUNT>  (1) 
0

>  <PUBCHEM_ATOM_UDEF_STEREO_COUNT>  (1) 
0

>  <PUBCHEM_BOND_DEF_STEREO_COUNT>  (1) 
0

>  <PUBCHEM_BOND_UDEF_STEREO_COUNT>  (1) 
0

>  <PUBCHEM_ISOTOPIC_ATOM_COUNT>  (1) 
0

>  <PUBCHEM_COMPONENT_COUNT>  (1) 
1

>  <PUBCHEM_CACTVS_TAUTO_COUNT>  (1) 
10

>  <PUBCHEM_CONFORMER_ID>  (1) 
0000A6E300000001

>  <PUBCHEM_MMFF94_ENERGY>  (1) 
67.5671

>  <PUBCHEM_FEATURE_SELFOVERLAP>  (1) 
35.729

>  <PUBCHEM_SHAPE_FINGERPRINT>  (1) 
10062212 137 18412538808372891335
10411042 1 18410575055089184582
10616163 171 18340206293631489631
10967382 1 18338517550992173892
11680986 33 18118408572884989138
11806522 49 18409167731328293157
12032990 46 18411420583720176244
12236239 1 17917992785136015245
12403259 226 18409442605035774101
12715332 25 18060697312140792742
13140716 1 18268424642726235432
13288520 33 18339644443094588238
138480 1 18338799025853645512
13862211 1 18410007706962898530
14341114 176 18410863174364166289
14790565 3 18265623254523882428
15196674 1 18410855464433698084
15352361 1 18410855447243266406
15536298 74 18342455962946061344
16945 1 18266460004373082948
17492 89 18266458887645136979
17804303 29 18411421704411416853
1813 80 17458623419604787572
19591789 44 18410854339411158134
200 152 18201998841776916569
20028762 73 18201996672539962263
20261772 1 18059572533193969183
21267235 1 18410864243347188899
21279426 13 18336825282227140471
21421861 104 17681836202497820723
221490 88 18263650717619559419
22182313 1 18263620979219204820
2334 1 18410855451970977732
23366157 5 18041840752381182004
23402539 116 18341607084198251062
23559900 14 18411129251598686921
2748010 2 18339071606258424276
2871803 45 18333444344164684991
3004659 81 18187367593744813222
3286 77 18335700571899696756
335352 9 18338797810788747189
34934 24 18265048025410948571
350125 39 18410859897420612025
3886686 26 16821898152037541978
4214541 1 18410575055036359105
465052 167 18341056319120036383
5104073 3 18413108359501019985
59755656 215 18194403290724609238
6138700 20 18337674088625911282
7364860 26 18268992158098296176
77779 3 18411138030332095429
8809292 202 18260834808375001731
9709674 26 18263647423548669307
9981440 41 17401198370964728784

>  <PUBCHEM_SHAPE_MULTIPOLES>  (1) 
416.34
9.85
2.76
0.6
1.18
0.65
0
-4.37
0
-0.64
0
-0.01
0.01
0

>  <PUBCHEM_SHAPE_SELFOVERLAP>  (1) 
949.573

>  <PUBCHEM_SHAPE_VOLUME>  (1) 
221.6

>  <PUBCHEM_COORDINATE_TYPE>  (1) 
2
5
10

$$$$
