42721
     RDKit          3D

 21 22  0  0  1  0  0  0  0  0999 V2000
   -6.7683   -2.1718   -0.0024 I   0  0  0  0  0  0  0  0  0  0  0  0
    1.7287    1.2159    0.6515 O   0  0  0  0  0  0  0  0  0  0  0  0
    0.4830    2.6068   -0.7056 O   0  0  0  0  0  0  0  0  0  0  0  0
   -1.8014    1.5772    0.2589 O   0  0  0  0  0  0  0  0  0  0  0  0
    4.0853   -0.8569    0.7033 C   0  0  0  0  0  0  0  0  0  0  0  0
    3.6980   -1.5883   -0.6024 C   0  0  0  0  0  0  0  0  0  0  0  0
    2.4072   -1.0568   -1.2446 C   0  0  0  0  0  0  0  0  0  0  0  0
    4.0963    0.6752    0.4741 C   0  0  0  0  0  0  0  0  0  0  0  0
    2.8513    1.2324   -0.2233 C   0  0  0  0  0  0  0  0  0  0  0  0
    2.5080    0.4548   -1.4921 C   0  0  0  0  0  0  0  0  0  0  0  0
    5.5043   -1.2999    1.1170 C   0  0  0  0  0  0  0  0  0  0  0  0
    3.1309   -1.2496    1.8478 C   0  0  0  0  0  0  0  0  0  0  0  0
    2.1208   -1.7929   -2.5544 C   0  0  0  0  0  0  0  0  0  0  0  0
    0.5662    1.7248    0.1382 C   0  0  0  0  0  0  0  0  0  0  0  0
   -0.6062    1.0276    0.7765 C   0  0  0  0  0  0  0  0  0  0  0  0
   -2.8969    0.7500    0.2010 C   0  0  0  0  0  0  0  0  0  0  0  0
   -3.0366   -0.2672    1.1356 C   0  0  0  0  0  0  0  0  0  0  0  0
   -3.8490    0.9433   -0.7910 C   0  0  0  0  0  0  0  0  0  0  0  0
   -4.1488   -1.1069    1.0770 C   0  0  0  0  0  0  0  0  0  0  0  0
   -4.9614    0.1037   -0.8496 C   0  0  0  0  0  0  0  0  0  0  0  0
   -5.1114   -0.9213    0.0845 C   0  0  0  0  0  0  0  0  0  0  0  0
  1 21  1  0
  2  9  1  0
  2 14  1  0
  3 14  2  0
  4 15  1  0
  4 16  1  0
  5  6  1  0
  5  8  1  0
  5 11  1  0
  5 12  1  0
  6  7  1  0
  7 10  1  0
  7 13  1  0
  8  9  1  0
  9 10  1  0
 14 15  1  0
 16 17  2  0
 16 18  1  0
 17 19  1  0
 18 20  2  0
 19 21  2  0
 20 21  1  0
M  END
>  <PUBCHEM_COMPOUND_CID>  (1) 
42721

>  <PUBCHEM_CONFORMER_RMSD>  (1) 
0.8

>  <PUBCHEM_CONFORMER_DIVERSEORDER>  (1) 
1
299
66
297
485
262
464
280
285
391
70
19
365
89
160
141
335
193
430
256
4
186
234
250
195
291
484
45
232
281
397
42
272
92
58
179
283
444
202
218
50
30
411
295
129
48
446
478
457
28
116
178
20
317
156
161
23
460
462
204
183
347
433
152
62
266
406
120
322
482
242
134
310
102
490
435
414
40
278
327
487
22
212
324
227
115
348
422
426
236
168
361
35
451
231
274
53
167
10
453
192
293
303
27
21
225
275
137
9
49
438
166
109
60
208
147
260
132
288
273
189
366
372
90
122
447
300
121
326
255
282
352
217
367
458
421
400
473
321
2
226
279
7
476
91
233
169
248
96
8
342
75
5
145
339
244
243
185
164
437
318
79
83
307
377
409
381
99
463
442
71
354
305
311
480
24
355
31
452
80
113
454
284
416
418
93
65
265
410
61
432
105
402
200
150
78
330
142
57
104
18
393
67
380
374
237
313
254
385
395
224
249
110
304
108
439
383
153
350
158
369
344
396
175
302
97
314
323
477
489
479
290
154
220
128
270
29
309
425
209
143
403
199
308
103
76
94
38
378
329
289
124
456
412
182
267
364
126
362
436
268
148
136
450
373
245
15
241
423
301
51
419
59
117
358
151
471
213
331
271
388
198
341
44
72
468
223
353
258
114
306
211
264
488
334
52
219
240
296
107
47
345
449
54
149
398
210
106
222
405
375
165
127
176
269
481
100
11
448
17
253
181
325
16
319
351
111
101
357
37
428
162
69
177
135
174
360
417
188
472
332
118
399
34
328
470
443
123
157
180
68
216
125
26
95
465
56
469
371
221
43
39
215
359
190
112
87
440
229
14
3
316
63
292
88
207
139
434
390
41
246
33
239
13
466
441
155
201
230
407
98
376
346
257
370
343
146
252
81
138
85
420
337
159
235
312
12
429
238
382
261
36
55
263
130
214
363
445
276
247
287
474
356
131
25
170
206
194
427
368
74
32
187
86
338
408
163
404
119
184
320
46
431
459
6
333
467
277
475
415
259
173
386
336
349
389
82
340
84
424
384
298
140
172
196
73
205
486
64
483
191
455
394
379
413
294
171
286
387
228
401
315
77
133
461
144
392
203
197
251

>  <PUBCHEM_MMFF94_PARTIAL_CHARGES>  (1) 
17
1 -0.08
14 0.66
15 0.34
16 0.08
17 -0.15
18 -0.15
19 -0.15
2 -0.43
20 -0.15
21 0.08
3 -0.57
4 -0.36
41 0.15
42 0.15
43 0.15
44 0.15
9 0.28

>  <PUBCHEM_EFFECTIVE_ROTOR_COUNT>  (1) 
6.2

>  <PUBCHEM_PHARMACOPHORE_FEATURES>  (1) 
6
1 1 hydrophobe
1 3 acceptor
1 4 acceptor
3 5 11 12 hydrophobe
6 16 17 18 19 20 21 rings
6 5 6 7 8 9 10 rings

>  <PUBCHEM_HEAVY_ATOM_COUNT>  (1) 
21

>  <PUBCHEM_ATOM_DEF_STEREO_COUNT>  (1) 
0

>  <PUBCHEM_ATOM_UDEF_STEREO_COUNT>  (1) 
2

>  <PUBCHEM_BOND_DEF_STEREO_COUNT>  (1) 
0

>  <PUBCHEM_BOND_UDEF_STEREO_COUNT>  (1) 
0

>  <PUBCHEM_ISOTOPIC_ATOM_COUNT>  (1) 
0

>  <PUBCHEM_COMPONENT_COUNT>  (1) 
1

>  <PUBCHEM_CACTVS_TAUTO_COUNT>  (1) 
1

>  <PUBCHEM_CONFORMER_ID>  (1) 
0000A6E100000001

>  <PUBCHEM_MMFF94_ENERGY>  (1) 
59.5443

>  <PUBCHEM_FEATURE_SELFOVERLAP>  (1) 
30.454

>  <PUBCHEM_SHAPE_FINGERPRINT>  (1) 
10447042 23 18334570252877571126
11069576 57 17458897120675388226
11089746 13 11819266798182200603
11135609 99 18334289894967586298
11720765 8 11458688488598906194
11796584 16 18337103463185532849
12363563 72 18335711511186843049
12553582 1 17775008998345828981
12633257 1 16486960817525354410
12892183 10 16630252406946482057
13533116 47 18269274732971458121
13911882 115 17845938425240493310
1420 369 18272093798890176011
14251740 57 17703524224075089519
14251751 18 18334853944221242139
14251764 75 12246524964626095994
14341114 328 14261342553140493807
14347332 77 18333445461678900333
14528608 73 11819273399757892307
146900 427 17059771251517965896
14848160 33 18410579495710770461
14848178 5 18341611495155927155
14848178 96 10737294575218046015
14863182 85 17632588149446231260
14910302 57 17676756669869020551
15183329 4 15502367911833500163
15210252 30 9151164360002838078
15342816 4 18261397719547136076
15510800 12 18340217348904242015
17349148 13 18201720669413791739
17857418 61 18272651303215761519
18186145 218 12468651533389200964
193927 3 18341058444964849865
1979834 28 17489596666338257711
20403669 9 18410015450983806731
20626108 58 18407757023561012112
20645477 70 18411703226632904109
212847 35 8502378819186498364
21304304 249 18411698773126773950
21315764 119 16588014711369579395
21365058 27 16487254405058764268
21623969 137 18060421339254389519
21860390 5 13696168339610787078
22224240 67 17131537415256096290
23559900 14 18114735036213407697
25222932 49 18335974354738251102
3004659 81 17676200269065629089
3060560 45 14417850345837786192
339767 52 18340477898504296227
38570 142 14906754891656954320
392239 28 16128079114023006810
427121 178 16200143301542388630
439807 62 18113616820483014691
465052 167 18413385432705969990
5104073 3 17130999667770172779
5718773 13 18335132064559865978
59682541 52 15502363526846204931
633830 44 11891625666605917467
7808743 9 10807631407936036272
960060 61 17385446530987070589

>  <PUBCHEM_SHAPE_MULTIPOLES>  (1) 
426.5
14.59
2.32
1.65
16.21
0.17
0.54
-9.6
-1.9
0.04
0.35
-1.53
-0.83
0.25

>  <PUBCHEM_SHAPE_SELFOVERLAP>  (1) 
858.014

>  <PUBCHEM_SHAPE_VOLUME>  (1) 
255.3

>  <PUBCHEM_COORDINATE_TYPE>  (1) 
2
5
10

$$$$
