42729
     RDKit          3D

 18 19  0  0  1  0  0  0  0  0999 V2000
   -2.6122   -2.6767    1.1223 O   0  0  0  0  0  0  0  0  0  0  0  0
    3.7479    0.4748    1.7595 O   0  0  0  0  0  0  0  0  0  0  0  0
    4.9793    0.8967   -0.2686 O   0  0  0  0  0  0  0  0  0  0  0  0
   -3.5453    0.5502   -0.6318 C   0  0  0  0  0  0  0  0  0  0  0  0
   -4.6192    1.6242   -0.3745 C   0  0  0  0  0  0  0  0  0  0  0  0
   -3.5633   -0.5862    0.3968 C   0  0  0  0  0  0  0  0  0  0  0  0
   -2.4758   -1.6416    0.1482 C   0  0  0  0  0  0  0  0  0  0  0  0
   -4.4159    2.2387    1.0126 C   0  0  0  0  0  0  0  0  0  0  0  0
   -6.0394    1.0689   -0.4897 C   0  0  0  0  0  0  0  0  0  0  0  0
   -1.0857   -1.0848    0.2790 C   0  0  0  0  0  0  0  0  0  0  0  0
   -0.1688   -1.1572   -0.6989 C   0  0  0  0  0  0  0  0  0  0  0  0
    1.1973   -0.6141   -0.6221 C   0  0  0  0  0  0  0  0  0  0  0  0
    3.0347    0.1548    0.6456 C   0  0  0  0  0  0  0  0  0  0  0  0
    1.7524   -0.3541    0.6239 C   0  0  0  0  0  0  0  0  0  0  0  0
    3.7377    0.3960   -0.5125 C   0  0  0  0  0  0  0  0  0  0  0  0
    1.8998   -0.3741   -1.8063 C   0  0  0  0  0  0  0  0  0  0  0  0
    3.1972    0.1413   -1.7565 C   0  0  0  0  0  0  0  0  0  0  0  0
    4.9794    0.9432    1.1729 C   0  0  0  0  0  0  0  0  0  0  0  0
  1  7  1  0
  2 13  1  0
  2 18  1  0
  3 15  1  0
  3 18  1  0
  4  5  1  0
  4  6  1  0
  5  8  1  0
  5  9  1  0
  6  7  1  0
  7 10  1  0
 10 11  2  0
 11 12  1  0
 12 14  1  0
 12 16  2  0
 13 14  2  0
 13 15  1  0
 15 17  2  0
 16 17  1  0
M  END
>  <PUBCHEM_COMPOUND_CID>  (1) 
42729

>  <PUBCHEM_CONFORMER_RMSD>  (1) 
0.8

>  <PUBCHEM_CONFORMER_DIVERSEORDER>  (1) 
1
7
4
11
3
9
5
6
2
8
10

>  <PUBCHEM_MMFF94_PARTIAL_CHARGES>  (1) 
19
1 -0.68
10 -0.29
11 -0.18
12 0.03
13 0.08
14 -0.15
15 0.08
16 -0.15
17 -0.15
18 0.56
2 -0.36
3 -0.36
31 0.15
32 0.15
33 0.4
34 0.15
35 0.15
36 0.15
7 0.42

>  <PUBCHEM_EFFECTIVE_ROTOR_COUNT>  (1) 
5.6

>  <PUBCHEM_PHARMACOPHORE_FEATURES>  (1) 
7
1 1 acceptor
1 1 donor
1 2 acceptor
1 3 acceptor
3 5 8 9 hydrophobe
5 2 3 13 15 18 rings
6 12 13 14 15 16 17 rings

>  <PUBCHEM_HEAVY_ATOM_COUNT>  (1) 
18

>  <PUBCHEM_ATOM_DEF_STEREO_COUNT>  (1) 
0

>  <PUBCHEM_ATOM_UDEF_STEREO_COUNT>  (1) 
0

>  <PUBCHEM_BOND_DEF_STEREO_COUNT>  (1) 
0

>  <PUBCHEM_BOND_UDEF_STEREO_COUNT>  (1) 
1

>  <PUBCHEM_ISOTOPIC_ATOM_COUNT>  (1) 
0

>  <PUBCHEM_COMPONENT_COUNT>  (1) 
1

>  <PUBCHEM_CACTVS_TAUTO_COUNT>  (1) 
1

>  <PUBCHEM_CONFORMER_ID>  (1) 
0000A6E900000001

>  <PUBCHEM_MMFF94_ENERGY>  (1) 
38.2359

>  <PUBCHEM_FEATURE_SELFOVERLAP>  (1) 
35.677

>  <PUBCHEM_SHAPE_FINGERPRINT>  (1) 
10042902 136 8430011176029097337
10498660 4 18202005404218205673
10912923 1 17241045530323698038
11089746 13 18130780144951408134
11128504 68 13326567484041647283
11471102 20 16200160923856416526
11543360 7 11095890397318428242
11552529 35 15720825590763018265
12236239 1 17458062694080259234
12403259 415 18059306434200106638
12596602 18 16877948247822228025
12633257 1 17967252009482172197
12670546 177 15769772451133676997
12730499 353 17489591160052865287
13103583 49 14490757793618244709
13402501 40 18131624591198699633
13583140 156 18201434839356703946
14123255 352 18412261735811473129
14251751 18 9006518095047021316
14251764 38 18201718496124268129
14576447 43 12967130506071945942
15003188 100 17346307241364499073
15209294 21 17968090936658920931
15238133 3 18113621179225752908
15375358 24 18060419114202581337
15527383 91 14923943435830852998
15842332 3 16734126710675948039
15880784 105 13046240380865987989
173720 79 17968090911622346715
1741750 31 18408328765839969939
18186145 218 17417828273960180894
19078846 21 18040717017158449188
19141452 34 11891346344114853409
200 152 14189578533144561043
20374829 77 9655570812760645013
20645477 56 18343024402337224271
20645477 70 16630259025633646958
21033648 29 18060131085279805322
21054139 6 12751239199246551156
21065198 48 17240768440134134670
212916 134 18334851714906349411
21401589 2 18340215103115556737
221357 26 16702016444723924217
231179 274 17775003522657905322
23402655 69 16272211872815052980
23503953 91 17676486163563661110
23557571 272 18271533095194393463
23559900 14 18339375071504757142
26918003 58 14057002715592090485
2838139 119 17917419900501686993
2916195 48 18343298146425653681
316301 35 11314025790503083632
341906 21 18410293622650527889
351380 3 11167934771573626333
38570 142 16155434976697476750
4028521 119 17846218830574895369
495365 180 18130504137257608174
5104073 3 17095802247755285896
5352402 22 13551474743666559393
57096353 35 13901911128305036558
573450 72 17822570615751775987
59682541 35 18335993026200154129
59682541 52 16844726392514908253

>  <PUBCHEM_SHAPE_MULTIPOLES>  (1) 
352.82
12.78
1.9
1.46
5.5
0.24
-0.17
-8.05
0.58
2.64
0.66
-1.27
0.04
1.09

>  <PUBCHEM_SHAPE_SELFOVERLAP>  (1) 
732.255

>  <PUBCHEM_SHAPE_VOLUME>  (1) 
202.9

>  <PUBCHEM_COORDINATE_TYPE>  (1) 
2
5
10

$$$$
