42724
     RDKit          3D

 13 12  0  0  1  0  0  0  0  0999 V2000
   -4.3932    1.4745   -1.0756 Cl  0  0  0  0  0  0  0  0  0  0  0  0
   -1.6286   -0.2085   -0.2031 S   0  0  0  0  0  0  0  0  0  0  0  0
    1.4778   -1.8919   -1.5018 O   0  0  0  0  0  0  0  0  0  0  0  0
    0.8102   -3.0140    0.3518 O   0  0  0  0  0  0  0  0  0  0  0  0
    2.6190    1.7165    1.2809 O   0  0  0  0  0  0  0  0  0  0  0  0
    1.5756    0.4413   -0.3642 N   0  0  0  0  0  0  0  0  0  0  0  0
    1.0703   -0.6069    0.4868 C   0  0  0  0  0  0  0  0  0  0  0  0
   -0.3099   -0.2677    1.0553 C   0  0  0  0  0  0  0  0  0  0  0  0
    1.0943   -1.9600   -0.2046 C   0  0  0  0  0  0  0  0  0  0  0  0
   -3.0140    0.1550    0.8974 C   0  0  0  0  0  0  0  0  0  0  0  0
    2.3099    1.5176    0.1090 C   0  0  0  0  0  0  0  0  0  0  0  0
   -4.3461    0.1938    0.1616 C   0  0  0  0  0  0  0  0  0  0  0  0
    2.7347    2.4502   -0.9936 C   0  0  0  0  0  0  0  0  0  0  0  0
  1 12  1  0
  2  8  1  0
  2 10  1  0
  3  9  1  0
  4  9  2  0
  5 11  2  0
  6  7  1  0
  6 11  1  0
  7  8  1  0
  7  9  1  0
 10 12  1  0
 11 13  1  0
M  END
>  <PUBCHEM_COMPOUND_CID>  (1) 
42724

>  <PUBCHEM_CONFORMER_RMSD>  (1) 
0.8

>  <PUBCHEM_CONFORMER_DIVERSEORDER>  (1) 
1
35
2
16
7
20
58
47
50
52
45
55
32
19
49
15
54
22
29
8
53
44
21
9
48
6
56
12
57
26
31
24
33
10
14
43
41
51
3
13
37
38
4
23
42
46
39
11
36
25
27
18
30
28
34
40
17
5

>  <PUBCHEM_MMFF94_PARTIAL_CHARGES>  (1) 
15
1 -0.29
10 0.23
11 0.57
12 0.29
13 0.06
17 0.37
2 -0.46
25 0.5
3 -0.65
4 -0.57
5 -0.57
6 -0.73
7 0.36
8 0.23
9 0.66

>  <PUBCHEM_EFFECTIVE_ROTOR_COUNT>  (1) 
7

>  <PUBCHEM_PHARMACOPHORE_FEATURES>  (1) 
5
1 3 acceptor
1 4 acceptor
1 5 acceptor
1 6 donor
3 3 4 9 anion

>  <PUBCHEM_HEAVY_ATOM_COUNT>  (1) 
13

>  <PUBCHEM_ATOM_DEF_STEREO_COUNT>  (1) 
1

>  <PUBCHEM_ATOM_UDEF_STEREO_COUNT>  (1) 
0

>  <PUBCHEM_BOND_DEF_STEREO_COUNT>  (1) 
0

>  <PUBCHEM_BOND_UDEF_STEREO_COUNT>  (1) 
0

>  <PUBCHEM_ISOTOPIC_ATOM_COUNT>  (1) 
0

>  <PUBCHEM_COMPONENT_COUNT>  (1) 
1

>  <PUBCHEM_CACTVS_TAUTO_COUNT>  (1) 
2

>  <PUBCHEM_CONFORMER_ID>  (1) 
0000A6E400000001

>  <PUBCHEM_MMFF94_ENERGY>  (1) 
19.2765

>  <PUBCHEM_FEATURE_SELFOVERLAP>  (1) 
25.432

>  <PUBCHEM_SHAPE_FINGERPRINT>  (1) 
10980938 120 18410572894704830041
12932764 1 18041572321668094171
14178000 22 18196920291767544600
14415576 193 18335138700273385669
170605 34 18333450967167643081
18186145 218 17845384416786516032
19786989 88 18335696152805493383
20645477 56 17837225035982196240
20645477 70 18201158750716972687
20671657 53 18053108315556218263
21499 59 18340205309951934601
21524375 3 18268992157913166658
22096605 113 18411694379538071729
2255824 54 18269278971766769963
23532345 1 18408322181765556609
23557571 272 17822020813378556209
23598291 2 17701561510257558913
25 1 18129116643713825168
3060560 45 18413110532970957014
58051976 378 18338509863517899767
6049 1 17969523532254912449
7364860 26 18201158750041667866
7615 1 17774443751112081009
81228 2 17332804358254651266
81539 233 18409166631879949397

>  <PUBCHEM_SHAPE_MULTIPOLES>  (1) 
250.66
6.82
2.77
1.21
9.1
0.78
-0.07
-4.76
-0.86
-2.84
-0.68
-0.16
-0.11
0.73

>  <PUBCHEM_SHAPE_SELFOVERLAP>  (1) 
451.185

>  <PUBCHEM_SHAPE_VOLUME>  (1) 
162.6

>  <PUBCHEM_COORDINATE_TYPE>  (1) 
2
5
10

$$$$
