42739
     RDKit          3D

 13 14  0  0  1  0  0  0  0  0999 V2000
    0.3894    1.5291   -0.1778 N   0  0  0  0  0  0  0  0  0  0  0  0
    0.3892   -1.5290   -0.1788 N   0  0  0  0  0  0  0  0  0  0  0  0
    2.3216   -0.0002   -0.2998 C   0  0  0  0  0  0  0  0  0  0  0  0
    1.7218    1.2541    0.3251 C   0  0  0  0  0  0  0  0  0  0  0  0
    1.7212   -1.2541    0.3253 C   0  0  0  0  0  0  0  0  0  0  0  0
   -0.7219    0.7042   -0.0738 C   0  0  0  0  0  0  0  0  0  0  0  0
   -0.7220   -0.7041   -0.0744 C   0  0  0  0  0  0  0  0  0  0  0  0
    2.6097    2.4631    0.0088 C   0  0  0  0  0  0  0  0  0  0  0  0
    2.6091   -2.4635    0.0105 C   0  0  0  0  0  0  0  0  0  0  0  0
   -1.9730    1.3710   -0.0044 C   0  0  0  0  0  0  0  0  0  0  0  0
   -1.9731   -1.3708   -0.0059 C   0  0  0  0  0  0  0  0  0  0  0  0
   -3.1860    0.6906    0.0730 C   0  0  0  0  0  0  0  0  0  0  0  0
   -3.1861   -0.6904    0.0722 C   0  0  0  0  0  0  0  0  0  0  0  0
  1  4  1  0
  1  6  1  0
  2  5  1  0
  2  7  1  0
  3  4  1  0
  3  5  1  0
  4  8  1  0
  5  9  1  0
  6  7  2  0
  6 10  1  0
  7 11  1  0
 10 12  2  0
 11 13  2  0
 12 13  1  0
M  END
>  <PUBCHEM_COMPOUND_CID>  (1) 
42739

>  <PUBCHEM_CONFORMER_RMSD>  (1) 
0.4

>  <PUBCHEM_CONFORMER_DIVERSEORDER>  (1) 
3
5
1
4
2
7
6
8

>  <PUBCHEM_MMFF94_PARTIAL_CHARGES>  (1) 
16
1 -0.87
10 -0.15
11 -0.15
12 -0.15
13 -0.15
18 0.4
19 0.4
2 -0.87
26 0.15
27 0.15
28 0.15
29 0.15
4 0.37
5 0.37
6 0.1
7 0.1

>  <PUBCHEM_EFFECTIVE_ROTOR_COUNT>  (1) 
1

>  <PUBCHEM_PHARMACOPHORE_FEATURES>  (1) 
6
1 1 cation
1 1 donor
1 2 cation
1 2 donor
6 6 7 10 11 12 13 rings
7 1 2 3 4 5 6 7 rings

>  <PUBCHEM_HEAVY_ATOM_COUNT>  (1) 
13

>  <PUBCHEM_ATOM_DEF_STEREO_COUNT>  (1) 
2

>  <PUBCHEM_ATOM_UDEF_STEREO_COUNT>  (1) 
0

>  <PUBCHEM_BOND_DEF_STEREO_COUNT>  (1) 
0

>  <PUBCHEM_BOND_UDEF_STEREO_COUNT>  (1) 
0

>  <PUBCHEM_ISOTOPIC_ATOM_COUNT>  (1) 
0

>  <PUBCHEM_COMPONENT_COUNT>  (1) 
1

>  <PUBCHEM_CACTVS_TAUTO_COUNT>  (1) 
1

>  <PUBCHEM_CONFORMER_ID>  (1) 
0000A6F300000003

>  <PUBCHEM_MMFF94_ENERGY>  (1) 
56.2606

>  <PUBCHEM_FEATURE_SELFOVERLAP>  (1) 
30.455

>  <PUBCHEM_SHAPE_FINGERPRINT>  (1) 
10608611 8 18408600357843744389
10967382 1 18338516455559138149
10980938 120 18411701031825137387
12524768 44 18334855021904306743
12696612 119 18411136900898231822
13380535 21 18337402628937278921
13380535 76 18264202693936794690
13897977 150 18410290345759351085
14325111 11 18339361967401235361
14648413 74 18409730633989523650
15219456 202 18335137600983115501
15442244 35 18268431230841882057
15536298 74 18343865524210418440
15775835 57 18200319964482762257
161256 15 18335419049757544852
16945 1 18410571786175668357
17990270 104 18410290276939628122
193761 8 18410572885639823380
19973954 147 18411138013331567875
20201158 50 18409445877647411611
20559304 39 18410573963908924706
20645476 183 17463982624152046044
20645477 70 18410567388672794823
20671657 1 18412830196308097020
21501502 16 18412825785371305299
21524375 3 18055352702456492292
2334 1 18410572920173635061
23463225 33 18410011000848847470
23552423 10 18336266829125511813
2748010 2 18409164407092138973
3071541 12 18411705391644425012
43471831 8 18192706976158144706
528862 383 18335976553671140880
53812653 166 18270960262352510048
63268167 104 18410579448381552393
7364860 26 18413670210338386506
81228 2 17477773377428700466

>  <PUBCHEM_SHAPE_MULTIPOLES>  (1) 
257.57
4.94
2.56
0.63
1.61
0
0.01
0
0.11
-2.2
0.03
-0.04
0
0

>  <PUBCHEM_SHAPE_SELFOVERLAP>  (1) 
534.965

>  <PUBCHEM_SHAPE_VOLUME>  (1) 
143.6

>  <PUBCHEM_COORDINATE_TYPE>  (1) 
2
5
10

$$$$
