42731
     RDKit          3D

 17 18  0  0  1  0  0  0  0  0999 V2000
   -3.2297    1.0253   -1.3098 O   0  0  0  0  0  0  0  0  0  0  0  0
    3.6902    1.7884    0.2045 O   0  0  0  0  0  0  0  0  0  0  0  0
    5.0309   -0.2130    0.2707 O   0  0  0  0  0  0  0  0  0  0  0  0
   -5.1485    0.0521    0.8304 C   0  0  0  0  0  0  0  0  0  0  0  0
   -3.6279    0.2753    0.9427 C   0  0  0  0  0  0  0  0  0  0  0  0
   -2.8270    0.0470   -0.3486 C   0  0  0  0  0  0  0  0  0  0  0  0
   -5.4940   -1.3544    0.3399 C   0  0  0  0  0  0  0  0  0  0  0  0
   -5.7545    1.0918   -0.1165 C   0  0  0  0  0  0  0  0  0  0  0  0
   -1.3458    0.2052   -0.1483 C   0  0  0  0  0  0  0  0  0  0  0  0
   -0.4538   -0.7475   -0.4631 C   0  0  0  0  0  0  0  0  0  0  0  0
    1.0016   -0.6427   -0.2700 C   0  0  0  0  0  0  0  0  0  0  0  0
    2.9439    0.6609    0.0498 C   0  0  0  0  0  0  0  0  0  0  0  0
    1.5765    0.6134   -0.1288 C   0  0  0  0  0  0  0  0  0  0  0  0
    3.7095   -0.4819    0.0876 C   0  0  0  0  0  0  0  0  0  0  0  0
    1.7671   -1.8116   -0.2337 C   0  0  0  0  0  0  0  0  0  0  0  0
    3.1500   -1.7354   -0.0513 C   0  0  0  0  0  0  0  0  0  0  0  0
    5.0114    1.2270    0.3445 C   0  0  0  0  0  0  0  0  0  0  0  0
  1  6  1  0
  2 12  1  0
  2 17  1  0
  3 14  1  0
  3 17  1  0
  4  5  1  0
  4  7  1  0
  4  8  1  0
  5  6  1  0
  6  9  1  0
  9 10  2  0
 10 11  1  0
 11 13  1  0
 11 15  2  0
 12 13  2  0
 12 14  1  0
 14 16  2  0
 15 16  1  0
M  END
>  <PUBCHEM_COMPOUND_CID>  (1) 
42731

>  <PUBCHEM_CONFORMER_RMSD>  (1) 
0.6

>  <PUBCHEM_CONFORMER_DIVERSEORDER>  (1) 
1
11
7
3
15
20
5
17
13
8
4
6
16
2
9
12
21
14
18
10
19

>  <PUBCHEM_MMFF94_PARTIAL_CHARGES>  (1) 
19
1 -0.68
10 -0.18
11 0.03
12 0.08
13 -0.15
14 0.08
15 -0.15
16 -0.15
17 0.56
2 -0.36
28 0.15
29 0.15
3 -0.36
30 0.15
31 0.4
32 0.15
33 0.15
6 0.42
9 -0.29

>  <PUBCHEM_EFFECTIVE_ROTOR_COUNT>  (1) 
4.6

>  <PUBCHEM_PHARMACOPHORE_FEATURES>  (1) 
7
1 1 acceptor
1 1 donor
1 2 acceptor
1 3 acceptor
3 4 7 8 hydrophobe
5 2 3 12 14 17 rings
6 11 12 13 14 15 16 rings

>  <PUBCHEM_HEAVY_ATOM_COUNT>  (1) 
17

>  <PUBCHEM_ATOM_DEF_STEREO_COUNT>  (1) 
0

>  <PUBCHEM_ATOM_UDEF_STEREO_COUNT>  (1) 
0

>  <PUBCHEM_BOND_DEF_STEREO_COUNT>  (1) 
0

>  <PUBCHEM_BOND_UDEF_STEREO_COUNT>  (1) 
1

>  <PUBCHEM_ISOTOPIC_ATOM_COUNT>  (1) 
0

>  <PUBCHEM_COMPONENT_COUNT>  (1) 
1

>  <PUBCHEM_CACTVS_TAUTO_COUNT>  (1) 
1

>  <PUBCHEM_CONFORMER_ID>  (1) 
0000A6EB00000001

>  <PUBCHEM_MMFF94_ENERGY>  (1) 
40.2418

>  <PUBCHEM_FEATURE_SELFOVERLAP>  (1) 
35.677

>  <PUBCHEM_SHAPE_FINGERPRINT>  (1) 
10 15 18115019822936762992
10354089 29 18272091604077517792
10912923 1 17846779585969015403
11287383 113 18409168822471539051
12107183 9 17550678716390766907
12236239 1 17561363967678232139
12507560 40 18260827051479280005
12596602 18 17988928885687437771
12916748 109 16845583018924472369
13167372 99 18058172730844226049
13167823 11 18413670201870297423
13237642 15 18260833713179271339
13955234 65 18271803489493519466
14123238 8 18334014999373720955
14251732 16 18339361980438942843
14251764 18 18335978749232944034
14341114 176 18410018710673917937
15183329 4 9511192828288759715
15475509 35 16661469742042109296
15880784 105 18410579474726772083
16079462 125 18041549266231057805
17834072 33 18272932743473927119
17844677 252 18341621356553793581
18222031 100 15864072087106369687
18785283 64 18043254745508892284
19489759 90 16660358182704097165
200 152 18343299263217091499
20645477 70 18342177709390371982
21267235 1 18341900645845935230
212847 35 17918273151800277752
21652331 79 18343019977983040689
22854114 59 18408325484183931075
23402539 116 17458060478557545223
23402655 69 18059850684071409198
23557571 272 17240762831196815221
23559900 14 17604441695078171547
26918003 58 18334579031843445961
300161 21 17703782617955079375
33824 294 18335139761220225546
351380 180 18040999548728749961
3545911 37 18412265047294529366
4047638 21 18272654549962916014
42630746 31 18343866598073880238
4325135 7 18272087240765538511
449060 50 18410011039572216070
5104073 3 18261954029491596505
542803 24 17132116836013354841
602551 16 16660373618136181562
77779 3 18412266108304412787
8272917 22 18202286862226180222
9999458 23 18260268564693302374

>  <PUBCHEM_SHAPE_MULTIPOLES>  (1) 
332.24
13.74
1.59
0.82
9.91
0.27
-0.04
-2.44
2.33
-1.01
-0.03
0.66
-0.08
0.55

>  <PUBCHEM_SHAPE_SELFOVERLAP>  (1) 
694.82

>  <PUBCHEM_SHAPE_VOLUME>  (1) 
189.6

>  <PUBCHEM_COORDINATE_TYPE>  (1) 
2
5
10

$$$$
