42737
     RDKit          3D

 12 12  0  0  0  0  0  0  0  0999 V2000
    2.8266    2.5333    0.0008 Br  0  0  0  0  0  0  0  0  0  0  0  0
    1.7231   -2.8864   -0.0034 Cl  0  0  0  0  0  0  0  0  0  0  0  0
   -1.1391   -2.0301    0.0025 O   0  0  0  0  0  0  0  0  0  0  0  0
   -2.4568    1.8059   -0.0034 O   0  0  0  0  0  0  0  0  0  0  0  0
   -2.9057   -0.3429    0.0000 O   0  0  0  0  0  0  0  0  0  0  0  0
   -2.0885    0.6077   -0.0005 N   0  0  0  0  0  0  0  0  0  0  0  0
   -0.6962    0.3168    0.0019 C   0  0  0  0  0  0  0  0  0  0  0  0
   -0.2407   -1.0015    0.0016 C   0  0  0  0  0  0  0  0  0  0  0  0
    0.2179    1.3704    0.0009 C   0  0  0  0  0  0  0  0  0  0  0  0
    1.1289   -1.2663    0.0003 C   0  0  0  0  0  0  0  0  0  0  0  0
    1.5875    1.1058   -0.0003 C   0  0  0  0  0  0  0  0  0  0  0  0
    2.0430   -0.2127   -0.0006 C   0  0  0  0  0  0  0  0  0  0  0  0
  1 11  1  0
  2 10  1  0
  3  8  1  0
  4  6  1  0
  5  6  2  0
  6  7  1  0
  7  8  2  0
  7  9  1  0
  8 10  1  0
  9 11  2  0
 10 12  2  0
 11 12  1  0
M  CHG  2   4  -1   6   1
M  END
>  <PUBCHEM_COMPOUND_CID>  (1) 
42737

>  <PUBCHEM_CONFORMER_RMSD>  (1) 
0.4

>  <PUBCHEM_CONFORMER_DIVERSEORDER>  (1) 
1

>  <PUBCHEM_MMFF94_PARTIAL_CHARGES>  (1) 
15
1 -0.11
10 0.18
11 0.11
12 -0.15
13 0.15
14 0.15
15 0.45
2 -0.18
3 -0.53
4 -0.52
5 -0.52
6 0.91
7 0.13
8 0.08
9 -0.15

>  <PUBCHEM_EFFECTIVE_ROTOR_COUNT>  (1) 
1

>  <PUBCHEM_PHARMACOPHORE_FEATURES>  (1) 
6
1 1 hydrophobe
1 3 donor
1 4 acceptor
1 4 anion
1 5 acceptor
6 7 8 9 10 11 12 rings

>  <PUBCHEM_HEAVY_ATOM_COUNT>  (1) 
12

>  <PUBCHEM_ATOM_DEF_STEREO_COUNT>  (1) 
0

>  <PUBCHEM_ATOM_UDEF_STEREO_COUNT>  (1) 
0

>  <PUBCHEM_BOND_DEF_STEREO_COUNT>  (1) 
0

>  <PUBCHEM_BOND_UDEF_STEREO_COUNT>  (1) 
0

>  <PUBCHEM_ISOTOPIC_ATOM_COUNT>  (1) 
0

>  <PUBCHEM_COMPONENT_COUNT>  (1) 
1

>  <PUBCHEM_CACTVS_TAUTO_COUNT>  (1) 
4

>  <PUBCHEM_CONFORMER_ID>  (1) 
0000A6F100000001

>  <PUBCHEM_MMFF94_ENERGY>  (1) 
33.2285

>  <PUBCHEM_FEATURE_SELFOVERLAP>  (1) 
30.528

>  <PUBCHEM_SHAPE_FINGERPRINT>  (1) 
1 1 18410856577167903060
13380535 76 18265327481426060498
14648413 74 18336829667373107129
16945 1 18410855443080232870
17990270 104 18265613191077118195
193761 8 18410855486077683906
20510252 161 17838623605982189960
20871998 184 17262451007492736822
21040471 1 18410855494614708580
21524375 3 18198903793722548988
2334 1 18194402427509528580
23402539 116 17479168013275905542
23552423 10 18410857629123576143
241688 4 17618505381005251090
2748010 2 18265339593360416342
3071541 12 18339647733134586340
54173680 148 17256808326783123770
6333449 129 17979916338998219044
7364860 26 18340769256495868246
81228 2 17259904542736371106

>  <PUBCHEM_SHAPE_MULTIPOLES>  (1) 
232.18
3.82
3.11
0.6
0.58
2
0
-2.76
0
0.53
0
0.11
0.01
0

>  <PUBCHEM_SHAPE_SELFOVERLAP>  (1) 
467.722

>  <PUBCHEM_SHAPE_VOLUME>  (1) 
141.3

>  <PUBCHEM_COORDINATE_TYPE>  (1) 
2
5
10

$$$$
