42742
     RDKit          3D

 20 23  0  0  0  0  0  0  0  0999 V2000
    0.9367    0.0258   -0.0001 C   0  0  0  0  0  0  0  0  0  0  0  0
   -1.4936    0.5358    0.0000 C   0  0  0  0  0  0  0  0  0  0  0  0
    0.6028   -1.3507   -0.0001 C   0  0  0  0  0  0  0  0  0  0  0  0
   -1.7947   -0.8380    0.0001 C   0  0  0  0  0  0  0  0  0  0  0  0
    2.3249    0.4121   -0.0001 C   0  0  0  0  0  0  0  0  0  0  0  0
   -0.1456    0.9429   -0.0001 C   0  0  0  0  0  0  0  0  0  0  0  0
   -0.7415   -1.7624    0.0000 C   0  0  0  0  0  0  0  0  0  0  0  0
    3.3245   -0.5957    0.0000 C   0  0  0  0  0  0  0  0  0  0  0  0
   -2.5459    1.4679   -0.0001 C   0  0  0  0  0  0  0  0  0  0  0  0
   -3.8753    1.0447    0.0003 C   0  0  0  0  0  0  0  0  0  0  0  0
   -3.1381   -1.2511    0.0001 C   0  0  0  0  0  0  0  0  0  0  0  0
   -4.1713   -0.3142    0.0001 C   0  0  0  0  0  0  0  0  0  0  0  0
    1.6153   -2.3140    0.0000 C   0  0  0  0  0  0  0  0  0  0  0  0
    2.9555   -1.9426    0.0001 C   0  0  0  0  0  0  0  0  0  0  0  0
    2.7784    1.7554   -0.0002 C   0  0  0  0  0  0  0  0  0  0  0  0
    4.6875   -0.2528    0.0001 C   0  0  0  0  0  0  0  0  0  0  0  0
   -4.9628    2.0685    0.0002 C   0  0  0  0  0  0  0  0  0  0  0  0
   -5.5858   -0.7932   -0.0004 C   0  0  0  0  0  0  0  0  0  0  0  0
    4.1371    2.0831    0.0000 C   0  0  0  0  0  0  0  0  0  0  0  0
    5.0919    1.0785    0.0001 C   0  0  0  0  0  0  0  0  0  0  0  0
  1  3  1  0
  1  5  1  0
  1  6  2  0
  2  4  2  0
  2  6  1  0
  2  9  1  0
  3  7  2  0
  3 13  1  0
  4  7  1  0
  4 11  1  0
  5  8  2  0
  5 15  1  0
  8 14  1  0
  8 16  1  0
  9 10  2  0
 10 12  1  0
 10 17  1  0
 11 12  2  0
 12 18  1  0
 13 14  2  0
 15 19  2  0
 16 20  2  0
 19 20  1  0
M  END
>  <PUBCHEM_COMPOUND_CID>  (1) 
42742

>  <PUBCHEM_CONFORMER_RMSD>  (1) 
0.6

>  <PUBCHEM_CONFORMER_DIVERSEORDER>  (1) 
1

>  <PUBCHEM_MMFF94_PARTIAL_CHARGES>  (1) 
24
10 -0.14
11 -0.15
12 -0.14
13 -0.15
14 -0.15
15 -0.15
16 -0.15
17 0.14
18 0.14
19 -0.15
20 -0.15
21 0.15
22 0.15
23 0.15
24 0.15
25 0.15
26 0.15
27 0.15
28 0.15
35 0.15
36 0.15
6 -0.15
7 -0.15
9 -0.15

>  <PUBCHEM_EFFECTIVE_ROTOR_COUNT>  (1) 
0

>  <PUBCHEM_PHARMACOPHORE_FEATURES>  (1) 
4
6 1 2 3 4 6 7 rings
6 1 3 5 8 13 14 rings
6 2 4 9 10 11 12 rings
6 5 8 15 16 19 20 rings

>  <PUBCHEM_HEAVY_ATOM_COUNT>  (1) 
20

>  <PUBCHEM_ATOM_DEF_STEREO_COUNT>  (1) 
0

>  <PUBCHEM_ATOM_UDEF_STEREO_COUNT>  (1) 
0

>  <PUBCHEM_BOND_DEF_STEREO_COUNT>  (1) 
0

>  <PUBCHEM_BOND_UDEF_STEREO_COUNT>  (1) 
0

>  <PUBCHEM_ISOTOPIC_ATOM_COUNT>  (1) 
0

>  <PUBCHEM_COMPONENT_COUNT>  (1) 
1

>  <PUBCHEM_CACTVS_TAUTO_COUNT>  (1) 
1

>  <PUBCHEM_CONFORMER_ID>  (1) 
0000A6F600000001

>  <PUBCHEM_MMFF94_ENERGY>  (1) 
69.614

>  <PUBCHEM_FEATURE_SELFOVERLAP>  (1) 
20.37

>  <PUBCHEM_SHAPE_FINGERPRINT>  (1) 
10411042 1 17402049989807078599
10608611 8 18408884010041534165
10616163 171 18340206400726324639
10967382 1 18410575085137839078
11471102 20 18411698768783684166
11578080 2 13769653099541036988
11595378 159 16516238531498442149
12107183 9 17763466110655308913
12390115 104 18272105867854253745
12403259 415 18335698338606776229
12644460 14 18188209801944222322
12788726 201 17274264912141560193
13140716 1 18263083232244295499
138480 1 17834113048487122722
14528608 73 18412825797881732549
14787075 74 18340485659847686931
14790565 3 18410860983509417141
15196674 1 18410575054914870915
15375358 24 18333453152958077450
15536298 74 18341614789380032006
17492 89 18339924805780978735
17834072 33 18342736329937163351
1813 80 16805608053124809317
18681886 176 18343578556345082890
19784866 9 18410853248636762122
200 152 18131348609605751795
20645477 70 18271810086140968198
20715895 44 17977940190497236705
21267235 1 18411427206175008102
21279426 13 18340208471158504756
21304253 335 18262244326352446405
21421861 104 17751632165963942002
21452121 103 18411974759329803194
21709351 56 18409161108467819132
221490 88 18337680728033252378
23227448 37 18341611572191129783
23402539 116 18343294877327651277
23402655 69 18343580720248977199
23559900 14 18269834212201160450
245318 6 17099480208571516804
335352 9 18410575046820964830
34797466 226 17632304517905534957
34934 24 18411695474185059015
350125 39 18409166572299150388
3545911 37 18410013251443411076
3680242 22 18335417907723389170
4073 2 18041005063192737683
4214541 1 18410855443233441029
474 4 17967536817443044908
495365 180 17346027991897856864
4990 188 17988933266617214244
5104073 3 18335423422413853171
543358 83 18340491049867924706
59755656 215 18410860945524319566
633830 44 18411696565085822486
7364860 26 18341333288992402134
77779 3 18411138013437088835
8272917 22 18341898433357470782
9709674 26 18410862044387516247

>  <PUBCHEM_SHAPE_MULTIPOLES>  (1) 
411.59
11.24
2.36
0.62
3.83
0.05
0
-3.75
0
-0.57
0
0
0
0

>  <PUBCHEM_SHAPE_SELFOVERLAP>  (1) 
937.868

>  <PUBCHEM_SHAPE_VOLUME>  (1) 
197.8

>  <PUBCHEM_COORDINATE_TYPE>  (1) 
2
5
10

$$$$
