42743
     RDKit          3D

 20 23  0  0  0  0  0  0  0  0999 V2000
   -1.9251   -0.3762    0.0001 C   0  0  0  0  0  0  0  0  0  0  0  0
    0.8894    0.1575   -0.0001 C   0  0  0  0  0  0  0  0  0  0  0  0
   -1.4631    0.9522   -0.0001 C   0  0  0  0  0  0  0  0  0  0  0  0
    0.3946   -1.1697    0.0000 C   0  0  0  0  0  0  0  0  0  0  0  0
    2.3137    0.3763   -0.0001 C   0  0  0  0  0  0  0  0  0  0  0  0
   -3.3080   -0.6271    0.0001 C   0  0  0  0  0  0  0  0  0  0  0  0
   -0.0764    1.1964   -0.0001 C   0  0  0  0  0  0  0  0  0  0  0  0
   -0.9890   -1.4190    0.0001 C   0  0  0  0  0  0  0  0  0  0  0  0
    3.1867   -0.7429    0.0000 C   0  0  0  0  0  0  0  0  0  0  0  0
   -4.2228    0.4258    0.0001 C   0  0  0  0  0  0  0  0  0  0  0  0
   -2.3974    2.0025   -0.0001 C   0  0  0  0  0  0  0  0  0  0  0  0
    1.2857   -2.2463    0.0001 C   0  0  0  0  0  0  0  0  0  0  0  0
    2.6605   -2.0365    0.0002 C   0  0  0  0  0  0  0  0  0  0  0  0
   -3.7676    1.7400    0.0002 C   0  0  0  0  0  0  0  0  0  0  0  0
   -3.8413   -2.0296   -0.0006 C   0  0  0  0  0  0  0  0  0  0  0  0
    2.9233    1.6563   -0.0002 C   0  0  0  0  0  0  0  0  0  0  0  0
    4.5807   -0.5641    0.0002 C   0  0  0  0  0  0  0  0  0  0  0  0
   -5.6955    0.1739    0.0004 C   0  0  0  0  0  0  0  0  0  0  0  0
    4.3113    1.8206   -0.0001 C   0  0  0  0  0  0  0  0  0  0  0  0
    5.1403    0.7098    0.0001 C   0  0  0  0  0  0  0  0  0  0  0  0
  1  3  1  0
  1  6  2  0
  1  8  1  0
  2  4  1  0
  2  5  1  0
  2  7  2  0
  3  7  1  0
  3 11  2  0
  4  8  2  0
  4 12  1  0
  5  9  2  0
  5 16  1  0
  6 10  1  0
  6 15  1  0
  9 13  1  0
  9 17  1  0
 10 14  2  0
 10 18  1  0
 11 14  1  0
 12 13  2  0
 16 19  2  0
 17 20  2  0
 19 20  1  0
M  END
>  <PUBCHEM_COMPOUND_CID>  (1) 
42743

>  <PUBCHEM_CONFORMER_RMSD>  (1) 
0.6

>  <PUBCHEM_CONFORMER_DIVERSEORDER>  (1) 
1

>  <PUBCHEM_MMFF94_PARTIAL_CHARGES>  (1) 
24
10 -0.14
11 -0.15
12 -0.15
13 -0.15
14 -0.15
15 0.14
16 -0.15
17 -0.15
18 0.14
19 -0.15
20 -0.15
21 0.15
22 0.15
23 0.15
24 0.15
25 0.15
26 0.15
30 0.15
31 0.15
35 0.15
36 0.15
6 -0.14
7 -0.15
8 -0.15

>  <PUBCHEM_EFFECTIVE_ROTOR_COUNT>  (1) 
0

>  <PUBCHEM_PHARMACOPHORE_FEATURES>  (1) 
4
6 1 2 3 4 7 8 rings
6 1 3 6 10 11 14 rings
6 2 4 5 9 12 13 rings
6 5 9 16 17 19 20 rings

>  <PUBCHEM_HEAVY_ATOM_COUNT>  (1) 
20

>  <PUBCHEM_ATOM_DEF_STEREO_COUNT>  (1) 
0

>  <PUBCHEM_ATOM_UDEF_STEREO_COUNT>  (1) 
0

>  <PUBCHEM_BOND_DEF_STEREO_COUNT>  (1) 
0

>  <PUBCHEM_BOND_UDEF_STEREO_COUNT>  (1) 
0

>  <PUBCHEM_ISOTOPIC_ATOM_COUNT>  (1) 
0

>  <PUBCHEM_COMPONENT_COUNT>  (1) 
1

>  <PUBCHEM_CACTVS_TAUTO_COUNT>  (1) 
1

>  <PUBCHEM_CONFORMER_ID>  (1) 
0000A6F700000001

>  <PUBCHEM_MMFF94_ENERGY>  (1) 
74.2234

>  <PUBCHEM_FEATURE_SELFOVERLAP>  (1) 
20.37

>  <PUBCHEM_SHAPE_FINGERPRINT>  (1) 
10411042 1 16897365915680520290
10608611 8 18337389344450626972
10616163 171 18412263960520474287
10646746 165 18411138026395889324
10967382 1 18410573967997975204
11471102 20 18411417293775201574
11578080 2 16952518096779619999
12107183 9 17762619482217024049
12236239 1 17846216644420593901
12403259 415 18408878538438400148
12788726 201 17202489892649941017
13140716 1 17833277793274536755
13224815 77 18410293596822571891
138480 1 17762055432863595010
14341114 176 18409736140158695945
14528608 73 18413106186268614588
14787075 74 18339922713846205139
14790565 3 18411706520857171313
15196674 1 18410575101974985798
15442244 35 18122906425999273634
15536298 74 18341614780811085998
17349148 13 17967532406189741964
17492 89 18410855425938267899
1813 80 16950569856627447605
18681886 176 18340766035808694008
19591789 44 18268709596161920091
200 152 18131628980802299561
20645477 70 18271527494419961110
21267235 1 18411145705460044735
21421861 104 17824537466097176954
21652331 79 18409729556111234573
21709351 56 18408317800545545836
221490 88 18410582751475647122
23227448 37 18341893034298756310
23366157 5 18041846086936200994
23402539 116 18411412955552388183
23559900 14 18197775505882734386
245318 6 17027142234915937532
335352 9 18410856556273529846
34797466 226 17632021926232117532
34934 24 18410006629194827247
350125 39 18410011057306206852
3545911 37 18409731755007792165
4214541 1 18410856533981080385
474 4 17894918455310945268
474229 33 18411136965212068919
4990 188 18060146427261656692
5104073 3 18409449163307845978
58051976 378 18413107247062298124
59755656 215 18410296882889551446
69090 78 18413105069619445366
7364860 26 18269275673426870710
77779 3 18411419501151040812
9709674 26 18410580569352731342

>  <PUBCHEM_SHAPE_MULTIPOLES>  (1) 
411.59
10.74
2.34
0.62
1.4
0.33
0
-2.15
0
-0.19
0
0
0
0

>  <PUBCHEM_SHAPE_SELFOVERLAP>  (1) 
938.96

>  <PUBCHEM_SHAPE_VOLUME>  (1) 
196.9

>  <PUBCHEM_COORDINATE_TYPE>  (1) 
2
5
10

$$$$
