42746
     RDKit          3D

 11 10  0  0  1  0  0  0  0  0999 V2000
    1.2968    0.6476    0.5361 O   0  0  0  0  0  0  0  0  0  0  0  0
   -2.1151    0.4360   -1.7363 O   0  0  0  0  0  0  0  0  0  0  0  0
    1.5765   -0.4628   -1.4719 O   0  0  0  0  0  0  0  0  0  0  0  0
   -0.9596   -0.0839   -0.0508 N   0  0  0  0  0  0  0  0  0  0  0  0
   -2.1436    0.2705   -0.5109 N   0  0  0  0  0  0  0  0  0  0  0  0
   -0.0519    1.0626    0.2018 C   0  0  0  0  0  0  0  0  0  0  0  0
   -1.0270   -0.9370    1.1466 C   0  0  0  0  0  0  0  0  0  0  0  0
   -0.5846    1.9619    1.3255 C   0  0  0  0  0  0  0  0  0  0  0  0
   -1.3164   -2.3816    0.7757 C   0  0  0  0  0  0  0  0  0  0  0  0
    1.9816   -0.0972   -0.3772 C   0  0  0  0  0  0  0  0  0  0  0  0
    3.3432   -0.4162    0.1616 C   0  0  0  0  0  0  0  0  0  0  0  0
  1  6  1  0
  1 10  1  0
  2  5  2  0
  3 10  2  0
  4  5  1  0
  4  6  1  0
  4  7  1  0
  6  8  1  0
  7  9  1  0
 10 11  1  0
M  END
>  <PUBCHEM_COMPOUND_CID>  (1) 
42746

>  <PUBCHEM_CONFORMER_RMSD>  (1) 
0.6

>  <PUBCHEM_CONFORMER_DIVERSEORDER>  (1) 
1
181
97
140
30
75
134
29
171
109
132
102
36
40
70
88
105
103
86
144
152
98
141
129
41
63
92
94
7
56
54
21
162
128
73
60
143
188
27
71
11
147
10
160
173
186
26
68
190
167
12
64
72
49
197
66
51
42
198
6
110
80
83
182
104
65
120
16
163
85
168
108
46
39
125
15
151
178
177
76
48
137
153
112
164
150
91
20
142
35
33
136
149
4
9
101
184
55
99
195
81
124
154
74
189
57
5
23
44
100
165
106
69
14
67
180
38
47
52
90
96
172
196
93
17
122
111
22
176
107
25
130
131
3
123
127
175
89
114
13
58
113
61
43
59
2
84
79
187
119
121
133
62
135
191
126
183
19
155
37
166
45
87
118
77
170
28
116
34
146
174
82
95
156
138
169
24
18
159
115
8
53
32
185
145
31
161
148
117
192
50
158
193
78
139
179
194
157

>  <PUBCHEM_MMFF94_PARTIAL_CHARGES>  (1) 
9
1 -0.43
10 0.66
11 0.06
2 -0.16
3 -0.57
4 -0.36
5 -0.01
6 0.55
7 0.27

>  <PUBCHEM_EFFECTIVE_ROTOR_COUNT>  (1) 
5

>  <PUBCHEM_PHARMACOPHORE_FEATURES>  (1) 
1
1 3 acceptor

>  <PUBCHEM_HEAVY_ATOM_COUNT>  (1) 
11

>  <PUBCHEM_ATOM_DEF_STEREO_COUNT>  (1) 
0

>  <PUBCHEM_ATOM_UDEF_STEREO_COUNT>  (1) 
1

>  <PUBCHEM_BOND_DEF_STEREO_COUNT>  (1) 
0

>  <PUBCHEM_BOND_UDEF_STEREO_COUNT>  (1) 
0

>  <PUBCHEM_ISOTOPIC_ATOM_COUNT>  (1) 
0

>  <PUBCHEM_COMPONENT_COUNT>  (1) 
1

>  <PUBCHEM_CACTVS_TAUTO_COUNT>  (1) 
1

>  <PUBCHEM_CONFORMER_ID>  (1) 
0000A6FA00000001

>  <PUBCHEM_MMFF94_ENERGY>  (1) 
15.6488

>  <PUBCHEM_FEATURE_SELFOVERLAP>  (1) 
5.074

>  <PUBCHEM_SHAPE_FINGERPRINT>  (1) 
12716758 59 18186791496089169560
12932764 1 17386306345391692212
13024252 1 13696166114421594721
15310529 11 16588606282404286258
20653085 51 16588030065260153012
20711978 78 17554904530259928459
21061003 4 17985847040404333306
29004967 10 17988092195761147632
3250762 1 17976530938575253481

>  <PUBCHEM_SHAPE_MULTIPOLES>  (1) 
198.8
3.53
1.85
1.39
2.83
0.43
0.38
0.84
0.66
-1.09
-0.93
-0.58
-0.19
0.44

>  <PUBCHEM_SHAPE_SELFOVERLAP>  (1) 
371.239

>  <PUBCHEM_SHAPE_VOLUME>  (1) 
124.7

>  <PUBCHEM_COORDINATE_TYPE>  (1) 
2
5
10

$$$$
