42747
     RDKit          3D

 23 26  0  0  0  0  0  0  0  0999 V2000
   -3.5456    4.3595   -0.0704 Cl  0  0  0  0  0  0  0  0  0  0  0  0
    0.5294   -3.0772    0.6446 S   0  0  0  0  0  0  0  0  0  0  0  0
   -4.0951   -2.9430   -0.3219 O   0  0  0  0  0  0  0  0  0  0  0  0
   -2.2752   -2.5527   -1.6295 O   0  0  0  0  0  0  0  0  0  0  0  0
    1.1442   -0.6206    0.2105 N   0  0  0  0  0  0  0  0  0  0  0  0
    3.0108   -1.8623    0.2076 N   0  0  0  0  0  0  0  0  0  0  0  0
   -0.2375   -0.5868    0.3461 C   0  0  0  0  0  0  0  0  0  0  0  0
    2.1638    0.2688   -0.0281 C   0  0  0  0  0  0  0  0  0  0  0  0
    1.7147   -1.8520    0.3387 C   0  0  0  0  0  0  0  0  0  0  0  0
   -0.7394   -1.8223    0.5840 C   0  0  0  0  0  0  0  0  0  0  0  0
    3.3158   -0.5342   -0.0247 C   0  0  0  0  0  0  0  0  0  0  0  0
   -1.0406    0.6150    0.2450 C   0  0  0  0  0  0  0  0  0  0  0  0
   -2.1612   -2.2282    0.7903 C   0  0  0  0  0  0  0  0  0  0  0  0
    2.2114    1.6499   -0.2419 C   0  0  0  0  0  0  0  0  0  0  0  0
    4.5695    0.0638   -0.2439 C   0  0  0  0  0  0  0  0  0  0  0  0
   -1.3105    1.3782    1.3843 C   0  0  0  0  0  0  0  0  0  0  0  0
   -1.5508    1.0174   -0.9925 C   0  0  0  0  0  0  0  0  0  0  0  0
    3.4697    2.2215   -0.4583 C   0  0  0  0  0  0  0  0  0  0  0  0
    4.6287    1.4448   -0.4598 C   0  0  0  0  0  0  0  0  0  0  0  0
   -2.8017   -2.5806   -0.5272 C   0  0  0  0  0  0  0  0  0  0  0  0
   -2.0843    2.5347    1.2869 C   0  0  0  0  0  0  0  0  0  0  0  0
   -2.3245    2.1740   -1.0898 C   0  0  0  0  0  0  0  0  0  0  0  0
   -2.5913    2.9326    0.0498 C   0  0  0  0  0  0  0  0  0  0  0  0
  1 23  1  0
  2  9  1  0
  2 10  1  0
  3 20  1  0
  4 20  2  0
  5  7  1  0
  5  8  1  0
  5  9  1  0
  6  9  2  0
  6 11  1  0
  7 10  2  0
  7 12  1  0
  8 11  2  0
  8 14  1  0
 10 13  1  0
 11 15  1  0
 12 16  2  0
 12 17  1  0
 13 20  1  0
 14 18  2  0
 15 19  2  0
 16 21  1  0
 17 22  2  0
 18 19  1  0
 21 23  2  0
 22 23  1  0
M  END
>  <PUBCHEM_COMPOUND_CID>  (1) 
42747

>  <PUBCHEM_CONFORMER_RMSD>  (1) 
0.6

>  <PUBCHEM_CONFORMER_DIVERSEORDER>  (1) 
1
3
4
2

>  <PUBCHEM_MMFF94_PARTIAL_CHARGES>  (1) 
32
1 -0.18
10 -0.04
11 0.23
12 0.03
13 0.2
14 -0.15
15 -0.15
16 -0.15
17 -0.15
18 -0.15
19 -0.15
2 -0.16
20 0.66
21 -0.15
22 -0.15
23 0.18
26 0.15
27 0.15
28 0.15
29 0.15
3 -0.65
30 0.15
31 0.15
32 0.15
33 0.15
34 0.5
4 -0.57
5 0.33
6 -0.57
7 -0.06
8 -0.15
9 0.24

>  <PUBCHEM_EFFECTIVE_ROTOR_COUNT>  (1) 
3

>  <PUBCHEM_PHARMACOPHORE_FEATURES>  (1) 
8
1 3 acceptor
1 4 acceptor
3 3 4 20 anion
3 5 6 9 cation
5 2 5 7 9 10 rings
5 5 6 8 9 11 rings
6 12 16 17 21 22 23 rings
6 8 11 14 15 18 19 rings

>  <PUBCHEM_HEAVY_ATOM_COUNT>  (1) 
23

>  <PUBCHEM_ATOM_DEF_STEREO_COUNT>  (1) 
0

>  <PUBCHEM_ATOM_UDEF_STEREO_COUNT>  (1) 
0

>  <PUBCHEM_BOND_DEF_STEREO_COUNT>  (1) 
0

>  <PUBCHEM_BOND_UDEF_STEREO_COUNT>  (1) 
0

>  <PUBCHEM_ISOTOPIC_ATOM_COUNT>  (1) 
0

>  <PUBCHEM_COMPONENT_COUNT>  (1) 
1

>  <PUBCHEM_CACTVS_TAUTO_COUNT>  (1) 
1

>  <PUBCHEM_CONFORMER_ID>  (1) 
0000A6FB00000001

>  <PUBCHEM_MMFF94_ENERGY>  (1) 
56.1077

>  <PUBCHEM_FEATURE_SELFOVERLAP>  (1) 
41.005

>  <PUBCHEM_SHAPE_FINGERPRINT>  (1) 
104564 63 18339363066860044163
10670039 82 17973463263160191676
10871710 139 18193012614362549172
10967382 1 17903639579842388970
1100329 8 18047749304725632474
11045515 52 18121779701727943255
11578080 2 17488730311230857059
11582403 64 15795074292627021789
11725454 13 16300054702992192669
12403260 363 18262511611284289416
12788726 201 18336537330355552787
12954195 1 18340501036025623310
13140716 1 18263360292421945906
13149001 5 17696220022239789774
13583140 156 17241329036455872041
13590594 115 18195251242587652251
138480 1 16895394988803825664
13911987 19 17756151437832354638
14178342 30 18338499860364884002
14347332 77 18341618148498469782
15210252 30 17899402362608410861
16945 1 18047755888910191746
16988056 13 17762313105979968693
17138139 8 17840546433361303677
17357779 13 18123461936974301855
20510252 161 18339081622048084816
20600515 1 17692276421906885784
20642791 105 18338783559844360776
20645476 183 18126837206023201005
21049683 271 17539696120127453063
21641784 216 18189066454303497765
22182937 141 18410862031650099640
2255824 54 17547288904804350417
23227448 37 18410577249379558245
2334 1 18408326601160433666
23402539 116 18197218268177664718
23419403 2 17345180310876353073
23558518 356 18187653509095417274
23559900 14 17834679679833755984
238 59 17175989376848909541
25147074 1 18187643588174546642
266924 87 18410009974410114942
283562 15 18335982085636867826
3060560 45 17619065036550067999
335352 9 18119814599961370174
350125 39 18408895044213327464
474 4 17978229353064247017
5048184 11 18337393721217876676
57307002 19 16758305177751303360
7164475 11 18412260657780183998
7832392 63 18265052436363713962
81228 2 18261961863327139273
8272917 22 17331682345662781697

>  <PUBCHEM_SHAPE_MULTIPOLES>  (1) 
457.35
7.39
4.97
1.07
4.56
0.45
0.02
-4.51
1.15
-5.57
0.27
-0.74
0.03
-1.13

>  <PUBCHEM_SHAPE_SELFOVERLAP>  (1) 
1002.75

>  <PUBCHEM_SHAPE_VOLUME>  (1) 
251

>  <PUBCHEM_COORDINATE_TYPE>  (1) 
2
5
10

$$$$
