42748
     RDKit          3D

 13 13  0  0  1  0  0  0  0  0999 V2000
    2.2311    1.0334    1.2286 O   0  0  0  0  0  0  0  0  0  0  0  0
   -0.7109   -1.7801    0.1687 C   0  0  0  0  0  0  0  0  0  0  0  0
   -0.9097   -0.3066    0.0268 C   0  0  0  0  0  0  0  0  0  0  0  0
    0.1639    0.5765    0.1423 C   0  0  0  0  0  0  0  0  0  0  0  0
    1.5454    0.0759    0.4098 C   0  0  0  0  0  0  0  0  0  0  0  0
    2.3949   -0.1671   -0.8544 C   0  0  0  0  0  0  0  0  0  0  0  0
   -1.0706   -2.5471   -1.1170 C   0  0  0  0  0  0  0  0  0  0  0  0
   -1.4878   -2.3647    1.3625 C   0  0  0  0  0  0  0  0  0  0  0  0
   -2.1914    0.1826   -0.2250 C   0  0  0  0  0  0  0  0  0  0  0  0
   -0.0443    1.9490    0.0061 C   0  0  0  0  0  0  0  0  0  0  0  0
   -2.3997    1.5552   -0.3612 C   0  0  0  0  0  0  0  0  0  0  0  0
   -1.3260    2.4383   -0.2455 C   0  0  0  0  0  0  0  0  0  0  0  0
    3.8050   -0.6452   -0.5417 C   0  0  0  0  0  0  0  0  0  0  0  0
  1  5  1  0
  2  3  1  0
  2  7  1  0
  2  8  1  0
  3  4  2  0
  3  9  1  0
  4  5  1  0
  4 10  1  0
  5  6  1  0
  6 13  1  0
  9 11  2  0
 10 12  2  0
 11 12  1  0
M  END
>  <PUBCHEM_COMPOUND_CID>  (1) 
42748

>  <PUBCHEM_CONFORMER_RMSD>  (1) 
0.6

>  <PUBCHEM_CONFORMER_DIVERSEORDER>  (1) 
1
6
4
5
2
3

>  <PUBCHEM_MMFF94_PARTIAL_CHARGES>  (1) 
14
1 -0.68
10 -0.15
11 -0.15
12 -0.15
2 0.14
24 0.15
25 0.15
26 0.15
27 0.15
3 -0.14
31 0.4
4 -0.14
5 0.42
9 -0.15

>  <PUBCHEM_EFFECTIVE_ROTOR_COUNT>  (1) 
3

>  <PUBCHEM_PHARMACOPHORE_FEATURES>  (1) 
5
1 1 acceptor
1 1 donor
1 13 hydrophobe
3 2 7 8 hydrophobe
6 3 4 9 10 11 12 rings

>  <PUBCHEM_HEAVY_ATOM_COUNT>  (1) 
13

>  <PUBCHEM_ATOM_DEF_STEREO_COUNT>  (1) 
0

>  <PUBCHEM_ATOM_UDEF_STEREO_COUNT>  (1) 
1

>  <PUBCHEM_BOND_DEF_STEREO_COUNT>  (1) 
0

>  <PUBCHEM_BOND_UDEF_STEREO_COUNT>  (1) 
0

>  <PUBCHEM_ISOTOPIC_ATOM_COUNT>  (1) 
0

>  <PUBCHEM_COMPONENT_COUNT>  (1) 
1

>  <PUBCHEM_CACTVS_TAUTO_COUNT>  (1) 
1

>  <PUBCHEM_CONFORMER_ID>  (1) 
0000A6FC00000001

>  <PUBCHEM_MMFF94_ENERGY>  (1) 
35.4439

>  <PUBCHEM_FEATURE_SELFOVERLAP>  (1) 
25.371

>  <PUBCHEM_SHAPE_FINGERPRINT>  (1) 
1 1 17904475203893914559
116883 192 17982720068185212775
12138202 97 18412263896195776254
12423570 1 16962091394172656744
12524768 44 18196645409439045489
12716758 59 18410571764933038000
12759256 9 17113530978914419491
13538477 17 17821727247462349930
14817 1 10683401944015441755
15279308 132 18268707225672425104
15490181 7 18195225763944684321
161256 15 17687197795046882033
16945 1 18186800279360814161
18534176 82 18338814329164103486
193761 8 17977102684643010317
20645476 183 17676209030819940066
20711985 344 18336539507988335186
20871998 184 18341061790607411790
20871998 22 17904210569510702675
21524375 3 18120931711642230581
22344851 341 17545051398457093043
22802520 49 18341056289086432970
23388829 49 17189802983852435949
23419403 2 15480098497518841806
23559900 14 18271243799873559982
2748010 2 18195241345885457213
430814 3 17677897829261948354
57177213 63 17829612755846913541
576247 118 17683269196961787338
7364860 26 17405417806928144957
81228 2 18264760124857396625
81539 233 17755300072324593405

>  <PUBCHEM_SHAPE_MULTIPOLES>  (1) 
261.66
4.01
2.89
1.05
4.27
0.87
-0.12
-0.32
0.61
-2.09
-0.02
0.09
0.48
0.57

>  <PUBCHEM_SHAPE_SELFOVERLAP>  (1) 
527.974

>  <PUBCHEM_SHAPE_VOLUME>  (1) 
154.6

>  <PUBCHEM_COORDINATE_TYPE>  (1) 
2
5
10

$$$$
