42756
     RDKit          3D

 38 43  0  0  1  0  0  0  0  0999 V2000
    2.6988    1.7930    1.7978 N   0  0  0  0  0  0  0  0  0  0  0  0
    3.9177    0.3313    0.0952 N   0  0  0  0  0  0  0  0  0  0  0  0
   -1.4741    1.0897    0.8678 N   0  0  0  0  0  0  0  0  0  0  0  0
    1.0876   -1.5438   -2.2995 N   0  0  0  0  0  0  0  0  0  0  0  0
   -5.1347   -0.8449    0.2161 N   0  0  0  0  0  0  0  0  0  0  0  0
    3.7329    0.7809    1.4783 C   0  0  0  0  0  0  0  0  0  0  0  0
    5.0894    1.3223    2.0025 C   0  0  0  0  0  0  0  0  0  0  0  0
    1.3602    1.2164    1.7678 C   0  0  0  0  0  0  0  0  0  0  0  0
    0.2806    2.2586    2.0759 C   0  0  0  0  0  0  0  0  0  0  0  0
    5.6087    2.5543    1.2493 C   0  0  0  0  0  0  0  0  0  0  0  0
    2.9747   -0.2936   -0.7028 C   0  0  0  0  0  0  0  0  0  0  0  0
   -1.1447    1.7076    2.1081 C   0  0  0  0  0  0  0  0  0  0  0  0
    2.1884    0.4684   -1.5728 C   0  0  0  0  0  0  0  0  0  0  0  0
    2.8165   -1.6815   -0.6319 C   0  0  0  0  0  0  0  0  0  0  0  0
   -2.7155    0.4338    0.6468 C   0  0  0  0  0  0  0  0  0  0  0  0
    6.9663    2.9923    1.7785 C   0  0  0  0  0  0  0  0  0  0  0  0
    1.2440   -0.2075   -2.3638 C   0  0  0  0  0  0  0  0  0  0  0  0
    1.8475   -2.2732   -1.4598 C   0  0  0  0  0  0  0  0  0  0  0  0
   -3.8027    1.1575    0.1470 C   0  0  0  0  0  0  0  0  0  0  0  0
   -2.8390   -0.9300    0.9310 C   0  0  0  0  0  0  0  0  0  0  0  0
    2.3259    1.8645   -1.6644 C   0  0  0  0  0  0  0  0  0  0  0  0
    3.5929   -2.4718    0.2334 C   0  0  0  0  0  0  0  0  0  0  0  0
   -5.0104    0.4684   -0.0561 C   0  0  0  0  0  0  0  0  0  0  0  0
   -4.0843   -1.5374    0.6973 C   0  0  0  0  0  0  0  0  0  0  0  0
    0.4581    0.5458   -3.2320 C   0  0  0  0  0  0  0  0  0  0  0  0
    1.6853   -3.6544   -1.3938 C   0  0  0  0  0  0  0  0  0  0  0  0
    1.5279    2.5944   -2.5403 C   0  0  0  0  0  0  0  0  0  0  0  0
    3.4111   -3.8508    0.2804 C   0  0  0  0  0  0  0  0  0  0  0  0
   -3.7068    2.5288   -0.1475 C   0  0  0  0  0  0  0  0  0  0  0  0
   -1.7629   -1.6820    1.4340 C   0  0  0  0  0  0  0  0  0  0  0  0
    0.5922    1.9332   -3.3257 C   0  0  0  0  0  0  0  0  0  0  0  0
    2.4552   -4.4429   -0.5351 C   0  0  0  0  0  0  0  0  0  0  0  0
   -6.0965    1.1836   -0.5536 C   0  0  0  0  0  0  0  0  0  0  0  0
   -4.2135   -2.8950    0.9783 C   0  0  0  0  0  0  0  0  0  0  0  0
   -4.8075    3.2207   -0.6440 C   0  0  0  0  0  0  0  0  0  0  0  0
   -1.9183   -3.0377    1.7067 C   0  0  0  0  0  0  0  0  0  0  0  0
   -6.0047    2.5463   -0.8473 C   0  0  0  0  0  0  0  0  0  0  0  0
   -3.1463   -3.6452    1.4783 C   0  0  0  0  0  0  0  0  0  0  0  0
  1  6  1  0
  1  8  1  0
  2  6  1  0
  2 11  1  0
  3 12  1  0
  3 15  1  0
  4 17  2  0
  4 18  1  0
  5 23  2  0
  5 24  1  0
  6  7  1  0
  7 10  1  0
  8  9  1  0
  9 12  1  0
 10 16  1  0
 11 13  2  0
 11 14  1  0
 13 17  1  0
 13 21  1  0
 14 18  2  0
 14 22  1  0
 15 19  2  0
 15 20  1  0
 17 25  1  0
 18 26  1  0
 19 23  1  0
 19 29  1  0
 20 24  2  0
 20 30  1  0
 21 27  2  0
 22 28  2  0
 23 33  1  0
 24 34  1  0
 25 31  2  0
 26 32  2  0
 27 31  1  0
 28 32  1  0
 29 35  2  0
 30 36  2  0
 33 37  2  0
 34 38  2  0
 35 37  1  0
 36 38  1  0
M  END
>  <PUBCHEM_COMPOUND_CID>  (1) 
42756

>  <PUBCHEM_CONFORMER_RMSD>  (1) 
1

>  <PUBCHEM_CONFORMER_DIVERSEORDER>  (1) 
1
113
318
279
243
52
326
266
342
38
186
251
296
112
278
234
289
274
173
247
374
192
16
248
158
17
142
181
144
267
73
290
18
124
365
175
63
138
107
320
195
122
239
100
319
56
292
369
325
257
153
351
180
103
196
108
334
65
50
303
14
236
370
32
335
353
197
169
184
336
140
242
98
345
217
95
162
51
275
70
281
276
23
294
178
222
134
271
202
209
5
129
114
250
273
201
349
3
366
205
131
364
48
329
78
238
83
161
36
255
115
190
97
338
225
330
59
42
13
226
193
333
223
261
125
137
302
151
194
213
233
246
305
207
371
130
57
160
203
20
35
297
26
285
94
177
321
260
373
229
269
105
199
37
148
249
126
66
262
219
152
256
241
254
346
96
157
43
244
12
46
204
331
24
341
198
324
295
270
120
332
132
259
47
44
53
41
55
81
117
45
339
284
210
215
127
221
188
212
87
288
360
89
368
4
309
264
167
216
10
183
230
172
135
174
358
150
75
101
92
136
30
286
228
143
7
245
311
31
155
109
191
85
218
67
99
141
348
252
355
220
168
189
316
277
313
357
123
74
28
350
340
60
361
301
232
322
149
317
362
240
179
214
86
283
208
9
299
280
69
79
34
165
128
8
90
33
211
29
372
328
49
147
258
154
77
265
224
293
231
19
347
11
182
200
307
171
104
312
323
119
306
352
156
54
93
84
235
300
111
68
176
80
308
159
76
164
21
337
343
253
116
268
314
39
315
118
356
88
354
363
61
344
367
27
304
163
110
298
282
237
91
15
291
327
146
139
121
72
25
227
6
82
106
2
206
166
64
187
263
58
102
22
359
133
62
185
287
310
145
71
40
170
272

>  <PUBCHEM_MMFF94_PARTIAL_CHARGES>  (1) 
49
1 -0.9
11 0.1
12 0.37
15 0.1
17 0.31
18 0.31
2 -0.87
21 -0.15
22 -0.15
23 0.31
24 0.31
25 -0.15
26 -0.15
27 -0.15
28 -0.15
29 -0.15
3 -0.87
30 -0.15
31 -0.15
32 -0.15
33 -0.15
34 -0.15
35 -0.15
36 -0.15
37 -0.15
38 -0.15
4 -0.62
42 0.36
45 0.4
5 -0.62
52 0.4
56 0.15
57 0.15
58 0.15
59 0.15
6 0.64
60 0.15
61 0.15
62 0.15
63 0.15
64 0.15
65 0.15
66 0.15
67 0.15
68 0.15
69 0.15
70 0.15
71 0.15
8 0.27

>  <PUBCHEM_EFFECTIVE_ROTOR_COUNT>  (1) 
10

>  <PUBCHEM_PHARMACOPHORE_FEATURES>  (1) 
15
1 1 cation
1 1 donor
1 16 hydrophobe
1 2 cation
1 2 donor
1 3 cation
1 3 donor
1 4 acceptor
1 5 acceptor
6 13 17 21 25 27 31 rings
6 14 18 22 26 28 32 rings
6 19 23 29 33 35 37 rings
6 20 24 30 34 36 38 rings
6 4 11 13 14 17 18 rings
6 5 15 19 20 23 24 rings

>  <PUBCHEM_HEAVY_ATOM_COUNT>  (1) 
38

>  <PUBCHEM_ATOM_DEF_STEREO_COUNT>  (1) 
0

>  <PUBCHEM_ATOM_UDEF_STEREO_COUNT>  (1) 
1

>  <PUBCHEM_BOND_DEF_STEREO_COUNT>  (1) 
0

>  <PUBCHEM_BOND_UDEF_STEREO_COUNT>  (1) 
0

>  <PUBCHEM_ISOTOPIC_ATOM_COUNT>  (1) 
0

>  <PUBCHEM_COMPONENT_COUNT>  (1) 
1

>  <PUBCHEM_CACTVS_TAUTO_COUNT>  (1) 
4

>  <PUBCHEM_CONFORMER_ID>  (1) 
0000A70400000001

>  <PUBCHEM_MMFF94_ENERGY>  (1) 
143.528

>  <PUBCHEM_FEATURE_SELFOVERLAP>  (1) 
76.274

>  <PUBCHEM_SHAPE_FINGERPRINT>  (1) 
10675989 125 18053380994587840697
12440605 4 15690359356355936608
13617811 41 18186519917883361853
13636023 51 18336537223635270786
14747281 78 17846225414934620017
14840074 17 16415194602743799841
15815584 197 17917713564442798264
15975801 100 17689726680175564660
17809404 112 18411146830941624825
20764821 26 17763190537238501759
22121540 332 18413108334459463220
23559900 14 18337123275727485103
25222932 49 17703500103802167895
340366 18 17751379308507233519
4173938 306 18188751925733393133
4403749 210 18125424557226101560
5265222 85 18053377983889664800
550186 83 16154844414061575439
57527295 17 17560788928183683713
5895379 119 18041288750093104743

>  <PUBCHEM_SHAPE_MULTIPOLES>  (1) 
757.12
12.76
5.31
2.93
4.53
4.48
-1.63
-7.89
4.87
-1.56
0.34
-2.54
-1.55
4.21

>  <PUBCHEM_SHAPE_SELFOVERLAP>  (1) 
1676.576

>  <PUBCHEM_SHAPE_VOLUME>  (1) 
401.8

>  <PUBCHEM_COORDINATE_TYPE>  (1) 
2
5
10

$$$$
