42759
     RDKit          3D

 20 20  0  0  0  0  0  0  0  0999 V2000
   -1.3200    2.2934   -0.9571 O   0  0  0  0  0  0  0  0  0  0  0  0
   -5.4784   -0.6090   -0.7239 O   0  0  0  0  0  0  0  0  0  0  0  0
   -4.5827   -2.9272    0.5206 O   0  0  0  0  0  0  0  0  0  0  0  0
   -0.1255    1.6084    0.9097 N   0  0  0  0  0  0  0  0  0  0  0  0
    4.1216    0.8767   -0.1558 C   0  0  0  0  0  0  0  0  0  0  0  0
    2.8332    1.1682    0.6209 C   0  0  0  0  0  0  0  0  0  0  0  0
    4.8920   -0.3768    0.2703 C   0  0  0  0  0  0  0  0  0  0  0  0
    2.0657    2.3844    0.0928 C   0  0  0  0  0  0  0  0  0  0  0  0
    6.1326   -0.6496   -0.5826 C   0  0  0  0  0  0  0  0  0  0  0  0
    0.8185    2.6914    0.9167 C   0  0  0  0  0  0  0  0  0  0  0  0
    6.9115   -1.8560   -0.0567 C   0  0  0  0  0  0  0  0  0  0  0  0
    8.1276   -2.1526   -0.9194 C   0  0  0  0  0  0  0  0  0  0  0  0
   -1.1332    1.4963   -0.0415 C   0  0  0  0  0  0  0  0  0  0  0  0
   -2.0447    0.3323    0.1045 C   0  0  0  0  0  0  0  0  0  0  0  0
   -3.3500    0.4028   -0.3824 C   0  0  0  0  0  0  0  0  0  0  0  0
   -1.5955   -0.8310    0.7295 C   0  0  0  0  0  0  0  0  0  0  0  0
   -4.2059   -0.6900   -0.2445 C   0  0  0  0  0  0  0  0  0  0  0  0
   -2.4515   -1.9236    0.8678 C   0  0  0  0  0  0  0  0  0  0  0  0
   -3.7567   -1.8532    0.3806 C   0  0  0  0  0  0  0  0  0  0  0  0
   -5.8587    0.6151   -1.3493 C   0  0  0  0  0  0  0  0  0  0  0  0
  1 13  2  0
  2 17  1  0
  2 20  1  0
  3 19  1  0
  4 10  1  0
  4 13  1  0
  5  6  1  0
  5  7  1  0
  6  8  1  0
  7  9  1  0
  8 10  1  0
  9 11  1  0
 11 12  1  0
 13 14  1  0
 14 15  2  0
 14 16  1  0
 15 17  1  0
 16 18  2  0
 17 19  2  0
 18 19  1  0
M  END
>  <PUBCHEM_COMPOUND_CID>  (1) 
42759

>  <PUBCHEM_CONFORMER_RMSD>  (1) 
1

>  <PUBCHEM_CONFORMER_DIVERSEORDER>  (1) 
2
158
98
91
181
17
107
137
129
106
132
12
141
48
178
175
24
154
23
44
52
8
25
183
112
150
136
116
34
33
49
102
165
149
75
59
182
144
81
74
124
5
89
170
128
130
47
27
82
41
16
92
72
156
166
172
30
40
174
96
36
163
169
105
131
20
157
38
177
83
21
148
152
6
125
62
1
108
3
104
14
68
180
67
160
179
127
42
134
140
153
126
65
173
117
39
171
11
120
26
113
111
110
29
15
64
164
123
97
46
109
7
50
133
167
69
88
37
31
28
9
101
43
73
95
103
176
79
32
76
58
147
45
143
19
145
61
53
86
70
155
78
22
60
121
57
54
151
135
84
162
66
114
63
18
55
4
168
100
146
85
119
142
139
80
13
77
90
35
71
87
115
161
138
10
99
118
93
159
56
122
94
51

>  <PUBCHEM_MMFF94_PARTIAL_CHARGES>  (1) 
18
1 -0.57
10 0.3
13 0.54
14 0.09
15 -0.15
16 -0.15
17 0.08
18 -0.15
19 0.08
2 -0.36
20 0.28
3 -0.53
35 0.37
39 0.15
4 -0.73
40 0.15
41 0.15
42 0.45

>  <PUBCHEM_EFFECTIVE_ROTOR_COUNT>  (1) 
10

>  <PUBCHEM_PHARMACOPHORE_FEATURES>  (1) 
8
1 1 acceptor
1 12 hydrophobe
1 2 acceptor
1 3 donor
1 4 donor
3 5 6 8 hydrophobe
3 7 9 11 hydrophobe
6 14 15 16 17 18 19 rings

>  <PUBCHEM_HEAVY_ATOM_COUNT>  (1) 
20

>  <PUBCHEM_ATOM_DEF_STEREO_COUNT>  (1) 
0

>  <PUBCHEM_ATOM_UDEF_STEREO_COUNT>  (1) 
0

>  <PUBCHEM_BOND_DEF_STEREO_COUNT>  (1) 
0

>  <PUBCHEM_BOND_UDEF_STEREO_COUNT>  (1) 
0

>  <PUBCHEM_ISOTOPIC_ATOM_COUNT>  (1) 
0

>  <PUBCHEM_COMPONENT_COUNT>  (1) 
1

>  <PUBCHEM_CACTVS_TAUTO_COUNT>  (1) 
7

>  <PUBCHEM_CONFORMER_ID>  (1) 
0000A70700000002

>  <PUBCHEM_MMFF94_ENERGY>  (1) 
37.4952

>  <PUBCHEM_FEATURE_SELFOVERLAP>  (1) 
40.609

>  <PUBCHEM_SHAPE_FINGERPRINT>  (1) 
10 15 10663815287318289268
10917259 69 18057038000959973777
11273773 46 18409450267510533747
12555020 224 18410567418721546607
12633257 1 15339112468776341264
12643181 29 18335697235111242066
12760667 363 18343584027458418464
12895836 83 10809349957658909820
12895837 130 9006471928675164954
12954195 1 18337102359564288245
13402501 40 18411982472975320742
13544592 145 18335975471703859905
13631057 29 18341333272334337282
13955234 65 17770498943873704344
14123256 34 18410581699472286914
14420673 8 18410016546110848587
14866123 147 18270407075071074345
14931854 50 18114742629979246562
15052358 14 18261945293823619109
15183329 4 18260261919524333472
15352361 1 18412266134216518056
15510800 12 18131081394348265230
15519825 34 14332826228115787380
193927 3 18059585680790338956
19784866 240 18412548708473254568
20374829 77 18261102028070511305
20403669 9 18343306959592705894
21279426 13 18334848446457154081
21307412 95 18408599275627991775
21315764 119 17821728304135289158
21682296 61 18272373091638852679
2215653 11 18339352054711512533
23559900 14 18336822108146666249
270888 7 8646776573519486738
3004659 81 18187080655411349032
329604 57 18411144624146066612
4107672 100 17676204637548600773
437815 12 18343862208364193456
444769 64 18339930325172092065
5207 123 18412544327311168004
559249 180 18272089353483441417
59682541 35 10087632741616630997
59755656 215 18337390444627386838
6138700 20 18411698764145968495
7062679 13 18410576189261088394
7808743 9 8934707878361279564
7970288 3 18341614798540016558
9709674 26 17901382613162051817

>  <PUBCHEM_SHAPE_MULTIPOLES>  (1) 
389
18.26
3.08
1.01
30.5
0.15
-0.09
-15.77
-6.53
0.53
0.5
-0.49
0.06
1.97

>  <PUBCHEM_SHAPE_SELFOVERLAP>  (1) 
772.413

>  <PUBCHEM_SHAPE_VOLUME>  (1) 
231.1

>  <PUBCHEM_COORDINATE_TYPE>  (1) 
2
5
10

$$$$
