42751
     RDKit          3D

 15 14  0  0  0  0  0  0  0  0999 V2000
    2.3611    0.3533   -0.3240 O   0  0  0  0  0  0  0  0  0  0  0  0
   -2.2426    0.5771   -0.3363 O   0  0  0  0  0  0  0  0  0  0  0  0
    1.0940    1.2596    1.3646 O   0  0  0  0  0  0  0  0  0  0  0  0
   -1.4578   -0.2275    1.6642 O   0  0  0  0  0  0  0  0  0  0  0  0
    0.0290   -0.2180   -0.2815 C   0  0  0  0  0  0  0  0  0  0  0  0
    0.3194   -1.7600   -0.2978 C   0  0  0  0  0  0  0  0  0  0  0  0
   -0.0538    0.3594   -1.7128 C   0  0  0  0  0  0  0  0  0  0  0  0
   -0.7663   -2.6003   -0.9850 C   0  0  0  0  0  0  0  0  0  0  0  0
    0.5729   -2.3353    1.1049 C   0  0  0  0  0  0  0  0  0  0  0  0
    1.2025    0.5446    0.3751 C   0  0  0  0  0  0  0  0  0  0  0  0
   -1.2871    0.0483    0.4814 C   0  0  0  0  0  0  0  0  0  0  0  0
    3.5071    1.0559    0.1670 C   0  0  0  0  0  0  0  0  0  0  0  0
   -3.5197    0.8115    0.2659 C   0  0  0  0  0  0  0  0  0  0  0  0
    4.6961    0.7363   -0.7138 C   0  0  0  0  0  0  0  0  0  0  0  0
   -4.4547    1.3950   -0.7718 C   0  0  0  0  0  0  0  0  0  0  0  0
  1 10  1  0
  1 12  1  0
  2 11  1  0
  2 13  1  0
  3 10  2  0
  4 11  2  0
  5  6  1  0
  5  7  1  0
  5 10  1  0
  5 11  1  0
  6  8  1  0
  6  9  1  0
 12 14  1  0
 13 15  1  0
M  END
>  <PUBCHEM_COMPOUND_CID>  (1) 
42751

>  <PUBCHEM_CONFORMER_RMSD>  (1) 
0.8

>  <PUBCHEM_CONFORMER_DIVERSEORDER>  (1) 
1
64
18
99
45
80
17
22
42
25
74
85
30
88
71
84
92
66
10
95
60
21
40
52
56
75
62
89
31
103
106
48
104
59
63
49
65
98
38
36
96
51
20
16
81
32
2
11
14
83
8
24
46
102
77
41
93
94
100
39
101
19
47
58
97
27
9
43
68
87
86
54
90
33
7
37
55
3
70
76
69
82
50
105
67
29
35
12
53
28
15
13
73
6
91
78
57
4
79
72
44
26
5
34
23
61

>  <PUBCHEM_MMFF94_PARTIAL_CHARGES>  (1) 
9
1 -0.43
10 0.66
11 0.66
12 0.28
13 0.28
2 -0.43
3 -0.57
4 -0.57
5 0.12

>  <PUBCHEM_EFFECTIVE_ROTOR_COUNT>  (1) 
7

>  <PUBCHEM_PHARMACOPHORE_FEATURES>  (1) 
4
1 3 acceptor
1 4 acceptor
1 7 hydrophobe
3 6 8 9 hydrophobe

>  <PUBCHEM_HEAVY_ATOM_COUNT>  (1) 
15

>  <PUBCHEM_ATOM_DEF_STEREO_COUNT>  (1) 
0

>  <PUBCHEM_ATOM_UDEF_STEREO_COUNT>  (1) 
0

>  <PUBCHEM_BOND_DEF_STEREO_COUNT>  (1) 
0

>  <PUBCHEM_BOND_UDEF_STEREO_COUNT>  (1) 
0

>  <PUBCHEM_ISOTOPIC_ATOM_COUNT>  (1) 
0

>  <PUBCHEM_COMPONENT_COUNT>  (1) 
1

>  <PUBCHEM_CACTVS_TAUTO_COUNT>  (1) 
1

>  <PUBCHEM_CONFORMER_ID>  (1) 
0000A6FF00000001

>  <PUBCHEM_MMFF94_ENERGY>  (1) 
26.7333

>  <PUBCHEM_FEATURE_SELFOVERLAP>  (1) 
20.299

>  <PUBCHEM_SHAPE_FINGERPRINT>  (1) 
10014705 185 18269556212285482952
10922049 32 18411141350405164279
12119455 92 18260822683360467748
12138202 97 18130795615170466046
12555020 224 17988094305128427078
13024252 1 12685633594968843530
13380536 53 17095243579366969214
13464514 151 18124323713730967985
14713566 1 17632577183983384114
14911166 2 17989489632249003596
14943859 89 18343017809003249248
14993402 34 17060619992763551148
15219456 202 18041003886619306267
15775835 57 18411697690335293279
16945 1 17775294875705767784
18186145 218 17774995817286207521
187816 3 17846784005158053552
200 152 12391520775963931068
20473742 2 18191863422832366111
20524608 308 18128819827293528238
20645476 183 18114189687077604618
20645477 56 18335137648486686532
20645477 70 18195238920152101311
20711985 344 17905874122182521578
20871999 31 18266461104048137476
21524375 3 18410293609702354933
23402539 116 18131064948137701596
23419403 2 17761543206436873570
23558518 356 17977933910842852760
25 1 18272371949182618817
276578 36 18408599240930298674
3060560 45 18131058304197633293
366044 4 18413389843183702438
528862 383 18265043644149077146
81228 2 17762323022194492675
81539 233 18261108522118877055

>  <PUBCHEM_SHAPE_MULTIPOLES>  (1) 
285.22
6.41
2.14
1.33
0.83
1.95
-0.03
-5.29
1.28
-0.25
0.11
-0.14
0.12
0.04

>  <PUBCHEM_SHAPE_SELFOVERLAP>  (1) 
546.359

>  <PUBCHEM_SHAPE_VOLUME>  (1) 
175.6

>  <PUBCHEM_COORDINATE_TYPE>  (1) 
2
5
10

$$$$
