42769
     RDKit          3D

 27 28  0  0  0  0  0  0  0  0999 V2000
   -2.6042    2.7701   -0.4037 Cl  0  0  0  0  0  0  0  0  0  0  0  0
   -2.4684   -2.5026    0.9722 Cl  0  0  0  0  0  0  0  0  0  0  0  0
    7.2144   -2.5224    0.1999 O   0  0  0  0  0  0  0  0  0  0  0  0
    5.7265    3.0395    1.6556 O   0  0  0  0  0  0  0  0  0  0  0  0
   -7.4436   -1.1253    0.2918 O   0  0  0  0  0  0  0  0  0  0  0  0
   -7.4979    0.9980   -0.2632 O   0  0  0  0  0  0  0  0  0  0  0  0
    4.8237    0.1848   -0.4735 N   0  0  0  0  0  0  0  0  0  0  0  0
   -0.7626   -0.0944   -0.7604 N   0  0  0  0  0  0  0  0  0  0  0  0
   -1.2628    0.1847    0.3539 N   0  0  0  0  0  0  0  0  0  0  0  0
   -6.8642   -0.0395    0.0472 N   0  0  0  0  0  0  0  0  0  0  0  0
    3.4172    0.1092   -0.5447 C   0  0  0  0  0  0  0  0  0  0  0  0
    5.6364   -0.9824   -0.7529 C   0  0  0  0  0  0  0  0  0  0  0  0
    5.4743    1.4269   -0.1067 C   0  0  0  0  0  0  0  0  0  0  0  0
    2.7682   -1.0953   -0.2731 C   0  0  0  0  0  0  0  0  0  0  0  0
    1.3769   -1.1690   -0.3425 C   0  0  0  0  0  0  0  0  0  0  0  0
    2.6749    1.2400   -0.8855 C   0  0  0  0  0  0  0  0  0  0  0  0
    6.4490   -1.3559    0.4751 C   0  0  0  0  0  0  0  0  0  0  0  0
    5.0546    1.8395    1.2940 C   0  0  0  0  0  0  0  0  0  0  0  0
    0.6345   -0.0384   -0.6839 C   0  0  0  0  0  0  0  0  0  0  0  0
    1.2836    1.1662   -0.9552 C   0  0  0  0  0  0  0  0  0  0  0  0
    0.7043   -2.4697   -0.0474 C   0  0  0  0  0  0  0  0  0  0  0  0
   -2.6649    0.1286    0.2766 C   0  0  0  0  0  0  0  0  0  0  0  0
   -3.3898    1.2689   -0.0672 C   0  0  0  0  0  0  0  0  0  0  0  0
   -3.3297   -1.0677    0.5444 C   0  0  0  0  0  0  0  0  0  0  0  0
   -5.4473    0.0169    0.1245 C   0  0  0  0  0  0  0  0  0  0  0  0
   -4.7815    1.2132   -0.1431 C   0  0  0  0  0  0  0  0  0  0  0  0
   -4.7214   -1.1237    0.4680 C   0  0  0  0  0  0  0  0  0  0  0  0
  1 23  1  0
  2 24  1  0
  3 17  1  0
  4 18  1  0
  5 10  1  0
  6 10  2  0
  7 11  1  0
  7 12  1  0
  7 13  1  0
  8  9  2  0
  8 19  1  0
  9 22  1  0
 10 25  1  0
 11 14  2  0
 11 16  1  0
 12 17  1  0
 13 18  1  0
 14 15  1  0
 15 19  2  0
 15 21  1  0
 16 20  2  0
 19 20  1  0
 22 23  2  0
 22 24  1  0
 23 26  1  0
 24 27  2  0
 25 26  2  0
 25 27  1  0
M  CHG  2   5  -1  10   1
M  END
>  <PUBCHEM_COMPOUND_CID>  (1) 
42769

>  <PUBCHEM_CONFORMER_RMSD>  (1) 
1

>  <PUBCHEM_CONFORMER_DIVERSEORDER>  (1) 
2
9
10
5
11
7
4
3
6
1
8

>  <PUBCHEM_MMFF94_PARTIAL_CHARGES>  (1) 
34
1 -0.18
10 0.91
11 0.1
12 0.37
13 0.37
14 -0.15
15 -0.14
16 -0.15
17 0.28
18 0.28
19 0.18
2 -0.18
20 -0.15
21 0.14
22 0.18
23 0.18
24 0.18
25 0.13
26 -0.15
27 -0.15
3 -0.68
32 0.15
33 0.15
38 0.15
4 -0.68
42 0.4
43 0.4
44 0.15
45 0.15
5 -0.52
6 -0.52
7 -0.84
8 -0.18
9 -0.18

>  <PUBCHEM_EFFECTIVE_ROTOR_COUNT>  (1) 
8

>  <PUBCHEM_PHARMACOPHORE_FEATURES>  (1) 
10
1 3 acceptor
1 3 donor
1 4 acceptor
1 4 donor
1 5 acceptor
1 5 anion
1 6 acceptor
1 7 cation
6 11 14 15 16 19 20 rings
6 22 23 24 25 26 27 rings

>  <PUBCHEM_HEAVY_ATOM_COUNT>  (1) 
27

>  <PUBCHEM_ATOM_DEF_STEREO_COUNT>  (1) 
0

>  <PUBCHEM_ATOM_UDEF_STEREO_COUNT>  (1) 
0

>  <PUBCHEM_BOND_DEF_STEREO_COUNT>  (1) 
0

>  <PUBCHEM_BOND_UDEF_STEREO_COUNT>  (1) 
0

>  <PUBCHEM_ISOTOPIC_ATOM_COUNT>  (1) 
0

>  <PUBCHEM_COMPONENT_COUNT>  (1) 
1

>  <PUBCHEM_CACTVS_TAUTO_COUNT>  (1) 
1

>  <PUBCHEM_CONFORMER_ID>  (1) 
0000A71100000002

>  <PUBCHEM_MMFF94_ENERGY>  (1) 
88.7406

>  <PUBCHEM_FEATURE_SELFOVERLAP>  (1) 
50.828

>  <PUBCHEM_SHAPE_FINGERPRINT>  (1) 
10 15 18336261353496364480
11045977 3 18411703214196102978
11719270 70 18410013221479529566
11796584 16 15502386646807711552
12166972 35 18408609154016219196
12236239 1 18130787875755410727
12616971 3 17489579061604882460
12838862 33 18261096497070317421
13402501 40 18411982485717752505
13533116 47 17968373446744167842
13692114 37 18334852853179022826
13914758 101 15719381816564614757
14117953 113 18041000609844142247
14341114 176 18261117382773623708
15183329 4 17967536744180726642
15348495 7 18340767135024760474
15475509 35 17604695687624376730
18222031 100 16877946040483013332
20511986 3 18334564755567754871
21033648 29 18128807715786330296
21130935 74 18411141354837860115
21267235 1 18260277338952681335
21315764 268 18411695491834933276
21859007 373 17531508920313581629
220451 1 13551476977144473080
23402539 116 18408041832239082935
23559900 14 18335983181370570753
3004659 81 17603590746029218973
335352 9 18260554419930402926
3383291 50 17968101988496426643
34797466 226 17418102030753910764
3545911 37 18334580131323438159
4073 2 17895203254539836170
5104073 3 18412550924765628434
59755656 215 18334583407972476735
59755656 520 16443067223061498059

>  <PUBCHEM_SHAPE_MULTIPOLES>  (1) 
515.99
19.49
2.72
0.98
3.92
0.24
-0.2
-0.5
-2.99
-2.13
-0.69
-1.09
0.35
1.79

>  <PUBCHEM_SHAPE_SELFOVERLAP>  (1) 
1070.864

>  <PUBCHEM_SHAPE_VOLUME>  (1) 
297.6

>  <PUBCHEM_COORDINATE_TYPE>  (1) 
2
5
10

$$$$
