42767
     RDKit          3D

 42 47  0  0  0  0  0  0  0  0999 V2000
   -8.0917   -0.0562    0.8132 N   0  0  0  0  0  0  0  0  0  0  0  0
    8.0903   -0.0283   -0.8122 N   0  0  0  0  0  0  0  0  0  0  0  0
  -12.0392    0.1725   -0.4661 N   0  0  0  0  0  0  0  0  0  0  0  0
   12.0486    0.1375    0.4433 N   0  0  0  0  0  0  0  0  0  0  0  0
   -0.6187   -0.2496    0.4808 C   0  0  0  0  0  0  0  0  0  0  0  0
    0.6019   -0.2496   -0.4411 C   0  0  0  0  0  0  0  0  0  0  0  0
   -1.9213   -0.2782   -0.3206 C   0  0  0  0  0  0  0  0  0  0  0  0
    1.9045   -0.2548    0.3609 C   0  0  0  0  0  0  0  0  0  0  0  0
   -3.1419   -0.2449    0.6006 C   0  0  0  0  0  0  0  0  0  0  0  0
    3.1253   -0.2208   -0.5601 C   0  0  0  0  0  0  0  0  0  0  0  0
   -4.4442   -0.2397   -0.2015 C   0  0  0  0  0  0  0  0  0  0  0  0
    4.4274   -0.1919    0.2429 C   0  0  0  0  0  0  0  0  0  0  0  0
   -5.6640   -0.1730    0.7182 C   0  0  0  0  0  0  0  0  0  0  0  0
    5.6479   -0.1275   -0.6806 C   0  0  0  0  0  0  0  0  0  0  0  0
   -6.9619   -0.1291   -0.0822 C   0  0  0  0  0  0  0  0  0  0  0  0
    6.9650   -0.0859    0.0902 C   0  0  0  0  0  0  0  0  0  0  0  0
   -9.4080    0.0199    0.3866 C   0  0  0  0  0  0  0  0  0  0  0  0
    9.4102    0.0269   -0.3934 C   0  0  0  0  0  0  0  0  0  0  0  0
  -10.1391   -1.1543    0.1804 C   0  0  0  0  0  0  0  0  0  0  0  0
   10.1246   -1.1588   -0.1940 C   0  0  0  0  0  0  0  0  0  0  0  0
   -9.9940    1.2706    0.1661 C   0  0  0  0  0  0  0  0  0  0  0  0
   10.0164    1.2681   -0.1741 C   0  0  0  0  0  0  0  0  0  0  0  0
  -11.4702   -1.0296   -0.2522 C   0  0  0  0  0  0  0  0  0  0  0  0
   11.4599   -1.0553    0.2306 C   0  0  0  0  0  0  0  0  0  0  0  0
  -11.3306    1.3005   -0.2658 C   0  0  0  0  0  0  0  0  0  0  0  0
   11.3561    1.2766    0.2497 C   0  0  0  0  0  0  0  0  0  0  0  0
   -9.5757   -2.4245    0.3942 C   0  0  0  0  0  0  0  0  0  0  0  0
    9.5405   -2.4198   -0.4070 C   0  0  0  0  0  0  0  0  0  0  0  0
   -9.2829    2.4667    0.3656 C   0  0  0  0  0  0  0  0  0  0  0  0
    9.3225    2.4753   -0.3667 C   0  0  0  0  0  0  0  0  0  0  0  0
  -12.2033   -2.1950   -0.4594 C   0  0  0  0  0  0  0  0  0  0  0  0
   12.1764   -2.2322    0.4308 C   0  0  0  0  0  0  0  0  0  0  0  0
  -11.9195    2.5426   -0.4870 C   0  0  0  0  0  0  0  0  0  0  0  0
   11.9652    2.5092    0.4698 C   0  0  0  0  0  0  0  0  0  0  0  0
  -10.3300   -3.5742    0.1800 C   0  0  0  0  0  0  0  0  0  0  0  0
   10.2785   -3.5813   -0.1997 C   0  0  0  0  0  0  0  0  0  0  0  0
   -9.8947    3.6957    0.1374 C   0  0  0  0  0  0  0  0  0  0  0  0
    9.9544    3.6943   -0.1397 C   0  0  0  0  0  0  0  0  0  0  0  0
  -11.6464   -3.4588   -0.2478 C   0  0  0  0  0  0  0  0  0  0  0  0
   11.5991   -3.4869    0.2202 C   0  0  0  0  0  0  0  0  0  0  0  0
  -11.2158    3.7333   -0.2899 C   0  0  0  0  0  0  0  0  0  0  0  0
   11.2785    3.7109    0.2794 C   0  0  0  0  0  0  0  0  0  0  0  0
  1 15  1  0
  1 17  1  0
  2 16  1  0
  2 18  1  0
  3 23  2  0
  3 25  1  0
  4 24  2  0
  4 26  1  0
  5  6  1  0
  5  7  1  0
  6  8  1  0
  7  9  1  0
  8 10  1  0
  9 11  1  0
 10 12  1  0
 11 13  1  0
 12 14  1  0
 13 15  1  0
 14 16  1  0
 17 19  2  0
 17 21  1  0
 18 20  2  0
 18 22  1  0
 19 23  1  0
 19 27  1  0
 20 24  1  0
 20 28  1  0
 21 25  2  0
 21 29  1  0
 22 26  2  0
 22 30  1  0
 23 31  1  0
 24 32  1  0
 25 33  1  0
 26 34  1  0
 27 35  2  0
 28 36  2  0
 29 37  2  0
 30 38  2  0
 31 39  2  0
 32 40  2  0
 33 41  2  0
 34 42  2  0
 35 39  1  0
 36 40  1  0
 37 41  1  0
 38 42  1  0
M  END
>  <PUBCHEM_COMPOUND_CID>  (1) 
42767

>  <PUBCHEM_CONFORMER_RMSD>  (1) 
1.8

>  <PUBCHEM_CONFORMER_DIVERSEORDER>  (1) 
1
62
4
10
30
22
7
32
44
2
9
48
8
11
43
35
3
31
47
12
16
63
18
49
51
33
5
50
28
27
23
14
45
20
46
15
39
6
34
37
36
52
13
21
55
19
17
66
24
40
61
58
41
64
60
38
65
57
42
29
26
59
54
56
53
25

>  <PUBCHEM_MMFF94_PARTIAL_CHARGES>  (1) 
46
1 -0.87
15 0.37
16 0.37
17 0.1
18 0.1
2 -0.87
23 0.31
24 0.31
25 0.31
26 0.31
27 -0.15
28 -0.15
29 -0.15
3 -0.62
30 -0.15
31 -0.15
32 -0.15
33 -0.15
34 -0.15
35 -0.15
36 -0.15
37 -0.15
38 -0.15
39 -0.15
4 -0.62
40 -0.15
41 -0.15
42 -0.15
67 0.4
68 0.4
69 0.15
70 0.15
71 0.15
72 0.15
73 0.15
74 0.15
75 0.15
76 0.15
77 0.15
78 0.15
79 0.15
80 0.15
81 0.15
82 0.15
83 0.15
84 0.15

>  <PUBCHEM_EFFECTIVE_ROTOR_COUNT>  (1) 
15

>  <PUBCHEM_PHARMACOPHORE_FEATURES>  (1) 
12
1 1 cation
1 1 donor
1 2 cation
1 2 donor
1 3 acceptor
1 4 acceptor
6 19 23 27 31 35 39 rings
6 20 24 28 32 36 40 rings
6 21 25 29 33 37 41 rings
6 22 26 30 34 38 42 rings
6 3 17 19 21 23 25 rings
6 4 18 20 22 24 26 rings

>  <PUBCHEM_HEAVY_ATOM_COUNT>  (1) 
42

>  <PUBCHEM_ATOM_DEF_STEREO_COUNT>  (1) 
0

>  <PUBCHEM_ATOM_UDEF_STEREO_COUNT>  (1) 
0

>  <PUBCHEM_BOND_DEF_STEREO_COUNT>  (1) 
0

>  <PUBCHEM_BOND_UDEF_STEREO_COUNT>  (1) 
0

>  <PUBCHEM_ISOTOPIC_ATOM_COUNT>  (1) 
0

>  <PUBCHEM_COMPONENT_COUNT>  (1) 
1

>  <PUBCHEM_CACTVS_TAUTO_COUNT>  (1) 
3

>  <PUBCHEM_CONFORMER_ID>  (1) 
0000A70F00000001

>  <PUBCHEM_MMFF94_ENERGY>  (1) 
143.1858

>  <PUBCHEM_FEATURE_SELFOVERLAP>  (1) 
61.02

>  <PUBCHEM_SHAPE_FINGERPRINT>  (1) 
11061554 47 18186798072143808925
12559415 90 18410856547172106365
131240 100 18342738546172261689
14344974 52 18412826918926387816
15061470 23 18410855460144505744
15065858 18 18410858762963560006
16728433 110 18409729569855830196
22082593 10 18409449193436868156
5028188 123 18409166620102803899

>  <PUBCHEM_SHAPE_MULTIPOLES>  (1) 
844.42
86.41
4.59
0.76
0.57
1.08
0
2.36
-0.54
0.03
-0.03
-0.03
0
0.49

>  <PUBCHEM_SHAPE_SELFOVERLAP>  (1) 
1835.499

>  <PUBCHEM_SHAPE_VOLUME>  (1) 
456.2

>  <PUBCHEM_COORDINATE_TYPE>  (1) 
2
5
10

$$$$
