42768
     RDKit          3D

 37 42  0  0  1  0  0  0  0  0999 V2000
    2.2554   -0.3238   -1.1813 F   0  0  0  0  0  0  0  0  0  0  0  0
    5.3684    2.2278    0.4350 F   0  0  0  0  0  0  0  0  0  0  0  0
   -1.8630    1.2022   -1.0594 O   0  0  0  0  0  0  0  0  0  0  0  0
   -1.7682    3.4360   -0.3350 O   0  0  0  0  0  0  0  0  0  0  0  0
    1.1032   -2.1903    1.6647 O   0  0  0  0  0  0  0  0  0  0  0  0
   -3.7913    1.4243    1.5623 O   0  0  0  0  0  0  0  0  0  0  0  0
   -4.8726   -0.8308    0.4020 O   0  0  0  0  0  0  0  0  0  0  0  0
    6.8356   -1.5870   -2.2730 O   0  0  0  0  0  0  0  0  0  0  0  0
   -4.6858   -3.0713   -0.1407 O   0  0  0  0  0  0  0  0  0  0  0  0
   -0.5421    0.3266    0.8438 C   0  0  0  0  0  0  0  0  0  0  0  0
    0.6124    1.2829    0.4693 C   0  0  0  0  0  0  0  0  0  0  0  0
    1.9930    0.7632    0.8936 C   0  0  0  0  0  0  0  0  0  0  0  0
   -1.7477    1.1732    0.3609 C   0  0  0  0  0  0  0  0  0  0  0  0
    2.2626   -0.6051    0.1764 C   0  0  0  0  0  0  0  0  0  0  0  0
   -1.3947    2.6079    0.7626 C   0  0  0  0  0  0  0  0  0  0  0  0
    0.1336    2.6427    0.9828 C   0  0  0  0  0  0  0  0  0  0  0  0
   -0.3047   -0.9954    0.0903 C   0  0  0  0  0  0  0  0  0  0  0  0
    1.0867   -1.6108    0.3694 C   0  0  0  0  0  0  0  0  0  0  0  0
    3.7097   -1.1594    0.4853 C   0  0  0  0  0  0  0  0  0  0  0  0
    3.0823    1.7921    0.5497 C   0  0  0  0  0  0  0  0  0  0  0  0
   -0.6638    0.0775    2.3722 C   0  0  0  0  0  0  0  0  0  0  0  0
   -3.0739    0.6972    0.8769 C   0  0  0  0  0  0  0  0  0  0  0  0
    4.4827    1.2717    0.8421 C   0  0  0  0  0  0  0  0  0  0  0  0
   -2.0735    2.5684   -1.4286 C   0  0  0  0  0  0  0  0  0  0  0  0
    4.7119   -0.0467    0.1453 C   0  0  0  0  0  0  0  0  0  0  0  0
    3.9280   -1.5627    1.9618 C   0  0  0  0  0  0  0  0  0  0  0  0
    3.9768   -2.4121   -0.3368 C   0  0  0  0  0  0  0  0  0  0  0  0
   -3.4692   -0.7165    0.5066 C   0  0  0  0  0  0  0  0  0  0  0  0
   -3.5360    2.7534   -1.8155 C   0  0  0  0  0  0  0  0  0  0  0  0
   -1.1647    2.9223   -2.6025 C   0  0  0  0  0  0  0  0  0  0  0  0
    5.7092   -0.1926   -0.7416 C   0  0  0  0  0  0  0  0  0  0  0  0
    4.9672   -2.5599   -1.2218 C   0  0  0  0  0  0  0  0  0  0  0  0
    5.9130   -1.4586   -1.4752 C   0  0  0  0  0  0  0  0  0  0  0  0
   -5.3538   -2.0692    0.0703 C   0  0  0  0  0  0  0  0  0  0  0  0
   -6.8364   -2.0906   -0.0151 C   0  0  0  0  0  0  0  0  0  0  0  0
   -7.4739   -2.5717   -1.2774 C   0  0  0  0  0  0  0  0  0  0  0  0
   -7.5164   -1.1151   -0.9195 C   0  0  0  0  0  0  0  0  0  0  0  0
  1 14  1  0
  2 23  1  0
  3 13  1  0
  3 24  1  0
  4 15  1  0
  4 24  1  0
  5 18  1  0
  6 22  2  0
  7 28  1  0
  7 34  1  0
  8 33  2  0
  9 34  2  0
 10 11  1  0
 10 13  1  0
 10 17  1  0
 10 21  1  0
 11 12  1  0
 11 16  1  0
 12 14  1  0
 12 20  1  0
 13 15  1  0
 13 22  1  0
 14 18  1  0
 14 19  1  0
 15 16  1  0
 17 18  1  0
 19 25  1  0
 19 26  1  0
 19 27  1  0
 20 23  1  0
 22 28  1  0
 23 25  1  0
 24 29  1  0
 24 30  1  0
 25 31  2  0
 27 32  2  0
 31 33  1  0
 32 33  1  0
 34 35  1  0
 35 36  1  0
 35 37  1  0
 36 37  1  0
M  END
>  <PUBCHEM_COMPOUND_CID>  (1) 
42768

>  <PUBCHEM_CONFORMER_RMSD>  (1) 
1

>  <PUBCHEM_CONFORMER_DIVERSEORDER>  (1) 
1
26
14
25
13
23
15
32
3
20
4
28
12
9
17
18
19
21
22
11
2
31
5
30
24
8
27
7
16
29
10
6

>  <PUBCHEM_MMFF94_PARTIAL_CHARGES>  (1) 
36
1 -0.34
13 0.34
14 0.34
15 0.28
18 0.28
19 0.28
2 -0.34
22 0.45
23 0.48
24 0.56
25 -0.28
27 -0.29
28 0.34
3 -0.56
31 -0.14
32 -0.14
33 0.54
34 0.72
35 -0.1
36 -0.2
37 -0.2
4 -0.56
5 -0.68
55 0.15
56 0.4
6 -0.57
65 0.15
66 0.15
67 0.1
68 0.1
69 0.1
7 -0.43
70 0.1
71 0.1
8 -0.57
9 -0.57

>  <PUBCHEM_EFFECTIVE_ROTOR_COUNT>  (1) 
7.2

>  <PUBCHEM_PHARMACOPHORE_FEATURES>  (1) 
13
1 3 acceptor
1 4 acceptor
1 5 acceptor
1 5 donor
1 6 acceptor
1 8 acceptor
1 9 acceptor
3 24 29 30 hydrophobe
5 10 11 13 15 16 rings
5 3 4 13 15 24 rings
6 10 11 12 14 17 18 rings
6 12 14 19 20 23 25 rings
6 19 25 27 31 32 33 rings

>  <PUBCHEM_HEAVY_ATOM_COUNT>  (1) 
37

>  <PUBCHEM_ATOM_DEF_STEREO_COUNT>  (1) 
8

>  <PUBCHEM_ATOM_UDEF_STEREO_COUNT>  (1) 
1

>  <PUBCHEM_BOND_DEF_STEREO_COUNT>  (1) 
0

>  <PUBCHEM_BOND_UDEF_STEREO_COUNT>  (1) 
0

>  <PUBCHEM_ISOTOPIC_ATOM_COUNT>  (1) 
0

>  <PUBCHEM_COMPONENT_COUNT>  (1) 
1

>  <PUBCHEM_CACTVS_TAUTO_COUNT>  (1) 
2

>  <PUBCHEM_CONFORMER_ID>  (1) 
0000A71000000001

>  <PUBCHEM_MMFF94_ENERGY>  (1) 
124.1959

>  <PUBCHEM_FEATURE_SELFOVERLAP>  (1) 
66.736

>  <PUBCHEM_SHAPE_FINGERPRINT>  (1) 
11115154 58 18339073887883103737
11227688 84 17986667073972988295
11497681 19 18201158848794358390
12403259 415 18261399884585530976
131258 38 16913948590777808111
13224815 77 18337953364462977912
13690498 29 18336270050361812927
13782708 43 18272088279667712351
13811026 1 18413385440821280850
14068700 675 18186518808663298997
14347332 77 18337670811059189586
14415361 349 18056476386071053639
14556957 393 17241061928461245735
15198563 99 18114455687746494157
15238133 3 9583514330681800042
15324884 4 17608106569191484841
15361156 5 18190199939170213193
16994733 274 14418120808871849591
17492 89 18269554949317204186
20028762 73 18131070432827347463
21033648 29 18187087201021064568
21583282 1 18120378919392408717
21641784 216 17748825198413812141
22393880 68 18261955125035147984
23559900 14 18270117899618616392
437815 12 18342171194488875663
46194498 28 18343871022275057382
497634 4 18201165360181017969
57527295 17 18190189979953385362
6086070 43 18041554721071456516
7237137 82 18187932720323357804

>  <PUBCHEM_SHAPE_MULTIPOLES>  (1) 
705.81
16.25
3.84
1.87
11.02
1.15
0.43
-14.95
6.9
2.86
1.24
-0.65
0.43
1.32

>  <PUBCHEM_SHAPE_SELFOVERLAP>  (1) 
1547.248

>  <PUBCHEM_SHAPE_VOLUME>  (1) 
384.3

>  <PUBCHEM_COORDINATE_TYPE>  (1) 
2
5
10

$$$$
