42763
     RDKit          3D

 16 16  0  0  0  0  0  0  0  0999 V2000
   -3.8179    1.7603    0.6286 Cl  0  0  0  0  0  0  0  0  0  0  0  0
   -4.6402   -0.7848   -1.1943 Cl  0  0  0  0  0  0  0  0  0  0  0  0
    2.9148   -0.4863   -0.0760 N   0  0  0  0  0  0  0  0  0  0  0  0
    1.5858    1.4983    0.1610 N   0  0  0  0  0  0  0  0  0  0  0  0
    0.8151   -0.4421    1.3009 C   0  0  0  0  0  0  0  0  0  0  0  0
    1.8379    0.2486    0.3971 C   0  0  0  0  0  0  0  0  0  0  0  0
   -0.5590   -0.5143    0.6822 C   0  0  0  0  0  0  0  0  0  0  0  0
    3.1983   -1.8784    0.1769 C   0  0  0  0  0  0  0  0  0  0  0  0
   -1.4580    0.5181    0.9006 C   0  0  0  0  0  0  0  0  0  0  0  0
   -0.8982   -1.6108   -0.0953 C   0  0  0  0  0  0  0  0  0  0  0  0
    2.5168    2.2295   -0.6867 C   0  0  0  0  0  0  0  0  0  0  0  0
    4.4565   -2.3231   -0.5493 C   0  0  0  0  0  0  0  0  0  0  0  0
   -2.7279    0.4524    0.3271 C   0  0  0  0  0  0  0  0  0  0  0  0
   -2.1679   -1.6765   -0.6688 C   0  0  0  0  0  0  0  0  0  0  0  0
   -3.0828   -0.6449   -0.4577 C   0  0  0  0  0  0  0  0  0  0  0  0
    2.0267    3.6539   -0.8463 C   0  0  0  0  0  0  0  0  0  0  0  0
  1 13  1  0
  2 15  1  0
  3  6  1  0
  3  8  1  0
  4  6  2  0
  4 11  1  0
  5  6  1  0
  5  7  1  0
  7  9  2  0
  7 10  1  0
  8 12  1  0
  9 13  1  0
 10 14  2  0
 11 16  1  0
 13 15  2  0
 14 15  1  0
M  END
>  <PUBCHEM_COMPOUND_CID>  (1) 
42763

>  <PUBCHEM_CONFORMER_RMSD>  (1) 
0.6

>  <PUBCHEM_CONFORMER_DIVERSEORDER>  (1) 
1
45
121
146
74
87
158
103
46
163
67
90
98
14
135
161
134
47
73
160
89
79
34
85
166
143
84
64
155
58
118
109
36
102
72
41
60
55
112
120
152
131
159
132
127
133
144
69
162
117
40
88
65
10
78
9
154
100
126
140
26
151
110
119
13
11
4
106
157
77
94
116
44
105
53
62
97
125
139
31
35
113
21
32
128
107
54
22
130
142
42
37
68
71
122
39
76
82
92
91
66
5
147
124
18
123
164
129
56
145
63
16
96
49
29
59
108
2
24
156
86
114
99
104
27
43
7
165
3
23
81
148
25
38
95
83
153
138
20
30
57
61
48
136
51
70
115
6
50
15
19
93
101
80
12
150
8
141
33
17
52
149
137
28
111
75

>  <PUBCHEM_MMFF94_PARTIAL_CHARGES>  (1) 
18
1 -0.18
10 -0.15
11 0.25
13 0.18
14 -0.15
15 0.18
19 0.4
2 -0.18
22 0.15
23 0.15
29 0.15
3 -0.82
4 -0.7
5 0.2
6 0.44
7 -0.14
8 0.37
9 -0.15

>  <PUBCHEM_EFFECTIVE_ROTOR_COUNT>  (1) 
5

>  <PUBCHEM_PHARMACOPHORE_FEATURES>  (1) 
3
1 3 donor
3 3 4 6 cation
6 7 9 10 13 14 15 rings

>  <PUBCHEM_HEAVY_ATOM_COUNT>  (1) 
16

>  <PUBCHEM_ATOM_DEF_STEREO_COUNT>  (1) 
0

>  <PUBCHEM_ATOM_UDEF_STEREO_COUNT>  (1) 
0

>  <PUBCHEM_BOND_DEF_STEREO_COUNT>  (1) 
0

>  <PUBCHEM_BOND_UDEF_STEREO_COUNT>  (1) 
0

>  <PUBCHEM_ISOTOPIC_ATOM_COUNT>  (1) 
0

>  <PUBCHEM_COMPONENT_COUNT>  (1) 
1

>  <PUBCHEM_CACTVS_TAUTO_COUNT>  (1) 
1

>  <PUBCHEM_CONFORMER_ID>  (1) 
0000A70B00000001

>  <PUBCHEM_MMFF94_ENERGY>  (1) 
30.9218

>  <PUBCHEM_FEATURE_SELFOVERLAP>  (1) 
15.223

>  <PUBCHEM_SHAPE_FINGERPRINT>  (1) 
10062212 137 17917141702838295711
10756046 5 18411982489643090869
14115302 16 17917712366294043803
14250199 8 18334574697862936357
15342816 4 16556481958861058703
15442244 35 18412264999896960336
17041 50 18261385607649489292
17539 30 17903916652778321276
18186145 218 17967809453429775507
20645476 183 18271249437978820270
20645477 70 18336540616111249799
20653085 51 18335143102730564611
20671657 1 18337398226701555500
20671657 53 18411982417087920590
21524375 3 17538276637683859664
2255824 54 18334853944068320066
23402539 116 18198054786020172678
23532345 88 18412544348917496668
23557571 272 17632576097319865296
23558518 356 18410858793461056019
23559900 14 18270389602822003082
23598291 2 18413112736088563392
3084891 8 17690846657538374446
312423 11 18341900718490984323
3286 77 17489011726220436451
474 4 17969777677727464664
53777708 50 18341619273288829331
633830 44 18187915206180200871
6992083 37 18126299544694650976
7364860 26 18341329002551503432
74978 22 18335704965746432770
7832392 63 18337390448310041176
81228 2 17975426715832324448
84936 182 18197781218105030864
9939556 21 18413671330945081723
9971528 1 18411412883049497528
9981440 41 17760644063902790544

>  <PUBCHEM_SHAPE_MULTIPOLES>  (1) 
323.05
8.06
3.16
1.08
1.24
2.64
-0.02
-2.39
2.23
-3.48
1.11
0.38
0.08
-1.23

>  <PUBCHEM_SHAPE_SELFOVERLAP>  (1) 
630.484

>  <PUBCHEM_SHAPE_VOLUME>  (1) 
195.8

>  <PUBCHEM_COORDINATE_TYPE>  (1) 
2
5
10

$$$$
