42778
     RDKit          3D

 18 18  0  0  1  0  0  0  0  0999 V2000
    3.9755   -0.5866   -0.0998 Si  0  0  0  0  0  4  0  0  0  0  0  0
   -0.1723    1.5520   -0.2681 O   0  0  0  0  0  0  0  0  0  0  0  0
   -1.7265    2.9045    0.7640 O   0  0  0  0  0  0  0  0  0  0  0  0
   -3.7946    1.6021   -0.4083 N   0  0  0  0  0  0  0  0  0  0  0  0
    2.3453    0.2331    0.3328 C   0  0  0  0  0  0  0  0  0  0  0  0
    2.2128    1.6967   -0.0936 C   0  0  0  0  0  0  0  0  0  0  0  0
    4.1827   -0.6197   -1.9634 C   0  0  0  0  0  0  0  0  0  0  0  0
    5.3855    0.3816    0.6688 C   0  0  0  0  0  0  0  0  0  0  0  0
    3.9883   -2.3412    0.5618 C   0  0  0  0  0  0  0  0  0  0  0  0
    0.8785    2.2888    0.3419 C   0  0  0  0  0  0  0  0  0  0  0  0
   -2.4546    1.0727   -0.6768 C   0  0  0  0  0  0  0  0  0  0  0  0
   -1.4470    1.9665    0.0281 C   0  0  0  0  0  0  0  0  0  0  0  0
   -2.3366   -0.3751   -0.2513 C   0  0  0  0  0  0  0  0  0  0  0  0
   -2.6691   -1.3727   -1.1511 C   0  0  0  0  0  0  0  0  0  0  0  0
   -1.8982   -0.6695    1.0281 C   0  0  0  0  0  0  0  0  0  0  0  0
   -2.5602   -2.7069   -0.7591 C   0  0  0  0  0  0  0  0  0  0  0  0
   -1.7892   -2.0038    1.4199 C   0  0  0  0  0  0  0  0  0  0  0  0
   -2.1202   -3.0224    0.5262 C   0  0  0  0  0  0  0  0  0  0  0  0
  1  5  1  0
  1  7  1  0
  1  8  1  0
  1  9  1  0
  2 10  1  0
  2 12  1  0
  3 12  2  0
  4 11  1  0
  5  6  1  0
  6 10  1  0
 11 12  1  0
 11 13  1  0
 13 14  2  0
 13 15  1  0
 14 16  1  0
 15 17  2  0
 16 18  2  0
 17 18  1  0
M  END
>  <PUBCHEM_COMPOUND_CID>  (1) 
42778

>  <PUBCHEM_CONFORMER_RMSD>  (1) 
0.8

>  <PUBCHEM_CONFORMER_DIVERSEORDER>  (1) 
1
147
12
109
55
192
46
224
227
212
186
178
123
85
167
87
39
169
173
30
18
201
91
51
9
4
6
160
136
177
48
34
77
24
204
59
146
154
52
54
117
42
140
164
35
23
213
130
57
72
98
231
145
116
103
105
202
168
16
206
64
207
17
94
161
149
90
155
96
184
79
226
31
151
74
205
13
76
8
81
75
219
150
142
118
101
230
221
40
10
44
63
26
15
193
22
157
185
183
53
71
3
159
133
45
112
228
106
175
180
214
139
5
88
115
80
14
2
58
217
166
174
197
156
86
47
210
135
82
69
37
199
220
211
104
61
56
49
65
170
20
162
50
43
110
144
165
32
126
182
127
119
208
124
132
194
158
70
19
141
148
229
99
95
25
29
215
21
108
66
131
223
93
100
83
187
176
125
27
38
216
28
190
120
181
179
195
200
73
89
163
196
128
121
33
114
78
198
191
41
153
36
225
60
92
138
67
7
134
129
68
232
11
171
102
111
62
189
107
203
122
97
137
84
113
152
209
222
143
218
172
188

>  <PUBCHEM_MMFF94_PARTIAL_CHARGES>  (1) 
24
1 0.32
10 0.28
11 0.47
12 0.66
13 -0.14
14 -0.15
15 -0.15
16 -0.15
17 -0.15
18 -0.15
2 -0.43
3 -0.57
35 0.15
36 0.15
37 0.36
38 0.36
39 0.15
4 -0.99
40 0.15
41 0.15
5 -0.08
7 -0.08
8 -0.08
9 -0.08

>  <PUBCHEM_EFFECTIVE_ROTOR_COUNT>  (1) 
7

>  <PUBCHEM_PHARMACOPHORE_FEATURES>  (1) 
4
1 3 acceptor
1 4 cation
1 4 donor
6 13 14 15 16 17 18 rings

>  <PUBCHEM_HEAVY_ATOM_COUNT>  (1) 
18

>  <PUBCHEM_ATOM_DEF_STEREO_COUNT>  (1) 
0

>  <PUBCHEM_ATOM_UDEF_STEREO_COUNT>  (1) 
1

>  <PUBCHEM_BOND_DEF_STEREO_COUNT>  (1) 
0

>  <PUBCHEM_BOND_UDEF_STEREO_COUNT>  (1) 
0

>  <PUBCHEM_ISOTOPIC_ATOM_COUNT>  (1) 
0

>  <PUBCHEM_COMPONENT_COUNT>  (1) 
1

>  <PUBCHEM_CACTVS_TAUTO_COUNT>  (1) 
1

>  <PUBCHEM_CONFORMER_ID>  (1) 
0000A71A00000001

>  <PUBCHEM_MMFF94_ENERGY>  (1) 
28.5296

>  <PUBCHEM_FEATURE_SELFOVERLAP>  (1) 
20.297

>  <PUBCHEM_SHAPE_FINGERPRINT>  (1) 
10366900 7 17632002079684101912
10616163 171 18411700989392695486
10764073 3 17826545226491297121
107951 10 17458913609112183955
10968037 57 18130519633314813878
12363563 72 18267024040795039694
12553582 1 18337404836809289306
12596599 1 17988657302094632666
13583140 156 14261360128563673182
13911882 115 17988928903521200638
14081887 123 18341316847878387256
14251757 5 18267039266760397244
14251764 30 16445335622649443875
14790565 3 17979355261714303769
14916288 52 18339081604747227398
17859628 97 17975413516611918099
18186145 218 10665214952725080910
20403669 9 18341051925294522678
21634736 98 18261683661653857556
21860390 5 10989226172806710068
23557571 272 18271519896670001442
23559900 14 18340191003653930920
23728640 28 18339925909454919235
463206 1 17835234919551085614
4921388 177 16732989759770162970
5309563 4 17905612451089438346
574716 61 17459780119006596116
8809292 202 18410009935749965452
9709674 26 18341328968012533796

>  <PUBCHEM_SHAPE_MULTIPOLES>  (1) 
371.92
9.14
3.53
1.26
10.03
0.24
0.28
2.65
0.93
-2.78
-0.55
0.34
0.5
0.17

>  <PUBCHEM_SHAPE_SELFOVERLAP>  (1) 
722.965

>  <PUBCHEM_SHAPE_VOLUME>  (1) 
226

>  <PUBCHEM_COORDINATE_TYPE>  (1) 
2
5
10

$$$$
