42796
     RDKit          3D

 16 17  0  0  0  0  0  0  0  0999 V2000
    0.9965    2.1355   -0.1208 O   0  0  0  0  0  0  0  0  0  0  0  0
    3.2553   -1.0140   -0.4532 N   0  0  0  0  0  0  0  0  0  0  0  0
    0.4467    0.1209    0.6889 N   0  0  0  0  0  0  0  0  0  0  0  0
   -0.3601    1.9533   -0.4177 N   0  0  0  0  0  0  0  0  0  0  0  0
    3.6883    0.3449   -0.1296 C   0  0  0  0  0  0  0  0  0  0  0  0
    2.7996    0.9600    0.9522 C   0  0  0  0  0  0  0  0  0  0  0  0
    1.3562    1.0122    0.5190 C   0  0  0  0  0  0  0  0  0  0  0  0
    3.3650   -1.8786    0.7211 C   0  0  0  0  0  0  0  0  0  0  0  0
    4.0453   -1.5523   -1.5598 C   0  0  0  0  0  0  0  0  0  0  0  0
   -0.6104    0.7434    0.0916 C   0  0  0  0  0  0  0  0  0  0  0  0
   -1.9043    0.1281    0.0207 C   0  0  0  0  0  0  0  0  0  0  0  0
   -2.9626    0.7950   -0.5985 C   0  0  0  0  0  0  0  0  0  0  0  0
   -2.1073   -1.1386    0.5705 C   0  0  0  0  0  0  0  0  0  0  0  0
   -4.2207    0.1966   -0.6677 C   0  0  0  0  0  0  0  0  0  0  0  0
   -3.3653   -1.7370    0.5012 C   0  0  0  0  0  0  0  0  0  0  0  0
   -4.4221   -1.0694   -0.1179 C   0  0  0  0  0  0  0  0  0  0  0  0
  1  4  1  0
  1  7  1  0
  2  5  1  0
  2  8  1  0
  2  9  1  0
  3  7  2  0
  3 10  1  0
  4 10  2  0
  5  6  1  0
  6  7  1  0
 10 11  1  0
 11 12  2  0
 11 13  1  0
 12 14  1  0
 13 15  2  0
 14 16  2  0
 15 16  1  0
M  END
>  <PUBCHEM_COMPOUND_CID>  (1) 
42796

>  <PUBCHEM_CONFORMER_RMSD>  (1) 
0.6

>  <PUBCHEM_CONFORMER_DIVERSEORDER>  (1) 
5
4
10
14
3
12
9
15
7
2
13
1
8
6
11

>  <PUBCHEM_MMFF94_PARTIAL_CHARGES>  (1) 
21
1 -0.02
10 0.46
11 0.05
12 -0.15
13 -0.15
14 -0.15
15 -0.15
16 -0.15
2 -0.81
27 0.15
28 0.15
29 0.15
3 -0.57
30 0.15
31 0.15
4 -0.41
5 0.27
6 0.18
7 0.3
8 0.27
9 0.27

>  <PUBCHEM_EFFECTIVE_ROTOR_COUNT>  (1) 
4

>  <PUBCHEM_PHARMACOPHORE_FEATURES>  (1) 
4
1 2 cation
3 3 4 10 cation
5 1 3 4 7 10 rings
6 11 12 13 14 15 16 rings

>  <PUBCHEM_HEAVY_ATOM_COUNT>  (1) 
16

>  <PUBCHEM_ATOM_DEF_STEREO_COUNT>  (1) 
0

>  <PUBCHEM_ATOM_UDEF_STEREO_COUNT>  (1) 
0

>  <PUBCHEM_BOND_DEF_STEREO_COUNT>  (1) 
0

>  <PUBCHEM_BOND_UDEF_STEREO_COUNT>  (1) 
0

>  <PUBCHEM_ISOTOPIC_ATOM_COUNT>  (1) 
0

>  <PUBCHEM_COMPONENT_COUNT>  (1) 
1

>  <PUBCHEM_CACTVS_TAUTO_COUNT>  (1) 
3

>  <PUBCHEM_CONFORMER_ID>  (1) 
0000A72C00000005

>  <PUBCHEM_MMFF94_ENERGY>  (1) 
31.2984

>  <PUBCHEM_FEATURE_SELFOVERLAP>  (1) 
20.297

>  <PUBCHEM_SHAPE_FINGERPRINT>  (1) 
10465860 71 17967540077048948636
10751810 167 17385722504416636689
11543360 7 14201398313350141393
11715629 250 9223238437876444737
12032990 46 18409448107062427385
12251169 10 11671770555979370386
12363563 72 18271252625245337334
12596602 18 14907888405855464110
12670546 177 17749394809961749164
13255334 9 18339082712854363267
13296908 3 18409444803926524281
13533116 47 17632860854089459083
13583140 156 14548446964976547875
14252887 29 18060137648343261218
14386348 63 18410572903009765570
14866123 147 17623297069663795803
15342816 4 18335702724169006646
15375358 24 18262791986211451904
15536298 74 18341045293716999795
15635459 17 18342181059396297454
17804303 29 18333731338648988269
17834074 16 18409165545279759691
18186145 218 17676477385114848469
19107657 162 18412541050139922739
193927 3 17988937634509640702
200 152 17846492673742770207
20279233 1 18408600392123952496
20281475 54 18409451353910120616
20374829 77 18409164377212217938
20432913 95 17704353281474819287
20645477 70 18272647969740670382
20671657 53 18409166606010178753
20871998 22 18410289224757225048
20871999 31 18113907039168549452
221490 88 18189340249894415955
2215653 11 18413102849627665007
22485316 2 18411132558543760371
23403322 49 18410857620507670559
23557571 272 18040989640413752332
23559900 14 18335976502553656344
2871803 45 18408605838406519926
3004659 81 17822569396445443666
314173 41 18409172129490868238
3323516 105 18334012800166187123
4463277 69 18060422404258274326
474 4 9223227459792550770
4921388 177 16009043794998700403
4990 188 18260261966874390737
7364860 26 18121780792264930360
7808743 9 9726190267048999994
94968 8 18413675708081330150
960060 61 18335424573217363190
9709674 26 18191022507264937971

>  <PUBCHEM_SHAPE_MULTIPOLES>  (1) 
308.46
8.99
2.04
1.01
0.72
0.06
-0.17
4.44
-1.69
-0.82
-0.02
-0.7
0.26
1.03

>  <PUBCHEM_SHAPE_SELFOVERLAP>  (1) 
648.13

>  <PUBCHEM_SHAPE_VOLUME>  (1) 
176.2

>  <PUBCHEM_COORDINATE_TYPE>  (1) 
2
5
10

$$$$
