42798
     RDKit          3D

 13 13  0  0  0  0  0  0  0  0999 V2000
   -1.6188    1.1635   -1.3155 O   0  0  0  0  0  0  0  0  0  0  0  0
   -1.7816   -0.2129    0.5502 N   0  0  0  0  0  0  0  0  0  0  0  0
   -3.2226    1.5403    0.2832 N   0  0  0  0  0  0  0  0  0  0  0  0
   -0.6803   -1.1096    0.2211 C   0  0  0  0  0  0  0  0  0  0  0  0
    0.6601   -0.3679    0.1325 C   0  0  0  0  0  0  0  0  0  0  0  0
   -1.0108   -1.7725   -1.1288 C   0  0  0  0  0  0  0  0  0  0  0  0
   -0.6191   -2.1891    1.3175 C   0  0  0  0  0  0  0  0  0  0  0  0
    1.6172   -0.8464   -0.7293 C   0  0  0  0  0  0  0  0  0  0  0  0
    0.8467    0.7431    0.9189 C   0  0  0  0  0  0  0  0  0  0  0  0
    2.8359   -0.1724   -0.8096 C   0  0  0  0  0  0  0  0  0  0  0  0
    2.0654    1.4171    0.8386 C   0  0  0  0  0  0  0  0  0  0  0  0
   -2.1520    0.8477   -0.2532 C   0  0  0  0  0  0  0  0  0  0  0  0
    3.0600    0.9592   -0.0257 C   0  0  0  0  0  0  0  0  0  0  0  0
  1 12  2  0
  2  4  1  0
  2 12  1  0
  3 12  1  0
  4  5  1  0
  4  6  1  0
  4  7  1  0
  5  8  2  0
  5  9  1  0
  8 10  1  0
  9 11  2  0
 10 13  2  0
 11 13  1  0
M  END
>  <PUBCHEM_COMPOUND_CID>  (1) 
42798

>  <PUBCHEM_CONFORMER_RMSD>  (1) 
0.6

>  <PUBCHEM_CONFORMER_DIVERSEORDER>  (1) 
2
3
1
4
6
5

>  <PUBCHEM_MMFF94_PARTIAL_CHARGES>  (1) 
19
1 -0.57
10 -0.15
11 -0.15
12 0.69
13 -0.15
2 -0.73
20 0.37
21 0.15
22 0.15
23 0.15
24 0.15
25 0.15
26 0.37
27 0.37
3 -0.8
4 0.44
5 -0.14
8 -0.15
9 -0.15

>  <PUBCHEM_EFFECTIVE_ROTOR_COUNT>  (1) 
3

>  <PUBCHEM_PHARMACOPHORE_FEATURES>  (1) 
5
1 1 acceptor
1 2 donor
1 3 donor
3 4 6 7 hydrophobe
6 5 8 9 10 11 13 rings

>  <PUBCHEM_HEAVY_ATOM_COUNT>  (1) 
13

>  <PUBCHEM_ATOM_DEF_STEREO_COUNT>  (1) 
0

>  <PUBCHEM_ATOM_UDEF_STEREO_COUNT>  (1) 
0

>  <PUBCHEM_BOND_DEF_STEREO_COUNT>  (1) 
0

>  <PUBCHEM_BOND_UDEF_STEREO_COUNT>  (1) 
0

>  <PUBCHEM_ISOTOPIC_ATOM_COUNT>  (1) 
0

>  <PUBCHEM_COMPONENT_COUNT>  (1) 
1

>  <PUBCHEM_CACTVS_TAUTO_COUNT>  (1) 
3

>  <PUBCHEM_CONFORMER_ID>  (1) 
0000A72E00000002

>  <PUBCHEM_MMFF94_ENERGY>  (1) 
41.6469

>  <PUBCHEM_FEATURE_SELFOVERLAP>  (1) 
25.426

>  <PUBCHEM_SHAPE_FINGERPRINT>  (1) 
1 1 18192147092674346039
12138202 97 18341327876948201614
124424 183 18413105061651879490
12716758 59 18334579061829303586
12932764 1 18129110098621489782
13294875 104 18123163763301849256
13839132 238 18408884066039626356
15557651 10 18336544902504006893
15775835 57 18336546027759129509
16945 1 18131071481014657810
17844478 74 18193854857443903323
18186145 218 18201160936211838909
18511873 20 18265606603077490018
19837323 101 18261672678826356779
19973954 147 18194683898080788008
20653085 51 18273498974433982137
21501502 16 18340479067004250750
21524375 3 18337386041910757799
21930827 45 18261395584832209186
21947302 44 18272086080696918472
22802520 49 18411145765853097182
23402539 116 18119793966163331839
23419403 2 13818120508248190304
23559900 14 18341899568199326254
25 1 18199194987925361945
2748010 2 17987525982001859268
276578 36 17968662609696020041
305870 269 17895461523686654186
5084963 1 18334583416736127063
528886 8 17775282725079802322
54338 74 17679009658919291239
549884 4 17988635238478316137
81228 2 17971757924139229915

>  <PUBCHEM_SHAPE_MULTIPOLES>  (1) 
251.7
4.19
1.98
1.2
0.83
0.41
0
-2.12
0.47
-0.99
-0.22
-0.12
0.28
0.54

>  <PUBCHEM_SHAPE_SELFOVERLAP>  (1) 
521.095

>  <PUBCHEM_SHAPE_VOLUME>  (1) 
144.1

>  <PUBCHEM_COORDINATE_TYPE>  (1) 
2
5
10

$$$$
