42797
     RDKit          3D

 19 21  0  0  0  0  0  0  0  0999 V2000
   -3.2750   -2.3169   -0.0103 O   0  0  0  0  0  0  0  0  0  0  0  0
   -3.2762    2.3164    0.0106 O   0  0  0  0  0  0  0  0  0  0  0  0
   -2.7544    0.0000   -0.0002 N   0  0  0  0  0  0  0  0  0  0  0  0
   -1.3220    0.0004   -0.0002 C   0  0  0  0  0  0  0  0  0  0  0  0
    1.4680    0.0008    0.0007 C   0  0  0  0  0  0  0  0  0  0  0  0
    2.9149    0.0004    0.0000 C   0  0  0  0  0  0  0  0  0  0  0  0
   -0.6244   -1.0387    0.6159 C   0  0  0  0  0  0  0  0  0  0  0  0
   -0.6246    1.0397   -0.6160 C   0  0  0  0  0  0  0  0  0  0  0  0
    0.7704   -1.0383    0.6164 C   0  0  0  0  0  0  0  0  0  0  0  0
    0.7702    1.0399   -0.6156 C   0  0  0  0  0  0  0  0  0  0  0  0
   -3.5498   -1.1282    0.0128 C   0  0  0  0  0  0  0  0  0  0  0  0
   -3.5504    1.1277   -0.0129 C   0  0  0  0  0  0  0  0  0  0  0  0
    3.6129    0.6152    1.0395 C   0  0  0  0  0  0  0  0  0  0  0  0
    3.6119   -0.6152   -1.0397 C   0  0  0  0  0  0  0  0  0  0  0  0
   -4.9452   -0.6652    0.0131 C   0  0  0  0  0  0  0  0  0  0  0  0
   -4.9455    0.6639   -0.0132 C   0  0  0  0  0  0  0  0  0  0  0  0
    5.0077    0.6147    1.0393 C   0  0  0  0  0  0  0  0  0  0  0  0
    5.0068   -0.6158   -1.0399 C   0  0  0  0  0  0  0  0  0  0  0  0
    5.7046   -0.0008   -0.0002 C   0  0  0  0  0  0  0  0  0  0  0  0
  1 11  2  0
  2 12  2  0
  3  4  1  0
  3 11  1  0
  3 12  1  0
  4  7  2  0
  4  8  1  0
  5  6  1  0
  5  9  2  0
  5 10  1  0
  6 13  2  0
  6 14  1  0
  7  9  1  0
  8 10  2  0
 11 15  1  0
 12 16  1  0
 13 17  1  0
 14 18  2  0
 15 16  2  0
 17 19  2  0
 18 19  1  0
M  END
>  <PUBCHEM_COMPOUND_CID>  (1) 
42797

>  <PUBCHEM_CONFORMER_RMSD>  (1) 
0.6

>  <PUBCHEM_CONFORMER_DIVERSEORDER>  (1) 
1
2
5
4
3
6

>  <PUBCHEM_MMFF94_PARTIAL_CHARGES>  (1) 
28
1 -0.57
10 -0.15
11 0.62
12 0.62
13 -0.15
14 -0.15
15 -0.14
16 -0.14
17 -0.15
18 -0.15
19 -0.15
2 -0.57
20 0.15
21 0.15
22 0.15
23 0.15
24 0.15
25 0.15
26 0.15
27 0.15
28 0.15
29 0.15
3 -0.24
30 0.15
4 0.12
7 -0.15
8 -0.15
9 -0.15

>  <PUBCHEM_EFFECTIVE_ROTOR_COUNT>  (1) 
2.2

>  <PUBCHEM_PHARMACOPHORE_FEATURES>  (1) 
5
1 1 acceptor
1 2 acceptor
5 3 11 12 15 16 rings
6 4 5 7 8 9 10 rings
6 6 13 14 17 18 19 rings

>  <PUBCHEM_HEAVY_ATOM_COUNT>  (1) 
19

>  <PUBCHEM_ATOM_DEF_STEREO_COUNT>  (1) 
0

>  <PUBCHEM_ATOM_UDEF_STEREO_COUNT>  (1) 
0

>  <PUBCHEM_BOND_DEF_STEREO_COUNT>  (1) 
0

>  <PUBCHEM_BOND_UDEF_STEREO_COUNT>  (1) 
0

>  <PUBCHEM_ISOTOPIC_ATOM_COUNT>  (1) 
0

>  <PUBCHEM_COMPONENT_COUNT>  (1) 
1

>  <PUBCHEM_CACTVS_TAUTO_COUNT>  (1) 
1

>  <PUBCHEM_CONFORMER_ID>  (1) 
0000A72D00000001

>  <PUBCHEM_MMFF94_ENERGY>  (1) 
61.6671

>  <PUBCHEM_FEATURE_SELFOVERLAP>  (1) 
25.373

>  <PUBCHEM_SHAPE_FINGERPRINT>  (1) 
10680689 15 18410299116151070011
11045977 3 18201715188872154448
11132069 177 18334575728691926245
11287383 113 17989204867400852978
11401426 45 18261109681654499871
12107183 9 17614273373455547456
12236239 1 17167861963364243048
12390115 104 18198633125290133537
12916748 109 18409171008314461177
13288520 33 18411702106205336359
13533116 47 14476968848817668910
13544592 145 18272941496812702414
13583140 156 17346593122908693670
13675066 3 18131348635280752924
13760787 5 16370724837846419870
13862211 1 18040994059423078482
14341114 176 18202286913391176328
14573314 32 18272935994642701636
15042514 8 18265338498614020787
15788980 27 18040719173047356642
15961568 22 18262234555729888772
17349148 13 17675926507945036234
17844677 252 18343589546750129592
1813 80 17022907817741100790
19026448 4 17989205945279336704
19141452 34 18202001070496126735
19489759 90 18409728456520303777
200 152 16128658526796765042
20645477 70 16988850436844755958
21033648 29 17418078902201995881
21033650 10 17898032152161181508
21065201 7 18410571782244906050
21267235 1 18334583481878262643
2297311 6 18342185466116710453
23175994 123 17346884454904037753
23402539 116 18335696161042188606
23536379 177 17203894037095146331
23557571 272 18271533017521063324
23559900 14 18343580767678545664
26918003 58 17704072902004899994
2916195 48 18342448271018512640
3004659 81 18261679165245403534
34797466 226 17917161597132033876
34934 24 18041551439373434009
3545911 37 18410857642483277083
4214541 1 18413108351006211889
4990 188 18343306938059983478
5104073 3 18261959664235767137
542803 24 17240484706278647150
59755656 215 18411138000478704527
7495541 125 16056588923877439515

>  <PUBCHEM_SHAPE_MULTIPOLES>  (1) 
374.29
12.59
1.53
0.92
3.9
0
0
0
0
-1.83
0
1.03
0
0.6

>  <PUBCHEM_SHAPE_SELFOVERLAP>  (1) 
833.806

>  <PUBCHEM_SHAPE_VOLUME>  (1) 
197.3

>  <PUBCHEM_COORDINATE_TYPE>  (1) 
2
5
10

$$$$
