42800
     RDKit          3D

 22 25  0  0  1  0  0  0  0  0999 V2000
   -0.3048   -2.8228   -0.0466 O   0  0  0  0  0  0  0  0  0  0  0  0
    5.0026    0.4065    1.2266 O   0  0  0  0  0  0  0  0  0  0  0  0
   -1.8287   -0.1268   -0.6413 N   0  0  0  0  0  0  0  0  0  0  0  0
    0.7933    1.0036   -1.2497 C   0  0  0  0  0  0  0  0  0  0  0  0
    0.0800    0.0460   -2.2288 C   0  0  0  0  0  0  0  0  0  0  0  0
   -0.8156   -0.8870   -1.3922 C   0  0  0  0  0  0  0  0  0  0  0  0
   -0.2509    1.7961   -0.4170 C   0  0  0  0  0  0  0  0  0  0  0  0
   -3.9642   -0.1362    0.5753 C   0  0  0  0  0  0  0  0  0  0  0  0
   -1.2688    0.8693    0.2794 C   0  0  0  0  0  0  0  0  0  0  0  0
   -2.8274   -0.9646    0.0131 C   0  0  0  0  0  0  0  0  0  0  0  0
   -5.0692   -0.8429    1.2726 C   0  0  0  0  0  0  0  0  0  0  0  0
   -4.0849   -0.0204    2.0515 C   0  0  0  0  0  0  0  0  0  0  0  0
    1.7179    0.1552   -0.3901 C   0  0  0  0  0  0  0  0  0  0  0  0
    0.0532   -1.7195   -0.4504 C   0  0  0  0  0  0  0  0  0  0  0  0
    0.3799    2.7561    0.5951 C   0  0  0  0  0  0  0  0  0  0  0  0
   -0.6960    0.7733   -3.3312 C   0  0  0  0  0  0  0  0  0  0  0  0
    1.3548   -1.1477   -0.0029 C   0  0  0  0  0  0  0  0  0  0  0  0
    2.9554    0.6650    0.0280 C   0  0  0  0  0  0  0  0  0  0  0  0
   -0.6736    3.6029    1.2796 C   0  0  0  0  0  0  0  0  0  0  0  0
    2.2085   -1.9151    0.7966 C   0  0  0  0  0  0  0  0  0  0  0  0
    3.8061   -0.1026    0.8239 C   0  0  0  0  0  0  0  0  0  0  0  0
    3.4324   -1.3886    1.2084 C   0  0  0  0  0  0  0  0  0  0  0  0
  1 14  2  0
  2 21  1  0
  3  6  1  0
  3  9  1  0
  3 10  1  0
  4  5  1  0
  4  7  1  0
  4 13  1  0
  5  6  1  0
  5 16  1  0
  6 14  1  0
  7  9  1  0
  7 15  1  0
  8 10  1  0
  8 11  1  0
  8 12  1  0
 11 12  1  0
 13 17  2  0
 13 18  1  0
 14 17  1  0
 15 19  1  0
 17 20  1  0
 18 21  2  0
 20 22  2  0
 21 22  1  0
M  END
>  <PUBCHEM_COMPOUND_CID>  (1) 
42800

>  <PUBCHEM_CONFORMER_RMSD>  (1) 
0.8

>  <PUBCHEM_CONFORMER_DIVERSEORDER>  (1) 
2
4
15
3
13
1
17
9
12
16
5
10
7
6
14
8
11

>  <PUBCHEM_MMFF94_PARTIAL_CHARGES>  (1) 
26
1 -0.57
10 0.37
11 -0.2
12 -0.2
13 -0.14
14 0.42
17 0.09
18 -0.15
2 -0.53
20 -0.15
21 0.08
22 -0.15
27 0.1
3 -0.81
32 0.1
33 0.1
34 0.1
35 0.1
4 0.14
41 0.15
45 0.15
46 0.15
47 0.45
6 0.33
8 -0.19
9 0.27

>  <PUBCHEM_EFFECTIVE_ROTOR_COUNT>  (1) 
4.4

>  <PUBCHEM_PHARMACOPHORE_FEATURES>  (1) 
7
1 1 acceptor
1 19 hydrophobe
1 2 donor
1 3 cation
6 13 17 18 20 21 22 rings
6 3 4 5 6 7 9 rings
6 4 5 6 13 14 17 rings

>  <PUBCHEM_HEAVY_ATOM_COUNT>  (1) 
22

>  <PUBCHEM_ATOM_DEF_STEREO_COUNT>  (1) 
0

>  <PUBCHEM_ATOM_UDEF_STEREO_COUNT>  (1) 
4

>  <PUBCHEM_BOND_DEF_STEREO_COUNT>  (1) 
0

>  <PUBCHEM_BOND_UDEF_STEREO_COUNT>  (1) 
0

>  <PUBCHEM_ISOTOPIC_ATOM_COUNT>  (1) 
0

>  <PUBCHEM_COMPONENT_COUNT>  (1) 
1

>  <PUBCHEM_CACTVS_TAUTO_COUNT>  (1) 
12

>  <PUBCHEM_CONFORMER_ID>  (1) 
0000A73000000002

>  <PUBCHEM_MMFF94_ENERGY>  (1) 
62.4288

>  <PUBCHEM_FEATURE_SELFOVERLAP>  (1) 
37.016

>  <PUBCHEM_SHAPE_FINGERPRINT>  (1) 
10948715 1 14117794721664885591
1100329 8 18123192561342886032
11578080 2 17899949889176289965
11796584 16 15864068784803975307
12363563 72 15936421017492260515
12403814 3 17603851334801294414
12592029 89 16372721645493959940
12633257 1 18338252552032237891
13132413 78 18343585152993155001
13134695 92 18041564740918960941
13140716 1 18194115446569361160
13544653 18 18040434373871603427
13965767 371 17269512775715005353
14223421 5 18053102826355483154
14251751 93 10591461898745938449
14787075 74 18261114135667403002
14863182 85 18266766656475021991
14955137 171 18269290086767397339
15163728 17 15122969394286439867
15238133 3 18192175753698007145
15375462 189 18335419101275878040
16945 1 18114180886288688926
17980427 23 17346314964359041289
1813 80 17167871841546690871
18186145 218 12463568495476614359
20344682 10 18412826858744026603
20600515 1 17603884277200629883
20723712 36 17988650726130028217
22112679 90 17631152259995555924
231179 274 13542470834467641003
23419403 2 18115565128621213301
2637199 183 10519985937652826217
2748010 2 17972013874404940382
392239 28 18268126817072689136
394222 165 17390833103024072941
427121 178 16702036261476096295
568465 68 18187363233698801975
5939293 188 17987534760920839465
6442390 28 14836118862699920079
8509985 295 18337685148313937249

>  <PUBCHEM_SHAPE_MULTIPOLES>  (1) 
436.03
6.99
2.72
2.14
2.41
1.73
1.68
-2.41
-5.81
-0.13
-0.99
0.71
0.53
-0.21

>  <PUBCHEM_SHAPE_SELFOVERLAP>  (1) 
937.732

>  <PUBCHEM_SHAPE_VOLUME>  (1) 
239.1

>  <PUBCHEM_COORDINATE_TYPE>  (1) 
2
5
10

$$$$
