4280
     RDKit          3D

 19 19  0  0  0  0  0  0  0  0999 V2000
   -0.9167    0.3300    1.3443 S   0  0  0  0  0  0  0  0  0  0  0  0
   -0.7450   -0.8575    2.1608 O   0  0  0  0  0  0  0  0  0  0  0  0
   -1.3965    1.5546    1.9577 O   0  0  0  0  0  0  0  0  0  0  0  0
   -4.4401    1.0218   -0.7091 O   0  0  0  0  0  0  0  0  0  0  0  0
   -4.0759   -1.8668   -0.2232 O   0  0  0  0  0  0  0  0  0  0  0  0
    4.9191   -0.6645   -0.9317 O   0  0  0  0  0  0  0  0  0  0  0  0
    3.6071   -2.2973   -0.0487 O   0  0  0  0  0  0  0  0  0  0  0  0
   -1.8969   -0.0502   -0.0226 N   0  0  0  0  0  0  0  0  0  0  0  0
   -2.0743    0.9963   -1.0613 C   0  0  0  0  0  0  0  0  0  0  0  0
   -1.7622   -1.4048   -0.6163 C   0  0  0  0  0  0  0  0  0  0  0  0
    0.6520    0.6919    0.6063 C   0  0  0  0  0  0  0  0  0  0  0  0
   -3.4432    0.8796   -1.7125 C   0  0  0  0  0  0  0  0  0  0  0  0
   -2.7642   -2.3651    0.0045 C   0  0  0  0  0  0  0  0  0  0  0  0
    1.5621   -0.3330    0.4258 C   0  0  0  0  0  0  0  0  0  0  0  0
    0.9338    1.9913    0.2280 C   0  0  0  0  0  0  0  0  0  0  0  0
    2.7985   -0.0481   -0.1538 C   0  0  0  0  0  0  0  0  0  0  0  0
    2.1701    2.2764   -0.3517 C   0  0  0  0  0  0  0  0  0  0  0  0
    3.1024    1.2566   -0.5426 C   0  0  0  0  0  0  0  0  0  0  0  0
    3.7701   -1.1112   -0.3540 C   0  0  0  0  0  0  0  0  0  0  0  0
  1  2  2  0
  1  3  2  0
  1  8  1  0
  1 11  1  0
  4 12  1  0
  5 13  1  0
  6 19  1  0
  7 19  2  0
  8  9  1  0
  8 10  1  0
  9 12  1  0
 10 13  1  0
 11 14  2  0
 11 15  1  0
 14 16  1  0
 15 17  2  0
 16 18  2  0
 16 19  1  0
 17 18  1  0
M  END
>  <PUBCHEM_COMPOUND_CID>  (1) 
4280

>  <PUBCHEM_CONFORMER_RMSD>  (1) 
0.8

>  <PUBCHEM_CONFORMER_DIVERSEORDER>  (1) 
1
28
8
13
36
42
39
14
27
10
25
49
54
2
44
21
4
22
7
35
26
18
52
3
17
32
40
47
15
41
37
30
45
33
38
9
6
12
31
29
46
20
51
53
48
11
19
23
34
24
43
5
50
16

>  <PUBCHEM_MMFF94_PARTIAL_CHARGES>  (1) 
26
1 1.45
10 0.36
11 -0.01
12 0.28
13 0.28
14 -0.15
15 -0.15
16 0.09
17 -0.15
18 -0.15
19 0.63
2 -0.65
28 0.15
29 0.15
3 -0.65
30 0.15
31 0.15
32 0.4
33 0.4
34 0.5
4 -0.68
5 -0.68
6 -0.65
7 -0.57
8 -0.85
9 0.36

>  <PUBCHEM_EFFECTIVE_ROTOR_COUNT>  (1) 
7

>  <PUBCHEM_PHARMACOPHORE_FEATURES>  (1) 
10
1 2 acceptor
1 3 acceptor
1 4 acceptor
1 4 donor
1 5 acceptor
1 5 donor
1 6 acceptor
1 7 acceptor
3 6 7 19 anion
6 11 14 15 16 17 18 rings

>  <PUBCHEM_HEAVY_ATOM_COUNT>  (1) 
19

>  <PUBCHEM_ATOM_DEF_STEREO_COUNT>  (1) 
0

>  <PUBCHEM_ATOM_UDEF_STEREO_COUNT>  (1) 
0

>  <PUBCHEM_BOND_DEF_STEREO_COUNT>  (1) 
0

>  <PUBCHEM_BOND_UDEF_STEREO_COUNT>  (1) 
0

>  <PUBCHEM_ISOTOPIC_ATOM_COUNT>  (1) 
0

>  <PUBCHEM_COMPONENT_COUNT>  (1) 
1

>  <PUBCHEM_CACTVS_TAUTO_COUNT>  (1) 
1

>  <PUBCHEM_CONFORMER_ID>  (1) 
000010B800000001

>  <PUBCHEM_MMFF94_ENERGY>  (1) 
34.1795

>  <PUBCHEM_FEATURE_SELFOVERLAP>  (1) 
50.828

>  <PUBCHEM_SHAPE_FINGERPRINT>  (1) 
10498660 4 17023444422576034253
11578080 2 17704061919504967568
12186901 62 18113607998482636023
12363563 72 16487247789975781693
12553582 1 18267318534334543650
12788726 201 17417828218157397921
12892183 10 10303817613683518485
14115302 16 18201995530019690189
16752209 62 17131835326334053543
16945 1 18263910077783561929
17834072 14 18058997454574351968
18186145 218 17895181212714743421
18522851 268 18263921197274244694
19433438 38 18261387914284362540
200 152 18202284735979556194
20361792 2 16486693700835492641
20645477 70 18272657874172547542
20871999 31 18260267455800579078
21069387 34 17846494803455958980
21731516 1 16414919763290445081
21864079 5 15430027747317176949
221490 88 18264492947921805142
22802520 49 18042124417553408105
23557571 272 18193256693206765489
23559900 14 18342729741737205088
25 1 17676765353628495169
2637199 183 17897153642434132125
3323516 105 18261670462818358675
5161694 15 18040150695507948892
58051976 100 18408041822974142367
81228 2 14476698419869004867
93112 12 18408036316715104244
9709674 26 18116432729009907042

>  <PUBCHEM_SHAPE_MULTIPOLES>  (1) 
354.66
7.85
2.41
1.45
1.09
0.48
-0.57
2.58
3.57
0.03
0.14
-0.94
-0.32
0.45

>  <PUBCHEM_SHAPE_SELFOVERLAP>  (1) 
711.641

>  <PUBCHEM_SHAPE_VOLUME>  (1) 
207.6

>  <PUBCHEM_COORDINATE_TYPE>  (1) 
2
5
10

$$$$
