42809
     RDKit          3D

 19 20  0  0  0  0  0  0  0  0999 V2000
    3.0942    1.8645   -0.3857 O   0  0  0  0  0  0  0  0  0  0  0  0
    4.8573   -1.7390    0.3486 O   0  0  0  0  0  0  0  0  0  0  0  0
    5.0494    0.4334    0.0627 O   0  0  0  0  0  0  0  0  0  0  0  0
   -1.1906   -0.2751   -0.6209 N   0  0  0  0  0  0  0  0  0  0  0  0
    4.3594   -0.6109    0.1250 N   0  0  0  0  0  0  0  0  0  0  0  0
   -1.7602   -0.0866    0.4798 N   0  0  0  0  0  0  0  0  0  0  0  0
    2.3533    0.7220   -0.3174 C   0  0  0  0  0  0  0  0  0  0  0  0
    2.9538   -0.5118   -0.0668 C   0  0  0  0  0  0  0  0  0  0  0  0
    0.2002   -0.3542   -0.4351 C   0  0  0  0  0  0  0  0  0  0  0  0
    0.9730    0.8009   -0.5021 C   0  0  0  0  0  0  0  0  0  0  0  0
    2.1742   -1.6666   -0.0008 C   0  0  0  0  0  0  0  0  0  0  0  0
    0.7939   -1.5875   -0.1854 C   0  0  0  0  0  0  0  0  0  0  0  0
   -3.1439   -0.0075    0.2953 C   0  0  0  0  0  0  0  0  0  0  0  0
   -3.9235   -1.1624    0.3616 C   0  0  0  0  0  0  0  0  0  0  0  0
   -3.7448    1.2261    0.0451 C   0  0  0  0  0  0  0  0  0  0  0  0
   -5.3039   -1.0836    0.1775 C   0  0  0  0  0  0  0  0  0  0  0  0
   -5.1252    1.3049   -0.1388 C   0  0  0  0  0  0  0  0  0  0  0  0
   -5.9047    0.1501   -0.0727 C   0  0  0  0  0  0  0  0  0  0  0  0
    3.2882    2.5834    0.8301 C   0  0  0  0  0  0  0  0  0  0  0  0
  1  7  1  0
  1 19  1  0
  2  5  1  0
  3  5  2  0
  4  6  2  0
  4  9  1  0
  5  8  1  0
  6 13  1  0
  7  8  2  0
  7 10  1  0
  8 11  1  0
  9 10  2  0
  9 12  1  0
 11 12  2  0
 13 14  2  0
 13 15  1  0
 14 16  1  0
 15 17  2  0
 16 18  2  0
 17 18  1  0
M  CHG  2   2  -1   5   1
M  END
>  <PUBCHEM_COMPOUND_CID>  (1) 
42809

>  <PUBCHEM_CONFORMER_RMSD>  (1) 
0.6

>  <PUBCHEM_CONFORMER_DIVERSEORDER>  (1) 
2
4
5
1
3

>  <PUBCHEM_MMFF94_PARTIAL_CHARGES>  (1) 
27
1 -0.36
10 -0.15
11 -0.15
12 -0.15
13 0.18
14 -0.15
15 -0.15
16 -0.15
17 -0.15
18 -0.15
19 0.28
2 -0.52
20 0.15
21 0.15
22 0.15
23 0.15
24 0.15
25 0.15
26 0.15
27 0.15
3 -0.52
4 -0.18
5 0.91
6 -0.18
7 0.08
8 0.13
9 0.18

>  <PUBCHEM_EFFECTIVE_ROTOR_COUNT>  (1) 
4

>  <PUBCHEM_PHARMACOPHORE_FEATURES>  (1) 
6
1 1 acceptor
1 2 acceptor
1 2 anion
1 3 acceptor
6 13 14 15 16 17 18 rings
6 7 8 9 10 11 12 rings

>  <PUBCHEM_HEAVY_ATOM_COUNT>  (1) 
19

>  <PUBCHEM_ATOM_DEF_STEREO_COUNT>  (1) 
0

>  <PUBCHEM_ATOM_UDEF_STEREO_COUNT>  (1) 
0

>  <PUBCHEM_BOND_DEF_STEREO_COUNT>  (1) 
0

>  <PUBCHEM_BOND_UDEF_STEREO_COUNT>  (1) 
0

>  <PUBCHEM_ISOTOPIC_ATOM_COUNT>  (1) 
0

>  <PUBCHEM_COMPONENT_COUNT>  (1) 
1

>  <PUBCHEM_CACTVS_TAUTO_COUNT>  (1) 
1

>  <PUBCHEM_CONFORMER_ID>  (1) 
0000A73900000002

>  <PUBCHEM_MMFF94_ENERGY>  (1) 
70.5149

>  <PUBCHEM_FEATURE_SELFOVERLAP>  (1) 
30.549

>  <PUBCHEM_SHAPE_FINGERPRINT>  (1) 
10937287 8 16958750472489694268
11045977 3 18333454256812249274
11089746 13 18341323431847032317
11405975 8 18408326575258546987
12107183 9 17688871930575887993
12236239 1 17988923362243476231
12403259 415 18187076256869212973
12507557 5 18342739611350355793
12616971 3 17989202664177511069
13167372 99 18272375213911957433
13167823 11 18410009949104515135
14251764 18 18259700112775823018
14341114 176 18408328765338504715
15196674 1 18409731776873070693
15475509 35 16806146797555160920
15788980 27 18343864420446138407
17834072 33 18413107281833564487
17844677 252 18411707582267734537
18222031 100 16081086008800789591
18681886 176 18201432584567218042
19433438 28 18186523211532128681
200 152 18343581833236389331
20645477 56 18187929427070054125
20645477 70 18412548686571013951
21065198 57 18335703862150665259
21267235 1 18410020922645612719
21315763 129 18410572868934987269
21452121 103 18341042012826501760
21709351 56 18410288108155055047
23402539 116 18407755929008619695
23557571 272 17385721362108323893
23559900 14 18335699464267730025
26918003 58 18408042905669780739
350125 39 18409167706054868436
351380 180 18408886230813867873
3545911 37 18335423457047923301
4073 2 17895482521665954027
4214541 1 18408324354997902869
5104073 3 18409453600589226929
542803 24 17313109648385144399
67856867 119 18412822516769577705
7495541 125 17346312760729614915
77779 3 18409732859405087983
9709674 26 18410022013847322463
9971528 1 17821449079515797837
9999458 23 18187083975289271702

>  <PUBCHEM_SHAPE_MULTIPOLES>  (1) 
358.46
13.15
1.99
0.71
8.41
0.63
-0.01
0.58
-1.16
-1.78
-0.27
-0.05
0.09
0.32

>  <PUBCHEM_SHAPE_SELFOVERLAP>  (1) 
771.489

>  <PUBCHEM_SHAPE_VOLUME>  (1) 
197.6

>  <PUBCHEM_COORDINATE_TYPE>  (1) 
2
5
10

$$$$
