42804
     RDKit          3D

 25 28  0  0  0  0  0  0  0  0999 V2000
    5.8930    0.0012    0.8282 O   0  0  0  0  0  0  0  0  0  0  0  0
   -0.2909   -0.0004   -1.6484 N   0  0  0  0  0  0  0  0  0  0  0  0
   -3.4766    0.0001    1.0756 N   0  0  0  0  0  0  0  0  0  0  0  0
    3.5771    0.0012    1.2716 N   0  0  0  0  0  0  0  0  0  0  0  0
   -1.3711   -0.0001   -0.7246 C   0  0  0  0  0  0  0  0  0  0  0  0
   -1.8982    1.2147   -0.2744 C   0  0  0  0  0  0  0  0  0  0  0  0
   -1.8979   -1.2147   -0.2739 C   0  0  0  0  0  0  0  0  0  0  0  0
   -2.9654    1.1672    0.6383 C   0  0  0  0  0  0  0  0  0  0  0  0
   -2.9653   -1.1671    0.6387 C   0  0  0  0  0  0  0  0  0  0  0  0
    1.0992   -0.0011   -1.4737 C   0  0  0  0  0  0  0  0  0  0  0  0
   -1.3884    2.4499   -0.7108 C   0  0  0  0  0  0  0  0  0  0  0  0
   -1.3880   -2.4501   -0.7097 C   0  0  0  0  0  0  0  0  0  0  0  0
   -3.4945    2.3733    1.0902 C   0  0  0  0  0  0  0  0  0  0  0  0
   -3.4941   -2.3730    1.0912 C   0  0  0  0  0  0  0  0  0  0  0  0
    1.6505    0.0006   -0.1871 C   0  0  0  0  0  0  0  0  0  0  0  0
   -1.9351    3.6414   -0.2438 C   0  0  0  0  0  0  0  0  0  0  0  0
   -1.9344   -3.6416   -0.2421 C   0  0  0  0  0  0  0  0  0  0  0  0
   -2.9903    3.6027    0.6585 C   0  0  0  0  0  0  0  0  0  0  0  0
   -2.9897   -3.6025    0.6603 C   0  0  0  0  0  0  0  0  0  0  0  0
    1.9509   -0.0022   -2.5844 C   0  0  0  0  0  0  0  0  0  0  0  0
    3.0344    0.0010   -0.0137 C   0  0  0  0  0  0  0  0  0  0  0  0
    3.3348   -0.0018   -2.4111 C   0  0  0  0  0  0  0  0  0  0  0  0
    3.8767   -0.0002   -1.1257 C   0  0  0  0  0  0  0  0  0  0  0  0
    4.9303    0.0003    1.5879 C   0  0  0  0  0  0  0  0  0  0  0  0
    5.1332    0.0009    3.0829 C   0  0  0  0  0  0  0  0  0  0  0  0
  1 24  2  0
  2  5  1  0
  2 10  1  0
  3  8  2  0
  3  9  1  0
  4 21  1  0
  4 24  1  0
  5  6  2  0
  5  7  1  0
  6  8  1  0
  6 11  1  0
  7  9  2  0
  7 12  1  0
  8 13  1  0
  9 14  1  0
 10 15  2  0
 10 20  1  0
 11 16  2  0
 12 17  2  0
 13 18  2  0
 14 19  2  0
 15 21  1  0
 16 18  1  0
 17 19  1  0
 20 22  2  0
 21 23  2  0
 22 23  1  0
 24 25  1  0
M  END
>  <PUBCHEM_COMPOUND_CID>  (1) 
42804

>  <PUBCHEM_CONFORMER_RMSD>  (1) 
0.8

>  <PUBCHEM_CONFORMER_DIVERSEORDER>  (1) 
2
5
6
12
3
8
7
11
13
14
9
10
4
1

>  <PUBCHEM_MMFF94_PARTIAL_CHARGES>  (1) 
37
1 -0.57
10 0.1
11 -0.15
12 -0.15
13 -0.15
14 -0.15
15 -0.15
16 -0.15
17 -0.15
18 -0.15
19 -0.15
2 -0.6
20 -0.15
21 0.12
22 -0.15
23 -0.15
24 0.57
25 0.06
26 0.4
27 0.15
28 0.15
29 0.15
3 -0.62
30 0.15
31 0.15
32 0.15
33 0.15
34 0.15
35 0.15
36 0.15
37 0.15
38 0.15
39 0.37
4 -0.55
5 0.1
8 0.31
9 0.31

>  <PUBCHEM_EFFECTIVE_ROTOR_COUNT>  (1) 
4

>  <PUBCHEM_PHARMACOPHORE_FEATURES>  (1) 
9
1 1 acceptor
1 2 cation
1 2 donor
1 3 acceptor
1 4 donor
6 10 15 20 21 22 23 rings
6 3 5 6 7 8 9 rings
6 6 8 11 13 16 18 rings
6 7 9 12 14 17 19 rings

>  <PUBCHEM_HEAVY_ATOM_COUNT>  (1) 
25

>  <PUBCHEM_ATOM_DEF_STEREO_COUNT>  (1) 
0

>  <PUBCHEM_ATOM_UDEF_STEREO_COUNT>  (1) 
0

>  <PUBCHEM_BOND_DEF_STEREO_COUNT>  (1) 
0

>  <PUBCHEM_BOND_UDEF_STEREO_COUNT>  (1) 
0

>  <PUBCHEM_ISOTOPIC_ATOM_COUNT>  (1) 
0

>  <PUBCHEM_COMPONENT_COUNT>  (1) 
1

>  <PUBCHEM_CACTVS_TAUTO_COUNT>  (1) 
4

>  <PUBCHEM_CONFORMER_ID>  (1) 
0000A73400000002

>  <PUBCHEM_MMFF94_ENERGY>  (1) 
103.8598

>  <PUBCHEM_FEATURE_SELFOVERLAP>  (1) 
45.732

>  <PUBCHEM_SHAPE_FINGERPRINT>  (1) 
10074138 170 18408890633498244803
10319926 262 18342458111136662574
10928967 22 16588856851408798418
10930396 42 17982699104154163027
11049842 53 18120397379531222102
11070050 100 17623598361994663745
114674 6 15448641761959012922
11552529 35 18335966658594330074
11582403 64 17628052517631208461
11595378 159 18335703909601001372
11725454 13 17559661863485576468
12539773 59 17822555162633492987
12549972 3 17916315943904539158
12553582 1 18121800562363274071
12633257 1 18271530891459387673
12788726 201 18116735077654523755
12930653 34 18341886381885284646
13004483 165 18265895955024098019
13009979 54 17968098676548892322
13140716 1 17979950355861422483
13583140 156 17988629801735339706
13726171 33 18127718069783718936
13911987 19 14565097067626025910
14081887 123 18341619234518260991
14178342 30 18408887326125876822
14468879 13 17346303869888738784
14787075 74 17396155989080015420
14950920 106 18191277512880346064
15230672 131 17831044350774535622
15295992 7 17559405651585615822
15475509 35 16668546486273097611
15842332 3 17749405779429438572
16988056 13 10221719171839469858
17780758 139 18261093185260194362
19315092 285 16882685042867747072
19377110 9 17895758521403374060
20554085 129 18195800765998968273
20600515 1 18199755919829658275
21033648 29 17775015560928977184
21065201 7 18341630191370165222
212916 134 18267591195532201117
21304303 282 18121191244290578629
21344244 78 17554908924534452771
21591340 35 17121147863112583088
21599406 157 11244497962810104242
21650355 55 18338236080558337407
22122407 14 15265966289001270803
22956985 138 17111271469676883114
23366157 5 17252878659546162127
23557571 272 18201734945837884004
23559900 14 18127433167189932702
23598288 3 17386008316936140716
238918 7 16378307911529383692
3886686 26 18048314444717275218
5265222 85 18127158405885896886
57124632 79 17470744203988133109
602551 16 18411430496599634710
613672 6 18054231196254598319
633830 44 14045468907694853756
6371380 46 17763173645311331518
7097593 13 18041841684436057746
7288768 16 17773882991217960817
81228 2 18342189894449474031
84936 182 17333387700939822365
90316 7 18338812224698823303
9981440 41 17631147737431708294

>  <PUBCHEM_SHAPE_MULTIPOLES>  (1) 
493.68
9.68
4
2.21
14.68
0
-0.15
0
-6.39
-8.08
-0.61
3.9
0
0

>  <PUBCHEM_SHAPE_SELFOVERLAP>  (1) 
1103.656

>  <PUBCHEM_SHAPE_VOLUME>  (1) 
260.2

>  <PUBCHEM_COORDINATE_TYPE>  (1) 
2
5
10

$$$$
