42814
     RDKit          3D

 15 16  0  0  0  0  0  0  0  0999 V2000
    2.2200    3.5075   -0.1680 Br  0  0  0  0  0  0  0  0  0  0  0  0
   -1.3583   -1.7601   -0.5822 O   0  0  0  0  0  0  0  0  0  0  0  0
    1.1011   -2.4257    0.1079 O   0  0  0  0  0  0  0  0  0  0  0  0
   -2.0585    0.2132    0.4141 N   0  0  0  0  0  0  0  0  0  0  0  0
   -3.4659   -0.1123    0.4597 C   0  0  0  0  0  0  0  0  0  0  0  0
   -4.4893    0.9684    0.5076 C   0  0  0  0  0  0  0  0  0  0  0  0
   -4.3335    0.1290   -0.7266 C   0  0  0  0  0  0  0  0  0  0  0  0
   -1.0851   -0.6433   -0.1106 C   0  0  0  0  0  0  0  0  0  0  0  0
    0.2953   -0.1810   -0.0621 C   0  0  0  0  0  0  0  0  0  0  0  0
    1.3511   -1.0861    0.0453 C   0  0  0  0  0  0  0  0  0  0  0  0
    0.5542    1.1882   -0.1253 C   0  0  0  0  0  0  0  0  0  0  0  0
    2.6659   -0.6221    0.0896 C   0  0  0  0  0  0  0  0  0  0  0  0
    1.8689    1.6523   -0.0809 C   0  0  0  0  0  0  0  0  0  0  0  0
    2.9247    0.7472    0.0265 C   0  0  0  0  0  0  0  0  0  0  0  0
    3.8095   -1.5753    0.2051 C   0  0  0  0  0  0  0  0  0  0  0  0
  1 13  1  0
  2  8  2  0
  3 10  1  0
  4  5  1  0
  4  8  1  0
  5  6  1  0
  5  7  1  0
  6  7  1  0
  8  9  1  0
  9 10  2  0
  9 11  1  0
 10 12  1  0
 11 13  2  0
 12 14  2  0
 12 15  1  0
 13 14  1  0
M  END
>  <PUBCHEM_COMPOUND_CID>  (1) 
42814

>  <PUBCHEM_CONFORMER_RMSD>  (1) 
0.6

>  <PUBCHEM_CONFORMER_DIVERSEORDER>  (1) 
1
4
5
2
6
3

>  <PUBCHEM_MMFF94_PARTIAL_CHARGES>  (1) 
24
1 -0.11
10 0.08
11 -0.15
12 -0.14
13 0.11
14 -0.15
15 0.14
16 0.1
17 0.1
18 0.1
19 0.1
2 -0.57
20 0.1
21 0.37
22 0.15
23 0.15
27 0.45
3 -0.53
4 -0.58
5 0.05
6 -0.2
7 -0.2
8 0.54
9 0.09

>  <PUBCHEM_EFFECTIVE_ROTOR_COUNT>  (1) 
3.6

>  <PUBCHEM_PHARMACOPHORE_FEATURES>  (1) 
5
1 1 hydrophobe
1 2 acceptor
1 3 donor
1 4 donor
6 9 10 11 12 13 14 rings

>  <PUBCHEM_HEAVY_ATOM_COUNT>  (1) 
15

>  <PUBCHEM_ATOM_DEF_STEREO_COUNT>  (1) 
0

>  <PUBCHEM_ATOM_UDEF_STEREO_COUNT>  (1) 
0

>  <PUBCHEM_BOND_DEF_STEREO_COUNT>  (1) 
0

>  <PUBCHEM_BOND_UDEF_STEREO_COUNT>  (1) 
0

>  <PUBCHEM_ISOTOPIC_ATOM_COUNT>  (1) 
0

>  <PUBCHEM_COMPONENT_COUNT>  (1) 
1

>  <PUBCHEM_CACTVS_TAUTO_COUNT>  (1) 
7

>  <PUBCHEM_CONFORMER_ID>  (1) 
0000A73E00000001

>  <PUBCHEM_MMFF94_ENERGY>  (1) 
40.1815

>  <PUBCHEM_FEATURE_SELFOVERLAP>  (1) 
25.371

>  <PUBCHEM_SHAPE_FINGERPRINT>  (1) 
10465860 228 18338519749957796984
10608611 8 18334575784853717489
10967382 1 18410575093643540044
10980938 120 18409166605994029585
11471102 20 18409164402696957820
12173636 292 17257372376116863132
13134695 92 18335135345787681708
13140716 1 18336825406786512226
13380536 305 18410017671402576124
13922767 16 18410009922907079761
14123255 52 18050007984686775804
14178342 30 18051395560049942194
14251717 144 18411697669050588279
14897335 6 18269833271476241373
15442244 35 18412545383825403209
16945 1 18410570669684761462
18186145 218 18341898485039353597
20606313 2 18410012122041066032
20645477 70 18410011018277006895
20671657 1 18411141380443886525
20871998 22 18125725574040036950
21501502 16 18268143347716047447
21639500 275 18338505426415698069
22094290 62 18411419539716173129
2255824 54 18410856581383716414
22854114 111 18410575106370192897
22892500 29 18334851719079893669
23402539 116 17702937046390083117
23402655 69 18342453716999997069
23558518 356 17755299312004722690
2748010 2 18192440889980566790
3060560 45 18343304743052335166
3071541 12 18338518672295376700
474 4 18337105786515160561
5104073 3 18410013260450149475
7364860 26 18411983598188135060
74978 22 18340207491594854527
7832392 63 18341611572422939196
84936 182 18057039331444664008
9971528 1 18271803484907699936
9981440 41 17691113164675631872
9999458 23 18333734619392254823

>  <PUBCHEM_SHAPE_MULTIPOLES>  (1) 
297.92
7.5
2.82
0.71
8.43
1.85
0.02
1.01
-0.33
-3.39
0.13
0.29
0.05
-0.41

>  <PUBCHEM_SHAPE_SELFOVERLAP>  (1) 
612.183

>  <PUBCHEM_SHAPE_VOLUME>  (1) 
176.5

>  <PUBCHEM_COORDINATE_TYPE>  (1) 
2
5
10

$$$$
