42818
     RDKit          3D

 16 17  0  0  1  0  0  0  0  0999 V2000
    4.8574    0.1960    0.5200 Br  0  0  0  0  0  0  0  0  0  0  0  0
   -4.1972   -0.1599    0.8414 O   0  0  0  0  0  0  0  0  0  0  0  0
   -1.0396   -0.6549   -0.4979 O   0  0  0  0  0  0  0  0  0  0  0  0
   -0.6454    2.4084    0.9329 O   0  0  0  0  0  0  0  0  0  0  0  0
   -0.2995    2.6099   -1.3252 N   0  0  0  0  0  0  0  0  0  0  0  0
   -3.3003   -1.0441    0.1849 C   0  0  0  0  0  0  0  0  0  0  0  0
   -3.9671    0.0554   -0.5570 C   0  0  0  0  0  0  0  0  0  0  0  0
   -1.8684   -0.8647    0.6424 C   0  0  0  0  0  0  0  0  0  0  0  0
    0.2913   -0.4605   -0.2676 C   0  0  0  0  0  0  0  0  0  0  0  0
    1.1573   -1.5535   -0.2331 C   0  0  0  0  0  0  0  0  0  0  0  0
    0.7862    0.8281   -0.0673 C   0  0  0  0  0  0  0  0  0  0  0  0
    2.5183   -1.3579    0.0017 C   0  0  0  0  0  0  0  0  0  0  0  0
    2.1471    1.0237    0.1675 C   0  0  0  0  0  0  0  0  0  0  0  0
    0.6462   -2.9405   -0.4455 C   0  0  0  0  0  0  0  0  0  0  0  0
    3.0133   -0.0692    0.2020 C   0  0  0  0  0  0  0  0  0  0  0  0
   -0.0995    1.9838   -0.0993 C   0  0  0  0  0  0  0  0  0  0  0  0
  1 15  1  0
  2  6  1  0
  2  7  1  0
  3  8  1  0
  3  9  1  0
  4 16  2  0
  5 16  1  0
  6  7  1  0
  6  8  1  0
  9 10  2  0
  9 11  1  0
 10 12  1  0
 10 14  1  0
 11 13  2  0
 11 16  1  0
 12 15  2  0
 13 15  1  0
M  END
>  <PUBCHEM_COMPOUND_CID>  (1) 
42818

>  <PUBCHEM_CONFORMER_RMSD>  (1) 
0.6

>  <PUBCHEM_CONFORMER_DIVERSEORDER>  (1) 
1
40
14
15
37
9
38
7
25
30
39
32
19
27
35
10
21
29
18
33
28
22
31
5
20
36
17
2
34
11
16
23
26
24
8
4
3
12
13
6

>  <PUBCHEM_MMFF94_PARTIAL_CHARGES>  (1) 
23
1 -0.11
10 -0.14
11 0.09
12 -0.15
13 -0.15
14 0.14
15 0.11
16 0.54
17 0.1
18 0.1
19 0.1
2 -0.3
22 0.15
23 0.15
27 0.37
28 0.37
3 -0.36
4 -0.57
5 -0.8
6 -0.05
7 -0.05
8 0.38
9 0.08

>  <PUBCHEM_EFFECTIVE_ROTOR_COUNT>  (1) 
4.6

>  <PUBCHEM_PHARMACOPHORE_FEATURES>  (1) 
6
1 1 hydrophobe
1 2 acceptor
1 3 acceptor
1 4 acceptor
1 5 donor
6 9 10 11 12 13 15 rings

>  <PUBCHEM_HEAVY_ATOM_COUNT>  (1) 
16

>  <PUBCHEM_ATOM_DEF_STEREO_COUNT>  (1) 
0

>  <PUBCHEM_ATOM_UDEF_STEREO_COUNT>  (1) 
1

>  <PUBCHEM_BOND_DEF_STEREO_COUNT>  (1) 
0

>  <PUBCHEM_BOND_UDEF_STEREO_COUNT>  (1) 
0

>  <PUBCHEM_ISOTOPIC_ATOM_COUNT>  (1) 
0

>  <PUBCHEM_COMPONENT_COUNT>  (1) 
1

>  <PUBCHEM_CACTVS_TAUTO_COUNT>  (1) 
2

>  <PUBCHEM_CONFORMER_ID>  (1) 
0000A74200000001

>  <PUBCHEM_MMFF94_ENERGY>  (1) 
54.0087

>  <PUBCHEM_FEATURE_SELFOVERLAP>  (1) 
30.446

>  <PUBCHEM_SHAPE_FINGERPRINT>  (1) 
10219947 1 18411983589181306715
104564 63 18341338777443589653
10967382 1 18411982468263518158
11132069 177 18343578568787145730
11680611 10 17681263365804068266
11680986 33 17836638635338182798
12035759 4 17971786404020059828
124424 183 17968089854696382027
13132413 78 18340769350711147749
13140716 1 18122896788720402634
14251717 144 18341326773273826079
14790565 3 18339088202144470364
15042514 8 18338512058246720618
15848700 24 18411693305215914813
16945 1 18201448007873593678
17357779 13 18338223891251436197
193761 8 17979637831912338838
19784866 170 18410295783098205594
20510252 161 18273211972451774288
20511035 2 17766281251264438782
20671657 1 17975419332040114229
21421861 104 17824821126980288659
21501502 16 18123193398665965970
22182313 1 18197489641791968718
23184049 59 18341331188199272474
23402539 116 18270953639787220206
23558518 356 18045228137110102424
2748010 2 18196927774133350070
3250762 1 17907016171181994046
34934 24 18411974737617816951
350125 39 18340207367853179650
4072396 5 18335966598127164898
53655031 270 18412545414090413592
81228 2 18045519516254997881

>  <PUBCHEM_SHAPE_MULTIPOLES>  (1) 
312.63
6.93
2.59
0.87
0.71
0.27
0.03
-0.67
-1.49
-0.09
0.48
0.23
0.25
0.26

>  <PUBCHEM_SHAPE_SELFOVERLAP>  (1) 
640.381

>  <PUBCHEM_SHAPE_VOLUME>  (1) 
186.1

>  <PUBCHEM_COORDINATE_TYPE>  (1) 
2
5
10

$$$$
