42816
     RDKit          3D

 18 18  0  0  1  0  0  0  0  0999 V2000
    2.4826    3.6467   -0.0126 Br  0  0  0  0  0  0  0  0  0  0  0  0
   -3.6123    1.4700   -1.4188 Cl  0  0  0  0  0  0  0  0  0  0  0  0
   -5.3540   -0.2605    0.1434 Cl  0  0  0  0  0  0  0  0  0  0  0  0
   -3.4460    1.4604    1.4884 Cl  0  0  0  0  0  0  0  0  0  0  0  0
   -2.8820   -1.5313   -1.1537 O   0  0  0  0  0  0  0  0  0  0  0  0
    2.1937   -2.3906    0.0276 O   0  0  0  0  0  0  0  0  0  0  0  0
   -0.2431   -2.0202    0.9108 O   0  0  0  0  0  0  0  0  0  0  0  0
   -1.2906   -0.2111   -0.0989 N   0  0  0  0  0  0  0  0  0  0  0  0
    1.1209   -0.2599    0.1839 C   0  0  0  0  0  0  0  0  0  0  0  0
   -2.6590   -0.7032   -0.0152 C   0  0  0  0  0  0  0  0  0  0  0  0
    2.2567   -1.0275    0.0191 C   0  0  0  0  0  0  0  0  0  0  0  0
    3.4845   -0.3898   -0.1585 C   0  0  0  0  0  0  0  0  0  0  0  0
   -0.1964   -0.9168    0.3740 C   0  0  0  0  0  0  0  0  0  0  0  0
    1.1637    1.1211    0.1779 C   0  0  0  0  0  0  0  0  0  0  0  0
    3.5520    1.0034   -0.1680 C   0  0  0  0  0  0  0  0  0  0  0  0
   -3.6998    0.4317    0.0408 C   0  0  0  0  0  0  0  0  0  0  0  0
    2.3914    1.7589    0.0003 C   0  0  0  0  0  0  0  0  0  0  0  0
    4.7377   -1.1814   -0.3405 C   0  0  0  0  0  0  0  0  0  0  0  0
  1 17  1  0
  2 16  1  0
  3 16  1  0
  4 16  1  0
  5 10  1  0
  6 11  1  0
  7 13  2  0
  8 10  1  0
  8 13  1  0
  9 11  2  0
  9 13  1  0
  9 14  1  0
 10 16  1  0
 11 12  1  0
 12 15  2  0
 12 18  1  0
 14 17  2  0
 15 17  1  0
M  END
>  <PUBCHEM_COMPOUND_CID>  (1) 
42816

>  <PUBCHEM_CONFORMER_RMSD>  (1) 
0.6

>  <PUBCHEM_CONFORMER_DIVERSEORDER>  (1) 
3
10
14
20
24
8
13
15
11
6
7
9
22
17
21
25
19
1
4
18
23
2
26
16
5
12

>  <PUBCHEM_MMFF94_PARTIAL_CHARGES>  (1) 
23
1 -0.11
10 0.58
11 0.08
12 -0.14
13 0.54
14 -0.15
15 -0.15
16 0.87
17 0.11
18 0.14
2 -0.29
20 0.37
21 0.15
22 0.15
26 0.4
27 0.45
3 -0.29
4 -0.29
5 -0.68
6 -0.53
7 -0.57
8 -0.73
9 0.09

>  <PUBCHEM_EFFECTIVE_ROTOR_COUNT>  (1) 
4

>  <PUBCHEM_PHARMACOPHORE_FEATURES>  (1) 
7
1 1 hydrophobe
1 5 acceptor
1 5 donor
1 6 donor
1 7 acceptor
1 8 donor
6 9 11 12 14 15 17 rings

>  <PUBCHEM_HEAVY_ATOM_COUNT>  (1) 
18

>  <PUBCHEM_ATOM_DEF_STEREO_COUNT>  (1) 
0

>  <PUBCHEM_ATOM_UDEF_STEREO_COUNT>  (1) 
1

>  <PUBCHEM_BOND_DEF_STEREO_COUNT>  (1) 
0

>  <PUBCHEM_BOND_UDEF_STEREO_COUNT>  (1) 
0

>  <PUBCHEM_ISOTOPIC_ATOM_COUNT>  (1) 
0

>  <PUBCHEM_COMPONENT_COUNT>  (1) 
1

>  <PUBCHEM_CACTVS_TAUTO_COUNT>  (1) 
7

>  <PUBCHEM_CONFORMER_ID>  (1) 
0000A74000000003

>  <PUBCHEM_MMFF94_ENERGY>  (1) 
40.4007

>  <PUBCHEM_FEATURE_SELFOVERLAP>  (1) 
35.568

>  <PUBCHEM_SHAPE_FINGERPRINT>  (1) 
10366900 7 17531251638792241977
10608611 8 18263080083885353280
10906281 52 18339100224189682002
11471102 20 18410012139426644060
11615757 297 18411982442836417489
116883 192 17910397186944276710
11715629 250 18336819887927713965
12236239 1 17988926652388657723
12403259 415 18113614591025534557
12507557 5 18411132520110860809
12916754 54 18410856594653642689
13081056 2 18334011713876863333
14250199 8 18411698807290755253
15342168 16 18043536220965287069
15442244 35 18270122288331056504
17802600 8 18335136484138787213
18186145 218 18411135835598519442
200 152 17846216631129666170
20612939 158 18408328800083546972
20645477 70 18272656723005676854
20671657 1 18339085989924621964
21267235 1 18342186543879389891
21478907 32 17905891375630580338
21524375 3 18334860536690125515
21634736 98 18342739619671368696
21709351 56 18341043090583490990
221357 26 18337103480481719757
221490 88 18337678636552730978
22289505 5 18263073332207398404
231179 274 18113611261913858637
23402539 116 18059575715975459000
23402655 69 18341895186209071212
23557571 272 13614246953650217043
23558518 356 17610338621172849218
23559900 14 18271804666340399632
25 1 18334294258173927458
2748010 2 17975144437475260890
3060560 45 18272371958316217166
4214541 1 18412545397132200783
474 4 18337390559937077312
5104073 3 18336828692325724483
5281201 14 18410012134762529005
53777708 50 18200313363070516663
58051976 100 18341613745856220055
602551 16 15936990641766857761
633830 44 18336540616100473095
7832392 63 18341895156028333504
84936 182 18057887050962858744
9709674 26 18338237196975872038
9971528 1 18343580729551126632
9981440 41 17620746619632084216

>  <PUBCHEM_SHAPE_MULTIPOLES>  (1) 
359.39
9.69
2.88
0.99
6.1
2.05
0.03
0.46
0.88
-2.76
-0.05
1.07
0.24
-0.08

>  <PUBCHEM_SHAPE_SELFOVERLAP>  (1) 
702.982

>  <PUBCHEM_SHAPE_VOLUME>  (1) 
224.4

>  <PUBCHEM_COORDINATE_TYPE>  (1) 
2
5
10

$$$$
