42810
     RDKit          3D

 11 11  0  0  0  0  0  0  0  0999 V2000
   -3.9340    0.9619   -0.2921 O   0  0  0  0  0  0  0  0  0  0  0  0
   -3.3182   -1.0372    0.5866 O   0  0  0  0  0  0  0  0  0  0  0  0
   -0.6459   -0.6445    0.0097 N   0  0  0  0  0  0  0  0  0  0  0  0
    0.6898   -0.2416   -0.3748 C   0  0  0  0  0  0  0  0  0  0  0  0
    1.0629    1.0584    0.3419 C   0  0  0  0  0  0  0  0  0  0  0  0
    1.6753   -1.3641   -0.0428 C   0  0  0  0  0  0  0  0  0  0  0  0
    2.5028    1.4687    0.0427 C   0  0  0  0  0  0  0  0  0  0  0  0
    3.1149   -0.9514   -0.3397 C   0  0  0  0  0  0  0  0  0  0  0  0
    3.4857    0.3479    0.3698 C   0  0  0  0  0  0  0  0  0  0  0  0
   -1.6105    0.3851   -0.3383 C   0  0  0  0  0  0  0  0  0  0  0  0
   -3.0229    0.0170    0.0371 C   0  0  0  0  0  0  0  0  0  0  0  0
  1 11  1  0
  2 11  2  0
  3  4  1  0
  3 10  1  0
  4  5  1  0
  4  6  1  0
  5  7  1  0
  6  8  1  0
  7  9  1  0
  8  9  1  0
 10 11  1  0
M  END
>  <PUBCHEM_COMPOUND_CID>  (1) 
42810

>  <PUBCHEM_CONFORMER_RMSD>  (1) 
0.6

>  <PUBCHEM_CONFORMER_DIVERSEORDER>  (1) 
1
4
15
6
5
11
2
13
3
12
8
9
10
7
14
16

>  <PUBCHEM_MMFF94_PARTIAL_CHARGES>  (1) 
8
1 -0.65
10 0.33
11 0.66
2 -0.57
23 0.36
26 0.5
3 -0.9
4 0.27

>  <PUBCHEM_EFFECTIVE_ROTOR_COUNT>  (1) 
4.2

>  <PUBCHEM_PHARMACOPHORE_FEATURES>  (1) 
6
1 1 acceptor
1 2 acceptor
1 3 cation
1 3 donor
3 1 2 11 anion
6 4 5 6 7 8 9 rings

>  <PUBCHEM_HEAVY_ATOM_COUNT>  (1) 
11

>  <PUBCHEM_ATOM_DEF_STEREO_COUNT>  (1) 
0

>  <PUBCHEM_ATOM_UDEF_STEREO_COUNT>  (1) 
0

>  <PUBCHEM_BOND_DEF_STEREO_COUNT>  (1) 
0

>  <PUBCHEM_BOND_UDEF_STEREO_COUNT>  (1) 
0

>  <PUBCHEM_ISOTOPIC_ATOM_COUNT>  (1) 
0

>  <PUBCHEM_COMPONENT_COUNT>  (1) 
1

>  <PUBCHEM_CACTVS_TAUTO_COUNT>  (1) 
1

>  <PUBCHEM_CONFORMER_ID>  (1) 
0000A73A00000001

>  <PUBCHEM_MMFF94_ENERGY>  (1) 
5.864

>  <PUBCHEM_FEATURE_SELFOVERLAP>  (1) 
30.504

>  <PUBCHEM_SHAPE_FINGERPRINT>  (1) 
10219947 1 17775567511660973206
10608611 8 18408881849847304421
11062470 55 18411136917925003278
11471102 20 18341608200884278316
12032990 46 18340774758322776142
12932764 1 18412262848018124911
13922767 16 18342170055594704320
14144814 61 18272654527997384793
14325111 11 18410574015379785021
15219456 202 18409167727091289635
15775835 57 18059573645706322252
17844478 74 18260268542437834933
18186145 218 18340212903232405447
190213 19 17704354368143587243
20201158 50 18410012108966422571
20279233 1 18261111872420240643
20606313 2 18341891887864195756
20645477 70 18272366417386321207
20871998 22 17913493441922040334
23402655 69 18272646827221568269
3248919 1 17095248046428492151
57812782 119 18335136501096863441

>  <PUBCHEM_SHAPE_MULTIPOLES>  (1) 
209.66
6.78
1.39
0.68
4.54
0.05
0
0.39
-0.28
-0.66
-0.03
0
-0.01
0.42

>  <PUBCHEM_SHAPE_SELFOVERLAP>  (1) 
407.045

>  <PUBCHEM_SHAPE_VOLUME>  (1) 
125.5

>  <PUBCHEM_COORDINATE_TYPE>  (1) 
2
5
10

$$$$
