42819
     RDKit          3D

 14 14  0  0  0  0  0  0  0  0999 V2000
    2.6165    3.0023   -0.1487 Cl  0  0  0  0  0  0  0  0  0  0  0  0
    0.1873   -2.3414    0.0987 O   0  0  0  0  0  0  0  0  0  0  0  0
   -2.0390   -1.1091   -0.6025 O   0  0  0  0  0  0  0  0  0  0  0  0
   -2.2552    0.9724    0.3963 N   0  0  0  0  0  0  0  0  0  0  0  0
   -0.0602    0.0309   -0.0707 C   0  0  0  0  0  0  0  0  0  0  0  0
    2.1366   -0.9613    0.0937 C   0  0  0  0  0  0  0  0  0  0  0  0
    0.7495   -1.0994    0.0405 C   0  0  0  0  0  0  0  0  0  0  0  0
   -1.5107   -0.0900   -0.1266 C   0  0  0  0  0  0  0  0  0  0  0  0
    0.5172    1.2994   -0.1289 C   0  0  0  0  0  0  0  0  0  0  0  0
    2.7138    0.3073    0.0357 C   0  0  0  0  0  0  0  0  0  0  0  0
   -3.6998    0.9907    0.4349 C   0  0  0  0  0  0  0  0  0  0  0  0
    1.9042    1.4375   -0.0756 C   0  0  0  0  0  0  0  0  0  0  0  0
    3.0207   -2.1588    0.2137 C   0  0  0  0  0  0  0  0  0  0  0  0
   -4.2809   -0.2806   -0.1605 C   0  0  0  0  0  0  0  0  0  0  0  0
  1 12  1  0
  2  7  1  0
  3  8  2  0
  4  8  1  0
  4 11  1  0
  5  7  2  0
  5  8  1  0
  5  9  1  0
  6  7  1  0
  6 10  2  0
  6 13  1  0
  9 12  2  0
 10 12  1  0
 11 14  1  0
M  END
>  <PUBCHEM_COMPOUND_CID>  (1) 
42819

>  <PUBCHEM_CONFORMER_RMSD>  (1) 
0.6

>  <PUBCHEM_CONFORMER_DIVERSEORDER>  (1) 
1
2

>  <PUBCHEM_MMFF94_PARTIAL_CHARGES>  (1) 
17
1 -0.18
10 -0.15
11 0.3
12 0.18
13 0.14
15 0.15
18 0.15
19 0.37
2 -0.53
26 0.45
3 -0.57
4 -0.73
5 0.09
6 -0.14
7 0.08
8 0.54
9 -0.15

>  <PUBCHEM_EFFECTIVE_ROTOR_COUNT>  (1) 
3

>  <PUBCHEM_PHARMACOPHORE_FEATURES>  (1) 
4
1 2 donor
1 3 acceptor
1 4 donor
6 5 6 7 9 10 12 rings

>  <PUBCHEM_HEAVY_ATOM_COUNT>  (1) 
14

>  <PUBCHEM_ATOM_DEF_STEREO_COUNT>  (1) 
0

>  <PUBCHEM_ATOM_UDEF_STEREO_COUNT>  (1) 
0

>  <PUBCHEM_BOND_DEF_STEREO_COUNT>  (1) 
0

>  <PUBCHEM_BOND_UDEF_STEREO_COUNT>  (1) 
0

>  <PUBCHEM_ISOTOPIC_ATOM_COUNT>  (1) 
0

>  <PUBCHEM_COMPONENT_COUNT>  (1) 
1

>  <PUBCHEM_CACTVS_TAUTO_COUNT>  (1) 
7

>  <PUBCHEM_CONFORMER_ID>  (1) 
0000A74300000001

>  <PUBCHEM_MMFF94_ENERGY>  (1) 
42.4921

>  <PUBCHEM_FEATURE_SELFOVERLAP>  (1) 
20.297

>  <PUBCHEM_SHAPE_FINGERPRINT>  (1) 
10219947 1 18337675208941884467
10465860 228 18411705395517633136
10608611 8 18334855004999166501
10967382 1 18410574010942379916
10980938 120 18411139134186416665
11471102 20 18336824204264156493
12032990 46 18194685860812445902
12251169 10 18411978044346749186
12346645 6 18410574002563662892
12932764 1 17458054941949185067
13380535 76 18265329702087663360
13380536 305 18410017636953179966
14144814 61 18341332206438733657
14251717 144 18410007728400383031
14325111 11 18411420631022949209
14897335 6 18340203115081286533
15442244 35 18268431243784897121
15501101 241 18187368683732706581
15536298 74 18272369771908285418
15775835 57 18270686479598968245
16945 1 18337103475880407270
18186145 218 18413392029401333389
193761 8 18193840568552017274
20559304 39 18412827962693169984
20645477 70 18409162191364001815
20671657 1 18410860988104688156
20871998 22 17981890744170279990
21501502 16 18339919436738899791
21524375 3 18198344159383874356
21639500 275 18338221748015360509
221490 88 18335991947061250891
2255824 54 18409731755234710422
22854114 111 18410294730857780193
22959321 4 18410012135242609043
23402655 69 18341045242710395581
23463225 33 18411418375769363015
23552423 10 18411134774931507982
2748010 2 18263934391434909198
3071541 12 18410859897388801172
3071541 37 18261680363039846516
474 4 18263362671127225021
5104073 3 18410295805126781505
54173680 148 17328300247705364410
57096353 35 18128249185264455813
7364860 26 18413389847826965708
77492 1 17989485225717767237
84936 182 18129379457052919016

>  <PUBCHEM_SHAPE_MULTIPOLES>  (1) 
273.26
6.17
2.63
0.65
6.26
0.55
0
0.82
-0.25
-2.92
-0.01
0.08
0.02
-0.47

>  <PUBCHEM_SHAPE_SELFOVERLAP>  (1) 
559.674

>  <PUBCHEM_SHAPE_VOLUME>  (1) 
160.5

>  <PUBCHEM_COORDINATE_TYPE>  (1) 
2
5
10

$$$$
