42827
     RDKit          3D

 25 28  0  0  1  0  0  0  0  0999 V2000
   -0.2514   -0.8650    1.8424 S   0  0  0  0  0  0  0  0  0  0  0  0
    5.1898    1.2510   -1.6580 O   0  0  0  0  0  0  0  0  0  0  0  0
   -1.8330    0.8027   -0.3212 N   0  0  0  0  0  0  0  0  0  0  0  0
   -3.7219    2.9554    0.0747 N   0  0  0  0  0  0  0  0  0  0  0  0
   -1.1888   -0.2316   -1.1283 C   0  0  0  0  0  0  0  0  0  0  0  0
   -1.6053    2.1328   -0.8993 C   0  0  0  0  0  0  0  0  0  0  0  0
   -3.2715    0.5405   -0.1890 C   0  0  0  0  0  0  0  0  0  0  0  0
   -2.2836    3.2182   -0.0566 C   0  0  0  0  0  0  0  0  0  0  0  0
   -3.9486    1.6260    0.6546 C   0  0  0  0  0  0  0  0  0  0  0  0
    0.2918    0.0757   -1.4061 C   0  0  0  0  0  0  0  0  0  0  0  0
   -1.3795   -1.6361   -0.5940 C   0  0  0  0  0  0  0  0  0  0  0  0
    1.3650    0.0498   -0.3334 C   0  0  0  0  0  0  0  0  0  0  0  0
   -0.9592   -2.0211    0.6900 C   0  0  0  0  0  0  0  0  0  0  0  0
   -4.3673    3.9901    0.8801 C   0  0  0  0  0  0  0  0  0  0  0  0
    1.2408   -0.3412    1.0123 C   0  0  0  0  0  0  0  0  0  0  0  0
   -1.9680   -2.6033   -1.4294 C   0  0  0  0  0  0  0  0  0  0  0  0
    2.6439    0.4538   -0.7893 C   0  0  0  0  0  0  0  0  0  0  0  0
   -1.1456   -3.3443    1.1188 C   0  0  0  0  0  0  0  0  0  0  0  0
    2.3770   -0.2979    1.8495 C   0  0  0  0  0  0  0  0  0  0  0  0
   -2.1433   -3.9177   -0.9976 C   0  0  0  0  0  0  0  0  0  0  0  0
    3.7571    0.4838    0.0484 C   0  0  0  0  0  0  0  0  0  0  0  0
   -1.7318   -4.2881    0.2770 C   0  0  0  0  0  0  0  0  0  0  0  0
    3.6223    0.1076    1.3735 C   0  0  0  0  0  0  0  0  0  0  0  0
    5.0458    0.9105   -0.4669 C   0  0  0  0  0  0  0  0  0  0  0  0
    6.2653    0.9483    0.4476 C   0  0  0  0  0  0  0  0  0  0  0  0
  1 13  1  0
  1 15  1  0
  2 24  2  0
  3  5  1  0
  3  6  1  0
  3  7  1  0
  4  8  1  0
  4  9  1  0
  4 14  1  0
  5 10  1  0
  5 11  1  0
  6  8  1  0
  7  9  1  0
 10 12  1  0
 11 13  2  0
 11 16  1  0
 12 15  2  0
 12 17  1  0
 13 18  1  0
 15 19  1  0
 16 20  2  0
 17 21  2  0
 18 22  2  0
 19 23  2  0
 20 22  1  0
 21 23  1  0
 21 24  1  0
 24 25  1  0
M  END
>  <PUBCHEM_COMPOUND_CID>  (1) 
42827

>  <PUBCHEM_CONFORMER_RMSD>  (1) 
0.8

>  <PUBCHEM_CONFORMER_DIVERSEORDER>  (1) 
1
5
6
4
3
2

>  <PUBCHEM_MMFF94_PARTIAL_CHARGES>  (1) 
32
1 -0.2
10 0.14
11 -0.14
12 -0.14
13 0.1
14 0.27
15 0.1
16 -0.15
17 -0.15
18 -0.15
19 -0.15
2 -0.57
20 -0.15
21 0.09
22 -0.15
23 -0.15
24 0.42
25 0.06
3 -0.81
4 -0.81
40 0.15
41 0.15
42 0.15
43 0.15
44 0.15
45 0.15
46 0.15
5 0.41
6 0.27
7 0.27
8 0.27
9 0.27

>  <PUBCHEM_EFFECTIVE_ROTOR_COUNT>  (1) 
3.8

>  <PUBCHEM_PHARMACOPHORE_FEATURES>  (1) 
7
1 2 acceptor
1 3 cation
1 4 cation
6 11 13 16 18 20 22 rings
6 12 15 17 19 21 23 rings
6 3 4 6 7 8 9 rings
7 1 5 10 11 12 13 15 rings

>  <PUBCHEM_HEAVY_ATOM_COUNT>  (1) 
25

>  <PUBCHEM_ATOM_DEF_STEREO_COUNT>  (1) 
0

>  <PUBCHEM_ATOM_UDEF_STEREO_COUNT>  (1) 
1

>  <PUBCHEM_BOND_DEF_STEREO_COUNT>  (1) 
0

>  <PUBCHEM_BOND_UDEF_STEREO_COUNT>  (1) 
0

>  <PUBCHEM_ISOTOPIC_ATOM_COUNT>  (1) 
0

>  <PUBCHEM_COMPONENT_COUNT>  (1) 
1

>  <PUBCHEM_CACTVS_TAUTO_COUNT>  (1) 
2

>  <PUBCHEM_CONFORMER_ID>  (1) 
0000A74B00000001

>  <PUBCHEM_MMFF94_ENERGY>  (1) 
82.5669

>  <PUBCHEM_FEATURE_SELFOVERLAP>  (1) 
35.536

>  <PUBCHEM_SHAPE_FINGERPRINT>  (1) 
10165383 225 18059867134123259161
107951 10 18343026544956297398
1100329 8 18192711361873388493
11049842 53 18268131077675484986
11101153 10 17832146396401068060
11115154 58 17834101319459088479
11578080 2 17914648066253167038
11823591 26 18267012873917285649
12553582 1 17974561700006880474
12714826 92 17916306224266966982
12788726 201 18336816610899705331
13135754 10 17388007310833076402
13140716 1 18122064479492033767
133893 2 17474072460023693703
13583140 156 17845931940034846922
13681431 1 17332511884083057487
13947920 75 18337098081280527991
13955234 65 17618517484661142433
14713325 29 18340487871550460350
14790565 3 18337956666707837388
15163728 17 18127422146198764825
15230672 131 18265342716688812790
15463212 79 18335691732994015248
15842332 3 17968638489745443298
17980427 26 17981598274003108111
1813 80 17623871409855240038
18785283 64 17760365496502627947
20101258 96 18051420852695662209
20600515 1 17470962272251181403
20642791 239 17315895922524412215
21120745 212 18120946263060293765
21304303 172 18198064888216016471
21756936 100 18410288095354964440
23419403 2 17482880763685773183
23557571 272 18200312251064240560
23558518 356 17898863601932243724
23559900 14 17756125036768190382
25147074 1 17896019053945392226
3610482 184 17896340133052753948
3729539 64 17693680125000337230
59755656 520 18339357470338179956
633830 44 18126842690553890013
6442390 28 18341337674122018521
6786 2 18197227957644951003
7364860 26 17548133334298423039
77188 2 17691404539699463775
7808743 9 18411698785948177368
81228 2 18268411607537376119
9981440 41 18264778658026712873

>  <PUBCHEM_SHAPE_MULTIPOLES>  (1) 
502.51
9.24
4.86
1.59
14.5
2.01
-0.21
-8.51
0.09
-9.15
-0.22
0.55
0.4
-1.48

>  <PUBCHEM_SHAPE_SELFOVERLAP>  (1) 
1069.716

>  <PUBCHEM_SHAPE_VOLUME>  (1) 
280

>  <PUBCHEM_COORDINATE_TYPE>  (1) 
2
5
10

$$$$
