42822
     RDKit          3D

 20 22  0  0  1  0  0  0  0  0999 V2000
    1.3975   -1.0862    0.4661 O   0  0  0  0  0  0  0  0  0  0  0  0
    2.6869   -1.3668   -1.4266 O   0  0  0  0  0  0  0  0  0  0  0  0
    0.7178    2.3096   -0.9396 N   0  0  0  0  0  0  0  0  0  0  0  0
   -0.7458    1.7560    0.9896 C   0  0  0  0  0  0  0  0  0  0  0  0
    1.4611    1.2473   -0.2397 C   0  0  0  0  0  0  0  0  0  0  0  0
   -0.6172    0.2207    0.7773 C   0  0  0  0  0  0  0  0  0  0  0  0
    0.6163   -0.0455   -0.1238 C   0  0  0  0  0  0  0  0  0  0  0  0
    0.4423    2.1986    1.8690 C   0  0  0  0  0  0  0  0  0  0  0  0
    1.7555    1.8045    1.1737 C   0  0  0  0  0  0  0  0  0  0  0  0
   -0.6244    2.4986   -0.3618 C   0  0  0  0  0  0  0  0  0  0  0  0
   -1.9256   -0.4160    0.3333 C   0  0  0  0  0  0  0  0  0  0  0  0
    0.6869    2.1539   -2.3863 C   0  0  0  0  0  0  0  0  0  0  0  0
   -2.8235   -0.8903    1.2862 C   0  0  0  0  0  0  0  0  0  0  0  0
   -2.2195   -0.5210   -1.0238 C   0  0  0  0  0  0  0  0  0  0  0  0
    2.5317   -1.4354   -0.2151 C   0  0  0  0  0  0  0  0  0  0  0  0
   -4.0232   -1.4740    0.8793 C   0  0  0  0  0  0  0  0  0  0  0  0
   -3.4194   -1.1046   -1.4307 C   0  0  0  0  0  0  0  0  0  0  0  0
    3.5690   -1.9216    0.7697 C   0  0  0  0  0  0  0  0  0  0  0  0
   -4.3212   -1.5810   -0.4791 C   0  0  0  0  0  0  0  0  0  0  0  0
    4.8549   -2.3467    0.0824 C   0  0  0  0  0  0  0  0  0  0  0  0
  1  7  1  0
  1 15  1  0
  2 15  2  0
  3  5  1  0
  3 10  1  0
  3 12  1  0
  4  6  1  0
  4  8  1  0
  4 10  1  0
  5  7  1  0
  5  9  1  0
  6  7  1  0
  6 11  1  0
  8  9  1  0
 11 13  2  0
 11 14  1  0
 13 16  1  0
 14 17  2  0
 15 18  1  0
 16 19  2  0
 17 19  1  0
 18 20  1  0
M  END
>  <PUBCHEM_COMPOUND_CID>  (1) 
42822

>  <PUBCHEM_CONFORMER_RMSD>  (1) 
0.8

>  <PUBCHEM_CONFORMER_DIVERSEORDER>  (1) 
3
23
39
22
35
34
37
4
25
38
18
32
31
13
33
1
2
26
15
6
5
9
7
11
36
24
21
8
30
16
10
29
20
14
17
12
19
28
27

>  <PUBCHEM_MMFF94_PARTIAL_CHARGES>  (1) 
21
1 -0.43
10 0.27
11 -0.14
12 0.27
13 -0.15
14 -0.15
15 0.66
16 -0.15
17 -0.15
18 0.06
19 -0.15
2 -0.57
3 -0.81
34 0.15
35 0.15
36 0.15
37 0.15
40 0.15
5 0.27
6 0.14
7 0.28

>  <PUBCHEM_EFFECTIVE_ROTOR_COUNT>  (1) 
5.2

>  <PUBCHEM_PHARMACOPHORE_FEATURES>  (1) 
5
1 2 acceptor
1 20 hydrophobe
1 3 cation
6 11 13 14 16 17 19 rings
8 3 4 5 6 7 8 9 10 rings

>  <PUBCHEM_HEAVY_ATOM_COUNT>  (1) 
20

>  <PUBCHEM_ATOM_DEF_STEREO_COUNT>  (1) 
0

>  <PUBCHEM_ATOM_UDEF_STEREO_COUNT>  (1) 
4

>  <PUBCHEM_BOND_DEF_STEREO_COUNT>  (1) 
0

>  <PUBCHEM_BOND_UDEF_STEREO_COUNT>  (1) 
0

>  <PUBCHEM_ISOTOPIC_ATOM_COUNT>  (1) 
0

>  <PUBCHEM_COMPONENT_COUNT>  (1) 
1

>  <PUBCHEM_CACTVS_TAUTO_COUNT>  (1) 
1

>  <PUBCHEM_CONFORMER_ID>  (1) 
0000A74600000003

>  <PUBCHEM_MMFF94_ENERGY>  (1) 
55.666

>  <PUBCHEM_FEATURE_SELFOVERLAP>  (1) 
25.371

>  <PUBCHEM_SHAPE_FINGERPRINT>  (1) 
11101153 10 18187657877962893750
11265709 11 18411423873311905186
11578080 2 18342168960204828241
12363563 72 18410294687787060858
12553582 1 18202012005351201326
13083527 12 18270948124990852098
13134695 92 18342449396099386277
13140716 1 18271248218329317201
13533116 47 18196937893367131891
13544653 18 18341889675961384682
13583140 156 14979663343568592611
13911987 19 17100349858128557284
14181834 199 18269551796425664902
14713325 29 8357381865840542168
14817 1 16306199967705602476
14863182 85 18125723636793170718
15534591 1 9006474109916911208
16945 1 18195522816593996721
17357779 13 18339343189593013086
17980427 23 15482660295740308721
17980427 26 17270295928088628920
1813 80 18341626888165943510
19786989 88 17536035802884296645
20600515 1 18410303492738952050
20671657 53 18186807971446833238
21041028 32 18343308050292898697
21421861 104 17987816205484165137
21452121 199 18335136518329720592
22112679 90 17843717458543261041
2255824 54 17769658929552646609
23114952 82 17459761508470346309
23402539 116 18336829676232502282
23419403 2 18054191467664126312
23526113 38 17749959984544732059
23557571 272 17985262968113298078
23559900 14 18114738356486689619
394222 165 16197611288791753411
404807 14 13917332728943202968
4175511 335 18122626321175328157
46194498 28 17386848503229300335
6049 1 17603867866578835239
7364860 26 17987517189713291595
81228 2 18050577243893771026

>  <PUBCHEM_SHAPE_MULTIPOLES>  (1) 
394.87
6.88
3.12
1.7
0.49
1.09
0.46
-8.44
0.06
-2.14
0.1
0.18
0.89
-0.1

>  <PUBCHEM_SHAPE_SELFOVERLAP>  (1) 
835.58

>  <PUBCHEM_SHAPE_VOLUME>  (1) 
219.7

>  <PUBCHEM_COORDINATE_TYPE>  (1) 
2
5
10

$$$$
