42833
     RDKit          3D

 22 24  0  0  1  0  0  0  0  0999 V2000
   -0.4489   -0.3633   -0.7614 O   0  0  0  0  0  0  0  0  0  0  0  0
   -1.5734    1.3882   -1.7445 O   0  0  0  0  0  0  0  0  0  0  0  0
    1.6982    2.5029    0.0486 N   0  0  0  0  0  0  0  0  0  0  0  0
    0.6596    1.4954    0.2723 C   0  0  0  0  0  0  0  0  0  0  0  0
    0.7978    0.3404   -0.7340 C   0  0  0  0  0  0  0  0  0  0  0  0
    0.7236    0.9546    1.7058 C   0  0  0  0  0  0  0  0  0  0  0  0
    2.0370    0.2256    1.9922 C   0  0  0  0  0  0  0  0  0  0  0  0
    1.9135   -0.6283   -0.4060 C   0  0  0  0  0  0  0  0  0  0  0  0
    2.4650   -0.7065    0.8865 C   0  0  0  0  0  0  0  0  0  0  0  0
    2.3862   -1.4930   -1.4072 C   0  0  0  0  0  0  0  0  0  0  0  0
    3.4873   -1.6336    1.1445 C   0  0  0  0  0  0  0  0  0  0  0  0
    1.5260    3.6235    0.9706 C   0  0  0  0  0  0  0  0  0  0  0  0
    1.6652    2.9675   -1.3365 C   0  0  0  0  0  0  0  0  0  0  0  0
    3.3962   -2.4148   -1.1350 C   0  0  0  0  0  0  0  0  0  0  0  0
    3.9469   -2.4849    0.1407 C   0  0  0  0  0  0  0  0  0  0  0  0
   -1.5452    0.3872   -1.0455 C   0  0  0  0  0  0  0  0  0  0  0  0
   -2.7470   -0.1751   -0.3793 C   0  0  0  0  0  0  0  0  0  0  0  0
   -3.7622    0.6804   -0.0026 C   0  0  0  0  0  0  0  0  0  0  0  0
   -2.8119   -1.5355   -0.1580 C   0  0  0  0  0  0  0  0  0  0  0  0
   -4.8915    0.1523    0.6230 C   0  0  0  0  0  0  0  0  0  0  0  0
   -3.9413   -2.0635    0.4677 C   0  0  0  0  0  0  0  0  0  0  0  0
   -4.9810   -1.2195    0.8581 C   0  0  0  0  0  0  0  0  0  0  0  0
  1  5  1  0
  1 16  1  0
  2 16  2  0
  3  4  1  0
  3 12  1  0
  3 13  1  0
  4  5  1  0
  4  6  1  0
  5  8  1  0
  6  7  1  0
  7  9  1  0
  8  9  2  0
  8 10  1  0
  9 11  1  0
 10 14  2  0
 11 15  2  0
 14 15  1  0
 16 17  1  0
 17 18  2  0
 17 19  1  0
 18 20  1  0
 19 21  2  0
 20 22  2  0
 21 22  1  0
M  END
>  <PUBCHEM_COMPOUND_CID>  (1) 
42833

>  <PUBCHEM_CONFORMER_RMSD>  (1) 
0.8

>  <PUBCHEM_CONFORMER_DIVERSEORDER>  (1) 
1
7
2
3
4
8
9
10
6
5

>  <PUBCHEM_MMFF94_PARTIAL_CHARGES>  (1) 
30
1 -0.43
10 -0.15
11 -0.15
12 0.27
13 0.27
14 -0.15
15 -0.15
16 0.63
17 0.09
18 -0.15
19 -0.15
2 -0.57
20 -0.15
21 -0.15
22 -0.15
29 0.15
3 -0.81
30 0.15
37 0.15
38 0.15
39 0.15
4 0.27
40 0.15
41 0.15
42 0.15
43 0.15
5 0.42
7 0.14
8 -0.14
9 -0.14

>  <PUBCHEM_EFFECTIVE_ROTOR_COUNT>  (1) 
4.8

>  <PUBCHEM_PHARMACOPHORE_FEATURES>  (1) 
5
1 2 acceptor
1 3 cation
6 17 18 19 20 21 22 rings
6 4 5 6 7 8 9 rings
6 8 9 10 11 14 15 rings

>  <PUBCHEM_HEAVY_ATOM_COUNT>  (1) 
22

>  <PUBCHEM_ATOM_DEF_STEREO_COUNT>  (1) 
1

>  <PUBCHEM_ATOM_UDEF_STEREO_COUNT>  (1) 
1

>  <PUBCHEM_BOND_DEF_STEREO_COUNT>  (1) 
0

>  <PUBCHEM_BOND_UDEF_STEREO_COUNT>  (1) 
0

>  <PUBCHEM_ISOTOPIC_ATOM_COUNT>  (1) 
0

>  <PUBCHEM_COMPONENT_COUNT>  (1) 
1

>  <PUBCHEM_CACTVS_TAUTO_COUNT>  (1) 
1

>  <PUBCHEM_CONFORMER_ID>  (1) 
0000A75100000001

>  <PUBCHEM_MMFF94_ENERGY>  (1) 
71.5966

>  <PUBCHEM_FEATURE_SELFOVERLAP>  (1) 
25.392

>  <PUBCHEM_SHAPE_FINGERPRINT>  (1) 
11140007 195 18271808982428954707
11244481 83 18334577992129076734
11405975 8 18411707595421369779
11578080 2 16589124122173968964
11640471 11 14548724136543902807
11725454 13 10665528351861588390
12422481 6 18124842821211951616
12553582 1 17822005385524180811
12592029 89 18264205988688861840
12633257 1 18270695181798354515
12644460 14 18341341096673039177
12707595 3 18335134267650832559
12714826 92 17896598388718752807
12788726 201 18046638806565978570
13134695 92 17561075882715367209
13533116 47 18339081622686829883
13955234 65 18268719487698443497
14289901 80 18058169608560971131
14866123 147 16972529041112921043
14955137 171 18271242833047028096
15238133 3 17273999981510281033
15422964 175 18199470956822779150
15527383 91 17846212224683319482
15842332 3 17488168486833173581
16752209 62 16805867525743866743
16945 1 17201895134067952018
17804303 29 18334581209566198095
17980427 23 13182148796570971099
1813 80 18340492153722063918
18785283 64 18191582158868312944
18981168 100 13325738551443661111
20600515 1 17972859390177760988
20739085 24 18131351895398210178
21033648 29 17202186431450623251
21041028 32 18271524195679589488
23557571 272 18195518187373092788
23559900 14 18341897398586733479
31174 14 18337104669939532797
314173 41 18337395945873733942
458136 41 18120944068152832684
5104073 3 18339375166605805187
5902787 121 18335416842218298638
6049 1 18113888369336357541
6442390 28 17547858911025308432
6669772 16 12613330810370496422
6786 2 17539991875801981044
7097593 13 18201148957748412959
7364860 26 18340206409463627516
81228 2 17766550253841095532
8509985 295 17489873717830514587
9841814 1 18333447647047212034

>  <PUBCHEM_SHAPE_MULTIPOLES>  (1) 
436.03
8.44
3.34
1.59
9.78
2.24
-0.15
-6.16
-1.66
-3.28
0.17
-0.88
0.32
0.75

>  <PUBCHEM_SHAPE_SELFOVERLAP>  (1) 
940.082

>  <PUBCHEM_SHAPE_VOLUME>  (1) 
239.2

>  <PUBCHEM_COORDINATE_TYPE>  (1) 
2
5
10

$$$$
