42838
     RDKit          3D

 16 18  0  0  0  0  0  0  0  0999 V2000
   -2.0677   -3.0912   -0.0004 Cl  0  0  0  0  0  0  0  0  0  0  0  0
    3.5215   -2.1170    0.0004 Cl  0  0  0  0  0  0  0  0  0  0  0  0
   -4.4066    1.7844    0.0008 Cl  0  0  0  0  0  0  0  0  0  0  0  0
    0.5057   -1.3363    0.0003 O   0  0  0  0  0  0  0  0  0  0  0  0
   -0.5647    0.6557   -0.0002 C   0  0  0  0  0  0  0  0  0  0  0  0
    0.8398    0.9003   -0.0001 C   0  0  0  0  0  0  0  0  0  0  0  0
   -0.7128   -0.7278    0.0000 C   0  0  0  0  0  0  0  0  0  0  0  0
    1.4469   -0.3516    0.0000 C   0  0  0  0  0  0  0  0  0  0  0  0
   -1.7245    1.4525   -0.0003 C   0  0  0  0  0  0  0  0  0  0  0  0
    1.6619    2.0423   -0.0001 C   0  0  0  0  0  0  0  0  0  0  0  0
   -1.9435   -1.3823    0.0002 C   0  0  0  0  0  0  0  0  0  0  0  0
    2.8262   -0.5516   -0.0001 C   0  0  0  0  0  0  0  0  0  0  0  0
   -2.9764    0.8227   -0.0005 C   0  0  0  0  0  0  0  0  0  0  0  0
   -3.0812   -0.5702   -0.0001 C   0  0  0  0  0  0  0  0  0  0  0  0
    3.0529    1.8726    0.0001 C   0  0  0  0  0  0  0  0  0  0  0  0
    3.6225    0.5974   -0.0001 C   0  0  0  0  0  0  0  0  0  0  0  0
  1 11  1  0
  2 12  1  0
  3 13  1  0
  4  7  1  0
  4  8  1  0
  5  6  1  0
  5  7  2  0
  5  9  1  0
  6  8  2  0
  6 10  1  0
  7 11  1  0
  8 12  1  0
  9 13  2  0
 10 15  2  0
 11 14  2  0
 12 16  2  0
 13 14  1  0
 15 16  1  0
M  END
>  <PUBCHEM_COMPOUND_CID>  (1) 
42838

>  <PUBCHEM_CONFORMER_RMSD>  (1) 
0.4

>  <PUBCHEM_CONFORMER_DIVERSEORDER>  (1) 
1

>  <PUBCHEM_MMFF94_PARTIAL_CHARGES>  (1) 
19
1 -0.18
10 -0.15
11 0.18
12 0.18
13 0.18
14 -0.15
15 -0.15
16 -0.15
17 0.15
18 0.15
19 0.15
2 -0.18
20 0.15
21 0.15
3 -0.18
4 -0.28
7 0.14
8 0.14
9 -0.15

>  <PUBCHEM_EFFECTIVE_ROTOR_COUNT>  (1) 
0

>  <PUBCHEM_PHARMACOPHORE_FEATURES>  (1) 
4
1 4 acceptor
5 4 5 6 7 8 rings
6 5 7 9 11 13 14 rings
6 6 8 10 12 15 16 rings

>  <PUBCHEM_HEAVY_ATOM_COUNT>  (1) 
16

>  <PUBCHEM_ATOM_DEF_STEREO_COUNT>  (1) 
0

>  <PUBCHEM_ATOM_UDEF_STEREO_COUNT>  (1) 
0

>  <PUBCHEM_BOND_DEF_STEREO_COUNT>  (1) 
0

>  <PUBCHEM_BOND_UDEF_STEREO_COUNT>  (1) 
0

>  <PUBCHEM_ISOTOPIC_ATOM_COUNT>  (1) 
0

>  <PUBCHEM_COMPONENT_COUNT>  (1) 
1

>  <PUBCHEM_CACTVS_TAUTO_COUNT>  (1) 
1

>  <PUBCHEM_CONFORMER_ID>  (1) 
0000A75600000001

>  <PUBCHEM_MMFF94_ENERGY>  (1) 
29.8195

>  <PUBCHEM_FEATURE_SELFOVERLAP>  (1) 
20.499

>  <PUBCHEM_SHAPE_FINGERPRINT>  (1) 
10411042 1 16681473985936401223
10608611 8 18339358668565736688
10616163 171 18267869556589082982
10967382 1 18410855417257629604
11132069 177 18410568496352324912
11471102 20 18338794516021329684
11578080 2 16986577909423993859
12251169 10 18409727344260969544
12500047 106 18411414033668417401
12507560 14 18124025733152519778
12553582 1 17691683811005056311
13140716 1 18410006633088829306
13380535 21 18410018770539741916
13380535 76 18341894061159748239
13571099 22 18343302526875343236
14144814 61 18410574002473849208
14178342 30 18265600160489129832
14325111 11 18410574015242933760
15099037 51 18266459806493318719
15196674 1 18410856555392340517
15219456 202 18411139147023624873
15309172 13 18338806602628779113
15375462 6 18195246852202498238
15420108 30 15539833443889951504
15442244 35 18411136892466461922
15536298 74 18342457037035882528
16945 1 18410575063198791942
17492 89 18410572933006828842
17804303 29 18338522945455299558
18186145 218 18261669285796820749
19591789 44 17905892470113582615
200 152 17917421021762198069
20510252 161 18054231204521869889
20645477 70 18341611473406836414
21267235 1 18338243750916552706
21501502 16 18410290358528065502
21524375 3 18262238799087835697
221490 88 18337399348009922466
2334 1 18266741466063776706
23366157 5 18113335345421362004
23402539 116 18200301109692260685
23463225 33 18410011014113531524
23557571 272 18200043974073650900
23558518 356 18043249256566282122
23559900 14 18343017771044654970
2748010 2 18339081604530533908
3312278 4 18341335607815546256
335352 9 18266740181868588126
34934 24 18411131429526491746
495365 180 17560784533788249536
5104073 3 18410575084736952409
69090 78 18410852149235929781
7364860 26 18341894100114984722
74978 22 18410856563961176106
7832392 63 18410854382323719484
81228 2 18043808917112850755
8809292 202 18408046195097946674
9709674 26 18413110592900298694

>  <PUBCHEM_SHAPE_MULTIPOLES>  (1) 
329.01
6.97
2.83
0.62
0.65
1.4
0
-1.33
0
0.5
0
0.01
0
0

>  <PUBCHEM_SHAPE_SELFOVERLAP>  (1) 
714.187

>  <PUBCHEM_SHAPE_VOLUME>  (1) 
184.1

>  <PUBCHEM_COORDINATE_TYPE>  (1) 
2
5
10

$$$$
