42836
     RDKit          3D

 19 21  0  0  0  0  0  0  0  0999 V2000
   -2.5342   -2.9077   -0.0021 Cl  0  0  0  0  0  0  0  0  0  0  0  0
   -2.2220    3.3426   -0.0015 Cl  0  0  0  0  0  0  0  0  0  0  0  0
   -5.1953   -1.1084    0.0018 Cl  0  0  0  0  0  0  0  0  0  0  0  0
    4.9253   -1.8363   -0.0007 Cl  0  0  0  0  0  0  0  0  0  0  0  0
    5.1190    1.3921    0.0010 Cl  0  0  0  0  0  0  0  0  0  0  0  0
   -0.0922   -1.3444    0.0001 O   0  0  0  0  0  0  0  0  0  0  0  0
    0.0788    1.5042   -0.0002 O   0  0  0  0  0  0  0  0  0  0  0  0
   -1.2080   -0.5463    0.0001 C   0  0  0  0  0  0  0  0  0  0  0  0
   -1.1245    0.8452    0.0000 C   0  0  0  0  0  0  0  0  0  0  0  0
    1.1111   -0.6856    0.0002 C   0  0  0  0  0  0  0  0  0  0  0  0
    1.1947    0.7061   -0.0001 C   0  0  0  0  0  0  0  0  0  0  0  0
   -2.4530   -1.1743    0.0002 C   0  0  0  0  0  0  0  0  0  0  0  0
   -2.2853    1.6176    0.0001 C   0  0  0  0  0  0  0  0  0  0  0  0
    2.2721   -1.4579    0.0004 C   0  0  0  0  0  0  0  0  0  0  0  0
    2.4398    1.3339   -0.0002 C   0  0  0  0  0  0  0  0  0  0  0  0
   -3.6154   -0.4028    0.0003 C   0  0  0  0  0  0  0  0  0  0  0  0
   -3.5317    0.9908    0.0003 C   0  0  0  0  0  0  0  0  0  0  0  0
    3.5186   -0.8311    0.0004 C   0  0  0  0  0  0  0  0  0  0  0  0
    3.6022    0.5624    0.0000 C   0  0  0  0  0  0  0  0  0  0  0  0
  1 12  1  0
  2 13  1  0
  3 16  1  0
  4 18  1  0
  5 19  1  0
  6  8  1  0
  6 10  1  0
  7  9  1  0
  7 11  1  0
  8  9  2  0
  8 12  1  0
  9 13  1  0
 10 11  2  0
 10 14  1  0
 11 15  1  0
 12 16  2  0
 13 17  2  0
 14 18  2  0
 15 19  2  0
 16 17  1  0
 18 19  1  0
M  END
>  <PUBCHEM_COMPOUND_CID>  (1) 
42836

>  <PUBCHEM_CONFORMER_RMSD>  (1) 
0.6

>  <PUBCHEM_CONFORMER_DIVERSEORDER>  (1) 
1

>  <PUBCHEM_MMFF94_PARTIAL_CHARGES>  (1) 
22
1 -0.18
10 0.08
11 0.08
12 0.18
13 0.18
14 -0.15
15 -0.15
16 0.18
17 -0.15
18 0.18
19 0.18
2 -0.18
20 0.15
21 0.15
22 0.15
3 -0.18
4 -0.18
5 -0.18
6 -0.17
7 -0.17
8 0.08
9 0.08

>  <PUBCHEM_EFFECTIVE_ROTOR_COUNT>  (1) 
0.4

>  <PUBCHEM_PHARMACOPHORE_FEATURES>  (1) 
5
1 6 acceptor
1 7 acceptor
6 10 11 14 15 18 19 rings
6 6 7 8 9 10 11 rings
6 8 9 12 13 16 17 rings

>  <PUBCHEM_HEAVY_ATOM_COUNT>  (1) 
19

>  <PUBCHEM_ATOM_DEF_STEREO_COUNT>  (1) 
0

>  <PUBCHEM_ATOM_UDEF_STEREO_COUNT>  (1) 
0

>  <PUBCHEM_BOND_DEF_STEREO_COUNT>  (1) 
0

>  <PUBCHEM_BOND_UDEF_STEREO_COUNT>  (1) 
0

>  <PUBCHEM_ISOTOPIC_ATOM_COUNT>  (1) 
0

>  <PUBCHEM_COMPONENT_COUNT>  (1) 
1

>  <PUBCHEM_CACTVS_TAUTO_COUNT>  (1) 
1

>  <PUBCHEM_CONFORMER_ID>  (1) 
0000A75400000001

>  <PUBCHEM_MMFF94_ENERGY>  (1) 
51.6497

>  <PUBCHEM_FEATURE_SELFOVERLAP>  (1) 
25.449

>  <PUBCHEM_SHAPE_FINGERPRINT>  (1) 
10319926 262 18268971130602729306
10411042 1 17906172102882431635
10608611 8 18412260606203646608
10616163 171 18339927124883509446
10967382 1 18338799034695891237
1100329 8 17400077474768339795
12107183 9 17759516669404889890
12173636 292 18338232640152734477
12390115 104 18129117640341994961
12403259 226 18412820283154871505
12553582 1 18339632460288709123
13140716 1 18122628520256495641
13167823 11 18335419032999779250
138480 1 15672385021369975149
13862211 1 18412260666839746903
14341114 176 18408891745393750202
14790565 3 18052825737169155753
15042514 8 18409733989045297155
15196674 1 18410855442964188324
15442244 35 18337389319102738442
15536298 74 18413107251984902178
16945 1 18410856568593844449
17492 89 18338798914263539218
17804303 29 18413110532738659580
1813 80 17240202140401316900
18186145 218 17822006493578068990
19141452 34 18272374230496360583
19591789 44 18337954463410219882
200 152 18202560692092129071
20510252 161 18342739581359489801
20645477 70 18341896269015973374
21029758 11 18340762732825810389
21065198 57 18411136892782972978
21267235 1 18410582764181135922
21501502 16 18410013195793608432
21652331 79 18410856581130586721
221490 88 18337116764878733098
23402539 116 18343857828030087439
23557571 272 18201447981834972676
23559900 14 18341609292364978218
245318 6 16738064169949203188
2748010 2 17980191208547122689
2871803 45 18334008397866731067
335352 9 18266458711202630044
34934 24 18410005580827330523
350125 39 18411421682852372729
3545911 37 18410856598769274924
4214541 1 18338516335616811808
474 4 17386576885387266996
5104073 3 18411418380307073744
559249 180 18118398445816848434
58051976 378 18411420652476751956
633830 44 16950574250896052788
69090 78 18413105061309228503
77779 3 18410857638114450252
8809292 202 18335142015851163651
9709674 26 18341336612927915150
9981440 41 17323805938219615952

>  <PUBCHEM_SHAPE_MULTIPOLES>  (1) 
388.62
9.91
2.92
0.62
4.86
0.7
0
-1.93
0
-1.54
0
0
0
0

>  <PUBCHEM_SHAPE_SELFOVERLAP>  (1) 
820.377

>  <PUBCHEM_SHAPE_VOLUME>  (1) 
222.3

>  <PUBCHEM_COORDINATE_TYPE>  (1) 
2
5
10

$$$$
