42835
     RDKit          3D

 37 41  0  0  1  0  0  0  0  0999 V2000
   -4.2912   -0.0011   -2.0344 S   0  0  0  0  0  0  0  0  0  0  0  0
   -3.0625   -1.6356    1.8665 O   0  0  0  0  0  0  0  0  0  0  0  0
   -7.6081   -0.3077    1.3414 O   0  0  0  0  0  0  0  0  0  0  0  0
   -6.7537   -2.4160    1.1947 O   0  0  0  0  0  0  0  0  0  0  0  0
   -0.1316   -1.2927    0.8047 O   0  0  0  0  0  0  0  0  0  0  0  0
    2.4930    1.7069   -2.1321 O   0  0  0  0  0  0  0  0  0  0  0  0
    3.4722   -1.6072    0.0846 O   0  0  0  0  0  0  0  0  0  0  0  0
   -4.5312   -1.5655    0.0204 N   0  0  0  0  0  0  0  0  0  0  0  0
   -1.6413   -0.7266   -0.8633 N   0  0  0  0  0  0  0  0  0  0  0  0
    1.7079    0.4176   -0.3552 N   0  0  0  0  0  0  0  0  0  0  0  0
    6.3731    1.0818   -0.7845 N   0  0  0  0  0  0  0  0  0  0  0  0
    6.0185   -2.2748    0.7013 N   0  0  0  0  0  0  0  0  0  0  0  0
   -3.9382   -1.6475   -1.3177 C   0  0  0  0  0  0  0  0  0  0  0  0
   -5.8717    0.1283   -1.0571 C   0  0  0  0  0  0  0  0  0  0  0  0
   -5.5251   -0.5459    0.2879 C   0  0  0  0  0  0  0  0  0  0  0  0
   -2.5762   -1.8254   -0.6325 C   0  0  0  0  0  0  0  0  0  0  0  0
   -3.3533   -1.7122    0.6943 C   0  0  0  0  0  0  0  0  0  0  0  0
   -6.9788   -0.5741   -1.8549 C   0  0  0  0  0  0  0  0  0  0  0  0
   -6.2194    1.6058   -0.8669 C   0  0  0  0  0  0  0  0  0  0  0  0
   -6.6685   -1.2158    0.9808 C   0  0  0  0  0  0  0  0  0  0  0  0
   -0.4775   -0.5498   -0.1120 C   0  0  0  0  0  0  0  0  0  0  0  0
    0.3016    0.6962   -0.5135 C   0  0  0  0  0  0  0  0  0  0  0  0
   -0.1264    1.9069    0.2824 C   0  0  0  0  0  0  0  0  0  0  0  0
   -1.1545    2.7034   -0.1950 C   0  0  0  0  0  0  0  0  0  0  0  0
    0.5168    2.1970    1.4746 C   0  0  0  0  0  0  0  0  0  0  0  0
    2.6767    0.9519   -1.1836 C   0  0  0  0  0  0  0  0  0  0  0  0
   -1.5500    3.8212    0.5397 C   0  0  0  0  0  0  0  0  0  0  0  0
    0.1212    3.3148    2.2094 C   0  0  0  0  0  0  0  0  0  0  0  0
    4.0390    0.5218   -0.8187 C   0  0  0  0  0  0  0  0  0  0  0  0
   -0.9122    4.1268    1.7419 C   0  0  0  0  0  0  0  0  0  0  0  0
    4.3464   -0.7923   -0.1807 C   0  0  0  0  0  0  0  0  0  0  0  0
    5.0617    1.3512   -1.0701 C   0  0  0  0  0  0  0  0  0  0  0  0
    5.7693   -1.0783    0.1253 C   0  0  0  0  0  0  0  0  0  0  0  0
    6.7397   -0.1245   -0.1892 C   0  0  0  0  0  0  0  0  0  0  0  0
    8.0604   -0.4398    0.1180 C   0  0  0  0  0  0  0  0  0  0  0  0
    8.3594   -1.6631    0.7127 C   0  0  0  0  0  0  0  0  0  0  0  0
    7.3146   -2.5354    0.9808 C   0  0  0  0  0  0  0  0  0  0  0  0
  1 13  1  0
  1 14  1  0
  2 17  2  0
  3 20  1  0
  4 20  2  0
  5 21  2  0
  6 26  2  0
  7 31  2  0
  8 13  1  0
  8 15  1  0
  8 17  1  0
  9 16  1  0
  9 21  1  0
 10 22  1  0
 10 26  1  0
 11 32  1  0
 11 34  1  0
 12 33  1  0
 12 37  2  0
 13 16  1  0
 14 15  1  0
 14 18  1  0
 14 19  1  0
 15 20  1  0
 16 17  1  0
 21 22  1  0
 22 23  1  0
 23 24  2  0
 23 25  1  0
 24 27  1  0
 25 28  2  0
 26 29  1  0
 27 30  2  0
 28 30  1  0
 29 31  1  0
 29 32  2  0
 31 33  1  0
 33 34  2  0
 34 35  1  0
 35 36  2  0
 36 37  1  0
M  END
>  <PUBCHEM_COMPOUND_CID>  (1) 
42835

>  <PUBCHEM_CONFORMER_RMSD>  (1) 
1

>  <PUBCHEM_CONFORMER_DIVERSEORDER>  (1) 
1
122
126
101
16
65
38
21
111
127
117
6
95
110
66
18
50
106
17
86
48
128
15
31
99
47
10
59
98
109
25
7
92
91
22
44
143
28
131
26
27
97
49
19
115
88
118
3
87
20
70
61
78
105
11
77
12
52
119
64
42
41
113
103
140
58
74
121
39
72
82
116
112
85
139
54
107
2
51
137
133
81
68
55
63
30
37
24
32
134
90
9
135
75
5
138
79
71
34
100
33
129
73
125
46
104
130
13
8
4
120
53
45
56
76
94
84
36
67
43
142
40
96
35
83
89
57
114
14
60
93
124
108
132
136
141
29
102
23
69
123
62
80

>  <PUBCHEM_MMFF94_PARTIAL_CHARGES>  (1) 
48
1 -0.45
10 -0.73
11 -0.6
12 -0.62
13 0.44
14 0.23
15 0.36
16 0.28
17 0.58
2 -0.57
20 0.66
21 0.57
22 0.5
23 -0.14
24 -0.15
25 -0.15
26 0.62
27 -0.15
28 -0.15
29 0.03
3 -0.65
30 -0.15
31 0.47
32 -0.05
33 0.4
34 0.1
35 -0.15
36 -0.15
37 0.16
4 -0.57
47 0.37
49 0.5
5 -0.57
50 0.37
51 0.15
52 0.15
53 0.15
54 0.15
55 0.15
56 0.15
57 0.4
58 0.15
59 0.15
6 -0.57
60 0.15
7 -0.57
8 -0.59
9 -0.65

>  <PUBCHEM_EFFECTIVE_ROTOR_COUNT>  (1) 
8.8

>  <PUBCHEM_PHARMACOPHORE_FEATURES>  (1) 
18
1 10 donor
1 11 cation
1 11 donor
1 12 acceptor
1 2 acceptor
1 29 anion
1 3 acceptor
1 4 acceptor
1 5 acceptor
1 6 acceptor
1 7 acceptor
1 9 donor
3 14 18 19 hydrophobe
3 3 4 20 anion
6 11 29 31 32 33 34 rings
6 12 33 34 35 36 37 rings
6 23 24 25 27 28 30 rings
7 1 8 13 14 15 16 17 rings

>  <PUBCHEM_HEAVY_ATOM_COUNT>  (1) 
37

>  <PUBCHEM_ATOM_DEF_STEREO_COUNT>  (1) 
4

>  <PUBCHEM_ATOM_UDEF_STEREO_COUNT>  (1) 
0

>  <PUBCHEM_BOND_DEF_STEREO_COUNT>  (1) 
0

>  <PUBCHEM_BOND_UDEF_STEREO_COUNT>  (1) 
0

>  <PUBCHEM_ISOTOPIC_ATOM_COUNT>  (1) 
0

>  <PUBCHEM_COMPONENT_COUNT>  (1) 
1

>  <PUBCHEM_CACTVS_TAUTO_COUNT>  (1) 
14

>  <PUBCHEM_CONFORMER_ID>  (1) 
0000A75300000001

>  <PUBCHEM_MMFF94_ENERGY>  (1) 
112.4632

>  <PUBCHEM_FEATURE_SELFOVERLAP>  (1) 
91.442

>  <PUBCHEM_SHAPE_FINGERPRINT>  (1) 
11297750 10 18272076210757727744
11456790 92 18339096955877774307
11720765 8 18337106890238100301
12166972 35 18186521025336078044
12516196 113 18202001066206161094
12760667 363 18413385428041757294
12788726 201 18340481162668762242
13782708 43 18043537316414309267
14068700 675 18412820292345985084
14118638 360 18411702051046150490
14279260 333 18336544915500055235
14394314 77 18271804696157055684
15131766 46 15265058247674492218
15183329 4 17531237361888459198
15357212 105 12326172324633033679
15721738 202 18408881824857891642
16992727 255 18263922142700787317
19301679 30 18271255919390704102
19841028 212 17604139317535096258
20642791 105 18339644430194420652
21033650 10 14924213869222067318
21365058 27 12468637210069109593
21639891 77 18130220459200396280
21792961 116 18260542308270087111
21814621 53 17313387876066444337
23559900 14 18261667194343283756
4073 2 17096092506093123530
4098825 35 17603305985497095670
4258327 124 9943512060198618074
42626532 9 17678471963912089529
439807 62 18408604760042719968
5080951 261 17916579830673979769
5171179 24 17774144812419303417
5219985 9 18201998845586944640
57527293 21 16916770930289858828
58083652 198 18202275940150927921
6009941 240 17822010896098707103
6086070 43 18199454619595178303
6703917 75 12035734158643220725

>  <PUBCHEM_SHAPE_MULTIPOLES>  (1) 
705.17
22.9
3.67
1.73
17.1
3.94
-0.02
-16.55
0.66
-0.82
2.1
-1.69
0.47
-1.04

>  <PUBCHEM_SHAPE_SELFOVERLAP>  (1) 
1532.442

>  <PUBCHEM_SHAPE_VOLUME>  (1) 
385.8

>  <PUBCHEM_COORDINATE_TYPE>  (1) 
2
5
10

$$$$
