42840
     RDKit          3D

 18 20  0  0  0  0  0  0  0  0999 V2000
    0.8812    3.2285    0.0000 Cl  0  0  0  0  0  0  0  0  0  0  0  0
    3.1497   -2.6116   -0.0006 Cl  0  0  0  0  0  0  0  0  0  0  0  0
    5.1470   -0.0517   -0.0005 Cl  0  0  0  0  0  0  0  0  0  0  0  0
   -4.5120    1.7173   -0.0021 Cl  0  0  0  0  0  0  0  0  0  0  0  0
   -4.8939   -1.4829   -0.0001 Cl  0  0  0  0  0  0  0  0  0  0  0  0
    0.2265   -1.6717    0.0001 O   0  0  0  0  0  0  0  0  0  0  0  0
    0.6572    0.5483    0.0003 C   0  0  0  0  0  0  0  0  0  0  0  0
   -0.7565    0.3648    0.0004 C   0  0  0  0  0  0  0  0  0  0  0  0
    1.2094   -0.7288    0.0000 C   0  0  0  0  0  0  0  0  0  0  0  0
   -0.9645   -1.0110    0.0002 C   0  0  0  0  0  0  0  0  0  0  0  0
    1.5281    1.6536    0.0005 C   0  0  0  0  0  0  0  0  0  0  0  0
   -1.8807    1.2112    0.0007 C   0  0  0  0  0  0  0  0  0  0  0  0
    2.5788   -0.9884   -0.0004 C   0  0  0  0  0  0  0  0  0  0  0  0
   -2.2224   -1.6115    0.0004 C   0  0  0  0  0  0  0  0  0  0  0  0
    2.9104    1.4237    0.0004 C   0  0  0  0  0  0  0  0  0  0  0  0
    3.4242    0.1250   -0.0003 C   0  0  0  0  0  0  0  0  0  0  0  0
   -3.1587    0.6362    0.0005 C   0  0  0  0  0  0  0  0  0  0  0  0
   -3.3238   -0.7508    0.0005 C   0  0  0  0  0  0  0  0  0  0  0  0
  1 11  1  0
  2 13  1  0
  3 16  1  0
  4 17  1  0
  5 18  1  0
  6  9  1  0
  6 10  1  0
  7  8  1  0
  7  9  2  0
  7 11  1  0
  8 10  2  0
  8 12  1  0
  9 13  1  0
 10 14  1  0
 11 15  2  0
 12 17  2  0
 13 16  2  0
 14 18  2  0
 15 16  1  0
 17 18  1  0
M  END
>  <PUBCHEM_COMPOUND_CID>  (1) 
42840

>  <PUBCHEM_CONFORMER_RMSD>  (1) 
0.4

>  <PUBCHEM_CONFORMER_DIVERSEORDER>  (1) 
1

>  <PUBCHEM_MMFF94_PARTIAL_CHARGES>  (1) 
19
1 -0.18
10 0.14
11 0.18
12 -0.15
13 0.18
14 -0.15
15 -0.15
16 0.18
17 0.18
18 0.18
19 0.15
2 -0.18
20 0.15
21 0.15
3 -0.18
4 -0.18
5 -0.18
6 -0.28
9 0.14

>  <PUBCHEM_EFFECTIVE_ROTOR_COUNT>  (1) 
0

>  <PUBCHEM_PHARMACOPHORE_FEATURES>  (1) 
4
1 6 acceptor
5 6 7 8 9 10 rings
6 7 9 11 13 15 16 rings
6 8 10 12 14 17 18 rings

>  <PUBCHEM_HEAVY_ATOM_COUNT>  (1) 
18

>  <PUBCHEM_ATOM_DEF_STEREO_COUNT>  (1) 
0

>  <PUBCHEM_ATOM_UDEF_STEREO_COUNT>  (1) 
0

>  <PUBCHEM_BOND_DEF_STEREO_COUNT>  (1) 
0

>  <PUBCHEM_BOND_UDEF_STEREO_COUNT>  (1) 
0

>  <PUBCHEM_ISOTOPIC_ATOM_COUNT>  (1) 
0

>  <PUBCHEM_COMPONENT_COUNT>  (1) 
1

>  <PUBCHEM_CACTVS_TAUTO_COUNT>  (1) 
1

>  <PUBCHEM_CONFORMER_ID>  (1) 
0000A75800000001

>  <PUBCHEM_MMFF94_ENERGY>  (1) 
37.0853

>  <PUBCHEM_FEATURE_SELFOVERLAP>  (1) 
20.499

>  <PUBCHEM_SHAPE_FINGERPRINT>  (1) 
10062212 137 18343293756668273383
10608611 8 18410008875188507365
10616163 171 18341051925247381143
10967382 1 18410575127691918630
11471102 20 18338232790207167902
116883 192 17982174422559749918
11806522 49 18408885161135097399
12403259 226 18408879663983354885
13140716 1 18267018349889467730
138480 1 18338517550866300908
13862211 1 18410007741628397122
14178342 30 18053362560587894186
14790565 3 17763189042231563201
14866123 147 17260755040465832314
15042514 8 17328298048967510826
15196674 1 18410573972266562246
15442244 35 18339643326123321539
15536298 74 18342457015397717090
1601671 61 18410857642409651468
16945 1 18266458895997129542
17492 89 18412262839756030303
17802600 8 18337387240201430093
17804303 29 18409732884526285733
18186145 218 17894628119706069495
200 152 18131348631001551391
20559304 39 18338236067409769368
20645477 70 18341894039416406294
21267235 1 18411145761284122038
21421861 104 17824536371239271090
21501502 16 18410856572872825135
221490 88 18264213667536245827
2255824 54 18192433185015180516
2334 1 18410855451786296462
23402539 116 18343576330866422676
23402655 69 18341609291811272333
23463225 33 18410293584201485582
23559900 14 18341610352911144618
2748010 2 18411696548158822798
3286 77 18335136552699982725
335352 9 18194401091663995135
34934 24 18411694366516071734
350125 39 18338239366282438201
3545911 37 18411982442741471809
4214541 1 18410573981347107233
5104073 3 18410855430311545379
7364860 26 18268429220992652064
77779 3 18410294705256541059
7832392 63 18412541028739049588
8809292 202 18115873064685641371
9709674 26 18410016567464690307
9981440 41 17256239874586979808

>  <PUBCHEM_SHAPE_MULTIPOLES>  (1) 
373.91
8.93
2.78
0.62
2.3
0.86
0
-1.58
0
-0.46
0
0
0.01
0

>  <PUBCHEM_SHAPE_SELFOVERLAP>  (1) 
793.734

>  <PUBCHEM_SHAPE_VOLUME>  (1) 
215.6

>  <PUBCHEM_COORDINATE_TYPE>  (1) 
2
5
10

$$$$
