42853
     RDKit          3D

 10 10  0  0  0  0  0  0  0  0999 V2000
   -0.1727   -1.2582   -0.0284 S   0  0  0  0  0  0  0  0  0  0  0  0
    2.6651   -0.3241    1.0828 O   0  0  0  0  0  0  0  0  0  0  0  0
    2.6426   -0.3276   -1.1195 O   0  0  0  0  0  0  0  0  0  0  0  0
   -1.1696    1.3394    0.0199 N   0  0  0  0  0  0  0  0  0  0  0  0
    2.2240    0.0640   -0.0146 N   0  0  0  0  0  0  0  0  0  0  0  0
   -2.8074   -0.4460   -0.4010 C   0  0  0  0  0  0  0  0  0  0  0  0
   -2.5507    0.9409    0.1763 C   0  0  0  0  0  0  0  0  0  0  0  0
   -1.9459   -1.5023    0.2803 C   0  0  0  0  0  0  0  0  0  0  0  0
   -0.0664    0.5025    0.0097 C   0  0  0  0  0  0  0  0  0  0  0  0
    1.1809    1.0114   -0.0055 C   0  0  0  0  0  0  0  0  0  0  0  0
  1  8  1  0
  1  9  1  0
  2  5  1  0
  3  5  2  0
  4  7  1  0
  4  9  1  0
  5 10  1  0
  6  7  1  0
  6  8  1  0
  9 10  2  0
M  CHG  2   2  -1   5   1
M  END
>  <PUBCHEM_COMPOUND_CID>  (1) 
42853

>  <PUBCHEM_CONFORMER_RMSD>  (1) 
0.4

>  <PUBCHEM_CONFORMER_DIVERSEORDER>  (1) 
1

>  <PUBCHEM_MMFF94_PARTIAL_CHARGES>  (1) 
11
1 -0.33
10 0.05
17 0.4
18 0.15
2 -0.52
3 -0.52
4 -0.87
5 0.84
7 0.37
8 0.23
9 0.2

>  <PUBCHEM_EFFECTIVE_ROTOR_COUNT>  (1) 
2

>  <PUBCHEM_PHARMACOPHORE_FEATURES>  (1) 
6
1 2 acceptor
1 2 anion
1 3 acceptor
1 4 cation
1 4 donor
6 1 4 6 7 8 9 rings

>  <PUBCHEM_HEAVY_ATOM_COUNT>  (1) 
10

>  <PUBCHEM_ATOM_DEF_STEREO_COUNT>  (1) 
0

>  <PUBCHEM_ATOM_UDEF_STEREO_COUNT>  (1) 
0

>  <PUBCHEM_BOND_DEF_STEREO_COUNT>  (1) 
0

>  <PUBCHEM_BOND_UDEF_STEREO_COUNT>  (1) 
1

>  <PUBCHEM_ISOTOPIC_ATOM_COUNT>  (1) 
0

>  <PUBCHEM_COMPONENT_COUNT>  (1) 
1

>  <PUBCHEM_CACTVS_TAUTO_COUNT>  (1) 
2

>  <PUBCHEM_CONFORMER_ID>  (1) 
0000A76500000001

>  <PUBCHEM_MMFF94_ENERGY>  (1) 
33.3868

>  <PUBCHEM_FEATURE_SELFOVERLAP>  (1) 
30.525

>  <PUBCHEM_SHAPE_FINGERPRINT>  (1) 
10857977 72 18272361009953540145
12716758 59 18271529684763273123
12897270 3 18410293618524235831
12932764 1 17822012012204908005
14325111 11 18411699880842681609
15310529 11 16588025710120986709
15775835 57 18040719147145703597
16945 1 18409730642816815401
20201158 50 18273496771021021790
20645464 45 17988632008767969474
20645476 183 17604159210762950079
21040471 1 18266179435238748441
23235685 24 18410290281566872197
23552423 10 17970630911682571221
2748010 2 18194117654003215909
29004967 10 16845856801609558936
3248919 1 18201999940824587053
369184 2 15626225723396065707
5084963 1 18131639992808257217

>  <PUBCHEM_SHAPE_MULTIPOLES>  (1) 
187.94
4.33
1.46
0.81
0.83
0.11
0.02
0.26
0.12
-0.7
-0.08
0.4
0.1
-0.01

>  <PUBCHEM_SHAPE_SELFOVERLAP>  (1) 
360.745

>  <PUBCHEM_SHAPE_VOLUME>  (1) 
113.8

>  <PUBCHEM_COORDINATE_TYPE>  (1) 
2
5
10

$$$$
