42857
     RDKit          3D

 22 23  0  0  0  0  0  0  0  0999 V2000
   -0.9824   -0.8861   -1.3351 S   0  0  0  0  0  0  0  0  0  0  0  0
    4.7872    0.5431    1.0066 F   0  0  0  0  0  0  0  0  0  0  0  0
    4.0023    1.4488   -0.8012 F   0  0  0  0  0  0  0  0  0  0  0  0
    3.0909    1.8989    1.1212 F   0  0  0  0  0  0  0  0  0  0  0  0
   -0.7833    0.2513   -2.2213 O   0  0  0  0  0  0  0  0  0  0  0  0
   -1.4177   -2.1635   -1.8787 O   0  0  0  0  0  0  0  0  0  0  0  0
   -2.2903    2.4318   -1.4990 O   0  0  0  0  0  0  0  0  0  0  0  0
   -0.5832    2.4450   -0.0124 O   0  0  0  0  0  0  0  0  0  0  0  0
    0.5830   -1.1362   -0.5451 C   0  0  0  0  0  0  0  0  0  0  0  0
   -2.1551   -0.4526   -0.1095 C   0  0  0  0  0  0  0  0  0  0  0  0
    1.4436   -0.0638   -0.4038 C   0  0  0  0  0  0  0  0  0  0  0  0
   -2.3786    0.8784    0.2426 C   0  0  0  0  0  0  0  0  0  0  0  0
    2.6766   -0.2613    0.2180 C   0  0  0  0  0  0  0  0  0  0  0  0
    0.9102   -2.3988   -0.0873 C   0  0  0  0  0  0  0  0  0  0  0  0
   -2.8730   -1.4702    0.5189 C   0  0  0  0  0  0  0  0  0  0  0  0
    3.0263   -1.5275    0.6872 C   0  0  0  0  0  0  0  0  0  0  0  0
    2.1431   -2.5963    0.5346 C   0  0  0  0  0  0  0  0  0  0  0  0
   -3.3199    1.1918    1.2232 C   0  0  0  0  0  0  0  0  0  0  0  0
   -3.8143   -1.1568    1.4993 C   0  0  0  0  0  0  0  0  0  0  0  0
    3.6208    0.8816    0.3814 C   0  0  0  0  0  0  0  0  0  0  0  0
   -4.0377    0.1741    1.8515 C   0  0  0  0  0  0  0  0  0  0  0  0
   -1.6484    1.9683   -0.3912 C   0  0  0  0  0  0  0  0  0  0  0  0
  1  5  2  0
  1  6  2  0
  1  9  1  0
  1 10  1  0
  2 20  1  0
  3 20  1  0
  4 20  1  0
  7 22  1  0
  8 22  2  0
  9 11  2  0
  9 14  1  0
 10 12  2  0
 10 15  1  0
 11 13  1  0
 12 18  1  0
 12 22  1  0
 13 16  2  0
 13 20  1  0
 14 17  2  0
 15 19  2  0
 16 17  1  0
 18 21  2  0
 19 21  1  0
M  END
>  <PUBCHEM_COMPOUND_CID>  (1) 
42857

>  <PUBCHEM_CONFORMER_RMSD>  (1) 
0.6

>  <PUBCHEM_CONFORMER_DIVERSEORDER>  (1) 
1
3
2
4

>  <PUBCHEM_MMFF94_PARTIAL_CHARGES>  (1) 
31
1 1.32
10 -0.01
11 -0.15
12 0.09
13 -0.14
14 -0.15
15 -0.15
16 -0.15
17 -0.15
18 -0.15
19 -0.15
2 -0.34
20 1.16
21 -0.15
22 0.63
23 0.15
24 0.15
25 0.15
26 0.15
27 0.15
28 0.15
29 0.15
3 -0.34
30 0.15
31 0.5
4 -0.34
5 -0.65
6 -0.65
7 -0.65
8 -0.57
9 -0.01

>  <PUBCHEM_EFFECTIVE_ROTOR_COUNT>  (1) 
4

>  <PUBCHEM_PHARMACOPHORE_FEATURES>  (1) 
7
1 5 acceptor
1 6 acceptor
1 7 acceptor
1 8 acceptor
3 7 8 22 anion
6 10 12 15 18 19 21 rings
6 9 11 13 14 16 17 rings

>  <PUBCHEM_HEAVY_ATOM_COUNT>  (1) 
22

>  <PUBCHEM_ATOM_DEF_STEREO_COUNT>  (1) 
0

>  <PUBCHEM_ATOM_UDEF_STEREO_COUNT>  (1) 
0

>  <PUBCHEM_BOND_DEF_STEREO_COUNT>  (1) 
0

>  <PUBCHEM_BOND_UDEF_STEREO_COUNT>  (1) 
0

>  <PUBCHEM_ISOTOPIC_ATOM_COUNT>  (1) 
0

>  <PUBCHEM_COMPONENT_COUNT>  (1) 
1

>  <PUBCHEM_CACTVS_TAUTO_COUNT>  (1) 
1

>  <PUBCHEM_CONFORMER_ID>  (1) 
0000A76900000001

>  <PUBCHEM_MMFF94_ENERGY>  (1) 
47.2365

>  <PUBCHEM_FEATURE_SELFOVERLAP>  (1) 
35.604

>  <PUBCHEM_SHAPE_FINGERPRINT>  (1) 
10366900 7 18334581269125917802
1100329 8 17619913198440136963
11640471 11 15552177858946430031
12173636 292 16630522968384828783
12363563 72 13840271398318865571
12403814 3 18413102870912545203
12633257 1 18122917421247368787
12892183 10 18337124401325375987
128993 33 18202275918448627562
13083527 12 17605008072863355717
13140716 1 17977950407733018210
13224815 77 18342450435291385994
13583140 156 18116992187186740651
14081887 123 18260274027269139211
14223421 5 18261959535375964115
14289901 80 17749680614075446800
14341114 328 18188504560838008961
14386348 128 18202274823258516248
14787075 74 17824550900570404955
15163728 17 14187914865305230705
16945 1 18187378605566076807
17834072 14 10881683563348397918
1813 80 16443362978561406399
18981168 100 18198878393174944082
19784866 170 18335998518339595001
19862831 5 9583519797884633827
20261772 1 18342181106577095056
20344682 10 18334584576419780799
20361792 2 14635455765769623239
20626108 58 15648476647977483035
20681677 274 18115311063914815362
20681677 76 18263358092939409703
21475661 188 17121719618086655865
21756936 100 17418092122448637352
21864079 5 17060055917359789952
23559900 14 17970642791641480279
3187 122 17894624868463676245
3797600 57 17989219152092964363
392239 28 18194130843658430891
469060 322 18192133013707966897
6049 1 18192441770285566222
6442390 28 18266192780235361378
7097593 13 17901949642891896899
90316 7 18042423356463437989
9882013 296 17676210207915279330

>  <PUBCHEM_SHAPE_MULTIPOLES>  (1) 
411.3
7.53
2.74
1.62
3.22
0.15
-0.45
1.63
4.17
0.43
-0.27
-1.12
-0.06
0.37

>  <PUBCHEM_SHAPE_SELFOVERLAP>  (1) 
883.776

>  <PUBCHEM_SHAPE_VOLUME>  (1) 
229.2

>  <PUBCHEM_COORDINATE_TYPE>  (1) 
2
5
10

$$$$
