42863
     RDKit          3D

 23 25  0  0  0  0  0  0  0  0999 V2000
   -2.9749   -0.3957   -0.2616 O   0  0  0  0  0  0  0  0  0  0  0  0
   -2.6963   -1.6250    1.6774 O   0  0  0  0  0  0  0  0  0  0  0  0
   -5.6653    2.1206   -0.0841 N   0  0  0  0  0  0  0  0  0  0  0  0
   -1.3151   -2.0548   -0.1889 C   0  0  0  0  0  0  0  0  0  0  0  0
   -1.4142   -3.5479   -0.2788 C   0  0  0  0  0  0  0  0  0  0  0  0
   -1.6625   -2.7042   -1.4947 C   0  0  0  0  0  0  0  0  0  0  0  0
    0.0394   -1.4497   -0.0462 C   0  0  0  0  0  0  0  0  0  0  0  0
   -2.3995   -1.3463    0.5245 C   0  0  0  0  0  0  0  0  0  0  0  0
    3.9496    0.3004    0.3681 C   0  0  0  0  0  0  0  0  0  0  0  0
    3.8742    1.8157    0.6249 C   0  0  0  0  0  0  0  0  0  0  0  0
    4.8471   -0.0091   -0.8430 C   0  0  0  0  0  0  0  0  0  0  0  0
    2.5705   -0.3166    0.2223 C   0  0  0  0  0  0  0  0  0  0  0  0
    0.4725   -0.4864   -0.9573 C   0  0  0  0  0  0  0  0  0  0  0  0
    0.8736   -1.8456    0.9993 C   0  0  0  0  0  0  0  0  0  0  0  0
    5.2664    2.4256    0.7801 C   0  0  0  0  0  0  0  0  0  0  0  0
    6.2352    0.6086   -0.6815 C   0  0  0  0  0  0  0  0  0  0  0  0
    6.1566    2.1095   -0.4181 C   0  0  0  0  0  0  0  0  0  0  0  0
    1.7397    0.0808   -0.8230 C   0  0  0  0  0  0  0  0  0  0  0  0
    2.1408   -1.2783    1.1338 C   0  0  0  0  0  0  0  0  0  0  0  0
   -4.0384    0.3432    0.3475 C   0  0  0  0  0  0  0  0  0  0  0  0
   -4.5672    1.3554   -0.6560 C   0  0  0  0  0  0  0  0  0  0  0  0
   -6.2030    3.0672   -1.0643 C   0  0  0  0  0  0  0  0  0  0  0  0
   -5.2292    2.8326    1.1196 C   0  0  0  0  0  0  0  0  0  0  0  0
  1  8  1  0
  1 20  1  0
  2  8  2  0
  3 21  1  0
  3 22  1  0
  3 23  1  0
  4  5  1  0
  4  6  1  0
  4  7  1  0
  4  8  1  0
  5  6  1  0
  7 13  2  0
  7 14  1  0
  9 10  1  0
  9 11  1  0
  9 12  1  0
 10 15  1  0
 11 16  1  0
 12 18  2  0
 12 19  1  0
 13 18  1  0
 14 19  2  0
 15 17  1  0
 16 17  1  0
 20 21  1  0
M  END
>  <PUBCHEM_COMPOUND_CID>  (1) 
42863

>  <PUBCHEM_CONFORMER_RMSD>  (1) 
0.8

>  <PUBCHEM_CONFORMER_DIVERSEORDER>  (1) 
1
221
258
239
56
259
210
250
208
87
174
129
181
231
83
195
146
254
64
119
100
192
213
247
251
243
48
216
103
170
214
168
102
58
135
220
148
59
19
68
203
121
51
266
118
57
61
73
122
159
191
238
205
78
240
207
151
18
253
223
17
206
211
198
209
152
133
46
200
30
185
42
8
189
71
255
126
39
154
26
11
147
193
173
33
149
113
67
123
55
236
132
116
184
81
108
194
201
136
225
52
128
141
176
76
212
242
106
95
65
90
69
227
88
157
80
63
138
218
204
264
84
32
229
265
25
245
197
186
114
37
66
72
85
93
98
261
131
89
178
97
74
140
222
127
21
196
41
38
199
177
179
233
35
143
183
175
130
94
241
34
160
31
167
234
109
91
115
256
257
219
13
161
77
230
252
169
24
248
125
9
23
145
79
235
124
158
215
144
3
112
134
49
50
150
172
244
86
155
237
4
188
166
228
232
75
137
70
60
202
47
12
249
101
246
182
117
62
29
92
190
54
224
171
53
6
142
105
164
7
27
43
10
262
20
111
96
260
139
110
28
180
162
99
107
187
120
45
14
16
165
22
15
163
36
153
104
263
44
2
5
226
156
217
40
82

>  <PUBCHEM_MMFF94_PARTIAL_CHARGES>  (1) 
26
1 -0.43
12 -0.14
13 -0.15
14 -0.15
18 -0.15
19 -0.15
2 -0.57
20 0.28
21 0.27
22 0.27
23 0.27
24 0.1
25 0.1
26 0.1
27 0.1
3 -0.81
33 0.15
34 0.15
4 0.03
41 0.15
42 0.15
5 -0.2
6 -0.2
7 -0.03
8 0.72
9 0.14

>  <PUBCHEM_EFFECTIVE_ROTOR_COUNT>  (1) 
8.8

>  <PUBCHEM_PHARMACOPHORE_FEATURES>  (1) 
4
1 2 acceptor
1 3 cation
6 7 12 13 14 18 19 rings
6 9 10 11 15 16 17 rings

>  <PUBCHEM_HEAVY_ATOM_COUNT>  (1) 
23

>  <PUBCHEM_ATOM_DEF_STEREO_COUNT>  (1) 
0

>  <PUBCHEM_ATOM_UDEF_STEREO_COUNT>  (1) 
0

>  <PUBCHEM_BOND_DEF_STEREO_COUNT>  (1) 
0

>  <PUBCHEM_BOND_UDEF_STEREO_COUNT>  (1) 
0

>  <PUBCHEM_ISOTOPIC_ATOM_COUNT>  (1) 
0

>  <PUBCHEM_COMPONENT_COUNT>  (1) 
1

>  <PUBCHEM_CACTVS_TAUTO_COUNT>  (1) 
1

>  <PUBCHEM_CONFORMER_ID>  (1) 
0000A76F00000001

>  <PUBCHEM_MMFF94_ENERGY>  (1) 
48.2716

>  <PUBCHEM_FEATURE_SELFOVERLAP>  (1) 
20.297

>  <PUBCHEM_SHAPE_FINGERPRINT>  (1) 
10006869 2 18042954376965349309
105312 117 18272655657648007399
11135609 201 18201168676565664569
12107183 9 18264758884044787402
12390115 104 18408609179447854151
12633257 1 15719399459715065051
13103583 49 14707220928326817433
13540713 5 18263619862554399938
13944108 23 17837491852082902249
14251764 75 18341618053924806249
14257110 125 18411418384860632881
14347329 18 18343017765985291169
15163728 17 18200601298147597375
15188451 53 14563399301993877513
15198563 99 18127118909213642207
15209294 21 18260542381305506562
15238133 3 17530977868664990180
15519825 34 16226630579832475001
15803439 3 17060330812820916333
16120349 189 18333725798099368901
17349148 13 12607137239733036278
17834072 32 18412543206429893465
17844677 252 18124040280802492924
20645477 56 18200886191422799635
21033648 144 18187076214473012325
21033648 29 18341887536856720616
21279426 13 18343028787540979628
21401589 2 18335147466887050481
23379529 103 10591463049670833101
23522609 53 17604439621584901436
23559900 14 17775298175127439646
23569914 2 17341488099333736160
25122255 55 8934733205377339792
270888 7 18409727318802746405
2748736 6 18337943511571045929
2838139 119 18341325630632995285
3627633 1 17905608058092398503
474 4 18194960747978925803
5104073 3 17894342294164865682
5283173 99 18272089456715241024
6327066 14 18409163282291067437
633830 44 18188205528858178046
636775 72 18049440650479548304
77188 2 17256249770582149139
7808743 9 18411414033731565193

>  <PUBCHEM_SHAPE_MULTIPOLES>  (1) 
456.61
15.23
3.86
1.24
1.34
0.09
0.07
19.59
-1.65
-4.78
-0.13
-0.41
-0.15
0.36

>  <PUBCHEM_SHAPE_SELFOVERLAP>  (1) 
946.976

>  <PUBCHEM_SHAPE_VOLUME>  (1) 
261

>  <PUBCHEM_COORDINATE_TYPE>  (1) 
2
5
10

$$$$
