42869
     RDKit          3D

 43 49  0  0  0  0  0  0  0  0999 V2000
    9.0118    3.1624   -1.8939 Cl  0  0  0  0  0  0  0  0  0  0  0  0
   -6.0765    5.0433   -2.7964 Cl  0  0  0  0  0  0  0  0  0  0  0  0
    3.1844   -1.2948    0.6649 N   0  0  0  0  0  0  0  0  0  0  0  0
   -3.3883   -1.3837    0.6453 N   0  0  0  0  0  0  0  0  0  0  0  0
    0.6263   -1.8066    1.8862 N   0  0  0  0  0  0  0  0  0  0  0  0
    4.7773    1.0020    0.0755 N   0  0  0  0  0  0  0  0  0  0  0  0
   -5.0406    0.8593    0.0140 N   0  0  0  0  0  0  0  0  0  0  0  0
    1.0392   -2.3871    0.7083 C   0  0  0  0  0  0  0  0  0  0  0  0
   -1.2009   -2.3918    0.7552 C   0  0  0  0  0  0  0  0  0  0  0  0
    2.4742   -2.5383    0.3688 C   0  0  0  0  0  0  0  0  0  0  0  0
   -2.6292   -2.6025    0.3681 C   0  0  0  0  0  0  0  0  0  0  0  0
   -0.0780   -2.7577   -0.0088 C   0  0  0  0  0  0  0  0  0  0  0  0
    2.6272   -0.1846   -0.1174 C   0  0  0  0  0  0  0  0  0  0  0  0
    4.6170   -1.4388    0.3769 C   0  0  0  0  0  0  0  0  0  0  0  0
   -2.8459   -0.2541   -0.1197 C   0  0  0  0  0  0  0  0  0  0  0  0
   -4.8063   -1.5741    0.3166 C   0  0  0  0  0  0  0  0  0  0  0  0
   -0.7649   -1.8097    1.9149 C   0  0  0  0  0  0  0  0  0  0  0  0
    3.3249    1.1343    0.2247 C   0  0  0  0  0  0  0  0  0  0  0  0
    5.3804   -0.1622    0.7365 C   0  0  0  0  0  0  0  0  0  0  0  0
   -3.5960    1.0397    0.2051 C   0  0  0  0  0  0  0  0  0  0  0  0
   -5.6224   -0.3240    0.6548 C   0  0  0  0  0  0  0  0  0  0  0  0
   -0.0063   -3.3961   -1.2932 C   0  0  0  0  0  0  0  0  0  0  0  0
    1.4079   -1.2842    2.9170 C   0  0  0  0  0  0  0  0  0  0  0  0
   -1.4000   -1.2480    3.0603 C   0  0  0  0  0  0  0  0  0  0  0  0
    5.5654    2.1468   -0.0879 C   0  0  0  0  0  0  0  0  0  0  0  0
   -5.8262    2.0013   -0.1782 C   0  0  0  0  0  0  0  0  0  0  0  0
    0.8046   -0.7559    3.9942 C   0  0  0  0  0  0  0  0  0  0  0  0
   -0.6477   -0.7427    4.0568 C   0  0  0  0  0  0  0  0  0  0  0  0
    0.0148   -2.6245   -2.4550 C   0  0  0  0  0  0  0  0  0  0  0  0
    0.0424   -4.7874   -1.3787 C   0  0  0  0  0  0  0  0  0  0  0  0
    6.7656    2.1027   -0.8252 C   0  0  0  0  0  0  0  0  0  0  0  0
    5.1820    3.3785    0.4794 C   0  0  0  0  0  0  0  0  0  0  0  0
   -5.5958    2.8663   -1.2668 C   0  0  0  0  0  0  0  0  0  0  0  0
   -6.8721    2.3205    0.7107 C   0  0  0  0  0  0  0  0  0  0  0  0
    0.0842   -3.2444   -3.7026 C   0  0  0  0  0  0  0  0  0  0  0  0
    0.1118   -5.4071   -2.6263 C   0  0  0  0  0  0  0  0  0  0  0  0
    0.1327   -4.6356   -3.7882 C   0  0  0  0  0  0  0  0  0  0  0  0
    7.5505    3.2443   -0.9886 C   0  0  0  0  0  0  0  0  0  0  0  0
    5.9667    4.5199    0.3159 C   0  0  0  0  0  0  0  0  0  0  0  0
   -6.3796    4.0040   -1.4585 C   0  0  0  0  0  0  0  0  0  0  0  0
   -7.6558    3.4581    0.5190 C   0  0  0  0  0  0  0  0  0  0  0  0
    7.1509    4.4528   -0.4181 C   0  0  0  0  0  0  0  0  0  0  0  0
   -7.4097    4.2998   -0.5656 C   0  0  0  0  0  0  0  0  0  0  0  0
  1 38  1  0
  2 40  1  0
  3 10  1  0
  3 13  1  0
  3 14  1  0
  4 11  1  0
  4 15  1  0
  4 16  1  0
  5  8  1  0
  5 17  1  0
  5 23  1  0
  6 18  1  0
  6 19  1  0
  6 25  1  0
  7 20  1  0
  7 21  1  0
  7 26  1  0
  8 10  1  0
  8 12  2  0
  9 11  1  0
  9 12  1  0
  9 17  2  0
 12 22  1  0
 13 18  1  0
 14 19  1  0
 15 20  1  0
 16 21  1  0
 17 24  1  0
 22 29  2  0
 22 30  1  0
 23 27  2  0
 24 28  2  0
 25 31  2  0
 25 32  1  0
 26 33  2  0
 26 34  1  0
 27 28  1  0
 29 35  1  0
 30 36  2  0
 31 38  1  0
 32 39  2  0
 33 40  1  0
 34 41  2  0
 35 37  2  0
 36 37  1  0
 38 42  2  0
 39 42  1  0
 40 43  2  0
 41 43  1  0
M  END
>  <PUBCHEM_COMPOUND_CID>  (1) 
42869

>  <PUBCHEM_CONFORMER_RMSD>  (1) 
1.2

>  <PUBCHEM_CONFORMER_DIVERSEORDER>  (1) 
1
50
234
95
215
114
209
160
135
153
219
51
64
142
121
232
3
213
228
205
96
214
202
221
231
206
108
4
190
63
195
218
151
183
198
163
186
217
122
20
141
19
105
212
97
188
171
199
83
193
167
31
216
74
222
34
182
176
207
100
120
18
235
144
196
137
38
165
157
25
170
224
94
200
159
32
53
211
112
139
78
187
152
107
93
203
41
230
61
7
172
44
197
175
52
229
80
113
72
77
201
227
156
162
37
169
14
178
166
57
154
82
223
90
233
189
81
155
226
79
55
149
125
118
225
36
92
24
194
54
73
147
56
180
174
177
132
129
76
173
158
127
68
111
146
67
40
35
181
84
204
145
69
42
192
27
87
128
116
138
117
191
43
103
133
102
168
115
148
48
126
59
28
15
33
39
131
17
86
98
106
6
134
10
184
13
47
29
62
136
58
210
119
71
66
23
185
21
220
22
101
26
89
65
130
5
110
16
70
208
12
143
164
104
30
124
179
91
99
88
109
123
46
11
49
161
140
8
45
75
150
85
2
60
9

>  <PUBCHEM_MMFF94_PARTIAL_CHARGES>  (1) 
60
1 -0.18
10 0.45
11 0.45
12 -0.05
13 0.27
14 0.27
15 0.27
16 0.27
17 -0.2
18 0.37
19 0.37
2 -0.18
20 0.37
21 0.37
22 0.05
23 -0.18
24 -0.11
25 0.1
26 0.1
27 -0.15
28 -0.15
29 -0.15
3 -0.81
30 -0.15
31 -0.15
32 -0.15
33 -0.15
34 -0.15
35 -0.15
36 -0.15
37 -0.15
38 0.18
39 -0.15
4 -0.81
40 0.18
41 -0.15
42 -0.15
43 -0.15
5 0.33
6 -0.84
64 0.15
65 0.15
66 0.15
67 0.15
68 0.15
69 0.15
7 -0.84
70 0.15
71 0.15
72 0.15
73 0.15
74 0.15
75 0.15
76 0.15
77 0.15
78 0.15
79 0.15
8 -0.33
80 0.15
9 -0.18

>  <PUBCHEM_EFFECTIVE_ROTOR_COUNT>  (1) 
9.4

>  <PUBCHEM_PHARMACOPHORE_FEATURES>  (1) 
12
1 3 cation
1 4 cation
1 5 cation
1 6 cation
1 7 cation
5 5 8 9 12 17 rings
6 22 29 30 35 36 37 rings
6 25 31 32 38 39 42 rings
6 26 33 34 40 41 43 rings
6 3 6 13 14 18 19 rings
6 4 7 15 16 20 21 rings
6 5 17 23 24 27 28 rings

>  <PUBCHEM_HEAVY_ATOM_COUNT>  (1) 
43

>  <PUBCHEM_ATOM_DEF_STEREO_COUNT>  (1) 
0

>  <PUBCHEM_ATOM_UDEF_STEREO_COUNT>  (1) 
0

>  <PUBCHEM_BOND_DEF_STEREO_COUNT>  (1) 
0

>  <PUBCHEM_BOND_UDEF_STEREO_COUNT>  (1) 
0

>  <PUBCHEM_ISOTOPIC_ATOM_COUNT>  (1) 
0

>  <PUBCHEM_COMPONENT_COUNT>  (1) 
1

>  <PUBCHEM_CACTVS_TAUTO_COUNT>  (1) 
1

>  <PUBCHEM_CONFORMER_ID>  (1) 
0000A77500000001

>  <PUBCHEM_MMFF94_ENERGY>  (1) 
145.1859

>  <PUBCHEM_FEATURE_SELFOVERLAP>  (1) 
61.013

>  <PUBCHEM_SHAPE_FINGERPRINT>  (1) 
10673678 19 18342740668007425115
10864689 126 18341334487552697480
10985338 8 18339069415497848267
11093857 51 17916004790387081339
11505856 67 18195796582474118103
11621639 179 18261960640179293254
11621639 307 18051964008005335220
11828422 8 18339648823867077758
13690498 29 16982939711606186534
13726171 33 18335707118305855113
13911987 19 17560535008878718251
15064981 113 17489041404993026294
15803439 3 17561365105823857518
15950262 2 18260550017329987419
17899979 129 18270688558220766685
19053607 189 18336817671962590264
19309040 13 18334852822891970978
19438510 23 18040716995435771352
21033648 29 16805617961804272034
21223535 225 18194398021474937652
21792965 106 17831863822156004848
21796203 349 12540706928799654978
23191077 185 18338221782375449682
25025965 108 14116143196078493884
2838139 119 18334853922197870739
3388396 114 16682317950656362276
376196 1 18408881811350900107
4112364 45 17749941164235716793
44249763 50 17700408367773967384
44802255 64 18199481037591272294
50009960 94 8286192839145078033
57527358 35 18333446560479580770
5951187 136 18192149300398091535
6677587 24 18195225751376417797

>  <PUBCHEM_SHAPE_MULTIPOLES>  (1) 
863.75
21.13
8.47
3.56
6.74
2.02
0.62
49.03
-7.6
-1.16
-8.39
-0.67
-4.02
1.48

>  <PUBCHEM_SHAPE_SELFOVERLAP>  (1) 
1878.13

>  <PUBCHEM_SHAPE_VOLUME>  (1) 
470.6

>  <PUBCHEM_COORDINATE_TYPE>  (1) 
2
5
10

$$$$
