42861
     RDKit          3D

 25 27  0  0  0  0  0  0  0  0999 V2000
    2.3807   -1.0340   -0.2178 O   0  0  0  0  0  0  0  0  0  0  0  0
    1.9190   -2.2422    1.6995 O   0  0  0  0  0  0  0  0  0  0  0  0
    5.3674    1.1151    0.0309 N   0  0  0  0  0  0  0  0  0  0  0  0
    0.5079   -2.4516   -0.1838 C   0  0  0  0  0  0  0  0  0  0  0  0
    0.4074   -3.9445   -0.2960 C   0  0  0  0  0  0  0  0  0  0  0  0
    0.7802   -3.1254   -1.4968 C   0  0  0  0  0  0  0  0  0  0  0  0
   -0.7530   -1.6707   -0.0430 C   0  0  0  0  0  0  0  0  0  0  0  0
    1.6737   -1.9085    0.5491 C   0  0  0  0  0  0  0  0  0  0  0  0
   -4.3980    0.5882    0.3656 C   0  0  0  0  0  0  0  0  0  0  0  0
   -1.0429   -0.6454   -0.9433 C   0  0  0  0  0  0  0  0  0  0  0  0
   -1.6436   -1.9648    0.9896 C   0  0  0  0  0  0  0  0  0  0  0  0
   -3.1138   -0.2081    0.2217 C   0  0  0  0  0  0  0  0  0  0  0  0
   -5.3165    0.4183   -0.8572 C   0  0  0  0  0  0  0  0  0  0  0  0
   -4.1217    2.0760    0.6445 C   0  0  0  0  0  0  0  0  0  0  0  0
   -6.6103    1.2153   -0.6986 C   0  0  0  0  0  0  0  0  0  0  0  0
   -5.4204    2.8661    0.7968 C   0  0  0  0  0  0  0  0  0  0  0  0
   -6.3329    2.6884   -0.4132 C   0  0  0  0  0  0  0  0  0  0  0  0
   -2.2233    0.0858   -0.8110 C   0  0  0  0  0  0  0  0  0  0  0  0
   -2.8239   -1.2335    1.1219 C   0  0  0  0  0  0  0  0  0  0  0  0
    3.5293   -0.4561    0.4107 C   0  0  0  0  0  0  0  0  0  0  0  0
    4.2006    0.4891   -0.5728 C   0  0  0  0  0  0  0  0  0  0  0  0
    4.9668    2.2039    0.9254 C   0  0  0  0  0  0  0  0  0  0  0  0
    6.2780    1.6178   -1.0006 C   0  0  0  0  0  0  0  0  0  0  0  0
    6.1725    2.8200    1.6146 C   0  0  0  0  0  0  0  0  0  0  0  0
    5.6168    2.7007   -1.8362 C   0  0  0  0  0  0  0  0  0  0  0  0
  1  8  1  0
  1 20  1  0
  2  8  2  0
  3 21  1  0
  3 22  1  0
  3 23  1  0
  4  5  1  0
  4  6  1  0
  4  7  1  0
  4  8  1  0
  5  6  1  0
  7 10  2  0
  7 11  1  0
  9 12  1  0
  9 13  1  0
  9 14  1  0
 10 18  1  0
 11 19  2  0
 12 18  2  0
 12 19  1  0
 13 15  1  0
 14 16  1  0
 15 17  1  0
 16 17  1  0
 20 21  1  0
 22 24  1  0
 23 25  1  0
M  END
>  <PUBCHEM_COMPOUND_CID>  (1) 
42861

>  <PUBCHEM_CONFORMER_RMSD>  (1) 
1

>  <PUBCHEM_CONFORMER_DIVERSEORDER>  (1) 
1
42
48
45
33
50
60
49
34
31
35
73
61
59
10
41
78
69
16
74
62
38
25
9
68
4
36
55
30
26
71
19
66
75
67
8
52
18
65
43
32
27
37
64
12
29
77
14
39
56
13
24
44
47
23
15
5
40
54
7
21
46
22
63
57
58
70
76
2
3
72
28
51
20
17
53
11
6

>  <PUBCHEM_MMFF94_PARTIAL_CHARGES>  (1) 
26
1 -0.43
10 -0.15
11 -0.15
12 -0.14
18 -0.15
19 -0.15
2 -0.57
20 0.28
21 0.27
22 0.27
23 0.27
26 0.1
27 0.1
28 0.1
29 0.1
3 -0.81
31 0.15
32 0.15
4 0.03
43 0.15
44 0.15
5 -0.2
6 -0.2
7 -0.03
8 0.72
9 0.14

>  <PUBCHEM_EFFECTIVE_ROTOR_COUNT>  (1) 
10.8

>  <PUBCHEM_PHARMACOPHORE_FEATURES>  (1) 
4
1 2 acceptor
1 3 cation
6 7 10 11 12 18 19 rings
6 9 13 14 15 16 17 rings

>  <PUBCHEM_HEAVY_ATOM_COUNT>  (1) 
25

>  <PUBCHEM_ATOM_DEF_STEREO_COUNT>  (1) 
0

>  <PUBCHEM_ATOM_UDEF_STEREO_COUNT>  (1) 
0

>  <PUBCHEM_BOND_DEF_STEREO_COUNT>  (1) 
0

>  <PUBCHEM_BOND_UDEF_STEREO_COUNT>  (1) 
0

>  <PUBCHEM_ISOTOPIC_ATOM_COUNT>  (1) 
0

>  <PUBCHEM_COMPONENT_COUNT>  (1) 
1

>  <PUBCHEM_CACTVS_TAUTO_COUNT>  (1) 
1

>  <PUBCHEM_CONFORMER_ID>  (1) 
0000A76D00000001

>  <PUBCHEM_MMFF94_ENERGY>  (1) 
46.7629

>  <PUBCHEM_FEATURE_SELFOVERLAP>  (1) 
20.297

>  <PUBCHEM_SHAPE_FINGERPRINT>  (1) 
10622 236 12246581993649965612
10864689 126 18342178856505667272
12342043 65 13191157061800846232
12390115 104 18339656627843057786
12403259 118 17968942031805119390
12422481 6 17530679905446266284
12633257 1 16298390205517264626
13944108 23 18124599673869853064
14251740 57 8430310234611960316
14251764 30 9871749074688378357
14251764 75 18335989722189037576
14257110 125 18410013243001117668
14341114 328 17023183877006461978
14429114 114 18268425746570429377
14739800 52 18337664235337321528
14774955 27 18337951195346036255
14790565 3 18411141350574605972
14849402 71 18119530934071829810
15163728 17 18341345426137490070
15198563 99 17840018877838256079
15342168 16 18411134706201910647
15513586 35 17027410537106254860
15803439 3 16917072187347859366
15961568 22 18335423409482095293
15979999 66 17695637255898329558
16993089 31 12678880382600605029
17980427 23 17676490600639931639
19438510 23 18334856116989060288
20691028 202 18337390547685581052
20775438 99 10085341247156825733
21033648 144 18187355520117042927
21033648 29 18339078302376182856
21344244 181 12318866151792665645
21585480 29 13119144693436573304
21585481 104 15625680339885844273
21682296 61 10015570728247492933
23559900 14 18052260596734797507
245318 6 17969239969270735260
270888 7 18410292505974913600
2748736 6 18336540594747352052
2838139 119 18343295994377662234
3411729 13 18261675882903562438
34797466 226 17916587532282817775
3862424 121 13901041483960660709
4058900 60 18337117782274383658
474 4 18337953373042310795
5104073 3 17821729420594924883
5219985 13 18411418436215559422
56633871 153 11746936490547944841
5718773 13 10231759959532288444
57724786 102 18261108548337229558
59682541 52 17060347284305397436
6327066 14 18410292540503295052
6712543 237 15068335735202656224
7808743 9 18410012169280678562
9981440 41 18408891754252990091

>  <PUBCHEM_SHAPE_MULTIPOLES>  (1) 
497.77
17.17
4.49
1.41
3.59
1.32
0.03
-24.54
1.48
1.75
-0.06
1.38
-0.29
0

>  <PUBCHEM_SHAPE_SELFOVERLAP>  (1) 
1025.216

>  <PUBCHEM_SHAPE_VOLUME>  (1) 
287

>  <PUBCHEM_COORDINATE_TYPE>  (1) 
2
5
10

$$$$
