42868
     RDKit          3D

 43 49  0  0  0  0  0  0  0  0999 V2000
    6.4517   -1.0702    2.6097 Cl  0  0  0  0  0  0  0  0  0  0  0  0
   -5.3859   -1.6493    3.0054 Cl  0  0  0  0  0  0  0  0  0  0  0  0
    3.2324    1.1154   -0.7655 N   0  0  0  0  0  0  0  0  0  0  0  0
   -3.3405    1.1978   -0.7690 N   0  0  0  0  0  0  0  0  0  0  0  0
    0.6766    1.5148   -2.0330 N   0  0  0  0  0  0  0  0  0  0  0  0
    4.8261   -1.1187    0.0273 N   0  0  0  0  0  0  0  0  0  0  0  0
   -4.9921   -0.9830    0.0533 N   0  0  0  0  0  0  0  0  0  0  0  0
    1.0861    2.1971   -0.9099 C   0  0  0  0  0  0  0  0  0  0  0  0
   -1.1539    2.1950   -0.9622 C   0  0  0  0  0  0  0  0  0  0  0  0
    2.5202    2.3794   -0.5817 C   0  0  0  0  0  0  0  0  0  0  0  0
   -2.5833    2.4372   -0.5984 C   0  0  0  0  0  0  0  0  0  0  0  0
   -0.0331    2.6281   -0.2307 C   0  0  0  0  0  0  0  0  0  0  0  0
    2.6744    0.0777    0.1101 C   0  0  0  0  0  0  0  0  0  0  0  0
    4.6641    1.2860   -0.4880 C   0  0  0  0  0  0  0  0  0  0  0  0
   -2.7988    0.1405    0.0936 C   0  0  0  0  0  0  0  0  0  0  0  0
   -4.7594    1.4147   -0.4617 C   0  0  0  0  0  0  0  0  0  0  0  0
   -0.7144    1.5136   -2.0651 C   0  0  0  0  0  0  0  0  0  0  0  0
    3.3742   -1.2654   -0.1130 C   0  0  0  0  0  0  0  0  0  0  0  0
    5.4296   -0.0164   -0.7322 C   0  0  0  0  0  0  0  0  0  0  0  0
   -3.5468   -1.1777   -0.1178 C   0  0  0  0  0  0  0  0  0  0  0  0
   -5.5735    0.1387   -0.6905 C   0  0  0  0  0  0  0  0  0  0  0  0
    0.0349    3.3770    0.9927 C   0  0  0  0  0  0  0  0  0  0  0  0
    1.4613    0.9046   -3.0121 C   0  0  0  0  0  0  0  0  0  0  0  0
   -1.3462    0.8525   -3.1582 C   0  0  0  0  0  0  0  0  0  0  0  0
    5.6150   -2.2437    0.2926 C   0  0  0  0  0  0  0  0  0  0  0  0
   -5.7769   -2.1045    0.3435 C   0  0  0  0  0  0  0  0  0  0  0  0
    0.8611    0.2828   -4.0400 C   0  0  0  0  0  0  0  0  0  0  0  0
   -0.5910    0.2625   -4.1046 C   0  0  0  0  0  0  0  0  0  0  0  0
    0.0539    2.7106    2.2179 C   0  0  0  0  0  0  0  0  0  0  0  0
    0.0819    4.7705    0.9555 C   0  0  0  0  0  0  0  0  0  0  0  0
    6.4143   -2.3506    1.4508 C   0  0  0  0  0  0  0  0  0  0  0  0
    5.6259   -3.3216   -0.6163 C   0  0  0  0  0  0  0  0  0  0  0  0
   -6.0385   -2.5230    1.6656 C   0  0  0  0  0  0  0  0  0  0  0  0
   -6.3375   -2.8582   -0.7082 C   0  0  0  0  0  0  0  0  0  0  0  0
    0.1197    3.4380    3.4063 C   0  0  0  0  0  0  0  0  0  0  0  0
    0.1477    5.4977    2.1440 C   0  0  0  0  0  0  0  0  0  0  0  0
    0.1666    4.8314    3.3693 C   0  0  0  0  0  0  0  0  0  0  0  0
    7.1895   -3.4858    1.6881 C   0  0  0  0  0  0  0  0  0  0  0  0
    6.4013   -4.4566   -0.3789 C   0  0  0  0  0  0  0  0  0  0  0  0
   -6.8260   -3.6453    1.9232 C   0  0  0  0  0  0  0  0  0  0  0  0
   -7.1247   -3.9805   -0.4505 C   0  0  0  0  0  0  0  0  0  0  0  0
    7.1831   -4.5387    0.7733 C   0  0  0  0  0  0  0  0  0  0  0  0
   -7.3689   -4.3741    0.8651 C   0  0  0  0  0  0  0  0  0  0  0  0
  1 31  1  0
  2 33  1  0
  3 10  1  0
  3 13  1  0
  3 14  1  0
  4 11  1  0
  4 15  1  0
  4 16  1  0
  5  8  1  0
  5 17  1  0
  5 23  1  0
  6 18  1  0
  6 19  1  0
  6 25  1  0
  7 20  1  0
  7 21  1  0
  7 26  1  0
  8 10  1  0
  8 12  2  0
  9 11  1  0
  9 12  1  0
  9 17  2  0
 12 22  1  0
 13 18  1  0
 14 19  1  0
 15 20  1  0
 16 21  1  0
 17 24  1  0
 22 29  2  0
 22 30  1  0
 23 27  2  0
 24 28  2  0
 25 31  2  0
 25 32  1  0
 26 33  2  0
 26 34  1  0
 27 28  1  0
 29 35  1  0
 30 36  2  0
 31 38  1  0
 32 39  2  0
 33 40  1  0
 34 41  2  0
 35 37  2  0
 36 37  1  0
 38 42  2  0
 39 42  1  0
 40 43  2  0
 41 43  1  0
M  END
>  <PUBCHEM_COMPOUND_CID>  (1) 
42868

>  <PUBCHEM_CONFORMER_RMSD>  (1) 
1.2

>  <PUBCHEM_CONFORMER_DIVERSEORDER>  (1) 
1
50
149
151
99
96
90
17
104
32
165
146
160
155
92
3
161
138
168
128
156
78
159
5
127
120
108
152
89
141
116
126
13
35
166
86
47
164
27
158
60
87
103
145
142
114
162
154
94
88
40
123
101
82
119
10
54
167
163
121
117
81
110
112
68
83
106
109
28
100
6
150
25
97
23
73
85
74
69
55
102
11
139
57
45
70
153
91
147
148
93
20
15
77
95
107
118
59
44
36
125
135
134
72
71
43
113
33
98
137
38
66
143
49
133
37
21
61
80
58
22
105
157
131
115
34
16
18
67
12
62
46
84
169
136
124
52
64
29
31
75
8
76
48
111
65
144
4
39
63
130
79
122
51
42
26
56
53
24
132
41
140
14
19
7
30
9
129
2

>  <PUBCHEM_MMFF94_PARTIAL_CHARGES>  (1) 
60
1 -0.18
10 0.45
11 0.45
12 -0.05
13 0.27
14 0.27
15 0.27
16 0.27
17 -0.2
18 0.37
19 0.37
2 -0.18
20 0.37
21 0.37
22 0.05
23 -0.18
24 -0.11
25 0.1
26 0.1
27 -0.15
28 -0.15
29 -0.15
3 -0.81
30 -0.15
31 0.18
32 -0.15
33 0.18
34 -0.15
35 -0.15
36 -0.15
37 -0.15
38 -0.15
39 -0.15
4 -0.81
40 -0.15
41 -0.15
42 -0.15
43 -0.15
5 0.33
6 -0.84
64 0.15
65 0.15
66 0.15
67 0.15
68 0.15
69 0.15
7 -0.84
70 0.15
71 0.15
72 0.15
73 0.15
74 0.15
75 0.15
76 0.15
77 0.15
78 0.15
79 0.15
8 -0.33
80 0.15
9 -0.18

>  <PUBCHEM_EFFECTIVE_ROTOR_COUNT>  (1) 
9.4

>  <PUBCHEM_PHARMACOPHORE_FEATURES>  (1) 
12
1 3 cation
1 4 cation
1 5 cation
1 6 cation
1 7 cation
5 5 8 9 12 17 rings
6 22 29 30 35 36 37 rings
6 25 31 32 38 39 42 rings
6 26 33 34 40 41 43 rings
6 3 6 13 14 18 19 rings
6 4 7 15 16 20 21 rings
6 5 17 23 24 27 28 rings

>  <PUBCHEM_HEAVY_ATOM_COUNT>  (1) 
43

>  <PUBCHEM_ATOM_DEF_STEREO_COUNT>  (1) 
0

>  <PUBCHEM_ATOM_UDEF_STEREO_COUNT>  (1) 
0

>  <PUBCHEM_BOND_DEF_STEREO_COUNT>  (1) 
0

>  <PUBCHEM_BOND_UDEF_STEREO_COUNT>  (1) 
0

>  <PUBCHEM_ISOTOPIC_ATOM_COUNT>  (1) 
0

>  <PUBCHEM_COMPONENT_COUNT>  (1) 
1

>  <PUBCHEM_CACTVS_TAUTO_COUNT>  (1) 
1

>  <PUBCHEM_CONFORMER_ID>  (1) 
0000A77400000001

>  <PUBCHEM_MMFF94_ENERGY>  (1) 
152.2767

>  <PUBCHEM_FEATURE_SELFOVERLAP>  (1) 
61.013

>  <PUBCHEM_SHAPE_FINGERPRINT>  (1) 
10305334 12 17477484205933931356
11497681 19 18113341895320738446
117089 54 18335143085171880978
12202916 173 17773019866506838493
12988421 55 14619361063381080636
131258 38 18120083137969577822
1361 4 18259988188674383326
13782708 43 18113614586287273606
13947947 140 18260549974697650395
14068700 675 18336264535919047776
14400156 147 18333443235952542315
15064981 113 12757430489403862114
15448158 6 18335135453009500479
15475509 35 18194684993403021565
15513586 35 15190156144199487520
15803439 3 12757155675109376312
16989378 47 17095240362890398299
19315092 285 18334014995231857920
19319366 153 18054506078788877468
19438510 23 11959724975797386358
20587220 46 17608676112104684955
20775438 99 15937267736399171956
21033648 29 15626226775879889749
21796203 349 17917709153843590124
21987483 16 17195167467875318631
32027 91 18268140037140514735
4173938 188 18260543464544782936
484985 159 17828479172538990732
50009960 94 18341322397076977535
58260988 114 18193279577319687998
9896288 288 17556011386640742988
9981440 41 16410680880221533820

>  <PUBCHEM_SHAPE_MULTIPOLES>  (1) 
863.75
19.8
7.68
3.71
1.02
1.04
1.32
-42.5
-9.71
-0.73
-6.55
0.22
2.74
0.66

>  <PUBCHEM_SHAPE_SELFOVERLAP>  (1) 
1878.213

>  <PUBCHEM_SHAPE_VOLUME>  (1) 
468.1

>  <PUBCHEM_COORDINATE_TYPE>  (1) 
2
5
10

$$$$
