42871
     RDKit          3D

 42 48  0  0  0  0  0  0  0  0999 V2000
    3.2812   -1.0735    0.5821 N   0  0  0  0  0  0  0  0  0  0  0  0
   -3.3037   -1.0638    0.5579 N   0  0  0  0  0  0  0  0  0  0  0  0
   -0.7478   -1.3720    1.8510 N   0  0  0  0  0  0  0  0  0  0  0  0
    4.9265    1.0687   -0.3470 N   0  0  0  0  0  0  0  0  0  0  0  0
   -4.9216    1.1101   -0.3453 N   0  0  0  0  0  0  0  0  0  0  0  0
    1.1090   -2.0831    0.8162 C   0  0  0  0  0  0  0  0  0  0  0  0
   -1.1456   -2.1122    0.7609 C   0  0  0  0  0  0  0  0  0  0  0  0
    2.5272   -2.3218    0.4728 C   0  0  0  0  0  0  0  0  0  0  0  0
   -2.5764   -2.3268    0.4370 C   0  0  0  0  0  0  0  0  0  0  0  0
   -0.0189   -2.5620    0.1067 C   0  0  0  0  0  0  0  0  0  0  0  0
    0.6413   -1.3522    1.8876 C   0  0  0  0  0  0  0  0  0  0  0  0
    4.7012   -1.3022    0.2874 C   0  0  0  0  0  0  0  0  0  0  0  0
    2.7381   -0.0620   -0.3328 C   0  0  0  0  0  0  0  0  0  0  0  0
   -4.7320   -1.2638    0.2843 C   0  0  0  0  0  0  0  0  0  0  0  0
   -2.7539   -0.0628   -0.3647 C   0  0  0  0  0  0  0  0  0  0  0  0
    5.5108   -0.0142    0.4541 C   0  0  0  0  0  0  0  0  0  0  0  0
    3.4827    1.2675   -0.1879 C   0  0  0  0  0  0  0  0  0  0  0  0
   -5.5143    0.0398    0.4624 C   0  0  0  0  0  0  0  0  0  0  0  0
   -3.4697    1.2808   -0.2070 C   0  0  0  0  0  0  0  0  0  0  0  0
   -0.0740   -3.3696   -1.0798 C   0  0  0  0  0  0  0  0  0  0  0  0
    1.2632   -0.6320    2.9487 C   0  0  0  0  0  0  0  0  0  0  0  0
   -1.5416   -0.7256    2.7962 C   0  0  0  0  0  0  0  0  0  0  0  0
    5.7439    2.1543   -0.6809 C   0  0  0  0  0  0  0  0  0  0  0  0
   -5.6867    2.2334   -0.6782 C   0  0  0  0  0  0  0  0  0  0  0  0
    0.5055   -0.0005    3.8723 C   0  0  0  0  0  0  0  0  0  0  0  0
   -0.9537   -0.0476    3.7949 C   0  0  0  0  0  0  0  0  0  0  0  0
   -0.1042   -4.7600   -0.9758 C   0  0  0  0  0  0  0  0  0  0  0  0
   -0.0969   -2.7628   -2.3354 C   0  0  0  0  0  0  0  0  0  0  0  0
    1.0942    0.7705    5.0136 C   0  0  0  0  0  0  0  0  0  0  0  0
    5.4117    3.4638   -0.2795 C   0  0  0  0  0  0  0  0  0  0  0  0
    6.9240    1.9709   -1.4292 C   0  0  0  0  0  0  0  0  0  0  0  0
   -5.4608    2.9360   -1.8787 C   0  0  0  0  0  0  0  0  0  0  0  0
   -6.7064    2.6963    0.1775 C   0  0  0  0  0  0  0  0  0  0  0  0
   -0.1572   -5.5443   -2.1281 C   0  0  0  0  0  0  0  0  0  0  0  0
   -0.1500   -3.5472   -3.4876 C   0  0  0  0  0  0  0  0  0  0  0  0
   -0.1802   -4.9379   -3.3839 C   0  0  0  0  0  0  0  0  0  0  0  0
    6.2263    4.5458   -0.6130 C   0  0  0  0  0  0  0  0  0  0  0  0
    7.7386    3.0530   -1.7625 C   0  0  0  0  0  0  0  0  0  0  0  0
   -6.2233    4.0561   -2.2101 C   0  0  0  0  0  0  0  0  0  0  0  0
   -7.4690    3.8163   -0.1540 C   0  0  0  0  0  0  0  0  0  0  0  0
    7.3898    4.3405   -1.3544 C   0  0  0  0  0  0  0  0  0  0  0  0
   -7.2273    4.4961   -1.3478 C   0  0  0  0  0  0  0  0  0  0  0  0
  1  8  1  0
  1 12  1  0
  1 13  1  0
  2  9  1  0
  2 14  1  0
  2 15  1  0
  3  7  1  0
  3 11  1  0
  3 22  1  0
  4 16  1  0
  4 17  1  0
  4 23  1  0
  5 18  1  0
  5 19  1  0
  5 24  1  0
  6  8  1  0
  6 10  1  0
  6 11  2  0
  7  9  1  0
  7 10  2  0
 10 20  1  0
 11 21  1  0
 12 16  1  0
 13 17  1  0
 14 18  1  0
 15 19  1  0
 20 27  2  0
 20 28  1  0
 21 25  2  0
 22 26  2  0
 23 30  2  0
 23 31  1  0
 24 32  2  0
 24 33  1  0
 25 26  1  0
 25 29  1  0
 27 34  1  0
 28 35  2  0
 30 37  1  0
 31 38  2  0
 32 39  1  0
 33 40  2  0
 34 36  2  0
 35 36  1  0
 37 41  2  0
 38 41  1  0
 39 42  2  0
 40 42  1  0
M  END
>  <PUBCHEM_COMPOUND_CID>  (1) 
42871

>  <PUBCHEM_CONFORMER_RMSD>  (1) 
1.2

>  <PUBCHEM_CONFORMER_DIVERSEORDER>  (1) 
1
19
44
17
22
11
24
45
33
38
47
31
46
30
39
37
28
4
10
3
27
43
23
32
41
20
34
14
35
40
12
36
15
18
25
42
9
16
29
13
5
26
21
8
6
7
2

>  <PUBCHEM_MMFF94_PARTIAL_CHARGES>  (1) 
60
1 -0.81
10 -0.05
11 -0.2
12 0.27
13 0.27
14 0.27
15 0.27
16 0.37
17 0.37
18 0.37
19 0.37
2 -0.81
20 0.05
21 -0.11
22 -0.18
23 0.1
24 0.1
25 -0.14
26 -0.15
27 -0.15
28 -0.15
29 0.14
3 0.33
30 -0.15
31 -0.15
32 -0.15
33 -0.15
34 -0.15
35 -0.15
36 -0.15
37 -0.15
38 -0.15
39 -0.15
4 -0.84
40 -0.15
41 -0.15
42 -0.15
5 -0.84
6 -0.18
63 0.15
64 0.15
65 0.15
66 0.15
67 0.15
7 -0.33
71 0.15
72 0.15
73 0.15
74 0.15
75 0.15
76 0.15
77 0.15
78 0.15
79 0.15
8 0.45
80 0.15
81 0.15
82 0.15
83 0.15
9 0.45

>  <PUBCHEM_EFFECTIVE_ROTOR_COUNT>  (1) 
9.4

>  <PUBCHEM_PHARMACOPHORE_FEATURES>  (1) 
12
1 1 cation
1 2 cation
1 3 cation
1 4 cation
1 5 cation
5 3 6 7 10 11 rings
6 1 4 12 13 16 17 rings
6 2 5 14 15 18 19 rings
6 20 27 28 34 35 36 rings
6 23 30 31 37 38 41 rings
6 24 32 33 39 40 42 rings
6 3 11 21 22 25 26 rings

>  <PUBCHEM_HEAVY_ATOM_COUNT>  (1) 
42

>  <PUBCHEM_ATOM_DEF_STEREO_COUNT>  (1) 
0

>  <PUBCHEM_ATOM_UDEF_STEREO_COUNT>  (1) 
0

>  <PUBCHEM_BOND_DEF_STEREO_COUNT>  (1) 
0

>  <PUBCHEM_BOND_UDEF_STEREO_COUNT>  (1) 
0

>  <PUBCHEM_ISOTOPIC_ATOM_COUNT>  (1) 
0

>  <PUBCHEM_COMPONENT_COUNT>  (1) 
1

>  <PUBCHEM_CACTVS_TAUTO_COUNT>  (1) 
1

>  <PUBCHEM_CONFORMER_ID>  (1) 
0000A77700000001

>  <PUBCHEM_MMFF94_ENERGY>  (1) 
145.2432

>  <PUBCHEM_FEATURE_SELFOVERLAP>  (1) 
61.012

>  <PUBCHEM_SHAPE_FINGERPRINT>  (1) 
10673678 19 18340488855308668851
10985338 8 18336817611426216233
11093857 51 18057304129199903569
11505856 67 18266448996377795775
11621639 254 18196370553592254317
11621639 307 18122899000681873124
11828422 8 18337678490361021382
13149001 5 16915930958328924178
13636023 51 18052251796594468775
13690498 29 17269203052828897254
13726171 33 18261115154192571617
13911987 19 17774738552755756099
14705955 166 16951988351134325681
15064981 113 17631750309133454564
15198563 99 17767115772116882831
15705408 1 16909776682795486406
15803439 3 17703791435396728494
15950262 2 18113621178993449264
16114785 44 18043532918229978790
17899979 129 18340774719362459933
19053607 189 18334848463906958528
19309040 13 18260261949710495166
19438510 23 17821730558845680136
20775438 99 15553863599355678738
21792965 106 17757557722560183780
23191077 185 18263913483745635202
25025965 108 14619419342024760580
2838139 119 18260264148596574810
3534868 343 16984620469520892919
4112364 45 17458894938789641121
44249763 50 17914330441006438200
44802255 64 18269289026517319158
50009960 94 8790594897936102809
57527358 35 18186800292357279122
58260988 114 9798876760204598276
5951187 136 18190178971223834965
6677587 24 18120068634001780245

>  <PUBCHEM_SHAPE_MULTIPOLES>  (1) 
839.44
18.7
7.76
3.91
2.13
1.21
-4.14
-41.6
11.79
-0.94
9
0.17
2.06
-0.01

>  <PUBCHEM_SHAPE_SELFOVERLAP>  (1) 
1841.238

>  <PUBCHEM_SHAPE_VOLUME>  (1) 
446.4

>  <PUBCHEM_COORDINATE_TYPE>  (1) 
2
5
10

$$$$
