42878
     RDKit          3D

 29 33  0  0  0  0  0  0  0  0999 V2000
   -0.6315    0.0463   -1.1341 N   0  0  0  0  0  0  0  0  0  0  0  0
   -3.3267   -0.3176   -0.2606 N   0  0  0  0  0  0  0  0  0  0  0  0
    2.8202    2.1006    0.3417 N   0  0  0  0  0  0  0  0  0  0  0  0
   -0.9303   -0.1614    0.2880 C   0  0  0  0  0  0  0  0  0  0  0  0
   -1.5841   -0.7065   -1.9597 C   0  0  0  0  0  0  0  0  0  0  0  0
    0.7407   -0.3602   -1.4348 C   0  0  0  0  0  0  0  0  0  0  0  0
   -2.3456    0.3127    0.6280 C   0  0  0  0  0  0  0  0  0  0  0  0
   -3.0205   -0.2496   -1.6951 C   0  0  0  0  0  0  0  0  0  0  0  0
    1.7464    0.4261   -0.6366 C   0  0  0  0  0  0  0  0  0  0  0  0
    2.8535   -0.1116    0.0312 C   0  0  0  0  0  0  0  0  0  0  0  0
    1.7226    1.7755   -0.4494 C   0  0  0  0  0  0  0  0  0  0  0  0
    3.5066    0.9433    0.6316 C   0  0  0  0  0  0  0  0  0  0  0  0
   -4.6711   -0.3794    0.1226 C   0  0  0  0  0  0  0  0  0  0  0  0
    3.3057   -1.4709    0.1327 C   0  0  0  0  0  0  0  0  0  0  0  0
    0.8723    2.8414   -0.8639 C   0  0  0  0  0  0  0  0  0  0  0  0
    3.1139    3.4060    0.7370 C   0  0  0  0  0  0  0  0  0  0  0  0
    4.7341    0.9461    1.4625 C   0  0  0  0  0  0  0  0  0  0  0  0
   -5.2370    0.6126    0.9485 C   0  0  0  0  0  0  0  0  0  0  0  0
   -5.4999   -1.4357   -0.3056 C   0  0  0  0  0  0  0  0  0  0  0  0
    1.1538    4.1026   -0.4840 C   0  0  0  0  0  0  0  0  0  0  0  0
    2.3095    4.4069    0.3436 C   0  0  0  0  0  0  0  0  0  0  0  0
    4.1967   -1.9816   -0.8111 C   0  0  0  0  0  0  0  0  0  0  0  0
    2.8538   -2.2800    1.1750 C   0  0  0  0  0  0  0  0  0  0  0  0
   -6.5770    0.5505    1.3309 C   0  0  0  0  0  0  0  0  0  0  0  0
   -6.8399   -1.4977    0.0767 C   0  0  0  0  0  0  0  0  0  0  0  0
    4.6357   -3.3019   -0.7128 C   0  0  0  0  0  0  0  0  0  0  0  0
    3.2929   -3.6003    1.2734 C   0  0  0  0  0  0  0  0  0  0  0  0
   -7.3784   -0.5046    0.8950 C   0  0  0  0  0  0  0  0  0  0  0  0
    4.1838   -4.1113    0.3294 C   0  0  0  0  0  0  0  0  0  0  0  0
  1  4  1  0
  1  5  1  0
  1  6  1  0
  2  7  1  0
  2  8  1  0
  2 13  1  0
  3 11  1  0
  3 12  1  0
  3 16  1  0
  4  7  1  0
  5  8  1  0
  6  9  1  0
  9 10  1  0
  9 11  2  0
 10 12  2  0
 10 14  1  0
 11 15  1  0
 12 17  1  0
 13 18  2  0
 13 19  1  0
 14 22  2  0
 14 23  1  0
 15 20  2  0
 16 21  2  0
 18 24  1  0
 19 25  2  0
 20 21  1  0
 22 26  1  0
 23 27  2  0
 24 28  2  0
 25 28  1  0
 26 29  2  0
 27 29  1  0
M  END
>  <PUBCHEM_COMPOUND_CID>  (1) 
42878

>  <PUBCHEM_CONFORMER_RMSD>  (1) 
0.8

>  <PUBCHEM_CONFORMER_DIVERSEORDER>  (1) 
1
21
25
24
14
20
19
11
3
16
18
10
9
13
12
22
7
4
2
15
17
23
5
8
6

>  <PUBCHEM_MMFF94_PARTIAL_CHARGES>  (1) 
43
1 -0.81
10 -0.05
11 -0.2
12 -0.33
13 0.1
14 0.05
15 -0.11
16 -0.18
17 0.18
18 -0.15
19 -0.15
2 -0.84
20 -0.15
21 -0.15
22 -0.15
23 -0.15
24 -0.15
25 -0.15
26 -0.15
27 -0.15
28 -0.15
29 -0.15
3 0.33
4 0.27
40 0.15
41 0.15
45 0.15
46 0.15
47 0.15
48 0.15
49 0.15
5 0.27
50 0.15
51 0.15
52 0.15
53 0.15
54 0.15
55 0.15
56 0.15
6 0.45
7 0.37
8 0.37
9 -0.18

>  <PUBCHEM_EFFECTIVE_ROTOR_COUNT>  (1) 
5.2

>  <PUBCHEM_PHARMACOPHORE_FEATURES>  (1) 
8
1 1 cation
1 2 cation
1 3 cation
5 3 9 10 11 12 rings
6 1 2 4 5 7 8 rings
6 13 18 19 24 25 28 rings
6 14 22 23 26 27 29 rings
6 3 11 15 16 20 21 rings

>  <PUBCHEM_HEAVY_ATOM_COUNT>  (1) 
29

>  <PUBCHEM_ATOM_DEF_STEREO_COUNT>  (1) 
0

>  <PUBCHEM_ATOM_UDEF_STEREO_COUNT>  (1) 
0

>  <PUBCHEM_BOND_DEF_STEREO_COUNT>  (1) 
0

>  <PUBCHEM_BOND_UDEF_STEREO_COUNT>  (1) 
0

>  <PUBCHEM_ISOTOPIC_ATOM_COUNT>  (1) 
0

>  <PUBCHEM_COMPONENT_COUNT>  (1) 
1

>  <PUBCHEM_CACTVS_TAUTO_COUNT>  (1) 
1

>  <PUBCHEM_CONFORMER_ID>  (1) 
0000A77E00000001

>  <PUBCHEM_MMFF94_ENERGY>  (1) 
91.5574

>  <PUBCHEM_FEATURE_SELFOVERLAP>  (1) 
40.703

>  <PUBCHEM_SHAPE_FINGERPRINT>  (1) 
10190108 129 18412542107667586168
10411042 1 18266742377261962430
10816530 23 18048036568980317243
10951579 204 16372106851702849023
11103572 95 18043828679149905267
114674 6 18114177549342141386
12107183 9 18197789804245451857
12166972 35 18272939293267184731
12422481 6 17703226183762465093
12553582 1 18268416942103445198
12788726 201 17977106756630748694
13140716 1 18050274062748685476
13533116 47 18408046221374016211
1361 2 18408604755790535883
13673619 4 17895761690282299303
13782708 43 17749107764797953867
13785724 45 18198633141736441950
13911852 28 18263924328453771767
13955234 65 18338796826782157480
14114211 80 17613451355460502461
15081414 286 18411410714075507108
15142526 21 17764866188231826473
15183329 4 12180105594123364367
15250474 111 18056751255694030751
15392192 104 17679031645505674025
15439362 3 17980485886776554412
15950262 2 15408061889461250016
16992752 21 18122918530093437590
16992787 43 18339090371746046356
1813 80 18199475372407732262
19319366 153 18055914544102856929
20505436 4 17772755106935747180
20511986 3 17774431806539479353
20739085 24 18272091569759984278
21033648 29 17386272303755587845
21049683 271 18334584534134519356
21304303 282 7851560256350463424
21344244 78 18272639134971980608
21421861 104 18342166774566698952
21814621 53 18114188536765069225
22033318 11 18057066639616658089
23559900 14 17749685089821863335
23845131 108 17832700553922756000
244849 19 17969200322907056749
3117164 225 18339925922793540517
3178227 256 18335412526556985592
3421961 26 18410008819348404442
3680242 22 18272664441541520513
4073 2 18191311679049805547
4144715 1 18261117374837985985
4516262 110 18196363943364201373
46194498 28 17240771691614302158
5104073 3 18200889435077559451
5309563 4 18265330603846932670
57816373 69 18341331089779944671
6086070 43 18264477405025998501
6697151 62 18194375854610269757
70251023 43 18196098751109324930
77296 10 18337114557677032307
7970288 3 18193272992529337594
86090 222 17385447613752002963

>  <PUBCHEM_SHAPE_MULTIPOLES>  (1) 
581.86
15.1
4.95
1.42
32.28
2.14
0.25
-8.95
-5.38
-10.38
-0.63
0.24
-0.24
-0.17

>  <PUBCHEM_SHAPE_SELFOVERLAP>  (1) 
1281.657

>  <PUBCHEM_SHAPE_VOLUME>  (1) 
311.4

>  <PUBCHEM_COORDINATE_TYPE>  (1) 
2
5
10

$$$$
