42879
     RDKit          3D

 23 28  0  0  1  0  0  0  0  0999 V2000
   -3.1689   -2.0426   -0.7079 O   0  0  0  0  0  0  0  0  0  0  0  0
   -4.1543    0.2092   -1.8018 O   0  0  0  0  0  0  0  0  0  0  0  0
   -3.6840    1.4469    1.5959 O   0  0  0  0  0  0  0  0  0  0  0  0
   -3.9594   -1.2028    0.1406 C   0  0  0  0  0  0  0  0  0  0  0  0
   -2.5271   -1.5441    0.4754 C   0  0  0  0  0  0  0  0  0  0  0  0
   -4.2695    0.1679   -0.3801 C   0  0  0  0  0  0  0  0  0  0  0  0
   -1.4678   -0.4816    0.2860 C   0  0  0  0  0  0  0  0  0  0  0  0
   -3.3437    1.2349    0.2275 C   0  0  0  0  0  0  0  0  0  0  0  0
   -1.8725    0.8691    0.1709 C   0  0  0  0  0  0  0  0  0  0  0  0
   -0.0812   -0.7918    0.2173 C   0  0  0  0  0  0  0  0  0  0  0  0
    0.8700    0.2497    0.0622 C   0  0  0  0  0  0  0  0  0  0  0  0
   -0.9212    1.8869    0.0292 C   0  0  0  0  0  0  0  0  0  0  0  0
    0.4439    1.5932   -0.0278 C   0  0  0  0  0  0  0  0  0  0  0  0
    2.2589   -0.0434   -0.0027 C   0  0  0  0  0  0  0  0  0  0  0  0
    0.4010   -2.1126    0.2962 C   0  0  0  0  0  0  0  0  0  0  0  0
    2.7060   -1.3807    0.0831 C   0  0  0  0  0  0  0  0  0  0  0  0
    3.2034    1.0005   -0.1533 C   0  0  0  0  0  0  0  0  0  0  0  0
    1.3920    2.6146   -0.1757 C   0  0  0  0  0  0  0  0  0  0  0  0
    1.7656   -2.4030    0.2311 C   0  0  0  0  0  0  0  0  0  0  0  0
    2.7540    2.3225   -0.2377 C   0  0  0  0  0  0  0  0  0  0  0  0
    4.0795   -1.6585    0.0176 C   0  0  0  0  0  0  0  0  0  0  0  0
    4.5706    0.6932   -0.2154 C   0  0  0  0  0  0  0  0  0  0  0  0
    5.0046   -0.6276   -0.1305 C   0  0  0  0  0  0  0  0  0  0  0  0
  1  4  1  0
  1  5  1  0
  2  6  1  0
  3  8  1  0
  4  5  1  0
  4  6  1  0
  5  7  1  0
  6  8  1  0
  7  9  2  0
  7 10  1  0
  8  9  1  0
  9 12  1  0
 10 11  2  0
 10 15  1  0
 11 13  1  0
 11 14  1  0
 12 13  2  0
 13 18  1  0
 14 16  2  0
 14 17  1  0
 15 19  2  0
 16 19  1  0
 16 21  1  0
 17 20  1  0
 17 22  2  0
 18 20  2  0
 21 23  2  0
 22 23  1  0
M  END
>  <PUBCHEM_COMPOUND_CID>  (1) 
42879

>  <PUBCHEM_CONFORMER_RMSD>  (1) 
0.6

>  <PUBCHEM_CONFORMER_DIVERSEORDER>  (1) 
1
2

>  <PUBCHEM_MMFF94_PARTIAL_CHARGES>  (1) 
29
1 -0.3
12 -0.15
15 -0.15
18 -0.15
19 -0.15
2 -0.68
20 -0.15
21 -0.15
22 -0.15
23 -0.15
24 0.1
25 0.1
28 0.15
29 0.4
3 -0.68
30 0.15
31 0.4
32 0.15
33 0.15
34 0.15
35 0.15
36 0.15
37 0.15
4 -0.05
5 0.08
6 0.38
7 -0.03
8 0.42
9 -0.14

>  <PUBCHEM_EFFECTIVE_ROTOR_COUNT>  (1) 
0.6

>  <PUBCHEM_PHARMACOPHORE_FEATURES>  (1) 
10
1 1 acceptor
1 2 acceptor
1 2 donor
1 3 acceptor
1 3 donor
6 10 11 14 15 16 19 rings
6 11 13 14 17 18 20 rings
6 14 16 17 21 22 23 rings
6 7 9 10 11 12 13 rings
7 1 4 5 6 7 8 9 rings

>  <PUBCHEM_HEAVY_ATOM_COUNT>  (1) 
23

>  <PUBCHEM_ATOM_DEF_STEREO_COUNT>  (1) 
4

>  <PUBCHEM_ATOM_UDEF_STEREO_COUNT>  (1) 
0

>  <PUBCHEM_BOND_DEF_STEREO_COUNT>  (1) 
0

>  <PUBCHEM_BOND_UDEF_STEREO_COUNT>  (1) 
0

>  <PUBCHEM_ISOTOPIC_ATOM_COUNT>  (1) 
0

>  <PUBCHEM_COMPONENT_COUNT>  (1) 
1

>  <PUBCHEM_CACTVS_TAUTO_COUNT>  (1) 
1

>  <PUBCHEM_CONFORMER_ID>  (1) 
0000A77F00000001

>  <PUBCHEM_MMFF94_ENERGY>  (1) 
74.4746

>  <PUBCHEM_FEATURE_SELFOVERLAP>  (1) 
50.893

>  <PUBCHEM_SHAPE_FINGERPRINT>  (1) 
10062212 137 18413106173426085907
10616163 171 18413393141755788367
10967382 1 18337112263710587946
11471102 20 18408601461723783244
11578080 2 16879901942366315958
12011746 2 18408606963835358982
12236239 1 18060700568189901657
12553582 1 18264490594010519874
12596599 1 17916325890768948718
13140716 1 18410022051810412465
13224815 77 18334859428372025451
13583140 156 16660644055110420057
138480 1 18410013273335661020
13862211 1 18336543820742233218
13944108 23 16457667324329330229
14790565 3 18264500644883664012
15196674 1 18410014347082006264
15230672 131 13433790265437448619
15442244 35 18411422782437561280
15536298 74 18342176691482635472
15788980 27 17240482498554713136
15848702 151 18201444640418916806
1601671 61 18410295787799231282
16945 1 18336545993288608401
17349148 13 18413101766694512881
17492 89 18339926020908661375
18186145 218 18260828206619721508
19591789 44 18337674234147942498
200 152 18202560691981333309
20691752 17 17894348886760075928
20775438 99 16258936653481043903
21033648 29 17531237357984122605
21267235 1 18410865364444468459
21421861 104 17825105900892594866
221357 26 18336253618365239989
221490 88 18263369242527038066
22393880 68 18188757431728309943
2334 1 18265618856101986888
23402539 116 18413103953455592598
23559900 14 18339636845477108064
2748010 2 18191593153456517872
2871803 45 18335979792366684406
335352 9 18337674105093000733
34934 24 18336543794391985899
350125 39 18410299129373523545
352729 6 17399239036911497640
3680242 22 18189052002097190754
4214541 1 18411420600773464401
4280585 95 17624706656968255862
46194498 28 17531805882836522253
474 4 18261395576152486786
5104073 3 18410857668184445098
602551 16 15625646314932853124
9709674 26 18263648518396201050
9981440 41 17473539630533916744

>  <PUBCHEM_SHAPE_MULTIPOLES>  (1) 
455.72
8.99
2.71
0.85
0.29
0.17
0.07
-0.91
0.97
-0.86
-0.09
0.85
0.09
-0.46

>  <PUBCHEM_SHAPE_SELFOVERLAP>  (1) 
1065.266

>  <PUBCHEM_SHAPE_VOLUME>  (1) 
231.3

>  <PUBCHEM_COORDINATE_TYPE>  (1) 
2
5
10

$$$$
