42877
     RDKit          3D

 33 38  0  0  0  0  0  0  0  0999 V2000
    1.5203   -0.9602    2.0432 N   0  0  0  0  0  0  0  0  0  0  0  0
   -1.4570    0.9210    2.0503 N   0  0  0  0  0  0  0  0  0  0  0  0
    3.2918   -0.6008   -1.7384 N   0  0  0  0  0  0  0  0  0  0  0  0
   -3.3494    0.6365   -1.6789 N   0  0  0  0  0  0  0  0  0  0  0  0
    0.0604   -0.0507    3.7503 C   0  0  0  0  0  0  0  0  0  0  0  0
    1.3171    0.1570    2.9031 C   0  0  0  0  0  0  0  0  0  0  0  0
   -1.2045   -0.2305    2.9080 C   0  0  0  0  0  0  0  0  0  0  0  0
    2.1210   -0.8382    0.7608 C   0  0  0  0  0  0  0  0  0  0  0  0
   -2.0791    0.8274    0.8244 C   0  0  0  0  0  0  0  0  0  0  0  0
    2.9026    0.2833    0.4652 C   0  0  0  0  0  0  0  0  0  0  0  0
   -2.8818   -0.2958    0.4893 C   0  0  0  0  0  0  0  0  0  0  0  0
    1.9255   -1.8408   -0.1943 C   0  0  0  0  0  0  0  0  0  0  0  0
   -1.9417    1.8507   -0.1514 C   0  0  0  0  0  0  0  0  0  0  0  0
    3.4770    0.3621   -0.8147 C   0  0  0  0  0  0  0  0  0  0  0  0
   -3.4973   -0.3491   -0.7726 C   0  0  0  0  0  0  0  0  0  0  0  0
    2.5382   -1.6789   -1.4484 C   0  0  0  0  0  0  0  0  0  0  0  0
   -2.5940    1.7134   -1.3883 C   0  0  0  0  0  0  0  0  0  0  0  0
    3.1160    1.3058    1.4060 C   0  0  0  0  0  0  0  0  0  0  0  0
   -3.0570   -1.3417    1.4121 C   0  0  0  0  0  0  0  0  0  0  0  0
    1.1452   -2.9786    0.0757 C   0  0  0  0  0  0  0  0  0  0  0  0
   -1.1608    2.9877    0.1197 C   0  0  0  0  0  0  0  0  0  0  0  0
    4.2562    1.4762   -1.1152 C   0  0  0  0  0  0  0  0  0  0  0  0
   -4.2783   -1.4619   -1.0737 C   0  0  0  0  0  0  0  0  0  0  0  0
    2.3472   -2.6737   -2.4037 C   0  0  0  0  0  0  0  0  0  0  0  0
   -2.4416    2.7318   -2.3254 C   0  0  0  0  0  0  0  0  0  0  0  0
    3.8993    2.4092    1.0807 C   0  0  0  0  0  0  0  0  0  0  0  0
   -3.8428   -2.4432    1.0866 C   0  0  0  0  0  0  0  0  0  0  0  0
    0.9698   -3.9587   -0.8965 C   0  0  0  0  0  0  0  0  0  0  0  0
   -1.0244    3.9918   -0.8343 C   0  0  0  0  0  0  0  0  0  0  0  0
    4.4704    2.4942   -0.1826 C   0  0  0  0  0  0  0  0  0  0  0  0
   -4.4545   -2.5031   -0.1590 C   0  0  0  0  0  0  0  0  0  0  0  0
    1.5723   -3.8056   -2.1388 C   0  0  0  0  0  0  0  0  0  0  0  0
   -1.6663    3.8631   -2.0593 C   0  0  0  0  0  0  0  0  0  0  0  0
  1  6  1  0
  1  8  1  0
  2  7  1  0
  2  9  1  0
  3 14  2  0
  3 16  1  0
  4 15  2  0
  4 17  1  0
  5  6  1  0
  5  7  1  0
  8 10  2  0
  8 12  1  0
  9 11  2  0
  9 13  1  0
 10 14  1  0
 10 18  1  0
 11 15  1  0
 11 19  1  0
 12 16  2  0
 12 20  1  0
 13 17  2  0
 13 21  1  0
 14 22  1  0
 15 23  1  0
 16 24  1  0
 17 25  1  0
 18 26  2  0
 19 27  2  0
 20 28  2  0
 21 29  2  0
 22 30  2  0
 23 31  2  0
 24 32  2  0
 25 33  2  0
 26 30  1  0
 27 31  1  0
 28 32  1  0
 29 33  1  0
M  END
>  <PUBCHEM_COMPOUND_CID>  (1) 
42877

>  <PUBCHEM_CONFORMER_RMSD>  (1) 
0.8

>  <PUBCHEM_CONFORMER_DIVERSEORDER>  (1) 
1
3
10
7
9
4
2
5
6
8

>  <PUBCHEM_MMFF94_PARTIAL_CHARGES>  (1) 
46
1 -0.87
14 0.31
15 0.31
16 0.31
17 0.31
18 -0.15
19 -0.15
2 -0.87
20 -0.15
21 -0.15
22 -0.15
23 -0.15
24 -0.15
25 -0.15
26 -0.15
27 -0.15
28 -0.15
29 -0.15
3 -0.62
30 -0.15
31 -0.15
32 -0.15
33 -0.15
4 -0.62
40 0.4
41 0.4
42 0.15
43 0.15
44 0.15
45 0.15
46 0.15
47 0.15
48 0.15
49 0.15
50 0.15
51 0.15
52 0.15
53 0.15
54 0.15
55 0.15
56 0.15
57 0.15
6 0.37
7 0.37
8 0.1
9 0.1

>  <PUBCHEM_EFFECTIVE_ROTOR_COUNT>  (1) 
6

>  <PUBCHEM_PHARMACOPHORE_FEATURES>  (1) 
12
1 1 cation
1 1 donor
1 2 cation
1 2 donor
1 3 acceptor
1 4 acceptor
6 10 14 18 22 26 30 rings
6 11 15 19 23 27 31 rings
6 12 16 20 24 28 32 rings
6 13 17 21 25 29 33 rings
6 3 8 10 12 14 16 rings
6 4 9 11 13 15 17 rings

>  <PUBCHEM_HEAVY_ATOM_COUNT>  (1) 
33

>  <PUBCHEM_ATOM_DEF_STEREO_COUNT>  (1) 
0

>  <PUBCHEM_ATOM_UDEF_STEREO_COUNT>  (1) 
0

>  <PUBCHEM_BOND_DEF_STEREO_COUNT>  (1) 
0

>  <PUBCHEM_BOND_UDEF_STEREO_COUNT>  (1) 
0

>  <PUBCHEM_ISOTOPIC_ATOM_COUNT>  (1) 
0

>  <PUBCHEM_COMPONENT_COUNT>  (1) 
1

>  <PUBCHEM_CACTVS_TAUTO_COUNT>  (1) 
3

>  <PUBCHEM_CONFORMER_ID>  (1) 
0000A77D00000001

>  <PUBCHEM_MMFF94_ENERGY>  (1) 
182.4659

>  <PUBCHEM_FEATURE_SELFOVERLAP>  (1) 
61.02

>  <PUBCHEM_SHAPE_FINGERPRINT>  (1) 
10032420 55 17098314683184655873
10838868 49 17537676187938038920
11672396 43 15791729719572374282
12107698 1 18041544876462894074
12128747 34 17748826333213560616
1361 2 18050007989013105869
13642711 20 16956157759603864873
14114206 34 16917350303343944208
14840074 17 18121503715582046789
14918310 93 18048580801972917743
15274700 242 14585040314473511929
15403338 16 16917080975051360443
15664445 248 18334576897381830313
15975801 100 18194661865130603404
19311894 1 14348090696753253422
20775438 99 17979320146351284269
235170 7 18411982489611403287
238 59 18341890732554864670
25265897 201 17830717777743449587
3493558 16 14418691562110675043
469060 322 17982420966388159743
550186 7 17461474513986468116
6287921 2 18125752129505829656
86090 222 17270857757504037319

>  <PUBCHEM_SHAPE_MULTIPOLES>  (1) 
659.2
8.11
5.04
3.08
0
0.16
1.94
0.16
-1.86
-0.18
-3.74
0.11
-0.11
2.75

>  <PUBCHEM_SHAPE_SELFOVERLAP>  (1) 
1497.988

>  <PUBCHEM_SHAPE_VOLUME>  (1) 
337.5

>  <PUBCHEM_COORDINATE_TYPE>  (1) 
2
5
10

$$$$
