42876
     RDKit          3D

 32 37  0  0  0  0  0  0  0  0999 V2000
    1.4696   -0.9499   -1.1804 N   0  0  0  0  0  0  0  0  0  0  0  0
   -1.2412   -0.2880   -0.5198 N   0  0  0  0  0  0  0  0  0  0  0  0
    5.0419    0.4101    0.5393 N   0  0  0  0  0  0  0  0  0  0  0  0
   -5.1564    0.6893    0.6133 N   0  0  0  0  0  0  0  0  0  0  0  0
    2.6809   -0.4888   -0.5972 C   0  0  0  0  0  0  0  0  0  0  0  0
   -2.5279    0.0331   -0.1476 C   0  0  0  0  0  0  0  0  0  0  0  0
    0.6139   -1.8846   -0.5304 C   0  0  0  0  0  0  0  0  0  0  0  0
   -0.8382   -1.6306   -0.9238 C   0  0  0  0  0  0  0  0  0  0  0  0
    3.2845   -1.2292    0.4243 C   0  0  0  0  0  0  0  0  0  0  0  0
   -3.6288   -0.7847   -0.5191 C   0  0  0  0  0  0  0  0  0  0  0  0
    3.2591    0.7016   -1.0499 C   0  0  0  0  0  0  0  0  0  0  0  0
   -2.8042    1.1947    0.6226 C   0  0  0  0  0  0  0  0  0  0  0  0
    4.4809   -0.7358    0.9716 C   0  0  0  0  0  0  0  0  0  0  0  0
   -4.9244   -0.4185   -0.1171 C   0  0  0  0  0  0  0  0  0  0  0  0
    4.4565    1.1194   -0.4449 C   0  0  0  0  0  0  0  0  0  0  0  0
   -4.1321    1.4834    0.9800 C   0  0  0  0  0  0  0  0  0  0  0  0
    2.7255   -2.4288    0.8986 C   0  0  0  0  0  0  0  0  0  0  0  0
   -3.4213   -1.9478   -1.2810 C   0  0  0  0  0  0  0  0  0  0  0  0
    2.6744    1.4656   -2.0748 C   0  0  0  0  0  0  0  0  0  0  0  0
   -1.7582    2.0448    1.0219 C   0  0  0  0  0  0  0  0  0  0  0  0
    5.0865   -1.4685    1.9889 C   0  0  0  0  0  0  0  0  0  0  0  0
   -5.9837   -1.2389   -0.4957 C   0  0  0  0  0  0  0  0  0  0  0  0
    5.0370    2.3037   -0.8912 C   0  0  0  0  0  0  0  0  0  0  0  0
   -4.3727    2.6284    1.7350 C   0  0  0  0  0  0  0  0  0  0  0  0
    3.3510   -3.1425    1.9166 C   0  0  0  0  0  0  0  0  0  0  0  0
   -4.4975   -2.7509   -1.6464 C   0  0  0  0  0  0  0  0  0  0  0  0
    3.2749    2.6458   -2.5029 C   0  0  0  0  0  0  0  0  0  0  0  0
   -2.0254    3.1833    1.7764 C   0  0  0  0  0  0  0  0  0  0  0  0
    4.5339   -2.6610    2.4626 C   0  0  0  0  0  0  0  0  0  0  0  0
   -5.7812   -2.3954   -1.2528 C   0  0  0  0  0  0  0  0  0  0  0  0
    4.4586    3.0654   -1.9096 C   0  0  0  0  0  0  0  0  0  0  0  0
   -3.3356    3.4753    2.1334 C   0  0  0  0  0  0  0  0  0  0  0  0
  1  5  1  0
  1  7  1  0
  2  6  1  0
  2  8  1  0
  3 13  2  0
  3 15  1  0
  4 14  2  0
  4 16  1  0
  5  9  2  0
  5 11  1  0
  6 10  2  0
  6 12  1  0
  7  8  1  0
  9 13  1  0
  9 17  1  0
 10 14  1  0
 10 18  1  0
 11 15  2  0
 11 19  1  0
 12 16  2  0
 12 20  1  0
 13 21  1  0
 14 22  1  0
 15 23  1  0
 16 24  1  0
 17 25  2  0
 18 26  2  0
 19 27  2  0
 20 28  2  0
 21 29  2  0
 22 30  2  0
 23 31  2  0
 24 32  2  0
 25 29  1  0
 26 30  1  0
 27 31  1  0
 28 32  1  0
M  END
>  <PUBCHEM_COMPOUND_CID>  (1) 
42876

>  <PUBCHEM_CONFORMER_RMSD>  (1) 
0.8

>  <PUBCHEM_CONFORMER_DIVERSEORDER>  (1) 
1
3
2

>  <PUBCHEM_MMFF94_PARTIAL_CHARGES>  (1) 
46
1 -0.87
13 0.31
14 0.31
15 0.31
16 0.31
17 -0.15
18 -0.15
19 -0.15
2 -0.87
20 -0.15
21 -0.15
22 -0.15
23 -0.15
24 -0.15
25 -0.15
26 -0.15
27 -0.15
28 -0.15
29 -0.15
3 -0.62
30 -0.15
31 -0.15
32 -0.15
37 0.4
38 0.4
39 0.15
4 -0.62
40 0.15
41 0.15
42 0.15
43 0.15
44 0.15
45 0.15
46 0.15
47 0.15
48 0.15
49 0.15
5 0.1
50 0.15
51 0.15
52 0.15
53 0.15
54 0.15
6 0.1
7 0.37
8 0.37

>  <PUBCHEM_EFFECTIVE_ROTOR_COUNT>  (1) 
5

>  <PUBCHEM_PHARMACOPHORE_FEATURES>  (1) 
12
1 1 cation
1 1 donor
1 2 cation
1 2 donor
1 3 acceptor
1 4 acceptor
6 10 14 18 22 26 30 rings
6 11 15 19 23 27 31 rings
6 12 16 20 24 28 32 rings
6 3 5 9 11 13 15 rings
6 4 6 10 12 14 16 rings
6 9 13 17 21 25 29 rings

>  <PUBCHEM_HEAVY_ATOM_COUNT>  (1) 
32

>  <PUBCHEM_ATOM_DEF_STEREO_COUNT>  (1) 
0

>  <PUBCHEM_ATOM_UDEF_STEREO_COUNT>  (1) 
0

>  <PUBCHEM_BOND_DEF_STEREO_COUNT>  (1) 
0

>  <PUBCHEM_BOND_UDEF_STEREO_COUNT>  (1) 
0

>  <PUBCHEM_ISOTOPIC_ATOM_COUNT>  (1) 
0

>  <PUBCHEM_COMPONENT_COUNT>  (1) 
1

>  <PUBCHEM_CACTVS_TAUTO_COUNT>  (1) 
3

>  <PUBCHEM_CONFORMER_ID>  (1) 
0000A77C00000001

>  <PUBCHEM_MMFF94_ENERGY>  (1) 
183.9012

>  <PUBCHEM_FEATURE_SELFOVERLAP>  (1) 
61.025

>  <PUBCHEM_SHAPE_FINGERPRINT>  (1) 
10319926 262 17773869797136598314
10369192 42 14907033059081786538
10670039 82 18130241414345300596
11049842 53 17844260531399002030
11059845 2 17769084645248785394
12166972 35 18260818298536442402
12788726 201 18272093850461880391
13636023 51 14707202254309940318
13726171 33 17774738527249762048
14739800 52 18200302347091540376
150020 26 14888528922758616072
15021287 119 18115866291870492450
15250474 111 18412260619046012937
15297060 5 17273442511291829853
15361156 5 16806166540918596236
17818456 19 18200030608283222570
19319366 153 18191299580032188342
19377110 9 18411422825756733403
20511986 3 18410003360355645149
21033650 10 17986700162627363278
21133410 230 15885476632447424396
2132832 1 18335408041756209246
21814621 53 17095239195281376663
22149856 69 17846233124827917739
23559900 14 17486505797434489551
25147074 1 18410013234237109781
3044373 193 16009033933985890679
38570 142 18043836336563935644
4149490 64 17603862347509327035
44280116 191 14182305027387527027
474144 1 18409737248508749864
6700243 42 17273997893839573389
6823239 73 17131841979718936768
9849439 229 17485095098589478473

>  <PUBCHEM_SHAPE_MULTIPOLES>  (1) 
638.62
15.02
4.37
2.37
4.29
1.41
-0.31
-1.69
-0.47
-0.16
-1.11
-1.61
0.69
-8.57

>  <PUBCHEM_SHAPE_SELFOVERLAP>  (1) 
1459.65

>  <PUBCHEM_SHAPE_VOLUME>  (1) 
324.6

>  <PUBCHEM_COORDINATE_TYPE>  (1) 
2
5
10

$$$$
