4288
     RDKit          3D

 22 23  0  0  0  0  0  0  0  0999 V2000
   -5.3785    0.4407   -0.4581 S   0  0  0  0  0  0  0  0  0  0  0  0
    3.5891    2.4640    0.8988 F   0  0  0  0  0  0  0  0  0  0  0  0
    3.2749   -2.1588   -0.1352 F   0  0  0  0  0  0  0  0  0  0  0  0
    0.6990   -2.1140    0.7788 O   0  0  0  0  0  0  0  0  0  0  0  0
   -6.0544   -0.7709   -0.9004 O   0  0  0  0  0  0  0  0  0  0  0  0
   -5.9344    1.2195    0.6396 O   0  0  0  0  0  0  0  0  0  0  0  0
    1.1314    0.1115    1.2653 N   0  0  0  0  0  0  0  0  0  0  0  0
   -5.1559    1.4703   -1.8034 N   0  0  0  0  0  0  0  0  0  0  0  0
    2.5282   -0.0574    1.5954 C   0  0  0  0  0  0  0  0  0  0  0  0
   -1.0815   -0.6055    0.5498 C   0  0  0  0  0  0  0  0  0  0  0  0
   -3.7242    0.0381   -0.0702 C   0  0  0  0  0  0  0  0  0  0  0  0
    3.4163    0.1491    0.4026 C   0  0  0  0  0  0  0  0  0  0  0  0
    0.2961   -0.9411    0.8732 C   0  0  0  0  0  0  0  0  0  0  0  0
   -1.8008   -1.3980   -0.3446 C   0  0  0  0  0  0  0  0  0  0  0  0
   -1.6836    0.5088    1.1344 C   0  0  0  0  0  0  0  0  0  0  0  0
   -3.1221   -1.0761   -0.6546 C   0  0  0  0  0  0  0  0  0  0  0  0
   -3.0050    0.8305    0.8244 C   0  0  0  0  0  0  0  0  0  0  0  0
    3.9033    1.4199    0.1195 C   0  0  0  0  0  0  0  0  0  0  0  0
    3.7433   -0.9326   -0.4067 C   0  0  0  0  0  0  0  0  0  0  0  0
    4.7287    1.6116   -0.9885 C   0  0  0  0  0  0  0  0  0  0  0  0
    4.5687   -0.7409   -1.5146 C   0  0  0  0  0  0  0  0  0  0  0  0
    5.0615    0.5312   -1.8055 C   0  0  0  0  0  0  0  0  0  0  0  0
  1  5  2  0
  1  6  2  0
  1  8  1  0
  1 11  1  0
  2 18  1  0
  3 19  1  0
  4 13  2  0
  7  9  1  0
  7 13  1  0
  9 12  1  0
 10 13  1  0
 10 14  2  0
 10 15  1  0
 11 16  2  0
 11 17  1  0
 12 18  2  0
 12 19  1  0
 14 16  1  0
 15 17  2  0
 18 20  1  0
 19 21  2  0
 20 22  2  0
 21 22  1  0
M  END
>  <PUBCHEM_COMPOUND_CID>  (1) 
4288

>  <PUBCHEM_CONFORMER_RMSD>  (1) 
0.8

>  <PUBCHEM_CONFORMER_DIVERSEORDER>  (1) 
1
8
12
26
13
24
2
27
23
18
21
19
4
20
7
22
11
16
17
15
9
25
14
3
10
6
5

>  <PUBCHEM_MMFF94_PARTIAL_CHARGES>  (1) 
32
1 1.45
10 0.09
11 -0.01
12 -0.14
13 0.54
14 -0.15
15 -0.15
16 -0.15
17 -0.15
18 0.19
19 0.19
2 -0.19
20 -0.15
21 -0.15
22 -0.15
25 0.37
26 0.15
27 0.15
28 0.15
29 0.15
3 -0.19
30 0.15
31 0.15
32 0.15
33 0.42
34 0.42
4 -0.57
5 -0.65
6 -0.65
7 -0.73
8 -0.98
9 0.44

>  <PUBCHEM_EFFECTIVE_ROTOR_COUNT>  (1) 
5

>  <PUBCHEM_PHARMACOPHORE_FEATURES>  (1) 
7
1 4 acceptor
1 5 acceptor
1 6 acceptor
1 7 donor
1 8 donor
6 10 11 14 15 16 17 rings
6 12 18 19 20 21 22 rings

>  <PUBCHEM_HEAVY_ATOM_COUNT>  (1) 
22

>  <PUBCHEM_ATOM_DEF_STEREO_COUNT>  (1) 
0

>  <PUBCHEM_ATOM_UDEF_STEREO_COUNT>  (1) 
0

>  <PUBCHEM_BOND_DEF_STEREO_COUNT>  (1) 
0

>  <PUBCHEM_BOND_UDEF_STEREO_COUNT>  (1) 
0

>  <PUBCHEM_ISOTOPIC_ATOM_COUNT>  (1) 
0

>  <PUBCHEM_COMPONENT_COUNT>  (1) 
1

>  <PUBCHEM_CACTVS_TAUTO_COUNT>  (1) 
2

>  <PUBCHEM_CONFORMER_ID>  (1) 
000010C000000001

>  <PUBCHEM_MMFF94_ENERGY>  (1) 
33.3968

>  <PUBCHEM_FEATURE_SELFOVERLAP>  (1) 
35.538

>  <PUBCHEM_SHAPE_FINGERPRINT>  (1) 
10378564 45 18342738473125896108
10498660 4 18334016120434181240
10670039 82 18262522494199382372
11128504 68 18273495684620993117
11796584 16 13542458761652123669
12363563 72 13901919899139945282
12596602 18 13262397769595560389
12616971 3 17895179000574659466
12633257 1 13190346802470000366
12670546 177 18202569475078742446
12730499 353 18261403247080687514
12892183 10 11819262374091741462
12954195 1 16701471056896784905
13782708 43 14045444697148901333
13955234 65 17023740105035931250
1420 369 11815901153939065380
14211702 104 11959427034528330181
14251740 57 9367352560859070088
14251751 18 14117508840310406765
14251764 75 15504374645319058924
14341114 328 13118289200069068940
14366163 111 18409166619021421472
14528608 73 18408601470245165495
14848178 5 12607401096342513677
15183329 4 17703795790904801169
15188451 53 11095888124811048517
15210252 30 17822299028386361020
15575132 122 18187364290704304285
15885798 251 10952054454661946674
16752209 62 16415207732468989994
17349148 13 13398637181518974373
17857418 61 11959731568814609197
17959699 21 18260825973526955893
1813 80 12319462099409693666
18222031 100 13758361080874210752
19377110 9 14346081966212385409
193927 3 13830143801321234750
19784866 240 13542470855826224819
1979834 28 11169907264889225968
20369508 70 15913323598561193914
20567600 234 14707214335699535327
20645477 70 15697997453243306354
21065199 12 11170178887516563558
22061861 79 16200431368929979589
221357 26 18202849837648828712
2215653 11 16773795887931176333
22289505 5 18335140882491351084
23503953 91 12179848329059441888
23559900 14 17774999132921650512
270888 7 16807025440442565876
2838139 119 17676201394479195700
29717793 49 16917353619005656512
3004659 81 17775569715279954166
3472631 163 17458914859016128390
34797466 226 18130790117860227237
463206 1 15051725395971978277
465052 167 14764631940513216548
474 4 18040439922905825368
5374978 207 11818992980694458714
53794403 172 17971480846940661301
542803 24 17894912919156018963
59682541 52 17561078064885716981
633830 44 18411975888252268891
7970288 3 13182755718679683132
8988823 20 10159686980620643914
960060 61 17203330030891181860
9841814 1 9799400170214787570

>  <PUBCHEM_SHAPE_MULTIPOLES>  (1) 
414.48
14.42
1.84
1.52
9.34
0.04
0.22
5.15
6.54
-1.14
0.02
-0.67
0.26
0.1

>  <PUBCHEM_SHAPE_SELFOVERLAP>  (1) 
877.989

>  <PUBCHEM_SHAPE_VOLUME>  (1) 
234.5

>  <PUBCHEM_COORDINATE_TYPE>  (1) 
2
5
10

$$$$
