42884
     RDKit          3D

 26 28  0  0  0  0  0  0  0  0999 V2000
   -0.3916    5.6792    0.4964 Cl  0  0  0  0  0  0  0  0  0  0  0  0
    1.4803   -2.0082   -0.2626 O   0  0  0  0  0  0  0  0  0  0  0  0
   -4.0912   -1.1924    0.0698 N   0  0  0  0  0  0  0  0  0  0  0  0
   -0.0007   -0.1603   -0.2946 N   0  0  0  0  0  0  0  0  0  0  0  0
   -1.2311   -0.8910   -0.4691 C   0  0  0  0  0  0  0  0  0  0  0  0
   -2.2879   -0.0315   -1.1634 C   0  0  0  0  0  0  0  0  0  0  0  0
   -1.7599   -1.3957    0.8732 C   0  0  0  0  0  0  0  0  0  0  0  0
   -3.6264   -0.7662   -1.2575 C   0  0  0  0  0  0  0  0  0  0  0  0
   -3.1162   -2.0845    0.7126 C   0  0  0  0  0  0  0  0  0  0  0  0
   -5.3951   -1.8475   -0.0308 C   0  0  0  0  0  0  0  0  0  0  0  0
   -6.4200   -0.8953   -0.6406 C   0  0  0  0  0  0  0  0  0  0  0  0
   -5.8366   -2.3149    1.3525 C   0  0  0  0  0  0  0  0  0  0  0  0
   -0.0979    1.2846   -0.0990 C   0  0  0  0  0  0  0  0  0  0  0  0
    1.2762   -0.7927   -0.2042 C   0  0  0  0  0  0  0  0  0  0  0  0
    2.4581    0.1619   -0.0684 C   0  0  0  0  0  0  0  0  0  0  0  0
    0.0288    2.0803   -1.1981 C   0  0  0  0  0  0  0  0  0  0  0  0
   -0.3082    1.7371    1.1695 C   0  0  0  0  0  0  0  0  0  0  0  0
    3.7918   -0.5422    0.0023 C   0  0  0  0  0  0  0  0  0  0  0  0
   -0.0634    3.4595   -1.0112 C   0  0  0  0  0  0  0  0  0  0  0  0
   -0.4005    3.1164    1.3565 C   0  0  0  0  0  0  0  0  0  0  0  0
   -0.2783    3.9776    0.2660 C   0  0  0  0  0  0  0  0  0  0  0  0
    4.2981   -0.9152    1.2373 C   0  0  0  0  0  0  0  0  0  0  0  0
    4.4850   -0.8034   -1.1689 C   0  0  0  0  0  0  0  0  0  0  0  0
    5.5301   -1.5659    1.3028 C   0  0  0  0  0  0  0  0  0  0  0  0
    5.7170   -1.4542   -1.1033 C   0  0  0  0  0  0  0  0  0  0  0  0
    6.2395   -1.8354    0.1325 C   0  0  0  0  0  0  0  0  0  0  0  0
  1 21  1  0
  2 14  2  0
  3  8  1  0
  3  9  1  0
  3 10  1  0
  4  5  1  0
  4 13  1  0
  4 14  1  0
  5  6  1  0
  5  7  1  0
  6  8  1  0
  7  9  1  0
 10 11  1  0
 10 12  1  0
 13 16  2  0
 13 17  1  0
 14 15  1  0
 15 18  1  0
 16 19  1  0
 17 20  2  0
 18 22  2  0
 18 23  1  0
 19 21  2  0
 20 21  1  0
 22 24  1  0
 23 25  2  0
 24 26  2  0
 25 26  1  0
M  END
>  <PUBCHEM_COMPOUND_CID>  (1) 
42884

>  <PUBCHEM_CONFORMER_RMSD>  (1) 
0.8

>  <PUBCHEM_CONFORMER_DIVERSEORDER>  (1) 
1
127
116
129
46
122
107
130
111
24
87
90
22
118
123
106
78
128
16
98
10
108
47
65
83
8
126
26
61
103
85
21
15
5
57
72
36
124
117
32
86
70
94
104
71
80
50
18
82
105
96
30
53
81
62
95
84
27
93
55
115
58
79
49
112
101
60
12
3
92
7
68
121
74
91
110
114
56
51
48
13
11
75
37
77
125
89
73
45
52
19
9
25
109
97
69
28
88
17
33
31
67
14
40
4
66
38
43
34
63
100
119
113
41
54
99
44
2
6
39
20
59
64
23
102
76
120
42
35
29

>  <PUBCHEM_MMFF94_PARTIAL_CHARGES>  (1) 
31
1 -0.18
10 0.27
13 0.12
14 0.57
15 0.2
16 -0.15
17 -0.15
18 -0.14
19 -0.15
2 -0.57
20 -0.15
21 0.18
22 -0.15
23 -0.15
24 -0.15
25 -0.15
26 -0.15
3 -0.81
4 -0.48
45 0.15
46 0.15
47 0.15
48 0.15
49 0.15
5 0.3
50 0.15
51 0.15
52 0.15
53 0.15
8 0.27
9 0.27

>  <PUBCHEM_EFFECTIVE_ROTOR_COUNT>  (1) 
7.2

>  <PUBCHEM_PHARMACOPHORE_FEATURES>  (1) 
6
1 2 acceptor
1 3 cation
3 10 11 12 hydrophobe
6 13 16 17 19 20 21 rings
6 18 22 23 24 25 26 rings
6 3 5 6 7 8 9 rings

>  <PUBCHEM_HEAVY_ATOM_COUNT>  (1) 
26

>  <PUBCHEM_ATOM_DEF_STEREO_COUNT>  (1) 
0

>  <PUBCHEM_ATOM_UDEF_STEREO_COUNT>  (1) 
0

>  <PUBCHEM_BOND_DEF_STEREO_COUNT>  (1) 
0

>  <PUBCHEM_BOND_UDEF_STEREO_COUNT>  (1) 
0

>  <PUBCHEM_ISOTOPIC_ATOM_COUNT>  (1) 
0

>  <PUBCHEM_COMPONENT_COUNT>  (1) 
1

>  <PUBCHEM_CACTVS_TAUTO_COUNT>  (1) 
1

>  <PUBCHEM_CONFORMER_ID>  (1) 
0000A78400000001

>  <PUBCHEM_MMFF94_ENERGY>  (1) 
86.3891

>  <PUBCHEM_FEATURE_SELFOVERLAP>  (1) 
30.446

>  <PUBCHEM_SHAPE_FINGERPRINT>  (1) 
102385 1 17764311639202962991
10411042 1 18411702096971745484
10721379 63 17751941334663333508
11101153 10 18409738374665862060
11265709 11 18410860966281516531
11646440 116 18411144649167473075
12166972 35 17822296803044064774
12516196 113 18410856598469036298
12549972 3 17606408911001889867
12760667 363 18409165489498309106
12788726 201 18262228902982442170
13004483 165 18413385453917114452
13134695 92 18268708484087488357
13140716 1 18410854352348957072
13590594 115 18412269445758220457
13673619 4 17967535714148451559
13782708 43 17969226823167262643
13955234 65 17905333179942088569
14068700 675 18334012779213167900
14347329 18 16445002290648772015
14347332 77 18267304232067587622
14955137 171 18340771541376642111
15021287 119 18200591514602734399
15042514 8 18339927000223969161
15081414 286 18268987768372674896
15131766 46 15839549748798336538
15219462 58 17981011182555570746
15849732 13 17704068508723030519
16087824 20 18195810666494931009
17980427 23 17775018898814833897
17980427 26 17623847237937768509
18006028 8 18411979169607387102
1813 80 18201731668614034180
18222031 100 18341897423961223190
18785283 64 18048875496647825641
20600515 1 18200889451255121262
20832881 197 18261391182928704211
21033648 29 17561071502376499651
21041028 32 18413390960276489837
21049683 271 18115598195542582133
21120745 212 18338814324928002844
21304303 172 18343308024687008209
21304303 282 17760622799171580644
23175994 123 18410574019991341535
23557571 272 18341336578594317118
23558518 356 17974575688994652426
23559900 14 17823695468504055319
23845131 108 17477772281949114745
24893992 56 18335139788107886961
283562 15 18335984151822079274
3004659 81 17676204680646381846
3027735 51 18267584602752276626
314173 85 18343303669210277298
4258327 124 10591173891177231386
437815 12 18409448107241996319
4408954 87 17055017818650585745
469060 322 18337965480296512912
508180 173 18054474038627722581
5219985 9 18411136948058456703
5385378 56 17979922931873583425
59755656 520 17762896563891122588
6086070 43 18263344998481111423
6371380 46 18259979393357054979
70251023 43 18410297999834113106
77188 2 18411983602045694176
8863177 126 17825116045806522531
9658208 31 17623586250165704996
9962374 69 18197213870796506487

>  <PUBCHEM_SHAPE_MULTIPOLES>  (1) 
521.11
13.04
5.08
1.35
2.25
11
0.08
-17.64
0.47
-1.94
1.23
0.09
0.02
0.4

>  <PUBCHEM_SHAPE_SELFOVERLAP>  (1) 
1092.075

>  <PUBCHEM_SHAPE_VOLUME>  (1) 
294.6

>  <PUBCHEM_COORDINATE_TYPE>  (1) 
2
5
10

$$$$
