42889
     RDKit          3D

 13 13  0  0  0  0  0  0  0  0999 V2000
    4.6720   -0.7901   -1.1773 Cl  0  0  0  0  0  0  0  0  0  0  0  0
    1.4542    0.1080    1.8634 O   0  0  0  0  0  0  0  0  0  0  0  0
   -0.8071    1.3236   -0.1219 C   0  0  0  0  0  0  0  0  0  0  0  0
   -0.2666    0.0982    0.2675 C   0  0  0  0  0  0  0  0  0  0  0  0
   -2.4019   -0.9653   -0.1149 C   0  0  0  0  0  0  0  0  0  0  0  0
   -1.0639   -1.0463    0.2710 C   0  0  0  0  0  0  0  0  0  0  0  0
   -2.1451    1.4046   -0.5078 C   0  0  0  0  0  0  0  0  0  0  0  0
   -2.9425    0.2601   -0.5042 C   0  0  0  0  0  0  0  0  0  0  0  0
    0.0240    2.5652   -0.1340 C   0  0  0  0  0  0  0  0  0  0  0  0
   -3.2549   -2.1890   -0.1112 C   0  0  0  0  0  0  0  0  0  0  0  0
    1.1278   -0.0147    0.6741 C   0  0  0  0  0  0  0  0  0  0  0  0
    2.1597   -0.3138   -0.3722 C   0  0  0  0  0  0  0  0  0  0  0  0
    3.4443   -0.4404   -0.0325 C   0  0  0  0  0  0  0  0  0  0  0  0
  1 13  1  0
  2 11  2  0
  3  4  2  0
  3  7  1  0
  3  9  1  0
  4  6  1  0
  4 11  1  0
  5  6  2  0
  5  8  1  0
  5 10  1  0
  7  8  2  0
 11 12  1  0
 12 13  2  0
M  END
>  <PUBCHEM_COMPOUND_CID>  (1) 
42889

>  <PUBCHEM_CONFORMER_RMSD>  (1) 
0.6

>  <PUBCHEM_CONFORMER_DIVERSEORDER>  (1) 
2
7
8
6
4
9
1
3
5

>  <PUBCHEM_MMFF94_PARTIAL_CHARGES>  (1) 
18
1 -0.14
10 0.14
11 0.47
12 -0.14
13 -0.01
14 0.15
15 0.15
16 0.15
2 -0.57
23 0.15
24 0.15
3 -0.14
4 0.09
5 -0.14
6 -0.15
7 -0.15
8 -0.15
9 0.14

>  <PUBCHEM_EFFECTIVE_ROTOR_COUNT>  (1) 
2

>  <PUBCHEM_PHARMACOPHORE_FEATURES>  (1) 
2
1 2 acceptor
6 3 4 5 6 7 8 rings

>  <PUBCHEM_HEAVY_ATOM_COUNT>  (1) 
13

>  <PUBCHEM_ATOM_DEF_STEREO_COUNT>  (1) 
0

>  <PUBCHEM_ATOM_UDEF_STEREO_COUNT>  (1) 
0

>  <PUBCHEM_BOND_DEF_STEREO_COUNT>  (1) 
0

>  <PUBCHEM_BOND_UDEF_STEREO_COUNT>  (1) 
1

>  <PUBCHEM_ISOTOPIC_ATOM_COUNT>  (1) 
0

>  <PUBCHEM_COMPONENT_COUNT>  (1) 
1

>  <PUBCHEM_CACTVS_TAUTO_COUNT>  (1) 
1

>  <PUBCHEM_CONFORMER_ID>  (1) 
0000A78900000002

>  <PUBCHEM_MMFF94_ENERGY>  (1) 
37.4522

>  <PUBCHEM_FEATURE_SELFOVERLAP>  (1) 
10.148

>  <PUBCHEM_SHAPE_FINGERPRINT>  (1) 
10465860 71 18334576862547422804
11127187 94 18409164398613123863
11206711 2 18114163260186017631
11543360 7 18335432274631691038
12032990 46 18340770437274543871
12186901 62 18335423413459992639
13024252 1 16877954810489648649
14128692 85 18262236732860660181
14911166 2 18336252480188506389
15219456 202 18059562637873908944
15775835 57 17168429246850132036
161256 15 18046620381082438533
16945 1 18263343855434196209
17134986 127 17037257299150875524
17870717 6 18127992810277343086
18186145 218 15791740685262378006
20281407 28 18273216387309005962
20300324 65 18334586724409538988
20645476 183 17603301527569280135
20645477 70 17759789735152860183
20711983 138 17917709093586986457
20715346 28 17987219183555073811
20871998 22 18267300031224918979
20871999 31 18334292067745706231
21061003 4 16702021954934485714
22213442 358 18339360876278822436
22802520 49 18272086041931378030
228727 97 17821731611307456160
23382010 3 16878792749961056886
23402539 116 18260825986812810598
23552423 10 17896591989476119621
23557571 272 18340762724061848320
23559900 14 18269549456512578634
27216 239 12397452701304141646
2748010 2 18046325682101773213
3071541 250 18191593162357831781
528716 315 18260554411202876182
7364860 26 17981041130766621625
77492 1 17313657162173278458

>  <PUBCHEM_SHAPE_MULTIPOLES>  (1) 
263.53
6.44
2.03
1.02
6.48
0.68
0.28
-3.48
-2.35
-1.65
-0.23
0.68
-0.02
0.43

>  <PUBCHEM_SHAPE_SELFOVERLAP>  (1) 
536.293

>  <PUBCHEM_SHAPE_VOLUME>  (1) 
155.2

>  <PUBCHEM_COORDINATE_TYPE>  (1) 
2
5
10

$$$$
