42898
     RDKit          3D

 20 22  0  0  1  0  0  0  0  0999 V2000
    1.0231   -1.0790    0.4544 N   0  0  0  0  0  0  0  0  0  0  0  0
   -4.3302   -0.8339   -0.8852 N   0  0  0  0  0  0  0  0  0  0  0  0
   -1.1452    0.1957    0.9121 C   0  0  0  0  0  0  0  0  0  0  0  0
    0.3020    0.0835    0.5051 C   0  0  0  0  0  0  0  0  0  0  0  0
   -1.4779    1.7078    1.1219 C   0  0  0  0  0  0  0  0  0  0  0  0
    1.1191    1.1127    0.0776 C   0  0  0  0  0  0  0  0  0  0  0  0
   -2.0382   -0.3927   -0.1956 C   0  0  0  0  0  0  0  0  0  0  0  0
   -0.8729    2.6224    0.0395 C   0  0  0  0  0  0  0  0  0  0  0  0
    0.6616    2.5288    0.0035 C   0  0  0  0  0  0  0  0  0  0  0  0
   -1.4143   -0.5541    2.2275 C   0  0  0  0  0  0  0  0  0  0  0  0
    2.3924    0.5527   -0.2275 C   0  0  0  0  0  0  0  0  0  0  0  0
    2.3033   -0.8208    0.0161 C   0  0  0  0  0  0  0  0  0  0  0  0
   -3.5069   -0.2564    0.1704 C   0  0  0  0  0  0  0  0  0  0  0  0
    0.5734   -2.3988    0.8463 C   0  0  0  0  0  0  0  0  0  0  0  0
    3.6159    1.0794   -0.6892 C   0  0  0  0  0  0  0  0  0  0  0  0
    3.3791   -1.6939   -0.1824 C   0  0  0  0  0  0  0  0  0  0  0  0
    4.6999    0.2177   -0.8911 C   0  0  0  0  0  0  0  0  0  0  0  0
    4.5810   -1.1477   -0.6411 C   0  0  0  0  0  0  0  0  0  0  0  0
   -4.1194   -0.1257   -2.1491 C   0  0  0  0  0  0  0  0  0  0  0  0
   -5.7457   -0.7978   -0.5132 C   0  0  0  0  0  0  0  0  0  0  0  0
  1  4  1  0
  1 12  1  0
  1 14  1  0
  2 13  1  0
  2 19  1  0
  2 20  1  0
  3  4  1  0
  3  5  1  0
  3  7  1  0
  3 10  1  0
  4  6  2  0
  5  8  1  0
  6  9  1  0
  6 11  1  0
  7 13  1  0
  8  9  1  0
 11 12  2  0
 11 15  1  0
 12 16  1  0
 15 17  2  0
 16 18  2  0
 17 18  1  0
M  END
>  <PUBCHEM_COMPOUND_CID>  (1) 
42898

>  <PUBCHEM_CONFORMER_RMSD>  (1) 
0.6

>  <PUBCHEM_CONFORMER_DIVERSEORDER>  (1) 
2
11
8
13
4
12
6
3
9
1
5
10
7

>  <PUBCHEM_MMFF94_PARTIAL_CHARGES>  (1) 
19
1 0.05
12 -0.15
13 0.27
14 0.26
15 -0.15
16 -0.15
17 -0.15
18 -0.15
19 0.27
2 -0.81
20 0.27
3 0.18
37 0.15
38 0.15
39 0.15
4 -0.33
40 0.15
6 -0.18
9 0.18

>  <PUBCHEM_EFFECTIVE_ROTOR_COUNT>  (1) 
3.8

>  <PUBCHEM_PHARMACOPHORE_FEATURES>  (1) 
5
1 1 cation
1 2 cation
5 1 4 6 11 12 rings
6 11 12 15 16 17 18 rings
6 3 4 5 6 8 9 rings

>  <PUBCHEM_HEAVY_ATOM_COUNT>  (1) 
20

>  <PUBCHEM_ATOM_DEF_STEREO_COUNT>  (1) 
0

>  <PUBCHEM_ATOM_UDEF_STEREO_COUNT>  (1) 
1

>  <PUBCHEM_BOND_DEF_STEREO_COUNT>  (1) 
0

>  <PUBCHEM_BOND_UDEF_STEREO_COUNT>  (1) 
0

>  <PUBCHEM_ISOTOPIC_ATOM_COUNT>  (1) 
0

>  <PUBCHEM_COMPONENT_COUNT>  (1) 
1

>  <PUBCHEM_CACTVS_TAUTO_COUNT>  (1) 
1

>  <PUBCHEM_CONFORMER_ID>  (1) 
0000A79200000002

>  <PUBCHEM_MMFF94_ENERGY>  (1) 
55.6569

>  <PUBCHEM_FEATURE_SELFOVERLAP>  (1) 
25.545

>  <PUBCHEM_SHAPE_FINGERPRINT>  (1) 
10693767 8 18343291561819380919
10756046 5 18046054961327383541
10967382 1 18264224624530502904
11796584 16 16558752330118665127
11806522 49 18343021094832442368
11961588 58 16805883025584323759
12236239 1 17846505841743260683
12403260 363 18336266735327269288
12553582 1 18342728616408157551
12633257 1 12391231673214941455
12730499 353 17676206866868904595
12892183 10 11455896883872753783
12916748 109 15719109150280653591
13140716 1 15386427026815587168
13583140 156 15936703648168926616
13675066 3 12247681543604853146
13911987 19 18188227492882911398
14576447 43 18343299283948344094
15210252 30 17385998451576039125
15295992 7 11891631142683718436
16752209 62 18334580092874460816
16945 1 18265072369433496432
17349148 13 18187081711661937776
17357779 13 18334296465491816149
17492 54 18337400434451642494
1813 80 17775013400866551669
18186145 218 17894344488987897313
18769570 83 15213294253302674236
192875 21 18187075114639695970
19784866 140 18411415103563485167
200 152 18343303656161546289
20600515 1 14836134303249813019
20626108 58 16987421196340539069
20645477 70 18335424543369252726
20671657 53 18272651277013499557
21029758 11 18412549837901915024
21267235 1 18342186561038088711
21501502 16 18191594038742078888
21637258 2 16630520717800847527
221357 26 18335128805196159437
221490 88 18121222249285324611
22182313 1 17973448998707981937
2334 1 17401787696770685024
23402539 116 18342460309331431238
23559900 14 18338240496170216376
23622692 118 18193833748328729938
25 1 18040429988873388187
25147074 1 18191868911905617536
2748010 2 17690016934661085392
2838139 119 15502369049709742486
2871803 45 18409449172124548630
298252 57 14707207716912430305
3009799 131 18260259768188875212
3286 77 17274821338002143904
3323516 105 18261666078078703687
351380 3 17775283885148533039
46194498 28 17823131397274000413
465052 167 17917997221679334407
57096353 35 18337124401367391980
602551 16 15697996353336241478
7164475 11 18267867185940877636
7471813 234 17917428756708622129
9709674 26 18265632991504333954

>  <PUBCHEM_SHAPE_MULTIPOLES>  (1) 
401.63
9.24
2.26
1.4
4.27
0.89
-0.07
-3.53
5.25
-0.68
-0.33
1.37
-0.2
-0.46

>  <PUBCHEM_SHAPE_SELFOVERLAP>  (1) 
857.821

>  <PUBCHEM_SHAPE_VOLUME>  (1) 
226.2

>  <PUBCHEM_COORDINATE_TYPE>  (1) 
2
5
10

$$$$
