42916
     RDKit          3D

  9  8  0  0  0  0  0  0  0  0999 V2000
    0.3473    1.5381   -0.3008 O   0  0  0  0  0  0  0  0  0  0  0  0
    2.1198   -0.3785   -0.7676 O   0  0  0  0  0  0  0  0  0  0  0  0
    1.0181   -1.8470    0.5741 O   0  0  0  0  0  0  0  0  0  0  0  0
   -1.3389   -0.1181   -0.0709 C   0  0  0  0  0  0  0  0  0  0  0  0
   -0.0326    0.2162   -0.1316 C   0  0  0  0  0  0  0  0  0  0  0  0
   -2.4276    0.9247   -0.1686 C   0  0  0  0  0  0  0  0  0  0  0  0
   -1.8780   -1.5132    0.1152 C   0  0  0  0  0  0  0  0  0  0  0  0
    1.0561   -0.7929   -0.0378 C   0  0  0  0  0  0  0  0  0  0  0  0
    1.1358    1.9707    0.7880 C   0  0  0  0  0  0  0  0  0  0  0  0
  1  5  1  0
  1  9  1  0
  2  8  1  0
  3  8  2  0
  4  5  2  3
  4  6  1  0
  4  7  1  0
  5  8  1  0
M  END
>  <PUBCHEM_COMPOUND_CID>  (1) 
42916

>  <PUBCHEM_CONFORMER_RMSD>  (1) 
0.4

>  <PUBCHEM_CONFORMER_DIVERSEORDER>  (1) 
2
1
6
3
7
4
5

>  <PUBCHEM_MMFF94_PARTIAL_CHARGES>  (1) 
10
1 -0.36
19 0.5
2 -0.65
3 -0.57
4 -0.28
5 0.09
6 0.14
7 0.14
8 0.71
9 0.28

>  <PUBCHEM_EFFECTIVE_ROTOR_COUNT>  (1) 
2

>  <PUBCHEM_PHARMACOPHORE_FEATURES>  (1) 
5
1 1 acceptor
1 2 acceptor
1 3 acceptor
3 2 3 8 anion
3 4 6 7 hydrophobe

>  <PUBCHEM_HEAVY_ATOM_COUNT>  (1) 
9

>  <PUBCHEM_ATOM_DEF_STEREO_COUNT>  (1) 
0

>  <PUBCHEM_ATOM_UDEF_STEREO_COUNT>  (1) 
0

>  <PUBCHEM_BOND_DEF_STEREO_COUNT>  (1) 
0

>  <PUBCHEM_BOND_UDEF_STEREO_COUNT>  (1) 
0

>  <PUBCHEM_ISOTOPIC_ATOM_COUNT>  (1) 
0

>  <PUBCHEM_COMPONENT_COUNT>  (1) 
1

>  <PUBCHEM_CACTVS_TAUTO_COUNT>  (1) 
1

>  <PUBCHEM_CONFORMER_ID>  (1) 
0000A7A400000002

>  <PUBCHEM_MMFF94_ENERGY>  (1) 
24.6452

>  <PUBCHEM_FEATURE_SELFOVERLAP>  (1) 
25.438

>  <PUBCHEM_SHAPE_FINGERPRINT>  (1) 
12423570 1 8637965275896163544
18185500 45 18264210222830127411
21040471 1 18263360300542043855
23211744 25 18190761892712067478
23552333 60 17679872509280209162
23552423 10 18262238944826638559
2748010 2 18265613371650283037
29004967 10 18114756923002121073
5084963 1 17983023541535831745

>  <PUBCHEM_SHAPE_MULTIPOLES>  (1) 
167.61
2.75
2.04
0.75
0.97
0.13
-0.02
0.07
0.15
-0.43
-0.39
-0.19
0.03
0.32

>  <PUBCHEM_SHAPE_SELFOVERLAP>  (1) 
319.924

>  <PUBCHEM_SHAPE_VOLUME>  (1) 
103.7

>  <PUBCHEM_COORDINATE_TYPE>  (1) 
2
5
10

$$$$
