42919
     RDKit          3D

 22 24  0  0  1  0  0  0  0  0999 V2000
    2.1686   -1.9832   -0.6661 N   0  0  0  0  0  0  0  0  0  0  0  0
   -4.1596    1.2611   -0.5003 N   0  0  0  0  0  0  0  0  0  0  0  0
   -1.2125   -0.9906    0.4161 C   0  0  0  0  0  0  0  0  0  0  0  0
    0.2558   -1.0405    0.0140 C   0  0  0  0  0  0  0  0  0  0  0  0
   -1.9234   -2.3220   -0.0178 C   0  0  0  0  0  0  0  0  0  0  0  0
   -1.9748    0.1583   -0.2686 C   0  0  0  0  0  0  0  0  0  0  0  0
    0.8587   -2.2259   -0.3746 C   0  0  0  0  0  0  0  0  0  0  0  0
   -1.0983   -3.5861    0.2707 C   0  0  0  0  0  0  0  0  0  0  0  0
    1.2856   -0.0323   -0.0108 C   0  0  0  0  0  0  0  0  0  0  0  0
    0.2296   -3.5669   -0.4932 C   0  0  0  0  0  0  0  0  0  0  0  0
   -1.3333   -0.8337    1.9459 C   0  0  0  0  0  0  0  0  0  0  0  0
    1.1712    1.4336    0.3178 C   0  0  0  0  0  0  0  0  0  0  0  0
    2.4536   -0.6665   -0.4186 C   0  0  0  0  0  0  0  0  0  0  0  0
   -3.4316    0.2088    0.1527 C   0  0  0  0  0  0  0  0  0  0  0  0
    0.9490    2.2827   -0.9377 C   0  0  0  0  0  0  0  0  0  0  0  0
    2.3370    1.9824    1.1095 C   0  0  0  0  0  0  0  0  0  0  0  0
    3.7850   -0.2327   -0.6064 C   0  0  0  0  0  0  0  0  0  0  0  0
    3.6449    1.7138    0.9741 C   0  0  0  0  0  0  0  0  0  0  0  0
    4.2843    0.8511    0.0049 C   0  0  0  0  0  0  0  0  0  0  0  0
    0.8686    3.7562   -0.5959 C   0  0  0  0  0  0  0  0  0  0  0  0
   -5.5794    1.2521   -0.1135 C   0  0  0  0  0  0  0  0  0  0  0  0
   -3.5793    2.5803   -0.2023 C   0  0  0  0  0  0  0  0  0  0  0  0
  1  7  1  0
  1 13  1  0
  2 14  1  0
  2 21  1  0
  2 22  1  0
  3  4  1  0
  3  5  1  0
  3  6  1  0
  3 11  1  0
  4  7  2  0
  4  9  1  0
  5  8  1  0
  6 14  1  0
  7 10  1  0
  8 10  1  0
  9 12  1  0
  9 13  2  0
 12 15  1  0
 12 16  1  0
 13 17  1  0
 15 20  1  0
 16 18  2  0
 17 19  2  0
 18 19  1  0
M  END
>  <PUBCHEM_COMPOUND_CID>  (1) 
42919

>  <PUBCHEM_CONFORMER_RMSD>  (1) 
0.8

>  <PUBCHEM_CONFORMER_DIVERSEORDER>  (1) 
2
15
12
10
9
1
5
13
7
8
11
3
4
14
6

>  <PUBCHEM_MMFF94_PARTIAL_CHARGES>  (1) 
21
1 0.03
10 0.18
12 0.32
13 -0.2
14 0.27
16 -0.29
17 -0.11
18 -0.15
19 -0.15
2 -0.81
21 0.27
22 0.27
3 0.18
35 0.27
4 -0.18
40 0.15
41 0.15
42 0.15
43 0.15
7 -0.33
9 -0.18

>  <PUBCHEM_EFFECTIVE_ROTOR_COUNT>  (1) 
5

>  <PUBCHEM_PHARMACOPHORE_FEATURES>  (1) 
7
1 1 cation
1 1 donor
1 2 cation
1 20 hydrophobe
5 1 4 7 9 13 rings
6 3 4 5 7 8 10 rings
7 9 12 13 16 17 18 19 rings

>  <PUBCHEM_HEAVY_ATOM_COUNT>  (1) 
22

>  <PUBCHEM_ATOM_DEF_STEREO_COUNT>  (1) 
0

>  <PUBCHEM_ATOM_UDEF_STEREO_COUNT>  (1) 
2

>  <PUBCHEM_BOND_DEF_STEREO_COUNT>  (1) 
0

>  <PUBCHEM_BOND_UDEF_STEREO_COUNT>  (1) 
0

>  <PUBCHEM_ISOTOPIC_ATOM_COUNT>  (1) 
0

>  <PUBCHEM_COMPONENT_COUNT>  (1) 
1

>  <PUBCHEM_CACTVS_TAUTO_COUNT>  (1) 
1

>  <PUBCHEM_CONFORMER_ID>  (1) 
0000A7A700000002

>  <PUBCHEM_MMFF94_ENERGY>  (1) 
50.5498

>  <PUBCHEM_FEATURE_SELFOVERLAP>  (1) 
35.638

>  <PUBCHEM_SHAPE_FINGERPRINT>  (1) 
10411042 1 17403458468824255295
10693767 8 17772749364412011623
10871710 139 16822508960247110749
10967382 1 18339081488640354350
11370993 70 18342170094201924273
11578080 2 17058073661393551097
12011746 2 18341056237742218828
12035758 1 18410003334738744368
12077114 3 18336547230307690106
12403259 226 17696471063246616898
12403260 363 18122331638926190942
12730499 353 18338524041252254339
12769317 202 18196078963693611509
12788726 201 17613428261193718731
13140716 1 18335414621926389762
13402501 40 18336827494077704220
13464514 151 18340488850559812923
138480 1 17691123734505581575
14178342 30 18121764295827686154
14790565 3 18337681832130433308
15210252 30 17824845354980833548
1601671 61 18335141994666509980
16728300 4 17174589699195987026
16945 1 18049167962414386566
17093844 170 18337387124301175276
18219364 16 18340223945646305307
19591789 44 18266176119624365796
19930381 70 18266176128710036101
20905425 154 17690279309517089901
21033648 29 18200867495551278880
21524375 3 18186800288245907379
22182313 1 18268730422516945342
23227448 37 18340768251579217727
23558518 356 17901100042483273346
23559900 14 18131075944245483054
25 1 18338796715213377327
2748010 2 18339942458080325406
3060560 45 18342173311153742559
335352 9 18412263909539841366
34934 24 18334855039516809706
350125 39 18123200266060176907
474 4 18410292502233964169
59755656 215 18337950087529752525
70251023 43 17623585141900891663
7164475 11 17763178437803659726
7832392 63 18337668719425518332
84936 182 18200027309737770553

>  <PUBCHEM_SHAPE_MULTIPOLES>  (1) 
442.79
7.46
4.35
1.03
5.1
1.04
0.37
-5.45
-0.17
0.8
-0.7
-0.18
-0.1
0.94

>  <PUBCHEM_SHAPE_SELFOVERLAP>  (1) 
931.246

>  <PUBCHEM_SHAPE_VOLUME>  (1) 
249

>  <PUBCHEM_COORDINATE_TYPE>  (1) 
2
5
10

$$$$
