42921
     RDKit          3D

 24 25  0  0  1  0  0  0  0  0999 V2000
   -5.9143   -3.5491    0.0457 Cl  0  0  0  0  0  0  0  0  0  0  0  0
    5.0327    0.4470    0.5701 S   0  0  0  0  0  0  0  0  0  0  0  0
   -3.6421    2.3073   -0.3284 S   0  0  0  0  0  0  0  0  0  0  0  0
    3.1074    0.4452   -0.2786 P   0  0  0  0  0  0  0  0  0  0  0  0
    2.1381    1.3747    0.6291 O   0  0  0  0  0  0  0  0  0  0  0  0
    2.4542   -1.0379   -0.1449 O   0  0  0  0  0  0  0  0  0  0  0  0
    3.1854    0.9130   -1.7093 O   0  0  0  0  0  0  0  0  0  0  0  0
    5.9991   -0.6885   -0.4448 C   0  0  0  0  0  0  0  0  0  0  0  0
    7.4312   -0.7788    0.0703 C   0  0  0  0  0  0  0  0  0  0  0  0
    0.8041    1.5896    0.4088 C   0  0  0  0  0  0  0  0  0  0  0  0
    8.2579   -1.7372   -0.7745 C   0  0  0  0  0  0  0  0  0  0  0  0
   -1.9060    2.0269   -0.0400 C   0  0  0  0  0  0  0  0  0  0  0  0
    0.0872    2.4145    1.2690 C   0  0  0  0  0  0  0  0  0  0  0  0
    0.1778    0.9814   -0.6739 C   0  0  0  0  0  0  0  0  0  0  0  0
    2.3032   -1.6367    1.1305 C   0  0  0  0  0  0  0  0  0  0  0  0
   -1.2719    2.6337    1.0441 C   0  0  0  0  0  0  0  0  0  0  0  0
   -1.1812    1.2008   -0.8989 C   0  0  0  0  0  0  0  0  0  0  0  0
   -4.2870    0.6443   -0.2220 C   0  0  0  0  0  0  0  0  0  0  0  0
    1.6743   -3.0035    0.9621 C   0  0  0  0  0  0  0  0  0  0  0  0
   -4.1314   -0.0858    0.9537 C   0  0  0  0  0  0  0  0  0  0  0  0
   -4.9433    0.0844   -1.3154 C   0  0  0  0  0  0  0  0  0  0  0  0
   -4.6352   -1.3839    1.0365 C   0  0  0  0  0  0  0  0  0  0  0  0
   -5.4471   -1.2136   -1.2326 C   0  0  0  0  0  0  0  0  0  0  0  0
   -5.2931   -1.9478   -0.0567 C   0  0  0  0  0  0  0  0  0  0  0  0
  1 24  1  0
  2  4  1  0
  2  8  1  0
  3 12  1  0
  3 18  1  0
  4  5  1  0
  4  6  1  0
  4  7  2  0
  5 10  1  0
  6 15  1  0
  8  9  1  0
  9 11  1  0
 10 13  2  0
 10 14  1  0
 12 16  2  0
 12 17  1  0
 13 16  1  0
 14 17  2  0
 15 19  1  0
 18 20  2  0
 18 21  1  0
 20 22  1  0
 21 23  2  0
 22 24  2  0
 23 24  1  0
M  END
>  <PUBCHEM_COMPOUND_CID>  (1) 
42921

>  <PUBCHEM_CONFORMER_RMSD>  (1) 
1

>  <PUBCHEM_CONFORMER_DIVERSEORDER>  (1) 
1
272
80
235
76
158
172
299
49
117
275
146
171
252
96
185
169
228
86
192
298
240
29
120
109
326
265
88
186
213
316
320
292
206
108
141
179
123
197
189
195
131
191
23
268
194
325
302
273
184
207
269
279
287
182
254
220
78
40
188
205
242
183
33
57
26
133
42
82
296
166
110
147
286
190
93
231
128
99
119
274
247
73
144
313
140
276
282
277
263
315
70
127
16
293
309
280
305
160
55
230
217
152
19
132
311
94
237
156
126
164
38
100
291
37
2
257
137
245
7
181
58
294
281
4
81
202
151
101
304
18
243
278
46
34
79
53
306
50
163
270
67
198
317
9
229
233
134
95
97
51
72
21
236
20
84
295
239
159
44
71
216
66
135
69
83
173
155
87
102
111
65
251
196
136
267
77
307
271
300
25
241
209
106
288
212
11
253
174
314
114
64
130
249
250
221
56
223
322
187
105
238
226
22
211
30
85
13
150
262
204
222
32
48
54
177
324
68
8
301
98
321
121
142
203
113
219
264
149
244
290
165
178
285
10
91
176
168
129
107
248
103
210
246
115
63
218
3
41
232
138
224
62
125
148
153
283
175
61
157
75
118
31
323
260
145
39
92
319
35
310
28
162
161
5
89
139
43
12
124
45
112
225
289
201
258
199
60
116
6
297
234
170
318
214
143
17
208
24
180
47
261
122
167
259
15
312
284
303
255
36
227
59
14
200
215
193
52
154
74
266
27
256
308
104
90

>  <PUBCHEM_MMFF94_PARTIAL_CHARGES>  (1) 
29
1 -0.18
10 0.08
12 0.1
13 -0.15
14 -0.15
15 0.28
16 -0.15
17 -0.15
18 0.1
2 -0.48
20 -0.15
21 -0.15
22 -0.15
23 -0.15
24 0.18
3 -0.2
32 0.15
33 0.15
36 0.15
37 0.15
4 1.49
41 0.15
42 0.15
43 0.15
44 0.15
5 -0.35
6 -0.55
7 -0.7
8 0.23

>  <PUBCHEM_EFFECTIVE_ROTOR_COUNT>  (1) 
9

>  <PUBCHEM_PHARMACOPHORE_FEATURES>  (1) 
4
1 11 hydrophobe
1 7 acceptor
6 10 12 13 14 16 17 rings
6 18 20 21 22 23 24 rings

>  <PUBCHEM_HEAVY_ATOM_COUNT>  (1) 
24

>  <PUBCHEM_ATOM_DEF_STEREO_COUNT>  (1) 
0

>  <PUBCHEM_ATOM_UDEF_STEREO_COUNT>  (1) 
1

>  <PUBCHEM_BOND_DEF_STEREO_COUNT>  (1) 
0

>  <PUBCHEM_BOND_UDEF_STEREO_COUNT>  (1) 
0

>  <PUBCHEM_ISOTOPIC_ATOM_COUNT>  (1) 
0

>  <PUBCHEM_COMPONENT_COUNT>  (1) 
1

>  <PUBCHEM_CACTVS_TAUTO_COUNT>  (1) 
1

>  <PUBCHEM_CONFORMER_ID>  (1) 
0000A7A900000001

>  <PUBCHEM_MMFF94_ENERGY>  (1) 
39.6767

>  <PUBCHEM_FEATURE_SELFOVERLAP>  (1) 
20.297

>  <PUBCHEM_SHAPE_FINGERPRINT>  (1) 
105312 117 11314312737009524057
11796584 16 18410291381173608261
12166972 35 18261115175709599252
12596602 18 17346313842876478289
13103583 49 17916603032809285049
13631057 29 18410011026761160609
13782708 43 18411136922953349556
14211702 104 18200320922761753150
14931854 50 18114169861725357207
15021287 119 13326561960988362554
15183329 4 16081082684427446016
15510800 12 18412828018834037911
17780758 139 17489593342381580745
18681886 176 18261109686793810984
20028762 73 18412265043406302710
20621476 66 9007063478050906255
21054139 6 18260550009272925762
23559900 14 18263351650995647329
25269216 80 15936688264334686947
2838139 119 8502365624994302114
439807 62 18187083996938415227
463206 1 18048033266926452267
484989 97 18337113462280991298
5309563 4 18267301122753513947
5718773 13 18197494228849130951
59755656 215 18409731734335335134
636775 8 18271817804951385022
6431902 208 18410855469103621023
9896288 288 17844815772149506976
999808 66 17989489593825991126

>  <PUBCHEM_SHAPE_MULTIPOLES>  (1) 
489.72
18.44
3.5
1.27
23.55
1.4
0.07
15.52
4.21
-3.84
-0.86
-0.27
-0.08
0.28

>  <PUBCHEM_SHAPE_SELFOVERLAP>  (1) 
954.132

>  <PUBCHEM_SHAPE_VOLUME>  (1) 
297.2

>  <PUBCHEM_COORDINATE_TYPE>  (1) 
2
5
10

$$$$
