42924
     RDKit          3D

 15 14  0  0  1  0  0  0  0  0999 V2000
    0.2783   -1.6275    0.7234 S   0  0  0  0  0  0  0  0  0  0  0  0
   -1.6158    1.1540    0.6350 S   0  0  0  0  0  0  0  0  0  0  0  0
    2.6732    0.0215   -0.1920 O   0  0  0  0  0  0  0  0  0  0  0  0
   -1.1269   -2.9277   -1.1064 O   0  0  0  0  0  0  0  0  0  0  0  0
   -3.5616    1.5847   -1.1042 O   0  0  0  0  0  0  0  0  0  0  0  0
    3.6570    2.0724    0.2263 O   0  0  0  0  0  0  0  0  0  0  0  0
    0.3313   -0.4075   -0.6483 C   0  0  0  0  0  0  0  0  0  0  0  0
   -1.0341    0.2644   -0.8446 C   0  0  0  0  0  0  0  0  0  0  0  0
    1.4017    0.6437   -0.3361 C   0  0  0  0  0  0  0  0  0  0  0  0
   -0.9371   -2.7270    0.0871 C   0  0  0  0  0  0  0  0  0  0  0  0
   -3.1458    1.7820    0.0311 C   0  0  0  0  0  0  0  0  0  0  0  0
    3.7136    0.8588    0.0891 C   0  0  0  0  0  0  0  0  0  0  0  0
   -1.7317   -3.4027    1.1682 C   0  0  0  0  0  0  0  0  0  0  0  0
   -3.8972    2.5911    1.0498 C   0  0  0  0  0  0  0  0  0  0  0  0
    4.9951    0.1199    0.2214 C   0  0  0  0  0  0  0  0  0  0  0  0
  1  7  1  0
  1 10  1  0
  2  8  1  0
  2 11  1  0
  3  9  1  0
  3 12  1  0
  4 10  2  0
  5 11  2  0
  6 12  2  0
  7  8  1  0
  7  9  1  0
 10 13  1  0
 11 14  1  0
 12 15  1  0
M  END
>  <PUBCHEM_COMPOUND_CID>  (1) 
42924

>  <PUBCHEM_CONFORMER_RMSD>  (1) 
1

>  <PUBCHEM_CONFORMER_DIVERSEORDER>  (1) 
1
228
111
62
101
103
135
156
234
76
158
50
26
2
189
21
225
170
203
53
97
114
82
36
29
152
155
186
229
77
214
244
241
13
41
143
6
32
196
86
66
151
25
165
112
212
197
95
22
56
242
145
202
137
184
89
191
69
222
226
108
5
45
201
64
166
39
87
47
70
195
68
105
176
182
206
220
233
127
79
90
180
107
185
236
51
147
146
42
128
106
223
122
34
142
245
133
85
235
59
91
110
131
98
54
148
44
179
117
144
7
71
188
67
17
40
121
227
173
172
149
27
123
102
239
237
88
115
230
61
164
163
55
4
12
199
48
232
8
177
120
46
73
109
14
213
140
15
238
174
190
240
218
81
96
10
160
20
208
83
31
134
99
60
30
187
28
126
18
38
19
75
24
80
132
78
193
192
52
198
119
207
139
11
74
84
125
211
37
168
63
9
205
104
100
162
116
43
33
167
130
169
175
224
204
3
210
93
138
221
141
209
161
157
94
153
171
200
159
219
183
57
215
217
92
129
58
16
72
216
136
150
118
65
231
124
49
243
23
178
154
113
194
181
35

>  <PUBCHEM_MMFF94_PARTIAL_CHARGES>  (1) 
15
1 -0.37
10 0.65
11 0.65
12 0.66
13 0.06
14 0.06
15 0.06
2 -0.37
3 -0.43
4 -0.57
5 -0.57
6 -0.57
7 0.23
8 0.23
9 0.28

>  <PUBCHEM_EFFECTIVE_ROTOR_COUNT>  (1) 
8

>  <PUBCHEM_PHARMACOPHORE_FEATURES>  (1) 
2
1 6 acceptor
4 1 2 7 8 hydrophobe

>  <PUBCHEM_HEAVY_ATOM_COUNT>  (1) 
15

>  <PUBCHEM_ATOM_DEF_STEREO_COUNT>  (1) 
0

>  <PUBCHEM_ATOM_UDEF_STEREO_COUNT>  (1) 
1

>  <PUBCHEM_BOND_DEF_STEREO_COUNT>  (1) 
0

>  <PUBCHEM_BOND_UDEF_STEREO_COUNT>  (1) 
0

>  <PUBCHEM_ISOTOPIC_ATOM_COUNT>  (1) 
0

>  <PUBCHEM_COMPONENT_COUNT>  (1) 
1

>  <PUBCHEM_CACTVS_TAUTO_COUNT>  (1) 
1

>  <PUBCHEM_CONFORMER_ID>  (1) 
0000A7AC00000001

>  <PUBCHEM_MMFF94_ENERGY>  (1) 
22.3304

>  <PUBCHEM_FEATURE_SELFOVERLAP>  (1) 
10.148

>  <PUBCHEM_SHAPE_FINGERPRINT>  (1) 
11357001 24 18264774444120307243
12119455 92 18041555836887468092
122479 349 18343022203018680092
12500047 106 18410854369749904520
12532896 13 18410296878262372047
136203 1 18264772240896926091
14123255 52 18339078181521155385
14178000 22 18335132064327263349
14178342 30 18190167057554372064
15502708 68 18119248368019814821
1741750 31 18413106160630672984
201361 129 17981894034115189809
204376 136 18336550421648024677
21041028 32 17758407648677737747
21499 59 18339640027984414925
21524375 3 18341045224913237341
21731228 192 18337115566281975729
22182937 141 18340207487326481976
23402539 116 18057041526753291767
23558518 356 18043252551370512024
23598288 3 18270121365340512014
298252 57 17131824327044355453
474229 33 18411420622717805771
5104073 3 18263348339997466440
58734987 24 18339077206510753775
633830 44 18057327188879712085
68521 5 18121222244715881751
7364860 26 17836088866596928525
81228 2 18117274980691777551
81539 233 18192995911556430053

>  <PUBCHEM_SHAPE_MULTIPOLES>  (1) 
292.91
7.54
3.83
1.07
6.58
3.66
0.02
-7.4
-1.07
-3.69
-0.84
-0.74
0.22
-0.05

>  <PUBCHEM_SHAPE_SELFOVERLAP>  (1) 
532.262

>  <PUBCHEM_SHAPE_VOLUME>  (1) 
186.8

>  <PUBCHEM_COORDINATE_TYPE>  (1) 
2
5
10

$$$$
