42938
     RDKit          3D

 21 21  0  0  0  0  0  0  0  0999 V2000
    3.1014    0.0081    0.0279 O   0  0  0  0  0  0  0  0  0  0  0  0
    3.9565   -2.1474    0.2088 O   0  0  0  0  0  0  0  0  0  0  0  0
   -6.2847    1.0350   -0.2517 O   0  0  0  0  0  0  0  0  0  0  0  0
   -5.0263    2.8332   -0.2076 O   0  0  0  0  0  0  0  0  0  0  0  0
   -0.5902   -1.6273    0.4421 N   0  0  0  0  0  0  0  0  0  0  0  0
    0.6319   -1.0693    0.5456 N   0  0  0  0  0  0  0  0  0  0  0  0
   -5.1609    1.5864   -0.1642 N   0  0  0  0  0  0  0  0  0  0  0  0
    0.8508   -4.0459   -0.8679 N   0  0  0  0  0  0  0  0  0  0  0  0
    4.2841    2.0877   -0.0711 C   0  0  0  0  0  0  0  0  0  0  0  0
    5.6527    2.7626   -0.0825 C   0  0  0  0  0  0  0  0  0  0  0  0
    4.4046    0.5743    0.0378 C   0  0  0  0  0  0  0  0  0  0  0  0
    5.5292    4.2702   -0.2348 C   0  0  0  0  0  0  0  0  0  0  0  0
   -1.7321   -0.8245    0.2906 C   0  0  0  0  0  0  0  0  0  0  0  0
   -4.0062    0.7745   -0.0109 C   0  0  0  0  0  0  0  0  0  0  0  0
   -2.9971   -1.4116    0.1907 C   0  0  0  0  0  0  0  0  0  0  0  0
   -1.6120    0.5674    0.2393 C   0  0  0  0  0  0  0  0  0  0  0  0
   -4.1315   -0.6138    0.0403 C   0  0  0  0  0  0  0  0  0  0  0  0
   -2.7464    1.3652    0.0887 C   0  0  0  0  0  0  0  0  0  0  0  0
    3.0552   -1.3379    0.1191 C   0  0  0  0  0  0  0  0  0  0  0  0
    1.6263   -1.7619    0.0962 C   0  0  0  0  0  0  0  0  0  0  0  0
    1.1947   -3.0251   -0.4364 C   0  0  0  0  0  0  0  0  0  0  0  0
  1 11  1  0
  1 19  1  0
  2 19  2  0
  3  7  1  0
  4  7  2  0
  5  6  1  0
  5 13  1  0
  6 20  2  0
  7 14  1  0
  8 21  3  0
  9 10  1  0
  9 11  1  0
 10 12  1  0
 13 15  2  0
 13 16  1  0
 14 17  2  0
 14 18  1  0
 15 17  1  0
 16 18  2  0
 19 20  1  0
 20 21  1  0
M  CHG  2   3  -1   7   1
M  END
>  <PUBCHEM_COMPOUND_CID>  (1) 
42938

>  <PUBCHEM_CONFORMER_RMSD>  (1) 
0.8

>  <PUBCHEM_CONFORMER_DIVERSEORDER>  (1) 
1
42
94
33
10
59
32
43
11
5
101
38
65
55
48
56
29
85
44
24
88
92
37
84
86
45
78
3
25
52
28
46
4
35
2
80
66
89
100
97
17
53
67
62
99
41
9
91
95
8
87
54
13
47
49
7
16
34
27
64
19
70
12
61
82
36
81
79
98
60
51
76
57
40
72
69
18
63
39
6
68
83
77
90
15
50
22
23
93
75
21
58
14
96
102
26
30
71
31
20
73
74

>  <PUBCHEM_MMFF94_PARTIAL_CHARGES>  (1) 
23
1 -0.43
11 0.28
13 0.1
14 0.13
15 -0.15
16 -0.15
17 -0.15
18 -0.15
19 0.72
2 -0.57
20 0.56
21 0.45
3 -0.52
31 0.15
32 0.15
33 0.15
34 0.15
35 0.4
4 -0.52
5 -0.46
6 -0.49
7 0.91
8 -0.56

>  <PUBCHEM_EFFECTIVE_ROTOR_COUNT>  (1) 
8

>  <PUBCHEM_PHARMACOPHORE_FEATURES>  (1) 
9
1 12 hydrophobe
1 2 acceptor
1 3 acceptor
1 3 anion
1 4 acceptor
1 5 donor
1 6 acceptor
1 8 acceptor
6 13 14 15 16 17 18 rings

>  <PUBCHEM_HEAVY_ATOM_COUNT>  (1) 
21

>  <PUBCHEM_ATOM_DEF_STEREO_COUNT>  (1) 
0

>  <PUBCHEM_ATOM_UDEF_STEREO_COUNT>  (1) 
0

>  <PUBCHEM_BOND_DEF_STEREO_COUNT>  (1) 
0

>  <PUBCHEM_BOND_UDEF_STEREO_COUNT>  (1) 
1

>  <PUBCHEM_ISOTOPIC_ATOM_COUNT>  (1) 
0

>  <PUBCHEM_COMPONENT_COUNT>  (1) 
1

>  <PUBCHEM_CACTVS_TAUTO_COUNT>  (1) 
1

>  <PUBCHEM_CONFORMER_ID>  (1) 
0000A7BA00000001

>  <PUBCHEM_MMFF94_ENERGY>  (1) 
60.1819

>  <PUBCHEM_FEATURE_SELFOVERLAP>  (1) 
45.754

>  <PUBCHEM_SHAPE_FINGERPRINT>  (1) 
14251764 75 18342187673340121424
14429114 114 18411416189774597137
14528608 73 18412544297293584103
14774955 27 18409163316028105444
15142526 21 18187364346042831618
15196674 1 18409167709784813411
15342168 16 18409445921013647316
17834072 32 18337674230259189516
17959699 21 18338796711145101081
19427546 62 18410575054794207739
20645477 56 18116439142113667159
20645477 70 17771060493615000175
21033648 144 18187356640697175919
21315764 268 18116145584713419141
21709351 56 18340480050425713550
23559900 14 18195808462110915987
245318 6 17751376181534393332
270888 7 18337389456695127332
2838139 119 18339641273915210444
3246875 12 18336267959155624091
34797466 226 18131077008927627655
474 4 18410856534091830970
5104073 3 18186241714584742659
56633871 153 11242239788453210344
6327066 14 18337952423886420908
633830 44 18336257972893125470
67856867 119 18336259051029968434
7288768 16 17896596374727490898
7808743 9 18122904498207869288
9981440 41 18261678198181280970

>  <PUBCHEM_SHAPE_MULTIPOLES>  (1) 
388.77
14.08
4.64
0.66
1.19
0.02
-0.02
17.66
-0.93
5.26
-0.96
0.04
-0.16
0.05

>  <PUBCHEM_SHAPE_SELFOVERLAP>  (1) 
796.022

>  <PUBCHEM_SHAPE_VOLUME>  (1) 
221.2

>  <PUBCHEM_COORDINATE_TYPE>  (1) 
2
5
10

$$$$
