42947
     RDKit          3D

 32 35  0  0  1  0  0  0  0  0999 V2000
   -4.9227   -1.5041   -0.2600 S   0  0  0  0  0  0  0  0  0  0  0  0
    2.1343   -5.5213    0.8091 S   0  0  0  0  0  0  0  0  0  0  0  0
   -1.8137    1.3264   -1.5715 O   0  0  0  0  0  0  0  0  0  0  0  0
   -5.4052    3.3874   -0.1974 O   0  0  0  0  0  0  0  0  0  0  0  0
   -4.2284    2.6265    1.6005 O   0  0  0  0  0  0  0  0  0  0  0  0
    0.5604   -0.8080   -1.6180 O   0  0  0  0  0  0  0  0  0  0  0  0
    2.4665    0.6195    0.4696 O   0  0  0  0  0  0  0  0  0  0  0  0
    3.9014   -1.1547   -0.0286 O   0  0  0  0  0  0  0  0  0  0  0  0
   -3.3715    0.5549    0.0248 N   0  0  0  0  0  0  0  0  0  0  0  0
   -0.8624   -1.3198    0.1392 N   0  0  0  0  0  0  0  0  0  0  0  0
   -3.3295   -0.8673    0.3767 C   0  0  0  0  0  0  0  0  0  0  0  0
   -5.7485    0.1353    0.0562 C   0  0  0  0  0  0  0  0  0  0  0  0
   -4.6495    1.1674   -0.2765 C   0  0  0  0  0  0  0  0  0  0  0  0
   -2.1138   -0.9947   -0.5517 C   0  0  0  0  0  0  0  0  0  0  0  0
   -2.3009    0.5120   -0.8206 C   0  0  0  0  0  0  0  0  0  0  0  0
   -6.9486    0.2768   -0.8819 C   0  0  0  0  0  0  0  0  0  0  0  0
   -6.2179    0.1535    1.5172 C   0  0  0  0  0  0  0  0  0  0  0  0
   -4.7185    2.4464    0.4955 C   0  0  0  0  0  0  0  0  0  0  0  0
    0.3906   -1.1967   -0.4635 C   0  0  0  0  0  0  0  0  0  0  0  0
    1.5481   -1.5744    0.4609 C   0  0  0  0  0  0  0  0  0  0  0  0
    1.8447   -3.0469    0.3050 C   0  0  0  0  0  0  0  0  0  0  0  0
    2.7910   -0.7193    0.2493 C   0  0  0  0  0  0  0  0  0  0  0  0
    2.2695   -3.6179   -0.9110 C   0  0  0  0  0  0  0  0  0  0  0  0
    1.7240   -3.9409    1.3250 C   0  0  0  0  0  0  0  0  0  0  0  0
    2.4671   -4.9748   -0.7791 C   0  0  0  0  0  0  0  0  0  0  0  0
    3.5520    1.4811    0.2970 C   0  0  0  0  0  0  0  0  0  0  0  0
    3.7820    2.0123   -0.9530 C   0  0  0  0  0  0  0  0  0  0  0  0
    4.3513    1.7659    1.3819 C   0  0  0  0  0  0  0  0  0  0  0  0
    4.8667    2.8722   -1.1267 C   0  0  0  0  0  0  0  0  0  0  0  0
    5.4357    2.6257    1.2084 C   0  0  0  0  0  0  0  0  0  0  0  0
    5.6935    3.1788   -0.0460 C   0  0  0  0  0  0  0  0  0  0  0  0
    6.8524    4.0987   -0.2311 C   0  0  0  0  0  0  0  0  0  0  0  0
  1 11  1  0
  1 12  1  0
  2 24  1  0
  2 25  1  0
  3 15  2  0
  4 18  1  0
  5 18  2  0
  6 19  2  0
  7 22  1  0
  7 26  1  0
  8 22  2  0
  9 11  1  0
  9 13  1  0
  9 15  1  0
 10 14  1  0
 10 19  1  0
 11 14  1  0
 12 13  1  0
 12 16  1  0
 12 17  1  0
 13 18  1  0
 14 15  1  0
 19 20  1  0
 20 21  1  0
 20 22  1  0
 21 23  1  0
 21 24  2  0
 23 25  2  0
 26 27  2  0
 26 28  1  0
 27 29  1  0
 28 30  2  0
 29 31  2  0
 30 31  1  0
 31 32  1  0
M  END
>  <PUBCHEM_COMPOUND_CID>  (1) 
42947

>  <PUBCHEM_CONFORMER_RMSD>  (1) 
1.2

>  <PUBCHEM_CONFORMER_DIVERSEORDER>  (1) 
1
25
230
131
256
120
225
232
30
260
2
274
157
33
83
287
152
34
281
90
183
40
99
252
303
76
128
101
208
159
95
251
130
21
139
54
269
279
259
146
154
231
48
60
236
234
23
168
262
100
119
229
222
98
218
158
193
273
160
224
55
72
205
172
167
227
114
270
14
182
92
38
293
295
118
245
10
263
15
194
264
78
75
35
26
190
209
122
107
49
150
142
300
226
18
65
244
138
180
296
81
211
248
135
151
4
96
288
134
197
162
66
71
239
187
301
126
291
116
123
12
185
140
69
203
169
9
50
207
37
155
221
250
62
246
176
88
41
267
206
290
177
144
20
282
145
153
125
299
74
240
61
238
32
220
275
241
202
147
247
91
19
261
271
298
80
186
210
235
22
268
133
223
283
192
213
306
276
3
294
29
280
164
217
52
171
63
307
7
93
97
254
272
85
166
42
31
86
149
292
46
284
219
289
127
115
13
44
258
110
143
204
199
265
8
5
24
286
175
257
124
64
188
214
181
179
249
228
94
104
200
201
121
43
242
112
278
113
198
156
302
285
170
27
173
136
47
148
39
132
73
79
305
106
82
237
103
17
105
304
77
6
277
108
216
111
70
189
51
84
255
58
57
196
67
102
68
195
174
45
161
137
53
16
243
165
56
109
178
191
297
89
184
233
253
36
129
212
141
117
87
59
11
215
163
28
266

>  <PUBCHEM_MMFF94_PARTIAL_CHARGES>  (1) 
39
1 -0.45
10 -0.65
11 0.44
12 0.23
13 0.36
14 0.28
15 0.58
18 0.66
19 0.57
2 -0.08
20 0.3
21 -0.18
22 0.66
23 -0.15
24 -0.11
25 -0.11
26 0.08
27 -0.15
28 -0.15
29 -0.15
3 -0.57
30 -0.15
31 -0.14
32 0.14
4 -0.65
42 0.37
44 0.5
45 0.15
46 0.15
47 0.15
48 0.15
49 0.15
5 -0.57
50 0.15
51 0.15
6 -0.57
7 -0.23
8 -0.57
9 -0.59

>  <PUBCHEM_EFFECTIVE_ROTOR_COUNT>  (1) 
8.8

>  <PUBCHEM_PHARMACOPHORE_FEATURES>  (1) 
13
1 10 donor
1 20 anion
1 3 acceptor
1 4 acceptor
1 5 acceptor
1 6 acceptor
1 8 acceptor
3 12 16 17 hydrophobe
3 4 5 18 anion
4 9 11 14 15 rings
5 2 21 23 24 25 rings
6 26 27 28 29 30 31 rings
7 1 9 11 12 13 14 15 rings

>  <PUBCHEM_HEAVY_ATOM_COUNT>  (1) 
32

>  <PUBCHEM_ATOM_DEF_STEREO_COUNT>  (1) 
0

>  <PUBCHEM_ATOM_UDEF_STEREO_COUNT>  (1) 
4

>  <PUBCHEM_BOND_DEF_STEREO_COUNT>  (1) 
0

>  <PUBCHEM_BOND_UDEF_STEREO_COUNT>  (1) 
0

>  <PUBCHEM_ISOTOPIC_ATOM_COUNT>  (1) 
0

>  <PUBCHEM_COMPONENT_COUNT>  (1) 
1

>  <PUBCHEM_CACTVS_TAUTO_COUNT>  (1) 
2

>  <PUBCHEM_CONFORMER_ID>  (1) 
0000A7C300000001

>  <PUBCHEM_MMFF94_ENERGY>  (1) 
84.0308

>  <PUBCHEM_FEATURE_SELFOVERLAP>  (1) 
69.762

>  <PUBCHEM_SHAPE_FINGERPRINT>  (1) 
10369192 42 18337109089513998508
10721379 63 18198917924386680830
10937287 8 18339921619046587702
11135609 201 18267866258017029824
11136131 41 18335976472683908866
12107183 9 17693097358330666001
12293681 160 17846225522345128376
12758862 56 17687186392189235283
13248334 5 18337669694953755250
13757389 114 17904774619534551030
13955234 65 18337393734150472474
14068700 686 18409735101241431619
14294032 229 18052263091931123842
14739800 52 18201432558749922129
14790565 3 18338797935242578060
14849402 71 18336263436745504674
15183329 4 15195020378655217444
15198563 99 17478325800244109702
15351339 4 18202846552215366160
15439362 3 18412546553174560436
15890870 6 18338515369297195244
16126227 98 18122064466808267424
17844677 252 18197501727824787987
17980427 26 18339630197152804974
19319366 153 18342168986174344742
1979834 28 18114187444698527085
21033648 29 18126277773969995656
21133410 127 18114179684094739332
21365058 113 17769107743520379246
21424621 283 18269272534001222568
21756936 100 18124309669672680588
23559900 14 18056195770087729831
23845131 108 18263357147973453338
249999 5 18410291385236752482
3178227 256 18336824205013814714
3411729 13 18410572872855304178
3627633 1 17257931495249742670
3918712 181 18340761666925841969
4058900 60 18409736183672936682
4073 2 18408324419660283131
44062 13 9295298235538914337
5104073 3 18264775346912493123
5219985 13 18338795744977757020
6057620 51 18268982263100353567
6058803 2 18200303322022904855
6086070 43 17685760334381611839
6691757 9 17906417221693770056
6697151 62 17684906035042825487
6700243 42 16826478146358554086
6703917 75 18265065806818732212
77188 2 17905886973184022662
9658208 31 18126001813984013056
9849439 229 18268699692616617576
9962374 69 18269262483767681295
9981440 41 18263365943902601386

>  <PUBCHEM_SHAPE_MULTIPOLES>  (1) 
621.07
16.71
6.69
1.28
10.13
8
0.1
-21.14
1.38
-10.98
0.6
-0.01
-0.1
-0.59

>  <PUBCHEM_SHAPE_SELFOVERLAP>  (1) 
1313.988

>  <PUBCHEM_SHAPE_VOLUME>  (1) 
351.3

>  <PUBCHEM_COORDINATE_TYPE>  (1) 
2
5
10

$$$$
