4294
     RDKit          3D

 21 22  0  0  0  0  0  0  0  0999 V2000
   -0.1927    2.4140   -0.3174 S   0  0  0  0  0  0  0  0  0  0  0  0
    0.2027    3.5261    0.5253 O   0  0  0  0  0  0  0  0  0  0  0  0
   -0.4195    2.6110   -1.7367 O   0  0  0  0  0  0  0  0  0  0  0  0
    3.9475   -1.7548    0.2076 O   0  0  0  0  0  0  0  0  0  0  0  0
   -0.5223   -1.8328    2.3900 O   0  0  0  0  0  0  0  0  0  0  0  0
   -1.3739    0.2378    2.7825 O   0  0  0  0  0  0  0  0  0  0  0  0
   -1.5745    1.6279    0.3796 N   0  0  0  0  0  0  0  0  0  0  0  0
    2.3747   -1.6644   -2.1243 N   0  0  0  0  0  0  0  0  0  0  0  0
    1.0472    1.1606   -0.1667 C   0  0  0  0  0  0  0  0  0  0  0  0
   -1.8969    0.3289   -0.1255 C   0  0  0  0  0  0  0  0  0  0  0  0
    1.2179    0.2522   -1.1960 C   0  0  0  0  0  0  0  0  0  0  0  0
    1.8224    1.1146    0.9782 C   0  0  0  0  0  0  0  0  0  0  0  0
   -1.7250   -0.8104    0.6607 C   0  0  0  0  0  0  0  0  0  0  0  0
    2.1961   -0.7349   -1.0764 C   0  0  0  0  0  0  0  0  0  0  0  0
   -2.3885    0.2114   -1.4256 C   0  0  0  0  0  0  0  0  0  0  0  0
    2.8006    0.1275    1.0979 C   0  0  0  0  0  0  0  0  0  0  0  0
    2.9875   -0.7972    0.0704 C   0  0  0  0  0  0  0  0  0  0  0  0
   -2.0446   -2.0672    0.1467 C   0  0  0  0  0  0  0  0  0  0  0  0
   -2.7082   -1.0453   -1.9395 C   0  0  0  0  0  0  0  0  0  0  0  0
   -2.5362   -2.1845   -1.1533 C   0  0  0  0  0  0  0  0  0  0  0  0
   -1.2143   -0.7208    2.0226 C   0  0  0  0  0  0  0  0  0  0  0  0
  1  2  2  0
  1  3  2  0
  1  7  1  0
  1  9  1  0
  4 17  1  0
  5 21  1  0
  6 21  2  0
  7 10  1  0
  8 14  1  0
  9 11  2  0
  9 12  1  0
 10 13  2  0
 10 15  1  0
 11 14  1  0
 12 16  2  0
 13 18  1  0
 13 21  1  0
 14 17  2  0
 15 19  2  0
 16 17  1  0
 18 20  2  0
 19 20  1  0
M  END
>  <PUBCHEM_COMPOUND_CID>  (1) 
4294

>  <PUBCHEM_CONFORMER_RMSD>  (1) 
0.6

>  <PUBCHEM_CONFORMER_DIVERSEORDER>  (1) 
1
26
46
34
61
4
59
37
30
21
62
3
60
2
28
51
33
19
48
17
50
52
6
36
31
45
40
32
35
5
56
14
16
54
57
49
58
47
20
18
9
7
55
24
53
41
13
15
10
8
42
27
44
11
12
43
38
39
22
29
23
25

>  <PUBCHEM_MMFF94_PARTIAL_CHARGES>  (1) 
33
1 1.45
10 0.2
11 -0.15
12 -0.15
13 0.09
14 0.1
15 -0.15
16 -0.15
17 0.08
18 -0.15
19 -0.15
2 -0.65
20 -0.15
21 0.63
22 0.42
23 0.15
24 0.15
25 0.15
26 0.15
27 0.15
28 0.15
29 0.15
3 -0.65
30 0.4
31 0.4
32 0.45
33 0.5
4 -0.53
5 -0.65
6 -0.57
7 -0.76
8 -0.9
9 -0.01

>  <PUBCHEM_EFFECTIVE_ROTOR_COUNT>  (1) 
4

>  <PUBCHEM_PHARMACOPHORE_FEATURES>  (1) 
11
1 2 acceptor
1 3 acceptor
1 4 donor
1 5 acceptor
1 6 acceptor
1 7 donor
1 8 cation
1 8 donor
3 5 6 21 anion
6 10 13 15 18 19 20 rings
6 9 11 12 14 16 17 rings

>  <PUBCHEM_HEAVY_ATOM_COUNT>  (1) 
21

>  <PUBCHEM_ATOM_DEF_STEREO_COUNT>  (1) 
0

>  <PUBCHEM_ATOM_UDEF_STEREO_COUNT>  (1) 
0

>  <PUBCHEM_BOND_DEF_STEREO_COUNT>  (1) 
0

>  <PUBCHEM_BOND_UDEF_STEREO_COUNT>  (1) 
0

>  <PUBCHEM_ISOTOPIC_ATOM_COUNT>  (1) 
0

>  <PUBCHEM_COMPONENT_COUNT>  (1) 
1

>  <PUBCHEM_CACTVS_TAUTO_COUNT>  (1) 
10

>  <PUBCHEM_CONFORMER_ID>  (1) 
000010C600000001

>  <PUBCHEM_MMFF94_ENERGY>  (1) 
63.7863

>  <PUBCHEM_FEATURE_SELFOVERLAP>  (1) 
55.899

>  <PUBCHEM_SHAPE_FINGERPRINT>  (1) 
107951 10 16745981335771832854
11578080 2 16772082947873961585
11582403 64 15814448013989668509
128993 33 9222963589860432374
14386348 128 10519440661257745162
14817 1 13379989799361508233
15852999 172 17105627638174393513
16945 1 17750774602306851104
17492 54 15088599021590419095
18981168 100 9799425398730968274
20645476 183 16807026328625024021
21623110 236 11452453217750286922
21731516 1 18265636418244359222
22889148 1 17973150743141181957
23419403 2 16960915277803763780
23559900 14 17823952676810328112
23728640 28 18050567335462553178
3797600 57 16476572897980843479
5262128 65 18264197192067844655
576247 118 17974327379633516896
81228 2 18264775359048711068

>  <PUBCHEM_SHAPE_MULTIPOLES>  (1) 
396.71
4.67
2.89
2.25
1.69
1.8
0.91
-3.24
-0.94
0.32
-0.54
-0.79
-0.57
0.31

>  <PUBCHEM_SHAPE_SELFOVERLAP>  (1) 
845.232

>  <PUBCHEM_SHAPE_VOLUME>  (1) 
220.4

>  <PUBCHEM_COORDINATE_TYPE>  (1) 
2
5
10

$$$$
