42955
     RDKit          3D

 27 27  0  0  1  0  0  0  0  0999 V2000
    5.0749    2.9278    0.6030 O   0  0  0  0  0  0  0  0  0  0  0  0
    0.6707    4.2098   -0.4119 O   0  0  0  0  0  0  0  0  0  0  0  0
    3.3802   -3.1984    2.2194 O   0  0  0  0  0  0  0  0  0  0  0  0
   -8.0176   -0.2665   -0.3460 O   0  0  0  0  0  0  0  0  0  0  0  0
   -6.8309   -0.7696    1.5669 O   0  0  0  0  0  0  0  0  0  0  0  0
    1.6545    1.9922   -0.3245 C   0  0  0  0  0  0  0  0  0  0  0  0
    3.0305    1.6704    0.2783 C   0  0  0  0  0  0  0  0  0  0  0  0
    3.9263    2.8117   -0.2217 C   0  0  0  0  0  0  0  0  0  0  0  0
    3.0557    4.0608   -0.1056 C   0  0  0  0  0  0  0  0  0  0  0  0
    0.4984    1.4023    0.4638 C   0  0  0  0  0  0  0  0  0  0  0  0
    1.6666    3.5070   -0.2916 C   0  0  0  0  0  0  0  0  0  0  0  0
    3.5316    0.3194   -0.1207 C   0  0  0  0  0  0  0  0  0  0  0  0
   -0.8120    1.4778   -0.3201 C   0  0  0  0  0  0  0  0  0  0  0  0
   -1.9671    0.8517    0.4632 C   0  0  0  0  0  0  0  0  0  0  0  0
    3.8482   -0.6473    0.7531 C   0  0  0  0  0  0  0  0  0  0  0  0
    3.4589   -3.1872    0.7908 C   0  0  0  0  0  0  0  0  0  0  0  0
    4.3591   -2.0050    0.3503 C   0  0  0  0  0  0  0  0  0  0  0  0
   -3.2710    0.8980   -0.3362 C   0  0  0  0  0  0  0  0  0  0  0  0
    2.0346   -2.9648    0.2236 C   0  0  0  0  0  0  0  0  0  0  0  0
    4.0377   -4.5356    0.3488 C   0  0  0  0  0  0  0  0  0  0  0  0
   -4.4192    0.2407    0.4361 C   0  0  0  0  0  0  0  0  0  0  0  0
    1.9544   -2.8904   -1.3071 C   0  0  0  0  0  0  0  0  0  0  0  0
    0.5281   -2.5849   -1.7698 C   0  0  0  0  0  0  0  0  0  0  0  0
   -5.7302    0.2466   -0.3498 C   0  0  0  0  0  0  0  0  0  0  0  0
    0.4447   -2.4767   -3.2841 C   0  0  0  0  0  0  0  0  0  0  0  0
   -6.8920   -0.3353    0.4249 C   0  0  0  0  0  0  0  0  0  0  0  0
   -9.2154   -0.7545    0.2671 C   0  0  0  0  0  0  0  0  0  0  0  0
  1  8  1  0
  2 11  2  0
  3 16  1  0
  4 26  1  0
  4 27  1  0
  5 26  2  0
  6  7  1  0
  6 10  1  0
  6 11  1  0
  7  8  1  0
  7 12  1  0
  8  9  1  0
  9 11  1  0
 10 13  1  0
 12 15  2  0
 13 14  1  0
 14 18  1  0
 15 17  1  0
 16 17  1  0
 16 19  1  0
 16 20  1  0
 18 21  1  0
 19 22  1  0
 21 24  1  0
 22 23  1  0
 23 25  1  0
 24 26  1  0
M  END
>  <PUBCHEM_COMPOUND_CID>  (1) 
42955

>  <PUBCHEM_CONFORMER_RMSD>  (1) 
1.4

>  <PUBCHEM_CONFORMER_DIVERSEORDER>  (1) 
1
85
123
64
78
56
127
63
86
8
101
120
58
139
54
125
27
138
5
62
43
110
99
136
149
44
107
69
79
131
23
53
90
22
9
38
13
17
82
73
42
16
46
146
106
130
67
80
150
97
137
115
41
92
84
29
59
89
135
100
105
40
128
81
118
102
52
117
18
113
134
74
109
116
129
111
83
14
141
147
24
12
140
104
55
37
45
47
119
66
94
21
71
72
35
87
77
33
36
91
88
49
96
98
93
114
124
11
26
132
48
32
30
75
39
122
50
145
126
3
61
60
144
121
19
6
2
76
28
68
51
133
143
34
65
10
103
4
25
31
20
142
57
70
15
108
7
95
112
148

>  <PUBCHEM_MMFF94_PARTIAL_CHARGES>  (1) 
21
1 -0.68
11 0.45
12 -0.29
15 -0.29
16 0.28
17 0.14
2 -0.57
24 0.06
26 0.66
27 0.28
3 -0.68
35 0.15
4 -0.43
40 0.15
43 0.4
5 -0.57
55 0.4
6 0.06
7 0.14
8 0.28
9 0.06

>  <PUBCHEM_EFFECTIVE_ROTOR_COUNT>  (1) 
14.8

>  <PUBCHEM_PHARMACOPHORE_FEATURES>  (1) 
10
1 1 acceptor
1 1 donor
1 2 acceptor
1 25 hydrophobe
1 3 acceptor
1 3 donor
1 5 acceptor
3 10 13 14 hydrophobe
3 18 21 24 hydrophobe
5 6 7 8 9 11 rings

>  <PUBCHEM_HEAVY_ATOM_COUNT>  (1) 
27

>  <PUBCHEM_ATOM_DEF_STEREO_COUNT>  (1) 
3

>  <PUBCHEM_ATOM_UDEF_STEREO_COUNT>  (1) 
1

>  <PUBCHEM_BOND_DEF_STEREO_COUNT>  (1) 
0

>  <PUBCHEM_BOND_UDEF_STEREO_COUNT>  (1) 
1

>  <PUBCHEM_ISOTOPIC_ATOM_COUNT>  (1) 
0

>  <PUBCHEM_COMPONENT_COUNT>  (1) 
1

>  <PUBCHEM_CACTVS_TAUTO_COUNT>  (1) 
3

>  <PUBCHEM_CONFORMER_ID>  (1) 
0000A7CB00000001

>  <PUBCHEM_MMFF94_ENERGY>  (1) 
33.059

>  <PUBCHEM_FEATURE_SELFOVERLAP>  (1) 
50.747

>  <PUBCHEM_SHAPE_FINGERPRINT>  (1) 
10411042 1 18193274083962116730
10951579 204 16733533907332774309
12107183 9 18124604072464990865
13111901 25 18059850719212538831
13533116 47 18412544327727880353
1361 2 18410011069584207289
13785724 45 18125167034679989775
13955234 65 18339920523313378896
13989917 61 18408887351985786755
15328684 2 17417546735360587675
15483637 11 17975698608147037483
15484559 13 18266752444686520748
17492 89 18337952268729625497
19427546 62 17975978988086688624
1979834 28 17703224010288058303
20771845 140 16845290532374717527
21197605 99 18339082708664891203
23558518 356 17404292388527813700
3421961 26 18337387154502895216
5309563 4 18265896852492667928

>  <PUBCHEM_SHAPE_MULTIPOLES>  (1) 
526.3
17.37
6.14
1.55
60.41
0.35
1.03
-5.64
-5.63
-12.96
0.48
-0.52
-2.04
-0.79

>  <PUBCHEM_SHAPE_SELFOVERLAP>  (1) 
1026.657

>  <PUBCHEM_SHAPE_VOLUME>  (1) 
318.4

>  <PUBCHEM_COORDINATE_TYPE>  (1) 
2
5
10

$$$$
