4295
     RDKit          2D

 33 36  0  0  0  0  0  0  0  0999 V2000
    0.0000    0.0000    0.0000 Cl  0  0  0  0  0  0  0  0  0  0  0  0
    0.0000    0.0000    0.0000 O   0  0  0  0  0  0  0  0  0  0  0  0
    0.0000    0.0000    0.0000 O   0  0  0  0  0  0  0  0  0  0  0  0
    0.0000    0.0000    0.0000 O   0  0  0  0  0  0  0  0  0  0  0  0
    0.0000    0.0000    0.0000 N   0  0  0  0  0  0  0  0  0  0  0  0
    0.0000    0.0000    0.0000 N   0  0  0  0  0  0  0  0  0  0  0  0
    0.0000    0.0000    0.0000 N   0  0  0  0  0  0  0  0  0  0  0  0
    0.0000    0.0000    0.0000 C   0  0  0  0  0  0  0  0  0  0  0  0
    0.0000    0.0000    0.0000 C   0  0  0  0  0  0  0  0  0  0  0  0
    0.0000    0.0000    0.0000 C   0  0  0  0  0  0  0  0  0  0  0  0
    0.0000    0.0000    0.0000 C   0  0  0  0  0  0  0  0  0  0  0  0
    0.0000    0.0000    0.0000 C   0  0  0  0  0  0  0  0  0  0  0  0
    0.0000    0.0000    0.0000 C   0  0  0  0  0  0  0  0  0  0  0  0
    0.0000    0.0000    0.0000 C   0  0  0  0  0  0  0  0  0  0  0  0
    0.0000    0.0000    0.0000 C   0  0  0  0  0  0  0  0  0  0  0  0
    0.0000    0.0000    0.0000 C   0  0  0  0  0  0  0  0  0  0  0  0
    0.0000    0.0000    0.0000 C   0  0  0  0  0  0  0  0  0  0  0  0
    0.0000    0.0000    0.0000 C   0  0  0  0  0  0  0  0  0  0  0  0
    0.0000    0.0000    0.0000 C   0  0  0  0  0  0  0  0  0  0  0  0
    0.0000    0.0000    0.0000 C   0  0  0  0  0  0  0  0  0  0  0  0
    0.0000    0.0000    0.0000 C   0  0  0  0  0  0  0  0  0  0  0  0
    0.0000    0.0000    0.0000 C   0  0  0  0  0  0  0  0  0  0  0  0
    0.0000    0.0000    0.0000 C   0  0  0  0  0  0  0  0  0  0  0  0
    0.0000    0.0000    0.0000 C   0  0  0  0  0  0  0  0  0  0  0  0
    0.0000    0.0000    0.0000 C   0  0  0  0  0  0  0  0  0  0  0  0
    0.0000    0.0000    0.0000 C   0  0  0  0  0  0  0  0  0  0  0  0
    0.0000    0.0000    0.0000 C   0  0  0  0  0  0  0  0  0  0  0  0
    0.0000    0.0000    0.0000 C   0  0  0  0  0  0  0  0  0  0  0  0
    0.0000    0.0000    0.0000 C   0  0  0  0  0  0  0  0  0  0  0  0
    0.0000    0.0000    0.0000 C   0  0  0  0  0  0  0  0  0  0  0  0
    0.0000    0.0000    0.0000 C   0  0  0  0  0  0  0  0  0  0  0  0
    0.0000    0.0000    0.0000 C   0  0  0  0  0  0  0  0  0  0  0  0
    0.0000    0.0000    0.0000 C   0  0  0  0  0  0  0  0  0  0  0  0
  1 29  1  0
  2 17  1  0
  2 28  1  0
  3 16  2  0
  4 18  2  0
  5 10  1  0
  5 11  1  0
  5 16  1  0
  6 18  1  0
  6 21  1  0
  7 31  2  0
  7 33  1  0
  8  9  1  0
  8 10  2  0
  8 12  1  0
  9 11  2  0
  9 13  1  0
 10 15  1  0
 11 14  1  0
 12 18  1  0
 13 17  2  0
 14 19  2  0
 16 20  1  0
 17 19  1  0
 20 23  2  0
 20 24  1  0
 21 22  1  0
 22 25  1  0
 23 26  1  0
 24 27  2  0
 25 30  2  0
 25 31  1  0
 26 29  2  0
 27 29  1  0
 30 32  1  0
 32 33  2  0
M  END
>  <PUBCHEM_COMPOUND_CID>  (1) 
4295

>  <PUBCHEM_CONFORMER_RMSD>  (1) 
1

>  <PUBCHEM_CONFORMER_DIVERSEORDER>  (1) 
23
106
225
399
418
360
232
70
420
295
105
93
260
421
71
168
53
384
429
37
395
56
274
356
422
27
170
115
175
386
177
415
87
291
264
197
269
215
335
223
48
199
419
9
341
66
398
245
52
82
213
328
296
302
363
333
297
235
266
242
2
376
116
97
186
408
68
387
216
150
127
173
377
354
271
334
148
407
28
136
393
403
312
253
191
413
128
144
364
288
103
389
392
75
425
153
17
278
412
29
200
143
294
342
332
142
112
361
131
310
368
201
50
236
353
279
330
114
388
158
240
405
61
96
174
141
88
256
345
326
340
214
372
24
430
154
397
273
145
4
344
375
120
77
189
181
117
298
140
339
282
402
55
132
414
44
237
327
187
98
400
195
20
293
194
95
241
428
149
261
337
239
39
382
367
265
230
65
86
336
137
188
331
427
178
123
57
359
426
89
227
90
255
411
64
396
14
217
244
311
83
147
254
163
362
306
151
292
358
198
104
202
383
259
133
404
43
262
380
243
374
100
246
81
234
138
45
316
369
176
370
25
325
258
252
167
320
109
385
284
394
229
378
94
59
272
248
212
121
268
221
125
180
285
351
58
15
31
290
36
203
308
287
350
355
238
46
182
379
122
18
348
164
228
196
10
347
286
231
391
118
152
209
192
263
390
63
276
357
139
16
107
169
54
250
60
111
318
12
424
349
80
160
417
315
324
251
409
156
277
381
13
410
102
270
366
338
210
130
309
281
33
300
51
135
207
134
218
190
124
172
301
159
101
67
211
233
8
303
373
38
76
1
193
371
346
365
219
267
162
205
5
184
406
307
42
179
129
92
165
329
30
343
423
161
47
91
108
289
185
206
224
247
74
62
322
304
21
208
171
126
249
7
401
166
78
204
79
3
321
222
314
317
26
319
313
275
73
40
19
323
113
155
119
280
85
35
110
99
416
183
41
146
49
11
352
299
305
220
257
226
34
157
84
283
6
32
69
72
22

>  <PUBCHEM_MMFF94_PARTIAL_CHARGES>  (1) 
44
1 -0.18
10 -0.33
11 -0.15
12 0.24
13 -0.15
14 -0.15
15 0.18
16 0.49
17 0.08
18 0.57
19 -0.15
2 -0.36
20 0.09
21 0.3
22 0.14
23 -0.15
24 -0.15
25 -0.14
26 -0.15
27 -0.15
28 0.28
29 0.18
3 -0.57
30 -0.15
31 0.16
32 -0.15
33 0.16
36 0.15
37 0.15
4 -0.57
41 0.15
42 0.37
47 0.15
48 0.15
49 0.15
5 0.29
50 0.15
54 0.15
55 0.15
56 0.15
57 0.15
6 -0.73
7 -0.62
8 -0.18

>  <PUBCHEM_EFFECTIVE_ROTOR_COUNT>  (1) 
9

>  <PUBCHEM_PHARMACOPHORE_FEATURES>  (1) 
9
1 2 acceptor
1 3 acceptor
1 4 acceptor
1 6 donor
1 7 acceptor
5 5 8 9 10 11 rings
6 20 23 24 26 27 29 rings
6 7 25 30 31 32 33 rings
6 9 11 13 14 17 19 rings

>  <PUBCHEM_HEAVY_ATOM_COUNT>  (1) 
33

>  <PUBCHEM_ATOM_DEF_STEREO_COUNT>  (1) 
0

>  <PUBCHEM_ATOM_UDEF_STEREO_COUNT>  (1) 
0

>  <PUBCHEM_BOND_DEF_STEREO_COUNT>  (1) 
0

>  <PUBCHEM_BOND_UDEF_STEREO_COUNT>  (1) 
0

>  <PUBCHEM_ISOTOPIC_ATOM_COUNT>  (1) 
0

>  <PUBCHEM_COMPONENT_COUNT>  (1) 
1

>  <PUBCHEM_CACTVS_TAUTO_COUNT>  (1) 
2

$$$$
