42953
     RDKit          3D

 11 10  0  0  1  0  0  0  0  0999 V2000
    0.0013   -0.0653    0.0001 O   0  0  0  0  0  0  0  0  0  0  0  0
   -2.4572   -0.9919    1.0200 O   0  0  0  0  0  0  0  0  0  0  0  0
    2.4575   -0.9931   -1.0192 O   0  0  0  0  0  0  0  0  0  0  0  0
   -4.7988   -0.2184   -0.3000 O   0  0  0  0  0  0  0  0  0  0  0  0
    4.7987   -0.2173    0.3002 O   0  0  0  0  0  0  0  0  0  0  0  0
   -2.4062   -0.1571   -0.1394 C   0  0  0  0  0  0  0  0  0  0  0  0
    2.4060   -0.1575    0.1395 C   0  0  0  0  0  0  0  0  0  0  0  0
   -1.1745    0.7363   -0.0447 C   0  0  0  0  0  0  0  0  0  0  0  0
    1.1739    0.7350    0.0442 C   0  0  0  0  0  0  0  0  0  0  0  0
   -3.6879    0.6644   -0.1841 C   0  0  0  0  0  0  0  0  0  0  0  0
    3.6872    0.6647    0.1835 C   0  0  0  0  0  0  0  0  0  0  0  0
  1  8  1  0
  1  9  1  0
  2  6  1  0
  3  7  1  0
  4 10  1  0
  5 11  1  0
  6  8  1  0
  6 10  1  0
  7  9  1  0
  7 11  1  0
M  END
>  <PUBCHEM_COMPOUND_CID>  (1) 
42953

>  <PUBCHEM_CONFORMER_RMSD>  (1) 
0.6

>  <PUBCHEM_CONFORMER_DIVERSEORDER>  (1) 
1
156
30
150
7
67
16
106
45
66
146
145
69
54
78
97
144
153
154
10
56
13
81
24
164
21
162
64
151
3
77
117
17
116
28
73
149
46
130
137
4
93
160
96
161
155
133
6
58
157
85
15
110
113
74
98
9
114
44
118
163
82
88
65
72
143
111
120
79
2
101
139
134
19
49
121
100
136
32
84
124
75
18
35
62
135
107
43
89
103
152
68
159
138
99
94
34
20
33
87
29
80
142
71
63
125
27
109
11
132
50
48
5
95
131
41
148
112
76
14
129
52
105
12
53
123
147
91
158
108
92
51
140
22
23
141
70
36
90
25
26
115
61
8
59
126
122
38
83
104
119
86
39
57
55
40
128
60
31
102
127
42
37
47

>  <PUBCHEM_MMFF94_PARTIAL_CHARGES>  (1) 
15
1 -0.56
10 0.28
11 0.28
2 -0.68
22 0.4
23 0.4
24 0.4
25 0.4
3 -0.68
4 -0.68
5 -0.68
6 0.28
7 0.28
8 0.28
9 0.28

>  <PUBCHEM_EFFECTIVE_ROTOR_COUNT>  (1) 
6

>  <PUBCHEM_PHARMACOPHORE_FEATURES>  (1) 
9
1 1 acceptor
1 2 acceptor
1 2 donor
1 3 acceptor
1 3 donor
1 4 acceptor
1 4 donor
1 5 acceptor
1 5 donor

>  <PUBCHEM_HEAVY_ATOM_COUNT>  (1) 
11

>  <PUBCHEM_ATOM_DEF_STEREO_COUNT>  (1) 
0

>  <PUBCHEM_ATOM_UDEF_STEREO_COUNT>  (1) 
2

>  <PUBCHEM_BOND_DEF_STEREO_COUNT>  (1) 
0

>  <PUBCHEM_BOND_UDEF_STEREO_COUNT>  (1) 
0

>  <PUBCHEM_ISOTOPIC_ATOM_COUNT>  (1) 
0

>  <PUBCHEM_COMPONENT_COUNT>  (1) 
1

>  <PUBCHEM_CACTVS_TAUTO_COUNT>  (1) 
1

>  <PUBCHEM_CONFORMER_ID>  (1) 
0000A7C900000001

>  <PUBCHEM_MMFF94_ENERGY>  (1) 
19.7544

>  <PUBCHEM_FEATURE_SELFOVERLAP>  (1) 
45.696

>  <PUBCHEM_SHAPE_FINGERPRINT>  (1) 
11062470 55 18410854360632514189
14123238 8 18409446994523498933
14252887 29 18060427897674569270
17834072 33 17703221927123041173
17834076 25 18410855460144148484
18186145 218 12035732054251364964
20201158 50 18411703179356388074
20279233 1 18410862057198175298
20645477 70 18130507418665175134
20719005 15 18412260640325735276
20767249 13 18410852165888265253
20828058 21 12751243605566205944
21119208 17 15719109154053407144
22485316 2 18410852165888460135
23402539 116 18334848421056648333
23557571 272 18187364277581882700
3248919 1 18338529585253257893
42788 4 18410290311162255309

>  <PUBCHEM_SHAPE_MULTIPOLES>  (1) 
197.03
9.25
0.93
0.75
0
0.01
0
0.34
0
0
0
0
0.15
0.41

>  <PUBCHEM_SHAPE_SELFOVERLAP>  (1) 
360.841

>  <PUBCHEM_SHAPE_VOLUME>  (1) 
125.1

>  <PUBCHEM_COORDINATE_TYPE>  (1) 
2
5
10

$$$$
