42968
     RDKit          3D

 15 17  0  0  1  0  0  0  0  0999 V2000
    0.5331   -2.7902   -0.6007 Br  0  0  0  0  0  0  0  0  0  0  0  0
    1.8476    0.1673   -0.4525 N   0  0  0  0  0  0  0  0  0  0  0  0
    0.4071    0.1161   -0.2003 C   0  0  0  0  0  0  0  0  0  0  0  0
   -1.5551   -1.2418    0.6513 C   0  0  0  0  0  0  0  0  0  0  0  0
   -1.4714    1.2477    1.0791 C   0  0  0  0  0  0  0  0  0  0  0  0
   -1.8826    0.3900   -1.2510 C   0  0  0  0  0  0  0  0  0  0  0  0
   -0.0293   -1.2248    0.4366 C   0  0  0  0  0  0  0  0  0  0  0  0
    0.0449    1.2412    0.8047 C   0  0  0  0  0  0  0  0  0  0  0  0
   -0.3658    0.3820   -1.5142 C   0  0  0  0  0  0  0  0  0  0  0  0
   -1.9001   -0.1171    1.6495 C   0  0  0  0  0  0  0  0  0  0  0  0
   -2.3100   -0.9650   -0.6655 C   0  0  0  0  0  0  0  0  0  0  0  0
   -2.2163    1.5004   -0.2413 C   0  0  0  0  0  0  0  0  0  0  0  0
    2.5907   -0.0892    0.7803 C   0  0  0  0  0  0  0  0  0  0  0  0
    2.2212    1.4641   -1.0151 C   0  0  0  0  0  0  0  0  0  0  0  0
    4.0861   -0.0806    0.5388 C   0  0  0  0  0  0  0  0  0  0  0  0
  1  7  1  0
  2  3  1  0
  2 13  1  0
  2 14  1  0
  3  7  1  0
  3  8  1  0
  3  9  1  0
  4  7  1  0
  4 10  1  0
  4 11  1  0
  5  8  1  0
  5 10  1  0
  5 12  1  0
  6  9  1  0
  6 11  1  0
  6 12  1  0
 13 15  1  0
M  END
>  <PUBCHEM_COMPOUND_CID>  (1) 
42968

>  <PUBCHEM_CONFORMER_RMSD>  (1) 
0.6

>  <PUBCHEM_CONFORMER_DIVERSEORDER>  (1) 
2
1
3
4

>  <PUBCHEM_MMFF94_PARTIAL_CHARGES>  (1) 
6
1 -0.23
13 0.27
14 0.27
2 -0.81
3 0.27
7 0.23

>  <PUBCHEM_EFFECTIVE_ROTOR_COUNT>  (1) 
3.2

>  <PUBCHEM_PHARMACOPHORE_FEATURES>  (1) 
6
1 1 hydrophobe
1 2 cation
6 3 4 5 7 8 10 rings
6 3 4 6 7 9 11 rings
6 3 5 6 8 9 12 rings
6 4 5 6 10 11 12 rings

>  <PUBCHEM_HEAVY_ATOM_COUNT>  (1) 
15

>  <PUBCHEM_ATOM_DEF_STEREO_COUNT>  (1) 
0

>  <PUBCHEM_ATOM_UDEF_STEREO_COUNT>  (1) 
3

>  <PUBCHEM_BOND_DEF_STEREO_COUNT>  (1) 
0

>  <PUBCHEM_BOND_UDEF_STEREO_COUNT>  (1) 
0

>  <PUBCHEM_ISOTOPIC_ATOM_COUNT>  (1) 
0

>  <PUBCHEM_COMPONENT_COUNT>  (1) 
1

>  <PUBCHEM_CACTVS_TAUTO_COUNT>  (1) 
1

>  <PUBCHEM_CONFORMER_ID>  (1) 
0000A7D800000002

>  <PUBCHEM_MMFF94_ENERGY>  (1) 
49.2823

>  <PUBCHEM_FEATURE_SELFOVERLAP>  (1) 
42.93

>  <PUBCHEM_SHAPE_FINGERPRINT>  (1) 
10863032 1 18056752135934842437
10948715 1 18193548974453009157
12423570 1 10126336766036616889
12491281 212 16200158655470099840
12524768 44 17977103453056988954
13024252 1 12901543533610574361
13172582 1 18186804656090562356
144361 1 18041263465715591603
14614273 12 18410854339458202311
14817 1 11670109369955987193
15309172 13 18409168796886494410
15775835 57 17632295614585841480
15852999 172 18262505996997519335
16945 1 18335433352156792007
19010151 120 17774438425215587295
19837323 101 16128107641396045721
20525323 117 17418375800379658144
22344851 262 18335978662684894485
23236772 104 17274818047677471267
23402539 116 17917414471541354991
23419403 2 16051495002644487907
23559900 14 18131339801334664370
2748010 2 17975711497306260971
305870 269 18128255593155213746
369184 2 18202279216809528392
5084963 1 18114172077310666858
528886 8 18041823039766728637

>  <PUBCHEM_SHAPE_MULTIPOLES>  (1) 
309.65
4.18
2.07
1.42
4.01
1.36
0.02
-0.77
-0.52
-0.08
0.25
-0.43
-0.21
-0.17

>  <PUBCHEM_SHAPE_SELFOVERLAP>  (1) 
643.814

>  <PUBCHEM_SHAPE_VOLUME>  (1) 
182.9

>  <PUBCHEM_COORDINATE_TYPE>  (1) 
2
5
10

$$$$
