42962
     RDKit          3D

 17 18  0  0  0  0  0  0  0  0999 V2000
    0.8808    2.0887    0.1726 O   0  0  0  0  0  0  0  0  0  0  0  0
    1.3906   -0.2219    0.2744 N   0  0  0  0  0  0  0  0  0  0  0  0
   -1.5657    0.3444   -0.5581 N   0  0  0  0  0  0  0  0  0  0  0  0
    2.7945   -0.2760    0.1120 C   0  0  0  0  0  0  0  0  0  0  0  0
    3.4316   -1.5063    0.1193 C   0  0  0  0  0  0  0  0  0  0  0  0
    3.5039    0.9025   -0.0521 C   0  0  0  0  0  0  0  0  0  0  0  0
   -2.9053    0.0291   -0.3106 C   0  0  0  0  0  0  0  0  0  0  0  0
    4.8161   -1.5594   -0.0418 C   0  0  0  0  0  0  0  0  0  0  0  0
    4.8885    0.8494   -0.2134 C   0  0  0  0  0  0  0  0  0  0  0  0
    5.5445   -0.3816   -0.2082 C   0  0  0  0  0  0  0  0  0  0  0  0
    0.6023    0.9077    0.2917 C   0  0  0  0  0  0  0  0  0  0  0  0
   -3.8584    1.0448   -0.2355 C   0  0  0  0  0  0  0  0  0  0  0  0
   -3.2883   -1.3009   -0.1385 C   0  0  0  0  0  0  0  0  0  0  0  0
   -5.1948    0.7303    0.0115 C   0  0  0  0  0  0  0  0  0  0  0  0
   -4.6247   -1.6155    0.1084 C   0  0  0  0  0  0  0  0  0  0  0  0
   -5.5778   -0.5998    0.1834 C   0  0  0  0  0  0  0  0  0  0  0  0
   -0.8379    0.5644    0.4850 C   0  0  0  0  0  0  0  0  0  0  0  0
  1 11  2  0
  2  4  1  0
  2 11  1  0
  3  7  1  0
  3 17  2  0
  4  5  2  0
  4  6  1  0
  5  8  1  0
  6  9  2  0
  7 12  2  0
  7 13  1  0
  8 10  2  0
  9 10  1  0
 11 17  1  0
 12 14  1  0
 13 15  2  0
 14 16  2  0
 15 16  1  0
M  END
>  <PUBCHEM_COMPOUND_CID>  (1) 
42962

>  <PUBCHEM_CONFORMER_RMSD>  (1) 
0.6

>  <PUBCHEM_CONFORMER_DIVERSEORDER>  (1) 
1
6
5
3
2
4

>  <PUBCHEM_MMFF94_PARTIAL_CHARGES>  (1) 
29
1 -0.57
10 -0.15
11 0.63
12 -0.15
13 -0.15
14 -0.15
15 -0.15
16 -0.15
17 0.39
18 0.15
19 0.15
2 -0.55
20 0.37
21 0.15
22 0.15
23 0.15
24 0.15
25 0.15
26 0.15
27 0.15
28 0.15
29 0.06
3 -0.63
4 0.12
5 -0.15
6 -0.15
7 0.18
8 -0.15
9 -0.15

>  <PUBCHEM_EFFECTIVE_ROTOR_COUNT>  (1) 
4

>  <PUBCHEM_PHARMACOPHORE_FEATURES>  (1) 
5
1 1 acceptor
1 2 donor
1 3 acceptor
6 4 5 6 8 9 10 rings
6 7 12 13 14 15 16 rings

>  <PUBCHEM_HEAVY_ATOM_COUNT>  (1) 
17

>  <PUBCHEM_ATOM_DEF_STEREO_COUNT>  (1) 
0

>  <PUBCHEM_ATOM_UDEF_STEREO_COUNT>  (1) 
0

>  <PUBCHEM_BOND_DEF_STEREO_COUNT>  (1) 
0

>  <PUBCHEM_BOND_UDEF_STEREO_COUNT>  (1) 
0

>  <PUBCHEM_ISOTOPIC_ATOM_COUNT>  (1) 
0

>  <PUBCHEM_COMPONENT_COUNT>  (1) 
1

>  <PUBCHEM_CACTVS_TAUTO_COUNT>  (1) 
2

>  <PUBCHEM_CONFORMER_ID>  (1) 
0000A7D200000001

>  <PUBCHEM_MMFF94_ENERGY>  (1) 
46.3672

>  <PUBCHEM_FEATURE_SELFOVERLAP>  (1) 
25.372

>  <PUBCHEM_SHAPE_FINGERPRINT>  (1) 
10595046 47 18335140912038981924
11045515 52 18259985954970350797
11128504 68 16443353082524272566
11287383 113 18187366545086841272
12107183 9 17618786860007865057
12236239 1 18131635581803225160
12516196 113 18060415824257775816
12596602 18 15769768091536565151
12633257 1 15267336340428668714
13167823 11 18409446981475222534
13288520 33 18410575089585748277
13533116 47 13254529625863962740
13685833 64 18335987545173212819
13740256 8 18411139164388168899
14123238 8 16805323292519196004
1420 363 17748832920838778483
14251718 22 18187646924598958609
14251731 8 18410572873271879797
14251764 18 18273501182949187507
14341114 176 18411423929552512353
15188451 53 15410313560409468093
15196674 1 18410573989457357711
15242433 33 18411699889421995326
17834072 33 18410575110506885172
17844677 252 18410580582290387221
19489759 90 12319736960421279719
200 152 18343584040269272544
20374829 77 18335135375720505938
20645477 70 18410012092351250590
21250096 35 18272650138625347184
21267235 1 18341619187964593854
221490 88 18191592053955478795
2215653 11 18340759391188026789
22485316 2 18410854360616540518
22950370 63 18410576184217073621
23035841 295 18410576163111593242
23402539 116 16732979812641761965
23536379 177 18335702723820736625
23557571 272 17748824077358867028
23559900 14 18339070605868764985
239999 70 18343305856050225270
26918003 58 18059856160149352171
2871803 45 18334295332247970018
2916195 48 11025808625596421390
300161 21 18408314488782823181
3004659 81 18261111846940717130
314173 85 15985108508914057408
314194 84 18273492390202053950
3268164 11 16226037873569685719
351380 3 18273212001836245022
4073 2 18041003985229766906
4214541 1 18410573964135875389
42788 4 18410293605391407469
4325135 7 18259988197496212476
4463277 17 18412545409547857624
465052 167 18131073727652014086
4921388 177 16660654002581738603
5104073 3 18413387635454507561
57483677 66 18409165506466765963
77779 3 18409448107088872541

>  <PUBCHEM_SHAPE_MULTIPOLES>  (1) 
334.02
14.66
1.66
0.66
1.09
0.14
0
3.54
-0.66
-0.19
0.04
0.05
-0.01
0.06

>  <PUBCHEM_SHAPE_SELFOVERLAP>  (1) 
713.465

>  <PUBCHEM_SHAPE_VOLUME>  (1) 
182.5

>  <PUBCHEM_COORDINATE_TYPE>  (1) 
2
5
10

$$$$
