42963
     RDKit          3D

 21 21  0  0  0  0  0  0  0  0999 V2000
   -0.1849    0.0775    1.4188 O   0  0  0  0  0  0  0  0  0  0  0  0
    3.8419    2.9114   -0.5393 O   0  0  0  0  0  0  0  0  0  0  0  0
    3.7545   -2.6856   -1.3672 O   0  0  0  0  0  0  0  0  0  0  0  0
    3.5549    2.1223    1.5719 O   0  0  0  0  0  0  0  0  0  0  0  0
    3.7629   -2.3718    0.8831 O   0  0  0  0  0  0  0  0  0  0  0  0
    2.2217   -0.0142    0.0723 N   0  0  0  0  0  0  0  0  0  0  0  0
   -1.2814   -0.4745   -0.5825 N   0  0  0  0  0  0  0  0  0  0  0  0
    1.0858   -0.7751   -0.4466 C   0  0  0  0  0  0  0  0  0  0  0  0
   -2.6346   -0.1741   -0.2969 C   0  0  0  0  0  0  0  0  0  0  0  0
    2.0221    1.4175   -0.1497 C   0  0  0  0  0  0  0  0  0  0  0  0
    3.4651   -0.4604   -0.5550 C   0  0  0  0  0  0  0  0  0  0  0  0
   -0.1832   -0.3367    0.2640 C   0  0  0  0  0  0  0  0  0  0  0  0
   -3.4519   -1.1576    0.2397 C   0  0  0  0  0  0  0  0  0  0  0  0
   -3.1197    1.0984   -0.5587 C   0  0  0  0  0  0  0  0  0  0  0  0
   -4.7858   -0.8615    0.5215 C   0  0  0  0  0  0  0  0  0  0  0  0
   -4.4536    1.3943   -0.2770 C   0  0  0  0  0  0  0  0  0  0  0  0
   -2.9452   -2.5336    0.5276 C   0  0  0  0  0  0  0  0  0  0  0  0
   -2.2530    2.1699   -1.1365 C   0  0  0  0  0  0  0  0  0  0  0  0
   -5.2867    0.4146    0.2634 C   0  0  0  0  0  0  0  0  0  0  0  0
    3.2101    2.1593    0.3975 C   0  0  0  0  0  0  0  0  0  0  0  0
    3.6609   -1.9199   -0.2504 C   0  0  0  0  0  0  0  0  0  0  0  0
  1 12  2  0
  2 20  1  0
  3 21  1  0
  4 20  2  0
  5 21  2  0
  6  8  1  0
  6 10  1  0
  6 11  1  0
  7  9  1  0
  7 12  1  0
  8 12  1  0
  9 13  2  0
  9 14  1  0
 10 20  1  0
 11 21  1  0
 13 15  1  0
 13 17  1  0
 14 16  2  0
 14 18  1  0
 15 19  2  0
 16 19  1  0
M  END
>  <PUBCHEM_COMPOUND_CID>  (1) 
42963

>  <PUBCHEM_CONFORMER_RMSD>  (1) 
0.8

>  <PUBCHEM_CONFORMER_DIVERSEORDER>  (1) 
1
7
11
6
8
10
3
14
4
15
12
16
9
13
5
2

>  <PUBCHEM_MMFF94_PARTIAL_CHARGES>  (1) 
27
1 -0.57
10 0.33
11 0.33
12 0.57
13 -0.14
14 -0.14
15 -0.15
16 -0.15
17 0.14
18 0.14
19 -0.15
2 -0.65
20 0.66
21 0.66
28 0.37
29 0.15
3 -0.65
30 0.15
37 0.15
38 0.5
39 0.5
4 -0.57
5 -0.57
6 -0.81
7 -0.55
8 0.33
9 0.12

>  <PUBCHEM_EFFECTIVE_ROTOR_COUNT>  (1) 
8

>  <PUBCHEM_PHARMACOPHORE_FEATURES>  (1) 
10
1 1 acceptor
1 2 acceptor
1 3 acceptor
1 4 acceptor
1 5 acceptor
1 6 cation
1 7 donor
3 2 4 20 anion
3 3 5 21 anion
6 9 13 14 15 16 19 rings

>  <PUBCHEM_HEAVY_ATOM_COUNT>  (1) 
21

>  <PUBCHEM_ATOM_DEF_STEREO_COUNT>  (1) 
0

>  <PUBCHEM_ATOM_UDEF_STEREO_COUNT>  (1) 
0

>  <PUBCHEM_BOND_DEF_STEREO_COUNT>  (1) 
0

>  <PUBCHEM_BOND_UDEF_STEREO_COUNT>  (1) 
0

>  <PUBCHEM_ISOTOPIC_ATOM_COUNT>  (1) 
0

>  <PUBCHEM_COMPONENT_COUNT>  (1) 
1

>  <PUBCHEM_CACTVS_TAUTO_COUNT>  (1) 
2

>  <PUBCHEM_CONFORMER_ID>  (1) 
0000A7D300000001

>  <PUBCHEM_MMFF94_ENERGY>  (1) 
75.9663

>  <PUBCHEM_FEATURE_SELFOVERLAP>  (1) 
50.863

>  <PUBCHEM_SHAPE_FINGERPRINT>  (1) 
11132069 177 18186799223236761237
11370993 144 18341344318499696753
11405975 8 18410575072042083883
11552529 35 17843969371719320607
11595378 159 16733254699044045860
12633257 1 18270410373642276257
12916754 54 18412267212089830899
13533116 47 18272654554273662163
14289901 80 18263645224256206515
14341114 176 18409174281264208917
15196674 1 18409167719055535397
15536298 74 18408603669120974981
15961568 22 17822856514714114156
17804303 29 18262805064429222103
17844677 252 18410300177113512977
18186145 218 18040992925667581359
20645477 56 18334011709586969325
20645477 70 18272937124119140166
21065198 57 18410012122141409831
21065199 12 18409449223764408891
21065201 7 17676487229121686843
21859007 373 17606375693377137013
221490 88 18410018744949507054
23175994 123 17846216597270944873
23557571 272 18261680379982156725
23559900 14 18410854347995551650
314173 41 18267308638498227014
3545911 37 18410577322436323501
4214541 1 18336548227061992375
5104073 3 18410296913138763907
5281201 14 18410294692060546004
58051976 100 18410014312617344679
59755656 215 18411703205817353292
633830 44 18335132090461031471
77779 3 18410014347055690959
9709674 26 18335986458093007467
9841814 1 18335978667465412066

>  <PUBCHEM_SHAPE_MULTIPOLES>  (1) 
392.86
10.95
3.02
1.05
2.65
0.09
-0.11
-0.17
-0.41
-3.11
0.15
-0.56
0.08
1.58

>  <PUBCHEM_SHAPE_SELFOVERLAP>  (1) 
808.326

>  <PUBCHEM_SHAPE_VOLUME>  (1) 
226.4

>  <PUBCHEM_COORDINATE_TYPE>  (1) 
2
5
10

$$$$
