42978
     RDKit          3D

 12 12  0  0  0  0  0  0  0  0999 V2000
   -3.7598   -0.4199   -0.3235 O   0  0  0  0  0  0  0  0  0  0  0  0
    0.2409   -1.5330    0.1099 O   0  0  0  0  0  0  0  0  0  0  0  0
    0.7753    0.7605    0.5862 C   0  0  0  0  0  0  0  0  0  0  0  0
    2.1739    0.2636    0.8066 C   0  0  0  0  0  0  0  0  0  0  0  0
    3.1605    0.1699   -0.1051 C   0  0  0  0  0  0  0  0  0  0  0  0
   -0.1796   -0.3828    0.2434 C   0  0  0  0  0  0  0  0  0  0  0  0
   -1.6135   -0.0842    0.0704 C   0  0  0  0  0  0  0  0  0  0  0  0
    4.5254   -0.3237    0.2923 C   0  0  0  0  0  0  0  0  0  0  0  0
    3.0196    0.5138   -1.5609 C   0  0  0  0  0  0  0  0  0  0  0  0
   -2.2358    1.1525    0.1831 C   0  0  0  0  0  0  0  0  0  0  0  0
   -2.5426   -1.0173   -0.2340 C   0  0  0  0  0  0  0  0  0  0  0  0
   -3.5643    0.9005   -0.0683 C   0  0  0  0  0  0  0  0  0  0  0  0
  1 11  1  0
  1 12  1  0
  2  6  2  0
  3  4  1  0
  3  6  1  0
  4  5  2  3
  5  8  1  0
  5  9  1  0
  6  7  1  0
  7 10  1  0
  7 11  2  0
 10 12  2  0
M  END
>  <PUBCHEM_COMPOUND_CID>  (1) 
42978

>  <PUBCHEM_CONFORMER_RMSD>  (1) 
0.6

>  <PUBCHEM_CONFORMER_DIVERSEORDER>  (1) 
1
50
37
42
52
44
57
56
69
51
38
70
16
26
40
31
4
48
66
55
53
3
29
24
14
54
21
33
65
19
41
13
67
61
2
39
63
49
17
12
62
34
20
27
68
64
25
22
15
23
43
36
45
6
46
5
7
58
9
8
47
11
60
35
30
18
10
28
59
32

>  <PUBCHEM_MMFF94_PARTIAL_CHARGES>  (1) 
16
1 -0.28
10 -0.15
11 -0.01
12 -0.01
15 0.15
2 -0.57
22 0.15
23 0.15
24 0.15
3 0.2
4 -0.29
5 -0.28
6 0.6
7 -0.09
8 0.14
9 0.14

>  <PUBCHEM_EFFECTIVE_ROTOR_COUNT>  (1) 
3

>  <PUBCHEM_PHARMACOPHORE_FEATURES>  (1) 
4
1 1 acceptor
1 2 acceptor
3 5 8 9 hydrophobe
5 1 7 10 11 12 rings

>  <PUBCHEM_HEAVY_ATOM_COUNT>  (1) 
12

>  <PUBCHEM_ATOM_DEF_STEREO_COUNT>  (1) 
0

>  <PUBCHEM_ATOM_UDEF_STEREO_COUNT>  (1) 
0

>  <PUBCHEM_BOND_DEF_STEREO_COUNT>  (1) 
0

>  <PUBCHEM_BOND_UDEF_STEREO_COUNT>  (1) 
0

>  <PUBCHEM_ISOTOPIC_ATOM_COUNT>  (1) 
0

>  <PUBCHEM_COMPONENT_COUNT>  (1) 
1

>  <PUBCHEM_CACTVS_TAUTO_COUNT>  (1) 
3

>  <PUBCHEM_CONFORMER_ID>  (1) 
0000A7E200000001

>  <PUBCHEM_MMFF94_ENERGY>  (1) 
10.0942

>  <PUBCHEM_FEATURE_SELFOVERLAP>  (1) 
20.297

>  <PUBCHEM_SHAPE_FINGERPRINT>  (1) 
11062470 55 12175621789097960160
12032990 46 18201439228881306531
12932764 1 18201712968453138099
13705890 14 16630527345220143540
14252887 29 16128382579733108174
14325111 11 18412822499389086104
14993402 34 17895192229068240484
15775835 57 18408039593685415128
18186145 218 17988929972066237168
190213 19 17676205788362354688
19422 9 17821732766521750906
1986462 14 18272369776219103053
200 152 14908181932673443880
20201158 50 17346602975985618414
20233049 118 18408879616712308424
20279233 1 17346882251759693030
20645476 183 18114472265803232430
20645477 70 15554173562534303708
20711983 171 18260833682829800156
21119208 17 17894912923456209012
22485316 2 17561079202983426230
23402539 116 18201428173735804364
23559900 14 18202562883211148520
3248919 1 17676203589233539402
449060 50 13767932316651043912
4990 188 17775567533156791749
57812782 119 17346880056878553680
581208 293 15123510303016382260

>  <PUBCHEM_SHAPE_MULTIPOLES>  (1) 
235.22
7.76
1.14
0.93
2.36
0.12
0.26
-0.35
0.87
-0.59
-0.01
0.77
-0.14
-0.29

>  <PUBCHEM_SHAPE_SELFOVERLAP>  (1) 
479.436

>  <PUBCHEM_SHAPE_VOLUME>  (1) 
138.7

>  <PUBCHEM_COORDINATE_TYPE>  (1) 
2
5
10

$$$$
