4297
     RDKit          3D

 37 40  0  0  0  0  0  0  0  0999 V2000
   -7.5856    0.2481    1.1201 Cl  0  0  0  0  0  0  0  0  0  0  0  0
    0.9266    2.5129    3.6185 O   0  0  0  0  0  0  0  0  0  0  0  0
   -2.1746   -0.7005   -2.6076 O   0  0  0  0  0  0  0  0  0  0  0  0
    3.4744    0.8380   -2.8662 O   0  0  0  0  0  0  0  0  0  0  0  0
   -0.9003   -2.7856    1.2637 O   0  0  0  0  0  0  0  0  0  0  0  0
   -1.1158    0.7198   -1.1986 N   0  0  0  0  0  0  0  0  0  0  0  0
    4.0263    1.6281   -0.7535 N   0  0  0  0  0  0  0  0  0  0  0  0
    0.9359   -3.8867    0.2766 N   0  0  0  0  0  0  0  0  0  0  0  0
    0.8260    1.8489   -1.3031 C   0  0  0  0  0  0  0  0  0  0  0  0
    0.4344    1.7866    0.0546 C   0  0  0  0  0  0  0  0  0  0  0  0
   -0.1324    1.2018   -2.0418 C   0  0  0  0  0  0  0  0  0  0  0  0
   -0.7780    1.0850    0.1092 C   0  0  0  0  0  0  0  0  0  0  0  0
    2.0445    2.4982   -1.8318 C   0  0  0  0  0  0  0  0  0  0  0  0
    1.0112    2.2722    1.2468 C   0  0  0  0  0  0  0  0  0  0  0  0
   -1.4179    0.8524    1.3419 C   0  0  0  0  0  0  0  0  0  0  0  0
   -0.1472    1.0205   -3.5130 C   0  0  0  0  0  0  0  0  0  0  0  0
   -2.2672    0.0182   -1.6179 C   0  0  0  0  0  0  0  0  0  0  0  0
    3.2432    1.5568   -1.8974 C   0  0  0  0  0  0  0  0  0  0  0  0
    0.3708    2.0447    2.4665 C   0  0  0  0  0  0  0  0  0  0  0  0
   -0.8270    1.3430    2.5109 C   0  0  0  0  0  0  0  0  0  0  0  0
    5.2277    0.8460   -0.5728 C   0  0  0  0  0  0  0  0  0  0  0  0
   -3.5780    0.0749   -0.9425 C   0  0  0  0  0  0  0  0  0  0  0  0
    5.1499   -0.0749    0.6423 C   0  0  0  0  0  0  0  0  0  0  0  0
    4.0336   -1.0854    0.5446 C   0  0  0  0  0  0  0  0  0  0  0  0
   -4.1507   -1.0901   -0.4321 C   0  0  0  0  0  0  0  0  0  0  0  0
   -4.2448    1.2934   -0.8152 C   0  0  0  0  0  0  0  0  0  0  0  0
    2.7674   -0.7751    1.0410 C   0  0  0  0  0  0  0  0  0  0  0  0
    4.2671   -2.3295   -0.0412 C   0  0  0  0  0  0  0  0  0  0  0  0
   -5.3899   -1.0366    0.2059 C   0  0  0  0  0  0  0  0  0  0  0  0
   -5.4841    1.3471   -0.1772 C   0  0  0  0  0  0  0  0  0  0  0  0
    2.1569    3.2250    3.5021 C   0  0  0  0  0  0  0  0  0  0  0  0
    1.7350   -1.7088    0.9516 C   0  0  0  0  0  0  0  0  0  0  0  0
    3.2349   -3.2634   -0.1305 C   0  0  0  0  0  0  0  0  0  0  0  0
    1.9688   -2.9529    0.3658 C   0  0  0  0  0  0  0  0  0  0  0  0
   -6.0566    0.1820    0.3333 C   0  0  0  0  0  0  0  0  0  0  0  0
   -0.3886   -3.7561    0.7150 C   0  0  0  0  0  0  0  0  0  0  0  0
   -1.1960   -4.9980    0.4320 C   0  0  0  0  0  0  0  0  0  0  0  0
  1 35  1  0
  2 19  1  0
  2 31  1  0
  3 17  2  0
  4 18  2  0
  5 36  2  0
  6 11  1  0
  6 12  1  0
  6 17  1  0
  7 18  1  0
  7 21  1  0
  8 34  1  0
  8 36  1  0
  9 10  1  0
  9 11  2  0
  9 13  1  0
 10 12  2  0
 10 14  1  0
 11 16  1  0
 12 15  1  0
 13 18  1  0
 14 19  2  0
 15 20  2  0
 17 22  1  0
 19 20  1  0
 21 23  1  0
 22 25  2  0
 22 26  1  0
 23 24  1  0
 24 27  2  0
 24 28  1  0
 25 29  1  0
 26 30  2  0
 27 32  1  0
 28 33  2  0
 29 35  2  0
 30 35  1  0
 32 34  2  0
 33 34  1  0
 36 37  1  0
M  END
>  <PUBCHEM_COMPOUND_CID>  (1) 
4297

>  <PUBCHEM_CONFORMER_RMSD>  (1) 
1.4

>  <PUBCHEM_CONFORMER_DIVERSEORDER>  (1) 
1
57
149
6
86
121
26
94
129
142
114
28
90
50
152
112
99
120
103
32
11
29
137
145
133
108
51
135
118
81
55
80
138
105
128
19
131
154
148
2
106
60
84
123
83
124
96
91
9
21
35
130
27
150
52
102
107
66
143
65
134
136
95
3
85
155
70
110
14
151
132
113
125
68
42
147
41
72
4
13
140
116
104
77
53
45
111
64
17
122
43
79
98
8
40
153
109
126
36
139
46
87
117
100
78
73
146
63
54
44
144
75
23
61
10
58
88
71
47
30
74
33
12
76
119
69
39
93
15
89
49
34
67
25
97
62
38
92
7
16
22
127
24
56
31
5
82
48
115
59
101
20
141
18
37

>  <PUBCHEM_MMFF94_PARTIAL_CHARGES>  (1) 
49
1 -0.18
11 -0.33
12 -0.15
13 0.24
14 -0.15
15 -0.15
16 0.18
17 0.49
18 0.57
19 0.08
2 -0.36
20 -0.15
21 0.3
22 0.09
23 0.14
24 -0.14
25 -0.15
26 -0.15
27 -0.15
28 -0.15
29 -0.15
3 -0.57
30 -0.15
31 0.28
32 -0.15
33 -0.15
34 0.12
35 0.18
36 0.57
37 0.06
4 -0.57
40 0.15
41 0.15
45 0.15
48 0.37
5 -0.57
51 0.15
52 0.15
53 0.15
54 0.15
55 0.15
56 0.15
6 0.29
60 0.15
61 0.15
62 0.37
7 -0.73
8 -0.55
9 -0.18

>  <PUBCHEM_EFFECTIVE_ROTOR_COUNT>  (1) 
11

>  <PUBCHEM_PHARMACOPHORE_FEATURES>  (1) 
10
1 2 acceptor
1 3 acceptor
1 4 acceptor
1 5 acceptor
1 7 donor
1 8 donor
5 6 9 10 11 12 rings
6 10 12 14 15 19 20 rings
6 22 25 26 29 30 35 rings
6 24 27 28 32 33 34 rings

>  <PUBCHEM_HEAVY_ATOM_COUNT>  (1) 
37

>  <PUBCHEM_ATOM_DEF_STEREO_COUNT>  (1) 
0

>  <PUBCHEM_ATOM_UDEF_STEREO_COUNT>  (1) 
0

>  <PUBCHEM_BOND_DEF_STEREO_COUNT>  (1) 
0

>  <PUBCHEM_BOND_UDEF_STEREO_COUNT>  (1) 
0

>  <PUBCHEM_ISOTOPIC_ATOM_COUNT>  (1) 
0

>  <PUBCHEM_COMPONENT_COUNT>  (1) 
1

>  <PUBCHEM_CACTVS_TAUTO_COUNT>  (1) 
4

>  <PUBCHEM_CONFORMER_ID>  (1) 
000010C900000001

>  <PUBCHEM_MMFF94_ENERGY>  (1) 
104.6486

>  <PUBCHEM_FEATURE_SELFOVERLAP>  (1) 
50.837

>  <PUBCHEM_SHAPE_FINGERPRINT>  (1) 
10816530 23 17683250526770989773
11399939 17 16619296658476393841
11421498 54 18341052913147673913
11578080 2 17978230783562825776
12107698 1 16805597041472318012
12156800 1 17321504566119344256
12788726 201 17774731878676901120
13560911 43 17897158014816770186
1361 2 18113905935425524014
14028597 1 18058746714794977681
14068700 675 18195246612111857306
14932702 115 18194698174578219890
14955137 171 17989204798924476271
15297060 5 18342738537872691698
15721738 202 18334581204717375432
15968369 153 17838048570297356535
17974551 9 18128806633217252967
19319366 153 18340758252415947671
20764821 26 17900529374563896182
22223350 30 18193534852653749426
23559900 14 18261661590212510277
244849 19 17484246618650445184
46194498 28 17821731620024056453
463206 1 18115026428189905678
469060 322 17756151089839711666
57527452 28 18410864243932368732
6086070 43 17702926094931022989

>  <PUBCHEM_SHAPE_MULTIPOLES>  (1) 
724.89
11.34
4.61
3.04
15.67
5.97
0.39
0.24
0.23
-2.99
2
-1.3
-3.41
-0.12

>  <PUBCHEM_SHAPE_SELFOVERLAP>  (1) 
1560.773

>  <PUBCHEM_SHAPE_VOLUME>  (1) 
400.1

>  <PUBCHEM_COORDINATE_TYPE>  (1) 
2
5
10

$$$$
