42976
     RDKit          3D

 29 30  0  0  0  0  0  0  0  0999 V2000
   -6.2422   -0.3478   -1.3934 Cl  0  0  0  0  0  0  0  0  0  0  0  0
   -2.0331    2.6966    2.7248 Cl  0  0  0  0  0  0  0  0  0  0  0  0
    0.2475   -1.1255   -0.9876 O   0  0  0  0  0  0  0  0  0  0  0  0
    3.0064   -0.2601    1.2670 O   0  0  0  0  0  0  0  0  0  0  0  0
   -0.7800    0.0880    1.5385 O   0  0  0  0  0  0  0  0  0  0  0  0
   -0.9933   -2.4015    0.5431 N   0  0  0  0  0  0  0  0  0  0  0  0
    5.4736    0.1563    0.1232 N   0  0  0  0  0  0  0  0  0  0  0  0
    2.6159   -2.0027   -0.2199 N   0  0  0  0  0  0  0  0  0  0  0  0
    6.5970    0.5569   -0.7134 C   0  0  0  0  0  0  0  0  0  0  0  0
   -2.2640   -1.8839    0.0769 C   0  0  0  0  0  0  0  0  0  0  0  0
    4.4303   -0.4748   -0.6725 C   0  0  0  0  0  0  0  0  0  0  0  0
   -2.5487   -0.5196    0.1337 C   0  0  0  0  0  0  0  0  0  0  0  0
    1.4821   -2.5783    0.4465 C   0  0  0  0  0  0  0  0  0  0  0  0
    0.1966   -1.9464   -0.0681 C   0  0  0  0  0  0  0  0  0  0  0  0
    7.4841   -0.6465   -1.0198 C   0  0  0  0  0  0  0  0  0  0  0  0
    7.3877    1.6554   -0.0098 C   0  0  0  0  0  0  0  0  0  0  0  0
    3.2954   -0.8795    0.2456 C   0  0  0  0  0  0  0  0  0  0  0  0
   -3.2095   -2.7729   -0.4348 C   0  0  0  0  0  0  0  0  0  0  0  0
   -1.5827    0.4358    0.6621 C   0  0  0  0  0  0  0  0  0  0  0  0
   -0.9830   -3.3843    1.6379 C   0  0  0  0  0  0  0  0  0  0  0  0
   -3.7787   -0.0441   -0.3210 C   0  0  0  0  0  0  0  0  0  0  0  0
   -4.4393   -2.2976   -0.8895 C   0  0  0  0  0  0  0  0  0  0  0  0
   -1.5142    1.8478    0.1841 C   0  0  0  0  0  0  0  0  0  0  0  0
   -4.7239   -0.9332   -0.8328 C   0  0  0  0  0  0  0  0  0  0  0  0
   -1.7037    2.9286    1.0453 C   0  0  0  0  0  0  0  0  0  0  0  0
   -1.2503    2.0709   -1.1673 C   0  0  0  0  0  0  0  0  0  0  0  0
   -1.6290    4.2325    0.5551 C   0  0  0  0  0  0  0  0  0  0  0  0
   -1.1758    3.3747   -1.6574 C   0  0  0  0  0  0  0  0  0  0  0  0
   -1.3652    4.4554   -0.7963 C   0  0  0  0  0  0  0  0  0  0  0  0
  1 24  1  0
  2 25  1  0
  3 14  2  0
  4 17  2  0
  5 19  2  0
  6 10  1  0
  6 14  1  0
  6 20  1  0
  7  9  1  0
  7 11  1  0
  8 13  1  0
  8 17  1  0
  9 15  1  0
  9 16  1  0
 10 12  2  0
 10 18  1  0
 11 17  1  0
 12 19  1  0
 12 21  1  0
 13 14  1  0
 18 22  2  0
 19 23  1  0
 21 24  2  0
 22 24  1  0
 23 25  2  0
 23 26  1  0
 25 27  1  0
 26 28  2  0
 27 29  2  0
 28 29  1  0
M  END
>  <PUBCHEM_COMPOUND_CID>  (1) 
42976

>  <PUBCHEM_CONFORMER_RMSD>  (1) 
1

>  <PUBCHEM_CONFORMER_DIVERSEORDER>  (1) 
1
58
100
13
112
60
32
76
8
71
73
53
51
120
23
33
116
6
30
20
34
65
103
105
125
92
46
106
59
9
72
40
122
24
119
75
35
86
39
101
16
19
80
25
47
68
97
77
118
123
115
28
111
84
102
14
29
44
45
61
70
113
42
48
81
67
96
79
87
52
27
26
57
55
12
90
66
37
93
83
43
21
5
94
31
18
108
95
38
69
22
104
17
11
117
124
130
62
64
10
126
74
36
121
49
107
4
132
63
85
78
131
88
41
7
110
91
114
89
99
98
127
56
82
109
50
54
2
128
3
129
15

>  <PUBCHEM_MMFF94_PARTIAL_CHARGES>  (1) 
36
1 -0.18
10 0.12
11 0.33
12 0.09
13 0.36
14 0.57
17 0.57
18 -0.15
19 0.4
2 -0.18
20 0.3
21 -0.15
22 -0.15
23 0.09
24 0.18
25 0.18
26 -0.15
27 -0.15
28 -0.15
29 -0.15
3 -0.57
31 0.36
4 -0.57
42 0.37
43 0.15
47 0.15
48 0.15
49 0.15
5 -0.57
50 0.15
51 0.15
52 0.15
6 -0.48
7 -0.9
8 -0.73
9 0.27

>  <PUBCHEM_EFFECTIVE_ROTOR_COUNT>  (1) 
10

>  <PUBCHEM_PHARMACOPHORE_FEATURES>  (1) 
9
1 3 acceptor
1 4 acceptor
1 5 acceptor
1 7 cation
1 7 donor
1 8 donor
3 9 15 16 hydrophobe
6 10 12 18 21 22 24 rings
6 23 25 26 27 28 29 rings

>  <PUBCHEM_HEAVY_ATOM_COUNT>  (1) 
29

>  <PUBCHEM_ATOM_DEF_STEREO_COUNT>  (1) 
0

>  <PUBCHEM_ATOM_UDEF_STEREO_COUNT>  (1) 
0

>  <PUBCHEM_BOND_DEF_STEREO_COUNT>  (1) 
0

>  <PUBCHEM_BOND_UDEF_STEREO_COUNT>  (1) 
0

>  <PUBCHEM_ISOTOPIC_ATOM_COUNT>  (1) 
0

>  <PUBCHEM_COMPONENT_COUNT>  (1) 
1

>  <PUBCHEM_CACTVS_TAUTO_COUNT>  (1) 
2

>  <PUBCHEM_CONFORMER_ID>  (1) 
0000A7E000000001

>  <PUBCHEM_MMFF94_ENERGY>  (1) 
94.5463

>  <PUBCHEM_FEATURE_SELFOVERLAP>  (1) 
45.671

>  <PUBCHEM_SHAPE_FINGERPRINT>  (1) 
10483366 6 18334565838079154597
10670039 82 18410578371288902556
10871710 139 18335704888626646009
11101153 10 18410298051469068812
11578080 2 14835029186853180801
12293681 160 18334565842147105739
12788726 201 18335130973384354555
13911987 19 18260819402538716951
13947920 24 18261381243931386500
14068700 675 18409726300673984132
14790565 3 17694502542892603265
14856354 85 14189302611803333118
14955137 171 18337401543102071667
15183329 4 18334863797620303702
15575132 122 18333729096401883500
15961568 22 18410576206219269030
16994733 274 16515953762940815821
17899979 19 18260267490223933133
21049683 271 18334571395913833357
21304303 64 18260830372243477733
21315764 268 18342172298475162936
21344244 246 17693927897252137519
21403212 168 8358271354026603303
21639891 77 17751655461930261835
22122407 14 15502386629707178558
221357 26 18060700602760565242
22907989 373 18196354936817235621
22956985 138 16818564994916717306
23559900 14 18270110365470460736
283562 15 18336826403456405459
4197921 191 18187366533135570670
4353968 344 18342734071417966566
469060 322 18261120642527519337
497634 4 17988651778787711384
5252454 2 18125165935585308320
57527452 28 16415478303051303175
57527585 21 17416672549695128285
6036956 94 17969517076598346748
6371009 1 18333731347539902412
7226269 152 18334573559765434631

>  <PUBCHEM_SHAPE_MULTIPOLES>  (1) 
567.99
13.77
5.17
1.59
32.88
4.61
0.7
-1.98
-6.09
-4.6
0.59
-1.13
0.9
-0.8

>  <PUBCHEM_SHAPE_SELFOVERLAP>  (1) 
1173.705

>  <PUBCHEM_SHAPE_VOLUME>  (1) 
324.9

>  <PUBCHEM_COORDINATE_TYPE>  (1) 
2
5
10

$$$$
