42996
     RDKit          3D

 37 42  0  0  1  0  0  0  0  0999 V2000
   -4.2660    1.3298    0.6305 O   0  0  0  0  0  0  0  0  0  0  0  0
    3.7665    1.1714   -0.1296 O   0  0  0  0  0  0  0  0  0  0  0  0
   -8.3574   -0.8950    0.0404 O   0  0  0  0  0  0  0  0  0  0  0  0
    4.8551   -0.8776    0.1867 O   0  0  0  0  0  0  0  0  0  0  0  0
   -8.9009    1.3401   -0.0315 O   0  0  0  0  0  0  0  0  0  0  0  0
    8.5455    0.9244   -0.1714 O   0  0  0  0  0  0  0  0  0  0  0  0
    8.3175   -1.9433   -0.4548 O   0  0  0  0  0  0  0  0  0  0  0  0
   -3.2514    0.5164    0.0217 C   0  0  0  0  0  0  0  0  0  0  0  0
   -1.9165    0.7620    0.7827 C   0  0  0  0  0  0  0  0  0  0  0  0
   -0.7855   -0.2301    0.3796 C   0  0  0  0  0  0  0  0  0  0  0  0
   -3.7220   -0.9640    0.0494 C   0  0  0  0  0  0  0  0  0  0  0  0
    0.5605    0.0308    1.1622 C   0  0  0  0  0  0  0  0  0  0  0  0
    0.9858    1.5251    0.9916 C   0  0  0  0  0  0  0  0  0  0  0  0
   -1.2898   -1.6820    0.4879 C   0  0  0  0  0  0  0  0  0  0  0  0
   -2.5548   -1.9103   -0.3363 C   0  0  0  0  0  0  0  0  0  0  0  0
   -4.8005   -1.0107   -1.0799 C   0  0  0  0  0  0  0  0  0  0  0  0
   -1.4479    2.2256    0.6591 C   0  0  0  0  0  0  0  0  0  0  0  0
   -3.2177    0.8529   -1.4815 C   0  0  0  0  0  0  0  0  0  0  0  0
   -0.1379    2.4911    1.3932 C   0  0  0  0  0  0  0  0  0  0  0  0
   -4.2784   -0.0333   -2.1497 C   0  0  0  0  0  0  0  0  0  0  0  0
    1.7273   -0.8691    0.6571 C   0  0  0  0  0  0  0  0  0  0  0  0
    1.4846    1.8472   -0.4377 C   0  0  0  0  0  0  0  0  0  0  0  0
   -4.2829   -1.3987    1.4196 C   0  0  0  0  0  0  0  0  0  0  0  0
    0.3996   -0.2880    2.6722 C   0  0  0  0  0  0  0  0  0  0  0  0
    2.1924   -0.5509   -0.7626 C   0  0  0  0  0  0  0  0  0  0  0  0
    2.5971    0.9126   -0.9038 C   0  0  0  0  0  0  0  0  0  0  0  0
   -6.1981   -0.6381   -0.6752 C   0  0  0  0  0  0  0  0  0  0  0  0
   -7.1806   -1.6561   -0.2512 C   0  0  0  0  0  0  0  0  0  0  0  0
   -6.7251    0.5829   -0.6412 C   0  0  0  0  0  0  0  0  0  0  0  0
    4.8546    0.3504   -0.5411 C   0  0  0  0  0  0  0  0  0  0  0  0
   -8.1071    0.4278   -0.1846 C   0  0  0  0  0  0  0  0  0  0  0  0
    6.1462    1.1127   -0.2707 C   0  0  0  0  0  0  0  0  0  0  0  0
    7.3647    0.2672   -0.6233 C   0  0  0  0  0  0  0  0  0  0  0  0
    5.9087   -1.7549   -0.2221 C   0  0  0  0  0  0  0  0  0  0  0  0
    7.2747   -1.1079    0.0411 C   0  0  0  0  0  0  0  0  0  0  0  0
    5.7476   -3.0607    0.5497 C   0  0  0  0  0  0  0  0  0  0  0  0
    8.6921    2.2004   -0.7765 C   0  0  0  0  0  0  0  0  0  0  0  0
  1  8  1  0
  2 26  1  0
  2 30  1  0
  3 28  1  0
  3 31  1  0
  4 30  1  0
  4 34  1  0
  5 31  2  0
  6 33  1  0
  6 37  1  0
  7 35  1  0
  8  9  1  0
  8 11  1  0
  8 18  1  0
  9 10  1  0
  9 17  1  0
 10 12  1  0
 10 14  1  0
 11 15  1  0
 11 16  1  0
 11 23  1  0
 12 13  1  0
 12 21  1  0
 12 24  1  0
 13 19  1  0
 13 22  1  0
 14 15  1  0
 16 20  1  0
 16 27  1  0
 17 19  1  0
 18 20  1  0
 21 25  1  0
 22 26  1  0
 25 26  1  0
 27 28  1  0
 27 29  2  0
 29 31  1  0
 30 32  1  0
 32 33  1  0
 33 35  1  0
 34 35  1  0
 34 36  1  0
M  END
>  <PUBCHEM_COMPOUND_CID>  (1) 
42996

>  <PUBCHEM_CONFORMER_RMSD>  (1) 
1

>  <PUBCHEM_CONFORMER_DIVERSEORDER>  (1) 
23
1
64
107
148
95
49
204
65
140
100
203
170
119
131
149
85
179
28
197
46
151
185
60
114
62
201
137
150
125
36
84
47
121
86
59
157
56
196
27
113
37
29
172
87
192
35
19
186
202
141
99
89
132
145
109
34
128
104
67
83
33
73
198
42
63
13
178
69
124
175
57
17
80
110
78
152
75
52
173
182
55
40
38
176
2
189
144
193
163
187
188
108
20
142
129
97
159
9
200
7
105
24
50
191
194
112
53
98
32
22
72
76
195
154
93
54
177
68
117
139
102
122
12
41
166
44
82
134
153
127
70
158
90
136
43
3
18
165
79
45
183
94
77
25
155
51
11
115
111
146
184
14
171
106
167
116
199
58
180
118
15
168
174
39
123
91
164
61
48
74
169
181
10
130
96
26
120
133
92
162
6
190
71
88
135
143
30
4
81
66
103
156
16
147
138
101
161
126
31
8
21
160
5

>  <PUBCHEM_MMFF94_PARTIAL_CHARGES>  (1) 
22
1 -0.68
16 0.14
2 -0.56
26 0.28
27 -0.28
28 0.42
29 -0.14
3 -0.43
30 0.56
31 0.71
33 0.28
34 0.28
35 0.28
37 0.28
4 -0.56
5 -0.57
6 -0.56
67 0.4
7 -0.68
70 0.15
8 0.28
80 0.4

>  <PUBCHEM_EFFECTIVE_ROTOR_COUNT>  (1) 
7.8

>  <PUBCHEM_PHARMACOPHORE_FEATURES>  (1) 
14
1 1 acceptor
1 1 donor
1 2 acceptor
1 4 acceptor
1 5 acceptor
1 6 acceptor
1 7 acceptor
1 7 donor
5 3 27 28 29 31 rings
5 8 11 16 18 20 rings
6 12 13 21 22 25 26 rings
6 4 30 32 33 34 35 rings
6 8 9 10 11 14 15 rings
6 9 10 12 13 17 19 rings

>  <PUBCHEM_HEAVY_ATOM_COUNT>  (1) 
37

>  <PUBCHEM_ATOM_DEF_STEREO_COUNT>  (1) 
8

>  <PUBCHEM_ATOM_UDEF_STEREO_COUNT>  (1) 
4

>  <PUBCHEM_BOND_DEF_STEREO_COUNT>  (1) 
0

>  <PUBCHEM_BOND_UDEF_STEREO_COUNT>  (1) 
0

>  <PUBCHEM_ISOTOPIC_ATOM_COUNT>  (1) 
0

>  <PUBCHEM_COMPONENT_COUNT>  (1) 
1

>  <PUBCHEM_CACTVS_TAUTO_COUNT>  (1) 
1

>  <PUBCHEM_CONFORMER_ID>  (1) 
0000A7F400000017

>  <PUBCHEM_MMFF94_ENERGY>  (1) 
127.8493

>  <PUBCHEM_FEATURE_SELFOVERLAP>  (1) 
71.33

>  <PUBCHEM_SHAPE_FINGERPRINT>  (1) 
10 15 10303812090323810174
10076449 9 18261114097730063441
10165383 225 17967811657217535503
10299344 5 18272370875620065047
106641 1 9079111168463806021
10670039 82 18341327817657955473
10674148 151 18413386540691787185
11297750 10 18059845164849667337
11315181 36 18343587356627661681
11672396 167 18268995285926816438
12144603 126 18201723967854216828
12166972 35 18260829306216168020
12741549 16 16486970670059136768
12838862 33 14836117724480943005
13811026 1 18187086169869697866
14040221 8 16415488151020955153
14068700 675 17489585675416720569
14294032 229 18198065768800916017
14394314 77 18341901731639815953
14856354 85 15482671303230168269
15064986 266 18335991878067434892
15082195 135 18262525901010541228
15131766 46 9942361936893160322
15183329 4 18260547805960042786
15439362 3 18052533558754122448
16087824 20 18272091544813951209
16628084 112 18264481785006936399
18603816 31 15984807265131305357
19841028 212 18262234426975607602
20105231 36 18263086669379207963
21033648 29 14635440480118186724
21267235 1 18342175583671100129
21403212 168 7853581201160434872
21792961 116 18259705579499246194
22224240 67 11095885968806323668
23559900 14 18340198721250790624
249057 3 17095526227265481215
2838139 119 13767923554733384374
3004659 81 18334571347698586434
335352 9 18272646862435498207
3633792 109 18186523207342766724
4017518 198 15267345132775812517
4073 2 17968100871662504250
4098825 35 18260827068891381173
4325135 7 16630529548644121396
439807 62 18342457023713293184
44880568 143 17313383401359207292
45266715 3 17749109946894775938
4625314 4 9727633903860787677
5219985 9 17489587869960379416
5283156 175 18343865498008072084
54039377 194 18272370893090162759
5470011 282 18334857217044058638
6009941 240 17749676276238080258
6081469 158 14692577606502977252
6523845 18 14345788383353725413
6691757 9 14907904920880326871
9663363 56 16056594344294952834

>  <PUBCHEM_SHAPE_MULTIPOLES>  (1) 
720.36
25.98
2.38
1.4
12.62
0.25
-0.34
2.54
7.5
2.6
-0.35
-0.78
-0.12
-0.68

>  <PUBCHEM_SHAPE_SELFOVERLAP>  (1) 
1544.162

>  <PUBCHEM_SHAPE_VOLUME>  (1) 
395.9

>  <PUBCHEM_COORDINATE_TYPE>  (1) 
2
5
10

$$$$
