42999
     RDKit          3D

 20 22  0  0  0  0  0  0  0  0999 V2000
   -3.4974    0.8771    0.2122 O   0  0  0  0  0  0  0  0  0  0  0  0
   -3.0694    3.1074    0.2548 O   0  0  0  0  0  0  0  0  0  0  0  0
    0.5930    0.1386   -0.4168 N   0  0  0  0  0  0  0  0  0  0  0  0
   -0.4155    2.8050   -0.1411 N   0  0  0  0  0  0  0  0  0  0  0  0
   -0.7348    0.4190   -0.2134 C   0  0  0  0  0  0  0  0  0  0  0  0
   -1.6832   -0.7125   -0.1332 C   0  0  0  0  0  0  0  0  0  0  0  0
    1.6465    1.0630   -0.1062 C   0  0  0  0  0  0  0  0  0  0  0  0
   -3.0335   -0.4411    0.0782 C   0  0  0  0  0  0  0  0  0  0  0  0
   -1.1984    1.6815   -0.0843 C   0  0  0  0  0  0  0  0  0  0  0  0
    2.9817    0.3757    0.0034 C   0  0  0  0  0  0  0  0  0  0  0  0
   -1.3200   -2.0639   -0.2570 C   0  0  0  0  0  0  0  0  0  0  0  0
   -4.0012   -1.4458    0.1683 C   0  0  0  0  0  0  0  0  0  0  0  0
   -2.6426    1.9622    0.1385 C   0  0  0  0  0  0  0  0  0  0  0  0
   -2.2768   -3.0837   -0.1693 C   0  0  0  0  0  0  0  0  0  0  0  0
    3.3982   -0.1160    1.2327 C   0  0  0  0  0  0  0  0  0  0  0  0
    3.7773    0.2438   -1.1261 C   0  0  0  0  0  0  0  0  0  0  0  0
   -3.6169   -2.7748    0.0434 C   0  0  0  0  0  0  0  0  0  0  0  0
    4.6354   -0.7524    1.3344 C   0  0  0  0  0  0  0  0  0  0  0  0
    5.0143   -0.3926   -1.0244 C   0  0  0  0  0  0  0  0  0  0  0  0
    5.4433   -0.8906    0.2059 C   0  0  0  0  0  0  0  0  0  0  0  0
  1  8  1  0
  1 13  1  0
  2 13  2  0
  3  5  1  0
  3  7  1  0
  4  9  1  0
  5  6  1  0
  5  9  2  0
  6  8  2  0
  6 11  1  0
  7 10  1  0
  8 12  1  0
  9 13  1  0
 10 15  2  0
 10 16  1  0
 11 14  2  0
 12 17  2  0
 14 17  1  0
 15 18  1  0
 16 19  2  0
 18 20  2  0
 19 20  1  0
M  END
>  <PUBCHEM_COMPOUND_CID>  (1) 
42999

>  <PUBCHEM_CONFORMER_RMSD>  (1) 
0.6

>  <PUBCHEM_CONFORMER_DIVERSEORDER>  (1) 
1
7
3
2
5
4
6

>  <PUBCHEM_MMFF94_PARTIAL_CHARGES>  (1) 
32
1 -0.23
10 -0.14
11 -0.15
12 -0.15
13 0.71
14 -0.15
15 -0.15
16 -0.15
17 -0.15
18 -0.15
19 -0.15
2 -0.57
20 -0.15
23 0.4
24 0.15
25 0.15
26 0.15
27 0.15
28 0.15
29 0.15
3 -0.87
30 0.4
31 0.4
32 0.15
33 0.15
34 0.15
4 -0.9
5 0.07
6 0.03
7 0.51
8 0.08
9 0.11

>  <PUBCHEM_EFFECTIVE_ROTOR_COUNT>  (1) 
3

>  <PUBCHEM_PHARMACOPHORE_FEATURES>  (1) 
8
1 2 acceptor
1 3 cation
1 3 donor
1 4 cation
1 4 donor
6 1 5 6 8 9 13 rings
6 10 15 16 18 19 20 rings
6 6 8 11 12 14 17 rings

>  <PUBCHEM_HEAVY_ATOM_COUNT>  (1) 
20

>  <PUBCHEM_ATOM_DEF_STEREO_COUNT>  (1) 
0

>  <PUBCHEM_ATOM_UDEF_STEREO_COUNT>  (1) 
0

>  <PUBCHEM_BOND_DEF_STEREO_COUNT>  (1) 
0

>  <PUBCHEM_BOND_UDEF_STEREO_COUNT>  (1) 
0

>  <PUBCHEM_ISOTOPIC_ATOM_COUNT>  (1) 
0

>  <PUBCHEM_COMPONENT_COUNT>  (1) 
1

>  <PUBCHEM_CACTVS_TAUTO_COUNT>  (1) 
4

>  <PUBCHEM_CONFORMER_ID>  (1) 
0000A7F700000001

>  <PUBCHEM_MMFF94_ENERGY>  (1) 
80.4545

>  <PUBCHEM_FEATURE_SELFOVERLAP>  (1) 
40.626

>  <PUBCHEM_SHAPE_FINGERPRINT>  (1) 
10319926 262 18198602407984154898
10369192 42 17270016665827204800
10616163 171 18410013230333084654
11046707 91 18335700567699648646
11370993 144 17203621362717649258
11796584 16 18198627628069578766
12107183 9 17902505992060267922
12236239 1 17749394749710906756
12346177 29 18342728620259805694
12523318 42 18341317947136807490
12553582 1 18337106894537770451
12633257 1 18202014238918350521
12788726 201 18336841886470421210
13052359 8 18337106774895598301
13140716 1 18268436922348594265
13167823 11 18260268547217975306
13583140 156 17775273955347460078
13675066 3 17846494842463897238
13862211 1 18339922736081242479
14178342 30 18337093593661923314
14420673 8 18122906418016760514
14866123 147 18411704275295949707
15042514 8 18410016572170711659
16752209 62 18337098012639964643
17804303 29 18342177794935874121
1813 80 17604982796469401621
19784866 135 18410853299944449571
20281475 54 18260543416571875466
20291156 8 18262798591823686510
21033648 29 17060326401979192842
21065201 7 18342455903285900706
21267235 1 18336554905435821027
21634736 98 18116436027877125844
21650355 55 18411979169950291369
2297311 6 18341907311128640278
23402539 116 18343576357221594207
23557571 272 18130238076912702492
23559900 14 18341044224418245160
23598291 2 17968106347376145436
23728640 28 18409730642922557603
2838139 119 14476137570518881315
3004659 81 18113614638238506742
312423 11 18115036302425311420
335352 9 18410857690123524191
338550 245 18261396577545225910
4214541 1 18410856547213986060
5104073 3 18342738537756251400
559249 180 18188767237154477274
573450 72 18334290942611805080
58807428 26 18195254308592713521
59755656 215 18411982421330264095
602551 16 18413106152526178010
67856867 119 18188772885522190668
7970288 3 18193836165799978778
9709674 26 18272375230885942462

>  <PUBCHEM_SHAPE_MULTIPOLES>  (1) 
389.89
10.44
3.09
0.92
11.76
0.44
0.08
-4.18
0.63
-4.89
0.03
1.21
-0.12
-0.48

>  <PUBCHEM_SHAPE_SELFOVERLAP>  (1) 
856.222

>  <PUBCHEM_SHAPE_VOLUME>  (1) 
209

>  <PUBCHEM_COORDINATE_TYPE>  (1) 
2
5
10

$$$$
