42993
     RDKit          3D

 25 27  0  0  0  0  0  0  0  0999 V2000
    2.1149    1.1923   -1.2132 O   0  0  0  0  0  0  0  0  0  0  0  0
   -2.1133    2.6984   -0.5707 O   0  0  0  0  0  0  0  0  0  0  0  0
   -4.4481    1.7297    0.5797 O   0  0  0  0  0  0  0  0  0  0  0  0
    4.0850    1.7649    0.6419 O   0  0  0  0  0  0  0  0  0  0  0  0
   -0.4750   -3.1471   -0.5464 N   0  0  0  0  0  0  0  0  0  0  0  0
    0.9094   -1.3807   -1.3801 C   0  0  0  0  0  0  0  0  0  0  0  0
   -1.3766   -0.8910   -0.4372 C   0  0  0  0  0  0  0  0  0  0  0  0
   -0.3800   -1.8150   -0.7578 C   0  0  0  0  0  0  0  0  0  0  0  0
   -2.5606   -1.3871    0.1466 C   0  0  0  0  0  0  0  0  0  0  0  0
    1.9889   -1.0432   -0.3743 C   0  0  0  0  0  0  0  0  0  0  0  0
   -1.2386    0.4867   -0.6737 C   0  0  0  0  0  0  0  0  0  0  0  0
    2.5349    0.2288   -0.3445 C   0  0  0  0  0  0  0  0  0  0  0  0
   -3.5857   -0.4878    0.4827 C   0  0  0  0  0  0  0  0  0  0  0  0
   -2.2666    1.3656   -0.3335 C   0  0  0  0  0  0  0  0  0  0  0  0
   -2.6787   -2.7633    0.3738 C   0  0  0  0  0  0  0  0  0  0  0  0
   -3.4376    0.8794    0.2433 C   0  0  0  0  0  0  0  0  0  0  0  0
    2.4073   -2.0304    0.5022 C   0  0  0  0  0  0  0  0  0  0  0  0
   -1.6222   -3.5859    0.0140 C   0  0  0  0  0  0  0  0  0  0  0  0
    3.5288    0.5225    0.5892 C   0  0  0  0  0  0  0  0  0  0  0  0
    3.4009   -1.7367    1.4359 C   0  0  0  0  0  0  0  0  0  0  0  0
    3.9618   -0.4602    1.4793 C   0  0  0  0  0  0  0  0  0  0  0  0
    3.0952    1.7469   -2.0872 C   0  0  0  0  0  0  0  0  0  0  0  0
   -0.8847    3.1138   -1.1639 C   0  0  0  0  0  0  0  0  0  0  0  0
   -4.4201    2.2808    1.8947 C   0  0  0  0  0  0  0  0  0  0  0  0
    3.4608    2.7187    1.4992 C   0  0  0  0  0  0  0  0  0  0  0  0
  1 12  1  0
  1 22  1  0
  2 14  1  0
  2 23  1  0
  3 16  1  0
  3 24  1  0
  4 19  1  0
  4 25  1  0
  5  8  2  0
  5 18  1  0
  6  8  1  0
  6 10  1  0
  7  8  1  0
  7  9  2  0
  7 11  1  0
  9 13  1  0
  9 15  1  0
 10 12  2  0
 10 17  1  0
 11 14  2  0
 12 19  1  0
 13 16  2  0
 14 16  1  0
 15 18  2  0
 17 20  2  0
 19 21  2  0
 20 21  1  0
M  END
>  <PUBCHEM_COMPOUND_CID>  (1) 
42993

>  <PUBCHEM_CONFORMER_RMSD>  (1) 
0.8

>  <PUBCHEM_CONFORMER_DIVERSEORDER>  (1) 
3
29
34
36
32
33
24
45
43
14
9
38
35
37
31
11
2
7
40
22
4
44
42
10
18
6
19
41
25
39
5
8
13
27
17
30
16
26
1
21
20
28
12
23
15

>  <PUBCHEM_MMFF94_PARTIAL_CHARGES>  (1) 
30
1 -0.36
10 -0.14
11 -0.15
12 0.08
13 -0.15
14 0.08
15 -0.15
16 0.08
17 -0.15
18 0.16
19 0.08
2 -0.36
20 -0.15
21 -0.15
22 0.28
23 0.28
24 0.28
25 0.28
28 0.15
29 0.15
3 -0.36
30 0.15
31 0.15
32 0.15
33 0.15
34 0.15
4 -0.36
5 -0.62
6 0.29
8 0.17

>  <PUBCHEM_EFFECTIVE_ROTOR_COUNT>  (1) 
6

>  <PUBCHEM_PHARMACOPHORE_FEATURES>  (1) 
8
1 1 acceptor
1 2 acceptor
1 3 acceptor
1 4 acceptor
1 5 acceptor
6 10 12 17 19 20 21 rings
6 5 7 8 9 15 18 rings
6 7 9 11 13 14 16 rings

>  <PUBCHEM_HEAVY_ATOM_COUNT>  (1) 
25

>  <PUBCHEM_ATOM_DEF_STEREO_COUNT>  (1) 
0

>  <PUBCHEM_ATOM_UDEF_STEREO_COUNT>  (1) 
0

>  <PUBCHEM_BOND_DEF_STEREO_COUNT>  (1) 
0

>  <PUBCHEM_BOND_UDEF_STEREO_COUNT>  (1) 
0

>  <PUBCHEM_ISOTOPIC_ATOM_COUNT>  (1) 
0

>  <PUBCHEM_COMPONENT_COUNT>  (1) 
1

>  <PUBCHEM_CACTVS_TAUTO_COUNT>  (1) 
1

>  <PUBCHEM_CONFORMER_ID>  (1) 
0000A7F100000003

>  <PUBCHEM_MMFF94_ENERGY>  (1) 
117.3781

>  <PUBCHEM_FEATURE_SELFOVERLAP>  (1) 
40.635

>  <PUBCHEM_SHAPE_FINGERPRINT>  (1) 
11370993 70 18193542377224792165
11578080 2 17173743414180733373
12173636 292 18341613750130075215
12553582 1 17975704097077902551
12633257 1 18339914914280567392
12788726 201 18122354729193094251
13140716 1 18410014295416135987
13583140 156 16877940486826366655
13965767 371 18336267838379704760
14081887 123 18196647612720150304
14178342 30 18265329701903384764
14223421 5 18410285952224202046
14787075 74 17988918969103641377
16110190 28 18190445079515118298
20715895 44 17973432218767135301
21033648 29 18051950560045610416
21731228 192 18340197480079166251
21864079 5 18059570342971391144
22149856 69 18126872434378528969
23559900 14 18127986221090940903
350125 39 18266189322337847158
474 4 18058166125020591459
58807428 26 18264214612882855179
7064713 232 18412547587265127297
7097593 13 18187915150061062426
7808743 9 18266193879593943788
90316 7 18187079564009764093

>  <PUBCHEM_SHAPE_MULTIPOLES>  (1) 
486.03
8.26
4.14
1.55
0.37
0.42
-0.04
-4.14
-4.08
-1.78
-0.03
0.95
-0.85
-0.88

>  <PUBCHEM_SHAPE_SELFOVERLAP>  (1) 
1055.868

>  <PUBCHEM_SHAPE_VOLUME>  (1) 
267.3

>  <PUBCHEM_COORDINATE_TYPE>  (1) 
2
5
10

$$$$
