42994
     RDKit          3D

 34 36  0  0  1  0  0  0  0  0999 V2000
    2.7242   -0.4130   -0.3638 O   0  0  0  0  0  0  0  0  0  0  0  0
    5.6931    1.4343    0.7254 O   0  0  0  0  0  0  0  0  0  0  0  0
    6.7434   -1.1649    0.0207 O   0  0  0  0  0  0  0  0  0  0  0  0
    2.2341   -2.6912   -0.4803 O   0  0  0  0  0  0  0  0  0  0  0  0
    4.7740   -3.2715    0.6244 O   0  0  0  0  0  0  0  0  0  0  0  0
    1.5805    2.0662   -0.0446 O   0  0  0  0  0  0  0  0  0  0  0  0
    1.5180    4.1189   -1.0848 O   0  0  0  0  0  0  0  0  0  0  0  0
   -2.9176    1.0427    1.5043 O   0  0  0  0  0  0  0  0  0  0  0  0
   -3.4168    5.3231   -0.5848 O   0  0  0  0  0  0  0  0  0  0  0  0
   -6.1766   -2.2561    0.0720 O   0  0  0  0  0  0  0  0  0  0  0  0
   -4.5238    3.1761    0.7699 O   0  0  0  0  0  0  0  0  0  0  0  0
    4.9625    0.4342    0.0203 C   0  0  0  0  0  0  0  0  0  0  0  0
    5.4128   -0.9482    0.4929 C   0  0  0  0  0  0  0  0  0  0  0  0
    3.4653    0.6320    0.2685 C   0  0  0  0  0  0  0  0  0  0  0  0
    4.4954   -2.0443   -0.0492 C   0  0  0  0  0  0  0  0  0  0  0  0
    3.0233   -1.6986    0.1749 C   0  0  0  0  0  0  0  0  0  0  0  0
    2.9688    1.9573   -0.3006 C   0  0  0  0  0  0  0  0  0  0  0  0
    0.8762   -2.5528   -0.3883 C   0  0  0  0  0  0  0  0  0  0  0  0
    0.2580   -2.5584    0.8621 C   0  0  0  0  0  0  0  0  0  0  0  0
    0.1101   -2.4066   -1.5446 C   0  0  0  0  0  0  0  0  0  0  0  0
    0.9714    3.2021   -0.4912 C   0  0  0  0  0  0  0  0  0  0  0  0
   -1.8928   -2.2716   -0.2004 C   0  0  0  0  0  0  0  0  0  0  0  0
   -1.1265   -2.4179    0.9560 C   0  0  0  0  0  0  0  0  0  0  0  0
   -1.2745   -2.2661   -1.4507 C   0  0  0  0  0  0  0  0  0  0  0  0
   -3.3730   -2.1215   -0.1006 C   0  0  0  0  0  0  0  0  0  0  0  0
   -0.4760    3.1945   -0.1603 C   0  0  0  0  0  0  0  0  0  0  0  0
   -4.0976   -3.4722   -0.1413 C   0  0  0  0  0  0  0  0  0  0  0  0
   -1.2818    4.2711   -0.5307 C   0  0  0  0  0  0  0  0  0  0  0  0
   -1.0298    2.1118    0.5230 C   0  0  0  0  0  0  0  0  0  0  0  0
   -5.6077   -3.3393   -0.0540 C   0  0  0  0  0  0  0  0  0  0  0  0
   -2.3890    2.1058    0.8360 C   0  0  0  0  0  0  0  0  0  0  0  0
   -2.6410    4.2653   -0.2177 C   0  0  0  0  0  0  0  0  0  0  0  0
   -3.1946    3.1826    0.4658 C   0  0  0  0  0  0  0  0  0  0  0  0
   -6.3920   -4.6238   -0.1284 C   0  0  0  0  0  0  0  0  0  0  0  0
  1 14  1  0
  1 16  1  0
  2 12  1  0
  3 13  1  0
  4 16  1  0
  4 18  1  0
  5 15  1  0
  6 17  1  0
  6 21  1  0
  7 21  2  0
  8 31  1  0
  9 32  1  0
 10 30  2  0
 11 33  1  0
 12 13  1  0
 12 14  1  0
 13 15  1  0
 14 17  1  0
 15 16  1  0
 18 19  2  0
 18 20  1  0
 19 23  1  0
 20 24  2  0
 21 26  1  0
 22 23  2  0
 22 24  1  0
 22 25  1  0
 25 27  1  0
 26 28  2  0
 26 29  1  0
 27 30  1  0
 28 32  1  0
 29 31  2  0
 30 34  1  0
 31 33  1  0
 32 33  2  0
M  END
>  <PUBCHEM_COMPOUND_CID>  (1) 
42994

>  <PUBCHEM_CONFORMER_RMSD>  (1) 
1

>  <PUBCHEM_CONFORMER_DIVERSEORDER>  (1) 
1
25
88
133
51
335
58
190
230
73
331
42
69
98
260
154
219
294
90
123
290
111
241
191
43
223
232
197
158
16
199
108
228
240
330
305
52
272
225
283
309
130
143
180
91
291
86
281
217
298
307
129
238
112
326
193
39
107
110
139
2
201
182
250
165
292
279
207
22
164
257
48
115
323
118
168
64
183
329
81
247
100
319
317
163
324
96
159
76
15
235
132
314
204
328
249
66
306
93
198
287
315
10
134
273
11
321
20
40
303
288
135
253
311
37
153
124
92
208
221
259
167
23
220
188
170
106
126
175
61
189
84
142
222
3
218
251
72
122
75
82
152
162
13
308
267
243
187
14
24
113
227
45
293
275
34
63
278
244
31
248
268
322
327
30
265
78
313
209
121
312
325
12
116
120
289
233
318
87
203
277
127
38
196
266
68
105
214
147
179
215
276
171
146
157
27
236
95
173
256
104
194
178
192
49
19
252
4
169
160
185
186
176
333
59
53
9
302
184
103
70
67
332
28
296
156
166
274
334
57
35
80
172
29
212
150
77
284
125
109
117
131
32
246
224
202
26
21
181
41
47
56
297
174
206
226
50
54
128
254
316
71
97
141
239
65
258
231
60
320
177
310
234
151
89
62
33
145
101
210
195
6
285
255
148
263
264
301
8
271
242
114
138
299
155
262
216
229
245
280
261
286
102
36
55
85
161
300
269
5
140
200
119
282
295
99
213
44
205
94
144
149
137
83
7
237
74
79
304
17
270
136
18
211
46

>  <PUBCHEM_MMFF94_PARTIAL_CHARGES>  (1) 
46
1 -0.56
10 -0.57
11 -0.53
12 0.28
13 0.28
14 0.28
15 0.28
16 0.56
17 0.28
18 0.08
19 -0.15
2 -0.68
20 -0.15
21 0.63
22 -0.14
23 -0.15
24 -0.15
25 0.14
26 0.09
27 0.06
28 -0.15
29 -0.15
3 -0.68
30 0.45
31 0.08
32 0.08
33 0.08
34 0.06
4 -0.36
42 0.4
43 0.4
44 0.4
45 0.15
46 0.15
47 0.15
48 0.15
5 -0.68
53 0.15
54 0.15
58 0.45
59 0.45
6 -0.43
60 0.45
7 -0.57
8 -0.53
9 -0.53

>  <PUBCHEM_EFFECTIVE_ROTOR_COUNT>  (1) 
10.2

>  <PUBCHEM_PHARMACOPHORE_FEATURES>  (1) 
16
1 1 acceptor
1 10 acceptor
1 11 donor
1 2 acceptor
1 2 donor
1 3 acceptor
1 3 donor
1 4 acceptor
1 5 acceptor
1 5 donor
1 7 acceptor
1 8 donor
1 9 donor
6 1 12 13 14 15 16 rings
6 18 19 20 22 23 24 rings
6 26 28 29 31 32 33 rings

>  <PUBCHEM_HEAVY_ATOM_COUNT>  (1) 
34

>  <PUBCHEM_ATOM_DEF_STEREO_COUNT>  (1) 
5

>  <PUBCHEM_ATOM_UDEF_STEREO_COUNT>  (1) 
0

>  <PUBCHEM_BOND_DEF_STEREO_COUNT>  (1) 
0

>  <PUBCHEM_BOND_UDEF_STEREO_COUNT>  (1) 
0

>  <PUBCHEM_ISOTOPIC_ATOM_COUNT>  (1) 
0

>  <PUBCHEM_COMPONENT_COUNT>  (1) 
1

>  <PUBCHEM_CACTVS_TAUTO_COUNT>  (1) 
42

>  <PUBCHEM_CONFORMER_ID>  (1) 
0000A7F200000001

>  <PUBCHEM_MMFF94_ENERGY>  (1) 
95.628

>  <PUBCHEM_FEATURE_SELFOVERLAP>  (1) 
81.267

>  <PUBCHEM_SHAPE_FINGERPRINT>  (1) 
10675989 125 17905047306565665925
10677394 325 17606702455185343084
10864689 126 17402339169864499605
12156800 1 18196682681392068524
12166972 35 17968937625042495903
13165054 54 17679003924948717299
13347071 3 18342457054352921463
13402501 40 17759810243083342432
13560911 43 18043240434761439482
1361 2 17834107546976797605
14028597 1 17750772485521120978
14395042 24 18341904013395760211
14725015 67 18339636849302408227
15264996 151 18190178078519815203
15320467 1 18194402422898095675
15400415 2 17617939137018752556
15419008 145 18338222813905819586
15483637 11 18410290268223080005
15968369 153 18058146453685344749
21133410 38 17121141266085410665
21133410 62 17827060828794475157
21133410 90 17346591993738685641
21197605 99 18340209566269695865
21344244 78 18118655903368355442
373842 8 18339079401697620639
463206 1 18341328873592266821
653340 110 18341041999962666296

>  <PUBCHEM_SHAPE_MULTIPOLES>  (1) 
635.14
12.89
8.17
0.99
0.98
8.02
-0.08
-13.02
1.68
-9.83
-1.06
-0.21
-0.08
-1.01

>  <PUBCHEM_SHAPE_SELFOVERLAP>  (1) 
1349.394

>  <PUBCHEM_SHAPE_VOLUME>  (1) 
350.7

>  <PUBCHEM_COORDINATE_TYPE>  (1) 
2
5
10

$$$$
