43
     RDKit          3D

 10  9  0  0  1  0  0  0  0  0999 V2000
   -1.5530    1.7577   -0.5791 O   0  0  0  0  0  0  0  0  0  0  0  0
   -1.8868   -1.4391    1.0096 O   0  0  0  0  0  0  0  0  0  0  0  0
    3.0907   -0.6924   -1.0766 O   0  0  0  0  0  0  0  0  0  0  0  0
   -2.5548   -0.7135   -1.0402 O   0  0  0  0  0  0  0  0  0  0  0  0
    2.8482    0.1931    1.0029 O   0  0  0  0  0  0  0  0  0  0  0  0
    0.1357    0.6493    0.7276 C   0  0  0  0  0  0  0  0  0  0  0  0
   -1.3611    0.7993    0.4491 C   0  0  0  0  0  0  0  0  0  0  0  0
    0.9230    0.0761   -0.4509 C   0  0  0  0  0  0  0  0  0  0  0  0
   -2.0109   -0.5035    0.0346 C   0  0  0  0  0  0  0  0  0  0  0  0
    2.3690   -0.1271   -0.0770 C   0  0  0  0  0  0  0  0  0  0  0  0
  1  7  1  0
  2  9  1  0
  3 10  1  0
  4  9  2  0
  5 10  2  0
  6  7  1  0
  6  8  1  0
  7  9  1  0
  8 10  1  0
M  END
>  <PUBCHEM_COMPOUND_CID>  (1) 
43

>  <PUBCHEM_CONFORMER_RMSD>  (1) 
0.6

>  <PUBCHEM_CONFORMER_DIVERSEORDER>  (1) 
3
12
24
9
31
32
4
29
23
6
15
8
10
30
18
27
20
13
17
14
11
21
25
22
26
5
16
19
28
7
1
2

>  <PUBCHEM_MMFF94_PARTIAL_CHARGES>  (1) 
12
1 -0.68
10 0.66
16 0.4
17 0.5
18 0.5
2 -0.65
3 -0.65
4 -0.57
5 -0.57
7 0.34
8 0.06
9 0.66

>  <PUBCHEM_EFFECTIVE_ROTOR_COUNT>  (1) 
4

>  <PUBCHEM_PHARMACOPHORE_FEATURES>  (1) 
8
1 1 acceptor
1 1 donor
1 2 acceptor
1 3 acceptor
1 4 acceptor
1 5 acceptor
3 2 4 9 anion
3 3 5 10 anion

>  <PUBCHEM_HEAVY_ATOM_COUNT>  (1) 
10

>  <PUBCHEM_ATOM_DEF_STEREO_COUNT>  (1) 
0

>  <PUBCHEM_ATOM_UDEF_STEREO_COUNT>  (1) 
1

>  <PUBCHEM_BOND_DEF_STEREO_COUNT>  (1) 
0

>  <PUBCHEM_BOND_UDEF_STEREO_COUNT>  (1) 
0

>  <PUBCHEM_ISOTOPIC_ATOM_COUNT>  (1) 
0

>  <PUBCHEM_COMPONENT_COUNT>  (1) 
1

>  <PUBCHEM_CACTVS_TAUTO_COUNT>  (1) 
1

>  <PUBCHEM_CONFORMER_ID>  (1) 
0000002B00000003

>  <PUBCHEM_MMFF94_ENERGY>  (1) 
5.7944

>  <PUBCHEM_FEATURE_SELFOVERLAP>  (1) 
40.72

>  <PUBCHEM_SHAPE_FINGERPRINT>  (1) 
10857977 72 17917700331806203864
12716758 59 18266175028665671408
12897270 3 18114184159122287774
12932741 1 18131067087416276692
12932764 1 18337677412576573080
20201158 50 18273209811429096214
20653085 51 14635139093308626911
20711985 344 18337951182150118961
29004967 10 17561083618067414296
3248919 1 18113900451005254294
369184 2 16845574197103857273

>  <PUBCHEM_SHAPE_MULTIPOLES>  (1) 
176.45
4.52
1.24
1.05
2.53
0.17
0.04
-1.2
-0.44
-0.73
-0.06
-0.03
-0.11
0.5

>  <PUBCHEM_SHAPE_SELFOVERLAP>  (1) 
337.649

>  <PUBCHEM_SHAPE_VOLUME>  (1) 
107.2

>  <PUBCHEM_COORDINATE_TYPE>  (1) 
2
5
10

$$$$
