43007
     RDKit          3D

 15 16  0  0  0  0  0  0  0  0999 V2000
   -4.0873    0.8265    0.1640 O   0  0  0  0  0  0  0  0  0  0  0  0
   -2.5937    2.3787   -0.2592 O   0  0  0  0  0  0  0  0  0  0  0  0
    1.7798   -0.3907   -0.3377 N   0  0  0  0  0  0  0  0  0  0  0  0
    1.2627   -2.5151    0.0613 N   0  0  0  0  0  0  0  0  0  0  0  0
    3.9236    2.5901    0.3278 N   0  0  0  0  0  0  0  0  0  0  0  0
   -2.9015    1.1840   -0.0333 N   0  0  0  0  0  0  0  0  0  0  0  0
    0.4186   -0.4113   -0.1730 C   0  0  0  0  0  0  0  0  0  0  0  0
    2.5961    0.7665   -0.6199 C   0  0  0  0  0  0  0  0  0  0  0  0
    0.1203   -1.7483    0.0747 C   0  0  0  0  0  0  0  0  0  0  0  0
    3.0845    1.4448    0.6568 C   0  0  0  0  0  0  0  0  0  0  0  0
    2.2378   -1.6701   -0.1883 C   0  0  0  0  0  0  0  0  0  0  0  0
   -0.5478    0.5941   -0.2183 C   0  0  0  0  0  0  0  0  0  0  0  0
   -1.2164   -2.1227    0.2926 C   0  0  0  0  0  0  0  0  0  0  0  0
   -1.8730    0.2036    0.0007 C   0  0  0  0  0  0  0  0  0  0  0  0
   -2.2036   -1.1300    0.2518 C   0  0  0  0  0  0  0  0  0  0  0  0
  1  6  1  0
  2  6  2  0
  3  7  1  0
  3  8  1  0
  3 11  1  0
  4  9  1  0
  4 11  2  0
  5 10  1  0
  6 14  1  0
  7  9  2  0
  7 12  1  0
  8 10  1  0
  9 13  1  0
 12 14  2  0
 13 15  2  0
 14 15  1  0
M  CHG  2   1  -1   6   1
M  END
>  <PUBCHEM_COMPOUND_CID>  (1) 
43007

>  <PUBCHEM_CONFORMER_RMSD>  (1) 
0.6

>  <PUBCHEM_CONFORMER_DIVERSEORDER>  (1) 
2
3
1

>  <PUBCHEM_MMFF94_PARTIAL_CHARGES>  (1) 
21
1 -0.52
10 0.27
11 0.04
12 -0.15
13 -0.15
14 0.13
15 -0.15
2 -0.52
20 0.15
21 0.15
22 0.15
23 0.15
24 0.36
25 0.36
3 0.05
4 -0.57
5 -0.99
6 0.91
7 -0.15
8 0.26
9 0.23

>  <PUBCHEM_EFFECTIVE_ROTOR_COUNT>  (1) 
3

>  <PUBCHEM_PHARMACOPHORE_FEATURES>  (1) 
8
1 1 acceptor
1 1 anion
1 2 acceptor
1 5 cation
1 5 donor
3 3 4 11 cation
5 3 4 7 9 11 rings
6 7 9 12 13 14 15 rings

>  <PUBCHEM_HEAVY_ATOM_COUNT>  (1) 
15

>  <PUBCHEM_ATOM_DEF_STEREO_COUNT>  (1) 
0

>  <PUBCHEM_ATOM_UDEF_STEREO_COUNT>  (1) 
0

>  <PUBCHEM_BOND_DEF_STEREO_COUNT>  (1) 
0

>  <PUBCHEM_BOND_UDEF_STEREO_COUNT>  (1) 
0

>  <PUBCHEM_ISOTOPIC_ATOM_COUNT>  (1) 
0

>  <PUBCHEM_COMPONENT_COUNT>  (1) 
1

>  <PUBCHEM_CACTVS_TAUTO_COUNT>  (1) 
1

>  <PUBCHEM_CONFORMER_ID>  (1) 
0000A7FF00000002

>  <PUBCHEM_MMFF94_ENERGY>  (1) 
25.5845

>  <PUBCHEM_FEATURE_SELFOVERLAP>  (1) 
40.783

>  <PUBCHEM_SHAPE_FINGERPRINT>  (1) 
10608611 8 18410294687728453820
10967382 1 18409732828791840189
12390115 104 18125743398106972552
13140716 1 18335703810400295275
13380535 21 18337686255603148423
13380535 76 18409163324692035795
13897977 150 18410573968166806293
14325111 11 18191873327548663791
14648413 74 18338802199950041218
14897335 6 18410852166015008807
16945 1 18119259594885322783
18186145 218 18199191676732326109
20510252 161 18125446559931465312
20525323 117 18265044906769137894
20671657 1 18338519621203496310
21501502 16 18411973676365314395
21524375 3 18342452673148591286
2334 1 18408891753909981239
23402539 116 17766835400672193502
2748010 2 18335714835586612183
305870 269 18408317817894226106
3071541 12 18339927000534958686
5104073 3 18262808367775875617
53812653 166 18341895220463399048
5939293 188 17834390120841974684
6333272 397 18409448106846389937
7364860 26 18269557148255914294
84936 182 18272086037599981632
90316 7 17313928836072088884

>  <PUBCHEM_SHAPE_MULTIPOLES>  (1) 
277.03
5.78
2.83
0.68
0.54
0.04
-0.01
-4.76
-0.52
0.63
-0.18
0.2
-0.04
0.54

>  <PUBCHEM_SHAPE_SELFOVERLAP>  (1) 
596.188

>  <PUBCHEM_SHAPE_VOLUME>  (1) 
156

>  <PUBCHEM_COORDINATE_TYPE>  (1) 
2
5
10

$$$$
