43001
     RDKit          3D

 17 19  0  0  0  0  0  0  0  0999 V2000
   -2.2631    1.2546    0.0110 O   0  0  0  0  0  0  0  0  0  0  0  0
   -1.5060    3.3961    0.0242 O   0  0  0  0  0  0  0  0  0  0  0  0
    1.6987   -0.1095    0.0024 N   0  0  0  0  0  0  0  0  0  0  0  0
    1.0984    2.6831    0.0236 N   0  0  0  0  0  0  0  0  0  0  0  0
    2.4712   -0.3905   -1.2027 C   0  0  0  0  0  0  0  0  0  0  0  0
    2.4650   -0.4086    1.2071 C   0  0  0  0  0  0  0  0  0  0  0  0
    3.8925   -0.6016   -0.6899 C   0  0  0  0  0  0  0  0  0  0  0  0
    3.6710   -1.1896    0.6939 C   0  0  0  0  0  0  0  0  0  0  0  0
    0.4278    0.3701    0.0029 C   0  0  0  0  0  0  0  0  0  0  0  0
   -0.6858   -0.6026   -0.0076 C   0  0  0  0  0  0  0  0  0  0  0  0
    0.1512    1.6926    0.0135 C   0  0  0  0  0  0  0  0  0  0  0  0
   -1.9941   -0.1232   -0.0022 C   0  0  0  0  0  0  0  0  0  0  0  0
   -0.5219   -1.9977   -0.0236 C   0  0  0  0  0  0  0  0  0  0  0  0
   -1.2492    2.1956    0.0163 C   0  0  0  0  0  0  0  0  0  0  0  0
   -3.1083   -0.9672   -0.0107 C   0  0  0  0  0  0  0  0  0  0  0  0
   -1.6274   -2.8585   -0.0323 C   0  0  0  0  0  0  0  0  0  0  0  0
   -2.9201   -2.3433   -0.0258 C   0  0  0  0  0  0  0  0  0  0  0  0
  1 12  1  0
  1 14  1  0
  2 14  2  0
  3  5  1  0
  3  6  1  0
  3  9  1  0
  4 11  1  0
  5  7  1  0
  6  8  1  0
  7  8  1  0
  9 10  1  0
  9 11  2  0
 10 12  2  0
 10 13  1  0
 11 14  1  0
 12 15  1  0
 13 16  2  0
 15 17  2  0
 16 17  1  0
M  END
>  <PUBCHEM_COMPOUND_CID>  (1) 
43001

>  <PUBCHEM_CONFORMER_RMSD>  (1) 
0.6

>  <PUBCHEM_CONFORMER_DIVERSEORDER>  (1) 
1

>  <PUBCHEM_MMFF94_PARTIAL_CHARGES>  (1) 
21
1 -0.23
10 0.03
11 0.11
12 0.08
13 -0.15
14 0.71
15 -0.15
16 -0.15
17 -0.15
2 -0.57
26 0.15
27 0.15
28 0.4
29 0.4
3 -0.84
30 0.15
31 0.15
4 -0.9
5 0.37
6 0.37
9 0.07

>  <PUBCHEM_EFFECTIVE_ROTOR_COUNT>  (1) 
2

>  <PUBCHEM_PHARMACOPHORE_FEATURES>  (1) 
7
1 2 acceptor
1 3 cation
1 4 cation
1 4 donor
5 3 5 6 7 8 rings
6 1 9 10 11 12 14 rings
6 10 12 13 15 16 17 rings

>  <PUBCHEM_HEAVY_ATOM_COUNT>  (1) 
17

>  <PUBCHEM_ATOM_DEF_STEREO_COUNT>  (1) 
0

>  <PUBCHEM_ATOM_UDEF_STEREO_COUNT>  (1) 
0

>  <PUBCHEM_BOND_DEF_STEREO_COUNT>  (1) 
0

>  <PUBCHEM_BOND_UDEF_STEREO_COUNT>  (1) 
0

>  <PUBCHEM_ISOTOPIC_ATOM_COUNT>  (1) 
0

>  <PUBCHEM_COMPONENT_COUNT>  (1) 
1

>  <PUBCHEM_CACTVS_TAUTO_COUNT>  (1) 
2

>  <PUBCHEM_CONFORMER_ID>  (1) 
0000A7F900000001

>  <PUBCHEM_MMFF94_ENERGY>  (1) 
65.1097

>  <PUBCHEM_FEATURE_SELFOVERLAP>  (1) 
35.549

>  <PUBCHEM_SHAPE_FINGERPRINT>  (1) 
10319926 262 18197190605132088706
10967382 1 17906452486662473411
10989021 7 18268431424315980715
11578080 2 17387941327709307476
11680986 33 18051410961813344835
12553582 1 18337676420086186890
13140716 1 18411422847315764633
13538477 17 18260545580998002854
14790565 3 18195544605259196385
14817 1 12593852531628112273
15042514 8 18337115575030503811
15375462 189 18114465646952564042
15442244 35 18196377133408635875
15669948 3 18335704901680430926
15848700 24 18272081755723185791
16752209 62 18335972069883708199
16945 1 18411136909551417963
17990270 104 17907860956784000583
19049666 15 17844530994295537534
19591789 44 17836096571921342259
19868273 325 18409732875999537710
20510252 161 18271243820303735992
20645477 70 17762612189843460407
20871998 184 18272930514085285430
20905425 154 18196942294953898604
21296965 67 18339360884926967563
21501502 16 18124602130796068975
21650355 55 18337936905984561480
23184049 29 18338512061844524122
2334 1 18122625217489675371
23402539 116 18271231756041418327
23419403 2 17487023847994905609
23557571 272 18272375252893314076
23559900 14 18056197961248947262
23598294 1 18263924341475174562
257057 1 18195516211108037327
2748010 2 18267013041552456741
3071541 250 18121226634288288423
3084891 72 18410285879262771863
3091708 16 9205900247571153729
34934 24 18123748918046260476
427121 178 16409899208989057585
43471831 8 17975976458118024387
58807428 26 17689995639638017867
5902787 121 18265048218273520578
6992083 37 17896606076857912148
7364860 26 17836931474423552370
77492 1 17676775258387309130
81228 2 18412268315437483803

>  <PUBCHEM_SHAPE_MULTIPOLES>  (1) 
328.15
5.4
3.32
0.84
3.17
2.01
0
-3.16
-0.1
-2.26
0.06
0.67
-0.17
-0.12

>  <PUBCHEM_SHAPE_SELFOVERLAP>  (1) 
716.797

>  <PUBCHEM_SHAPE_VOLUME>  (1) 
178.4

>  <PUBCHEM_COORDINATE_TYPE>  (1) 
2
5
10

$$$$
