43012
     RDKit          3D

 11 11  0  0  0  0  0  0  0  0999 V2000
    3.9167    0.3229    0.4379 S   0  0  0  0  0  0  0  0  0  0  0  0
    1.5740   -1.3722   -0.0638 S   0  0  0  0  0  0  0  0  0  0  0  0
   -0.8149   -0.2575   -0.0098 O   0  0  0  0  0  0  0  0  0  0  0  0
   -2.3954    1.4187   -0.0391 O   0  0  0  0  0  0  0  0  0  0  0  0
    0.0809    0.8185   -0.0757 N   0  0  0  0  0  0  0  0  0  0  0  0
   -2.9863   -0.8201    0.0680 N   0  0  0  0  0  0  0  0  0  0  0  0
    2.4815    1.2412   -0.1539 C   0  0  0  0  0  0  0  0  0  0  0  0
    1.2821    0.3497   -0.0876 C   0  0  0  0  0  0  0  0  0  0  0  0
    3.3750   -1.2848   -0.1741 C   0  0  0  0  0  0  0  0  0  0  0  0
   -2.0934    0.2299    0.0033 C   0  0  0  0  0  0  0  0  0  0  0  0
   -4.4201   -0.6464    0.0947 C   0  0  0  0  0  0  0  0  0  0  0  0
  1  7  1  0
  1  9  1  0
  2  8  1  0
  2  9  1  0
  3  5  1  0
  3 10  1  0
  4 10  2  0
  5  8  2  0
  6 10  1  0
  6 11  1  0
  7  8  1  0
M  END
>  <PUBCHEM_COMPOUND_CID>  (1) 
43012

>  <PUBCHEM_CONFORMER_RMSD>  (1) 
0.6

>  <PUBCHEM_CONFORMER_DIVERSEORDER>  (1) 
1
11
12
10
13
9
5
3
7
6
2
8
4

>  <PUBCHEM_MMFF94_PARTIAL_CHARGES>  (1) 
12
1 -0.46
10 0.78
11 0.3
16 0.37
2 -0.37
3 -0.09
4 -0.57
5 -0.51
6 -0.73
7 0.29
8 0.53
9 0.46

>  <PUBCHEM_EFFECTIVE_ROTOR_COUNT>  (1) 
3.8

>  <PUBCHEM_PHARMACOPHORE_FEATURES>  (1) 
4
1 4 acceptor
1 5 acceptor
1 6 donor
5 1 2 7 8 9 rings

>  <PUBCHEM_HEAVY_ATOM_COUNT>  (1) 
11

>  <PUBCHEM_ATOM_DEF_STEREO_COUNT>  (1) 
0

>  <PUBCHEM_ATOM_UDEF_STEREO_COUNT>  (1) 
0

>  <PUBCHEM_BOND_DEF_STEREO_COUNT>  (1) 
0

>  <PUBCHEM_BOND_UDEF_STEREO_COUNT>  (1) 
1

>  <PUBCHEM_ISOTOPIC_ATOM_COUNT>  (1) 
0

>  <PUBCHEM_COMPONENT_COUNT>  (1) 
1

>  <PUBCHEM_CACTVS_TAUTO_COUNT>  (1) 
2

>  <PUBCHEM_CONFORMER_ID>  (1) 
0000A80400000001

>  <PUBCHEM_MMFF94_ENERGY>  (1) 
15.908

>  <PUBCHEM_FEATURE_SELFOVERLAP>  (1) 
20.312

>  <PUBCHEM_SHAPE_FINGERPRINT>  (1) 
12032990 46 18411704253414697182
12932764 1 17346587586680109196
14144814 61 18411981334423469304
14251717 144 18409728473821732462
14252887 29 18059585680204828534
14325111 11 18411136926773543628
15477762 27 18408605864060058358
177051 138 18413108346800765990
17834074 16 18408888451132982131
200 152 18201710765577871045
20201158 50 18334297565056126490
20279233 1 17894635867710923267
20645477 70 18412259506755459119
20711985 327 17095526192752781972
20871998 22 18198911314384377366
21501925 9 18408879638028460530
22485316 2 18343580763599713079
22959321 4 18410291372388559554
23402539 116 18261381287091822071
23402655 69 18411415094630743933
3248919 1 17240777171828819788
42 15 18411139125543520218
581208 293 18410291441070879094

>  <PUBCHEM_SHAPE_MULTIPOLES>  (1) 
212.37
7.86
1.44
0.63
4.74
0.08
0.02
1.18
0.63
-0.54
-0.07
-0.18
0.01
0.15

>  <PUBCHEM_SHAPE_SELFOVERLAP>  (1) 
392.248

>  <PUBCHEM_SHAPE_VOLUME>  (1) 
135.9

>  <PUBCHEM_COORDINATE_TYPE>  (1) 
2
5
10

$$$$
