4301
     RDKit          3D

 19 20  0  0  0  0  0  0  0  0999 V2000
    2.3398   -1.8729   -0.7076 O   0  0  0  0  0  0  0  0  0  0  0  0
    1.1369    1.9238   -0.4024 O   0  0  0  0  0  0  0  0  0  0  0  0
    0.5039   -0.2721    0.0904 N   0  0  0  0  0  0  0  0  0  0  0  0
   -5.7911    1.2070   -0.2282 N   0  0  0  0  0  0  0  0  0  0  0  0
   -5.8433   -1.0721    0.2852 N   0  0  0  0  0  0  0  0  0  0  0  0
   -0.8891   -0.2019    0.0783 C   0  0  0  0  0  0  0  0  0  0  0  0
    2.8438    0.3671   -0.0145 C   0  0  0  0  0  0  0  0  0  0  0  0
   -3.6752   -0.0622    0.0517 C   0  0  0  0  0  0  0  0  0  0  0  0
   -1.5241    1.0104   -0.1913 C   0  0  0  0  0  0  0  0  0  0  0  0
   -1.6472   -1.3444    0.3346 C   0  0  0  0  0  0  0  0  0  0  0  0
    1.4304    0.7604   -0.1430 C   0  0  0  0  0  0  0  0  0  0  0  0
   -2.9172    1.0803   -0.2045 C   0  0  0  0  0  0  0  0  0  0  0  0
   -3.0403   -1.2745    0.3213 C   0  0  0  0  0  0  0  0  0  0  0  0
    3.2376   -0.9308   -0.3022 C   0  0  0  0  0  0  0  0  0  0  0  0
    3.7620    1.3210    0.3989 C   0  0  0  0  0  0  0  0  0  0  0  0
    4.5809   -1.2836   -0.1735 C   0  0  0  0  0  0  0  0  0  0  0  0
    5.1052    0.9680    0.5276 C   0  0  0  0  0  0  0  0  0  0  0  0
    5.5147   -0.3342    0.2413 C   0  0  0  0  0  0  0  0  0  0  0  0
   -5.1277    0.0106    0.0378 C   0  0  0  0  0  0  0  0  0  0  0  0
  1 14  1  0
  2 11  2  0
  3  6  1  0
  3 11  1  0
  4 19  1  0
  5 19  2  0
  6  9  2  0
  6 10  1  0
  7 11  1  0
  7 14  2  0
  7 15  1  0
  8 12  2  0
  8 13  1  0
  8 19  1  0
  9 12  1  0
 10 13  2  0
 14 16  1  0
 15 17  2  0
 16 18  2  0
 17 18  1  0
M  END
>  <PUBCHEM_COMPOUND_CID>  (1) 
4301

>  <PUBCHEM_CONFORMER_RMSD>  (1) 
0.6

>  <PUBCHEM_CONFORMER_DIVERSEORDER>  (1) 
3
6
1
5
2
4

>  <PUBCHEM_MMFF94_PARTIAL_CHARGES>  (1) 
32
1 -0.53
10 -0.15
11 0.54
12 -0.15
13 -0.15
14 0.08
15 -0.15
16 -0.15
17 -0.15
18 -0.15
19 0.41
2 -0.57
20 0.37
21 0.15
22 0.15
23 0.15
24 0.15
25 0.15
26 0.15
27 0.15
28 0.15
29 0.45
3 -0.55
30 0.4
31 0.4
32 0.4
4 -0.85
5 -0.85
6 0.12
7 0.09
8 0.09
9 -0.15

>  <PUBCHEM_EFFECTIVE_ROTOR_COUNT>  (1) 
4

>  <PUBCHEM_PHARMACOPHORE_FEATURES>  (1) 
8
1 1 donor
1 2 acceptor
1 3 donor
1 4 donor
1 5 donor
3 4 5 19 cation
6 6 8 9 10 12 13 rings
6 7 14 15 16 17 18 rings

>  <PUBCHEM_HEAVY_ATOM_COUNT>  (1) 
19

>  <PUBCHEM_ATOM_DEF_STEREO_COUNT>  (1) 
0

>  <PUBCHEM_ATOM_UDEF_STEREO_COUNT>  (1) 
0

>  <PUBCHEM_BOND_DEF_STEREO_COUNT>  (1) 
0

>  <PUBCHEM_BOND_UDEF_STEREO_COUNT>  (1) 
0

>  <PUBCHEM_ISOTOPIC_ATOM_COUNT>  (1) 
0

>  <PUBCHEM_COMPONENT_COUNT>  (1) 
1

>  <PUBCHEM_CACTVS_TAUTO_COUNT>  (1) 
15

>  <PUBCHEM_CONFORMER_ID>  (1) 
000010CD00000003

>  <PUBCHEM_MMFF94_ENERGY>  (1) 
67.0721

>  <PUBCHEM_FEATURE_SELFOVERLAP>  (1) 
40.654

>  <PUBCHEM_SHAPE_FINGERPRINT>  (1) 
10 15 18337944701846284048
10366900 7 11815900071538767927
11287383 113 18410856576898845163
12107183 9 17480592550611299722
12236239 1 16917067754461476199
12516196 113 18131631196879057896
13533116 47 13973695988141627804
14341114 176 18411705395754717584
14386348 63 18408606959023576118
15042514 8 18190184671300207627
15196674 1 18410293618281584103
15375358 24 18410576197381673834
17834072 33 18130785685121609839
1813 80 17095525084761976564
18522853 276 18411982459578540632
19141452 34 18411418444742333335
19489759 90 17095239216381790101
200 152 17989204850136555315
20279233 1 18410300215546737482
20645477 56 18335417980590262853
20645477 70 18201441337868829462
21267235 1 18410864247979590934
21279426 13 18191865622324698005
22224240 67 17988633126224584730
23402539 116 18341888602493698525
23536379 177 18272933808673088187
23557571 272 17894629210690988836
23559900 14 18412541045961370384
239999 70 18343588426259381726
26918003 58 18342175574595907874
2871803 45 18335703806648425714
300161 21 17775278382862610886
3004659 81 18186803569801433612
33824 294 18412262814254803566
34934 24 18411414029405189550
351380 180 18411136943847787859
3545911 37 18412263947735331344
4073 2 18114185293278932858
4214541 1 18410575067647032385
42788 4 18411136943958583681
5104073 3 18411420583382541067
5374978 207 18342172272109013688
542803 24 15554449604218771561
59755656 215 18336548231199029054
69090 78 18413386548912443215
9709674 26 18335989777923379314
9971528 1 18333732429270326180

>  <PUBCHEM_SHAPE_MULTIPOLES>  (1) 
364.33
13.69
1.66
0.68
5.04
0.05
0.01
0.32
1.02
-0.39
-0.11
-0.16
0.02
0.73

>  <PUBCHEM_SHAPE_SELFOVERLAP>  (1) 
789.728

>  <PUBCHEM_SHAPE_VOLUME>  (1) 
197.3

>  <PUBCHEM_COORDINATE_TYPE>  (1) 
2
5
10

$$$$
