4302
     RDKit          3D

 17 18  0  0  0  0  0  0  0  0999 V2000
    2.3720    2.1137   -0.5397 O   0  0  0  0  0  0  0  0  0  0  0  0
   -2.5163   -2.2362   -0.6697 O   0  0  0  0  0  0  0  0  0  0  0  0
   -2.3437    2.1895    0.6909 O   0  0  0  0  0  0  0  0  0  0  0  0
    4.2228   -1.2292    0.9229 O   0  0  0  0  0  0  0  0  0  0  0  0
    4.5228    0.3893   -0.6445 O   0  0  0  0  0  0  0  0  0  0  0  0
   -1.9093   -0.0443    0.0127 N   0  0  0  0  0  0  0  0  0  0  0  0
   -0.4781   -0.1022    0.0194 C   0  0  0  0  0  0  0  0  0  0  0  0
    0.2676    1.0416   -0.2660 C   0  0  0  0  0  0  0  0  0  0  0  0
    0.1700   -1.3023    0.3116 C   0  0  0  0  0  0  0  0  0  0  0  0
    2.3093   -0.2149    0.0332 C   0  0  0  0  0  0  0  0  0  0  0  0
    1.6613    0.9852   -0.2590 C   0  0  0  0  0  0  0  0  0  0  0  0
   -2.7466   -1.0947   -0.3050 C   0  0  0  0  0  0  0  0  0  0  0  0
   -2.6620    1.0704    0.3232 C   0  0  0  0  0  0  0  0  0  0  0  0
    1.5636   -1.3588    0.3185 C   0  0  0  0  0  0  0  0  0  0  0  0
   -4.1234   -0.5952   -0.1771 C   0  0  0  0  0  0  0  0  0  0  0  0
   -4.0734    0.6837    0.1823 C   0  0  0  0  0  0  0  0  0  0  0  0
    3.7633   -0.2957    0.0463 C   0  0  0  0  0  0  0  0  0  0  0  0
  1 11  1  0
  2 12  2  0
  3 13  2  0
  4 17  1  0
  5 17  2  0
  6  7  1  0
  6 12  1  0
  6 13  1  0
  7  8  2  0
  7  9  1  0
  8 11  1  0
  9 14  2  0
 10 11  2  0
 10 14  1  0
 10 17  1  0
 12 15  1  0
 13 16  1  0
 15 16  2  0
M  END
>  <PUBCHEM_COMPOUND_CID>  (1) 
4302

>  <PUBCHEM_CONFORMER_RMSD>  (1) 
0.6

>  <PUBCHEM_CONFORMER_DIVERSEORDER>  (1) 
1
2
3

>  <PUBCHEM_MMFF94_PARTIAL_CHARGES>  (1) 
24
1 -0.53
10 0.09
11 0.08
12 0.62
13 0.62
14 -0.15
15 -0.14
16 -0.14
17 0.63
18 0.15
19 0.15
2 -0.57
20 0.15
21 0.15
22 0.15
23 0.45
24 0.5
3 -0.57
4 -0.65
5 -0.57
6 -0.24
7 0.12
8 -0.15
9 -0.15

>  <PUBCHEM_EFFECTIVE_ROTOR_COUNT>  (1) 
2.2

>  <PUBCHEM_PHARMACOPHORE_FEATURES>  (1) 
8
1 1 donor
1 2 acceptor
1 3 acceptor
1 4 acceptor
1 5 acceptor
3 4 5 17 anion
5 6 12 13 15 16 rings
6 7 8 9 10 11 14 rings

>  <PUBCHEM_HEAVY_ATOM_COUNT>  (1) 
17

>  <PUBCHEM_ATOM_DEF_STEREO_COUNT>  (1) 
0

>  <PUBCHEM_ATOM_UDEF_STEREO_COUNT>  (1) 
0

>  <PUBCHEM_BOND_DEF_STEREO_COUNT>  (1) 
0

>  <PUBCHEM_BOND_UDEF_STEREO_COUNT>  (1) 
0

>  <PUBCHEM_ISOTOPIC_ATOM_COUNT>  (1) 
0

>  <PUBCHEM_COMPONENT_COUNT>  (1) 
1

>  <PUBCHEM_CACTVS_TAUTO_COUNT>  (1) 
4

>  <PUBCHEM_CONFORMER_ID>  (1) 
000010CE00000001

>  <PUBCHEM_MMFF94_ENERGY>  (1) 
52.2284

>  <PUBCHEM_FEATURE_SELFOVERLAP>  (1) 
40.655

>  <PUBCHEM_SHAPE_FINGERPRINT>  (1) 
10062212 137 18410287021254418323
10616163 171 18342177808011251951
11132069 177 18411695465763799594
11471102 20 18260264144617930206
11806522 49 18408602586609705782
12251169 10 18410855434574642375
13221675 6 18408886217744505451
13760787 5 17821447946024102950
14144814 61 18410856521206656115
14965852 173 18412542136888078207
15196674 1 18408885143886416041
15375462 189 18114457873145991914
15442244 35 18337671914965647594
15536298 74 18341894147064550656
16945 1 18340775861817952927
17492 89 18411420656524565686
17802600 8 18410288103786578409
17804303 29 18272370884078111273
17862501 102 18409442579281281522
1813 80 17459476537918264406
18186145 218 18334852852877270212
18522853 276 18412261731300260569
19026448 4 17060617789756278738
19050596 39 18411420618037658305
19422 9 18410012177680579166
200 152 18412255151969318047
20279233 1 15626227931019792695
20281475 54 18335134272378309790
20510252 161 17916871197281685105
21267235 1 18410864282524121031
21501502 16 18338237183884845676
21634736 98 18266459986982022636
221490 88 18190467257829052250
2255824 54 18114183077212541900
23402539 116 18130779050098679821
23402655 69 18335419053994457509
23463225 33 18407759226984320628
23557571 272 17346609542553095457
23559900 14 18131350817614665368
474 4 17751083715767760284
5104073 3 18411139173189061985
7364860 26 18270398433554565752
8809292 202 18261114127220334891
90525 40 18201719552859841503
9709674 26 18341901791953753263
9981440 41 17470725976020465232

>  <PUBCHEM_SHAPE_MULTIPOLES>  (1) 
315.52
8.13
1.91
0.74
1.89
0.21
0.02
-0.38
0.03
-0.47
-0.03
0.12
-0.02
-1.01

>  <PUBCHEM_SHAPE_SELFOVERLAP>  (1) 
695.59

>  <PUBCHEM_SHAPE_VOLUME>  (1) 
167.9

>  <PUBCHEM_COORDINATE_TYPE>  (1) 
2
5
10

$$$$
