43025
     RDKit          3D

 22 24  0  0  0  0  0  0  0  0999 V2000
   -3.3066   -1.9117    0.2435 O   0  0  0  0  0  0  0  0  0  0  0  0
    0.2975    2.8485   -0.1733 O   0  0  0  0  0  0  0  0  0  0  0  0
   -5.4612   -2.7363    0.2368 O   0  0  0  0  0  0  0  0  0  0  0  0
    3.6475    0.3344    0.3752 N   0  0  0  0  0  0  0  0  0  0  0  0
    6.0913   -1.0148   -0.3775 N   0  0  0  0  0  0  0  0  0  0  0  0
   -5.0534   -0.4497   -0.0391 N   0  0  0  0  0  0  0  0  0  0  0  0
    3.6700   -0.6509   -0.7130 C   0  0  0  0  0  0  0  0  0  0  0  0
    4.9516    0.9980    0.4919 C   0  0  0  0  0  0  0  0  0  0  0  0
    4.7868   -1.6777   -0.4962 C   0  0  0  0  0  0  0  0  0  0  0  0
    6.0682   -0.0287    0.7100 C   0  0  0  0  0  0  0  0  0  0  0  0
    2.5833    1.3141    0.1663 C   0  0  0  0  0  0  0  0  0  0  0  0
    1.2102    0.6423    0.1603 C   0  0  0  0  0  0  0  0  0  0  0  0
    7.1546   -1.9951   -0.1669 C   0  0  0  0  0  0  0  0  0  0  0  0
    0.0833    1.6468   -0.0310 C   0  0  0  0  0  0  0  0  0  0  0  0
   -1.3248    1.1511   -0.0445 C   0  0  0  0  0  0  0  0  0  0  0  0
   -1.5426   -0.2012    0.1179 C   0  0  0  0  0  0  0  0  0  0  0  0
   -3.8930    0.2926   -0.0734 C   0  0  0  0  0  0  0  0  0  0  0  0
   -2.8604   -0.6065    0.0987 C   0  0  0  0  0  0  0  0  0  0  0  0
   -2.3457    2.0787   -0.2201 C   0  0  0  0  0  0  0  0  0  0  0  0
   -3.6738    1.6444   -0.2365 C   0  0  0  0  0  0  0  0  0  0  0  0
   -4.7043   -1.7769    0.1514 C   0  0  0  0  0  0  0  0  0  0  0  0
   -6.3785    0.0987   -0.1805 C   0  0  0  0  0  0  0  0  0  0  0  0
  1 18  1  0
  1 21  1  0
  2 14  2  0
  3 21  2  0
  4  7  1  0
  4  8  1  0
  4 11  1  0
  5  9  1  0
  5 10  1  0
  5 13  1  0
  6 17  1  0
  6 21  1  0
  6 22  1  0
  7  9  1  0
  8 10  1  0
 11 12  1  0
 12 14  1  0
 14 15  1  0
 15 16  1  0
 15 19  2  0
 16 18  2  0
 17 18  1  0
 17 20  2  0
 19 20  1  0
M  END
>  <PUBCHEM_COMPOUND_CID>  (1) 
43025

>  <PUBCHEM_CONFORMER_RMSD>  (1) 
0.8

>  <PUBCHEM_CONFORMER_DIVERSEORDER>  (1) 
1
76
45
62
15
23
33
46
49
5
77
26
44
25
8
61
19
35
78
38
53
13
58
48
32
65
18
16
24
41
29
31
54
82
22
69
47
75
80
72
12
52
30
79
17
51
34
36
50
56
71
63
4
21
60
10
81
11
68
14
57
83
64
43
59
6
67
66
70
9
42
27
73
39
3
2
7
37
20
74
55
28
40

>  <PUBCHEM_MMFF94_PARTIAL_CHARGES>  (1) 
25
1 -0.23
10 0.27
11 0.27
12 0.06
13 0.27
14 0.42
15 0.09
16 -0.15
17 0.12
18 0.08
19 -0.15
2 -0.57
20 -0.15
21 0.78
22 0.3
3 -0.57
38 0.15
39 0.15
4 -0.81
40 0.15
5 -0.81
6 -0.48
7 0.27
8 0.27
9 0.27

>  <PUBCHEM_EFFECTIVE_ROTOR_COUNT>  (1) 
5.2

>  <PUBCHEM_PHARMACOPHORE_FEATURES>  (1) 
7
1 2 acceptor
1 3 acceptor
1 4 cation
1 5 cation
5 1 6 17 18 21 rings
6 15 16 17 18 19 20 rings
6 4 5 7 8 9 10 rings

>  <PUBCHEM_HEAVY_ATOM_COUNT>  (1) 
22

>  <PUBCHEM_ATOM_DEF_STEREO_COUNT>  (1) 
0

>  <PUBCHEM_ATOM_UDEF_STEREO_COUNT>  (1) 
0

>  <PUBCHEM_BOND_DEF_STEREO_COUNT>  (1) 
0

>  <PUBCHEM_BOND_UDEF_STEREO_COUNT>  (1) 
0

>  <PUBCHEM_ISOTOPIC_ATOM_COUNT>  (1) 
0

>  <PUBCHEM_COMPONENT_COUNT>  (1) 
1

>  <PUBCHEM_CACTVS_TAUTO_COUNT>  (1) 
2

>  <PUBCHEM_CONFORMER_ID>  (1) 
0000A81100000001

>  <PUBCHEM_MMFF94_ENERGY>  (1) 
56.7183

>  <PUBCHEM_FEATURE_SELFOVERLAP>  (1) 
35.638

>  <PUBCHEM_SHAPE_FINGERPRINT>  (1) 
10 15 10952043468230068414
10835480 77 18341039770690601248
11315181 36 18412266142221371073
11524674 6 17060617802330296039
12166972 35 17748549247181730036
12516196 113 18273494585114978056
12596602 18 14836111187377330782
12633257 1 15626216940272555860
12760667 363 18342737416869798773
13288520 33 18409448090104292661
13402501 40 18413672409267209798
13685833 64 18411420617700093624
13740256 8 18411420613716661364
14251751 18 18411420630769689846
14251752 14 17530954761941468973
14420673 8 18410859841432842115
14461889 52 18339071701464967840
14556957 393 15647347269168269206
14848160 23 18413386532080376276
15183329 4 18334011666300043874
15196674 1 18411419510036452460
15352361 1 18410856568461956188
17492 89 18121220050652251187
17627616 140 17895465908864932923
17780758 139 17917434198574189001
17844677 252 18412831265908525768
17857418 61 18410292518769969326
1813 80 17749106703703538436
18222031 100 17821447950630508164
19784866 240 18409735066448955673
20374829 77 18407758140231098112
20403669 9 18342181054900435078
21054139 6 18040152899464715698
21130935 74 18272652393393714955
21267235 1 18334862723107800713
21623969 137 17704354351628558174
23035841 295 18335701619898045112
23198884 109 14996283604663132757
23424784 1240 18201449025934473766
23522609 53 18122941769159506721
23559900 14 18338791333930903697
239999 70 18342176653524294438
25122255 55 18412553097834723142
3004659 81 18113618989208896628
335352 9 18408884041140397349
3421961 26 18270398412137875176
4073 2 18261115196851613234
4214541 1 18411136905156633152
4325135 7 18333734646074844252
465052 167 18273500087463495372
5104073 3 18202279165924218160
559249 180 18336826399187785869
5718773 13 18268988868607203695
59682541 35 18130493186261589434
59682541 52 13623797299254567186
59755656 215 18334573508178360655
6138700 20 18408604742884138227
7970288 3 18266456697201454879
8863177 126 18343581871864883682
9709674 26 18262803006833795697
999808 66 17895770577255118971

>  <PUBCHEM_SHAPE_MULTIPOLES>  (1) 
420.2
17.89
2.54
0.69
14.21
0.24
0.01
11.28
-0.14
-1.28
0.06
0.37
0.02
1.06

>  <PUBCHEM_SHAPE_SELFOVERLAP>  (1) 
894.016

>  <PUBCHEM_SHAPE_VOLUME>  (1) 
236.5

>  <PUBCHEM_COORDINATE_TYPE>  (1) 
2
5
10

$$$$
