43037
     RDKit          3D

 15 16  0  0  1  0  0  0  0  0999 V2000
   -0.6475    1.5308    0.5641 O   0  0  0  0  0  0  0  0  0  0  0  0
    3.9732    0.5837    0.0965 O   0  0  0  0  0  0  0  0  0  0  0  0
   -4.7933   -1.0377    0.1391 N   0  0  0  0  0  0  0  0  0  0  0  0
   -2.0009    1.2138    0.1787 C   0  0  0  0  0  0  0  0  0  0  0  0
    0.0282   -0.7287   -0.0137 C   0  0  0  0  0  0  0  0  0  0  0  0
    0.3189    0.6068    0.2750 C   0  0  0  0  0  0  0  0  0  0  0  0
   -2.3262   -0.2620    0.0877 C   0  0  0  0  0  0  0  0  0  0  0  0
   -1.3562   -1.1807   -0.0050 C   0  0  0  0  0  0  0  0  0  0  0  0
   -2.2959    1.9426   -1.1333 C   0  0  0  0  0  0  0  0  0  0  0  0
    1.6434    1.0469    0.3206 C   0  0  0  0  0  0  0  0  0  0  0  0
    1.0755   -1.6208   -0.2696 C   0  0  0  0  0  0  0  0  0  0  0  0
    2.6822    0.1548    0.0586 C   0  0  0  0  0  0  0  0  0  0  0  0
    2.3987   -1.1773   -0.2378 C   0  0  0  0  0  0  0  0  0  0  0  0
   -3.6869   -0.6897    0.1160 C   0  0  0  0  0  0  0  0  0  0  0  0
    4.9868   -0.3826   -0.1769 C   0  0  0  0  0  0  0  0  0  0  0  0
  1  4  1  0
  1  6  1  0
  2 12  1  0
  2 15  1  0
  3 14  3  0
  4  7  1  0
  4  9  1  0
  5  6  2  0
  5  8  1  0
  5 11  1  0
  6 10  1  0
  7  8  2  0
  7 14  1  0
 10 12  2  0
 11 13  2  0
 12 13  1  0
M  END
>  <PUBCHEM_COMPOUND_CID>  (1) 
43037

>  <PUBCHEM_CONFORMER_RMSD>  (1) 
0.6

>  <PUBCHEM_CONFORMER_DIVERSEORDER>  (1) 
2
1

>  <PUBCHEM_MMFF94_PARTIAL_CHARGES>  (1) 
18
1 -0.36
10 -0.15
11 -0.15
12 0.08
13 -0.15
14 0.49
15 0.28
17 0.15
2 -0.36
21 0.15
22 0.15
23 0.15
3 -0.56
4 0.42
5 0.03
6 0.08
7 -0.07
8 -0.18

>  <PUBCHEM_EFFECTIVE_ROTOR_COUNT>  (1) 
1.4

>  <PUBCHEM_PHARMACOPHORE_FEATURES>  (1) 
5
1 1 acceptor
1 2 acceptor
1 3 acceptor
6 1 4 5 6 7 8 rings
6 5 6 10 11 12 13 rings

>  <PUBCHEM_HEAVY_ATOM_COUNT>  (1) 
15

>  <PUBCHEM_ATOM_DEF_STEREO_COUNT>  (1) 
0

>  <PUBCHEM_ATOM_UDEF_STEREO_COUNT>  (1) 
1

>  <PUBCHEM_BOND_DEF_STEREO_COUNT>  (1) 
0

>  <PUBCHEM_BOND_UDEF_STEREO_COUNT>  (1) 
0

>  <PUBCHEM_ISOTOPIC_ATOM_COUNT>  (1) 
0

>  <PUBCHEM_COMPONENT_COUNT>  (1) 
1

>  <PUBCHEM_CACTVS_TAUTO_COUNT>  (1) 
1

>  <PUBCHEM_CONFORMER_ID>  (1) 
0000A81D00000002

>  <PUBCHEM_MMFF94_ENERGY>  (1) 
46.8993

>  <PUBCHEM_FEATURE_SELFOVERLAP>  (1) 
25.402

>  <PUBCHEM_SHAPE_FINGERPRINT>  (1) 
10608611 8 18410569552930207780
11132069 177 18271239538163416835
11471102 20 18342174496480073015
12032990 46 18341898497486431506
12403259 415 18343294877829070992
12932764 1 14979666642140015610
13380535 76 18411703196810986026
13690532 89 18411138039375749722
13862211 1 18341608243644514798
14115302 16 17968949702595812510
14325111 11 18411418371775154040
15196674 1 18340488872345957218
15219456 202 18341332180294455031
16945 1 18339066181303025819
17802600 8 18410290328495033844
17844478 74 18334580144292748865
18186145 218 18268435637821063230
18522853 276 18343584048880306120
187816 3 17385722526107855155
200 152 17989200447953293527
20201158 50 18411420626495996883
20510252 161 18272090461373767201
20588541 1 18339365270310116443
21267235 1 18341060678258497574
21501502 16 18265614286330656507
23402539 116 18187920707690396279
23402655 69 18271235020332594781
23557571 272 18335425629594753557
23559900 14 17980473469777681330
2748010 2 18268991994577698487
2871803 45 18408037407774168063
3312278 4 18342458084464804873
5104073 3 18340768135356560578
69090 78 18131348647997129262
7364860 26 18197780105750646960
8809292 202 18262802989659617107

>  <PUBCHEM_SHAPE_MULTIPOLES>  (1) 
291.97
7.71
1.73
0.73
2.5
0.31
-0.09
-1.37
-0.24
-0.84
-0.21
-0.17
0.18
0.51

>  <PUBCHEM_SHAPE_SELFOVERLAP>  (1) 
626.081

>  <PUBCHEM_SHAPE_VOLUME>  (1) 
160.3

>  <PUBCHEM_COORDINATE_TYPE>  (1) 
2
5
10

$$$$
