43036
     RDKit          3D

 21 22  0  0  1  0  0  0  0  0999 V2000
    1.6787    1.6729    1.4047 O   0  0  0  0  0  0  0  0  0  0  0  0
    2.0582    0.5570   -0.6251 N   0  0  0  0  0  0  0  0  0  0  0  0
   -4.6638   -2.0697    0.2497 C   0  0  0  0  0  0  0  0  0  0  0  0
   -4.7941   -0.5463    0.0556 C   0  0  0  0  0  0  0  0  0  0  0  0
   -3.4713    0.1657   -0.0898 C   0  0  0  0  0  0  0  0  0  0  0  0
    0.2641    2.1790   -0.5008 C   0  0  0  0  0  0  0  0  0  0  0  0
   -1.0427    1.4747   -0.3568 C   0  0  0  0  0  0  0  0  0  0  0  0
   -2.8290    0.6433    1.0416 C   0  0  0  0  0  0  0  0  0  0  0  0
   -2.9230    0.3298   -1.3521 C   0  0  0  0  0  0  0  0  0  0  0  0
   -3.8770   -2.7278   -0.8867 C   0  0  0  0  0  0  0  0  0  0  0  0
   -3.9811   -2.3651    1.5874 C   0  0  0  0  0  0  0  0  0  0  0  0
   -1.6069    1.3022    0.9072 C   0  0  0  0  0  0  0  0  0  0  0  0
   -1.7008    0.9886   -1.4865 C   0  0  0  0  0  0  0  0  0  0  0  0
    0.1922    3.6400   -0.0167 C   0  0  0  0  0  0  0  0  0  0  0  0
    1.4081    1.4444    0.2291 C   0  0  0  0  0  0  0  0  0  0  0  0
    3.1504   -0.2900   -0.3218 C   0  0  0  0  0  0  0  0  0  0  0  0
    3.6700   -1.1067   -1.3126 C   0  0  0  0  0  0  0  0  0  0  0  0
    3.6775   -0.2842    0.9591 C   0  0  0  0  0  0  0  0  0  0  0  0
    4.7469   -1.9414   -1.0140 C   0  0  0  0  0  0  0  0  0  0  0  0
    4.7545   -1.1189    1.2576 C   0  0  0  0  0  0  0  0  0  0  0  0
    5.2891   -1.9475    0.2709 C   0  0  0  0  0  0  0  0  0  0  0  0
  1 15  2  0
  2 15  1  0
  2 16  1  0
  3  4  1  0
  3 10  1  0
  3 11  1  0
  4  5  1  0
  5  8  2  0
  5  9  1  0
  6  7  1  0
  6 14  1  0
  6 15  1  0
  7 12  2  0
  7 13  1  0
  8 12  1  0
  9 13  2  0
 16 17  2  0
 16 18  1  0
 17 19  1  0
 18 20  2  0
 19 21  2  0
 20 21  1  0
M  END
>  <PUBCHEM_COMPOUND_CID>  (1) 
43036

>  <PUBCHEM_CONFORMER_RMSD>  (1) 
0.8

>  <PUBCHEM_CONFORMER_DIVERSEORDER>  (1) 
2
16
10
1
15
6
18
5
20
19
8
17
7
11
21
23
14
12
4
22
13
9
3

>  <PUBCHEM_MMFF94_PARTIAL_CHARGES>  (1) 
27
1 -0.57
12 -0.15
13 -0.15
15 0.57
16 0.12
17 -0.15
18 -0.15
19 -0.15
2 -0.55
20 -0.15
21 -0.15
26 0.15
27 0.15
34 0.15
35 0.15
39 0.37
4 0.14
40 0.15
41 0.15
42 0.15
43 0.15
44 0.15
5 -0.14
6 0.2
7 -0.14
8 -0.15
9 -0.15

>  <PUBCHEM_EFFECTIVE_ROTOR_COUNT>  (1) 
6

>  <PUBCHEM_PHARMACOPHORE_FEATURES>  (1) 
6
1 1 acceptor
1 14 hydrophobe
1 2 donor
3 3 10 11 hydrophobe
6 16 17 18 19 20 21 rings
6 5 7 8 9 12 13 rings

>  <PUBCHEM_HEAVY_ATOM_COUNT>  (1) 
21

>  <PUBCHEM_ATOM_DEF_STEREO_COUNT>  (1) 
0

>  <PUBCHEM_ATOM_UDEF_STEREO_COUNT>  (1) 
1

>  <PUBCHEM_BOND_DEF_STEREO_COUNT>  (1) 
0

>  <PUBCHEM_BOND_UDEF_STEREO_COUNT>  (1) 
0

>  <PUBCHEM_ISOTOPIC_ATOM_COUNT>  (1) 
0

>  <PUBCHEM_COMPONENT_COUNT>  (1) 
1

>  <PUBCHEM_CACTVS_TAUTO_COUNT>  (1) 
2

>  <PUBCHEM_CONFORMER_ID>  (1) 
0000A81C00000002

>  <PUBCHEM_MMFF94_ENERGY>  (1) 
59.122

>  <PUBCHEM_FEATURE_SELFOVERLAP>  (1) 
30.446

>  <PUBCHEM_SHAPE_FINGERPRINT>  (1) 
10928967 22 18335142002829540578
10968037 57 18408606976641275787
11370993 144 16629402420344808052
11796584 16 18189045422017206678
12363563 72 18409454669645926524
12596602 18 15051725400320257679
12633257 1 17702964637503059911
12769317 202 7853582274812516806
12892183 10 16988847137856217456
13103583 49 18059591164999112393
13533116 47 18123191466595405483
14123255 352 10303816466737502115
1420 369 18412826884582525558
14251751 18 18187077360459419318
14251764 30 17845673468744881398
14341114 328 14979948194732105730
14347329 18 10015578433144768566
14848178 5 18411415124500563207
14848178 96 9150905969957826335
14866123 147 18266463097124264745
14950920 106 16343980316870640858
15163728 17 9439409055110478768
15352361 1 18410293609697236070
15475509 35 17554327304458318331
15510800 12 18044091491554470459
15537594 2 18114472149496179067
17492 89 18193841672669855291
17780758 139 18060135392926346202
17859628 70 18049730920851864209
1813 80 18411987931736537348
193927 3 18342183262413365610
20403669 9 18409450293111532519
20693207 138 17967807301667075405
21401589 2 10879993579748825415
22620623 9 17241031129367089621
235170 7 14490192708707439659
23559900 14 18338510950065634329
270888 7 9727634998861670547
27216 239 11239702102757203181
2838139 119 7997701865314441771
3421961 26 18340768255378598464
38570 142 14691427634095699994
4028521 119 11602827882298104238
44062 13 18259700095474803583
463206 1 18114180839171188635
474 4 10447938273510714465
5104073 3 18202567275923911089
5486654 36 18342468006018483545
559249 180 18337390449116831289
56633871 153 18131355211103258151
7970288 3 18337392643339548762
9709674 26 18117557555813041059

>  <PUBCHEM_SHAPE_MULTIPOLES>  (1) 
421.32
11.75
3.32
1.43
5.34
0.76
0.04
-12.11
0.84
-1.11
0.09
0
-0.3
0.73

>  <PUBCHEM_SHAPE_SELFOVERLAP>  (1) 
883.161

>  <PUBCHEM_SHAPE_VOLUME>  (1) 
237.3

>  <PUBCHEM_COORDINATE_TYPE>  (1) 
2
5
10

$$$$
