43038
     RDKit          3D

 24 27  0  0  1  0  0  0  0  0999 V2000
    0.5926    0.1495    1.5956 O   0  0  0  0  0  0  0  0  0  0  0  0
   -2.9169   -2.2780   -1.4568 O   0  0  0  0  0  0  0  0  0  0  0  0
   -4.9327   -1.8285   -0.2150 O   0  0  0  0  0  0  0  0  0  0  0  0
    5.3724   -1.0459   -0.8957 O   0  0  0  0  0  0  0  0  0  0  0  0
   -0.5245    3.2155   -1.8284 O   0  0  0  0  0  0  0  0  0  0  0  0
   -1.3574    3.5105    0.1891 O   0  0  0  0  0  0  0  0  0  0  0  0
   -0.6236    2.9353   -0.6261 N   0  0  0  0  0  0  0  0  0  0  0  0
   -0.3390    1.1100    1.0439 C   0  0  0  0  0  0  0  0  0  0  0  0
   -1.5850    0.3431    0.7340 C   0  0  0  0  0  0  0  0  0  0  0  0
    0.1737    1.8619   -0.1400 C   0  0  0  0  0  0  0  0  0  0  0  0
    2.1680    0.6019   -0.2204 C   0  0  0  0  0  0  0  0  0  0  0  0
    1.7635   -0.0948    0.9260 C   0  0  0  0  0  0  0  0  0  0  0  0
    1.3329    1.6664   -0.7625 C   0  0  0  0  0  0  0  0  0  0  0  0
   -1.5677   -0.6249   -0.2706 C   0  0  0  0  0  0  0  0  0  0  0  0
   -2.7584    0.6070    1.4590 C   0  0  0  0  0  0  0  0  0  0  0  0
   -2.7413   -1.3062   -0.5202 C   0  0  0  0  0  0  0  0  0  0  0  0
   -3.8925   -1.0495    0.1887 C   0  0  0  0  0  0  0  0  0  0  0  0
   -3.9335   -0.0974    1.1864 C   0  0  0  0  0  0  0  0  0  0  0  0
    3.3862    0.2766   -0.8289 C   0  0  0  0  0  0  0  0  0  0  0  0
    2.5726   -1.1036    1.4557 C   0  0  0  0  0  0  0  0  0  0  0  0
    4.1894   -0.7342   -0.2985 C   0  0  0  0  0  0  0  0  0  0  0  0
    3.7832   -1.4231    0.8426 C   0  0  0  0  0  0  0  0  0  0  0  0
   -4.3075   -2.6047   -1.2572 C   0  0  0  0  0  0  0  0  0  0  0  0
    6.1453   -2.0870   -0.3008 C   0  0  0  0  0  0  0  0  0  0  0  0
  1  8  1  0
  1 12  1  0
  2 16  1  0
  2 23  1  0
  3 17  1  0
  3 23  1  0
  4 21  1  0
  4 24  1  0
  5  7  1  0
  6  7  2  0
  7 10  1  0
  8  9  1  0
  8 10  1  0
  9 14  1  0
  9 15  2  0
 10 13  2  0
 11 12  2  0
 11 13  1  0
 11 19  1  0
 12 20  1  0
 14 16  2  0
 15 18  1  0
 16 17  1  0
 17 18  2  0
 19 21  2  0
 20 22  2  0
 21 22  1  0
M  CHG  2   5  -1   7   1
M  END
>  <PUBCHEM_COMPOUND_CID>  (1) 
43038

>  <PUBCHEM_CONFORMER_RMSD>  (1) 
0.8

>  <PUBCHEM_CONFORMER_DIVERSEORDER>  (1) 
3
2
7
5
6
4
8
1

>  <PUBCHEM_MMFF94_PARTIAL_CHARGES>  (1) 
31
1 -0.36
10 0.07
11 0.03
12 0.08
13 -0.18
14 -0.15
15 -0.15
16 0.08
17 0.08
18 -0.15
19 -0.15
2 -0.36
20 -0.15
21 0.08
22 -0.15
23 0.56
24 0.28
26 0.15
27 0.15
28 0.15
29 0.15
3 -0.36
30 0.15
31 0.15
32 0.15
4 -0.36
5 -0.52
6 -0.52
7 0.84
8 0.56
9 -0.14

>  <PUBCHEM_EFFECTIVE_ROTOR_COUNT>  (1) 
4

>  <PUBCHEM_PHARMACOPHORE_FEATURES>  (1) 
11
1 1 acceptor
1 2 acceptor
1 3 acceptor
1 4 acceptor
1 5 acceptor
1 5 anion
1 6 acceptor
5 2 3 16 17 23 rings
6 1 8 10 11 12 13 rings
6 11 12 19 20 21 22 rings
6 9 14 15 16 17 18 rings

>  <PUBCHEM_HEAVY_ATOM_COUNT>  (1) 
24

>  <PUBCHEM_ATOM_DEF_STEREO_COUNT>  (1) 
0

>  <PUBCHEM_ATOM_UDEF_STEREO_COUNT>  (1) 
1

>  <PUBCHEM_BOND_DEF_STEREO_COUNT>  (1) 
0

>  <PUBCHEM_BOND_UDEF_STEREO_COUNT>  (1) 
0

>  <PUBCHEM_ISOTOPIC_ATOM_COUNT>  (1) 
0

>  <PUBCHEM_COMPONENT_COUNT>  (1) 
1

>  <PUBCHEM_CACTVS_TAUTO_COUNT>  (1) 
1

>  <PUBCHEM_CONFORMER_ID>  (1) 
0000A81E00000003

>  <PUBCHEM_MMFF94_ENERGY>  (1) 
83.8054

>  <PUBCHEM_FEATURE_SELFOVERLAP>  (1) 
56.09

>  <PUBCHEM_SHAPE_FINGERPRINT>  (1) 
10042902 136 18131069385081719494
11046707 91 18272934907841999922
11069576 57 17122796499214997959
11552529 35 18201156525565210920
11578080 2 18270942622917233209
12236239 1 18412834593953753226
12553582 1 18260545627873612362
12633257 1 14836122220816206207
12714826 92 18270113505334082304
12788726 201 18043806494366576945
13009979 54 18200888369350377681
13083527 12 18191564528085578968
13149001 5 17532941729502363843
13583140 156 15625938690636832730
13911987 19 17168444730550424050
14251757 17 15068617210120831031
14251764 38 9436085189080803755
14556957 393 17459491999710204140
14910302 57 17915478094648251278
17357779 13 17603586339524576932
17492 89 18054224607985515583
1813 80 18410008870576756167
18222031 100 18339916108155173579
19141452 34 18200884976110052641
19784866 140 17967255278063001946
200 152 17894918403929450426
20291156 8 18411417349435748579
20626108 58 18200589336389410351
22112679 90 18341065085158746105
22620623 9 18264763277247542140
23402539 116 18186809041357699290
23559900 14 16916527911659369884
23598288 3 17898847946417240504
23598291 2 18339933722116598369
25222932 49 15832248093794578415
351380 3 18410578387651821898
397830 11 18058711526645548810
4409770 3 18194117422191682813
46194498 28 17315627663325621247
5104073 3 17274268373806144307
559249 180 18271810090736661075
6786 2 17476360500761093293
70251023 43 18335139804195746040
7471813 234 18261115184035432444
7970288 3 18411699923714136318

>  <PUBCHEM_SHAPE_MULTIPOLES>  (1) 
453.71
10.24
3.13
1.45
7.19
2
0.07
-10.5
-1.46
-1.76
-1.52
-0.39
0.08
-1.26

>  <PUBCHEM_SHAPE_SELFOVERLAP>  (1) 
1018.79

>  <PUBCHEM_SHAPE_VOLUME>  (1) 
239.7

>  <PUBCHEM_COORDINATE_TYPE>  (1) 
2
5
10

$$$$
