43046
     RDKit          3D

 17 17  0  0  0  0  0  0  0  0999 V2000
    1.3936   -0.9335   -0.6372 O   0  0  0  0  0  0  0  0  0  0  0  0
    0.6055    0.8454    0.6597 O   0  0  0  0  0  0  0  0  0  0  0  0
   -4.6488    0.3197    0.3296 C   0  0  0  0  0  0  0  0  0  0  0  0
   -3.4649   -0.4875   -0.2121 C   0  0  0  0  0  0  0  0  0  0  0  0
   -6.0093   -0.2119   -0.1263 C   0  0  0  0  0  0  0  0  0  0  0  0
   -2.1023    0.0910    0.1844 C   0  0  0  0  0  0  0  0  0  0  0  0
   -7.1478    0.6736    0.3829 C   0  0  0  0  0  0  0  0  0  0  0  0
   -0.9394   -0.6944   -0.4236 C   0  0  0  0  0  0  0  0  0  0  0  0
   -8.5005    0.1730   -0.0978 C   0  0  0  0  0  0  0  0  0  0  0  0
    0.4160   -0.1306   -0.0535 C   0  0  0  0  0  0  0  0  0  0  0  0
    2.6920   -0.5004   -0.3579 C   0  0  0  0  0  0  0  0  0  0  0  0
    3.3253   -0.9905    0.7627 C   0  0  0  0  0  0  0  0  0  0  0  0
    3.2880    0.4003   -1.2124 C   0  0  0  0  0  0  0  0  0  0  0  0
    5.2507    0.3540    0.1957 C   0  0  0  0  0  0  0  0  0  0  0  0
    4.6213   -0.5578    1.0431 C   0  0  0  0  0  0  0  0  0  0  0  0
    4.5840    0.8331   -0.9321 C   0  0  0  0  0  0  0  0  0  0  0  0
    6.6366    0.8162    0.4946 C   0  0  0  0  0  0  0  0  0  0  0  0
  1 10  1  0
  1 11  1  0
  2 10  2  0
  3  4  1  0
  3  5  1  0
  4  6  1  0
  5  7  1  0
  6  8  1  0
  7  9  1  0
  8 10  1  0
 11 12  2  0
 11 13  1  0
 12 15  1  0
 13 16  2  0
 14 15  2  0
 14 16  1  0
 14 17  1  0
M  END
>  <PUBCHEM_COMPOUND_CID>  (1) 
43046

>  <PUBCHEM_CONFORMER_RMSD>  (1) 
0.8

>  <PUBCHEM_CONFORMER_DIVERSEORDER>  (1) 
1
166
328
133
251
239
369
427
346
51
164
186
60
336
63
303
414
113
196
114
388
361
389
363
25
403
55
260
203
383
381
400
29
182
7
325
173
411
327
36
359
191
19
77
452
421
448
409
238
364
298
177
188
434
326
154
16
352
158
148
97
243
5
340
46
428
137
144
240
12
441
115
422
79
460
93
149
131
67
324
257
24
322
14
424
42
456
406
3
367
56
54
190
92
107
101
48
105
416
284
116
426
371
222
297
120
320
366
32
450
28
255
2
449
6
313
160
382
305
98
350
378
59
295
209
358
23
293
57
81
35
420
223
193
337
167
21
341
100
143
156
306
344
111
124
11
294
370
145
442
277
178
244
58
398
74
52
332
318
180
195
300
40
425
172
30
43
280
175
206
108
430
219
408
141
49
246
247
220
391
253
129
276
263
204
44
199
10
249
265
31
39
37
150
314
83
333
121
130
343
118
176
134
311
210
96
198
458
112
208
296
142
70
302
237
78
94
273
103
91
18
201
317
80
316
286
161
95
69
90
216
270
110
386
432
125
282
362
66
71
4
185
102
285
17
211
288
128
444
259
86
126
278
392
189
353
165
445
357
436
8
431
455
299
338
308
152
374
151
365
76
20
415
174
22
334
65
234
34
26
290
225
61
202
335
405
419
417
221
435
117
375
292
214
379
87
122
437
241
184
104
440
231
291
132
183
68
402
226
82
236
207
399
27
45
230
119
287
348
139
169
429
397
413
385
64
163
73
360
387
75
315
123
232
264
254
162
272
229
394
312
283
155
266
268
135
217
127
281
377
72
85
354
307
349
153
301
274
261
62
356
215
271
33
224
88
159
41
433
50
187
242
213
171
438
423
168
459
390
181
228
439
233
404
9
194
248
330
200
212
179
279
410
368
446
170
395
351
310
38
197
250
412
147
396
457
454
136
218
256
262
84
192
227
309
47
140
15
376
355
99
418
401
289
109
384
453
304
372
321
267
339
373
331
447
407
138
380
319
252
106
329
345
323
89
245
205
275
443
342
347
13
258
393
53
235
157
451
146
269

>  <PUBCHEM_MMFF94_PARTIAL_CHARGES>  (1) 
15
1 -0.23
10 0.66
11 0.08
12 -0.15
13 -0.15
14 -0.14
15 -0.15
16 -0.15
17 0.14
2 -0.57
33 0.15
34 0.15
35 0.15
36 0.15
8 0.06

>  <PUBCHEM_EFFECTIVE_ROTOR_COUNT>  (1) 
8

>  <PUBCHEM_PHARMACOPHORE_FEATURES>  (1) 
5
1 2 acceptor
1 9 hydrophobe
3 3 5 7 hydrophobe
3 4 6 8 hydrophobe
6 11 12 13 14 15 16 rings

>  <PUBCHEM_HEAVY_ATOM_COUNT>  (1) 
17

>  <PUBCHEM_ATOM_DEF_STEREO_COUNT>  (1) 
0

>  <PUBCHEM_ATOM_UDEF_STEREO_COUNT>  (1) 
0

>  <PUBCHEM_BOND_DEF_STEREO_COUNT>  (1) 
0

>  <PUBCHEM_BOND_UDEF_STEREO_COUNT>  (1) 
0

>  <PUBCHEM_ISOTOPIC_ATOM_COUNT>  (1) 
0

>  <PUBCHEM_COMPONENT_COUNT>  (1) 
1

>  <PUBCHEM_CACTVS_TAUTO_COUNT>  (1) 
1

>  <PUBCHEM_CONFORMER_ID>  (1) 
0000A82600000001

>  <PUBCHEM_MMFF94_ENERGY>  (1) 
27.5465

>  <PUBCHEM_FEATURE_SELFOVERLAP>  (1) 
25.385

>  <PUBCHEM_SHAPE_FINGERPRINT>  (1) 
10354089 29 18040435495311449492
10968037 39 16988843883093679853
11315181 36 16988846091055146867
11524674 6 13407082501059014025
125118 31 17458346317237301781
12730499 353 15554450712789995158
12916748 109 15863787279356057775
13073987 5 17531518776909635869
13167372 99 17967813800074212557
13533116 47 17894625916456432026
13668630 136 9367349244906589905
14123256 10 16200432468335904545
1420 363 13767927918936868115
14251764 18 18407759249071021863
14251764 46 17131833166382254326
14729087 3 18335417938358216189
14933364 13 14549022070410071067
15048467 5 18342458153294895301
15348495 7 15719971227616419393
17834076 25 17346598573222166211
20281389 69 18261110760356254309
20735858 18 15647050469120173112
21130983 4 18202003235380832417
21150785 3 15482671286419317089
21267235 1 11169910576451084967
221357 26 13973968692542107082
22224240 67 18040996258931767243
23035841 295 8142083161590896321
23402539 116 17167858698967883463
23521765 1 18341894091493401587
23536379 177 17530964670636599569
246663 6 11530478913452621504
26918003 58 16805324409685453288
28498 318 11241962681858243481
300161 21 18411135844505296527
33532 11 11602812501852094544
33684 2 15267062540595393806
34797466 226 16200435783766216728
3545911 37 15482670186786259631
4325135 7 18412263934565813901
4340502 62 17385724694523352218
465052 167 9079113371375950872
8209 1 16128656353833391977

>  <PUBCHEM_SHAPE_MULTIPOLES>  (1) 
338.11
21.5
0.97
0.93
35.74
0.01
0.01
-2.42
4.74
-1.3
-0.04
-0.29
-0.02
-0.31

>  <PUBCHEM_SHAPE_SELFOVERLAP>  (1) 
669.922

>  <PUBCHEM_SHAPE_VOLUME>  (1) 
201.7

>  <PUBCHEM_COORDINATE_TYPE>  (1) 
2
5
10

$$$$
