43043
     RDKit          3D

 18 18  0  0  1  0  0  0  0  0999 V2000
   -2.1954    0.3247   -0.8238 S   0  0  0  0  0  0  0  0  0  0  0  0
   -4.0919    1.0910   -0.9705 S   0  0  0  0  0  0  0  0  0  0  0  0
    2.9245   -1.6248   -1.6575 O   0  0  0  0  0  0  0  0  0  0  0  0
   -0.3552    3.3727    1.3265 O   0  0  0  0  0  0  0  0  0  0  0  0
    0.4591    3.6565   -0.7734 O   0  0  0  0  0  0  0  0  0  0  0  0
    2.9671   -0.6142    0.4303 N   0  0  0  0  0  0  0  0  0  0  0  0
   -2.6576   -1.2900   -0.1245 C   0  0  0  0  0  0  0  0  0  0  0  0
   -1.5704   -1.8043    0.8068 C   0  0  0  0  0  0  0  0  0  0  0  0
   -0.2595   -2.0457    0.0582 C   0  0  0  0  0  0  0  0  0  0  0  0
   -3.9886   -1.0798    0.6016 C   0  0  0  0  0  0  0  0  0  0  0  0
    0.8225   -2.5899    0.9958 C   0  0  0  0  0  0  0  0  0  0  0  0
   -4.9652   -0.3520   -0.3146 C   0  0  0  0  0  0  0  0  0  0  0  0
    2.1369   -2.8673    0.2682 C   0  0  0  0  0  0  0  0  0  0  0  0
    2.7066   -1.6550   -0.4493 C   0  0  0  0  0  0  0  0  0  0  0  0
    3.5359    0.6373   -0.0098 C   0  0  0  0  0  0  0  0  0  0  0  0
    2.4756    1.6619   -0.4112 C   0  0  0  0  0  0  0  0  0  0  0  0
    1.5349    2.0662    0.7268 C   0  0  0  0  0  0  0  0  0  0  0  0
    0.5207    3.1127    0.3204 C   0  0  0  0  0  0  0  0  0  0  0  0
  1  2  1  0
  1  7  1  0
  2 12  1  0
  3 14  2  0
  4 18  1  0
  5 18  2  0
  6 14  1  0
  6 15  1  0
  7  8  1  0
  7 10  1  0
  8  9  1  0
  9 11  1  0
 10 12  1  0
 11 13  1  0
 13 14  1  0
 15 16  1  0
 16 17  1  0
 17 18  1  0
M  END
>  <PUBCHEM_COMPOUND_CID>  (1) 
43043

>  <PUBCHEM_CONFORMER_RMSD>  (1) 
1.2

>  <PUBCHEM_CONFORMER_DIVERSEORDER>  (1) 
1
20
107
31
106
84
3
92
25
14
19
125
112
39
52
9
53
60
73
77
23
49
50
114
35
79
41
116
122
119
62
67
80
86
2
45
75
100
110
111
68
72
10
47
55
91
42
44
61
97
74
38
95
65
22
99
83
102
54
51
78
76
87
82
27
26
59
89
16
94
96
115
124
12
81
43
103
24
101
98
40
88
15
34
32
108
104
33
6
46
113
120
56
70
69
66
71
5
48
36
28
109
29
57
7
18
11
123
21
13
90
117
4
64
85
30
58
17
63
8
37
105
93
121
118

>  <PUBCHEM_MMFF94_PARTIAL_CHARGES>  (1) 
15
1 -0.23
12 0.23
13 0.06
14 0.57
15 0.3
17 0.06
18 0.66
2 -0.23
3 -0.57
34 0.37
39 0.5
4 -0.65
5 -0.57
6 -0.73
7 0.23

>  <PUBCHEM_EFFECTIVE_ROTOR_COUNT>  (1) 
11

>  <PUBCHEM_PHARMACOPHORE_FEATURES>  (1) 
7
1 3 acceptor
1 4 acceptor
1 5 acceptor
1 6 donor
3 4 5 18 anion
4 8 9 11 13 hydrophobe
5 1 2 7 10 12 rings

>  <PUBCHEM_HEAVY_ATOM_COUNT>  (1) 
18

>  <PUBCHEM_ATOM_DEF_STEREO_COUNT>  (1) 
0

>  <PUBCHEM_ATOM_UDEF_STEREO_COUNT>  (1) 
1

>  <PUBCHEM_BOND_DEF_STEREO_COUNT>  (1) 
0

>  <PUBCHEM_BOND_UDEF_STEREO_COUNT>  (1) 
0

>  <PUBCHEM_ISOTOPIC_ATOM_COUNT>  (1) 
0

>  <PUBCHEM_COMPONENT_COUNT>  (1) 
1

>  <PUBCHEM_CACTVS_TAUTO_COUNT>  (1) 
2

>  <PUBCHEM_CONFORMER_ID>  (1) 
0000A82300000001

>  <PUBCHEM_MMFF94_ENERGY>  (1) 
12.1915

>  <PUBCHEM_FEATURE_SELFOVERLAP>  (1) 
35.578

>  <PUBCHEM_SHAPE_FINGERPRINT>  (1) 
11221954 11 17832145300571938562
12633257 1 18117825810458466882
13402501 40 18335134340628242708
14251757 17 18261945255063535013
14931854 50 18337110060023224181
15006816 218 18337105795500539037
151778 21 17974581491680092009
15210252 30 18114192929699136668
17093844 170 18410562986057315192
18785283 64 18117852207717884297
19930381 70 18194116541838762443
20621476 13 18339356491122780305
23227448 37 18339920541047116287
238 59 17979893210525295743
2803657 2 17397532113944948582
3014063 31 18266173933665399093
3524813 1 18187077356164407007
5312625 73 18265330784963461859
54672768 99 18046345502790691101
5939293 188 18338793550085918978
6438718 38 17339265728334131983

>  <PUBCHEM_SHAPE_MULTIPOLES>  (1) 
355.54
7.68
4.46
1.12
6.85
2.95
0.1
-1.24
1.56
-2.69
-0.88
-0.09
0.08
0.81

>  <PUBCHEM_SHAPE_SELFOVERLAP>  (1) 
662.73

>  <PUBCHEM_SHAPE_VOLUME>  (1) 
222.8

>  <PUBCHEM_COORDINATE_TYPE>  (1) 
2
5
10

$$$$
