4304
     RDKit          3D

 21 22  0  0  0  0  0  0  0  0999 V2000
   -4.6308    2.8624    0.5771 Cl  0  0  0  0  0  0  0  0  0  0  0  0
   -0.2291   -2.2745   -0.2937 S   0  0  0  0  0  0  0  0  0  0  0  0
    0.3275   -3.1408    0.7281 O   0  0  0  0  0  0  0  0  0  0  0  0
   -0.9989   -2.8366   -1.3867 O   0  0  0  0  0  0  0  0  0  0  0  0
    1.0033   -1.2944   -0.9345 N   0  0  0  0  0  0  0  0  0  0  0  0
    7.7409    1.7006   -0.0371 N   0  0  0  0  0  0  0  0  0  0  0  0
    3.2326   -0.3245   -0.6254 C   0  0  0  0  0  0  0  0  0  0  0  0
    4.1306    0.5294    0.2702 C   0  0  0  0  0  0  0  0  0  0  0  0
    1.8370   -0.4716   -0.0317 C   0  0  0  0  0  0  0  0  0  0  0  0
    5.5204    0.7102   -0.3444 C   0  0  0  0  0  0  0  0  0  0  0  0
   -1.2623   -1.0832    0.5052 C   0  0  0  0  0  0  0  0  0  0  0  0
   -2.0350   -0.1606   -0.2079 C   0  0  0  0  0  0  0  0  0  0  0  0
    6.4261    1.5327    0.5704 C   0  0  0  0  0  0  0  0  0  0  0  0
   -2.8356    0.7605    0.5085 C   0  0  0  0  0  0  0  0  0  0  0  0
   -1.2670   -1.1112    1.8955 C   0  0  0  0  0  0  0  0  0  0  0  0
   -2.0364   -0.1246   -1.6119 C   0  0  0  0  0  0  0  0  0  0  0  0
   -2.8346    0.7244    1.9125 C   0  0  0  0  0  0  0  0  0  0  0  0
   -2.0547   -0.2058    2.6001 C   0  0  0  0  0  0  0  0  0  0  0  0
   -3.6144    1.6900   -0.2000 C   0  0  0  0  0  0  0  0  0  0  0  0
   -2.8160    0.8061   -2.2994 C   0  0  0  0  0  0  0  0  0  0  0  0
   -3.6036    1.7117   -1.5949 C   0  0  0  0  0  0  0  0  0  0  0  0
  1 19  1  0
  2  3  2  0
  2  4  2  0
  2  5  1  0
  2 11  1  0
  5  9  1  0
  6 13  1  0
  7  8  1  0
  7  9  1  0
  8 10  1  0
 10 13  1  0
 11 12  2  0
 11 15  1  0
 12 14  1  0
 12 16  1  0
 14 17  2  0
 14 19  1  0
 15 18  2  0
 16 20  2  0
 17 18  1  0
 19 21  2  0
 20 21  1  0
M  END
>  <PUBCHEM_COMPOUND_CID>  (1) 
4304

>  <PUBCHEM_CONFORMER_RMSD>  (1) 
0.8

>  <PUBCHEM_CONFORMER_DIVERSEORDER>  (1) 
1
57
11
61
60
83
86
3
72
85
10
50
37
47
65
28
74
73
84
71
75
14
78
52
48
79
63
21
18
22
76
91
55
80
45
29
24
33
35
77
89
49
67
27
69
17
87
82
59
54
58
8
44
81
9
19
23
38
12
4
53
90
70
62
68
51
6
88
32
56
13
41
66
30
26
40
5
34
64
46
7
31
16
15
39
36
25
43
20
2
42

>  <PUBCHEM_MMFF94_PARTIAL_CHARGES>  (1) 
25
1 -0.18
11 -0.01
13 0.27
15 -0.15
16 -0.15
17 -0.15
18 -0.15
19 0.18
2 1.45
20 -0.15
21 -0.15
3 -0.65
30 0.42
33 0.15
34 0.15
35 0.15
36 0.15
37 0.15
38 0.15
39 0.36
4 -0.65
40 0.36
5 -0.91
6 -0.99
9 0.36

>  <PUBCHEM_EFFECTIVE_ROTOR_COUNT>  (1) 
7

>  <PUBCHEM_PHARMACOPHORE_FEATURES>  (1) 
7
1 3 acceptor
1 4 acceptor
1 5 donor
1 6 cation
1 6 donor
6 11 12 14 15 17 18 rings
6 12 14 16 19 20 21 rings

>  <PUBCHEM_HEAVY_ATOM_COUNT>  (1) 
21

>  <PUBCHEM_ATOM_DEF_STEREO_COUNT>  (1) 
0

>  <PUBCHEM_ATOM_UDEF_STEREO_COUNT>  (1) 
0

>  <PUBCHEM_BOND_DEF_STEREO_COUNT>  (1) 
0

>  <PUBCHEM_BOND_UDEF_STEREO_COUNT>  (1) 
0

>  <PUBCHEM_ISOTOPIC_ATOM_COUNT>  (1) 
0

>  <PUBCHEM_COMPONENT_COUNT>  (1) 
1

>  <PUBCHEM_CACTVS_TAUTO_COUNT>  (1) 
1

>  <PUBCHEM_CONFORMER_ID>  (1) 
000010D000000001

>  <PUBCHEM_MMFF94_ENERGY>  (1) 
31.8663

>  <PUBCHEM_FEATURE_SELFOVERLAP>  (1) 
35.565

>  <PUBCHEM_SHAPE_FINGERPRINT>  (1) 
105312 117 18342179985981053726
10928967 22 12179836217874731584
11036077 4 15647044984747830992
11370993 144 16588293961505199522
12633257 1 16443644435809699868
12892183 10 15357976690219615633
13103583 49 12396587269251264389
13583140 156 17749104534892480344
13941219 33 11675139446680081644
13994607 96 17988654024664976488
14142880 1 18408887351985039591
14950920 106 15502661563464748020
15475509 8 13398340223966150417
15513586 35 17316781063956247580
16110190 28 17095530621344547604
17093844 174 18338509863960829648
17780758 139 14490468699380015828
17870717 6 13614520748930204069
1813 80 10881692247772725346
20871999 31 14548733959313197137
21033648 29 18261405425082176500
21401589 2 18186802444061488561
23559900 14 16735532749824834279
270888 7 18341049610233589184
27216 239 18114186353882218061
2748010 2 14711166848584722481
283562 15 18265326390447423455
2838139 119 18267018349826281076
312425 83 15696337092022962284
484985 159 8862672282655341793
4938544 92 13407341946551935726
531348 171 15050915017970527916
57724786 102 18263083232613378480
59755656 520 17988938776913113738
6431902 208 8862675594740161456
7097593 13 15285650875663989006
7970288 3 8358247147132435136
9981440 41 18113333076919072291

>  <PUBCHEM_SHAPE_MULTIPOLES>  (1) 
416.19
12.41
2.81
2.03
32.6
1.09
-0.36
-14.09
-0.56
-0.99
0.14
-2.68
0.11
0.55

>  <PUBCHEM_SHAPE_SELFOVERLAP>  (1) 
846.626

>  <PUBCHEM_SHAPE_VOLUME>  (1) 
242.3

>  <PUBCHEM_COORDINATE_TYPE>  (1) 
2
5
10

$$$$
