43053
     RDKit          3D

 23 27  0  0  0  0  0  0  0  0999 V2000
    0.0000   -0.5674   -0.0001 N   0  0  0  0  0  0  0  0  0  0  0  0
    1.2156    1.4886   -0.0001 C   0  0  0  0  0  0  0  0  0  0  0  0
   -1.2155    1.4887   -0.0001 C   0  0  0  0  0  0  0  0  0  0  0  0
   -0.0001    2.1778   -0.0002 C   0  0  0  0  0  0  0  0  0  0  0  0
    1.1845    0.0857   -0.0002 C   0  0  0  0  0  0  0  0  0  0  0  0
   -1.1845    0.0857   -0.0001 C   0  0  0  0  0  0  0  0  0  0  0  0
    2.4111   -0.6148   -0.0001 C   0  0  0  0  0  0  0  0  0  0  0  0
   -2.4110   -0.6148    0.0000 C   0  0  0  0  0  0  0  0  0  0  0  0
    3.6428    0.0897    0.0000 C   0  0  0  0  0  0  0  0  0  0  0  0
   -3.6427    0.0896    0.0000 C   0  0  0  0  0  0  0  0  0  0  0  0
    2.4336    2.1801    0.0000 C   0  0  0  0  0  0  0  0  0  0  0  0
   -2.4336    2.1801   -0.0002 C   0  0  0  0  0  0  0  0  0  0  0  0
   -0.0003    3.6830    0.0004 C   0  0  0  0  0  0  0  0  0  0  0  0
    3.6372    1.4859    0.0001 C   0  0  0  0  0  0  0  0  0  0  0  0
   -3.6372    1.4858   -0.0001 C   0  0  0  0  0  0  0  0  0  0  0  0
    2.4625   -2.0251   -0.0001 C   0  0  0  0  0  0  0  0  0  0  0  0
   -2.4625   -2.0252    0.0001 C   0  0  0  0  0  0  0  0  0  0  0  0
    4.8578   -0.6154    0.0002 C   0  0  0  0  0  0  0  0  0  0  0  0
   -4.8577   -0.6155    0.0002 C   0  0  0  0  0  0  0  0  0  0  0  0
    3.6780   -2.7128   -0.0001 C   0  0  0  0  0  0  0  0  0  0  0  0
   -3.6779   -2.7129    0.0001 C   0  0  0  0  0  0  0  0  0  0  0  0
    4.8747   -2.0084    0.0000 C   0  0  0  0  0  0  0  0  0  0  0  0
   -4.8746   -2.0084    0.0000 C   0  0  0  0  0  0  0  0  0  0  0  0
  1  5  2  0
  1  6  1  0
  2  4  2  0
  2  5  1  0
  2 11  1  0
  3  4  1  0
  3  6  2  0
  3 12  1  0
  4 13  1  0
  5  7  1  0
  6  8  1  0
  7  9  2  0
  7 16  1  0
  8 10  2  0
  8 17  1  0
  9 14  1  0
  9 18  1  0
 10 15  1  0
 10 19  1  0
 11 14  2  0
 12 15  2  0
 16 20  2  0
 17 21  2  0
 18 22  2  0
 19 23  2  0
 20 22  1  0
 21 23  1  0
M  END
>  <PUBCHEM_COMPOUND_CID>  (1) 
43053

>  <PUBCHEM_CONFORMER_RMSD>  (1) 
0.6

>  <PUBCHEM_CONFORMER_DIVERSEORDER>  (1) 
1

>  <PUBCHEM_MMFF94_PARTIAL_CHARGES>  (1) 
29
1 -0.62
11 -0.15
12 -0.15
13 0.14
14 -0.15
15 -0.15
16 -0.15
17 -0.15
18 -0.15
19 -0.15
20 -0.15
21 -0.15
22 -0.15
23 -0.15
24 0.15
25 0.15
29 0.15
30 0.15
31 0.15
32 0.15
33 0.15
34 0.15
35 0.15
36 0.15
37 0.15
38 0.15
4 -0.14
5 0.31
6 0.31

>  <PUBCHEM_EFFECTIVE_ROTOR_COUNT>  (1) 
0

>  <PUBCHEM_PHARMACOPHORE_FEATURES>  (1) 
6
1 1 acceptor
6 1 2 3 4 5 6 rings
6 2 5 7 9 11 14 rings
6 3 6 8 10 12 15 rings
6 7 9 16 18 20 22 rings
6 8 10 17 19 21 23 rings

>  <PUBCHEM_HEAVY_ATOM_COUNT>  (1) 
23

>  <PUBCHEM_ATOM_DEF_STEREO_COUNT>  (1) 
0

>  <PUBCHEM_ATOM_UDEF_STEREO_COUNT>  (1) 
0

>  <PUBCHEM_BOND_DEF_STEREO_COUNT>  (1) 
0

>  <PUBCHEM_BOND_UDEF_STEREO_COUNT>  (1) 
0

>  <PUBCHEM_ISOTOPIC_ATOM_COUNT>  (1) 
0

>  <PUBCHEM_COMPONENT_COUNT>  (1) 
1

>  <PUBCHEM_CACTVS_TAUTO_COUNT>  (1) 
1

>  <PUBCHEM_CONFORMER_ID>  (1) 
0000A82D00000001

>  <PUBCHEM_MMFF94_ENERGY>  (1) 
90.6427

>  <PUBCHEM_FEATURE_SELFOVERLAP>  (1) 
30.56

>  <PUBCHEM_SHAPE_FINGERPRINT>  (1) 
10411042 1 18410575084668736935
10616163 171 18412827971156705462
10622 236 17629177584737207967
10693767 8 17983838241963510919
10967382 1 18338797939131194564
1100329 8 18267869376485397257
11963148 33 17975689803464372850
12107183 9 17980204088779341771
12403259 226 18410569591405955104
12553582 1 18410844469312561342
12633257 1 18271255915205791995
13140716 1 18341895147396330937
13544653 18 18335145327365504451
138480 1 14879751447870794277
14341114 176 18411986857614307331
14790565 3 17617101751165329556
14866123 147 17980764831420421905
15042514 8 18339081462801907241
15196674 1 18410573985151684997
15320467 1 13727112324521734966
15352361 1 18410855460170632655
15442244 35 18411420583435411145
15927050 60 17404866338008264692
17492 89 18410293644136563515
17857418 61 18411133640896975219
1813 80 17458345251341288797
19141452 34 18338802187138998801
19591789 44 18410573985151756455
20281475 54 18410578387498522604
20775438 99 17120520450701528087
21033650 10 16588296129894420301
21267235 1 18410582781244798147
21279426 13 18335693911233569845
21478907 32 18410292493306393553
221490 88 18336270153319442210
23379529 103 18271535182612277382
23559900 14 18411410726395913065
3004659 81 18186799175728324790
314194 84 18268712890903333787
335352 9 18410855426612663517
3421961 26 18340485680937388608
350125 39 18411140246524709632
4214541 1 18410856521143462883
4409770 3 17900533485069222669
46194498 28 17459182066058715117
463206 1 18337674246875030587
5104073 3 18342175557284235504
6823239 73 17986684679761502118
9709674 26 18335142050237171875
9981440 41 17256523553029508977

>  <PUBCHEM_SHAPE_MULTIPOLES>  (1) 
468.35
10.11
3.66
0.61
0
0.85
0
-6.97
0
0
0
0
0
0

>  <PUBCHEM_SHAPE_SELFOVERLAP>  (1) 
1090.048

>  <PUBCHEM_SHAPE_VOLUME>  (1) 
237.6

>  <PUBCHEM_COORDINATE_TYPE>  (1) 
2
5
10

$$$$
