4305
     RDKit          3D

 21 22  0  0  0  0  0  0  0  0999 V2000
   -5.6852   -0.4072   -1.6907 Cl  0  0  0  0  0  0  0  0  0  0  0  0
    0.8463   -1.6528    0.7104 S   0  0  0  0  0  0  0  0  0  0  0  0
    1.2136   -1.1332    2.0139 O   0  0  0  0  0  0  0  0  0  0  0  0
    0.8336   -3.0834    0.4724 O   0  0  0  0  0  0  0  0  0  0  0  0
    1.7971   -0.9040   -0.4835 N   0  0  0  0  0  0  0  0  0  0  0  0
    8.1179    0.9671   -0.2513 N   0  0  0  0  0  0  0  0  0  0  0  0
    3.2125    1.0017   -1.0925 C   0  0  0  0  0  0  0  0  0  0  0  0
    4.3353    0.5375   -0.1644 C   0  0  0  0  0  0  0  0  0  0  0  0
    1.8476    0.5715   -0.5692 C   0  0  0  0  0  0  0  0  0  0  0  0
    5.7032    1.0028   -0.6685 C   0  0  0  0  0  0  0  0  0  0  0  0
   -0.7690   -1.0509    0.3189 C   0  0  0  0  0  0  0  0  0  0  0  0
    6.8253    0.5058    0.2412 C   0  0  0  0  0  0  0  0  0  0  0  0
   -2.4911    0.6177    0.5984 C   0  0  0  0  0  0  0  0  0  0  0  0
   -1.2108    0.1253    0.9001 C   0  0  0  0  0  0  0  0  0  0  0  0
   -3.3145   -0.1004   -0.3011 C   0  0  0  0  0  0  0  0  0  0  0  0
   -1.5590   -1.7645   -0.5607 C   0  0  0  0  0  0  0  0  0  0  0  0
   -2.8334   -1.2899   -0.8721 C   0  0  0  0  0  0  0  0  0  0  0  0
   -2.9718    1.8075    1.1692 C   0  0  0  0  0  0  0  0  0  0  0  0
   -4.5948    0.3920   -0.6028 C   0  0  0  0  0  0  0  0  0  0  0  0
   -4.2464    2.2819    0.8582 C   0  0  0  0  0  0  0  0  0  0  0  0
   -5.0563    1.5755   -0.0258 C   0  0  0  0  0  0  0  0  0  0  0  0
  1 19  1  0
  2  3  2  0
  2  4  2  0
  2  5  1  0
  2 11  1  0
  5  9  1  0
  6 12  1  0
  7  8  1  0
  7  9  1  0
  8 10  1  0
 10 12  1  0
 11 14  2  0
 11 16  1  0
 13 14  1  0
 13 15  2  0
 13 18  1  0
 15 17  1  0
 15 19  1  0
 16 17  2  0
 18 20  2  0
 19 21  2  0
 20 21  1  0
M  END
>  <PUBCHEM_COMPOUND_CID>  (1) 
4305

>  <PUBCHEM_CONFORMER_RMSD>  (1) 
0.8

>  <PUBCHEM_CONFORMER_DIVERSEORDER>  (1) 
3
52
73
64
31
18
15
8
66
11
50
49
68
69
21
57
2
29
55
38
65
39
26
53
25
30
45
19
72
28
51
37
48
77
47
63
62
9
12
10
17
33
70
58
71
16
59
44
20
34
32
22
24
27
41
42
4
56
35
23
46
7
61
36
1
67
43
40
74
5
14
75
54
6
60
13
76

>  <PUBCHEM_MMFF94_PARTIAL_CHARGES>  (1) 
25
1 -0.18
11 -0.01
12 0.27
14 -0.15
16 -0.15
17 -0.15
18 -0.15
19 0.18
2 1.45
20 -0.15
21 -0.15
3 -0.65
30 0.42
33 0.15
34 0.15
35 0.15
36 0.15
37 0.36
38 0.36
39 0.15
4 -0.65
40 0.15
5 -0.91
6 -0.99
9 0.36

>  <PUBCHEM_EFFECTIVE_ROTOR_COUNT>  (1) 
7

>  <PUBCHEM_PHARMACOPHORE_FEATURES>  (1) 
7
1 3 acceptor
1 4 acceptor
1 5 donor
1 6 cation
1 6 donor
6 11 13 14 15 16 17 rings
6 13 15 18 19 20 21 rings

>  <PUBCHEM_HEAVY_ATOM_COUNT>  (1) 
21

>  <PUBCHEM_ATOM_DEF_STEREO_COUNT>  (1) 
0

>  <PUBCHEM_ATOM_UDEF_STEREO_COUNT>  (1) 
0

>  <PUBCHEM_BOND_DEF_STEREO_COUNT>  (1) 
0

>  <PUBCHEM_BOND_UDEF_STEREO_COUNT>  (1) 
0

>  <PUBCHEM_ISOTOPIC_ATOM_COUNT>  (1) 
0

>  <PUBCHEM_COMPONENT_COUNT>  (1) 
1

>  <PUBCHEM_CACTVS_TAUTO_COUNT>  (1) 
1

>  <PUBCHEM_CONFORMER_ID>  (1) 
000010D100000003

>  <PUBCHEM_MMFF94_ENERGY>  (1) 
26.1884

>  <PUBCHEM_FEATURE_SELFOVERLAP>  (1) 
35.565

>  <PUBCHEM_SHAPE_FINGERPRINT>  (1) 
10670039 82 18342170059763441472
11089746 13 18412262861610135772
11315181 36 18336830891829267580
12236239 1 18409443661497125346
12633257 1 15358275856309153557
13177829 73 18410014330044854300
13288520 33 9151174242304997033
13631057 29 18189334735969330275
13914758 101 18201722826231185814
14251764 18 18335417972601448596
14251764 38 18127972112629970480
14341114 176 12540701435588919766
15183329 4 18410575068464437078
16110190 28 11169920489282920892
17780758 139 11746934295819175453
1813 80 17684924705107626786
19489759 90 17988927786202235332
200 152 13254804529382220318
20871999 31 17561082493171039393
21033648 144 18114742642668775111
21033648 29 16371293195585530375
21403212 168 17603577522336182010
21756936 100 18410299112003756979
22950370 63 9367351427266758964
23035841 295 8646773292249063644
23198884 109 18202847647199287292
23402539 116 18412825815615639100
23559900 14 17489581285938947352
23622692 88 10737280251665507419
2838139 119 18411420617996077420
314194 84 11455889165642547084
351380 3 10447928360584063100
474 4 18113903766340185655
495365 180 15792564159452758227
543368 44 18341333314725237049
57724786 102 17023477459702241780
59755656 520 18113896100035085158
6328613 192 18189063152529175412
7226269 152 18411423917005714424
9981440 41 18409174319835077683

>  <PUBCHEM_SHAPE_MULTIPOLES>  (1) 
416.19
15.66
2.23
1.29
28.32
0.67
-0.12
-9.06
4.6
-1.35
-0.56
-0.7
0.12
-1.76

>  <PUBCHEM_SHAPE_SELFOVERLAP>  (1) 
845.943

>  <PUBCHEM_SHAPE_VOLUME>  (1) 
242.8

>  <PUBCHEM_COORDINATE_TYPE>  (1) 
2
5
10

$$$$
