43058
     RDKit          3D

 15 15  0  0  0  0  0  0  0  0999 V2000
   -4.3878    0.2820   -0.7672 O   0  0  0  0  0  0  0  0  0  0  0  0
   -0.0902   -2.9368    1.1066 O   0  0  0  0  0  0  0  0  0  0  0  0
   -0.4770   -1.1238    0.1041 N   0  0  0  0  0  0  0  0  0  0  0  0
   -2.3682    0.3223    0.3840 N   0  0  0  0  0  0  0  0  0  0  0  0
   -0.0713   -2.3738    0.0054 N   0  0  0  0  0  0  0  0  0  0  0  0
    0.1405   -0.2328   -0.8932 C   0  0  0  0  0  0  0  0  0  0  0  0
    1.5049    0.2336   -0.4601 C   0  0  0  0  0  0  0  0  0  0  0  0
   -1.9414   -1.0242    0.0446 C   0  0  0  0  0  0  0  0  0  0  0  0
    1.6247    1.4011    0.2807 C   0  0  0  0  0  0  0  0  0  0  0  0
    2.6239   -0.5102   -0.8079 C   0  0  0  0  0  0  0  0  0  0  0  0
    2.8887    1.8334    0.6819 C   0  0  0  0  0  0  0  0  0  0  0  0
    3.8879   -0.0779   -0.4066 C   0  0  0  0  0  0  0  0  0  0  0  0
    4.0204    1.0939    0.3384 C   0  0  0  0  0  0  0  0  0  0  0  0
   -3.5657    0.8569   -0.0585 C   0  0  0  0  0  0  0  0  0  0  0  0
   -3.7894    2.2562    0.4478 C   0  0  0  0  0  0  0  0  0  0  0  0
  1 14  2  0
  2  5  2  0
  3  5  1  0
  3  6  1  0
  3  8  1  0
  4  8  1  0
  4 14  1  0
  6  7  1  0
  7  9  2  0
  7 10  1  0
  9 11  1  0
 10 12  2  0
 11 13  2  0
 12 13  1  0
 14 15  1  0
M  END
>  <PUBCHEM_COMPOUND_CID>  (1) 
43058

>  <PUBCHEM_CONFORMER_RMSD>  (1) 
0.8

>  <PUBCHEM_CONFORMER_DIVERSEORDER>  (1) 
1
73
41
30
67
58
68
71
62
66
2
78
20
82
13
12
79
42
3
17
85
19
83
61
77
47
38
27
40
89
49
39
56
7
21
9
69
57
80
93
5
45
16
11
18
54
91
72
35
36
44
31
59
87
74
55
10
29
84
46
63
33
23
70
76
52
6
4
43
60
81
88
48
64
34
14
25
26
24
90
51
28
22
53
15
86
65
75
8
92
37
50
32

>  <PUBCHEM_MMFF94_PARTIAL_CHARGES>  (1) 
21
1 -0.57
10 -0.15
11 -0.15
12 -0.15
13 -0.15
14 0.57
15 0.06
2 -0.16
20 0.15
21 0.15
22 0.37
23 0.15
24 0.15
25 0.15
3 -0.36
4 -0.73
5 -0.01
6 0.41
7 -0.14
8 0.57
9 -0.15

>  <PUBCHEM_EFFECTIVE_ROTOR_COUNT>  (1) 
6

>  <PUBCHEM_PHARMACOPHORE_FEATURES>  (1) 
3
1 1 acceptor
1 4 donor
6 7 9 10 11 12 13 rings

>  <PUBCHEM_HEAVY_ATOM_COUNT>  (1) 
15

>  <PUBCHEM_ATOM_DEF_STEREO_COUNT>  (1) 
0

>  <PUBCHEM_ATOM_UDEF_STEREO_COUNT>  (1) 
0

>  <PUBCHEM_BOND_DEF_STEREO_COUNT>  (1) 
0

>  <PUBCHEM_BOND_UDEF_STEREO_COUNT>  (1) 
0

>  <PUBCHEM_ISOTOPIC_ATOM_COUNT>  (1) 
0

>  <PUBCHEM_COMPONENT_COUNT>  (1) 
1

>  <PUBCHEM_CACTVS_TAUTO_COUNT>  (1) 
2

>  <PUBCHEM_CONFORMER_ID>  (1) 
0000A83200000001

>  <PUBCHEM_MMFF94_ENERGY>  (1) 
35.5446

>  <PUBCHEM_FEATURE_SELFOVERLAP>  (1) 
15.223

>  <PUBCHEM_SHAPE_FINGERPRINT>  (1) 
10608611 8 18199467847429837432
122479 349 18341332287842775652
124424 183 18202006555617385932
12500047 106 18337674234490645438
12507560 18 18412545380078965050
13380535 76 18343021120639202022
13464514 151 18197789790764106121
13922767 16 18272088284099647772
14123255 52 18410854326678964225
14178342 30 18044647840295547146
18186145 218 18130803247168900186
20510252 161 18267871777266205003
20645477 70 17275117111067395148
20671657 1 18265328405055519539
212916 134 18269816727504817498
21524375 3 18411136935411003175
23402539 116 18269264837171564255
23402655 69 17775286040752850669
23559900 14 18343306964235793774
25 1 18341334405182427438
276578 36 17894911810980655738
305870 269 18334856082761430379
351380 180 18272365378025301605
4028521 119 18341325626712840917
449060 23 9367344817032444213
6333272 397 18410011074269629337
633830 44 18342458101813498861
69090 78 18060416945407699039
7364860 26 18123753054379796031
81228 2 17828483905339801571
84936 182 18268427919664742153

>  <PUBCHEM_SHAPE_MULTIPOLES>  (1) 
282.01
7.9
2.42
0.88
3.3
0.96
0
-4.82
-0.42
0.73
0.93
-0.1
0.18
0.36

>  <PUBCHEM_SHAPE_SELFOVERLAP>  (1) 
570.63

>  <PUBCHEM_SHAPE_VOLUME>  (1) 
164

>  <PUBCHEM_COORDINATE_TYPE>  (1) 
2
5
10

$$$$
