4306
     RDKit          3D

 22 23  0  0  0  0  0  0  0  0999 V2000
   -6.1130    0.2270    1.7315 Cl  0  0  0  0  0  0  0  0  0  0  0  0
    0.3506    1.7519   -0.6912 S   0  0  0  0  0  0  0  0  0  0  0  0
    0.7180    1.2891   -2.0159 O   0  0  0  0  0  0  0  0  0  0  0  0
    0.2978    3.1724   -0.4032 O   0  0  0  0  0  0  0  0  0  0  0  0
    1.3373    0.9916    0.4656 N   0  0  0  0  0  0  0  0  0  0  0  0
    8.9383   -0.4487   -0.3636 N   0  0  0  0  0  0  0  0  0  0  0  0
    3.9597   -0.4226    0.2219 C   0  0  0  0  0  0  0  0  0  0  0  0
    2.7813   -0.9177    1.0672 C   0  0  0  0  0  0  0  0  0  0  0  0
    5.3210   -0.8998    0.7379 C   0  0  0  0  0  0  0  0  0  0  0  0
    1.4332   -0.4839    0.4993 C   0  0  0  0  0  0  0  0  0  0  0  0
    6.4981   -0.4338   -0.1228 C   0  0  0  0  0  0  0  0  0  0  0  0
   -1.2412    1.0879   -0.3038 C   0  0  0  0  0  0  0  0  0  0  0  0
    7.8274   -0.9180    0.4561 C   0  0  0  0  0  0  0  0  0  0  0  0
   -1.6543   -0.0798   -0.9221 C   0  0  0  0  0  0  0  0  0  0  0  0
   -2.9159   -0.6205   -0.6252 C   0  0  0  0  0  0  0  0  0  0  0  0
   -3.7502    0.0409    0.3073 C   0  0  0  0  0  0  0  0  0  0  0  0
   -2.0418    1.7464    0.6084 C   0  0  0  0  0  0  0  0  0  0  0  0
   -3.2983    1.2234    0.9154 C   0  0  0  0  0  0  0  0  0  0  0  0
   -3.3677   -1.8033   -1.2329 C   0  0  0  0  0  0  0  0  0  0  0  0
   -5.0117   -0.5001    0.6046 C   0  0  0  0  0  0  0  0  0  0  0  0
   -4.6240   -2.3264   -0.9257 C   0  0  0  0  0  0  0  0  0  0  0  0
   -5.4445   -1.6761   -0.0088 C   0  0  0  0  0  0  0  0  0  0  0  0
  1 20  1  0
  2  3  2  0
  2  4  2  0
  2  5  1  0
  2 12  1  0
  5 10  1  0
  6 13  1  0
  7  8  1  0
  7  9  1  0
  8 10  1  0
  9 11  1  0
 11 13  1  0
 12 14  2  0
 12 17  1  0
 14 15  1  0
 15 16  2  0
 15 19  1  0
 16 18  1  0
 16 20  1  0
 17 18  2  0
 19 21  2  0
 20 22  2  0
 21 22  1  0
M  END
>  <PUBCHEM_COMPOUND_CID>  (1) 
4306

>  <PUBCHEM_CONFORMER_RMSD>  (1) 
0.8

>  <PUBCHEM_CONFORMER_DIVERSEORDER>  (1) 
1
39
77
49
142
102
175
155
86
98
191
158
99
134
23
190
16
4
183
13
169
52
97
186
67
157
58
31
147
69
51
119
101
137
112
127
63
55
180
188
151
128
177
187
148
140
29
18
168
70
118
174
83
125
68
9
123
64
41
182
85
36
138
34
105
60
26
131
166
3
185
56
82
92
189
181
111
161
162
25
75
95
152
22
88
120
159
117
47
108
89
141
81
173
110
115
32
24
150
145
136
61
144
71
132
42
54
17
109
129
73
184
14
176
126
72
76
113
90
40
121
74
163
114
192
153
45
143
27
93
94
107
135
116
48
122
165
10
53
7
104
37
78
106
35
156
154
30
146
87
57
139
59
65
33
12
103
2
28
11
38
133
80
21
100
171
96
43
149
84
130
167
91
44
6
66
20
160
8
172
5
15
50
124
46
79
170
62
178
179
19
164

>  <PUBCHEM_MMFF94_PARTIAL_CHARGES>  (1) 
25
1 -0.18
10 0.36
12 -0.01
13 0.27
14 -0.15
17 -0.15
18 -0.15
19 -0.15
2 1.45
20 0.18
21 -0.15
22 -0.15
3 -0.65
33 0.42
36 0.15
37 0.15
38 0.15
39 0.15
4 -0.65
40 0.36
41 0.36
42 0.15
43 0.15
5 -0.91
6 -0.99

>  <PUBCHEM_EFFECTIVE_ROTOR_COUNT>  (1) 
8

>  <PUBCHEM_PHARMACOPHORE_FEATURES>  (1) 
8
1 3 acceptor
1 4 acceptor
1 5 donor
1 6 cation
1 6 donor
4 7 8 9 11 hydrophobe
6 12 14 15 16 17 18 rings
6 15 16 19 20 21 22 rings

>  <PUBCHEM_HEAVY_ATOM_COUNT>  (1) 
22

>  <PUBCHEM_ATOM_DEF_STEREO_COUNT>  (1) 
0

>  <PUBCHEM_ATOM_UDEF_STEREO_COUNT>  (1) 
0

>  <PUBCHEM_BOND_DEF_STEREO_COUNT>  (1) 
0

>  <PUBCHEM_BOND_UDEF_STEREO_COUNT>  (1) 
0

>  <PUBCHEM_ISOTOPIC_ATOM_COUNT>  (1) 
0

>  <PUBCHEM_COMPONENT_COUNT>  (1) 
1

>  <PUBCHEM_CACTVS_TAUTO_COUNT>  (1) 
1

>  <PUBCHEM_CONFORMER_ID>  (1) 
000010D200000001

>  <PUBCHEM_MMFF94_ENERGY>  (1) 
25.6087

>  <PUBCHEM_FEATURE_SELFOVERLAP>  (1) 
40.639

>  <PUBCHEM_SHAPE_FINGERPRINT>  (1) 
10299344 5 18342177769967995058
11089746 13 8718819895650284274
11135609 201 11387186109194573223
11315181 36 18413107260031660969
11524674 6 16056594370202199734
12166972 35 17385444328491950060
12553582 1 18260533529214405515
12633257 1 15912760712921609187
13288520 33 18411416215638163963
13914758 101 10953734496435284024
14123256 10 17822012004427200882
14251764 30 18272929406584999194
14556957 393 16588317029758892014
14767858 380 17894352181627862614
15415430 10 18408600366079841773
15537594 2 18335417941635279995
15716309 27 18409449168246546714
17780758 139 18060700580911091635
1813 80 18187654578336117263
19784866 240 18261108617067106599
21267235 1 18409449214900356155
21403212 168 12895076197715680188
21756936 100 9223230771708046101
23035841 295 18413670210465299082
23402539 116 17749388118587259392
23522609 53 18193303874119382920
23559900 14 18268136742647306961
335352 9 18409721851778507149
351380 3 18334572451584679611
3737641 26 18265894662028478122
4325135 7 18408324372325491158
445580 167 18186523233513302708
4938544 92 18200876158400399577
5104073 3 17986967434753823035
559249 180 18412261745044966447
5969126 39 17458337520853947332
59755656 520 11311767367485584144
9953998 17 17917991672254351746

>  <PUBCHEM_SHAPE_MULTIPOLES>  (1) 
436.77
18.95
2.2
1.3
42.85
0.77
-0.1
-10.49
4.28
-2.05
-0.62
-1.02
0.1
-1.64

>  <PUBCHEM_SHAPE_SELFOVERLAP>  (1) 
882.88

>  <PUBCHEM_SHAPE_VOLUME>  (1) 
255.8

>  <PUBCHEM_COORDINATE_TYPE>  (1) 
2
5
10

$$$$
