43068
     RDKit          3D

 17 17  0  0  0  0  0  0  0  0999 V2000
    5.3182    0.2943    0.6644 O   0  0  0  0  0  0  0  0  0  0  0  0
   -2.8668    1.2231    0.2113 N   0  0  0  0  0  0  0  0  0  0  0  0
   -1.5412    0.8777    0.3333 N   0  0  0  0  0  0  0  0  0  0  0  0
   -0.8689    1.0233   -0.7082 N   0  0  0  0  0  0  0  0  0  0  0  0
    4.8150   -1.8481    0.0198 N   0  0  0  0  0  0  0  0  0  0  0  0
   -4.5754   -0.4979    0.6369 C   0  0  0  0  0  0  0  0  0  0  0  0
   -3.7586    0.6652    1.1900 C   0  0  0  0  0  0  0  0  0  0  0  0
   -3.6991   -1.6641    0.1740 C   0  0  0  0  0  0  0  0  0  0  0  0
   -4.5419   -2.8314   -0.3158 C   0  0  0  0  0  0  0  0  0  0  0  0
   -3.4166    1.7170   -1.0461 C   0  0  0  0  0  0  0  0  0  0  0  0
    0.4614    0.6396   -0.4705 C   0  0  0  0  0  0  0  0  0  0  0  0
    3.0967   -0.1210    0.0020 C   0  0  0  0  0  0  0  0  0  0  0  0
    0.8485   -0.6799   -0.6840 C   0  0  0  0  0  0  0  0  0  0  0  0
    1.3825    1.5814   -0.0223 C   0  0  0  0  0  0  0  0  0  0  0  0
    2.1691   -1.0611   -0.4473 C   0  0  0  0  0  0  0  0  0  0  0  0
    2.7033    1.2002    0.2145 C   0  0  0  0  0  0  0  0  0  0  0  0
    4.4738   -0.5181    0.2481 C   0  0  0  0  0  0  0  0  0  0  0  0
  1 17  2  0
  2  3  1  0
  2  7  1  0
  2 10  1  0
  3  4  2  0
  4 11  1  0
  5 17  1  0
  6  7  1  0
  6  8  1  0
  8  9  1  0
 11 13  2  0
 11 14  1  0
 12 15  2  0
 12 16  1  0
 12 17  1  0
 13 15  1  0
 14 16  2  0
M  END
>  <PUBCHEM_COMPOUND_CID>  (1) 
43068

>  <PUBCHEM_CONFORMER_RMSD>  (1) 
0.8

>  <PUBCHEM_CONFORMER_DIVERSEORDER>  (1) 
2
26
10
15
14
4
8
12
29
33
16
1
28
6
22
9
5
34
31
27
3
18
30
23
19
25
24
11
20
21
32
7
13
17
35

>  <PUBCHEM_MMFF94_PARTIAL_CHARGES>  (1) 
20
1 -0.57
10 0.3
11 0.18
12 0.09
13 -0.15
14 -0.15
15 -0.15
16 -0.15
17 0.54
2 -0.54
3 -0.06
30 0.15
31 0.15
32 0.15
33 0.15
34 0.37
35 0.37
4 -0.18
5 -0.8
7 0.3

>  <PUBCHEM_EFFECTIVE_ROTOR_COUNT>  (1) 
6

>  <PUBCHEM_PHARMACOPHORE_FEATURES>  (1) 
4
1 1 acceptor
1 5 donor
1 9 hydrophobe
6 11 12 13 14 15 16 rings

>  <PUBCHEM_HEAVY_ATOM_COUNT>  (1) 
17

>  <PUBCHEM_ATOM_DEF_STEREO_COUNT>  (1) 
0

>  <PUBCHEM_ATOM_UDEF_STEREO_COUNT>  (1) 
0

>  <PUBCHEM_BOND_DEF_STEREO_COUNT>  (1) 
0

>  <PUBCHEM_BOND_UDEF_STEREO_COUNT>  (1) 
0

>  <PUBCHEM_ISOTOPIC_ATOM_COUNT>  (1) 
0

>  <PUBCHEM_COMPONENT_COUNT>  (1) 
1

>  <PUBCHEM_CACTVS_TAUTO_COUNT>  (1) 
2

>  <PUBCHEM_CONFORMER_ID>  (1) 
0000A83C00000002

>  <PUBCHEM_MMFF94_ENERGY>  (1) 
40.7503

>  <PUBCHEM_FEATURE_SELFOVERLAP>  (1) 
20.297

>  <PUBCHEM_SHAPE_FINGERPRINT>  (1) 
11046707 91 18334296474461168885
12500047 106 18262231098148631957
12633257 1 18130523997655175363
12670543 26 8502381061771318056
13167823 11 18333170561289700923
13675066 3 17775282729738987352
14252887 29 18059862706027586550
14341114 176 18271534117058857024
14787075 74 18261396693392811352
15415430 10 18336827584598733575
17834072 33 18260834825707955564
17959699 21 9079116661405367038
18785283 64 18266451195833710752
19050596 39 18201728366180003993
19141452 34 18410581682645501185
200 152 18131623479192092093
20261772 1 17917149519351714175
20281475 54 18408609166483805188
20621476 91 18263626494151664562
20645477 56 10879994662249323485
20681677 274 18200875179458767665
21637258 2 16805592635168071690
21673915 165 18411701001761009386
221490 88 18336269053792068009
22485316 2 18114179683887827608
23402539 116 16443063863790170372
23559900 14 18339069480387016209
26918003 58 18201439155951460033
32948 21 8502379931820352962
4214541 1 18409730638643472721
441001 317 9799688194921256423
49783359 22 18411136926536316314
5104073 3 18272365361103564722
5924683 9 18343864446506209411
76465 3 18336827588946409435

>  <PUBCHEM_SHAPE_MULTIPOLES>  (1) 
324.06
11.5
2.23
0.9
1.87
1.02
-0.01
5.18
-2.21
-2.22
0.33
-0.55
-0.17
0.12

>  <PUBCHEM_SHAPE_SELFOVERLAP>  (1) 
654.298

>  <PUBCHEM_SHAPE_VOLUME>  (1) 
190.2

>  <PUBCHEM_COORDINATE_TYPE>  (1) 
2
5
10

$$$$
