43060
     RDKit          3D

 19 19  0  0  0  0  0  0  0  0999 V2000
   -3.6176    1.4631   -0.1413 S   0  0  0  0  0  0  0  0  0  0  0  0
    0.9478   -0.6602   -0.9575 O   0  0  0  0  0  0  0  0  0  0  0  0
   -4.2810   -1.3705    0.6385 O   0  0  0  0  0  0  0  0  0  0  0  0
   -3.8942    1.7799    1.4378 O   0  0  0  0  0  0  0  0  0  0  0  0
   -2.8897    2.6000   -0.6830 O   0  0  0  0  0  0  0  0  0  0  0  0
   -4.8672    1.0251   -0.7414 O   0  0  0  0  0  0  0  0  0  0  0  0
    1.4841   -0.2113    1.2742 O   0  0  0  0  0  0  0  0  0  0  0  0
    6.4295    0.9193    0.9952 O   0  0  0  0  0  0  0  0  0  0  0  0
    5.9356    0.2667   -1.1280 O   0  0  0  0  0  0  0  0  0  0  0  0
   -2.5417    0.0840   -0.1482 C   0  0  0  0  0  0  0  0  0  0  0  0
   -0.3780   -0.8339   -0.5533 C   0  0  0  0  0  0  0  0  0  0  0  0
   -1.2175    0.2579   -0.5508 C   0  0  0  0  0  0  0  0  0  0  0  0
    3.1969   -0.1763   -0.4606 C   0  0  0  0  0  0  0  0  0  0  0  0
   -2.9921   -1.1773    0.2417 C   0  0  0  0  0  0  0  0  0  0  0  0
   -0.7943   -2.0907   -0.1739 C   0  0  0  0  0  0  0  0  0  0  0  0
    4.2088    0.2571    0.5973 C   0  0  0  0  0  0  0  0  0  0  0  0
   -2.1185   -2.2645    0.2287 C   0  0  0  0  0  0  0  0  0  0  0  0
    1.7984   -0.3381    0.0986 C   0  0  0  0  0  0  0  0  0  0  0  0
    5.5907    0.4699    0.0263 C   0  0  0  0  0  0  0  0  0  0  0  0
  1  4  1  0
  1  5  2  0
  1  6  2  0
  1 10  1  0
  2 11  1  0
  2 18  1  0
  3 14  1  0
  7 18  2  0
  8 19  1  0
  9 19  2  0
 10 12  2  0
 10 14  1  0
 11 12  1  0
 11 15  2  0
 13 16  1  0
 13 18  1  0
 14 17  2  0
 15 17  1  0
 16 19  1  0
M  END
>  <PUBCHEM_COMPOUND_CID>  (1) 
43060

>  <PUBCHEM_CONFORMER_RMSD>  (1) 
0.8

>  <PUBCHEM_CONFORMER_DIVERSEORDER>  (1) 
1
69
5
94
79
119
58
82
117
59
30
45
113
71
21
88
16
41
123
75
57
116
22
52
102
80
78
24
66
56
96
84
101
25
70
35
86
91
67
6
68
29
37
44
124
114
121
10
47
39
99
33
125
32
103
17
81
40
51
104
9
64
83
13
38
126
62
53
95
60
27
89
85
72
26
43
73
90
19
93
3
87
31
122
55
110
23
2
8
50
11
76
36
74
65
15
108
111
34
4
118
98
77
48
106
63
61
14
127
92
97
120
100
7
28
18
107
20
54
112
105
109
46
49
42
115
12

>  <PUBCHEM_MMFF94_PARTIAL_CHARGES>  (1) 
25
1 1.49
10 -0.01
11 0.08
12 -0.15
13 0.06
14 0.08
15 -0.15
16 0.06
17 -0.15
18 0.66
19 0.66
2 -0.23
20 0.15
23 0.15
26 0.15
27 0.45
28 0.5
29 0.5
3 -0.53
4 -0.68
5 -0.65
6 -0.65
7 -0.57
8 -0.65
9 -0.57

>  <PUBCHEM_EFFECTIVE_ROTOR_COUNT>  (1) 
6

>  <PUBCHEM_PHARMACOPHORE_FEATURES>  (1) 
10
1 3 donor
1 4 acceptor
1 5 acceptor
1 6 acceptor
1 7 acceptor
1 8 acceptor
1 9 acceptor
3 8 9 19 anion
4 1 4 5 6 anion
6 10 11 12 14 15 17 rings

>  <PUBCHEM_HEAVY_ATOM_COUNT>  (1) 
19

>  <PUBCHEM_ATOM_DEF_STEREO_COUNT>  (1) 
0

>  <PUBCHEM_ATOM_UDEF_STEREO_COUNT>  (1) 
0

>  <PUBCHEM_BOND_DEF_STEREO_COUNT>  (1) 
0

>  <PUBCHEM_BOND_UDEF_STEREO_COUNT>  (1) 
0

>  <PUBCHEM_ISOTOPIC_ATOM_COUNT>  (1) 
0

>  <PUBCHEM_COMPONENT_COUNT>  (1) 
1

>  <PUBCHEM_CACTVS_TAUTO_COUNT>  (1) 
3

>  <PUBCHEM_CONFORMER_ID>  (1) 
0000A83400000001

>  <PUBCHEM_MMFF94_ENERGY>  (1) 
35.815

>  <PUBCHEM_FEATURE_SELFOVERLAP>  (1) 
50.862

>  <PUBCHEM_SHAPE_FINGERPRINT>  (1) 
10411042 1 17904484357140272011
10680689 15 18131350855779046566
10912923 1 17458341988031105134
11315181 36 17894628205710702590
12107183 9 17755286882569510242
12236239 1 17458343065577520006
12390115 104 18341907255104005281
12507557 5 18187082870997594333
12596602 18 16877948243274014128
12616971 3 16950560000553027134
14123255 352 18341610399854734324
1420 363 12324237253097899104
14251764 75 17196870176978089953
14573314 32 18273220781297738654
15042514 8 18122068864691521095
15209294 21 18187362121254773546
15880784 105 13551487976371504421
16079462 125 17703497888189834792
17844677 252 18339929324497322760
18915476 22 17274273742014013494
19489759 90 18411697707652455454
200 152 14562802291889410630
20281389 69 18334572426279112208
20510252 161 18411985754430367059
20645477 56 18411139129859573559
20645477 70 16917076512675409462
21033648 29 17703780445081449296
21150785 3 14261060026593082416
2297311 6 18339655524273696942
23175994 123 17274832397363680506
23402539 116 18411130372426778958
23557571 272 18341344357038331998
23559900 14 18270412594536391070
25122255 55 11530749368076364800
26918003 58 14201399369738152725
2916195 48 18271799177393268408
4214541 1 18409729577849548828
441001 317 18342457036555984136
5104073 3 18335985277082581298
59682541 35 18339374011470482329

>  <PUBCHEM_SHAPE_MULTIPOLES>  (1) 
347.91
12.64
2.04
1.01
19.8
0.06
0.13
5.57
1.09
-3.23
0.05
0.21
0.2
0.46

>  <PUBCHEM_SHAPE_SELFOVERLAP>  (1) 
713.11

>  <PUBCHEM_SHAPE_VOLUME>  (1) 
200.7

>  <PUBCHEM_COORDINATE_TYPE>  (1) 
2
5
10

$$$$
