43062
     RDKit          3D

 17 16  0  0  0  0  0  0  0  0999 V2000
    0.5266   -0.4044   -0.4111 O   0  0  0  0  0  0  0  0  0  0  0  0
   -3.1295    0.0033   -0.0429 N   0  0  0  0  0  0  0  0  0  0  0  0
    4.1323    0.2872    0.2572 N   0  0  0  0  0  0  0  0  0  0  0  0
   -1.8629   -0.5801   -0.5524 C   0  0  0  0  0  0  0  0  0  0  0  0
   -4.3421   -0.6654   -0.7047 C   0  0  0  0  0  0  0  0  0  0  0  0
   -3.1934    1.5078   -0.3385 C   0  0  0  0  0  0  0  0  0  0  0  0
   -3.2466   -0.1908    1.4750 C   0  0  0  0  0  0  0  0  0  0  0  0
   -0.6896    0.1248    0.0994 C   0  0  0  0  0  0  0  0  0  0  0  0
    2.9266   -0.3679   -0.4010 C   0  0  0  0  0  0  0  0  0  0  0  0
   -4.3459   -2.1395   -0.3637 C   0  0  0  0  0  0  0  0  0  0  0  0
   -3.0799    1.7277   -1.8311 C   0  0  0  0  0  0  0  0  0  0  0  0
   -4.5645    0.3809    1.9502 C   0  0  0  0  0  0  0  0  0  0  0  0
    5.3668    0.0581   -0.6027 C   0  0  0  0  0  0  0  0  0  0  0  0
    1.6570    0.2288    0.1735 C   0  0  0  0  0  0  0  0  0  0  0  0
    4.3525   -0.3233    1.6339 C   0  0  0  0  0  0  0  0  0  0  0  0
    3.8831    1.7819    0.3991 C   0  0  0  0  0  0  0  0  0  0  0  0
    5.6095   -1.4290   -0.7402 C   0  0  0  0  0  0  0  0  0  0  0  0
  1  8  1  0
  1 14  1  0
  2  4  1  0
  2  5  1  0
  2  6  1  0
  2  7  1  0
  3  9  1  0
  3 13  1  0
  3 15  1  0
  3 16  1  0
  4  8  1  0
  5 10  1  0
  6 11  1  0
  7 12  1  0
  9 14  1  0
 13 17  1  0
M  CHG  2   2   1   3   1
M  END
>  <PUBCHEM_COMPOUND_CID>  (1) 
43062

>  <PUBCHEM_CONFORMER_RMSD>  (1) 
1

>  <PUBCHEM_CONFORMER_DIVERSEORDER>  (1) 
1
63
60
51
3
50
29
74
15
57
4
30
34
65
2
78
58
26
71
9
73
52
41
84
53
77
20
38
75
39
87
72
43
35
45
27
81
64
8
86
16
36
12
31
46
79
42
49
85
33
82
7
54
22
25
11
83
32
14
56
10
69
6
59
19
61
5
70
13
48
55
24
21
23
62
44
66
68
28
17
37
67
40
80
47
76
18

>  <PUBCHEM_MMFF94_PARTIAL_CHARGES>  (1) 
13
1 -0.56
13 0.5
14 0.28
15 0.5
16 0.5
2 -1.01
3 -1.01
4 0.5
5 0.5
6 0.5
7 0.5
8 0.28
9 0.5

>  <PUBCHEM_EFFECTIVE_ROTOR_COUNT>  (1) 
10

>  <PUBCHEM_PHARMACOPHORE_FEATURES>  (1) 
3
1 1 acceptor
1 2 cation
1 3 cation

>  <PUBCHEM_HEAVY_ATOM_COUNT>  (1) 
17

>  <PUBCHEM_ATOM_DEF_STEREO_COUNT>  (1) 
0

>  <PUBCHEM_ATOM_UDEF_STEREO_COUNT>  (1) 
0

>  <PUBCHEM_BOND_DEF_STEREO_COUNT>  (1) 
0

>  <PUBCHEM_BOND_UDEF_STEREO_COUNT>  (1) 
0

>  <PUBCHEM_ISOTOPIC_ATOM_COUNT>  (1) 
0

>  <PUBCHEM_COMPONENT_COUNT>  (1) 
1

>  <PUBCHEM_CACTVS_TAUTO_COUNT>  (1) 
1

>  <PUBCHEM_CONFORMER_ID>  (1) 
0000A83600000001

>  <PUBCHEM_MMFF94_ENERGY>  (1) 
72.9012

>  <PUBCHEM_FEATURE_SELFOVERLAP>  (1) 
15.223

>  <PUBCHEM_SHAPE_FINGERPRINT>  (1) 
10366900 7 17676485068368145272
10680689 15 18260268542553626031
10912923 1 18341331175498941738
12091667 2 18040435486537009014
12616971 3 14836402558000661970
12916754 54 18270680982320098917
13073987 5 17489870470571605106
13167823 11 18201999949699624838
13675066 3 18259703398025001164
14123238 8 17167863071497570926
15375358 24 8502657017134999044
15788980 27 18335701624535825622
17844677 252 18333733511749777844
18186145 218 18272650143189196914
18222031 100 17749104526054496174
18927931 339 17894918425409840799
19433438 28 18113339712928627752
19489759 90 17894904127046760237
200 152 17168137975348489423
20645477 56 18335420111194793797
20645477 70 17989492914168397246
22485316 2 12540689332117696026
2297311 6 17458639899182993445
2306618 200 18412824669044195137
23402539 116 18412543201987187805
23402655 69 12973596738276438790
23557571 272 18412267207499698925
23559900 14 18336819896227511033
300161 21 8286209326938490086
4214541 1 18342175557273613822
5104073 3 17703791427102309362
5281201 14 18408605868576909860
542803 24 17418097624270146728
633830 44 17203611480103214308
90127 26 18187083957893299760

>  <PUBCHEM_SHAPE_MULTIPOLES>  (1) 
334.02
14.09
1.62
1.49
11.45
0.1
0.48
-2.42
0.47
-0.93
-0.52
-1.2
0.24
0.62

>  <PUBCHEM_SHAPE_SELFOVERLAP>  (1) 
614.288

>  <PUBCHEM_SHAPE_VOLUME>  (1) 
216.1

>  <PUBCHEM_COORDINATE_TYPE>  (1) 
2
5
10

$$$$
