43073
     RDKit          3D

 26 29  0  0  0  0  0  0  0  0999 V2000
    6.5333    0.9897   -0.6352 O   0  0  0  0  0  0  0  0  0  0  0  0
    0.6661   -3.2403    0.8193 O   0  0  0  0  0  0  0  0  0  0  0  0
    4.1372   -0.3654    0.0890 N   0  0  0  0  0  0  0  0  0  0  0  0
    0.4596   -1.0267    0.1591 N   0  0  0  0  0  0  0  0  0  0  0  0
   -0.1760    0.1806    0.2171 N   0  0  0  0  0  0  0  0  0  0  0  0
    2.7853   -0.4006    0.6428 C   0  0  0  0  0  0  0  0  0  0  0  0
    4.1971    0.5158   -1.0856 C   0  0  0  0  0  0  0  0  0  0  0  0
    5.1047    0.0794    1.1018 C   0  0  0  0  0  0  0  0  0  0  0  0
    1.8081   -0.9565   -0.3825 C   0  0  0  0  0  0  0  0  0  0  0  0
    5.6191    0.5455   -1.6384 C   0  0  0  0  0  0  0  0  0  0  0  0
    6.5054    0.1205    0.4975 C   0  0  0  0  0  0  0  0  0  0  0  0
   -1.3343   -2.1350    1.4541 C   0  0  0  0  0  0  0  0  0  0  0  0
    0.0161   -2.1917    0.7827 C   0  0  0  0  0  0  0  0  0  0  0  0
   -2.3895   -1.9401    0.4126 C   0  0  0  0  0  0  0  0  0  0  0  0
   -2.4177   -0.7480   -0.3161 C   0  0  0  0  0  0  0  0  0  0  0  0
   -1.4535    0.3304    0.0246 C   0  0  0  0  0  0  0  0  0  0  0  0
   -1.9839    1.7217    0.1487 C   0  0  0  0  0  0  0  0  0  0  0  0
   -3.3191   -2.9441    0.1182 C   0  0  0  0  0  0  0  0  0  0  0  0
   -3.3569   -0.5611   -1.3370 C   0  0  0  0  0  0  0  0  0  0  0  0
   -4.2624   -2.7559   -0.8927 C   0  0  0  0  0  0  0  0  0  0  0  0
   -4.2787   -1.5677   -1.6213 C   0  0  0  0  0  0  0  0  0  0  0  0
   -3.2927    1.9227    0.5680 C   0  0  0  0  0  0  0  0  0  0  0  0
   -1.1603    2.7979   -0.1555 C   0  0  0  0  0  0  0  0  0  0  0  0
   -3.7862    3.2221    0.6852 C   0  0  0  0  0  0  0  0  0  0  0  0
   -1.6538    4.0973   -0.0384 C   0  0  0  0  0  0  0  0  0  0  0  0
   -2.9668    4.3094    0.3820 C   0  0  0  0  0  0  0  0  0  0  0  0
  1 10  1  0
  1 11  1  0
  2 13  2  0
  3  6  1  0
  3  7  1  0
  3  8  1  0
  4  5  1  0
  4  9  1  0
  4 13  1  0
  5 16  2  0
  6  9  1  0
  7 10  1  0
  8 11  1  0
 12 13  1  0
 12 14  1  0
 14 15  2  0
 14 18  1  0
 15 16  1  0
 15 19  1  0
 16 17  1  0
 17 22  2  0
 17 23  1  0
 18 20  2  0
 19 21  2  0
 20 21  1  0
 22 24  1  0
 23 25  2  0
 24 26  2  0
 25 26  1  0
M  END
>  <PUBCHEM_COMPOUND_CID>  (1) 
43073

>  <PUBCHEM_CONFORMER_RMSD>  (1) 
0.8

>  <PUBCHEM_CONFORMER_DIVERSEORDER>  (1) 
2
14
44
38
48
34
17
4
43
20
36
26
31
24
29
19
6
46
39
22
15
35
5
41
47
30
40
3
27
42
10
8
9
16
32
1
25
7
33
23
21
28
37
45
11
18
12
13

>  <PUBCHEM_MMFF94_PARTIAL_CHARGES>  (1) 
35
1 -0.56
10 0.28
11 0.28
12 0.2
13 0.57
14 -0.14
15 0.09
16 0.28
17 0.09
18 -0.15
19 -0.15
2 -0.57
20 -0.15
21 -0.15
22 -0.15
23 -0.15
24 -0.15
25 -0.15
26 -0.15
3 -0.81
4 -0.3
41 0.15
42 0.15
43 0.15
44 0.15
45 0.15
46 0.15
47 0.15
48 0.15
49 0.15
5 -0.51
6 0.27
7 0.27
8 0.27
9 0.3

>  <PUBCHEM_EFFECTIVE_ROTOR_COUNT>  (1) 
5.6

>  <PUBCHEM_PHARMACOPHORE_FEATURES>  (1) 
8
1 1 acceptor
1 2 acceptor
1 3 cation
1 5 acceptor
6 1 3 7 8 10 11 rings
6 14 15 18 19 20 21 rings
6 17 22 23 24 25 26 rings
7 4 5 12 13 14 15 16 rings

>  <PUBCHEM_HEAVY_ATOM_COUNT>  (1) 
26

>  <PUBCHEM_ATOM_DEF_STEREO_COUNT>  (1) 
0

>  <PUBCHEM_ATOM_UDEF_STEREO_COUNT>  (1) 
0

>  <PUBCHEM_BOND_DEF_STEREO_COUNT>  (1) 
0

>  <PUBCHEM_BOND_UDEF_STEREO_COUNT>  (1) 
0

>  <PUBCHEM_ISOTOPIC_ATOM_COUNT>  (1) 
0

>  <PUBCHEM_COMPONENT_COUNT>  (1) 
1

>  <PUBCHEM_CACTVS_TAUTO_COUNT>  (1) 
1

>  <PUBCHEM_CONFORMER_ID>  (1) 
0000A84100000002

>  <PUBCHEM_MMFF94_ENERGY>  (1) 
88.1011

>  <PUBCHEM_FEATURE_SELFOVERLAP>  (1) 
40.61

>  <PUBCHEM_SHAPE_FINGERPRINT>  (1) 
10411042 1 18194964282405227203
10670039 82 18335708247992646420
10871710 139 18410575059500034029
10937287 8 17978509732977232297
1100329 8 18410856586343893649
11101153 10 18267585895938515092
11315181 36 17968376849217686466
11578080 2 16987181360739427605
12107183 9 17901658281796964658
12166972 35 17604990501724997094
12293681 160 18188472662823127307
12390115 104 18200043815381868425
12788726 201 18336258011463065259
13140716 1 18263931106338907003
13540713 5 18192696865837213875
13782708 43 17918281965648656598
13911987 19 18189617322440523342
14142880 1 18260831458326754701
14251764 75 17766287474620349633
14508225 48 18269825579627878789
14556957 393 18337111271320416781
14790565 3 17765437548047756857
15131766 46 15867209053888949829
15183329 4 17894348866266836958
15348495 7 11169912819067572726
15419009 47 17906473038920009286
16087824 20 18412542078109255981
16992727 255 18189317019334483397
20101258 96 18340212998138742553
20642791 35 18341597253524467113
21033650 10 18267891440095776628
21049683 271 18042679693297317607
21236236 1 18412262831022709514
21927370 108 18266192801794750307
22122407 14 15430038777415828350
23227448 37 18341052917205348509
23402539 116 18339356465353022046
23557571 272 18131078116686655828
23558518 356 18261959531192234602
23559900 14 18119521283248075768
23929065 36 18269252669344669968
249057 25 18040995160021370132
25147074 1 18189603969582119010
266924 87 18410289194597911078
283562 15 18408599275464604163
3610482 184 18044121032597313236
3633792 109 17458885077592214662
469060 322 18264794158299388347
5048184 11 18193278494481904104
508706 21 18341884212895139232
5171179 24 17987226905848912921
5219985 13 17979077081051550469
5252454 2 18196931063377218336
531348 171 18201160958235633366
57527585 103 17096674100046032851
5969126 39 18201146754329788399
6700243 42 17769412557480712854
7288768 16 17822868458964500537
7808743 9 18338517426565119528
9981440 41 18334296435738418426

>  <PUBCHEM_SHAPE_MULTIPOLES>  (1) 
508.39
12.27
4.8
1.24
26.41
4.07
-0.26
1.37
-2.93
-8.58
0.85
0.26
-0.43
-1.73

>  <PUBCHEM_SHAPE_SELFOVERLAP>  (1) 
1098.779

>  <PUBCHEM_SHAPE_VOLUME>  (1) 
276.4

>  <PUBCHEM_COORDINATE_TYPE>  (1) 
2
5
10

$$$$
