43070
     RDKit          3D

 17 17  0  0  0  0  0  0  0  0999 V2000
    5.1058    1.2677   -0.2590 O   0  0  0  0  0  0  0  0  0  0  0  0
   -2.9703   -0.3449   -0.3045 N   0  0  0  0  0  0  0  0  0  0  0  0
   -1.6417   -0.1318   -0.0907 N   0  0  0  0  0  0  0  0  0  0  0  0
   -0.9042   -0.7877   -0.8548 N   0  0  0  0  0  0  0  0  0  0  0  0
    5.1433   -0.4639    1.2439 N   0  0  0  0  0  0  0  0  0  0  0  0
   -3.8680    0.5527    0.4300 C   0  0  0  0  0  0  0  0  0  0  0  0
   -5.0338    0.9612   -0.4781 C   0  0  0  0  0  0  0  0  0  0  0  0
   -4.3959   -0.1868    1.6639 C   0  0  0  0  0  0  0  0  0  0  0  0
   -3.0753    1.7921    0.8589 C   0  0  0  0  0  0  0  0  0  0  0  0
   -3.5125   -1.5888   -0.7993 C   0  0  0  0  0  0  0  0  0  0  0  0
    0.4424   -0.5090   -0.5676 C   0  0  0  0  0  0  0  0  0  0  0  0
    1.1232   -1.2793    0.3705 C   0  0  0  0  0  0  0  0  0  0  0  0
    1.0867    0.5353   -1.2241 C   0  0  0  0  0  0  0  0  0  0  0  0
    3.1110    0.0424   -0.0008 C   0  0  0  0  0  0  0  0  0  0  0  0
    2.4606   -1.0029    0.6546 C   0  0  0  0  0  0  0  0  0  0  0  0
    2.4241    0.8116   -0.9401 C   0  0  0  0  0  0  0  0  0  0  0  0
    4.5048    0.3319    0.2973 C   0  0  0  0  0  0  0  0  0  0  0  0
  1 17  2  0
  2  3  1  0
  2  6  1  0
  2 10  1  0
  3  4  2  0
  4 11  1  0
  5 17  1  0
  6  7  1  0
  6  8  1  0
  6  9  1  0
 11 12  2  0
 11 13  1  0
 12 15  1  0
 13 16  2  0
 14 15  2  0
 14 16  1  0
 14 17  1  0
M  END
>  <PUBCHEM_COMPOUND_CID>  (1) 
43070

>  <PUBCHEM_CONFORMER_RMSD>  (1) 
0.6

>  <PUBCHEM_CONFORMER_DIVERSEORDER>  (1) 
1
11
3
6
10
12
13
5
9
4
2
7
8

>  <PUBCHEM_MMFF94_PARTIAL_CHARGES>  (1) 
20
1 -0.57
10 0.3
11 0.18
12 -0.15
13 -0.15
14 0.09
15 -0.15
16 -0.15
17 0.54
2 -0.54
3 -0.06
30 0.15
31 0.15
32 0.15
33 0.15
34 0.37
35 0.37
4 -0.18
5 -0.8
6 0.3

>  <PUBCHEM_EFFECTIVE_ROTOR_COUNT>  (1) 
4

>  <PUBCHEM_PHARMACOPHORE_FEATURES>  (1) 
4
1 1 acceptor
1 5 donor
4 6 7 8 9 hydrophobe
6 11 12 13 14 15 16 rings

>  <PUBCHEM_HEAVY_ATOM_COUNT>  (1) 
17

>  <PUBCHEM_ATOM_DEF_STEREO_COUNT>  (1) 
0

>  <PUBCHEM_ATOM_UDEF_STEREO_COUNT>  (1) 
0

>  <PUBCHEM_BOND_DEF_STEREO_COUNT>  (1) 
0

>  <PUBCHEM_BOND_UDEF_STEREO_COUNT>  (1) 
0

>  <PUBCHEM_ISOTOPIC_ATOM_COUNT>  (1) 
0

>  <PUBCHEM_COMPONENT_COUNT>  (1) 
1

>  <PUBCHEM_CACTVS_TAUTO_COUNT>  (1) 
2

>  <PUBCHEM_CONFORMER_ID>  (1) 
0000A83E00000001

>  <PUBCHEM_MMFF94_ENERGY>  (1) 
57.7145

>  <PUBCHEM_FEATURE_SELFOVERLAP>  (1) 
20.297

>  <PUBCHEM_SHAPE_FINGERPRINT>  (1) 
10354089 29 18260553324539181420
10366900 7 16988836168899990707
10498660 4 16916228754481559385
10912923 1 18337666512039298394
11089746 13 18270949193994928364
11132069 177 18343588425747470869
11796584 16 13479395151133358264
12107183 9 17691404114001745394
12236239 1 18408600370644003455
12251169 10 18113059341600055303
12507557 5 18260832613736617909
12596602 18 17895195527772345096
12670543 26 14117534133800106328
12916748 109 18131359604537413207
13288520 33 11746934278686720223
13675066 3 18259989253488500215
13760787 5 17385720318468401822
14252887 29 17167860834009552906
14350574 20 12103553213208529677
14386348 63 15357697470285189299
15188451 53 16516258452284190043
15209294 21 18411417297769579412
15880784 105 16660370293736711096
18186145 218 16845027744014442071
18785283 64 16009888310529366732
19050596 39 18334299785859848587
200 152 18187638146313787175
20432913 95 16370728123222114400
20645477 56 17632301176969364255
21637258 2 12396566465194508496
221357 26 13183018493431642067
221490 88 10447054287320405708
22854114 59 18040435499110642012
231179 274 16415477147393518678
23402539 116 18059565914680572911
23557571 272 16988570155504826463
23559900 14 17203341004996665638
26918003 58 17240484702178982033
2916195 48 17489294343916911146
3268164 11 16988552482194763085
351380 3 8142083161000364425
3545911 37 18272373057568946495
42 15 17022905639976182429
5104073 3 18114175393521240386
559249 180 8357994255077936141
58051976 100 9655580695385571051
5924683 9 17458635570484012523

>  <PUBCHEM_SHAPE_MULTIPOLES>  (1) 
324.06
11.64
1.41
1.21
1.67
0.05
0.18
2.71
2.84
-0.67
-0.02
-0.38
-0.02
-0.88

>  <PUBCHEM_SHAPE_SELFOVERLAP>  (1) 
664.142

>  <PUBCHEM_SHAPE_VOLUME>  (1) 
189.8

>  <PUBCHEM_COORDINATE_TYPE>  (1) 
2
5
10

$$$$
