43083
     RDKit          3D

 25 27  0  0  0  0  0  0  0  0999 V2000
   -3.5453   -0.8059   -1.8469 O   0  0  0  0  0  0  0  0  0  0  0  0
    0.7908   -0.1514   -0.4619 N   0  0  0  0  0  0  0  0  0  0  0  0
    3.6143   -0.1133   -0.0316 N   0  0  0  0  0  0  0  0  0  0  0  0
   -2.8165   -0.6674    0.3483 N   0  0  0  0  0  0  0  0  0  0  0  0
    5.6614   -1.3606    0.0125 N   0  0  0  0  0  0  0  0  0  0  0  0
   -8.9334    0.9829    0.9880 N   0  0  0  0  0  0  0  0  0  0  0  0
    1.3718   -0.8049    0.7170 C   0  0  0  0  0  0  0  0  0  0  0  0
    1.5793    1.0359   -0.8141 C   0  0  0  0  0  0  0  0  0  0  0  0
    2.8135   -1.2435    0.4487 C   0  0  0  0  0  0  0  0  0  0  0  0
    3.0273    0.6580   -1.1345 C   0  0  0  0  0  0  0  0  0  0  0  0
   -0.6028    0.2144   -0.2114 C   0  0  0  0  0  0  0  0  0  0  0  0
   -1.4300   -1.0340    0.0809 C   0  0  0  0  0  0  0  0  0  0  0  0
    5.0093   -0.1582    0.0699 C   0  0  0  0  0  0  0  0  0  0  0  0
    5.7080    1.0468    0.2293 C   0  0  0  0  0  0  0  0  0  0  0  0
    7.0943    1.0182    0.3314 C   0  0  0  0  0  0  0  0  0  0  0  0
   -3.7564   -0.5870   -0.6569 C   0  0  0  0  0  0  0  0  0  0  0  0
    7.0094   -1.3488    0.1155 C   0  0  0  0  0  0  0  0  0  0  0  0
    7.7651   -0.1984    0.2743 C   0  0  0  0  0  0  0  0  0  0  0  0
    7.8592    2.2866    0.5012 C   0  0  0  0  0  0  0  0  0  0  0  0
   -5.1168   -0.1750   -0.2250 C   0  0  0  0  0  0  0  0  0  0  0  0
   -5.9382    0.4636   -1.1304 C   0  0  0  0  0  0  0  0  0  0  0  0
   -5.5149   -0.4438    1.0683 C   0  0  0  0  0  0  0  0  0  0  0  0
   -7.2152    0.8512   -0.7246 C   0  0  0  0  0  0  0  0  0  0  0  0
   -6.7919   -0.0564    1.4742 C   0  0  0  0  0  0  0  0  0  0  0  0
   -7.6422    0.5911    0.5776 C   0  0  0  0  0  0  0  0  0  0  0  0
  1 16  2  0
  2  7  1  0
  2  8  1  0
  2 11  1  0
  3  9  1  0
  3 10  1  0
  3 13  1  0
  4 12  1  0
  4 16  1  0
  5 13  2  0
  5 17  1  0
  6 25  1  0
  7  9  1  0
  8 10  1  0
 11 12  1  0
 13 14  1  0
 14 15  2  0
 15 18  1  0
 15 19  1  0
 16 20  1  0
 17 18  2  0
 20 21  2  0
 20 22  1  0
 21 23  1  0
 22 24  2  0
 23 25  2  0
 24 25  1  0
M  END
>  <PUBCHEM_COMPOUND_CID>  (1) 
43083

>  <PUBCHEM_CONFORMER_RMSD>  (1) 
0.8

>  <PUBCHEM_CONFORMER_DIVERSEORDER>  (1) 
2
164
32
140
63
170
34
169
102
146
69
171
70
60
56
110
55
142
152
50
68
100
168
106
53
172
99
160
161
35
1
158
115
6
122
101
127
85
72
89
42
113
133
7
126
49
156
22
98
150
163
162
9
13
167
83
73
103
97
124
95
94
19
31
165
117
120
108
137
134
4
74
80
128
87
123
157
61
136
36
47
91
90
27
71
45
121
119
76
149
28
93
62
43
23
166
82
81
40
11
41
8
24
38
37
107
116
112
77
25
159
64
147
148
79
59
75
96
33
155
54
129
21
67
10
118
26
48
84
154
151
78
15
57
16
144
44
145
12
14
18
3
66
65
30
17
86
39
114
131
52
132
92
153
141
88
109
135
138
125
46
139
111
5
58
104
105
130
51
143
29
20

>  <PUBCHEM_MMFF94_PARTIAL_CHARGES>  (1) 
35
1 -0.57
10 0.37
11 0.27
12 0.3
13 0.41
14 -0.15
15 -0.14
16 0.54
17 0.16
18 -0.15
19 0.14
2 -0.81
20 0.09
21 -0.15
22 -0.15
23 -0.15
24 -0.15
25 0.1
3 -0.84
38 0.15
39 0.37
4 -0.73
40 0.15
41 0.15
45 0.15
46 0.15
47 0.15
48 0.15
49 0.4
5 -0.62
50 0.4
6 -0.9
7 0.27
8 0.27
9 0.37

>  <PUBCHEM_EFFECTIVE_ROTOR_COUNT>  (1) 
7.2

>  <PUBCHEM_PHARMACOPHORE_FEATURES>  (1) 
9
1 1 acceptor
1 2 cation
1 4 donor
1 6 cation
1 6 donor
3 3 5 13 cation
6 2 3 7 8 9 10 rings
6 20 21 22 23 24 25 rings
6 5 13 14 15 17 18 rings

>  <PUBCHEM_HEAVY_ATOM_COUNT>  (1) 
25

>  <PUBCHEM_ATOM_DEF_STEREO_COUNT>  (1) 
0

>  <PUBCHEM_ATOM_UDEF_STEREO_COUNT>  (1) 
0

>  <PUBCHEM_BOND_DEF_STEREO_COUNT>  (1) 
0

>  <PUBCHEM_BOND_UDEF_STEREO_COUNT>  (1) 
0

>  <PUBCHEM_ISOTOPIC_ATOM_COUNT>  (1) 
0

>  <PUBCHEM_COMPONENT_COUNT>  (1) 
1

>  <PUBCHEM_CACTVS_TAUTO_COUNT>  (1) 
3

>  <PUBCHEM_CONFORMER_ID>  (1) 
0000A84B00000002

>  <PUBCHEM_MMFF94_ENERGY>  (1) 
82.4665

>  <PUBCHEM_FEATURE_SELFOVERLAP>  (1) 
45.671

>  <PUBCHEM_SHAPE_FINGERPRINT>  (1) 
10 15 17822009826171860889
10066227 49 8574447425864114472
10299344 5 17846777407803365863
10319688 140 18196935470663153270
11181472 205 17560813078209438048
11315181 36 12103844571380008175
11524674 6 17821733849323651763
11638347 137 16226038978220299656
11646440 116 17894351085883863588
12089408 11 17846497028734204199
12166972 35 11746939784640369230
12236239 1 18272649064767667142
13073987 5 17096075888320952797
13673619 4 15430036578155026879
14170010 4 18113900472849395092
14251757 52 16773791537540769296
14251764 18 17775564251817686271
14251764 46 17749109984652064818
14617042 71 18267866259078177128
14933364 13 18040434386518985495
15183329 4 16630528435846652187
15419008 47 17603578634332714876
15461852 350 16200145530677855957
15690457 1 11097854103172956488
1577012 14 18273208729482596326
16120349 18 18341326768920803828
17093844 174 17967530186619993299
195137 175 17632298998877860281
20157964 124 18412825790362786722
2026 5 7853038064451151288
21095086 128 11891333157958521769
21150785 3 8430314632167919296
21267235 1 17385726876477040558
21521721 280 18409445917098624602
21792961 116 17096073706609714894
22224240 67 18186800296461874098
23576562 1 15266199514041142680
246663 6 14490194907930687201
24771293 8 18043524122580517028
3178227 256 17603305964280780136
4073 2 17458913737766342434
4325135 7 12391510880359118673
44555599 121 17846785130418724640
5758199 1 18334575754472481090
59682541 35 17531248382843119017
67123 10 18343020008738589811
9953998 17 17603308155426231923

>  <PUBCHEM_SHAPE_MULTIPOLES>  (1) 
483.71
29.34
1.4
1.13
9.04
0.26
0.1
8.07
-7.17
-2.47
-0.13
1.77
0.06
0.47

>  <PUBCHEM_SHAPE_SELFOVERLAP>  (1) 
1020.523

>  <PUBCHEM_SHAPE_VOLUME>  (1) 
270.1

>  <PUBCHEM_COORDINATE_TYPE>  (1) 
2
5
10

$$$$
