43080
     RDKit          3D

 36 42  0  0  0  0  0  0  0  0999 V2000
   -1.3248   -0.5914   -0.8529 C   0  0  0  0  0  0  0  0  0  0  0  0
    1.3247    0.5912   -0.8530 C   0  0  0  0  0  0  0  0  0  0  0  0
   -1.1145    0.8076   -0.8530 C   0  0  0  0  0  0  0  0  0  0  0  0
    1.1142   -0.8077   -0.8530 C   0  0  0  0  0  0  0  0  0  0  0  0
   -0.1662   -1.3964   -0.8528 C   0  0  0  0  0  0  0  0  0  0  0  0
    0.1661    1.3962   -0.8531 C   0  0  0  0  0  0  0  0  0  0  0  0
   -2.6224   -1.2194   -0.8524 C   0  0  0  0  0  0  0  0  0  0  0  0
    2.6223    1.2192   -0.8525 C   0  0  0  0  0  0  0  0  0  0  0  0
   -2.2452    1.7977   -0.8538 C   0  0  0  0  0  0  0  0  0  0  0  0
    2.2452   -1.7978   -0.8538 C   0  0  0  0  0  0  0  0  0  0  0  0
   -0.2873   -2.7897   -0.8524 C   0  0  0  0  0  0  0  0  0  0  0  0
    0.2872    2.7894   -0.8528 C   0  0  0  0  0  0  0  0  0  0  0  0
   -2.7053   -2.6359   -0.8519 C   0  0  0  0  0  0  0  0  0  0  0  0
    2.7053    2.6358   -0.8524 C   0  0  0  0  0  0  0  0  0  0  0  0
   -1.5369   -3.4004   -0.8519 C   0  0  0  0  0  0  0  0  0  0  0  0
    1.5368    3.4002   -0.8525 C   0  0  0  0  0  0  0  0  0  0  0  0
   -2.9355    1.9260    0.4840 C   0  0  0  0  0  0  0  0  0  0  0  0
    2.9355   -1.9259    0.4839 C   0  0  0  0  0  0  0  0  0  0  0  0
   -3.8508   -0.5116   -0.8526 C   0  0  0  0  0  0  0  0  0  0  0  0
    3.8506    0.5114   -0.8521 C   0  0  0  0  0  0  0  0  0  0  0  0
   -3.9542   -3.2806   -0.8512 C   0  0  0  0  0  0  0  0  0  0  0  0
    3.9542    3.2804   -0.8518 C   0  0  0  0  0  0  0  0  0  0  0  0
   -5.0866   -1.1646   -0.8519 C   0  0  0  0  0  0  0  0  0  0  0  0
    5.0864    1.1644   -0.8513 C   0  0  0  0  0  0  0  0  0  0  0  0
   -5.1381   -2.5498   -0.8510 C   0  0  0  0  0  0  0  0  0  0  0  0
    5.1380    2.5497   -0.8512 C   0  0  0  0  0  0  0  0  0  0  0  0
   -2.4944    1.1604    1.5509 C   0  0  0  0  0  0  0  0  0  0  0  0
   -3.9965    2.8066    0.6180 C   0  0  0  0  0  0  0  0  0  0  0  0
    2.4945   -1.1602    1.5508 C   0  0  0  0  0  0  0  0  0  0  0  0
    3.9966   -2.8064    0.6179 C   0  0  0  0  0  0  0  0  0  0  0  0
   -3.1319    1.2786    2.7860 C   0  0  0  0  0  0  0  0  0  0  0  0
   -4.6340    2.9249    1.8530 C   0  0  0  0  0  0  0  0  0  0  0  0
    3.1322   -1.2781    2.7859 C   0  0  0  0  0  0  0  0  0  0  0  0
    4.6343   -2.9245    1.8529 C   0  0  0  0  0  0  0  0  0  0  0  0
   -4.2017    2.1607    2.9370 C   0  0  0  0  0  0  0  0  0  0  0  0
    4.2021   -2.1603    2.9369 C   0  0  0  0  0  0  0  0  0  0  0  0
  1  3  1  0
  1  5  1  0
  1  7  2  0
  2  4  2  0
  2  6  1  0
  2  8  1  0
  3  6  2  0
  3  9  1  0
  4  5  1  0
  4 10  1  0
  5 11  2  0
  6 12  1  0
  7 13  1  0
  7 19  1  0
  8 14  2  0
  8 20  1  0
  9 17  1  0
 10 18  1  0
 11 15  1  0
 12 16  2  0
 13 15  2  0
 13 21  1  0
 14 16  1  0
 14 22  1  0
 17 27  2  0
 17 28  1  0
 18 29  2  0
 18 30  1  0
 19 23  2  0
 20 24  2  0
 21 25  2  0
 22 26  2  0
 23 25  1  0
 24 26  1  0
 27 31  1  0
 28 32  2  0
 29 33  1  0
 30 34  2  0
 31 35  2  0
 32 35  1  0
 33 36  2  0
 34 36  1  0
M  END
>  <PUBCHEM_COMPOUND_CID>  (1) 
43080

>  <PUBCHEM_CONFORMER_RMSD>  (1) 
0.8

>  <PUBCHEM_CONFORMER_DIVERSEORDER>  (1) 
1
2
3

>  <PUBCHEM_MMFF94_PARTIAL_CHARGES>  (1) 
50
10 0.29
11 -0.15
12 -0.15
15 -0.15
16 -0.15
17 -0.14
18 -0.14
19 -0.15
20 -0.15
21 -0.15
22 -0.15
23 -0.15
24 -0.15
25 -0.15
26 -0.15
27 -0.15
28 -0.15
29 -0.15
3 -0.14
30 -0.15
31 -0.15
32 -0.15
33 -0.15
34 -0.15
35 -0.15
36 -0.15
4 -0.14
41 0.15
42 0.15
43 0.15
44 0.15
45 0.15
46 0.15
47 0.15
48 0.15
49 0.15
50 0.15
51 0.15
52 0.15
53 0.15
54 0.15
55 0.15
56 0.15
57 0.15
58 0.15
59 0.15
60 0.15
61 0.15
62 0.15
9 0.29

>  <PUBCHEM_EFFECTIVE_ROTOR_COUNT>  (1) 
4

>  <PUBCHEM_PHARMACOPHORE_FEATURES>  (1) 
7
6 1 2 3 4 5 6 rings
6 1 5 7 11 13 15 rings
6 17 27 28 31 32 35 rings
6 18 29 30 33 34 36 rings
6 2 6 8 12 14 16 rings
6 7 13 19 21 23 25 rings
6 8 14 20 22 24 26 rings

>  <PUBCHEM_HEAVY_ATOM_COUNT>  (1) 
36

>  <PUBCHEM_ATOM_DEF_STEREO_COUNT>  (1) 
0

>  <PUBCHEM_ATOM_UDEF_STEREO_COUNT>  (1) 
0

>  <PUBCHEM_BOND_DEF_STEREO_COUNT>  (1) 
0

>  <PUBCHEM_BOND_UDEF_STEREO_COUNT>  (1) 
0

>  <PUBCHEM_ISOTOPIC_ATOM_COUNT>  (1) 
0

>  <PUBCHEM_COMPONENT_COUNT>  (1) 
1

>  <PUBCHEM_CACTVS_TAUTO_COUNT>  (1) 
1

>  <PUBCHEM_CONFORMER_ID>  (1) 
0000A84800000001

>  <PUBCHEM_MMFF94_ENERGY>  (1) 
209.4183

>  <PUBCHEM_FEATURE_SELFOVERLAP>  (1) 
35.622

>  <PUBCHEM_SHAPE_FINGERPRINT>  (1) 
10190206 1 18194414496547492340
1100329 8 18266741272779686405
11007060 377 18050302645851616236
11421498 54 18053111905900945291
11513181 2 17918003767157019543
12128747 34 16628268798140034586
12156800 1 17704074009821392744
12422481 6 18050567343914909003
12608794 3 18120925123690439301
12633257 1 18266458706881282399
12788726 201 18129945697430940143
13140716 1 18338797797370757556
133893 2 18040715895924078060
13540713 5 18410855460128162223
13583140 156 17676212329371037557
14028597 1 18194119852615008307
14117953 113 17978503135954724741
14178342 30 18200307694093701951
14705955 166 17773287146104926795
14725015 67 16247984494938325427
14955137 171 17901965045171867722
15297060 5 17416988169729861536
15347590 135 17762338423751836592
15351339 4 17545591713769450975
15420108 30 18341063929575380805
15684973 49 17846207852533375847
16112460 7 18409733932730382179
18603816 31 15143177374550144800
21033648 29 16343980295231617912
21421861 104 18115292484376649478
21796203 349 17900283926394791970
21814621 53 17346607379071103076
23559900 14 18272652346360402998
244849 19 16660646241570565725
25147074 1 18410575084663079196
283562 15 17907018726645467172
460360 51 18187642483718917093
469060 322 17677895815212736293
5895379 119 18272934903636956550

>  <PUBCHEM_SHAPE_MULTIPOLES>  (1) 
740.86
11.02
5.1
2.37
0
0
2.78
0
2.84
0
-0.12
0
0
-6.48

>  <PUBCHEM_SHAPE_SELFOVERLAP>  (1) 
1713.728

>  <PUBCHEM_SHAPE_VOLUME>  (1) 
346.2

>  <PUBCHEM_COORDINATE_TYPE>  (1) 
2
5
10

$$$$
