43087
     RDKit          3D

 14 15  0  0  0  0  0  0  0  0999 V2000
    2.5573   -1.2522   -0.0021 O   0  0  0  0  0  0  0  0  0  0  0  0
    2.0451    1.5848   -0.0043 O   0  0  0  0  0  0  0  0  0  0  0  0
   -2.8415    1.9609   -0.0725 O   0  0  0  0  0  0  0  0  0  0  0  0
   -3.6166   -0.0921   -0.0111 O   0  0  0  0  0  0  0  0  0  0  0  0
   -2.6624    0.7208   -0.0302 N   0  0  0  0  0  0  0  0  0  0  0  0
    1.2921   -0.7256    0.0090 C   0  0  0  0  0  0  0  0  0  0  0  0
    1.0438    0.6492   -0.0031 C   0  0  0  0  0  0  0  0  0  0  0  0
   -1.0837   -1.1534    0.0367 C   0  0  0  0  0  0  0  0  0  0  0  0
    3.5364   -0.2809   -0.3809 C   0  0  0  0  0  0  0  0  0  0  0  0
    3.3047    1.0180    0.3667 C   0  0  0  0  0  0  0  0  0  0  0  0
    0.2283   -1.6275    0.0440 C   0  0  0  0  0  0  0  0  0  0  0  0
   -1.3318    0.2191   -0.0032 C   0  0  0  0  0  0  0  0  0  0  0  0
   -0.2685    1.1221   -0.0247 C   0  0  0  0  0  0  0  0  0  0  0  0
   -2.2033   -2.1434    0.0757 C   0  0  0  0  0  0  0  0  0  0  0  0
  1  6  1  0
  1  9  1  0
  2  7  1  0
  2 10  1  0
  3  5  1  0
  4  5  2  0
  5 12  1  0
  6  7  2  0
  6 11  1  0
  7 13  1  0
  8 11  2  0
  8 12  1  0
  8 14  1  0
  9 10  1  0
 12 13  2  0
M  CHG  2   3  -1   5   1
M  END
>  <PUBCHEM_COMPOUND_CID>  (1) 
43087

>  <PUBCHEM_CONFORMER_RMSD>  (1) 
0.6

>  <PUBCHEM_CONFORMER_DIVERSEORDER>  (1) 
1

>  <PUBCHEM_MMFF94_PARTIAL_CHARGES>  (1) 
16
1 -0.36
10 0.28
11 -0.15
12 0.13
13 -0.15
14 0.14
19 0.15
2 -0.36
20 0.15
3 -0.52
4 -0.52
5 0.91
6 0.08
7 0.08
8 -0.14
9 0.28

>  <PUBCHEM_EFFECTIVE_ROTOR_COUNT>  (1) 
1.8

>  <PUBCHEM_PHARMACOPHORE_FEATURES>  (1) 
7
1 1 acceptor
1 2 acceptor
1 3 acceptor
1 3 anion
1 4 acceptor
6 1 2 6 7 9 10 rings
6 6 7 8 11 12 13 rings

>  <PUBCHEM_HEAVY_ATOM_COUNT>  (1) 
14

>  <PUBCHEM_ATOM_DEF_STEREO_COUNT>  (1) 
0

>  <PUBCHEM_ATOM_UDEF_STEREO_COUNT>  (1) 
0

>  <PUBCHEM_BOND_DEF_STEREO_COUNT>  (1) 
0

>  <PUBCHEM_BOND_UDEF_STEREO_COUNT>  (1) 
0

>  <PUBCHEM_ISOTOPIC_ATOM_COUNT>  (1) 
0

>  <PUBCHEM_COMPONENT_COUNT>  (1) 
1

>  <PUBCHEM_CACTVS_TAUTO_COUNT>  (1) 
1

>  <PUBCHEM_CONFORMER_ID>  (1) 
0000A84F00000001

>  <PUBCHEM_MMFF94_ENERGY>  (1) 
53.8322

>  <PUBCHEM_FEATURE_SELFOVERLAP>  (1) 
35.646

>  <PUBCHEM_SHAPE_FINGERPRINT>  (1) 
10608611 8 18412542145525706496
10967382 1 18410855430073953226
11132069 177 18410851100783861752
12491281 212 18339090310434634792
12932764 1 17458334235024337678
13380535 21 18410584989021330238
13380535 76 18411134736134728231
13897977 150 18411696599545520892
14144814 61 18409729538757103832
14325111 11 18410855451559547072
14897335 6 18411412925413646894
14911166 2 18340210683008646342
15219456 202 18271247217886571850
15279308 100 18410577240953056500
15442244 35 18338232644394798034
15536298 74 18343582958412260866
15775835 57 18334017155215149460
16945 1 18338232665642657658
17844478 74 18189347920859013411
18186145 218 18271529680289276069
193761 8 17977948217315638197
19973954 147 18337955709040010236
20201158 50 18342460322453963342
20510252 161 18270684306176387065
20871998 184 18200599223414837887
21501502 16 18337670918433079510
2334 1 18338799047343526730
23402539 116 18342165688013702837
23402655 69 18342164528451946589
23463225 33 18335137596503414954
23552423 10 18189054346996287934
23559900 14 18343305834865168806
25 1 18266176119703415581
2748010 2 18339645641248000038
528886 8 18411132541580234090
53812653 166 18342172302020810392
6333449 129 18411697720500427575
69090 78 18343298184779549143
7364860 26 18268708321031997458
8809292 202 18335145314396518538

>  <PUBCHEM_SHAPE_MULTIPOLES>  (1) 
259.66
5.52
2
0.61
0.66
0.17
0
-0.87
0.08
-0.88
-0.03
0.1
0.02
0.19

>  <PUBCHEM_SHAPE_SELFOVERLAP>  (1) 
562.248

>  <PUBCHEM_SHAPE_VOLUME>  (1) 
142.2

>  <PUBCHEM_COORDINATE_TYPE>  (1) 
2
5
10

$$$$
