43086
     RDKit          3D

  9  9  0  0  1  0  0  0  0  0999 V2000
   -1.6383   -2.0105   -0.6107 Cl  0  0  0  0  0  0  0  0  0  0  0  0
    1.6381   -2.0107    0.6107 Cl  0  0  0  0  0  0  0  0  0  0  0  0
   -2.6865    1.2234    0.4594 Cl  0  0  0  0  0  0  0  0  0  0  0  0
    2.6872    1.2230   -0.4584 Cl  0  0  0  0  0  0  0  0  0  0  0  0
   -0.7419   -0.6991    0.1800 C   0  0  0  0  0  0  0  0  0  0  0  0
    0.7417   -0.6992   -0.1802 C   0  0  0  0  0  0  0  0  0  0  0  0
   -1.1829    0.6807   -0.3097 C   0  0  0  0  0  0  0  0  0  0  0  0
    1.1825    0.6807    0.3096 C   0  0  0  0  0  0  0  0  0  0  0  0
    0.0001    1.6117   -0.0008 C   0  0  0  0  0  0  0  0  0  0  0  0
  1  5  1  0
  2  6  1  0
  3  7  1  0
  4  8  1  0
  5  6  1  0
  5  7  1  0
  6  8  1  0
  7  9  1  0
  8  9  1  0
M  END
>  <PUBCHEM_COMPOUND_CID>  (1) 
43086

>  <PUBCHEM_CONFORMER_RMSD>  (1) 
0.4

>  <PUBCHEM_CONFORMER_DIVERSEORDER>  (1) 
1
8
20
16
17
7
14
18
11
19
15
2
13
12
5
4
10
3
9
6

>  <PUBCHEM_MMFF94_PARTIAL_CHARGES>  (1) 
8
1 -0.29
2 -0.29
3 -0.29
4 -0.29
5 0.29
6 0.29
7 0.29
8 0.29

>  <PUBCHEM_EFFECTIVE_ROTOR_COUNT>  (1) 
1

>  <PUBCHEM_PHARMACOPHORE_FEATURES>  (1) 
1
5 5 6 7 8 9 rings

>  <PUBCHEM_HEAVY_ATOM_COUNT>  (1) 
9

>  <PUBCHEM_ATOM_DEF_STEREO_COUNT>  (1) 
0

>  <PUBCHEM_ATOM_UDEF_STEREO_COUNT>  (1) 
4

>  <PUBCHEM_BOND_DEF_STEREO_COUNT>  (1) 
0

>  <PUBCHEM_BOND_UDEF_STEREO_COUNT>  (1) 
0

>  <PUBCHEM_ISOTOPIC_ATOM_COUNT>  (1) 
0

>  <PUBCHEM_COMPONENT_COUNT>  (1) 
1

>  <PUBCHEM_CACTVS_TAUTO_COUNT>  (1) 
1

>  <PUBCHEM_CONFORMER_ID>  (1) 
0000A84E00000001

>  <PUBCHEM_MMFF94_ENERGY>  (1) 
22.2441

>  <PUBCHEM_FEATURE_SELFOVERLAP>  (1) 
5.074

>  <PUBCHEM_SHAPE_FINGERPRINT>  (1) 
12423570 1 11341648305224559807
13380535 21 18338530689059755526
16945 1 18410848867353693733
18185500 45 18410565219133963894
193761 8 18410570690911853414
21040471 1 18413387618338135889
23552423 10 18334573551328246878
2748010 2 18410857625013361607
5084963 1 17316180717357809276
528862 383 18261958423074263208
68250623 7 18410857659151794118

>  <PUBCHEM_SHAPE_MULTIPOLES>  (1) 
192.69
3.36
2.4
0.8
0
0.96
0
-0.96
0
0
0
0
0.11
-0.75

>  <PUBCHEM_SHAPE_SELFOVERLAP>  (1) 
344.296

>  <PUBCHEM_SHAPE_VOLUME>  (1) 
126.3

>  <PUBCHEM_COORDINATE_TYPE>  (1) 
2
5
10

$$$$
