43095
     RDKit          3D

 19 21  0  0  1  0  0  0  0  0999 V2000
   -0.5374   -1.1310   -1.1526 O   0  0  0  0  0  0  0  0  0  0  0  0
   -2.7085    0.1214   -0.4301 N   0  0  0  0  0  0  0  0  0  0  0  0
    0.8597    0.4688   -0.1911 N   0  0  0  0  0  0  0  0  0  0  0  0
    1.1372    1.8182    0.3856 C   0  0  0  0  0  0  0  0  0  0  0  0
   -2.6074   -0.6786    0.7987 C   0  0  0  0  0  0  0  0  0  0  0  0
   -3.9167    0.9581   -0.4212 C   0  0  0  0  0  0  0  0  0  0  0  0
    2.4581    1.6805    1.1716 C   0  0  0  0  0  0  0  0  0  0  0  0
   -3.8267   -1.5862    0.9679 C   0  0  0  0  0  0  0  0  0  0  0  0
   -5.1788    0.1037   -0.2920 C   0  0  0  0  0  0  0  0  0  0  0  0
   -5.1229   -0.7842    0.9457 C   0  0  0  0  0  0  0  0  0  0  0  0
   -1.5145    0.9486   -0.6015 C   0  0  0  0  0  0  0  0  0  0  0  0
    2.0669   -0.2700   -0.1499 C   0  0  0  0  0  0  0  0  0  0  0  0
    3.0270    0.4255    0.5900 C   0  0  0  0  0  0  0  0  0  0  0  0
   -0.3485   -0.0072   -0.6833 C   0  0  0  0  0  0  0  0  0  0  0  0
    1.2835    2.8719   -0.7184 C   0  0  0  0  0  0  0  0  0  0  0  0
    2.3663   -1.5051   -0.7061 C   0  0  0  0  0  0  0  0  0  0  0  0
    4.2996   -0.0874    0.7878 C   0  0  0  0  0  0  0  0  0  0  0  0
    3.6514   -2.0255   -0.5206 C   0  0  0  0  0  0  0  0  0  0  0  0
    4.6119   -1.3218    0.2194 C   0  0  0  0  0  0  0  0  0  0  0  0
  1 14  2  0
  2  5  1  0
  2  6  1  0
  2 11  1  0
  3  4  1  0
  3 12  1  0
  3 14  1  0
  4  7  1  0
  4 15  1  0
  5  8  1  0
  6  9  1  0
  7 13  1  0
  8 10  1  0
  9 10  1  0
 11 14  1  0
 12 13  2  0
 12 16  1  0
 13 17  1  0
 16 18  2  0
 17 19  2  0
 18 19  1  0
M  END
>  <PUBCHEM_COMPOUND_CID>  (1) 
43095

>  <PUBCHEM_CONFORMER_RMSD>  (1) 
0.6

>  <PUBCHEM_CONFORMER_DIVERSEORDER>  (1) 
4
17
11
15
18
7
5
14
10
21
16
12
19
8
6
9
20
13
2
22
3
1

>  <PUBCHEM_MMFF94_PARTIAL_CHARGES>  (1) 
19
1 -0.57
11 0.33
12 0.12
13 -0.14
14 0.57
16 -0.15
17 -0.15
18 -0.15
19 -0.15
2 -0.81
3 -0.48
38 0.15
39 0.15
4 0.3
40 0.15
41 0.15
5 0.27
6 0.27
7 0.14

>  <PUBCHEM_EFFECTIVE_ROTOR_COUNT>  (1) 
4.8

>  <PUBCHEM_PHARMACOPHORE_FEATURES>  (1) 
5
1 1 acceptor
1 2 cation
5 3 4 7 12 13 rings
6 12 13 16 17 18 19 rings
6 2 5 6 8 9 10 rings

>  <PUBCHEM_HEAVY_ATOM_COUNT>  (1) 
19

>  <PUBCHEM_ATOM_DEF_STEREO_COUNT>  (1) 
0

>  <PUBCHEM_ATOM_UDEF_STEREO_COUNT>  (1) 
1

>  <PUBCHEM_BOND_DEF_STEREO_COUNT>  (1) 
0

>  <PUBCHEM_BOND_UDEF_STEREO_COUNT>  (1) 
0

>  <PUBCHEM_ISOTOPIC_ATOM_COUNT>  (1) 
0

>  <PUBCHEM_COMPONENT_COUNT>  (1) 
1

>  <PUBCHEM_CACTVS_TAUTO_COUNT>  (1) 
1

>  <PUBCHEM_CONFORMER_ID>  (1) 
0000A85700000004

>  <PUBCHEM_MMFF94_ENERGY>  (1) 
48.6374

>  <PUBCHEM_FEATURE_SELFOVERLAP>  (1) 
25.457

>  <PUBCHEM_SHAPE_FINGERPRINT>  (1) 
11128504 68 14779273011552484470
11405975 8 18410300228995882313
11545043 162 17894634768863712939
11552529 35 17843689009097117131
11796584 16 17460301167053913954
12236239 1 16415474952295965383
12251169 10 18202282523992459527
12507560 40 18410290337264459401
12596602 18 16343694465153177675
12633257 1 18339095851517505291
128620 24 8934999278579831643
13134695 92 18060131042114438968
13140716 1 18057026112109605546
13533116 47 18273216426227222179
13583140 156 17773308148699965107
13675066 3 18413383246172074913
13911852 28 18198339542141407902
14252887 29 18130790014886689046
14341114 176 18411425016142269761
14386348 63 18334576823803234563
14790565 3 17689717884510186724
14866123 147 17402897721898133651
15422964 175 18337673010224603678
15527383 91 18272367573006420776
15653759 3 18261110777082130937
15885798 251 18336546023543419856
16752209 62 14996545318727384199
16945 1 17988629801650833100
17349148 13 17203889673872564975
17492 89 18117845627818086931
17804303 29 18113058233799036815
1813 80 17676207957299903060
18785283 64 18191022503128511836
19862831 5 12685092592124043119
200 152 17917986170907465487
20645477 70 18411412925413640455
21033648 29 17916848145891553257
21041028 32 18272934886330694968
21065198 57 18409449211116896873
21065199 12 18338516447417733217
21065201 7 17821441361912922481
21267235 1 18200879479121846814
21637258 2 16733251371151046066
2215653 11 18335413548510931391
23184049 59 18131349695931914454
23402539 116 18410284810263821149
23559900 14 18259983799291659765
26918003 58 18413106156552035635
2748010 2 17770485440738273708
314173 41 18260548913739565960
3421961 26 18411418410524824928
351380 180 18413105065894034339
42 15 18411982455515447975
465052 167 18410300228479313591
5104073 3 18342736265233112265
5895379 119 13110418908443049250
59755656 215 17676483935510025315
602551 16 17530965808238794747
7495541 125 18113902680098529748
9709674 26 18115874177646498083

>  <PUBCHEM_SHAPE_MULTIPOLES>  (1) 
375.18
10.46
2.21
1.07
8.12
0.88
-0.1
-4.17
-2.15
-1.61
0.19
0.07
-0.02
1.22

>  <PUBCHEM_SHAPE_SELFOVERLAP>  (1) 
793.793

>  <PUBCHEM_SHAPE_VOLUME>  (1) 
212

>  <PUBCHEM_COORDINATE_TYPE>  (1) 
2
5
10

$$$$
