43090
     RDKit          3D

 25 27  0  0  0  0  0  0  0  0999 V2000
   -6.5496   -0.1359   -0.4631 Cl  0  0  0  0  0  0  0  0  0  0  0  0
    2.5593   -3.8910   -0.1713 O   0  0  0  0  0  0  0  0  0  0  0  0
   -1.8598    2.2753   -1.2454 O   0  0  0  0  0  0  0  0  0  0  0  0
    5.1474    2.3627    0.9295 O   0  0  0  0  0  0  0  0  0  0  0  0
    3.1710    1.7880    1.8910 O   0  0  0  0  0  0  0  0  0  0  0  0
   -0.2124    0.8788   -0.5680 N   0  0  0  0  0  0  0  0  0  0  0  0
   -2.3396   -0.1290    1.1693 N   0  0  0  0  0  0  0  0  0  0  0  0
    2.0300    1.0361   -0.5119 C   0  0  0  0  0  0  0  0  0  0  0  0
    1.6904   -0.3345   -0.4306 C   0  0  0  0  0  0  0  0  0  0  0  0
    0.2917   -0.4222   -0.4622 C   0  0  0  0  0  0  0  0  0  0  0  0
    0.8605    1.7499   -0.5873 C   0  0  0  0  0  0  0  0  0  0  0  0
    3.3972    1.5989   -0.5106 C   0  0  0  0  0  0  0  0  0  0  0  0
    2.4590   -1.5131   -0.3302 C   0  0  0  0  0  0  0  0  0  0  0  0
   -0.3506   -1.6742   -0.4053 C   0  0  0  0  0  0  0  0  0  0  0  0
    0.7239    3.2230   -0.6815 C   0  0  0  0  0  0  0  0  0  0  0  0
   -1.5694    1.2669   -0.6104 C   0  0  0  0  0  0  0  0  0  0  0  0
    1.8185   -2.7522   -0.2681 C   0  0  0  0  0  0  0  0  0  0  0  0
    0.4322   -2.8291   -0.3064 C   0  0  0  0  0  0  0  0  0  0  0  0
   -2.6726    0.5382    0.0449 C   0  0  0  0  0  0  0  0  0  0  0  0
    3.8715    1.9035    0.8931 C   0  0  0  0  0  0  0  0  0  0  0  0
   -3.9430    0.5705   -0.4994 C   0  0  0  0  0  0  0  0  0  0  0  0
   -4.9457   -0.1332    0.1584 C   0  0  0  0  0  0  0  0  0  0  0  0
    3.9773   -3.7412   -0.1368 C   0  0  0  0  0  0  0  0  0  0  0  0
   -3.3403   -0.8014    1.7812 C   0  0  0  0  0  0  0  0  0  0  0  0
   -4.6469   -0.8350    1.3211 C   0  0  0  0  0  0  0  0  0  0  0  0
  1 22  1  0
  2 17  1  0
  2 23  1  0
  3 16  2  0
  4 20  1  0
  5 20  2  0
  6 10  1  0
  6 11  1  0
  6 16  1  0
  7 19  2  0
  7 24  1  0
  8  9  1  0
  8 11  2  0
  8 12  1  0
  9 10  2  0
  9 13  1  0
 10 14  1  0
 11 15  1  0
 12 20  1  0
 13 17  2  0
 14 18  2  0
 16 19  1  0
 17 18  1  0
 19 21  1  0
 21 22  2  0
 22 25  1  0
 24 25  2  0
M  END
>  <PUBCHEM_COMPOUND_CID>  (1) 
43090

>  <PUBCHEM_CONFORMER_RMSD>  (1) 
0.8

>  <PUBCHEM_CONFORMER_DIVERSEORDER>  (1) 
1
52
43
24
10
37
40
11
29
34
46
41
38
50
49
47
25
60
12
26
53
23
14
39
13
45
18
28
20
33
51
27
55
58
42
31
3
6
36
32
54
4
48
8
44
15
5
59
56
30
35
9
16
2
17
21
19
22
57
7

>  <PUBCHEM_MMFF94_PARTIAL_CHARGES>  (1) 
31
1 -0.18
10 -0.15
11 -0.33
12 0.24
13 -0.15
14 -0.15
15 0.18
16 0.49
17 0.08
18 -0.15
19 0.4
2 -0.36
20 0.66
21 -0.15
22 0.18
23 0.28
24 0.16
25 -0.15
28 0.15
29 0.15
3 -0.57
33 0.15
34 0.15
38 0.5
39 0.15
4 -0.65
40 0.15
5 -0.57
6 0.29
7 -0.62
8 -0.18

>  <PUBCHEM_EFFECTIVE_ROTOR_COUNT>  (1) 
5

>  <PUBCHEM_PHARMACOPHORE_FEATURES>  (1) 
9
1 2 acceptor
1 3 acceptor
1 4 acceptor
1 5 acceptor
1 7 acceptor
3 4 5 20 anion
5 6 8 9 10 11 rings
6 7 19 21 22 24 25 rings
6 9 10 13 14 17 18 rings

>  <PUBCHEM_HEAVY_ATOM_COUNT>  (1) 
25

>  <PUBCHEM_ATOM_DEF_STEREO_COUNT>  (1) 
0

>  <PUBCHEM_ATOM_UDEF_STEREO_COUNT>  (1) 
0

>  <PUBCHEM_BOND_DEF_STEREO_COUNT>  (1) 
0

>  <PUBCHEM_BOND_UDEF_STEREO_COUNT>  (1) 
0

>  <PUBCHEM_ISOTOPIC_ATOM_COUNT>  (1) 
0

>  <PUBCHEM_COMPONENT_COUNT>  (1) 
1

>  <PUBCHEM_CACTVS_TAUTO_COUNT>  (1) 
1

>  <PUBCHEM_CONFORMER_ID>  (1) 
0000A85200000001

>  <PUBCHEM_MMFF94_ENERGY>  (1) 
72.0617

>  <PUBCHEM_FEATURE_SELFOVERLAP>  (1) 
45.82

>  <PUBCHEM_SHAPE_FINGERPRINT>  (1) 
10074138 170 17833528465099313370
10165383 225 18270961362296940456
10411042 1 18121501250129024182
10493431 412 18269271447026142000
10906281 52 17968392216315857261
11578080 2 18059281064530318945
11796584 16 16298380301428377249
12236239 1 17489593385515817797
12403259 226 18120934997471924014
12596602 18 17274546529004632289
12788726 201 16750997213602818402
12839892 36 18264767855629893363
13140716 1 17979075208102385236
13533116 47 18342741784983433779
13540713 4 18189606147146375397
14223421 5 18335984147141879629
14787075 74 17559957795512590513
14790565 3 17903087964028756476
14863182 85 18262249896840295436
15375358 24 18186805807553286769
15475509 84 17769391430241600193
15927050 60 18270398421081322294
17974551 9 17473316077417199033
19591789 44 18410020935715189790
1979834 28 18336552706612714025
20028762 73 17910961558221202095
20511986 3 18060127761755774845
20603629 256 18271537402782821475
20642791 268 17629493994370702850
20645477 70 18334294254306176295
20771845 171 17895203233207125950
21033648 29 18199451315932696704
21054139 6 18056469785043591679
21285901 2 17894628137434390181
221490 88 18262526870633575623
22182313 1 18260821562358290044
22224240 67 18199461237364626576
23419403 2 17970614204507970190
23557571 272 17603585184415706213
23559900 14 18041286456628158599
2748010 2 18335416807937714452
33824 294 18410295821853105639
3421961 26 18337957783456733079
350125 39 18410859824326624684
392239 28 17629495343427861931
4340502 62 18129666425745714809
465052 167 17604430824473650233
469060 322 18119795061933640495
474 4 17202200913732581976
5104073 3 18339933615174861969
5265222 85 18264777743852819324
58807428 26 18340197618092665218
59755656 215 18409453583203661438
6669772 16 18270132309354935166
81228 2 17549249780908400766
9709674 26 18260272919642239383

>  <PUBCHEM_SHAPE_MULTIPOLES>  (1) 
482.92
10.26
4.03
1.21
11.38
2.52
0.54
-0.05
2.26
-6.76
-0.44
0.27
-0.39
1.73

>  <PUBCHEM_SHAPE_SELFOVERLAP>  (1) 
1049.887

>  <PUBCHEM_SHAPE_VOLUME>  (1) 
265.4

>  <PUBCHEM_COORDINATE_TYPE>  (1) 
2
5
10

$$$$
