43100
     RDKit          3D

 19 20  0  0  0  0  0  0  0  0999 V2000
   -0.2604    0.7383   -1.4033 O   0  0  0  0  0  0  0  0  0  0  0  0
    0.9994   -0.5691    0.0630 N   0  0  0  0  0  0  0  0  0  0  0  0
   -2.5016    0.0863   -0.2295 N   0  0  0  0  0  0  0  0  0  0  0  0
    1.1037   -1.6310    1.0859 C   0  0  0  0  0  0  0  0  0  0  0  0
    2.5790   -1.7550    1.4821 C   0  0  0  0  0  0  0  0  0  0  0  0
    2.2922   -0.0613   -0.1828 C   0  0  0  0  0  0  0  0  0  0  0  0
    3.2257   -0.7233    0.6173 C   0  0  0  0  0  0  0  0  0  0  0  0
   -1.4203   -0.8645   -0.0984 C   0  0  0  0  0  0  0  0  0  0  0  0
   -0.1712   -0.1458   -0.5512 C   0  0  0  0  0  0  0  0  0  0  0  0
   -2.2649    1.2729    0.6021 C   0  0  0  0  0  0  0  0  0  0  0  0
   -3.7878   -0.5244    0.1299 C   0  0  0  0  0  0  0  0  0  0  0  0
   -3.3985    2.2796    0.4239 C   0  0  0  0  0  0  0  0  0  0  0  0
   -4.0999   -1.6909   -0.8041 C   0  0  0  0  0  0  0  0  0  0  0  0
    2.6943    0.9371   -1.0582 C   0  0  0  0  0  0  0  0  0  0  0  0
    4.5749   -0.4070    0.5633 C   0  0  0  0  0  0  0  0  0  0  0  0
    4.0532    1.2621   -1.1191 C   0  0  0  0  0  0  0  0  0  0  0  0
    4.9873    0.5952   -0.3143 C   0  0  0  0  0  0  0  0  0  0  0  0
   -3.1662    3.5290    1.2595 C   0  0  0  0  0  0  0  0  0  0  0  0
   -5.4389   -2.3281   -0.4661 C   0  0  0  0  0  0  0  0  0  0  0  0
  1  9  2  0
  2  4  1  0
  2  6  1  0
  2  9  1  0
  3  8  1  0
  3 10  1  0
  3 11  1  0
  4  5  1  0
  5  7  1  0
  6  7  2  0
  6 14  1  0
  7 15  1  0
  8  9  1  0
 10 12  1  0
 11 13  1  0
 12 18  1  0
 13 19  1  0
 14 16  2  0
 15 17  2  0
 16 17  1  0
M  END
>  <PUBCHEM_COMPOUND_CID>  (1) 
43100

>  <PUBCHEM_CONFORMER_RMSD>  (1) 
0.8

>  <PUBCHEM_CONFORMER_DIVERSEORDER>  (1) 
1
24
13
17
16
9
8
23
18
20
6
12
5
3
15
19
4
10
11
14
7
22
2
21

>  <PUBCHEM_MMFF94_PARTIAL_CHARGES>  (1) 
19
1 -0.57
10 0.27
11 0.27
14 -0.15
15 -0.15
16 -0.15
17 -0.15
2 -0.48
3 -0.81
34 0.15
35 0.15
36 0.15
37 0.15
4 0.3
5 0.14
6 0.12
7 -0.14
8 0.33
9 0.57

>  <PUBCHEM_EFFECTIVE_ROTOR_COUNT>  (1) 
7.6

>  <PUBCHEM_PHARMACOPHORE_FEATURES>  (1) 
6
1 1 acceptor
1 18 hydrophobe
1 19 hydrophobe
1 3 cation
5 2 4 5 6 7 rings
6 6 7 14 15 16 17 rings

>  <PUBCHEM_HEAVY_ATOM_COUNT>  (1) 
19

>  <PUBCHEM_ATOM_DEF_STEREO_COUNT>  (1) 
0

>  <PUBCHEM_ATOM_UDEF_STEREO_COUNT>  (1) 
0

>  <PUBCHEM_BOND_DEF_STEREO_COUNT>  (1) 
0

>  <PUBCHEM_BOND_UDEF_STEREO_COUNT>  (1) 
0

>  <PUBCHEM_ISOTOPIC_ATOM_COUNT>  (1) 
0

>  <PUBCHEM_COMPONENT_COUNT>  (1) 
1

>  <PUBCHEM_CACTVS_TAUTO_COUNT>  (1) 
1

>  <PUBCHEM_CONFORMER_ID>  (1) 
0000A85C00000001

>  <PUBCHEM_MMFF94_ENERGY>  (1) 
51.3899

>  <PUBCHEM_FEATURE_SELFOVERLAP>  (1) 
30.531

>  <PUBCHEM_SHAPE_FINGERPRINT>  (1) 
10366900 7 18337954601017823075
10465860 228 18190467060808870968
10498660 4 17631733751249097088
11056379 131 18272376373489570399
11471102 20 17603862334566032038
11615757 297 18187078460139592494
12107183 9 17761208817325393883
12236239 1 18335699463888012863
12553582 1 18129368466822302687
12788726 201 18412259554406268243
12916748 109 18201440319950673198
13583140 156 17203029799533924230
14289901 80 18411702054159495771
14787075 74 18264491856757317481
15209294 21 18335425608252012784
15375358 24 15357690903106302051
15806764 133 16917345943851697969
17834072 33 18261388983409641319
19377110 9 18335139795468655515
19422 9 18408882902082552474
200 152 18260823843481880431
20645477 70 17023168423635522826
21065198 48 18335419036909475274
21426921 1 18272089379595889641
21503847 285 18118413851985384232
23402539 116 18413105091595481063
23503958 25 17632568340608811873
23557571 272 17632306657305689301
2838139 119 17344606340902474888
312423 11 18334014956202826686
3268164 11 17775279461305785677
3286 77 18411127065671095928
474 4 17822299006657666652
5104073 3 18260827060380464480
602551 16 17274251902110854254
633830 44 18115324297283592846
7097593 13 17974843965325651851
7495541 125 17131832122689585210
7615 1 18261669277417817665
7808743 9 18200318697473224337

>  <PUBCHEM_SHAPE_MULTIPOLES>  (1) 
375.18
10.92
2.71
1.22
1.31
1.87
-0.08
-1.39
0.87
4.49
-0.96
-0.46
0.1
-2.72

>  <PUBCHEM_SHAPE_SELFOVERLAP>  (1) 
770.328

>  <PUBCHEM_SHAPE_VOLUME>  (1) 
219.7

>  <PUBCHEM_COORDINATE_TYPE>  (1) 
2
5
10

$$$$
