43102
     RDKit          3D

 19 20  0  0  0  0  0  0  0  0999 V2000
   -0.4449    1.3258   -0.9772 O   0  0  0  0  0  0  0  0  0  0  0  0
   -2.7043    0.2327   -0.2519 N   0  0  0  0  0  0  0  0  0  0  0  0
    0.7916   -0.5096   -0.2360 N   0  0  0  0  0  0  0  0  0  0  0  0
   -2.4802    0.9184    1.0269 C   0  0  0  0  0  0  0  0  0  0  0  0
   -3.9960   -0.4650   -0.2225 C   0  0  0  0  0  0  0  0  0  0  0  0
   -1.6254   -0.6837   -0.5463 C   0  0  0  0  0  0  0  0  0  0  0  0
    0.8797   -1.9182    0.2029 C   0  0  0  0  0  0  0  0  0  0  0  0
    2.3485   -2.2174    0.5218 C   0  0  0  0  0  0  0  0  0  0  0  0
    2.0882    0.0452   -0.2100 C   0  0  0  0  0  0  0  0  0  0  0  0
    3.0090   -0.9121    0.2209 C   0  0  0  0  0  0  0  0  0  0  0  0
   -0.3692    0.1527   -0.6112 C   0  0  0  0  0  0  0  0  0  0  0  0
   -1.1781    1.7129    0.9802 C   0  0  0  0  0  0  0  0  0  0  0  0
   -2.4562   -0.1073    2.1558 C   0  0  0  0  0  0  0  0  0  0  0  0
   -4.2769   -1.1155   -1.5742 C   0  0  0  0  0  0  0  0  0  0  0  0
   -5.0978    0.5218    0.1503 C   0  0  0  0  0  0  0  0  0  0  0  0
    2.5041    1.3273   -0.5387 C   0  0  0  0  0  0  0  0  0  0  0  0
    4.3589   -0.6149    0.3332 C   0  0  0  0  0  0  0  0  0  0  0  0
    3.8639    1.6353   -0.4285 C   0  0  0  0  0  0  0  0  0  0  0  0
    4.7852    0.6715    0.0044 C   0  0  0  0  0  0  0  0  0  0  0  0
  1 11  2  0
  2  4  1  0
  2  5  1  0
  2  6  1  0
  3  7  1  0
  3  9  1  0
  3 11  1  0
  4 12  1  0
  4 13  1  0
  5 14  1  0
  5 15  1  0
  6 11  1  0
  7  8  1  0
  8 10  1  0
  9 10  2  0
  9 16  1  0
 10 17  1  0
 16 18  2  0
 17 19  2  0
 18 19  1  0
M  END
>  <PUBCHEM_COMPOUND_CID>  (1) 
43102

>  <PUBCHEM_CONFORMER_RMSD>  (1) 
0.8

>  <PUBCHEM_CONFORMER_DIVERSEORDER>  (1) 
1
7
5
6
4
3
2

>  <PUBCHEM_MMFF94_PARTIAL_CHARGES>  (1) 
19
1 -0.57
10 -0.14
11 0.57
16 -0.15
17 -0.15
18 -0.15
19 -0.15
2 -0.81
3 -0.48
4 0.27
40 0.15
41 0.15
42 0.15
43 0.15
5 0.27
6 0.33
7 0.3
8 0.14
9 0.12

>  <PUBCHEM_EFFECTIVE_ROTOR_COUNT>  (1) 
5.6

>  <PUBCHEM_PHARMACOPHORE_FEATURES>  (1) 
6
1 1 acceptor
1 2 cation
3 4 12 13 hydrophobe
3 5 14 15 hydrophobe
5 3 7 8 9 10 rings
6 9 10 16 17 18 19 rings

>  <PUBCHEM_HEAVY_ATOM_COUNT>  (1) 
19

>  <PUBCHEM_ATOM_DEF_STEREO_COUNT>  (1) 
0

>  <PUBCHEM_ATOM_UDEF_STEREO_COUNT>  (1) 
0

>  <PUBCHEM_BOND_DEF_STEREO_COUNT>  (1) 
0

>  <PUBCHEM_BOND_UDEF_STEREO_COUNT>  (1) 
0

>  <PUBCHEM_ISOTOPIC_ATOM_COUNT>  (1) 
0

>  <PUBCHEM_COMPONENT_COUNT>  (1) 
1

>  <PUBCHEM_CACTVS_TAUTO_COUNT>  (1) 
1

>  <PUBCHEM_CONFORMER_ID>  (1) 
0000A85E00000001

>  <PUBCHEM_MMFF94_ENERGY>  (1) 
104.5374

>  <PUBCHEM_FEATURE_SELFOVERLAP>  (1) 
30.532

>  <PUBCHEM_SHAPE_FINGERPRINT>  (1) 
10090160 65 18333444356944228246
10366900 7 17895200978412604960
10498660 4 15912774864527490673
11471102 20 18333447651690234838
11578080 2 17913173608276235753
11615757 297 18342175557500499424
12107183 9 17620759384042142475
12236239 1 18201718457257727575
12500047 106 15213014964121204403
12670545 47 17458637717529634586
12788726 201 17703231711691531873
128620 24 18202562882145629022
13009979 54 17771343068076640242
13140716 1 18189331445844370866
13224815 77 18409455773315228698
13583140 156 16805602624644791024
13760787 19 18272931622613946679
13862211 1 18262232202493511466
14251717 144 18335419067169451070
14251764 18 18202569489213799611
14289901 80 18270683065036339994
14341114 328 18202568375435219953
14386348 63 17022908934184534499
14787075 74 18201154472301817840
14844126 61 16025903341269820690
15309172 13 18334581248083688666
15375358 24 17240761782997953987
15375462 189 18343580759389109299
16945 1 18260554398729476350
17349148 13 18040996249877335969
17834072 14 17676490544688765753
17834072 33 18272649069046511335
19050596 39 18341894082349689595
19422 9 18060423473768616086
200 152 18411415116137053229
20279233 1 17022626359706771554
204376 136 18188496890548507942
20511986 3 18270664412404946709
20600515 1 15864077546078089405
20645477 70 18186796955103820590
20715895 44 17836925595336907177
21267235 1 18410863131330396046
21682296 61 18192431862719674130
22094290 60 15482680073748162649
22854114 111 18408044000870551844
22854114 59 18334295366291067220
23048698 100 18341615897275729634
23402539 116 17632289094862325149
23557571 272 15913336770709003905
23559900 14 15936408910475422698
26918003 58 17967254199714896337
2748010 2 17901936453816937854
296302 2 18113058242230722285
312423 11 18199761258004560578
33824 294 18186237316754703578
4340502 62 17894355475619878843
4409770 3 16176239566135184478
474 4 18335142037679161484
5104073 3 18337389340213481401
5283173 99 17386553662282950093
602551 16 16128080269305854767
6034566 193 17029673357690256620
7495541 125 15267055982544466010
81228 2 16372134291241236429
8272917 22 18337675213200091031
9709674 26 18114747027360853107

>  <PUBCHEM_SHAPE_MULTIPOLES>  (1) 
375.18
9.68
1.82
1.24
1.36
0.3
0.36
-0.53
-0.77
-1.06
0.1
1.26
-0.01
-1.24

>  <PUBCHEM_SHAPE_SELFOVERLAP>  (1) 
789.021

>  <PUBCHEM_SHAPE_VOLUME>  (1) 
214.7

>  <PUBCHEM_COORDINATE_TYPE>  (1) 
2
5
10

$$$$
