43112
     RDKit          3D

 17 18  0  0  1  0  0  0  0  0999 V2000
   -2.3042   -0.2092   -0.6400 O   0  0  0  0  0  0  0  0  0  0  0  0
   -1.8736    1.5281    0.8711 O   0  0  0  0  0  0  0  0  0  0  0  0
   -4.0507   -2.4376   -0.2336 O   0  0  0  0  0  0  0  0  0  0  0  0
   -1.4490    0.9192   -0.3651 C   0  0  0  0  0  0  0  0  0  0  0  0
   -2.9835   -0.4660    0.5909 C   0  0  0  0  0  0  0  0  0  0  0  0
   -3.1214    0.9106    1.1874 C   0  0  0  0  0  0  0  0  0  0  0  0
    0.0065    0.4855   -0.2723 C   0  0  0  0  0  0  0  0  0  0  0  0
   -1.6321    1.9320   -1.4947 C   0  0  0  0  0  0  0  0  0  0  0  0
   -4.3031   -1.1617    0.3355 C   0  0  0  0  0  0  0  0  0  0  0  0
    0.8926    1.1888    0.5431 C   0  0  0  0  0  0  0  0  0  0  0  0
    0.4541   -0.6145   -1.0036 C   0  0  0  0  0  0  0  0  0  0  0  0
    2.6752   -0.3083   -0.1037 C   0  0  0  0  0  0  0  0  0  0  0  0
    4.1020   -0.7331   -0.0137 C   0  0  0  0  0  0  0  0  0  0  0  0
    2.2271    0.7919    0.6275 C   0  0  0  0  0  0  0  0  0  0  0  0
    1.7887   -1.0116   -0.9192 C   0  0  0  0  0  0  0  0  0  0  0  0
    4.4991   -1.1651    1.4107 C   0  0  0  0  0  0  0  0  0  0  0  0
    5.0724    0.3509   -0.5202 C   0  0  0  0  0  0  0  0  0  0  0  0
  1  4  1  0
  1  5  1  0
  2  4  1  0
  2  6  1  0
  3  9  1  0
  4  7  1  0
  4  8  1  0
  5  6  1  0
  5  9  1  0
  7 10  2  0
  7 11  1  0
 10 14  1  0
 11 15  2  0
 12 13  1  0
 12 14  2  0
 12 15  1  0
 13 16  1  0
 13 17  1  0
M  END
>  <PUBCHEM_COMPOUND_CID>  (1) 
43112

>  <PUBCHEM_CONFORMER_RMSD>  (1) 
0.6

>  <PUBCHEM_CONFORMER_DIVERSEORDER>  (1) 
2
39
14
41
30
27
15
37
17
40
31
10
26
34
42
16
32
33
36
25
7
12
11
24
13
20
38
8
5
21
22
1
9
18
35
19
6
4
3
29
28
23

>  <PUBCHEM_MMFF94_PARTIAL_CHARGES>  (1) 
19
1 -0.56
10 -0.15
11 -0.15
12 -0.14
13 0.14
14 -0.15
15 -0.15
2 -0.56
26 0.15
27 0.15
29 0.15
3 -0.68
30 0.15
37 0.4
4 0.7
5 0.28
6 0.28
7 -0.14
9 0.28

>  <PUBCHEM_EFFECTIVE_ROTOR_COUNT>  (1) 
4

>  <PUBCHEM_PHARMACOPHORE_FEATURES>  (1) 
7
1 1 acceptor
1 2 acceptor
1 3 acceptor
1 3 donor
3 13 16 17 hydrophobe
5 1 2 4 5 6 rings
6 7 10 11 12 14 15 rings

>  <PUBCHEM_HEAVY_ATOM_COUNT>  (1) 
17

>  <PUBCHEM_ATOM_DEF_STEREO_COUNT>  (1) 
0

>  <PUBCHEM_ATOM_UDEF_STEREO_COUNT>  (1) 
2

>  <PUBCHEM_BOND_DEF_STEREO_COUNT>  (1) 
0

>  <PUBCHEM_BOND_UDEF_STEREO_COUNT>  (1) 
0

>  <PUBCHEM_ISOTOPIC_ATOM_COUNT>  (1) 
0

>  <PUBCHEM_COMPONENT_COUNT>  (1) 
1

>  <PUBCHEM_CACTVS_TAUTO_COUNT>  (1) 
1

>  <PUBCHEM_CONFORMER_ID>  (1) 
0000A86800000002

>  <PUBCHEM_MMFF94_ENERGY>  (1) 
43.9311

>  <PUBCHEM_FEATURE_SELFOVERLAP>  (1) 
35.565

>  <PUBCHEM_SHAPE_FINGERPRINT>  (1) 
10366900 7 17821737165032700176
11046707 91 18408603677821601259
11132069 177 18343027653110418311
11401426 45 12468639456431437180
12251169 10 17846782922794425631
12633257 1 18059872678809922467
12670543 26 11386357111675678322
12916754 54 18335421261940015340
13214271 11 17775286019483521481
13581323 91 18408040702235383374
13583140 156 18194093301749657384
13675066 3 16702304533723014232
13760787 19 18041562412914583544
14178342 30 18200319792567863635
14251752 14 17313373501585890623
14252887 29 17060066925788113646
14289901 80 17749390334959377512
14787075 74 18334861662335157736
14943859 89 13183018514405123252
14993402 34 14706928445200986938
15099037 37 18411418393096990431
15309172 13 17561079185613685710
15534591 1 10447932754688755357
15653759 3 18410291380809546288
16945 1 17703496710936285100
1813 80 18041860466327991661
18186145 218 14692563304731262918
18785283 64 17843672503585142232
19026448 4 17458907025196305124
19026448 5 17531248297486949012
19862831 5 14201400482034351488
200 152 16950282914210038055
20028762 73 17559670831568280383
20261772 1 17632576101678259454
20281475 54 18410012092282380074
20361792 2 17676498280283679045
20681677 274 18128813221622978851
21256008 23 17274825740143324408
22485316 2 18114181908606936504
22854114 59 17346877845139207930
23402539 116 17385444310436283109
23402655 69 11819261274654096587
23500284 214 11023830591255980119
23557571 272 18188495674798996204
23559900 14 18335413616566003617
25 1 8790617987236387869
26918003 58 18272931635562171475
2748010 2 17486213306088041492
3286 77 18272651298234953209
4028521 119 8142095247180805639
5104073 3 18201720660691963306
57100710 210 18113612357225653398
633830 44 16558742396096776604
76465 3 18187638111442417370
9882013 296 18411422808450061998

>  <PUBCHEM_SHAPE_MULTIPOLES>  (1) 
332.24
9.2
1.76
1.22
4.17
0.21
-0.04
4
-1.61
-1.64
0.19
0.04
-0.16
-0.32

>  <PUBCHEM_SHAPE_SELFOVERLAP>  (1) 
691.247

>  <PUBCHEM_SHAPE_VOLUME>  (1) 
191.4

>  <PUBCHEM_COORDINATE_TYPE>  (1) 
2
5
10

$$$$
