43113
     RDKit          3D

 14 15  0  0  1  0  0  0  0  0999 V2000
   -4.7550   -0.5653   -0.4704 Cl  0  0  0  0  0  0  0  0  0  0  0  0
    1.8423   -0.7166    0.5867 O   0  0  0  0  0  0  0  0  0  0  0  0
    1.6503    1.3118   -0.5693 O   0  0  0  0  0  0  0  0  0  0  0  0
    1.0994    0.5166    0.5001 C   0  0  0  0  0  0  0  0  0  0  0  0
    2.5771   -0.7914   -0.6368 C   0  0  0  0  0  0  0  0  0  0  0  0
    2.8626    0.6562   -0.9417 C   0  0  0  0  0  0  0  0  0  0  0  0
   -0.3770    0.2432    0.2540 C   0  0  0  0  0  0  0  0  0  0  0  0
    1.2893    1.2712    1.8153 C   0  0  0  0  0  0  0  0  0  0  0  0
    3.8177   -1.6404   -0.4616 C   0  0  0  0  0  0  0  0  0  0  0  0
   -1.1500    1.1682   -0.4475 C   0  0  0  0  0  0  0  0  0  0  0  0
   -0.9573   -0.9320    0.7312 C   0  0  0  0  0  0  0  0  0  0  0  0
   -2.5039    0.9180   -0.6719 C   0  0  0  0  0  0  0  0  0  0  0  0
   -2.3111   -1.1822    0.5067 C   0  0  0  0  0  0  0  0  0  0  0  0
   -3.0844   -0.2573   -0.1947 C   0  0  0  0  0  0  0  0  0  0  0  0
  1 14  1  0
  2  4  1  0
  2  5  1  0
  3  4  1  0
  3  6  1  0
  4  7  1  0
  4  8  1  0
  5  6  1  0
  5  9  1  0
  7 10  2  0
  7 11  1  0
 10 12  1  0
 11 13  2  0
 12 14  2  0
 13 14  1  0
M  END
>  <PUBCHEM_COMPOUND_CID>  (1) 
43113

>  <PUBCHEM_CONFORMER_RMSD>  (1) 
0.6

>  <PUBCHEM_CONFORMER_DIVERSEORDER>  (1) 
1
4
5
2
3

>  <PUBCHEM_MMFF94_PARTIAL_CHARGES>  (1) 
16
1 -0.18
10 -0.15
11 -0.15
12 -0.15
13 -0.15
14 0.18
2 -0.56
24 0.15
25 0.15
26 0.15
27 0.15
3 -0.56
4 0.7
5 0.28
6 0.28
7 -0.14

>  <PUBCHEM_EFFECTIVE_ROTOR_COUNT>  (1) 
2

>  <PUBCHEM_PHARMACOPHORE_FEATURES>  (1) 
4
1 2 acceptor
1 3 acceptor
5 2 3 4 5 6 rings
6 7 10 11 12 13 14 rings

>  <PUBCHEM_HEAVY_ATOM_COUNT>  (1) 
14

>  <PUBCHEM_ATOM_DEF_STEREO_COUNT>  (1) 
0

>  <PUBCHEM_ATOM_UDEF_STEREO_COUNT>  (1) 
2

>  <PUBCHEM_BOND_DEF_STEREO_COUNT>  (1) 
0

>  <PUBCHEM_BOND_UDEF_STEREO_COUNT>  (1) 
0

>  <PUBCHEM_ISOTOPIC_ATOM_COUNT>  (1) 
0

>  <PUBCHEM_COMPONENT_COUNT>  (1) 
1

>  <PUBCHEM_CACTVS_TAUTO_COUNT>  (1) 
1

>  <PUBCHEM_CONFORMER_ID>  (1) 
0000A86900000001

>  <PUBCHEM_MMFF94_ENERGY>  (1) 
34.2311

>  <PUBCHEM_FEATURE_SELFOVERLAP>  (1) 
20.339

>  <PUBCHEM_SHAPE_FINGERPRINT>  (1) 
12032990 46 18334017224620577883
12186901 62 17676205724291260511
12251169 10 11743832556189786662
12326174 3 17131832131321789408
12897270 3 18040723596805558308
12932764 1 17917709153816807133
13538477 17 16732974375455739043
13571099 22 18410857680911194455
13581323 91 13542468665514268591
13675066 3 13830137191593426143
13705890 14 18408325471467763006
14993402 34 16950282901673367503
16945 1 18113618945599762888
18186145 218 17748819722704867261
19026448 5 16773513382547267555
19422 9 18341901779179055813
200 152 18202846534713132183
20201158 50 18340211803800334374
20279233 1 18341047514135924986
20361792 2 17060623274134265992
20559304 39 17023444392110479033
20645477 70 18412829087885171383
20671657 53 18337119947570624110
20871999 31 18041566840535327229
21119208 17 17458631098637014894
21296965 67 17775284911466011082
21501925 9 13758071900742040467
22802520 49 18188221973522693178
23402539 116 18261669268638018332
23402655 69 18260827090366152821
23403322 49 18198065768362649950
23493267 7 16805608040804279577
23557571 272 18261097578621860688
23559900 14 18334857255625014772
2748010 2 17971194965664257267
296302 2 8430311342645015783
3060560 45 17385437739147220414
3286 77 17989481931419750861
369184 2 10735880547530033341
42 15 13182748039124494437
4990 188 18260546727854673191
7364860 26 18339079410150931388
76465 3 17917418835529100591
93112 12 18114186340828738630

>  <PUBCHEM_SHAPE_MULTIPOLES>  (1) 
278.24
6.87
1.51
1.15
3.3
0.06
0.3
2.75
-1.96
-0.76
0.09
-0.4
-0.32
0.5

>  <PUBCHEM_SHAPE_SELFOVERLAP>  (1) 
577.421

>  <PUBCHEM_SHAPE_VOLUME>  (1) 
161.9

>  <PUBCHEM_COORDINATE_TYPE>  (1) 
2
5
10

$$$$
