43128
     RDKit          3D

 17 18  0  0  0  0  0  0  0  0999 V2000
    5.7878    0.9094   -0.9498 F   0  0  0  0  0  0  0  0  0  0  0  0
    0.3868   -0.3655    1.9772 O   0  0  0  0  0  0  0  0  0  0  0  0
   -3.5155    0.1793    0.1381 N   0  0  0  0  0  0  0  0  0  0  0  0
   -4.0148    1.5327   -0.1032 C   0  0  0  0  0  0  0  0  0  0  0  0
   -4.3082   -0.6802   -0.7407 C   0  0  0  0  0  0  0  0  0  0  0  0
   -5.5219    1.3338   -0.1691 C   0  0  0  0  0  0  0  0  0  0  0  0
   -5.7148   -0.1214   -0.5846 C   0  0  0  0  0  0  0  0  0  0  0  0
   -2.0864    0.0615   -0.1112 C   0  0  0  0  0  0  0  0  0  0  0  0
   -1.6157   -1.3658    0.1752 C   0  0  0  0  0  0  0  0  0  0  0  0
   -0.1146   -1.5425   -0.0692 C   0  0  0  0  0  0  0  0  0  0  0  0
    0.7516   -0.6937    0.8507 C   0  0  0  0  0  0  0  0  0  0  0  0
    2.0969   -0.2664    0.3713 C   0  0  0  0  0  0  0  0  0  0  0  0
    2.7729   -1.0791   -0.5111 C   0  0  0  0  0  0  0  0  0  0  0  0
    2.6134    0.9260    0.8272 C   0  0  0  0  0  0  0  0  0  0  0  0
    4.0309   -0.6787   -0.9611 C   0  0  0  0  0  0  0  0  0  0  0  0
    3.8714    1.3265    0.3772 C   0  0  0  0  0  0  0  0  0  0  0  0
    4.5803    0.5241   -0.5169 C   0  0  0  0  0  0  0  0  0  0  0  0
  1 17  1  0
  2 11  2  0
  3  4  1  0
  3  5  1  0
  3  8  1  0
  4  6  1  0
  5  7  1  0
  6  7  1  0
  8  9  1  0
  9 10  1  0
 10 11  1  0
 11 12  1  0
 12 13  2  0
 12 14  1  0
 13 15  1  0
 14 16  2  0
 15 17  2  0
 16 17  1  0
M  END
>  <PUBCHEM_COMPOUND_CID>  (1) 
43128

>  <PUBCHEM_CONFORMER_RMSD>  (1) 
0.8

>  <PUBCHEM_CONFORMER_DIVERSEORDER>  (1) 
1
19
31
2
37
24
39
18
40
27
12
6
16
34
32
33
14
36
20
29
26
23
35
22
15
5
4
30
3
38
28
10
9
17
21
11
7
25
13
8

>  <PUBCHEM_MMFF94_PARTIAL_CHARGES>  (1) 
18
1 -0.19
10 0.06
11 0.42
12 0.09
13 -0.15
14 -0.15
15 -0.15
16 -0.15
17 0.19
2 -0.57
3 -0.81
32 0.15
33 0.15
34 0.15
35 0.15
4 0.27
5 0.27
8 0.27

>  <PUBCHEM_EFFECTIVE_ROTOR_COUNT>  (1) 
6

>  <PUBCHEM_PHARMACOPHORE_FEATURES>  (1) 
4
1 2 acceptor
1 3 cation
5 3 4 5 6 7 rings
6 12 13 14 15 16 17 rings

>  <PUBCHEM_HEAVY_ATOM_COUNT>  (1) 
17

>  <PUBCHEM_ATOM_DEF_STEREO_COUNT>  (1) 
0

>  <PUBCHEM_ATOM_UDEF_STEREO_COUNT>  (1) 
0

>  <PUBCHEM_BOND_DEF_STEREO_COUNT>  (1) 
0

>  <PUBCHEM_BOND_UDEF_STEREO_COUNT>  (1) 
0

>  <PUBCHEM_ISOTOPIC_ATOM_COUNT>  (1) 
0

>  <PUBCHEM_COMPONENT_COUNT>  (1) 
1

>  <PUBCHEM_CACTVS_TAUTO_COUNT>  (1) 
2

>  <PUBCHEM_CONFORMER_ID>  (1) 
0000A87800000001

>  <PUBCHEM_MMFF94_ENERGY>  (1) 
30.0795

>  <PUBCHEM_FEATURE_SELFOVERLAP>  (1) 
20.297

>  <PUBCHEM_SHAPE_FINGERPRINT>  (1) 
100836 57 18113340820898061516
10354089 29 14418134024195684982
10498660 4 18336537219135062021
10670039 82 18335983069126642236
11045977 3 11818998482420912557
12251169 10 12901547953031831738
12596602 18 15502378932667191317
12670543 26 18202009802623185518
12670546 177 17918272065015309271
12730499 353 18412270531794212819
12916748 109 18409168809686837899
13631057 29 17168711976712135451
13668630 136 15482675696981517629
1420 369 10663822983372435605
14252887 29 12468631695130186392
14341114 176 12468633911454532750
14341114 328 15574716889253346381
14366163 111 18412261726931303913
14528608 73 18412256238501085399
15183329 4 17917717859441112068
15188451 53 8790590491288801801
15788980 27 11959729378513111395
17834072 33 18202560692081534343
17834072 8 17775569740712005068
1813 80 12679464200585969426
18222031 100 13542464254799276538
193927 3 12103568631676891989
19784866 140 16343707612401297123
200 152 15984831428153016458
20369508 70 15841543076984574218
20374829 77 11024107646843192359
204376 136 16370444449644245587
20645477 56 18335422395700631067
20645477 70 17632303341554169910
20871999 31 18271802479775115791
212847 35 18260825982306638778
21637258 2 12463572842141331852
221357 26 17846776295892366969
22224240 67 14418135148881290560
22289505 5 18272932704861601420
22854114 59 15213017137627967427
23253445 4 12540699227601163255
23402539 116 18343014497546307148
23402655 69 18202563964493257246
23557571 272 18266187299387541199
23559900 14 17131544046442911178
23590187 198 11167938065823870933
26918003 58 10809340048937145359
2838139 119 18334010614281086596
2916195 48 18187927330355880272
29717793 49 15482681177766007512
3004659 81 18202004270853514606
3009799 131 17561363994265700688
32948 21 18131069307560778458
3472631 163 17894917381574201614
351380 3 12895354386900179805
4028521 119 18411136926736678929
4047638 21 18334293167357579978
42 15 8935000386739494131
465052 167 14045739369805842013
474 4 17676210194782503141
4990 188 17988924457344092151
5374978 207 11891332040992653287
542803 24 18407758127752235253
559249 180 10735880561095592749
59682541 52 18201162036024160902
59755656 520 17385439942565878434
960060 61 16272207500617551340

>  <PUBCHEM_SHAPE_MULTIPOLES>  (1) 
331.73
13.48
1.51
1.06
6.64
0.1
-0.28
4.96
4.78
0.2
0.03
-0.63
-0.06
0.12

>  <PUBCHEM_SHAPE_SELFOVERLAP>  (1) 
688.201

>  <PUBCHEM_SHAPE_VOLUME>  (1) 
191.1

>  <PUBCHEM_COORDINATE_TYPE>  (1) 
2
5
10

$$$$
