43120
     RDKit          3D

 18 19  0  0  0  0  0  0  0  0999 V2000
    4.4430   -1.6033   -0.3155 F   0  0  0  0  0  0  0  0  0  0  0  0
   -0.0008    2.5071    1.3397 O   0  0  0  0  0  0  0  0  0  0  0  0
   -2.9433    0.2185   -0.4723 N   0  0  0  0  0  0  0  0  0  0  0  0
   -2.5719   -2.0157   -0.9342 N   0  0  0  0  0  0  0  0  0  0  0  0
   -1.7415   -1.1958    1.0122 N   0  0  0  0  0  0  0  0  0  0  0  0
   -2.1717    2.5371   -0.5022 C   0  0  0  0  0  0  0  0  0  0  0  0
   -2.8302    1.4256    0.3102 C   0  0  0  0  0  0  0  0  0  0  0  0
   -0.7432    2.1878   -0.9318 C   0  0  0  0  0  0  0  0  0  0  0  0
   -2.4082   -0.9570   -0.0918 C   0  0  0  0  0  0  0  0  0  0  0  0
   -1.9542   -3.1879   -0.3935 C   0  0  0  0  0  0  0  0  0  0  0  0
   -1.3850   -2.6445    0.9233 C   0  0  0  0  0  0  0  0  0  0  0  0
    0.1710    1.9453    0.2604 C   0  0  0  0  0  0  0  0  0  0  0  0
    1.3131    0.9966    0.1063 C   0  0  0  0  0  0  0  0  0  0  0  0
    1.8932    0.8592   -1.1338 C   0  0  0  0  0  0  0  0  0  0  0  0
    1.7416    0.2964    1.2107 C   0  0  0  0  0  0  0  0  0  0  0  0
    2.9604   -0.0273   -1.2776 C   0  0  0  0  0  0  0  0  0  0  0  0
    2.8090   -0.5901    1.0671 C   0  0  0  0  0  0  0  0  0  0  0  0
    3.4186   -0.7519   -0.1772 C   0  0  0  0  0  0  0  0  0  0  0  0
  1 18  1  0
  2 12  2  0
  3  7  1  0
  3  9  1  0
  4  9  1  0
  4 10  1  0
  5  9  2  0
  5 11  1  0
  6  7  1  0
  6  8  1  0
  8 12  1  0
 10 11  1  0
 12 13  1  0
 13 14  2  0
 13 15  1  0
 14 16  1  0
 15 17  2  0
 16 18  2  0
 17 18  1  0
M  END
>  <PUBCHEM_COMPOUND_CID>  (1) 
43120

>  <PUBCHEM_CONFORMER_RMSD>  (1) 
0.8

>  <PUBCHEM_CONFORMER_DIVERSEORDER>  (1) 
1
48
95
54
20
107
2
93
80
35
101
26
79
85
59
55
58
76
32
71
5
74
72
6
75
19
53
39
49
36
11
13
34
92
30
67
16
86
62
98
45
7
64
44
42
50
47
60
40
82
83
109
31
57
88
14
70
84
8
22
12
97
17
103
29
41
102
94
51
52
73
100
68
89
38
105
43
28
18
9
37
65
90
110
56
46
23
96
106
77
33
21
4
99
10
108
104
27
63
66
81
78
87
15
61
3
91
69
24
25

>  <PUBCHEM_MMFF94_PARTIAL_CHARGES>  (1) 
23
1 -0.19
10 0.37
11 0.25
12 0.42
13 0.09
14 -0.15
15 -0.15
16 -0.15
17 -0.15
18 0.19
2 -0.57
27 0.4
3 -0.82
30 0.4
31 0.15
32 0.15
33 0.15
34 0.15
4 -0.82
5 -0.7
7 0.37
8 0.06
9 0.55

>  <PUBCHEM_EFFECTIVE_ROTOR_COUNT>  (1) 
6.6

>  <PUBCHEM_PHARMACOPHORE_FEATURES>  (1) 
6
1 2 acceptor
1 3 donor
1 4 donor
4 3 4 5 9 cation
5 4 5 9 10 11 rings
6 13 14 15 16 17 18 rings

>  <PUBCHEM_HEAVY_ATOM_COUNT>  (1) 
18

>  <PUBCHEM_ATOM_DEF_STEREO_COUNT>  (1) 
0

>  <PUBCHEM_ATOM_UDEF_STEREO_COUNT>  (1) 
0

>  <PUBCHEM_BOND_DEF_STEREO_COUNT>  (1) 
0

>  <PUBCHEM_BOND_UDEF_STEREO_COUNT>  (1) 
0

>  <PUBCHEM_ISOTOPIC_ATOM_COUNT>  (1) 
0

>  <PUBCHEM_COMPONENT_COUNT>  (1) 
1

>  <PUBCHEM_CACTVS_TAUTO_COUNT>  (1) 
4

>  <PUBCHEM_CONFORMER_ID>  (1) 
0000A87000000001

>  <PUBCHEM_MMFF94_ENERGY>  (1) 
42.4601

>  <PUBCHEM_FEATURE_SELFOVERLAP>  (1) 
30.495

>  <PUBCHEM_SHAPE_FINGERPRINT>  (1) 
11471102 22 16343695483582542628
12400797 292 17968953005689518020
12553582 1 18192437595693411835
128993 33 9365695643990591135
14115302 16 18337395933189220892
1420 336 18335977679205974963
14251740 79 17981619169351701406
14251757 5 18337691732193054870
16752209 62 18262788567502035893
18981168 100 7925095666460730349
20645476 183 17458631047382166009
20645477 70 16751551986271129287
21634736 98 18113909298748758036
21731516 1 18194411206201226507
23184049 29 18266448987507571289
232386 152 18409728465263342580
23419403 2 17107567065085336016
23559900 14 18270955727652704186
23728640 28 18337392634643560667
238078 22 18270978902821927988
465052 167 17824292408823551761
5262128 65 17976539730225693163
568465 68 17060339617445843140
81228 2 18335975475966964489
8809292 202 18341894043848016652
90525 40 17898009031946187677

>  <PUBCHEM_SHAPE_MULTIPOLES>  (1) 
342.35
5.89
3.49
1.24
3.61
0.81
-0.08
2.65
0.95
-3.01
0.03
0.42
-0.08
-0.03

>  <PUBCHEM_SHAPE_SELFOVERLAP>  (1) 
715.603

>  <PUBCHEM_SHAPE_VOLUME>  (1) 
195.1

>  <PUBCHEM_COORDINATE_TYPE>  (1) 
2
5
10

$$$$
