43132
     RDKit          3D

 17 18  0  0  0  0  0  0  0  0999 V2000
    0.3742   -0.3964    1.9753 O   0  0  0  0  0  0  0  0  0  0  0  0
   -3.5236    0.1812    0.1367 N   0  0  0  0  0  0  0  0  0  0  0  0
   -4.0201    1.5388   -0.0864 C   0  0  0  0  0  0  0  0  0  0  0  0
   -4.3162   -0.6643   -0.7556 C   0  0  0  0  0  0  0  0  0  0  0  0
   -5.5274    1.3436   -0.1580 C   0  0  0  0  0  0  0  0  0  0  0  0
   -5.7220   -0.1053   -0.5943 C   0  0  0  0  0  0  0  0  0  0  0  0
   -2.0943    0.0644   -0.1115 C   0  0  0  0  0  0  0  0  0  0  0  0
   -1.6267   -1.3677    0.1556 C   0  0  0  0  0  0  0  0  0  0  0  0
   -0.1253   -1.5435   -0.0884 C   0  0  0  0  0  0  0  0  0  0  0  0
    0.7405   -0.7094    0.8451 C   0  0  0  0  0  0  0  0  0  0  0  0
    2.0875   -0.2778    0.3742 C   0  0  0  0  0  0  0  0  0  0  0  0
    2.7636   -1.0792   -0.5183 C   0  0  0  0  0  0  0  0  0  0  0  0
    2.6054    0.9069    0.8478 C   0  0  0  0  0  0  0  0  0  0  0  0
    4.5742    0.5202   -0.4980 C   0  0  0  0  0  0  0  0  0  0  0  0
    4.0234   -0.6751   -0.9602 C   0  0  0  0  0  0  0  0  0  0  0  0
    3.8652    1.3112    0.4060 C   0  0  0  0  0  0  0  0  0  0  0  0
    5.9213    0.9524   -0.9700 C   0  0  0  0  0  0  0  0  0  0  0  0
  1 10  2  0
  2  3  1  0
  2  4  1  0
  2  7  1  0
  3  5  1  0
  4  6  1  0
  5  6  1  0
  7  8  1  0
  8  9  1  0
  9 10  1  0
 10 11  1  0
 11 12  2  0
 11 13  1  0
 12 15  1  0
 13 16  2  0
 14 15  2  0
 14 16  1  0
 14 17  1  0
M  END
>  <PUBCHEM_COMPOUND_CID>  (1) 
43132

>  <PUBCHEM_CONFORMER_RMSD>  (1) 
0.8

>  <PUBCHEM_CONFORMER_DIVERSEORDER>  (1) 
1
21
34
2
40
26
41
20
42
30
13
6
15
37
25
38
18
16
36
39
22
32
17
29
5
24
4
12
35
31
33
9
10
23
19
14
11
3
27
7
28
8

>  <PUBCHEM_MMFF94_PARTIAL_CHARGES>  (1) 
18
1 -0.57
10 0.42
11 0.09
12 -0.15
13 -0.15
14 -0.14
15 -0.15
16 -0.15
17 0.14
2 -0.81
3 0.27
32 0.15
33 0.15
34 0.15
35 0.15
4 0.27
7 0.27
9 0.06

>  <PUBCHEM_EFFECTIVE_ROTOR_COUNT>  (1) 
6

>  <PUBCHEM_PHARMACOPHORE_FEATURES>  (1) 
4
1 1 acceptor
1 2 cation
5 2 3 4 5 6 rings
6 11 12 13 14 15 16 rings

>  <PUBCHEM_HEAVY_ATOM_COUNT>  (1) 
17

>  <PUBCHEM_ATOM_DEF_STEREO_COUNT>  (1) 
0

>  <PUBCHEM_ATOM_UDEF_STEREO_COUNT>  (1) 
0

>  <PUBCHEM_BOND_DEF_STEREO_COUNT>  (1) 
0

>  <PUBCHEM_BOND_UDEF_STEREO_COUNT>  (1) 
0

>  <PUBCHEM_ISOTOPIC_ATOM_COUNT>  (1) 
0

>  <PUBCHEM_COMPONENT_COUNT>  (1) 
1

>  <PUBCHEM_CACTVS_TAUTO_COUNT>  (1) 
2

>  <PUBCHEM_CONFORMER_ID>  (1) 
0000A87C00000001

>  <PUBCHEM_MMFF94_ENERGY>  (1) 
32.5999

>  <PUBCHEM_FEATURE_SELFOVERLAP>  (1) 
20.297

>  <PUBCHEM_SHAPE_FINGERPRINT>  (1) 
100836 57 18113059345995203900
10354089 29 14490191618275791460
10447042 23 15339121226140649044
10498660 4 18336818689795719357
10670039 82 18336827498335943140
11045977 3 11891338655236865004
12251169 10 12973605547085583930
12596602 18 15574718005908225381
12670543 26 18130515162859987470
12670546 177 17846497041165477719
12730499 353 18412270531704529011
12916748 109 18409451384164633307
13631057 29 17168993455962733875
13668630 136 15482675696944594365
1420 369 10592045769126186861
14251752 14 18342460318570374958
14252887 29 12540689289215587096
14341114 176 12685087073386440940
14341114 328 15647054863014401221
14528608 73 18412257337991607671
14848160 23 9655574093783213365
15183329 4 17846504694623047580
15188451 53 8790590491272964537
15475509 35 11455343735736491716
15788980 27 11959729374197038587
15885798 251 10159699105513858395
17834072 33 18130784572988668557
17834072 8 17775289369694863788
1813 80 12607406606584958274
18222031 100 13542464254846755778
193927 3 12031509938090406517
19784866 140 16343989091630764051
19784866 240 13758080709398159272
200 152 15985112903166643874
20281389 69 17894345592752573868
20369508 70 15769766957939181194
20374829 77 10952051152264144711
204376 136 16370725924615687979
20645477 56 18335422395605679011
20645477 70 17632304441092164958
20871999 31 18271521004750925871
212847 35 18261107457309716688
21637258 2 12391515248177263436
221357 26 17846776300145136241
22224240 67 14634870876700994689
22289505 5 18272933808731480548
22854114 59 15140959543574215243
23253445 4 12757152385164199215
23402539 116 18343015601363458244
23402655 69 18202565064041808286
23557571 272 18266468774327328607
23559900 14 17060049402368967042
23590187 198 11167936966301693661
26918003 58 10881398742486668607
2767999 5 17530681021889583181
2838139 119 18334292089284164540
2916195 48 18114183085528403652
29717793 49 15554457296874704032
3009799 131 17489587875204496408
3472631 163 17894917381595326606
351380 3 12823296792830616341
3545911 37 18413110584352165671
4028521 119 18411418401671198073
42 15 8862942792680467179
465052 167 13614520796132555532
474 4 17676491669748657789
4990 188 17989205932294435567
5374978 207 11818992971967471686
542803 24 18335419062958723949
559249 180 10807938155117689941
59682541 35 17604442902807657025
59682541 52 18129667391976538574
59755656 520 17385439942629162458
960060 61 16200431381582707828

>  <PUBCHEM_SHAPE_MULTIPOLES>  (1) 
339
14.03
1.51
1.09
6.23
0.09
-0.27
5.72
5.07
0.27
0.03
-0.64
-0.06
0.04

>  <PUBCHEM_SHAPE_SELFOVERLAP>  (1) 
699.412

>  <PUBCHEM_SHAPE_VOLUME>  (1) 
197

>  <PUBCHEM_COORDINATE_TYPE>  (1) 
2
5
10

$$$$
