43139
     RDKit          3D

 20 22  0  0  0  0  0  0  0  0999 V2000
   -4.7078    1.5046   -0.0793 O   0  0  0  0  0  0  0  0  0  0  0  0
   -5.2592   -1.3094    0.2181 O   0  0  0  0  0  0  0  0  0  0  0  0
    0.2799    1.7669   -0.2633 O   0  0  0  0  0  0  0  0  0  0  0  0
    4.9886   -0.1755   -0.3301 N   0  0  0  0  0  0  0  0  0  0  0  0
    6.1004   -1.1253   -0.3583 C   0  0  0  0  0  0  0  0  0  0  0  0
    5.2771    0.7135    0.7950 C   0  0  0  0  0  0  0  0  0  0  0  0
    7.3113   -0.2394   -0.1061 C   0  0  0  0  0  0  0  0  0  0  0  0
    6.7709    0.9674    0.6550 C   0  0  0  0  0  0  0  0  0  0  0  0
    3.6976   -0.8349   -0.2004 C   0  0  0  0  0  0  0  0  0  0  0  0
    2.5631    0.1851   -0.2377 C   0  0  0  0  0  0  0  0  0  0  0  0
    1.1794   -0.4672   -0.1510 C   0  0  0  0  0  0  0  0  0  0  0  0
    0.0218    0.5491   -0.1715 C   0  0  0  0  0  0  0  0  0  0  0  0
   -1.3534    0.0850   -0.0809 C   0  0  0  0  0  0  0  0  0  0  0  0
   -2.4021    1.0046   -0.1061 C   0  0  0  0  0  0  0  0  0  0  0  0
   -3.7206    0.5554   -0.0286 C   0  0  0  0  0  0  0  0  0  0  0  0
   -1.6219   -1.2801    0.0245 C   0  0  0  0  0  0  0  0  0  0  0  0
   -3.9883   -0.8093    0.1044 C   0  0  0  0  0  0  0  0  0  0  0  0
   -2.9395   -1.7292    0.1160 C   0  0  0  0  0  0  0  0  0  0  0  0
   -5.9900    0.9270   -0.3401 C   0  0  0  0  0  0  0  0  0  0  0  0
   -6.2074   -0.2883    0.5402 C   0  0  0  0  0  0  0  0  0  0  0  0
  1 15  1  0
  1 19  1  0
  2 17  1  0
  2 20  1  0
  3 12  2  0
  4  5  1  0
  4  6  1  0
  4  9  1  0
  5  7  1  0
  6  8  1  0
  7  8  1  0
  9 10  1  0
 10 11  1  0
 11 12  1  0
 12 13  1  0
 13 14  2  0
 13 16  1  0
 14 15  1  0
 15 17  2  0
 16 18  2  0
 17 18  1  0
 19 20  1  0
M  END
>  <PUBCHEM_COMPOUND_CID>  (1) 
43139

>  <PUBCHEM_CONFORMER_RMSD>  (1) 
0.8

>  <PUBCHEM_CONFORMER_DIVERSEORDER>  (1) 
1
34
84
85
102
2
29
23
11
94
103
63
45
40
10
71
78
51
98
33
81
65
3
70
90
100
19
69
17
15
49
25
7
60
96
95
83
41
44
13
6
101
57
53
79
62
82
74
97
52
89
64
88
92
24
75
8
73
87
5
59
58
36
18
30
55
68
48
99
76
21
86
46
22
39
54
37
77
9
47
56
42
93
32
38
28
4
43
35
20
50
61
91
80
14
26
16
27
66
12
67
31
72

>  <PUBCHEM_MMFF94_PARTIAL_CHARGES>  (1) 
20
1 -0.36
11 0.06
12 0.42
13 0.09
14 -0.15
15 0.08
16 -0.15
17 0.08
18 -0.15
19 0.28
2 -0.36
20 0.28
3 -0.57
35 0.15
36 0.15
37 0.15
4 -0.81
5 0.27
6 0.27
9 0.27

>  <PUBCHEM_EFFECTIVE_ROTOR_COUNT>  (1) 
6.8

>  <PUBCHEM_PHARMACOPHORE_FEATURES>  (1) 
7
1 1 acceptor
1 2 acceptor
1 3 acceptor
1 4 cation
5 4 5 6 7 8 rings
6 1 2 15 17 19 20 rings
6 13 14 15 16 17 18 rings

>  <PUBCHEM_HEAVY_ATOM_COUNT>  (1) 
20

>  <PUBCHEM_ATOM_DEF_STEREO_COUNT>  (1) 
0

>  <PUBCHEM_ATOM_UDEF_STEREO_COUNT>  (1) 
0

>  <PUBCHEM_BOND_DEF_STEREO_COUNT>  (1) 
0

>  <PUBCHEM_BOND_UDEF_STEREO_COUNT>  (1) 
0

>  <PUBCHEM_ISOTOPIC_ATOM_COUNT>  (1) 
0

>  <PUBCHEM_COMPONENT_COUNT>  (1) 
1

>  <PUBCHEM_CACTVS_TAUTO_COUNT>  (1) 
2

>  <PUBCHEM_CONFORMER_ID>  (1) 
0000A88300000001

>  <PUBCHEM_MMFF94_ENERGY>  (1) 
47.3793

>  <PUBCHEM_FEATURE_SELFOVERLAP>  (1) 
35.564

>  <PUBCHEM_SHAPE_FINGERPRINT>  (1) 
10 15 18271234011627086736
10411042 1 18120938580424675763
10638233 991 15864363453983347606
10968037 39 18408323289344938039
11045977 3 18273212032438683592
11315181 36 18201442488877606881
11524674 6 17275383213760749702
12091667 2 18413107264827749055
12236239 1 17967251971048804138
12516196 113 18201719561386296880
12616971 3 16950568813330410510
13073987 5 18335985259643897915
13288520 33 18408887347895631503
13403585 85 18412824685643828449
13533116 47 14333137325919749214
13668630 136 14634868635292309048
1420 363 18343023289919413822
14251764 18 18410857680631528599
14251764 46 18410855455833201014
14341114 176 18272934934155200600
14933364 13 18342176670287419288
15716309 27 18060419118645345838
17093844 174 18260545632764437929
17844677 252 18343026588491616792
18006028 8 18202845452355149144
19489759 90 18260268542516813169
20281389 69 18408321073321336744
20681677 155 18260546731722476851
21150785 3 17060330834343257045
21267235 1 18334019423707085059
21315763 28 18411136944074641162
220451 1 16732701653907428562
22224240 67 17060051558637975150
23035841 295 18260828189951672346
23402539 116 18411415120384729983
23536379 177 18408886222329415426
23559900 14 18271236218074757937
23622692 118 17985819570126376367
300161 21 18334289847047264162
3004659 81 18040720277439650852
335352 9 18408602566195140333
34797466 226 17560808753610062956
3545911 37 18411700972186205614
4073 2 18115029718652215394
4214541 1 18409730664091406221
4325135 7 18261115188704614860
4463277 17 18410292514796846348
5104073 3 18337395915761289498
542803 24 17022904553940293750
559249 180 18261110772940352335
59755656 215 18410579444730715574
59755656 520 16443065019189315907
67856867 119 18189057658574777428
7226269 152 18273216366119013073

>  <PUBCHEM_SHAPE_MULTIPOLES>  (1) 
389
19.83
1.48
0.7
18.87
0.05
-0.04
-0.43
-1.73
-0.89
0
0.25
-0.03
0.88

>  <PUBCHEM_SHAPE_SELFOVERLAP>  (1) 
821.201

>  <PUBCHEM_SHAPE_VOLUME>  (1) 
218.9

>  <PUBCHEM_COORDINATE_TYPE>  (1) 
2
5
10

$$$$
