43131
     RDKit          3D

 16 17  0  0  0  0  0  0  0  0999 V2000
    0.8199    0.0483    1.9127 O   0  0  0  0  0  0  0  0  0  0  0  0
   -3.1554    0.1642    0.1548 N   0  0  0  0  0  0  0  0  0  0  0  0
   -3.7053    1.4418   -0.2978 C   0  0  0  0  0  0  0  0  0  0  0  0
   -3.9484   -0.8550   -0.5319 C   0  0  0  0  0  0  0  0  0  0  0  0
   -5.2066    1.1956   -0.2718 C   0  0  0  0  0  0  0  0  0  0  0  0
   -5.3663   -0.3141   -0.4220 C   0  0  0  0  0  0  0  0  0  0  0  0
   -1.7322    0.0419   -0.1239 C   0  0  0  0  0  0  0  0  0  0  0  0
   -1.2071   -1.3014    0.3870 C   0  0  0  0  0  0  0  0  0  0  0  0
    0.2902   -1.4790    0.1207 C   0  0  0  0  0  0  0  0  0  0  0  0
    1.1582   -0.4611    0.8470 C   0  0  0  0  0  0  0  0  0  0  0  0
    2.4729   -0.0891    0.2508 C   0  0  0  0  0  0  0  0  0  0  0  0
    3.1466   -1.0241   -0.5028 C   0  0  0  0  0  0  0  0  0  0  0  0
    2.9645    1.1776    0.4749 C   0  0  0  0  0  0  0  0  0  0  0  0
    4.3758   -0.6743   -1.0617 C   0  0  0  0  0  0  0  0  0  0  0  0
    4.1938    1.5273   -0.0839 C   0  0  0  0  0  0  0  0  0  0  0  0
    4.8995    0.6015   -0.8522 C   0  0  0  0  0  0  0  0  0  0  0  0
  1 10  2  0
  2  3  1  0
  2  4  1  0
  2  7  1  0
  3  5  1  0
  4  6  1  0
  5  6  1  0
  7  8  1  0
  8  9  1  0
  9 10  1  0
 10 11  1  0
 11 12  2  0
 11 13  1  0
 12 14  1  0
 13 15  2  0
 14 16  2  0
 15 16  1  0
M  END
>  <PUBCHEM_COMPOUND_CID>  (1) 
43131

>  <PUBCHEM_CONFORMER_RMSD>  (1) 
0.8

>  <PUBCHEM_CONFORMER_DIVERSEORDER>  (1) 
1
19
34
2
38
28
22
20
30
35
6
33
23
37
12
32
16
39
5
25
21
31
18
29
15
4
11
17
24
36
13
8
9
27
14
10
26
3
7

>  <PUBCHEM_MMFF94_PARTIAL_CHARGES>  (1) 
18
1 -0.57
10 0.42
11 0.09
12 -0.15
13 -0.15
14 -0.15
15 -0.15
16 -0.15
2 -0.81
3 0.27
31 0.15
32 0.15
33 0.15
34 0.15
35 0.15
4 0.27
7 0.27
9 0.06

>  <PUBCHEM_EFFECTIVE_ROTOR_COUNT>  (1) 
6

>  <PUBCHEM_PHARMACOPHORE_FEATURES>  (1) 
4
1 1 acceptor
1 2 cation
5 2 3 4 5 6 rings
6 11 12 13 14 15 16 rings

>  <PUBCHEM_HEAVY_ATOM_COUNT>  (1) 
16

>  <PUBCHEM_ATOM_DEF_STEREO_COUNT>  (1) 
0

>  <PUBCHEM_ATOM_UDEF_STEREO_COUNT>  (1) 
0

>  <PUBCHEM_BOND_DEF_STEREO_COUNT>  (1) 
0

>  <PUBCHEM_BOND_UDEF_STEREO_COUNT>  (1) 
0

>  <PUBCHEM_ISOTOPIC_ATOM_COUNT>  (1) 
0

>  <PUBCHEM_COMPONENT_COUNT>  (1) 
1

>  <PUBCHEM_CACTVS_TAUTO_COUNT>  (1) 
2

>  <PUBCHEM_CONFORMER_ID>  (1) 
0000A87B00000001

>  <PUBCHEM_MMFF94_ENERGY>  (1) 
30.0034

>  <PUBCHEM_FEATURE_SELFOVERLAP>  (1) 
20.297

>  <PUBCHEM_SHAPE_FINGERPRINT>  (1) 
10354089 29 16950004729120351373
10498660 4 18261665983289158789
10670039 82 17676774158744047356
11045977 3 11314312758394156772
11128504 68 18343579663950805573
11796584 16 12679458669100732069
12251169 10 12179847216678846866
12596602 18 13767932316619941525
12670546 177 18131632300521966831
12730499 353 18409739455911002051
12916748 109 18335142003029051985
13081056 2 18410292506148954565
13675066 3 9367345938082133963
1420 369 11167942467637952061
14252887 29 11458418008100364392
14341114 328 14706931739177418685
14366163 111 18409166601757260112
14528608 73 18408880746304089927
15788980 27 12607405494547098067
17834072 33 18343580759135791559
17834072 8 18343309154342145238
1798214 20 15482673459430007102
1813 80 13470409976180559514
18186145 218 18411412899638542344
18222031 100 13542469765379305008
193927 3 12823019763044661204
19784866 140 16917073235119528651
200 152 16630535016216428434
20369508 70 16272201994812415066
20432913 95 9727636119926749701
204376 136 15791451530483092539
20645477 70 17775013362459850414
20671657 53 15195566805526150914
20871999 31 18271802496902230999
212847 35 18113053822936221576
21354914 88 11743840261276557263
21652331 79 18186798059079162517
221357 26 18060134332491858841
22289505 5 18342737395258195628
22646028 1 12895350001917716867
22854114 59 14634867543869546291
23253445 4 11314316065476867574
23402539 116 18412821395772310766
23402655 69 18273215291828289598
23557571 272 18264218078299119946
23559900 14 17703788163353918834
23590187 198 11527947859466227245
23590187 302 17632574946421305122
26918003 58 8070031060225322439
2916195 48 18335979878245230184
3004659 81 18060141994982488550
3009799 131 18060422413739680564
32948 21 17632296739920078969
351380 3 13542466457711350229
4028521 119 18408323280649612277
4047638 21 18260267456238194914
42 15 9655577422224612171
474 4 17313390057956816508
4990 188 18202284692882391758
5281201 14 18272374156911847236
5374978 207 11602817999562746286
542803 24 18040715853354024567
559249 180 11240005538529341685
59755656 520 17095521816223714682
633830 44 18409724054321549111
7164475 11 17058948653901450904
960060 61 16774079578968671436

>  <PUBCHEM_SHAPE_MULTIPOLES>  (1) 
318.42
12.54
1.51
1.03
6.94
0.17
-0.25
3.72
4.08
-0.05
0.05
-0.63
-0.05
0.28

>  <PUBCHEM_SHAPE_SELFOVERLAP>  (1) 
657.285

>  <PUBCHEM_SHAPE_VOLUME>  (1) 
183.9

>  <PUBCHEM_COORDINATE_TYPE>  (1) 
2
5
10

$$$$
