43137
     RDKit          3D

 20 22  0  0  0  0  0  0  0  0999 V2000
   -0.5445   -0.4966    2.0049 O   0  0  0  0  0  0  0  0  0  0  0  0
   -4.3631    0.3686    0.0991 N   0  0  0  0  0  0  0  0  0  0  0  0
   -4.6908    1.7442   -0.2747 C   0  0  0  0  0  0  0  0  0  0  0  0
   -5.2655   -0.4655   -0.6940 C   0  0  0  0  0  0  0  0  0  0  0  0
   -6.2115    1.7311   -0.3254 C   0  0  0  0  0  0  0  0  0  0  0  0
   -6.5893    0.2783   -0.5975 C   0  0  0  0  0  0  0  0  0  0  0  0
   -2.9625    0.0483   -0.1333 C   0  0  0  0  0  0  0  0  0  0  0  0
   -2.6720   -1.3922    0.2925 C   0  0  0  0  0  0  0  0  0  0  0  0
   -1.2073   -1.7793    0.0709 C   0  0  0  0  0  0  0  0  0  0  0  0
   -0.1977   -0.9674    0.9036 C   0  0  0  0  0  0  0  0  0  0  0  0
    1.1561   -0.7730    0.4097 C   0  0  0  0  0  0  0  0  0  0  0  0
    1.8627    0.3817    0.7469 C   0  0  0  0  0  0  0  0  0  0  0  0
    3.1707    0.5844    0.2771 C   0  0  0  0  0  0  0  0  0  0  0  0
    1.7458   -1.7393   -0.3999 C   0  0  0  0  0  0  0  0  0  0  0  0
    3.7702   -0.3983   -0.5463 C   0  0  0  0  0  0  0  0  0  0  0  0
    3.0443   -1.5545   -0.8756 C   0  0  0  0  0  0  0  0  0  0  0  0
    3.8965    1.7406    0.6063 C   0  0  0  0  0  0  0  0  0  0  0  0
    5.0781   -0.1957   -1.0161 C   0  0  0  0  0  0  0  0  0  0  0  0
    5.1950    1.9254    0.1306 C   0  0  0  0  0  0  0  0  0  0  0  0
    5.7847    0.9592   -0.6790 C   0  0  0  0  0  0  0  0  0  0  0  0
  1 10  2  0
  2  3  1  0
  2  4  1  0
  2  7  1  0
  3  5  1  0
  4  6  1  0
  5  6  1  0
  7  8  1  0
  8  9  1  0
  9 10  1  0
 10 11  1  0
 11 12  2  0
 11 14  1  0
 12 13  1  0
 13 15  2  0
 13 17  1  0
 14 16  2  0
 15 16  1  0
 15 18  1  0
 17 19  2  0
 18 20  2  0
 19 20  1  0
M  END
>  <PUBCHEM_COMPOUND_CID>  (1) 
43137

>  <PUBCHEM_CONFORMER_RMSD>  (1) 
0.8

>  <PUBCHEM_CONFORMER_DIVERSEORDER>  (1) 
1
61
77
58
90
3
69
46
79
76
30
64
73
72
59
62
93
48
74
55
19
12
53
60
21
66
16
44
25
92
88
80
29
81
57
33
78
41
71
7
22
86
94
91
45
50
67
34
75
42
17
32
20
9
26
14
95
2
24
63
85
4
23
47
10
8
39
49
13
38
68
18
65
35
83
51
15
27
5
54
84
28
40
82
31
36
87
89
52
6
11
43
37
56
70

>  <PUBCHEM_MMFF94_PARTIAL_CHARGES>  (1) 
22
1 -0.57
10 0.42
11 0.09
12 -0.15
14 -0.15
16 -0.15
17 -0.15
18 -0.15
19 -0.15
2 -0.81
20 -0.15
3 0.27
35 0.15
36 0.15
37 0.15
38 0.15
39 0.15
4 0.27
40 0.15
41 0.15
7 0.27
9 0.06

>  <PUBCHEM_EFFECTIVE_ROTOR_COUNT>  (1) 
6

>  <PUBCHEM_PHARMACOPHORE_FEATURES>  (1) 
5
1 1 acceptor
1 2 cation
5 2 3 4 5 6 rings
6 11 12 13 14 15 16 rings
6 13 15 17 18 19 20 rings

>  <PUBCHEM_HEAVY_ATOM_COUNT>  (1) 
20

>  <PUBCHEM_ATOM_DEF_STEREO_COUNT>  (1) 
0

>  <PUBCHEM_ATOM_UDEF_STEREO_COUNT>  (1) 
0

>  <PUBCHEM_BOND_DEF_STEREO_COUNT>  (1) 
0

>  <PUBCHEM_BOND_UDEF_STEREO_COUNT>  (1) 
0

>  <PUBCHEM_ISOTOPIC_ATOM_COUNT>  (1) 
0

>  <PUBCHEM_COMPONENT_COUNT>  (1) 
1

>  <PUBCHEM_CACTVS_TAUTO_COUNT>  (1) 
2

>  <PUBCHEM_CONFORMER_ID>  (1) 
0000A88100000001

>  <PUBCHEM_MMFF94_ENERGY>  (1) 
45.5311

>  <PUBCHEM_FEATURE_SELFOVERLAP>  (1) 
25.399

>  <PUBCHEM_SHAPE_FINGERPRINT>  (1) 
10354089 29 13623531260079185158
10498660 4 18189889834527050285
10595046 47 18343861100705522031
10693767 8 17417261910109380798
10753850 27 12823294602766391405
11069576 57 16414644726675668110
11646440 116 18114191834640932517
11796584 16 11167947931173754807
12403259 415 18270123560052774552
12596602 18 13984666961865280685
12633257 1 16153708777427027014
12730499 353 18410581677459549115
13402501 40 18408601469997882421
13668630 136 15339120156456448261
13685833 64 11095880488907802989
13690498 29 17201908440199045623
1420 369 10735876179601053821
14216079 64 10447929465071159501
14251751 18 9799693701327682267
14341114 328 15068628167020051093
14528608 73 18343016696854392775
14739800 52 18041545988574938241
14848160 23 10015583883257144515
14933364 13 18342178860842040069
15003188 100 18341893047226070120
15183329 4 18059580160986931528
15188451 53 8646477515263268321
15238133 3 17022910072873016708
15348495 7 10953751005925560501
15475509 35 11527678410777884388
15475509 84 13045934694752637166
17857418 61 9799693701391167797
17959699 21 18412265051462759794
1813 80 12967127215947928859
18222031 100 13326854439502337242
18335252 98 18410578418634516699
193927 3 12319452229727600383
200 152 16559040384774308746
20281389 69 17967527969573181197
20645477 56 18334577962349421603
20645477 70 17775012262826922734
21033648 29 18264486355474060336
21150785 3 14908179781105968184
21267235 1 11025785493572328456
21637258 2 12607407671726174066
221357 26 18060136522719490513
22224240 67 15213020462365119649
22289505 5 18272090491913317452
22393880 68 17846210115749012150
23016692 55 14117801314724489011
23402655 69 18201720647670124783
23424782 7 18339927125569408939
23559900 14 17560793381167470714
25122255 55 11239707622149050365
2767999 5 17676202481358869253
2838139 119 18408879646370741789
2916195 48 18260548939641238441
29717793 49 16630536111274826964
3004659 81 17632295623313393958
3009799 131 17274818065321486322
312425 54 8142091987516718077
3472631 163 18040718112100686108
34797466 226 18059861662361083437
351380 3 12751237004359753693
3545911 37 18411703201142428331
4072396 5 18341885287185355330
465052 167 8142086472641338680
5104073 3 17749388161257683203
53794403 172 18043536216296351741
59682541 35 8214138513924759516
59682541 52 17775283816080662893
59755656 520 17385720313751818283
636775 8 8285386944973713656
960060 61 16773793692912698671

>  <PUBCHEM_SHAPE_MULTIPOLES>  (1) 
400.74
16.35
2
1.06
14.88
0.25
-0.24
9.33
5.21
-0.33
0.05
-0.33
-0.14
0.83

>  <PUBCHEM_SHAPE_SELFOVERLAP>  (1) 
856.124

>  <PUBCHEM_SHAPE_VOLUME>  (1) 
224.5

>  <PUBCHEM_COORDINATE_TYPE>  (1) 
2
5
10

$$$$
