43144
     RDKit          3D

 18 19  0  0  0  0  0  0  0  0999 V2000
    6.0936   -0.4791   -1.0941 F   0  0  0  0  0  0  0  0  0  0  0  0
   -4.0693   -2.1094   -0.6450 O   0  0  0  0  0  0  0  0  0  0  0  0
    0.5794    1.6818    0.9767 O   0  0  0  0  0  0  0  0  0  0  0  0
   -3.2433    0.0677   -0.2992 N   0  0  0  0  0  0  0  0  0  0  0  0
   -3.8013    1.3744   -0.0427 C   0  0  0  0  0  0  0  0  0  0  0  0
   -5.2209    1.2494   -0.5585 C   0  0  0  0  0  0  0  0  0  0  0  0
   -1.8181   -0.1735   -0.2360 C   0  0  0  0  0  0  0  0  0  0  0  0
   -5.5597   -0.2211   -0.3453 C   0  0  0  0  0  0  0  0  0  0  0  0
   -4.2208   -0.9095   -0.4715 C   0  0  0  0  0  0  0  0  0  0  0  0
   -1.3847   -0.4026    1.2134 C   0  0  0  0  0  0  0  0  0  0  0  0
    0.1197   -0.6601    1.3359 C   0  0  0  0  0  0  0  0  0  0  0  0
    0.9729    0.5207    0.8945 C   0  0  0  0  0  0  0  0  0  0  0  0
    2.3407    0.2548    0.3647 C   0  0  0  0  0  0  0  0  0  0  0  0
    3.0280   -0.8435    0.8310 C   0  0  0  0  0  0  0  0  0  0  0  0
    2.8658    1.1160   -0.5727 C   0  0  0  0  0  0  0  0  0  0  0  0
    4.3073   -1.0934    0.3343 C   0  0  0  0  0  0  0  0  0  0  0  0
    4.1450    0.8661   -1.0694 C   0  0  0  0  0  0  0  0  0  0  0  0
    4.8658   -0.2386   -0.6160 C   0  0  0  0  0  0  0  0  0  0  0  0
  1 18  1  0
  2  9  2  0
  3 12  2  0
  4  5  1  0
  4  7  1  0
  4  9  1  0
  5  6  1  0
  6  8  1  0
  7 10  1  0
  8  9  1  0
 10 11  1  0
 11 12  1  0
 12 13  1  0
 13 14  2  0
 13 15  1  0
 14 16  1  0
 15 17  2  0
 16 18  2  0
 17 18  1  0
M  END
>  <PUBCHEM_COMPOUND_CID>  (1) 
43144

>  <PUBCHEM_CONFORMER_RMSD>  (1) 
0.8

>  <PUBCHEM_CONFORMER_DIVERSEORDER>  (1) 
1
49
17
77
2
74
6
80
54
9
4
83
47
12
21
44
39
26
67
5
79
3
10
68
25
82
41
70
71
40
51
38
28
19
24
46
55
73
75
69
62
35
11
63
7
13
32
78
43
18
59
23
20
76
34
30
31
29
57
8
15
52
81
37
60
56
65
58
36
45
42
72
22
61
50
14
27
53
48
84
16
66
64
33

>  <PUBCHEM_MMFF94_PARTIAL_CHARGES>  (1) 
20
1 -0.19
11 0.06
12 0.42
13 0.09
14 -0.15
15 -0.15
16 -0.15
17 -0.15
18 0.19
2 -0.57
3 -0.57
31 0.15
32 0.15
33 0.15
34 0.15
4 -0.66
5 0.3
7 0.3
8 0.06
9 0.57

>  <PUBCHEM_EFFECTIVE_ROTOR_COUNT>  (1) 
5.8

>  <PUBCHEM_PHARMACOPHORE_FEATURES>  (1) 
4
1 2 acceptor
1 3 acceptor
5 4 5 6 8 9 rings
6 13 14 15 16 17 18 rings

>  <PUBCHEM_HEAVY_ATOM_COUNT>  (1) 
18

>  <PUBCHEM_ATOM_DEF_STEREO_COUNT>  (1) 
0

>  <PUBCHEM_ATOM_UDEF_STEREO_COUNT>  (1) 
0

>  <PUBCHEM_BOND_DEF_STEREO_COUNT>  (1) 
0

>  <PUBCHEM_BOND_UDEF_STEREO_COUNT>  (1) 
0

>  <PUBCHEM_ISOTOPIC_ATOM_COUNT>  (1) 
0

>  <PUBCHEM_COMPONENT_COUNT>  (1) 
1

>  <PUBCHEM_CACTVS_TAUTO_COUNT>  (1) 
4

>  <PUBCHEM_CONFORMER_ID>  (1) 
0000A88800000001

>  <PUBCHEM_MMFF94_ENERGY>  (1) 
32.3593

>  <PUBCHEM_FEATURE_SELFOVERLAP>  (1) 
20.297

>  <PUBCHEM_SHAPE_FINGERPRINT>  (1) 
10498660 4 16515948294962086173
11128504 68 17894628175524534311
11796584 16 17775005682557184638
12251169 10 10447925070691576048
12403259 118 8502654800752740715
12596602 18 9223229641825711934
12670546 177 18334012800097316383
12730499 353 16732989699682838626
12916748 109 16732703826585834477
12969540 114 15719385161827114891
13167823 11 18408600383492228895
13544653 18 14692574320620868043
14251731 8 18202844348949188447
14251752 14 18411698742982231902
14528608 73 17676202485643254351
14848160 23 15913323580880060446
15183329 4 18341050731419902877
17834072 33 18333448755037893893
17834072 8 17989202634044245829
17844677 252 18131633408903428985
17870717 6 18060143132937467871
1813 80 14692580943502968080
18186145 218 17022897960548329017
18222031 100 15841554076617365240
193927 3 16486986119167073946
19784866 240 17632305557762107668
200 152 18413111645678475864
20325693 3 18341890801833413023
20432913 95 13973968709505334127
204376 136 14923941254398956041
20645477 56 15068344526984178162
20645477 70 16271922748559571544
20871999 31 18187930624432415730
21267235 1 18411419549366332899
221357 26 18187359926505769965
2297311 6 18343584054003480709
231179 274 14634862059248978882
23175994 123 16630522960380340145
23198884 109 18040158413411127326
23402539 116 18259982669345878980
23402655 69 18187081736957020145
23536379 177 18409448068085857860
23559900 14 17988914613131435152
26918003 58 14405182876341831711
2838139 119 16587740962827473094
2916195 48 13623820470307735950
29717793 49 18272941496901950940
3004659 81 18409729522279198738
3009799 131 18408606968436560416
314173 85 14908188559470384835
32948 21 18412260623246261873
4047638 21 16515404067034682760
44062 13 17988357174127788015
4990 188 18411136930846919411
542803 24 17749106682186016069
59755656 520 16226049989767373427
633830 44 17530960272373979763
960060 61 18409451388528146422

>  <PUBCHEM_SHAPE_MULTIPOLES>  (1) 
346.44
13.84
1.47
1.14
2.12
0.01
-0.14
0.03
5.72
0.7
0.06
-0.43
-0.07
-0.71

>  <PUBCHEM_SHAPE_SELFOVERLAP>  (1) 
724.646

>  <PUBCHEM_SHAPE_VOLUME>  (1) 
197.9

>  <PUBCHEM_COORDINATE_TYPE>  (1) 
2
5
10

$$$$
