43143
     RDKit          3D

 19 20  0  0  1  0  0  0  0  0999 V2000
   -6.1753    0.3819    1.3221 F   0  0  0  0  0  0  0  0  0  0  0  0
   -0.8378    0.5726   -1.9689 O   0  0  0  0  0  0  0  0  0  0  0  0
    3.0970    0.1104   -0.1775 N   0  0  0  0  0  0  0  0  0  0  0  0
    3.9281   -1.0648    0.1174 C   0  0  0  0  0  0  0  0  0  0  0  0
    3.6464    1.2382    0.5885 C   0  0  0  0  0  0  0  0  0  0  0  0
    5.3228   -0.4496    0.0827 C   0  0  0  0  0  0  0  0  0  0  0  0
    5.1471    0.9368    0.6894 C   0  0  0  0  0  0  0  0  0  0  0  0
    1.6688   -0.0892    0.0159 C   0  0  0  0  0  0  0  0  0  0  0  0
    3.6564   -1.7643    1.4535 C   0  0  0  0  0  0  0  0  0  0  0  0
    3.3851    2.5751   -0.0966 C   0  0  0  0  0  0  0  0  0  0  0  0
    1.1601   -1.1987   -0.9065 C   0  0  0  0  0  0  0  0  0  0  0  0
   -0.3422   -1.4465   -0.7434 C   0  0  0  0  0  0  0  0  0  0  0  0
   -1.1978   -0.2477   -1.1279 C   0  0  0  0  0  0  0  0  0  0  0  0
   -2.5268   -0.0797   -0.4736 C   0  0  0  0  0  0  0  0  0  0  0  0
   -3.2125   -1.2040   -0.0716 C   0  0  0  0  0  0  0  0  0  0  0  0
   -3.0194    1.1938   -0.2956 C   0  0  0  0  0  0  0  0  0  0  0  0
   -4.4560   -1.0466    0.5405 C   0  0  0  0  0  0  0  0  0  0  0  0
   -4.2628    1.3513    0.3167 C   0  0  0  0  0  0  0  0  0  0  0  0
   -4.9811    0.2310    0.7348 C   0  0  0  0  0  0  0  0  0  0  0  0
  1 19  1  0
  2 13  2  0
  3  4  1  0
  3  5  1  0
  3  8  1  0
  4  6  1  0
  4  9  1  0
  5  7  1  0
  5 10  1  0
  6  7  1  0
  8 11  1  0
 11 12  1  0
 12 13  1  0
 13 14  1  0
 14 15  2  0
 14 16  1  0
 15 17  1  0
 16 18  2  0
 17 19  2  0
 18 19  1  0
M  END
>  <PUBCHEM_COMPOUND_CID>  (1) 
43143

>  <PUBCHEM_CONFORMER_RMSD>  (1) 
0.8

>  <PUBCHEM_CONFORMER_DIVERSEORDER>  (1) 
2
68
54
59
42
46
5
34
67
30
44
47
1
32
48
55
31
33
6
66
4
49
26
22
43
35
28
8
12
52
17
40
39
53
63
9
25
36
61
65
20
62
21
19
16
38
41
45
51
13
14
10
64
60
18
29
3
11
37
58
27
50
24
56
23
57
7
15

>  <PUBCHEM_MMFF94_PARTIAL_CHARGES>  (1) 
18
1 -0.19
12 0.06
13 0.42
14 0.09
15 -0.15
16 -0.15
17 -0.15
18 -0.15
19 0.19
2 -0.57
3 -0.81
38 0.15
39 0.15
4 0.27
40 0.15
41 0.15
5 0.27
8 0.27

>  <PUBCHEM_EFFECTIVE_ROTOR_COUNT>  (1) 
6

>  <PUBCHEM_PHARMACOPHORE_FEATURES>  (1) 
4
1 2 acceptor
1 3 cation
5 3 4 5 6 7 rings
6 14 15 16 17 18 19 rings

>  <PUBCHEM_HEAVY_ATOM_COUNT>  (1) 
19

>  <PUBCHEM_ATOM_DEF_STEREO_COUNT>  (1) 
0

>  <PUBCHEM_ATOM_UDEF_STEREO_COUNT>  (1) 
2

>  <PUBCHEM_BOND_DEF_STEREO_COUNT>  (1) 
0

>  <PUBCHEM_BOND_UDEF_STEREO_COUNT>  (1) 
0

>  <PUBCHEM_ISOTOPIC_ATOM_COUNT>  (1) 
0

>  <PUBCHEM_COMPONENT_COUNT>  (1) 
1

>  <PUBCHEM_CACTVS_TAUTO_COUNT>  (1) 
2

>  <PUBCHEM_CONFORMER_ID>  (1) 
0000A88700000002

>  <PUBCHEM_MMFF94_ENERGY>  (1) 
34.2513

>  <PUBCHEM_FEATURE_SELFOVERLAP>  (1) 
20.297

>  <PUBCHEM_SHAPE_FINGERPRINT>  (1) 
10354089 29 18410575089564714256
10366900 7 17313103060026625096
10670039 82 16845032142467570528
11045977 3 18260550034715506683
11089746 13 14405177353267375890
11370993 144 18262235513026560047
11552529 35 18264484168829895411
11796584 16 13840271385939989387
12107183 9 17760362197645634395
12596602 18 18341614840719199587
12633257 1 18412824681433146843
12670546 177 10807931570014914371
12892183 10 18114460076321679167
13533116 47 18040713619744827547
13583140 156 17968922133063459862
13785724 45 17767974130163742638
14251764 75 18053105309385644384
14341114 176 18408326570631419352
14341114 328 18343022185785881819
14576447 43 7925918084400385276
14849402 71 18189615120188066220
15183329 4 8358271319629649019
15188451 53 17023468659319364275
1813 80 15719398304147661159
18222031 100 15285359526362370526
193927 3 14635162178837113395
19784866 9 18131068199607169154
200 152 11674875589332022182
20671657 53 12612757903992332527
21065199 12 18187360982866842159
212847 35 17060337418591555058
21503847 285 18412544319285313568
2215653 11 10881681351788380651
22646028 1 13912321278605800134
23402539 116 12823294585196385394
23403322 49 11314308352105734029
23559900 14 17915188922679118143
2838139 119 16988560165743458945
2871803 45 8790890692111582124
312425 54 17967538952373984203
314173 85 16225764095237711815
3472631 163 15697707207817049712
351380 3 13840267000425056257
38570 142 18045238265434816956
465052 167 13840271385507550786
5104073 3 18268696368438401402
542803 24 17917710205904492058
5924683 9 18340203115677859815
633830 44 18202842162737255142

>  <PUBCHEM_SHAPE_MULTIPOLES>  (1) 
372.89
13.57
1.89
1.2
3.74
0.57
0.13
2.16
-5.64
-1.42
-0.13
0.36
-0.15
-0.36

>  <PUBCHEM_SHAPE_SELFOVERLAP>  (1) 
770.366

>  <PUBCHEM_SHAPE_VOLUME>  (1) 
216.9

>  <PUBCHEM_COORDINATE_TYPE>  (1) 
2
5
10

$$$$
