4314
     RDKit          3D

 21 22  0  0  0  0  0  0  0  0999 V2000
   -0.3873   -0.7855   -1.3509 S   0  0  0  0  0  0  0  0  0  0  0  0
    0.1969   -2.1112   -1.4231 O   0  0  0  0  0  0  0  0  0  0  0  0
   -0.7412   -0.0770   -2.5658 O   0  0  0  0  0  0  0  0  0  0  0  0
    0.6024    0.2156   -0.3978 N   0  0  0  0  0  0  0  0  0  0  0  0
    8.3827    0.2088   -0.4577 N   0  0  0  0  0  0  0  0  0  0  0  0
    3.4584   -0.0362    0.4484 C   0  0  0  0  0  0  0  0  0  0  0  0
    2.3162    0.4088    1.3680 C   0  0  0  0  0  0  0  0  0  0  0  0
    4.8254    0.5151    0.8664 C   0  0  0  0  0  0  0  0  0  0  0  0
    0.9758   -0.2025    0.9709 C   0  0  0  0  0  0  0  0  0  0  0  0
    5.9735    0.0462   -0.0312 C   0  0  0  0  0  0  0  0  0  0  0  0
   -1.8532   -0.8885   -0.3684 C   0  0  0  0  0  0  0  0  0  0  0  0
   -2.7131    0.1999   -0.1870 C   0  0  0  0  0  0  0  0  0  0  0  0
    7.3040    0.6489    0.4194 C   0  0  0  0  0  0  0  0  0  0  0  0
   -3.8664    0.0342    0.6164 C   0  0  0  0  0  0  0  0  0  0  0  0
   -2.1093   -2.1211    0.2223 C   0  0  0  0  0  0  0  0  0  0  0  0
   -2.4624    1.4483   -0.7795 C   0  0  0  0  0  0  0  0  0  0  0  0
   -4.1173   -1.2143    1.2088 C   0  0  0  0  0  0  0  0  0  0  0  0
   -3.2436   -2.2841    1.0121 C   0  0  0  0  0  0  0  0  0  0  0  0
   -4.7350    1.1217    0.8036 C   0  0  0  0  0  0  0  0  0  0  0  0
   -3.3362    2.5179   -0.5825 C   0  0  0  0  0  0  0  0  0  0  0  0
   -4.4703    2.3550    0.2077 C   0  0  0  0  0  0  0  0  0  0  0  0
  1  2  2  0
  1  3  2  0
  1  4  1  0
  1 11  1  0
  4  9  1  0
  5 13  1  0
  6  7  1  0
  6  8  1  0
  7  9  1  0
  8 10  1  0
 10 13  1  0
 11 12  2  0
 11 15  1  0
 12 14  1  0
 12 16  1  0
 14 17  2  0
 14 19  1  0
 15 18  2  0
 16 20  2  0
 17 18  1  0
 19 21  2  0
 20 21  1  0
M  END
>  <PUBCHEM_COMPOUND_CID>  (1) 
4314

>  <PUBCHEM_CONFORMER_RMSD>  (1) 
0.8

>  <PUBCHEM_CONFORMER_DIVERSEORDER>  (1) 
1
170
166
234
145
242
201
26
240
92
116
208
120
168
48
98
157
129
51
38
167
223
36
169
180
182
81
105
115
156
67
2
6
222
147
194
163
31
231
139
183
108
239
141
202
114
27
206
188
66
50
133
5
244
218
207
221
130
215
230
229
186
165
199
87
155
184
34
76
238
32
214
9
99
237
22
85
21
235
124
209
101
164
93
217
88
65
137
173
233
246
175
220
89
179
121
135
20
142
68
43
37
14
204
143
210
103
178
122
86
205
63
213
82
243
228
19
30
211
140
197
110
106
187
112
61
136
134
71
42
212
58
111
123
148
227
245
100
44
216
69
109
224
198
236
226
41
11
181
128
83
46
54
52
40
57
138
64
119
177
3
91
162
174
225
127
161
117
33
247
13
200
73
150
4
172
193
196
94
45
97
104
176
90
189
195
219
59
72
70
39
185
190
49
15
125
131
24
118
74
149
8
16
60
7
107
53
159
55
203
35
154
77
18
151
56
47
95
144
12
126
132
96
232
171
17
153
23
10
75
152
191
158
25
78
62
29
28
192
146
84
241
113
102
80
79
160

>  <PUBCHEM_MMFF94_PARTIAL_CHARGES>  (1) 
25
1 1.45
11 -0.01
13 0.27
15 -0.15
16 -0.15
17 -0.15
18 -0.15
19 -0.15
2 -0.65
20 -0.15
21 -0.15
3 -0.65
32 0.42
35 0.15
36 0.15
37 0.15
38 0.15
39 0.15
4 -0.91
40 0.15
41 0.36
42 0.36
43 0.15
5 -0.99
9 0.36

>  <PUBCHEM_EFFECTIVE_ROTOR_COUNT>  (1) 
8

>  <PUBCHEM_PHARMACOPHORE_FEATURES>  (1) 
8
1 2 acceptor
1 3 acceptor
1 4 donor
1 5 cation
1 5 donor
4 6 7 8 10 hydrophobe
6 11 12 14 15 17 18 rings
6 12 14 16 19 20 21 rings

>  <PUBCHEM_HEAVY_ATOM_COUNT>  (1) 
21

>  <PUBCHEM_ATOM_DEF_STEREO_COUNT>  (1) 
0

>  <PUBCHEM_ATOM_UDEF_STEREO_COUNT>  (1) 
0

>  <PUBCHEM_BOND_DEF_STEREO_COUNT>  (1) 
0

>  <PUBCHEM_BOND_UDEF_STEREO_COUNT>  (1) 
0

>  <PUBCHEM_ISOTOPIC_ATOM_COUNT>  (1) 
0

>  <PUBCHEM_COMPONENT_COUNT>  (1) 
1

>  <PUBCHEM_CACTVS_TAUTO_COUNT>  (1) 
1

>  <PUBCHEM_CONFORMER_ID>  (1) 
000010DA00000001

>  <PUBCHEM_MMFF94_ENERGY>  (1) 
27.6423

>  <PUBCHEM_FEATURE_SELFOVERLAP>  (1) 
40.639

>  <PUBCHEM_SHAPE_FINGERPRINT>  (1) 
10066227 112 17846493769134095688
11089746 13 13470688157729867058
11273773 46 18127422146969307622
11315181 36 17821729467760007736
14251752 14 18342455916571567008
14251758 9 17489581265138960946
14848160 23 7925912582705729608
14856354 85 18114187475185654626
14933364 13 18408606977021278896
15183329 4 16415480433481220228
15230672 131 18338797815712182662
16110190 28 18335422404655102028
17093844 174 17988916800002829650
17780758 139 17748828544256606435
17844677 252 18337113470844694952
17980427 26 17835224659517040727
1813 80 15575003805822044870
19377110 9 16660630861693638504
21756936 100 18411972555568422884
23559900 14 18121523278836808086
4325135 7 16660641873884120930
4938544 92 16878219771359623101
59755656 520 16056881364037649479
7226269 152 16917071066566921194
90127 26 18201708605172625680

>  <PUBCHEM_SHAPE_MULTIPOLES>  (1) 
414.32
15.59
2.2
1.46
42.88
0.06
-0.63
5.33
3.26
-4.2
-0.04
-0.33
-0.28
0.78

>  <PUBCHEM_SHAPE_SELFOVERLAP>  (1) 
844.751

>  <PUBCHEM_SHAPE_VOLUME>  (1) 
239.6

>  <PUBCHEM_COORDINATE_TYPE>  (1) 
2
5
10

$$$$
