43147
     RDKit          3D

 21 23  0  0  0  0  0  0  0  0999 V2000
    2.5537   -1.2933   -0.0159 O   0  0  0  0  0  0  0  0  0  0  0  0
    7.5369   -1.2535   -0.0156 O   0  0  0  0  0  0  0  0  0  0  0  0
    6.9535    0.9428    0.0317 O   0  0  0  0  0  0  0  0  0  0  0  0
    1.8449    0.9524   -0.0033 N   0  0  0  0  0  0  0  0  0  0  0  0
   -2.4233   -1.6811    0.0051 C   0  0  0  0  0  0  0  0  0  0  0  0
   -1.5371   -0.4530    0.0004 C   0  0  0  0  0  0  0  0  0  0  0  0
   -2.3212    0.7226   -0.0028 C   0  0  0  0  0  0  0  0  0  0  0  0
   -3.8062   -1.0640    0.0038 C   0  0  0  0  0  0  0  0  0  0  0  0
   -3.7185    0.3462   -0.0008 C   0  0  0  0  0  0  0  0  0  0  0  0
   -0.1543   -0.3998   -0.0002 C   0  0  0  0  0  0  0  0  0  0  0  0
   -1.7191    1.9697   -0.0066 C   0  0  0  0  0  0  0  0  0  0  0  0
    0.4522    0.8575   -0.0039 C   0  0  0  0  0  0  0  0  0  0  0  0
   -5.0287   -1.7125    0.0073 C   0  0  0  0  0  0  0  0  0  0  0  0
   -4.8655    1.1224   -0.0020 C   0  0  0  0  0  0  0  0  0  0  0  0
   -0.3222    2.0305   -0.0068 C   0  0  0  0  0  0  0  0  0  0  0  0
   -6.1847   -0.9298    0.0060 C   0  0  0  0  0  0  0  0  0  0  0  0
   -6.1040    0.4734    0.0014 C   0  0  0  0  0  0  0  0  0  0  0  0
    2.7834   -0.0873   -0.0015 C   0  0  0  0  0  0  0  0  0  0  0  0
    4.2142    0.4248   -0.0013 C   0  0  0  0  0  0  0  0  0  0  0  0
    5.2095   -0.7287    0.0008 C   0  0  0  0  0  0  0  0  0  0  0  0
    6.6365   -0.2394    0.0043 C   0  0  0  0  0  0  0  0  0  0  0  0
  1 18  2  0
  2 21  1  0
  3 21  2  0
  4 12  1  0
  4 18  1  0
  5  6  1  0
  5  8  1  0
  6  7  2  0
  6 10  1  0
  7  9  1  0
  7 11  1  0
  8  9  2  0
  8 13  1  0
  9 14  1  0
 10 12  2  0
 11 15  2  0
 12 15  1  0
 13 16  2  0
 14 17  2  0
 16 17  1  0
 18 19  1  0
 19 20  1  0
 20 21  1  0
M  END
>  <PUBCHEM_COMPOUND_CID>  (1) 
43147

>  <PUBCHEM_CONFORMER_RMSD>  (1) 
0.8

>  <PUBCHEM_CONFORMER_DIVERSEORDER>  (1) 
1
8
7
12
5
13
15
10
9
11
16
2
14
3
6
4

>  <PUBCHEM_MMFF94_PARTIAL_CHARGES>  (1) 
28
1 -0.57
10 -0.15
11 -0.15
12 0.12
13 -0.15
14 -0.15
15 -0.15
16 -0.15
17 -0.15
18 0.57
19 0.06
2 -0.65
20 0.06
21 0.66
24 0.15
25 0.15
26 0.15
27 0.15
28 0.15
29 0.15
3 -0.57
30 0.15
31 0.37
36 0.5
4 -0.55
5 0.29
6 -0.14
8 -0.14

>  <PUBCHEM_EFFECTIVE_ROTOR_COUNT>  (1) 
5.2

>  <PUBCHEM_PHARMACOPHORE_FEATURES>  (1) 
8
1 1 acceptor
1 2 acceptor
1 3 acceptor
1 4 donor
3 2 3 21 anion
5 5 6 7 8 9 rings
6 6 7 10 11 12 15 rings
6 8 9 13 14 16 17 rings

>  <PUBCHEM_HEAVY_ATOM_COUNT>  (1) 
21

>  <PUBCHEM_ATOM_DEF_STEREO_COUNT>  (1) 
0

>  <PUBCHEM_ATOM_UDEF_STEREO_COUNT>  (1) 
0

>  <PUBCHEM_BOND_DEF_STEREO_COUNT>  (1) 
0

>  <PUBCHEM_BOND_UDEF_STEREO_COUNT>  (1) 
0

>  <PUBCHEM_ISOTOPIC_ATOM_COUNT>  (1) 
0

>  <PUBCHEM_COMPONENT_COUNT>  (1) 
1

>  <PUBCHEM_CACTVS_TAUTO_COUNT>  (1) 
2

>  <PUBCHEM_CONFORMER_ID>  (1) 
0000A88B00000001

>  <PUBCHEM_MMFF94_ENERGY>  (1) 
62.5393

>  <PUBCHEM_FEATURE_SELFOVERLAP>  (1) 
40.817

>  <PUBCHEM_SHAPE_FINGERPRINT>  (1) 
10 15 18201145638645749736
10299344 5 18334296461882339034
10411042 1 18194402419742955491
10595046 47 18334577919921858112
106641 1 12967123939320261879
10968037 39 18408041818605035975
11315181 36 18273500087152505881
11524674 6 16774076284481096310
11578080 2 13684921315258718273
11719270 70 18272650126426793406
12091667 2 17385444306668927261
12166972 35 17821731645957761156
12236239 1 18040998440748461340
12516196 113 18202001036442187344
12838862 33 18337934749478266967
13288520 33 18410855473651393181
13533116 47 13973695984078574244
13685833 64 18410577309472118594
13862211 1 18412544344902247087
1420 363 18273216396157059166
14251752 14 17821720607247887469
14251764 18 18413672426188070381
15196674 1 18338517542739959845
15716309 27 18202844361828854590
15927050 60 17552072218904986972
16087824 20 18264488391927777877
17093844 174 18408601461945615353
18006028 8 18202281411654133937
18681886 176 18410006680454710840
21236236 1 18343022147263428041
21267235 1 18336270123835056227
21304253 13 18273497875334714433
22224240 67 16415473861754165262
2297311 6 18343306950823663348
23035841 295 18408322177127704578
23198884 109 15285356210837314101
23402539 116 18342171176944977271
23522609 53 18194150510646533440
23559900 14 18340198704076397648
23622692 88 15410894080668206840
3004659 81 18186237346887929264
335352 9 18410289217026945389
34797466 226 17775292686185537708
350125 39 18411981369052804568
3545911 37 18410292497537836398
4073 2 18041284374112664042
4214541 1 18410575089586040517
4325135 7 18408045130927044524
4463277 17 18410573994000062968
5104073 3 18269560593215046001
559249 180 18409165511320889487
59755656 215 18411421679158967726
59755656 520 16950280727966813699
6138700 20 18408886226545573107
67856867 119 18261678194097563316
999808 66 17822584897193262659

>  <PUBCHEM_SHAPE_MULTIPOLES>  (1) 
409.58
18.05
1.77
0.6
25.96
0.22
0
-4.88
0.05
-1.1
0
-0.09
0
0.02

>  <PUBCHEM_SHAPE_SELFOVERLAP>  (1) 
895.739

>  <PUBCHEM_SHAPE_VOLUME>  (1) 
222.7

>  <PUBCHEM_COORDINATE_TYPE>  (1) 
2
5
10

$$$$
