43151
     RDKit          3D

 20 23  0  0  0  0  0  0  0  0999 V2000
    0.3718    0.1291    0.0197 C   0  0  0  0  0  0  0  0  0  0  0  0
   -0.7569   -0.8085   -0.0276 C   0  0  0  0  0  0  0  0  0  0  0  0
    0.0318    1.5112    0.0512 C   0  0  0  0  0  0  0  0  0  0  0  0
   -2.0838   -0.3359    0.1807 C   0  0  0  0  0  0  0  0  0  0  0  0
   -2.3255    1.0247    0.3252 C   0  0  0  0  0  0  0  0  0  0  0  0
    1.8069   -0.1794    0.0386 C   0  0  0  0  0  0  0  0  0  0  0  0
   -1.2881    1.9352    0.2161 C   0  0  0  0  0  0  0  0  0  0  0  0
    2.7611    0.8629   -0.1353 C   0  0  0  0  0  0  0  0  0  0  0  0
   -3.6954    1.5919    0.5452 C   0  0  0  0  0  0  0  0  0  0  0  0
    1.0027    2.5055   -0.0815 C   0  0  0  0  0  0  0  0  0  0  0  0
   -0.6670   -2.1920   -0.3344 C   0  0  0  0  0  0  0  0  0  0  0  0
    2.3429    2.1854   -0.2188 C   0  0  0  0  0  0  0  0  0  0  0  0
   -3.1841   -1.2111    0.2097 C   0  0  0  0  0  0  0  0  0  0  0  0
    2.3720   -1.4586    0.2849 C   0  0  0  0  0  0  0  0  0  0  0  0
    4.1414    0.5998   -0.1906 C   0  0  0  0  0  0  0  0  0  0  0  0
   -1.7671   -3.0582   -0.3187 C   0  0  0  0  0  0  0  0  0  0  0  0
   -3.0259   -2.5701   -0.0233 C   0  0  0  0  0  0  0  0  0  0  0  0
   -4.4186    1.8688   -0.7669 C   0  0  0  0  0  0  0  0  0  0  0  0
    3.7480   -1.7145    0.2435 C   0  0  0  0  0  0  0  0  0  0  0  0
    4.6339   -0.6863   -0.0178 C   0  0  0  0  0  0  0  0  0  0  0  0
  1  2  2  0
  1  3  1  0
  1  6  1  0
  2  4  1  0
  2 11  1  0
  3  7  2  0
  3 10  1  0
  4  5  2  0
  4 13  1  0
  5  7  1  0
  5  9  1  0
  6  8  2  0
  6 14  1  0
  8 12  1  0
  8 15  1  0
  9 18  1  0
 10 12  2  0
 11 16  2  0
 13 17  2  0
 14 19  2  0
 15 20  2  0
 16 17  1  0
 19 20  1  0
M  END
>  <PUBCHEM_COMPOUND_CID>  (1) 
43151

>  <PUBCHEM_CONFORMER_RMSD>  (1) 
0.6

>  <PUBCHEM_CONFORMER_DIVERSEORDER>  (1) 
1

>  <PUBCHEM_MMFF94_PARTIAL_CHARGES>  (1) 
24
10 -0.15
11 -0.15
12 -0.15
13 -0.15
14 -0.15
15 -0.15
16 -0.15
17 -0.15
19 -0.15
20 -0.15
21 0.15
24 0.15
25 0.15
26 0.15
27 0.15
28 0.15
29 0.15
30 0.15
31 0.15
35 0.15
36 0.15
5 -0.14
7 -0.15
9 0.14

>  <PUBCHEM_EFFECTIVE_ROTOR_COUNT>  (1) 
1

>  <PUBCHEM_PHARMACOPHORE_FEATURES>  (1) 
5
1 18 hydrophobe
6 1 2 3 4 5 7 rings
6 1 3 6 8 10 12 rings
6 2 4 11 13 16 17 rings
6 6 8 14 15 19 20 rings

>  <PUBCHEM_HEAVY_ATOM_COUNT>  (1) 
20

>  <PUBCHEM_ATOM_DEF_STEREO_COUNT>  (1) 
0

>  <PUBCHEM_ATOM_UDEF_STEREO_COUNT>  (1) 
0

>  <PUBCHEM_BOND_DEF_STEREO_COUNT>  (1) 
0

>  <PUBCHEM_BOND_UDEF_STEREO_COUNT>  (1) 
0

>  <PUBCHEM_ISOTOPIC_ATOM_COUNT>  (1) 
0

>  <PUBCHEM_COMPONENT_COUNT>  (1) 
1

>  <PUBCHEM_CACTVS_TAUTO_COUNT>  (1) 
1

>  <PUBCHEM_CONFORMER_ID>  (1) 
0000A88F00000001

>  <PUBCHEM_MMFF94_ENERGY>  (1) 
83.5595

>  <PUBCHEM_FEATURE_SELFOVERLAP>  (1) 
25.445

>  <PUBCHEM_SHAPE_FINGERPRINT>  (1) 
10062212 137 18408318899751263562
10319926 262 18199164292875162834
10616163 171 18340492269628516006
10693767 8 17697858308119763951
10967382 1 18267023843073452730
1100329 8 18411419483828948528
11578080 2 17488167391352879673
12011746 2 18267867185782570276
12553582 1 18124314075718970974
12555020 224 18338791213597394901
13140716 1 18412270536283988961
138480 1 16825872860364017979
14178342 30 18266724939525708752
14223421 5 18196368353920411449
14790565 3 18123479275737079681
15042514 8 18410296891242128475
15099037 51 18337669702978505365
15196674 1 18410294726884325888
15415430 112 18410584993695962988
15442244 35 18410856585631249914
15536298 74 18270401719330732000
16752209 62 18341038705543492827
16945 1 18123467451844211033
17349148 13 18131064909894270429
17492 89 18337955709193855106
17804303 29 18342745113134792464
1813 80 17385444328106801996
19141452 34 18410575054682970240
19591789 44 17834680396312156854
20028762 73 18202842150390754703
20775438 99 16546877806756147431
20905425 154 17982459487817786246
21267235 1 18338527437933439058
21307412 95 17842858641426043510
21478907 32 18195806495585353255
21501502 16 18337959003243197900
21521239 73 18129641029868033397
21634736 98 18265337394537646878
221490 88 18263933313762160338
22182313 1 18198362683931269559
22393880 68 18267878340298363612
23184049 29 18268715085177714206
2334 1 18339645645701138353
23366157 5 18042402620224403700
23402539 116 18271515399543804380
23463225 33 18411140272605795310
23558518 356 18116997882371124795
23559900 14 18343862204585950584
238 59 17466465003622267397
2748010 2 18411708690168544501
3084891 72 18269834207853055897
335352 9 18338517426401160492
34934 24 18335134268083134800
350125 39 18410579513518198697
352729 6 18342465811537958769
484989 97 18337666521204389151
5104073 3 18410855482125362096
559249 180 18335415730122637786
58051976 100 18335423477900339165
633830 44 16877948247721929368
69090 78 18338514140635225089
6992083 37 18337685134585172240
7164475 11 18194398016499001095
7364860 26 18125722537587472152
74978 22 18411135857105199348
7832392 63 18410572894604317392
90525 40 18272092716215974511
9709674 26 18342182176093056342
9981440 41 17542505389437669088

>  <PUBCHEM_SHAPE_MULTIPOLES>  (1) 
411.59
7.81
3.31
0.7
2.53
0.88
0.01
-0.13
0.23
-1.89
0.24
-0.19
-0.05
-0.21

>  <PUBCHEM_SHAPE_SELFOVERLAP>  (1) 
933.738

>  <PUBCHEM_SHAPE_VOLUME>  (1) 
199.6

>  <PUBCHEM_COORDINATE_TYPE>  (1) 
2
5
10

$$$$
