43158
     RDKit          3D

 18 19  0  0  1  0  0  0  0  0999 V2000
    2.4678    0.0343   -1.3231 S   0  0  0  0  0  0  0  0  0  0  0  0
   -2.8630    1.7690    1.6780 O   0  0  0  0  0  0  0  0  0  0  0  0
   -2.1140   -1.2197    1.6317 O   0  0  0  0  0  0  0  0  0  0  0  0
    0.0446   -3.3965    0.2880 O   0  0  0  0  0  0  0  0  0  0  0  0
    1.8792   -2.1764    0.9009 O   0  0  0  0  0  0  0  0  0  0  0  0
   -1.1750   -1.1338   -0.5321 N   0  0  0  0  0  0  0  0  0  0  0  0
    4.4661    2.3278    1.3553 N   0  0  0  0  0  0  0  0  0  0  0  0
   -1.5642   -0.0136   -1.4166 C   0  0  0  0  0  0  0  0  0  0  0  0
   -2.5324    0.4214   -0.2832 C   0  0  0  0  0  0  0  0  0  0  0  0
   -0.2428    0.6939   -1.7372 C   0  0  0  0  0  0  0  0  0  0  0  0
   -1.9873   -0.7887    0.5075 C   0  0  0  0  0  0  0  0  0  0  0  0
   -2.2872    1.7599    0.3713 C   0  0  0  0  0  0  0  0  0  0  0  0
    0.1864   -1.2303   -0.4737 C   0  0  0  0  0  0  0  0  0  0  0  0
    0.7838   -0.2430   -1.1525 C   0  0  0  0  0  0  0  0  0  0  0  0
   -2.8801    2.9137   -0.4310 C   0  0  0  0  0  0  0  0  0  0  0  0
    0.8152   -2.2867    0.3124 C   0  0  0  0  0  0  0  0  0  0  0  0
    2.7632    1.1022    0.1057 C   0  0  0  0  0  0  0  0  0  0  0  0
    4.2397    1.4664    0.1985 C   0  0  0  0  0  0  0  0  0  0  0  0
  1 14  1  0
  1 17  1  0
  2 12  1  0
  3 11  2  0
  4 16  1  0
  5 16  2  0
  6  8  1  0
  6 11  1  0
  6 13  1  0
  7 18  1  0
  8  9  1  0
  8 10  1  0
  9 11  1  0
  9 12  1  0
 10 14  1  0
 12 15  1  0
 13 14  2  0
 13 16  1  0
 17 18  1  0
M  END
>  <PUBCHEM_COMPOUND_CID>  (1) 
43158

>  <PUBCHEM_CONFORMER_RMSD>  (1) 
0.8

>  <PUBCHEM_CONFORMER_DIVERSEORDER>  (1) 
1
5
3
4
7
2
6
8

>  <PUBCHEM_MMFF94_PARTIAL_CHARGES>  (1) 
21
1 -0.33
10 0.14
11 0.58
12 0.28
13 0.12
14 -0.04
16 0.71
17 0.23
18 0.27
2 -0.68
27 0.4
3 -0.57
32 0.5
33 0.36
34 0.36
4 -0.65
5 -0.57
6 -0.39
7 -0.99
8 0.22
9 0.05

>  <PUBCHEM_EFFECTIVE_ROTOR_COUNT>  (1) 
5.4

>  <PUBCHEM_PHARMACOPHORE_FEATURES>  (1) 
9
1 2 acceptor
1 2 donor
1 3 acceptor
1 4 acceptor
1 5 acceptor
1 7 cation
1 7 donor
3 4 5 16 anion
7 6 8 9 10 11 13 14 rings

>  <PUBCHEM_HEAVY_ATOM_COUNT>  (1) 
18

>  <PUBCHEM_ATOM_DEF_STEREO_COUNT>  (1) 
3

>  <PUBCHEM_ATOM_UDEF_STEREO_COUNT>  (1) 
0

>  <PUBCHEM_BOND_DEF_STEREO_COUNT>  (1) 
0

>  <PUBCHEM_BOND_UDEF_STEREO_COUNT>  (1) 
0

>  <PUBCHEM_ISOTOPIC_ATOM_COUNT>  (1) 
0

>  <PUBCHEM_COMPONENT_COUNT>  (1) 
1

>  <PUBCHEM_CACTVS_TAUTO_COUNT>  (1) 
1

>  <PUBCHEM_CONFORMER_ID>  (1) 
0000A89600000001

>  <PUBCHEM_MMFF94_ENERGY>  (1) 
54.7291

>  <PUBCHEM_FEATURE_SELFOVERLAP>  (1) 
45.726

>  <PUBCHEM_SHAPE_FINGERPRINT>  (1) 
10465860 71 10447934949110991020
11206711 2 12679182648516007903
12202030 40 12324525410432033212
12633257 1 17606100815517081168
13134695 92 17329705423370340711
13140716 1 18115870706827716850
14178342 30 17968389991036903403
14787075 74 17983290714624634533
15295992 7 18199206021938847600
16945 1 18121241992954436191
20344682 10 18191885602444162283
20510252 161 18267867370365800478
21524375 3 18272089396290417028
21650355 55 17832421278037904926
27216 239 18342457096680628304
2748010 2 18041288685547861095
305870 269 18336826403398207852
4175511 71 17334223329312396846
69474 34 17757537561291372162
7364860 26 18050855420367623822
81228 2 17900552481788570534
9981440 41 18337095817927488169

>  <PUBCHEM_SHAPE_MULTIPOLES>  (1) 
340.84
5.92
3.18
1.52
5.17
0.71
0.03
-5.86
-2.17
0.12
-1.11
-0.1
-0.27
0.59

>  <PUBCHEM_SHAPE_SELFOVERLAP>  (1) 
698.655

>  <PUBCHEM_SHAPE_VOLUME>  (1) 
200.1

>  <PUBCHEM_COORDINATE_TYPE>  (1) 
2
5
10

$$$$
