43168
     RDKit          3D

 25 28  0  0  1  0  0  0  0  0999 V2000
    1.7731    2.1225   -1.4435 O   0  0  0  0  0  0  0  0  0  0  0  0
   -1.3345    1.4095    1.8252 O   0  0  0  0  0  0  0  0  0  0  0  0
   -0.1885    3.2802   -1.6797 O   0  0  0  0  0  0  0  0  0  0  0  0
    0.4871    2.7988    1.7680 O   0  0  0  0  0  0  0  0  0  0  0  0
    5.8091   -2.3167    0.8762 O   0  0  0  0  0  0  0  0  0  0  0  0
   -5.7233   -2.6473   -0.5277 O   0  0  0  0  0  0  0  0  0  0  0  0
    3.7639   -0.8461   -0.4491 N   0  0  0  0  0  0  0  0  0  0  0  0
   -4.0785   -0.4169    0.1214 N   0  0  0  0  0  0  0  0  0  0  0  0
   -0.0493    1.3886   -0.1487 C   0  0  0  0  0  0  0  0  0  0  0  0
    1.0276    0.3159   -0.1627 C   0  0  0  0  0  0  0  0  0  0  0  0
   -1.4411    0.8591   -0.4396 C   0  0  0  0  0  0  0  0  0  0  0  0
    2.2609    1.0988   -0.5663 C   0  0  0  0  0  0  0  0  0  0  0  0
   -1.9249    0.4509    0.9366 C   0  0  0  0  0  0  0  0  0  0  0  0
    0.4543    2.3730   -1.1737 C   0  0  0  0  0  0  0  0  0  0  0  0
   -0.2329    1.9691    1.2338 C   0  0  0  0  0  0  0  0  0  0  0  0
    3.2960    0.2557   -1.2873 C   0  0  0  0  0  0  0  0  0  0  0  0
   -3.4353    0.4849    1.0747 C   0  0  0  0  0  0  0  0  0  0  0  0
    4.6953   -1.7071   -1.1910 C   0  0  0  0  0  0  0  0  0  0  0  0
    4.4100   -0.3372    0.7689 C   0  0  0  0  0  0  0  0  0  0  0  0
   -3.6124   -1.7973    0.3130 C   0  0  0  0  0  0  0  0  0  0  0  0
   -5.5410   -0.3568    0.2513 C   0  0  0  0  0  0  0  0  0  0  0  0
    5.1786   -2.8419   -0.2925 C   0  0  0  0  0  0  0  0  0  0  0  0
    4.9011   -1.5041    1.6211 C   0  0  0  0  0  0  0  0  0  0  0  0
   -4.3058   -2.7208   -0.6845 C   0  0  0  0  0  0  0  0  0  0  0  0
   -6.1895   -1.3148   -0.7439 C   0  0  0  0  0  0  0  0  0  0  0  0
  1 12  1  0
  1 14  1  0
  2 13  1  0
  2 15  1  0
  3 14  2  0
  4 15  2  0
  5 22  1  0
  5 23  1  0
  6 24  1  0
  6 25  1  0
  7 16  1  0
  7 18  1  0
  7 19  1  0
  8 17  1  0
  8 20  1  0
  8 21  1  0
  9 10  1  0
  9 11  1  0
  9 14  1  0
  9 15  1  0
 10 12  1  0
 11 13  1  0
 12 16  1  0
 13 17  1  0
 18 22  1  0
 19 23  1  0
 20 24  1  0
 21 25  1  0
M  END
>  <PUBCHEM_COMPOUND_CID>  (1) 
43168

>  <PUBCHEM_CONFORMER_RMSD>  (1) 
0.8

>  <PUBCHEM_CONFORMER_DIVERSEORDER>  (1) 
1
12
23
73
29
63
62
67
9
16
57
25
4
19
71
53
2
75
31
20
69
66
76
5
34
3
79
77
30
21
28
48
52
36
46
43
15
65
44
72
39
74
61
47
24
50
26
27
64
14
58
55
68
49
32
10
33
41
60
59
7
37
70
22
17
8
42
78
11
38
6
54
13
35
45
56
18
40
51

>  <PUBCHEM_MMFF94_PARTIAL_CHARGES>  (1) 
23
1 -0.43
12 0.28
13 0.28
14 0.66
15 0.66
16 0.27
17 0.27
18 0.27
19 0.27
2 -0.43
20 0.27
21 0.27
22 0.28
23 0.28
24 0.28
25 0.28
3 -0.57
4 -0.57
5 -0.56
6 -0.56
7 -0.81
8 -0.81
9 0.12

>  <PUBCHEM_EFFECTIVE_ROTOR_COUNT>  (1) 
7.6

>  <PUBCHEM_PHARMACOPHORE_FEATURES>  (1) 
10
1 3 acceptor
1 4 acceptor
1 5 acceptor
1 6 acceptor
1 7 cation
1 8 cation
5 1 9 10 12 14 rings
5 2 9 11 13 15 rings
6 5 7 18 19 22 23 rings
6 6 8 20 21 24 25 rings

>  <PUBCHEM_HEAVY_ATOM_COUNT>  (1) 
25

>  <PUBCHEM_ATOM_DEF_STEREO_COUNT>  (1) 
0

>  <PUBCHEM_ATOM_UDEF_STEREO_COUNT>  (1) 
2

>  <PUBCHEM_BOND_DEF_STEREO_COUNT>  (1) 
0

>  <PUBCHEM_BOND_UDEF_STEREO_COUNT>  (1) 
0

>  <PUBCHEM_ISOTOPIC_ATOM_COUNT>  (1) 
0

>  <PUBCHEM_COMPONENT_COUNT>  (1) 
1

>  <PUBCHEM_CACTVS_TAUTO_COUNT>  (1) 
1

>  <PUBCHEM_CONFORMER_ID>  (1) 
0000A8A000000001

>  <PUBCHEM_MMFF94_ENERGY>  (1) 
46.059

>  <PUBCHEM_FEATURE_SELFOVERLAP>  (1) 
50.766

>  <PUBCHEM_SHAPE_FINGERPRINT>  (1) 
10042902 136 18341627975267481662
10074138 170 17415293727806777257
10622 236 17170661191362948042
10753850 27 18334859402781738771
11069576 57 16878501208109325074
11497681 19 18412270511194803710
11552529 35 18125163723961876736
11578080 2 18412254043236045568
12390115 104 10951755409158494772
12422481 6 17846500300782425015
12892183 10 15841280237606911208
12895836 83 11819287666990526474
13583140 156 16485279518681891808
13885169 86 11023526035062613954
13955234 65 17906179799653567969
14251751 18 18410849975766245639
14341114 328 10303819770004897373
14429115 67 18411982472806178050
1454969 45 18335145332520256780
14848178 5 18413105065287808127
14849402 71 10807675375796242972
15183329 4 14851883621358292086
15188451 53 18343014454844989170
15420108 30 17762063134119505705
15728490 51 18343299293519557910
17539 30 17896878755462753668
17857418 61 18410857667894657583
1813 80 18335139795489968340
18222031 100 18408328769955218958
19438510 23 9511164241155489926
20028762 73 18343021069274642422
20567600 234 13901905644117063987
20567600 70 18200872997256606930
20626108 58 18410013264323226581
21033648 29 14764361401076863291
21585480 29 17202178885283346110
23559900 14 18339071722728755065
23622692 118 18114182978686893652
2838139 119 8142085338464264022
3004659 81 18339651121573516055
3027735 51 17679019305368482626
312425 54 17488753254767407786
3729539 64 16878218671811234883
439807 62 18194683894630534799
46194498 28 15576994098072169983
463206 1 18040438801793358779
5085150 59 17988923337112275183
5104073 3 17488755613632420331
559249 180 18411702054940080811
56616090 89 18341612586114628336
59682541 52 16588012503202585995
613672 6 17821733844880257250
6438161 24 18342167913144956623
76465 3 18335139778225586044
7808743 9 10881404265962226177
7970288 3 18335983073775335894
960060 61 17604157003328712030
9841814 1 17058946643698832129

>  <PUBCHEM_SHAPE_MULTIPOLES>  (1) 
469.31
13.85
3.54
1.55
3.62
0.05
-0.23
-16.9
0.07
-0.51
0.62
-0.89
0.77
-1.53

>  <PUBCHEM_SHAPE_SELFOVERLAP>  (1) 
992.018

>  <PUBCHEM_SHAPE_VOLUME>  (1) 
264.5

>  <PUBCHEM_COORDINATE_TYPE>  (1) 
2
5
10

$$$$
