43163
     RDKit          3D

 23 22  0  0  1  0  0  0  0  0999 V2000
    3.5292    3.0603    0.2427 S   0  0  0  0  0  0  0  0  0  0  0  0
    2.8136   -0.6826    0.1874 O   0  0  0  0  0  0  0  0  0  0  0  0
    2.7706    3.9315    1.3928 O   0  0  0  0  0  0  0  0  0  0  0  0
    3.3523    3.7157   -1.0373 O   0  0  0  0  0  0  0  0  0  0  0  0
    4.8379    2.6755    0.7317 O   0  0  0  0  0  0  0  0  0  0  0  0
    3.7757    0.6018   -1.4678 O   0  0  0  0  0  0  0  0  0  0  0  0
    3.4784   -4.2938   -0.1568 N   0  0  0  0  0  0  0  0  0  0  0  0
   -1.3856    1.4099   -0.2744 C   0  0  0  0  0  0  0  0  0  0  0  0
   -0.0096    1.0259    0.2747 C   0  0  0  0  0  0  0  0  0  0  0  0
   -2.4751    0.4736    0.2512 C   0  0  0  0  0  0  0  0  0  0  0  0
    1.0838    1.9464   -0.2763 C   0  0  0  0  0  0  0  0  0  0  0  0
   -3.8461    0.8362   -0.3243 C   0  0  0  0  0  0  0  0  0  0  0  0
   -4.9389   -0.0810    0.2292 C   0  0  0  0  0  0  0  0  0  0  0  0
    2.4674    1.6410    0.3032 C   0  0  0  0  0  0  0  0  0  0  0  0
   -6.3299    0.2176   -0.3375 C   0  0  0  0  0  0  0  0  0  0  0  0
   -7.4340   -0.6502    0.2704 C   0  0  0  0  0  0  0  0  0  0  0  0
    3.1010    0.4903   -0.4528 C   0  0  0  0  0  0  0  0  0  0  0  0
   -8.7968   -0.3191   -0.3395 C   0  0  0  0  0  0  0  0  0  0  0  0
   -9.9045   -1.1512    0.2868 C   0  0  0  0  0  0  0  0  0  0  0  0
    3.3651   -1.8615   -0.4077 C   0  0  0  0  0  0  0  0  0  0  0  0
    2.9529   -3.0666    0.4226 C   0  0  0  0  0  0  0  0  0  0  0  0
    2.7018   -5.4524    0.2911 C   0  0  0  0  0  0  0  0  0  0  0  0
    4.8909   -4.4675    0.1905 C   0  0  0  0  0  0  0  0  0  0  0  0
  1  3  1  0
  1  4  2  0
  1  5  2  0
  1 14  1  0
  2 17  1  0
  2 20  1  0
  6 17  2  0
  7 21  1  0
  7 22  1  0
  7 23  1  0
  8  9  1  0
  8 10  1  0
  9 11  1  0
 10 12  1  0
 11 14  1  0
 12 13  1  0
 13 15  1  0
 14 17  1  0
 15 16  1  0
 16 18  1  0
 18 19  1  0
 20 21  1  0
M  END
>  <PUBCHEM_COMPOUND_CID>  (1) 
43163

>  <PUBCHEM_CONFORMER_RMSD>  (1) 
1.6

>  <PUBCHEM_CONFORMER_DIVERSEORDER>  (1) 
1
3
24
32
13
22
29
9
17
23
21
27
8
18
30
6
19
31
2
34
16
11
20
26
7
25
10
5
14
4
28
15
33
12

>  <PUBCHEM_MMFF94_PARTIAL_CHARGES>  (1) 
14
1 1.38
14 0.17
17 0.66
2 -0.43
20 0.28
21 0.27
22 0.27
23 0.27
3 -0.68
4 -0.65
5 -0.65
50 0.5
6 -0.57
7 -0.81

>  <PUBCHEM_EFFECTIVE_ROTOR_COUNT>  (1) 
15

>  <PUBCHEM_PHARMACOPHORE_FEATURES>  (1) 
7
1 19 hydrophobe
1 3 acceptor
1 4 acceptor
1 5 acceptor
1 6 acceptor
1 7 cation
4 1 3 4 5 anion

>  <PUBCHEM_HEAVY_ATOM_COUNT>  (1) 
23

>  <PUBCHEM_ATOM_DEF_STEREO_COUNT>  (1) 
0

>  <PUBCHEM_ATOM_UDEF_STEREO_COUNT>  (1) 
1

>  <PUBCHEM_BOND_DEF_STEREO_COUNT>  (1) 
0

>  <PUBCHEM_BOND_UDEF_STEREO_COUNT>  (1) 
0

>  <PUBCHEM_ISOTOPIC_ATOM_COUNT>  (1) 
0

>  <PUBCHEM_COMPONENT_COUNT>  (1) 
1

>  <PUBCHEM_CACTVS_TAUTO_COUNT>  (1) 
1

>  <PUBCHEM_CONFORMER_ID>  (1) 
0000A89B00000001

>  <PUBCHEM_MMFF94_ENERGY>  (1) 
16.6747

>  <PUBCHEM_FEATURE_SELFOVERLAP>  (1) 
35.575

>  <PUBCHEM_SHAPE_FINGERPRINT>  (1) 
10319688 140 18409730638453679090
10411042 1 18122624960035029738
11607047 191 17557687339078968640
12107183 9 17910684159527099601
13073987 5 18342176653361361913
13533116 47 18411419510279058729
13955234 65 18342451564947270288
13989917 61 18409731751425994867
14919807 6 17605264079522590015
15328684 2 17346049879473671939
17492 89 18339077069319889009
17859628 70 18410854335194928854
19427546 62 18122343746808769984
20157964 124 18338799017759206329
20165401 70 18413103958178529583
21049683 271 18335988563333338548
21130935 74 18411140252122716435
21344244 78 18129931296247393992
21360442 33 18335419024542194179
23523787 8 17901425408464402574
23523788 1 17904731455341158786
23845131 108 18052253192152683128
3014965 18 18410852136825690861
3421961 26 18339358557423776400
4073 2 18194966464527460843
5309563 4 18123188991940447022
59682541 52 18408882932859246221
6025842 7 18410295847559917740
6441014 3 17617375078821506707
70251023 43 18336828576483147201

>  <PUBCHEM_SHAPE_MULTIPOLES>  (1) 
442.85
21.74
6.48
0.86
77.56
7.58
-0.03
10.97
0.28
-18.95
1
-0.58
-0.46
0.4

>  <PUBCHEM_SHAPE_SELFOVERLAP>  (1) 
820.211

>  <PUBCHEM_SHAPE_VOLUME>  (1) 
279.2

>  <PUBCHEM_COORDINATE_TYPE>  (1) 
2
5
10

$$$$
