43166
     RDKit          3D

 23 24  0  0  1  0  0  0  0  0999 V2000
   -1.5222    1.1832    1.6346 O   0  0  0  0  0  0  0  0  0  0  0  0
    1.8533    1.7471   -1.3883 O   0  0  0  0  0  0  0  0  0  0  0  0
    0.2191    2.6722    1.5948 O   0  0  0  0  0  0  0  0  0  0  0  0
   -0.1338    2.7459   -1.9332 O   0  0  0  0  0  0  0  0  0  0  0  0
   -3.9768   -0.9992   -0.0838 N   0  0  0  0  0  0  0  0  0  0  0  0
    3.8679   -0.9846    0.0978 N   0  0  0  0  0  0  0  0  0  0  0  0
   -0.0475    1.0379   -0.1963 C   0  0  0  0  0  0  0  0  0  0  0  0
   -1.3732    0.3935   -0.5557 C   0  0  0  0  0  0  0  0  0  0  0  0
    1.0811    0.0404    0.0089 C   0  0  0  0  0  0  0  0  0  0  0  0
   -1.9693    0.1015    0.8058 C   0  0  0  0  0  0  0  0  0  0  0  0
    2.3049    0.8534   -0.3621 C   0  0  0  0  0  0  0  0  0  0  0  0
   -0.3986    1.7470    1.0905 C   0  0  0  0  0  0  0  0  0  0  0  0
    0.5026    1.9397   -1.2721 C   0  0  0  0  0  0  0  0  0  0  0  0
   -3.4856    0.0535    0.7978 C   0  0  0  0  0  0  0  0  0  0  0  0
    3.4497    0.0068   -0.8864 C   0  0  0  0  0  0  0  0  0  0  0  0
   -3.4382   -2.3000    0.3172 C   0  0  0  0  0  0  0  0  0  0  0  0
   -5.4403   -1.0326   -0.0807 C   0  0  0  0  0  0  0  0  0  0  0  0
    4.3163   -0.3314    1.3287 C   0  0  0  0  0  0  0  0  0  0  0  0
    4.9320   -1.8315   -0.4442 C   0  0  0  0  0  0  0  0  0  0  0  0
   -3.9420   -3.4071   -0.5933 C   0  0  0  0  0  0  0  0  0  0  0  0
   -6.0206    0.2880   -0.5573 C   0  0  0  0  0  0  0  0  0  0  0  0
    4.7553   -1.3531    2.3639 C   0  0  0  0  0  0  0  0  0  0  0  0
    4.4659   -2.5709   -1.6869 C   0  0  0  0  0  0  0  0  0  0  0  0
  1 10  1  0
  1 12  1  0
  2 11  1  0
  2 13  1  0
  3 12  2  0
  4 13  2  0
  5 14  1  0
  5 16  1  0
  5 17  1  0
  6 15  1  0
  6 18  1  0
  6 19  1  0
  7  8  1  0
  7  9  1  0
  7 12  1  0
  7 13  1  0
  8 10  1  0
  9 11  1  0
 10 14  1  0
 11 15  1  0
 16 20  1  0
 17 21  1  0
 18 22  1  0
 19 23  1  0
M  END
>  <PUBCHEM_COMPOUND_CID>  (1) 
43166

>  <PUBCHEM_CONFORMER_RMSD>  (1) 
1

>  <PUBCHEM_CONFORMER_DIVERSEORDER>  (1) 
1
15
39
122
3
94
7
21
27
105
23
124
74
2
109
108
40
106
64
118
4
33
123
113
67
25
65
117
16
5
57
17
115
96
75
88
82
92
84
126
116
59
6
99
83
89
81
114
110
107
55
125
95
70
60
43
37
121
111
58
61
32
103
41
101
54
119
62
76
35
102
26
71
68
22
97
53
49
19
36
69
24
93
91
77
98
48
20
47
78
18
50
34
42
14
112
46
104
13
45
86
11
44
66
90
10
100
56
9
52
85
28
8
51
79
72
29
87
63
80
38
120
73
30
12
31

>  <PUBCHEM_MMFF94_PARTIAL_CHARGES>  (1) 
17
1 -0.43
10 0.28
11 0.28
12 0.66
13 0.66
14 0.27
15 0.27
16 0.27
17 0.27
18 0.27
19 0.27
2 -0.43
3 -0.57
4 -0.57
5 -0.81
6 -0.81
7 0.12

>  <PUBCHEM_EFFECTIVE_ROTOR_COUNT>  (1) 
9.2

>  <PUBCHEM_PHARMACOPHORE_FEATURES>  (1) 
6
1 3 acceptor
1 4 acceptor
1 5 cation
1 6 cation
5 1 7 8 10 12 rings
5 2 7 9 11 13 rings

>  <PUBCHEM_HEAVY_ATOM_COUNT>  (1) 
23

>  <PUBCHEM_ATOM_DEF_STEREO_COUNT>  (1) 
0

>  <PUBCHEM_ATOM_UDEF_STEREO_COUNT>  (1) 
2

>  <PUBCHEM_BOND_DEF_STEREO_COUNT>  (1) 
0

>  <PUBCHEM_BOND_UDEF_STEREO_COUNT>  (1) 
0

>  <PUBCHEM_ISOTOPIC_ATOM_COUNT>  (1) 
0

>  <PUBCHEM_COMPONENT_COUNT>  (1) 
1

>  <PUBCHEM_CACTVS_TAUTO_COUNT>  (1) 
1

>  <PUBCHEM_CONFORMER_ID>  (1) 
0000A89E00000001

>  <PUBCHEM_MMFF94_ENERGY>  (1) 
38.1691

>  <PUBCHEM_FEATURE_SELFOVERLAP>  (1) 
30.464

>  <PUBCHEM_SHAPE_FINGERPRINT>  (1) 
10042902 136 18342190959533311606
10610426 29 18410011052389052800
11578080 2 18338221743504946504
11796584 16 18334573564181708331
12390115 104 12390939224491157640
12553582 1 17749688298183422322
12892183 10 17203045197450259354
12895836 83 12468653749644806718
12895837 130 7924468898148115478
12916748 109 7853571314055996619
13583140 156 16700889376564455408
14251757 17 12612760124664660198
14341114 328 13686294690421805739
14429115 67 18413109446333642226
14848178 5 18342454867724483567
15183329 4 17967812713589411143
15342168 16 12607400009694539400
15342816 4 18113338605164532582
15420108 30 17616539450168610769
1813 80 18260833687293435956
18186145 218 15575548219318621477
18222031 100 18335144167951109934
193927 3 18337686255634887970
19784866 140 16443337659639766241
20567600 234 14405178504408061483
20626108 58 18263639726661287115
20645477 70 18041570238049591438
21756936 100 10447632600925615516
22079108 93 11167932555001132549
23253445 4 17203601614336482328
23419403 2 18197189586033127768
23559900 14 18272372026460459848
23622692 118 17459463352521172146
2637199 183 8430321242206944890
2838139 119 10665229293373339114
3004659 81 18334861631732693246
312425 54 17703516484528386170
3472631 163 10737585941778862682
4098825 35 12973898004726096514
44062 13 18261674861398087567
4463277 69 18410300202756560668
463206 1 17531239573802255922
5104073 3 17915748785305083555
5207 123 18408609136550857663
59682541 52 17022890264484405907
633830 44 16371285662165673669
88748 71 18266751366539205955
960060 61 16950289498738073598

>  <PUBCHEM_SHAPE_MULTIPOLES>  (1) 
439.89
11.96
3.11
1.73
3.69
0.96
0.35
10.36
0.39
0.54
-0.87
-2.04
-0.36
-0.18

>  <PUBCHEM_SHAPE_SELFOVERLAP>  (1) 
893.693

>  <PUBCHEM_SHAPE_VOLUME>  (1) 
261.6

>  <PUBCHEM_COORDINATE_TYPE>  (1) 
2
5
10

$$$$
