43171
     RDKit          3D

 12 13  0  0  0  0  0  0  0  0999 V2000
    3.4398    0.0000   -0.0002 S   0  0  0  0  0  0  0  0  0  0  0  0
    1.4972    0.0001   -0.0001 P   0  0  0  0  0  0  0  0  0  0  0  0
    0.8328   -0.0826    1.4789 O   0  0  0  0  0  0  0  0  0  0  0  0
    0.8325    1.3221   -0.6679 O   0  0  0  0  0  0  0  0  0  0  0  0
    0.8325   -1.2395   -0.8111 O   0  0  0  0  0  0  0  0  0  0  0  0
   -1.8319    0.0000    0.0001 N   0  0  0  0  0  0  0  0  0  0  0  0
   -1.6010    0.1209    1.4324 C   0  0  0  0  0  0  0  0  0  0  0  0
   -1.6011    1.1800   -0.8208 C   0  0  0  0  0  0  0  0  0  0  0  0
   -1.6010   -1.3010   -0.6116 C   0  0  0  0  0  0  0  0  0  0  0  0
   -0.2665    0.7244    1.8630 C   0  0  0  0  0  0  0  0  0  0  0  0
   -0.2668    1.2513   -1.5589 C   0  0  0  0  0  0  0  0  0  0  0  0
   -0.2666   -1.9757   -0.3040 C   0  0  0  0  0  0  0  0  0  0  0  0
  1  2  2  0
  2  3  1  0
  2  4  1  0
  2  5  1  0
  3 10  1  0
  4 11  1  0
  5 12  1  0
  6  7  1  0
  6  8  1  0
  6  9  1  0
  7 10  1  0
  8 11  1  0
  9 12  1  0
M  END
>  <PUBCHEM_COMPOUND_CID>  (1) 
43171

>  <PUBCHEM_CONFORMER_RMSD>  (1) 
0.4

>  <PUBCHEM_CONFORMER_DIVERSEORDER>  (1) 
1
2

>  <PUBCHEM_MMFF94_PARTIAL_CHARGES>  (1) 
12
1 -0.68
10 0.28
11 0.28
12 0.28
2 1.49
3 -0.55
4 -0.55
5 -0.55
6 -0.81
7 0.27
8 0.27
9 0.27

>  <PUBCHEM_EFFECTIVE_ROTOR_COUNT>  (1) 
1.8

>  <PUBCHEM_PHARMACOPHORE_FEATURES>  (1) 
1
1 6 cation

>  <PUBCHEM_HEAVY_ATOM_COUNT>  (1) 
12

>  <PUBCHEM_ATOM_DEF_STEREO_COUNT>  (1) 
0

>  <PUBCHEM_ATOM_UDEF_STEREO_COUNT>  (1) 
0

>  <PUBCHEM_BOND_DEF_STEREO_COUNT>  (1) 
0

>  <PUBCHEM_BOND_UDEF_STEREO_COUNT>  (1) 
0

>  <PUBCHEM_ISOTOPIC_ATOM_COUNT>  (1) 
0

>  <PUBCHEM_COMPONENT_COUNT>  (1) 
1

>  <PUBCHEM_CACTVS_TAUTO_COUNT>  (1) 
1

>  <PUBCHEM_CONFORMER_ID>  (1) 
0000A8A300000001

>  <PUBCHEM_MMFF94_ENERGY>  (1) 
35.5339

>  <PUBCHEM_FEATURE_SELFOVERLAP>  (1) 
5.074

>  <PUBCHEM_SHAPE_FINGERPRINT>  (1) 
10702982 57 17055853442358380656
12423570 1 12579156046978747671
13024252 1 15719392836880652290
137420 1 8112071248021895373
14817 1 12998468009155765371
16945 1 18341618143538415710
23419403 2 17340371089739026543
241688 4 18044932621716327044
5084963 1 18341886445861069942
528886 8 18336252462433585117
535629 181 17677037040464227166
68250623 7 17245855992479459611

>  <PUBCHEM_SHAPE_MULTIPOLES>  (1) 
232.06
3.14
1.62
1.62
2.89
0.4
-0.65
0
0
-0.43
0.65
-0.43
-0.4
0

>  <PUBCHEM_SHAPE_SELFOVERLAP>  (1) 
441.283

>  <PUBCHEM_SHAPE_VOLUME>  (1) 
142.2

>  <PUBCHEM_COORDINATE_TYPE>  (1) 
2
5
10

$$$$
