43176
     RDKit          3D

 17 17  0  0  0  0  0  0  0  0999 V2000
   -5.3271   -2.3920   -0.0649 Cl  0  0  0  0  0  0  0  0  0  0  0  0
   -6.3011    0.2469   -1.1271 O   0  0  0  0  0  0  0  0  0  0  0  0
    2.5050   -0.0562   -0.1211 C   0  0  0  0  0  0  0  0  0  0  0  0
    3.8921    0.0676    0.5136 C   0  0  0  0  0  0  0  0  0  0  0  0
    1.3614    0.2187    0.8605 C   0  0  0  0  0  0  0  0  0  0  0  0
    4.9972   -0.1934   -0.5138 C   0  0  0  0  0  0  0  0  0  0  0  0
   -0.0237    0.1675    0.2067 C   0  0  0  0  0  0  0  0  0  0  0  0
    6.3843   -0.0316    0.1121 C   0  0  0  0  0  0  0  0  0  0  0  0
   -1.1621    0.4333    1.1994 C   0  0  0  0  0  0  0  0  0  0  0  0
    7.5272   -0.3117   -0.8658 C   0  0  0  0  0  0  0  0  0  0  0  0
   -2.5356    0.3750    0.5793 C   0  0  0  0  0  0  0  0  0  0  0  0
    8.9072   -0.0832   -0.2686 C   0  0  0  0  0  0  0  0  0  0  0  0
   -3.2172   -0.8319    0.5454 C   0  0  0  0  0  0  0  0  0  0  0  0
   -3.0940    1.5301    0.0535 C   0  0  0  0  0  0  0  0  0  0  0  0
   -4.4877   -0.8852   -0.0281 C   0  0  0  0  0  0  0  0  0  0  0  0
   -4.3644    1.4768   -0.5202 C   0  0  0  0  0  0  0  0  0  0  0  0
   -5.0613    0.2692   -0.5608 C   0  0  0  0  0  0  0  0  0  0  0  0
  1 15  1  0
  2 17  1  0
  3  4  1  0
  3  5  1  0
  4  6  1  0
  5  7  1  0
  6  8  1  0
  7  9  1  0
  8 10  1  0
  9 11  1  0
 10 12  1  0
 11 13  2  0
 11 14  1  0
 13 15  1  0
 14 16  2  0
 15 17  2  0
 16 17  1  0
M  END
>  <PUBCHEM_COMPOUND_CID>  (1) 
43176

>  <PUBCHEM_CONFORMER_RMSD>  (1) 
0.8

>  <PUBCHEM_CONFORMER_DIVERSEORDER>  (1) 
1
7
155
203
212
277
22
138
37
3
202
206
24
143
238
144
140
87
218
191
51
94
171
19
166
173
275
10
178
188
46
272
57
233
156
220
109
210
174
281
142
194
15
20
223
129
147
107
61
164
234
183
52
116
276
214
100
154
119
95
121
257
108
280
12
146
9
158
213
279
253
106
103
271
59
258
54
56
8
145
240
34
133
55
76
111
128
230
180
185
18
86
60
268
190
221
23
192
267
69
219
135
17
67
209
80
181
244
2
45
250
84
161
195
101
50
32
227
242
71
40
70
278
186
29
139
31
167
236
113
151
88
35
91
36
73
262
239
16
90
14
98
199
62
189
48
177
63
204
159
254
79
64
176
21
49
124
222
198
216
92
123
4
215
179
235
150
42
28
110
30
169
27
130
134
114
83
66
82
25
187
93
104
152
224
81
225
58
217
11
269
162
200
68
99
78
148
26
211
39
175
131
193
157
149
237
247
43
163
245
248
47
182
261
132
251
97
33
172
229
77
5
208
38
184
252
226
125
136
53
6
115
96
205
65
249
72
74
41
13
196
241
160
122
112
197
120
141
207
105
243
117
246
168
231
102
126
44
127
255
228
264
75
170
137
89
118
165
266
153
270
265
256
263
232
259
85
273
260
201
274

>  <PUBCHEM_MMFF94_PARTIAL_CHARGES>  (1) 
13
1 -0.18
11 -0.14
13 -0.15
14 -0.15
15 0.18
16 -0.15
17 0.08
2 -0.53
37 0.15
38 0.15
39 0.15
40 0.45
9 0.14

>  <PUBCHEM_EFFECTIVE_ROTOR_COUNT>  (1) 
8

>  <PUBCHEM_PHARMACOPHORE_FEATURES>  (1) 
3
1 12 hydrophobe
1 2 donor
6 11 13 14 15 16 17 rings

>  <PUBCHEM_HEAVY_ATOM_COUNT>  (1) 
17

>  <PUBCHEM_ATOM_DEF_STEREO_COUNT>  (1) 
0

>  <PUBCHEM_ATOM_UDEF_STEREO_COUNT>  (1) 
0

>  <PUBCHEM_BOND_DEF_STEREO_COUNT>  (1) 
0

>  <PUBCHEM_BOND_UDEF_STEREO_COUNT>  (1) 
0

>  <PUBCHEM_ISOTOPIC_ATOM_COUNT>  (1) 
0

>  <PUBCHEM_COMPONENT_COUNT>  (1) 
1

>  <PUBCHEM_CACTVS_TAUTO_COUNT>  (1) 
3

>  <PUBCHEM_CONFORMER_ID>  (1) 
0000A8A800000001

>  <PUBCHEM_MMFF94_ENERGY>  (1) 
18.4371

>  <PUBCHEM_FEATURE_SELFOVERLAP>  (1) 
15.223

>  <PUBCHEM_SHAPE_FINGERPRINT>  (1) 
10066227 49 17987523616119218214
10087517 78 16950279564246772596
10968037 39 18260830397438105849
11089746 13 17385446535952165356
11315181 36 18412548716699017073
12091667 2 17894354375490903480
125118 31 10737290160936268694
13288520 33 18342176683114227473
13533116 47 16805593739148876728
13668630 136 17132114645522037934
14123256 10 18413389830620612342
1420 363 16988847181248755098
14251718 22 18412546513802540362
14251764 18 12685094804391156880
14729087 3 12612749138417482286
15048467 5 15357698583019393804
15183329 4 17603584119569595968
15348495 7 8069727582574259756
15716309 27 14045739322777264928
17093844 174 9511461104456429919
17870717 6 18413108360234294087
18643901 69 18341612664136495079
18681886 176 18409444830260876208
19489759 90 18334014986235676545
20281389 69 11963390752228389390
21150785 3 18259705614502393446
21267235 1 18335142038106306211
21307412 95 18196639917347869951
220451 1 18334011666257618706
22288116 15 17531534285826019762
2297311 6 18413670219092118009
23035841 295 14189574135519919804
23081809 10 17530961363627865600
23198884 109 17530965782532053843
23402539 116 17894347778373637813
23559900 14 18339915017581659945
246663 6 16056881342715507724
300161 21 16660362576255220240
57583515 80 17530686511379909712
58260988 114 15840694331976356037
8209 1 18260831493213928996

>  <PUBCHEM_SHAPE_MULTIPOLES>  (1) 
345.85
23.03
1.38
0.95
46.5
0.49
-0.03
4.16
7.06
-3.31
0.07
-0.23
-0.07
0.5

>  <PUBCHEM_SHAPE_SELFOVERLAP>  (1) 
670.063

>  <PUBCHEM_SHAPE_VOLUME>  (1) 
210.5

>  <PUBCHEM_COORDINATE_TYPE>  (1) 
2
5
10

$$$$
