43187
     RDKit          3D

 32 35  0  0  0  0  0  0  0  0999 V2000
    7.2879    0.8620   -2.8480 Cl  0  0  0  0  0  0  0  0  0  0  0  0
   -5.2554   -1.7664   -0.6330 Cl  0  0  0  0  0  0  0  0  0  0  0  0
    0.4384   -4.6556   -0.3138 O   0  0  0  0  0  0  0  0  0  0  0  0
    2.9474    2.2094    1.9848 O   0  0  0  0  0  0  0  0  0  0  0  0
   -4.0909    0.4555    1.0247 O   0  0  0  0  0  0  0  0  0  0  0  0
   -2.3567    0.6599   -0.5304 O   0  0  0  0  0  0  0  0  0  0  0  0
    1.6831    0.5347    1.1360 N   0  0  0  0  0  0  0  0  0  0  0  0
   -0.4598   -0.0867    1.4159 C   0  0  0  0  0  0  0  0  0  0  0  0
    0.2454   -1.1921    0.8854 C   0  0  0  0  0  0  0  0  0  0  0  0
    0.4314    0.9479    1.5519 C   0  0  0  0  0  0  0  0  0  0  0  0
    1.5782   -0.7942    0.7108 C   0  0  0  0  0  0  0  0  0  0  0  0
   -1.8978   -0.0502    1.7573 C   0  0  0  0  0  0  0  0  0  0  0  0
   -0.1404   -2.5030    0.5355 C   0  0  0  0  0  0  0  0  0  0  0  0
    2.5347   -1.6929    0.2003 C   0  0  0  0  0  0  0  0  0  0  0  0
    0.1411    2.3082    2.0645 C   0  0  0  0  0  0  0  0  0  0  0  0
    2.8380    1.3470    1.1195 C   0  0  0  0  0  0  0  0  0  0  0  0
    0.8095   -3.3894    0.0243 C   0  0  0  0  0  0  0  0  0  0  0  0
    2.1289   -2.9877   -0.1391 C   0  0  0  0  0  0  0  0  0  0  0  0
    3.9361    1.2263    0.1411 C   0  0  0  0  0  0  0  0  0  0  0  0
   -2.7662    0.3982    0.5928 C   0  0  0  0  0  0  0  0  0  0  0  0
    3.6688    0.7704   -1.1471 C   0  0  0  0  0  0  0  0  0  0  0  0
    5.2340    1.5707    0.5103 C   0  0  0  0  0  0  0  0  0  0  0  0
    4.7064    0.6578   -2.0725 C   0  0  0  0  0  0  0  0  0  0  0  0
    6.2717    1.4582   -0.4152 C   0  0  0  0  0  0  0  0  0  0  0  0
   -0.9315   -5.0031   -0.1209 C   0  0  0  0  0  0  0  0  0  0  0  0
   -4.9731    0.8604    0.0203 C   0  0  0  0  0  0  0  0  0  0  0  0
    6.0079    1.0018   -1.7067 C   0  0  0  0  0  0  0  0  0  0  0  0
   -5.5628   -0.0771   -0.7994 C   0  0  0  0  0  0  0  0  0  0  0  0
   -5.2173    2.2116   -0.1070 C   0  0  0  0  0  0  0  0  0  0  0  0
   -6.4391    0.3563   -1.7944 C   0  0  0  0  0  0  0  0  0  0  0  0
   -6.0936    2.6449   -1.1021 C   0  0  0  0  0  0  0  0  0  0  0  0
   -6.7044    1.7173   -1.9458 C   0  0  0  0  0  0  0  0  0  0  0  0
  1 27  1  0
  2 28  1  0
  3 17  1  0
  3 25  1  0
  4 16  2  0
  5 20  1  0
  5 26  1  0
  6 20  2  0
  7 10  1  0
  7 11  1  0
  7 16  1  0
  8  9  1  0
  8 10  2  0
  8 12  1  0
  9 11  2  0
  9 13  1  0
 10 15  1  0
 11 14  1  0
 12 20  1  0
 13 17  2  0
 14 18  2  0
 16 19  1  0
 17 18  1  0
 19 21  2  0
 19 22  1  0
 21 23  1  0
 22 24  2  0
 23 27  2  0
 24 27  1  0
 26 28  2  0
 26 29  1  0
 28 30  1  0
 29 31  2  0
 30 32  2  0
 31 32  1  0
M  END
>  <PUBCHEM_COMPOUND_CID>  (1) 
43187

>  <PUBCHEM_CONFORMER_RMSD>  (1) 
1

>  <PUBCHEM_CONFORMER_DIVERSEORDER>  (1) 
1
276
118
188
61
195
274
86
214
295
279
288
174
270
64
316
237
198
105
311
170
172
298
17
244
304
179
93
292
184
287
71
95
271
171
82
168
58
278
337
268
289
232
328
136
201
280
142
88
329
273
70
230
150
161
286
284
79
69
210
187
300
282
154
212
313
165
326
121
160
192
87
258
114
322
299
202
139
134
186
100
207
323
330
59
309
117
203
221
321
235
52
15
259
222
130
57
12
21
36
76
159
28
204
50
56
120
37
242
303
75
267
281
85
180
200
45
197
236
219
166
72
31
246
238
291
53
132
332
143
24
129
183
167
206
189
194
9
89
277
104
331
149
327
32
80
60
163
133
181
146
74
35
225
308
190
152
94
250
109
46
126
324
185
262
151
217
11
305
162
205
116
156
266
10
38
249
43
106
283
137
252
240
243
325
241
226
254
83
155
193
153
164
256
264
8
248
124
334
220
49
20
101
90
218
125
314
335
261
135
6
107
191
255
29
318
229
14
7
196
39
22
272
34
67
239
251
178
157
81
102
84
263
317
44
158
234
297
25
47
211
91
77
40
175
115
260
19
302
320
27
78
42
98
336
231
247
96
127
310
333
140
18
227
66
228
103
290
99
26
13
48
108
23
73
128
275
33
16
131
215
141
65
245
123
30
265
92
173
223
5
112
144
41
176
199
312
4
307
319
54
110
63
294
253
182
224
138
315
208
51
97
306
55
293
2
122
213
62
119
111
169
301
177
3
257
269
145
148
233
285
113
296
147
216
68
209

>  <PUBCHEM_MMFF94_PARTIAL_CHARGES>  (1) 
42
1 -0.18
10 -0.33
11 -0.15
12 0.24
13 -0.15
14 -0.15
15 0.18
16 0.49
17 0.08
18 -0.15
19 0.09
2 -0.18
20 0.66
21 -0.15
22 -0.15
23 -0.15
24 -0.15
25 0.28
26 0.08
27 0.18
28 0.18
29 -0.15
3 -0.36
30 -0.15
31 -0.15
32 -0.15
35 0.15
36 0.15
4 -0.57
40 0.15
41 0.15
42 0.15
43 0.15
44 0.15
48 0.15
49 0.15
5 -0.23
50 0.15
51 0.15
6 -0.57
7 0.29
8 -0.18

>  <PUBCHEM_EFFECTIVE_ROTOR_COUNT>  (1) 
7

>  <PUBCHEM_PHARMACOPHORE_FEATURES>  (1) 
7
1 3 acceptor
1 4 acceptor
1 6 acceptor
5 7 8 9 10 11 rings
6 19 21 22 23 24 27 rings
6 26 28 29 30 31 32 rings
6 9 11 13 14 17 18 rings

>  <PUBCHEM_HEAVY_ATOM_COUNT>  (1) 
32

>  <PUBCHEM_ATOM_DEF_STEREO_COUNT>  (1) 
0

>  <PUBCHEM_ATOM_UDEF_STEREO_COUNT>  (1) 
0

>  <PUBCHEM_BOND_DEF_STEREO_COUNT>  (1) 
0

>  <PUBCHEM_BOND_UDEF_STEREO_COUNT>  (1) 
0

>  <PUBCHEM_ISOTOPIC_ATOM_COUNT>  (1) 
0

>  <PUBCHEM_COMPONENT_COUNT>  (1) 
1

>  <PUBCHEM_CACTVS_TAUTO_COUNT>  (1) 
1

>  <PUBCHEM_CONFORMER_ID>  (1) 
0000A8B300000001

>  <PUBCHEM_MMFF94_ENERGY>  (1) 
101.6166

>  <PUBCHEM_FEATURE_SELFOVERLAP>  (1) 
35.612

>  <PUBCHEM_SHAPE_FINGERPRINT>  (1) 
10190206 1 18272663333002874456
10319926 262 8718550549566096525
105312 117 18261678167936998630
10693767 8 17632577102779971566
10906281 52 17749113253618510393
11796584 16 13470143834174253025
11991303 11 18189059848760379514
12202916 173 17703791414997615748
12661589 4 14978802516796485989
13540713 5 17842005381404908849
13782708 43 12679453180048306909
13911987 19 18411428305754941552
14930077 153 17755596175648373126
14931854 50 18200607925487792332
14950920 106 9799393552350490677
15183329 4 17847065458417438549
15324884 4 18050852413832586081
15475509 35 12823290182870848668
15484559 13 18200866297086623710
15840311 113 14490465362074382105
15950262 2 16661227956415679412
15961568 22 17530964661867941373
19319366 153 18270108024755956759
20567600 247 15052016762063569085
20775438 99 17560222726486319238
21344244 181 17417536920448036958
21521239 73 17275107232553092364
21637258 2 14476962268173845144
22122407 14 16226913179557912180
22393880 68 18131343146560410129
23559900 14 18126266564242438043
23576562 1 17971763426293218276
25025965 108 16122789192885724254
25223398 141 18190462855566909507
2838139 119 17458628955438005772
3103668 31 18050849111525519583
3472631 163 16805606975320333781
4058900 60 18334579001678961459
4112364 45 13840567175594422271
439807 62 14979959172959074165
44802255 64 17898034506156791510
45266715 3 18060707178809352006
46194498 28 18044650898290968063
513532 50 17346301714242405096
8863177 126 12031489017700860013

>  <PUBCHEM_SHAPE_MULTIPOLES>  (1) 
633.83
17.09
4.26
2.13
5.78
7.23
-0.51
-14.96
-14.87
1.07
-0.27
-1.61
-1.41
0.48

>  <PUBCHEM_SHAPE_SELFOVERLAP>  (1) 
1379.489

>  <PUBCHEM_SHAPE_VOLUME>  (1) 
347.2

>  <PUBCHEM_COORDINATE_TYPE>  (1) 
2
5
10

$$$$
