43183
     RDKit          3D

 13 14  0  0  0  0  0  0  0  0999 V2000
    2.2016   -2.0885   -0.0070 S   0  0  0  0  0  0  0  0  0  0  0  0
   -1.9992   -0.2798    0.0035 N   0  0  0  0  0  0  0  0  0  0  0  0
    0.5806   -1.7278   -0.0032 N   0  0  0  0  0  0  0  0  0  0  0  0
    2.8600   -0.5639   -0.0076 N   0  0  0  0  0  0  0  0  0  0  0  0
   -0.6306    0.4057    0.0007 C   0  0  0  0  0  0  0  0  0  0  0  0
   -3.0850    0.7924    0.0066 C   0  0  0  0  0  0  0  0  0  0  0  0
   -2.1037   -1.1624    1.2441 C   0  0  0  0  0  0  0  0  0  0  0  0
   -2.2054   -1.1622   -1.2260 C   0  0  0  0  0  0  0  0  0  0  0  0
    0.4864   -0.3885   -0.0022 C   0  0  0  0  0  0  0  0  0  0  0  0
   -0.5588    1.7617    0.0014 C   0  0  0  0  0  0  0  0  0  0  0  0
    1.8302    0.2978   -0.0049 C   0  0  0  0  0  0  0  0  0  0  0  0
    0.7012    2.4053   -0.0010 C   0  0  0  0  0  0  0  0  0  0  0  0
    1.9227    1.7103   -0.0042 C   0  0  0  0  0  0  0  0  0  0  0  0
  1  3  1  0
  1  4  1  0
  2  5  1  0
  2  6  1  0
  2  7  1  0
  2  8  1  0
  3  9  2  0
  4 11  2  0
  5  9  1  0
  5 10  2  0
  9 11  1  0
 10 12  1  0
 11 13  1  0
 12 13  2  0
M  CHG  1   2   1
M  END
>  <PUBCHEM_COMPOUND_CID>  (1) 
43183

>  <PUBCHEM_CONFORMER_RMSD>  (1) 
0.4

>  <PUBCHEM_CONFORMER_DIVERSEORDER>  (1) 
1
2

>  <PUBCHEM_MMFF94_PARTIAL_CHARGES>  (1) 
16
1 0.44
10 -0.15
11 0.29
12 -0.15
13 -0.15
2 -0.87
23 0.15
24 0.15
25 0.15
3 -0.51
4 -0.51
5 0.36
6 0.5
7 0.5
8 0.5
9 0.29

>  <PUBCHEM_EFFECTIVE_ROTOR_COUNT>  (1) 
1

>  <PUBCHEM_PHARMACOPHORE_FEATURES>  (1) 
5
1 2 cation
1 3 acceptor
1 4 acceptor
5 1 3 4 9 11 rings
6 5 9 10 11 12 13 rings

>  <PUBCHEM_HEAVY_ATOM_COUNT>  (1) 
13

>  <PUBCHEM_ATOM_DEF_STEREO_COUNT>  (1) 
0

>  <PUBCHEM_ATOM_UDEF_STEREO_COUNT>  (1) 
0

>  <PUBCHEM_BOND_DEF_STEREO_COUNT>  (1) 
0

>  <PUBCHEM_BOND_UDEF_STEREO_COUNT>  (1) 
0

>  <PUBCHEM_ISOTOPIC_ATOM_COUNT>  (1) 
0

>  <PUBCHEM_COMPONENT_COUNT>  (1) 
1

>  <PUBCHEM_CACTVS_TAUTO_COUNT>  (1) 
1

>  <PUBCHEM_CONFORMER_ID>  (1) 
0000A8AF00000001

>  <PUBCHEM_MMFF94_ENERGY>  (1) 
60.6486

>  <PUBCHEM_FEATURE_SELFOVERLAP>  (1) 
25.483

>  <PUBCHEM_SHAPE_FINGERPRINT>  (1) 
10967382 1 18410856533906941536
11471102 22 18118420654749305867
12524768 44 18198346160738056751
14648413 74 18334577983650295297
15775835 57 17914904359725987313
16945 1 18050287273492951592
17990270 104 18335983150682904851
193761 8 16897647385913416032
20201158 50 18335137566185585803
20645476 183 16672787912121091262
20645477 70 18339635750503118863
20871998 184 17695058903737795334
21040471 1 17834114521565485504
21501502 16 18337109059570117485
2334 1 18266459986882009896
23388829 49 18341037575971946464
23552423 10 18339077193704732909
23559900 14 17836924500510461502
241688 4 18121780530471801048
2748010 2 18337391663870123396
5084963 1 17843966076940788761
528886 8 18410852170188539984
63268167 104 18342740774991048289
7364860 26 18343300388002845824
81228 2 17905613203040277632
8809292 202 18187373081789968586

>  <PUBCHEM_SHAPE_MULTIPOLES>  (1) 
256.44
4.02
2.47
0.85
0.91
0.51
-0.01
-1
0.04
-1.04
0
0.52
-0.3
-0.01

>  <PUBCHEM_SHAPE_SELFOVERLAP>  (1) 
528.581

>  <PUBCHEM_SHAPE_VOLUME>  (1) 
151.6

>  <PUBCHEM_COORDINATE_TYPE>  (1) 
2
5
10

$$$$
