43186
     RDKit          3D

 10 10  0  0  1  0  0  0  0  0999 V2000
    1.8203   -1.2858   -1.2700 O   0  0  0  0  0  0  0  0  0  0  0  0
   -2.9152   -0.4089   -0.4399 O   0  0  0  0  0  0  0  0  0  0  0  0
   -0.5483   -1.4349    1.4169 N   0  0  0  0  0  0  0  0  0  0  0  0
   -0.1313   -0.8686    0.1260 C   0  0  0  0  0  0  0  0  0  0  0  0
    1.4215   -0.8450    0.0316 C   0  0  0  0  0  0  0  0  0  0  0  0
   -0.7643    0.4896   -0.0605 C   0  0  0  0  0  0  0  0  0  0  0  0
    2.0491    0.4998    0.2777 C   0  0  0  0  0  0  0  0  0  0  0  0
   -0.0750    1.6382    0.0010 C   0  0  0  0  0  0  0  0  0  0  0  0
    1.3402    1.6367    0.2774 C   0  0  0  0  0  0  0  0  0  0  0  0
   -2.1969    0.5789   -0.3601 C   0  0  0  0  0  0  0  0  0  0  0  0
  1  5  1  0
  2 10  2  0
  3  4  1  0
  4  5  1  0
  4  6  1  0
  5  7  1  0
  6  8  2  0
  6 10  1  0
  7  9  2  0
  8  9  1  0
M  END
>  <PUBCHEM_COMPOUND_CID>  (1) 
43186

>  <PUBCHEM_CONFORMER_RMSD>  (1) 
0.4

>  <PUBCHEM_CONFORMER_DIVERSEORDER>  (1) 
1
2

>  <PUBCHEM_MMFF94_PARTIAL_CHARGES>  (1) 
17
1 -0.68
10 0.5
13 0.15
14 0.15
15 0.15
16 0.36
17 0.36
18 0.4
19 0.06
2 -0.57
3 -0.99
4 0.41
5 0.42
6 -0.12
7 -0.29
8 -0.15
9 -0.15

>  <PUBCHEM_EFFECTIVE_ROTOR_COUNT>  (1) 
1.4

>  <PUBCHEM_PHARMACOPHORE_FEATURES>  (1) 
6
1 1 acceptor
1 1 donor
1 2 acceptor
1 3 cation
1 3 donor
6 4 5 6 7 8 9 rings

>  <PUBCHEM_HEAVY_ATOM_COUNT>  (1) 
10

>  <PUBCHEM_ATOM_DEF_STEREO_COUNT>  (1) 
2

>  <PUBCHEM_ATOM_UDEF_STEREO_COUNT>  (1) 
0

>  <PUBCHEM_BOND_DEF_STEREO_COUNT>  (1) 
0

>  <PUBCHEM_BOND_UDEF_STEREO_COUNT>  (1) 
0

>  <PUBCHEM_ISOTOPIC_ATOM_COUNT>  (1) 
0

>  <PUBCHEM_COMPONENT_COUNT>  (1) 
1

>  <PUBCHEM_CACTVS_TAUTO_COUNT>  (1) 
1

>  <PUBCHEM_CONFORMER_ID>  (1) 
0000A8B200000001

>  <PUBCHEM_MMFF94_ENERGY>  (1) 
11.2255

>  <PUBCHEM_FEATURE_SELFOVERLAP>  (1) 
30.446

>  <PUBCHEM_SHAPE_FINGERPRINT>  (1) 
12423570 1 8544168979677910650
137420 1 8047526762833852849
16945 1 18271516576349239805
18185500 45 17252860559773228899
21040471 1 18189892187493771720
23211744 25 18117006485085064958
23235685 24 18337662139462209536
23552423 10 18263927648325860917
241688 4 18052540976098546520
2748010 2 17834115621008554564
29004967 10 18131064922372808481
5084963 1 18334569135817081917

>  <PUBCHEM_SHAPE_MULTIPOLES>  (1) 
189.08
3
1.73
0.93
1.51
0.22
-0.05
-0.08
0.58
-0.49
-0.13
-0.12
-0.4
0.43

>  <PUBCHEM_SHAPE_SELFOVERLAP>  (1) 
384.967

>  <PUBCHEM_SHAPE_VOLUME>  (1) 
108.2

>  <PUBCHEM_COORDINATE_TYPE>  (1) 
2
5
10

$$$$
