43189
     RDKit          3D

 17 17  0  0  0  0  0  0  0  0999 V2000
    7.1239   -0.1466   -0.9210 I   0  0  0  0  0  0  0  0  0  0  0  0
   -0.9491    0.0926    0.5802 O   0  0  0  0  0  0  0  0  0  0  0  0
    1.2277    0.1760    1.0592 O   0  0  0  0  0  0  0  0  0  0  0  0
    0.5535   -0.1928   -1.1444 O   0  0  0  0  0  0  0  0  0  0  0  0
   -4.5490   -0.1069   -0.4768 C   0  0  0  0  0  0  0  0  0  0  0  0
   -5.8901    0.0442    0.2467 C   0  0  0  0  0  0  0  0  0  0  0  0
   -3.3403    0.0649    0.4419 C   0  0  0  0  0  0  0  0  0  0  0  0
   -7.0998   -0.1522   -0.6679 C   0  0  0  0  0  0  0  0  0  0  0  0
   -2.0318   -0.0611   -0.3271 C   0  0  0  0  0  0  0  0  0  0  0  0
   -8.4039    0.0793    0.0806 C   0  0  0  0  0  0  0  0  0  0  0  0
    0.3034    0.0043    0.0381 C   0  0  0  0  0  0  0  0  0  0  0  0
    2.5510    0.1037    0.6161 C   0  0  0  0  0  0  0  0  0  0  0  0
    3.1753    1.2611    0.2075 C   0  0  0  0  0  0  0  0  0  0  0  0
    3.1780   -1.1221    0.6040 C   0  0  0  0  0  0  0  0  0  0  0  0
    4.4956    1.1889   -0.2367 C   0  0  0  0  0  0  0  0  0  0  0  0
    4.4984   -1.1944    0.1601 C   0  0  0  0  0  0  0  0  0  0  0  0
    5.1572   -0.0389   -0.2603 C   0  0  0  0  0  0  0  0  0  0  0  0
  1 17  1  0
  2  9  1  0
  2 11  1  0
  3 11  1  0
  3 12  1  0
  4 11  2  0
  5  6  1  0
  5  7  1  0
  6  8  1  0
  7  9  1  0
  8 10  1  0
 12 13  2  0
 12 14  1  0
 13 15  1  0
 14 16  2  0
 15 17  2  0
 16 17  1  0
M  END
>  <PUBCHEM_COMPOUND_CID>  (1) 
43189

>  <PUBCHEM_CONFORMER_RMSD>  (1) 
0.8

>  <PUBCHEM_CONFORMER_DIVERSEORDER>  (1) 
1
39
226
109
295
297
32
331
359
254
76
247
169
303
282
119
22
111
132
268
177
369
18
366
130
175
82
251
69
50
174
225
31
223
330
85
88
360
237
327
229
273
246
220
332
99
152
272
66
347
81
259
202
170
14
65
2
314
78
192
47
340
291
12
351
139
68
182
19
62
352
145
260
108
252
189
15
298
244
115
27
185
308
194
77
122
319
320
342
337
209
17
313
30
7
239
231
255
112
172
94
159
153
51
238
325
344
353
191
290
70
200
367
221
236
354
143
73
134
265
333
52
168
124
117
339
48
53
245
61
33
270
208
243
28
40
110
341
10
213
318
286
328
306
356
113
5
197
141
6
311
300
37
217
257
242
180
100
195
20
67
287
104
90
98
95
60
101
102
4
361
45
296
23
253
118
161
9
323
96
151
156
87
59
365
8
277
266
326
315
157
186
278
58
13
178
24
312
317
21
75
138
97
34
135
350
261
305
26
129
147
205
324
167
206
309
155
54
227
140
271
49
224
56
184
322
136
126
158
3
285
41
263
230
74
91
193
222
93
234
307
176
105
363
44
196
25
11
181
267
131
198
279
64
121
364
43
128
280
83
171
162
86
63
123
55
72
368
336
235
228
38
289
71
120
89
144
343
107
216
293
42
321
80
284
334
29
219
188
281
114
173
262
250
150
160
36
292
302
164
46
57
187
199
133
137
149
299
125
316
283
203
92
264
166
204
16
346
165
79
103
35
146
258
357
190
275
148
335
256
201
106
362
179
142
233
232
207
358
355
249
215
301
211
163
269
240
329
116
248
154
294
183
214
84
288
345
338
241
212
210
127
304
349
310
218
276
348
274

>  <PUBCHEM_MMFF94_PARTIAL_CHARGES>  (1) 
16
1 -0.08
11 0.87
12 0.08
13 -0.15
14 -0.15
15 -0.15
16 -0.15
17 0.08
2 -0.43
3 -0.23
31 0.15
32 0.15
33 0.15
34 0.15
4 -0.57
9 0.28

>  <PUBCHEM_EFFECTIVE_ROTOR_COUNT>  (1) 
8

>  <PUBCHEM_PHARMACOPHORE_FEATURES>  (1) 
4
1 1 hydrophobe
1 10 hydrophobe
4 5 6 7 8 hydrophobe
6 12 13 14 15 16 17 rings

>  <PUBCHEM_HEAVY_ATOM_COUNT>  (1) 
17

>  <PUBCHEM_ATOM_DEF_STEREO_COUNT>  (1) 
0

>  <PUBCHEM_ATOM_UDEF_STEREO_COUNT>  (1) 
0

>  <PUBCHEM_BOND_DEF_STEREO_COUNT>  (1) 
0

>  <PUBCHEM_BOND_UDEF_STEREO_COUNT>  (1) 
0

>  <PUBCHEM_ISOTOPIC_ATOM_COUNT>  (1) 
0

>  <PUBCHEM_COMPONENT_COUNT>  (1) 
1

>  <PUBCHEM_CACTVS_TAUTO_COUNT>  (1) 
1

>  <PUBCHEM_CONFORMER_ID>  (1) 
0000A8B500000001

>  <PUBCHEM_MMFF94_ENERGY>  (1) 
30.8564

>  <PUBCHEM_FEATURE_SELFOVERLAP>  (1) 
20.297

>  <PUBCHEM_SHAPE_FINGERPRINT>  (1) 
10299344 5 18273496771627624639
10968037 39 16660363684689065591
11315181 36 16732706048334198757
12730499 353 17821450158137982578
13533116 47 18336541625571015579
13668630 136 17775569740569749447
14123256 10 17385724694612600468
14251764 18 18343866597572473536
14251764 46 18410293613981368047
14933364 13 18187081746322583693
15048467 5 13984663659066630206
17834076 25 16226045591525611193
20281389 69 18131630085010152985
20645477 70 18334854966450072922
20735858 18 11600006539840802196
21150785 3 17603588530084297039
21267235 1 16917353631747951849
220451 1 18408598167806075243
221357 26 18334011683881021396
22224240 67 12107788522971263081
22956985 138 16555959415807348518
23035841 295 16487536953545235199
23402539 116 10879986948060655857
23521765 1 18341895190366777879
246663 6 16702307849290034902
28498 318 16702306724019217821
29717793 49 17775010089720897412
33532 11 16056604222830497558
33684 2 18410573980856490339
34797466 226 17022907843431867574
3545911 37 18040434403688253153
42788 4 18409164411925169841
4325135 7 16298106488509668574
465052 167 17847063298275404398
522135 26 18412542111614010330
59682541 35 14056726768053744957
59755656 215 15841559556615619325
59755656 520 18271799147534713263
6025842 7 18040996211982792602
8209 1 18410856563940038133

>  <PUBCHEM_SHAPE_MULTIPOLES>  (1) 
344.18
22.55
0.97
0.93
34.11
0.02
0.09
-0.15
5.09
-1.39
-0.07
-0.42
-0.02
-0.08

>  <PUBCHEM_SHAPE_SELFOVERLAP>  (1) 
666.079

>  <PUBCHEM_SHAPE_VOLUME>  (1) 
211.9

>  <PUBCHEM_COORDINATE_TYPE>  (1) 
2
5
10

$$$$
