43190
     RDKit          3D

 13 13  0  0  1  0  0  0  0  0999 V2000
   -5.1094    0.5492    0.3437 I   0  0  0  0  0  0  0  0  0  0  0  0
    3.0455    2.0683    0.8225 O   0  0  0  0  0  0  0  0  0  0  0  0
    1.9916   -0.0938    0.4351 C   0  0  0  0  0  0  0  0  0  0  0  0
    1.0343   -0.8392   -0.5276 C   0  0  0  0  0  0  0  0  0  0  0  0
    3.3423   -0.8374    0.5444 C   0  0  0  0  0  0  0  0  0  0  0  0
    2.1568    1.3626   -0.0321 C   0  0  0  0  0  0  0  0  0  0  0  0
   -0.4251   -0.5100   -0.3231 C   0  0  0  0  0  0  0  0  0  0  0  0
    4.0862   -0.9541   -0.7790 C   0  0  0  0  0  0  0  0  0  0  0  0
   -1.1727   -1.2674    0.5640 C   0  0  0  0  0  0  0  0  0  0  0  0
   -0.9890    0.5434   -1.0246 C   0  0  0  0  0  0  0  0  0  0  0  0
   -2.5206   -0.9634    0.7547 C   0  0  0  0  0  0  0  0  0  0  0  0
   -2.3369    0.8476   -0.8340 C   0  0  0  0  0  0  0  0  0  0  0  0
   -3.1028    0.0943    0.0558 C   0  0  0  0  0  0  0  0  0  0  0  0
  1 13  1  0
  2  6  1  0
  3  4  1  0
  3  5  1  0
  3  6  1  0
  4  7  1  0
  5  8  1  0
  7  9  2  0
  7 10  1  0
  9 11  1  0
 10 12  2  0
 11 13  2  0
 12 13  1  0
M  END
>  <PUBCHEM_COMPOUND_CID>  (1) 
43190

>  <PUBCHEM_CONFORMER_RMSD>  (1) 
0.6

>  <PUBCHEM_CONFORMER_DIVERSEORDER>  (1) 
4
14
20
26
3
24
6
10
15
16
22
25
8
23
21
18
1
19
7
13
9
12
11
17
5
2

>  <PUBCHEM_MMFF94_PARTIAL_CHARGES>  (1) 
15
1 -0.08
10 -0.15
11 -0.15
12 -0.15
13 0.08
2 -0.68
24 0.15
25 0.15
26 0.4
27 0.15
28 0.15
4 0.14
6 0.28
7 -0.14
9 -0.15

>  <PUBCHEM_EFFECTIVE_ROTOR_COUNT>  (1) 
4

>  <PUBCHEM_PHARMACOPHORE_FEATURES>  (1) 
5
1 1 hydrophobe
1 2 acceptor
1 2 donor
1 8 hydrophobe
6 7 9 10 11 12 13 rings

>  <PUBCHEM_HEAVY_ATOM_COUNT>  (1) 
13

>  <PUBCHEM_ATOM_DEF_STEREO_COUNT>  (1) 
0

>  <PUBCHEM_ATOM_UDEF_STEREO_COUNT>  (1) 
1

>  <PUBCHEM_BOND_DEF_STEREO_COUNT>  (1) 
0

>  <PUBCHEM_BOND_UDEF_STEREO_COUNT>  (1) 
0

>  <PUBCHEM_ISOTOPIC_ATOM_COUNT>  (1) 
0

>  <PUBCHEM_COMPONENT_COUNT>  (1) 
1

>  <PUBCHEM_CACTVS_TAUTO_COUNT>  (1) 
1

>  <PUBCHEM_CONFORMER_ID>  (1) 
0000A8B600000004

>  <PUBCHEM_MMFF94_ENERGY>  (1) 
26.9937

>  <PUBCHEM_FEATURE_SELFOVERLAP>  (1) 
25.371

>  <PUBCHEM_SHAPE_FINGERPRINT>  (1) 
10608611 8 18335976532217702220
11132069 177 18041273357304829701
12119455 92 18201435848984787279
12251169 10 18187364328815105755
12403259 415 18186515480501630757
12932764 1 18040705970286422082
13581323 91 17530683186700806047
14252887 29 13479421521857872602
15219456 202 18409729603360896256
15653759 3 18113334206621973952
15775835 57 17702941564490196952
17804303 29 18259990344426205982
18175812 5 18409169930536334103
18186145 218 18409721855250469805
19026448 5 17703503368156504599
200 152 17846775200712376231
20528008 55 18260827111877814671
20645464 45 18409733937246901967
20645476 183 16056593309192159965
22169311 14 18407762538330382867
22485316 2 11097858501657005593
23402539 116 18201714025663815973
23532345 42 17458344169463164949
23559900 14 18113624494908700806
58051976 100 18342738528902962071
69090 78 18410006646353772871

>  <PUBCHEM_SHAPE_MULTIPOLES>  (1) 
273.6
8.79
1.5
0.99
3.1
0.47
0.05
0.83
-0.98
-0.9
-0.28
-0.09
0.08
0.75

>  <PUBCHEM_SHAPE_SELFOVERLAP>  (1) 
527.359

>  <PUBCHEM_SHAPE_VOLUME>  (1) 
170.5

>  <PUBCHEM_COORDINATE_TYPE>  (1) 
2
5
10

$$$$
