43195
     RDKit          3D

 16 16  0  0  0  0  0  0  0  0999 V2000
   -6.0798   -1.8488   -0.2690 I   0  0  0  0  0  0  0  0  0  0  0  0
    0.4221    0.6206   -0.0137 O   0  0  0  0  0  0  0  0  0  0  0  0
    2.5926    0.2611   -0.2488 O   0  0  0  0  0  0  0  0  0  0  0  0
    4.6913   -1.4938    0.3635 O   0  0  0  0  0  0  0  0  0  0  0  0
    1.8798    2.3662    0.3624 O   0  0  0  0  0  0  0  0  0  0  0  0
   -1.9491    0.6906    0.1554 C   0  0  0  0  0  0  0  0  0  0  0  0
   -0.6820    1.4666    0.2834 C   0  0  0  0  0  0  0  0  0  0  0  0
   -2.6138    0.6395   -1.0696 C   0  0  0  0  0  0  0  0  0  0  0  0
   -2.4687    0.0148    1.2596 C   0  0  0  0  0  0  0  0  0  0  0  0
    3.9520    0.7081   -0.2163 C   0  0  0  0  0  0  0  0  0  0  0  0
    4.8618   -0.4478   -0.5852 C   0  0  0  0  0  0  0  0  0  0  0  0
   -3.7983   -0.0871   -1.1908 C   0  0  0  0  0  0  0  0  0  0  0  0
   -3.6531   -0.7120    1.1385 C   0  0  0  0  0  0  0  0  0  0  0  0
   -4.3179   -0.7630   -0.0866 C   0  0  0  0  0  0  0  0  0  0  0  0
    1.6568    1.2007    0.0637 C   0  0  0  0  0  0  0  0  0  0  0  0
    5.5063   -2.6156    0.0537 C   0  0  0  0  0  0  0  0  0  0  0  0
  1 14  1  0
  2  7  1  0
  2 15  1  0
  3 10  1  0
  3 15  1  0
  4 11  1  0
  4 16  1  0
  5 15  2  0
  6  7  1  0
  6  8  2  0
  6  9  1  0
  8 12  1  0
  9 13  2  0
 10 11  1  0
 12 14  2  0
 13 14  1  0
M  END
>  <PUBCHEM_COMPOUND_CID>  (1) 
43195

>  <PUBCHEM_CONFORMER_RMSD>  (1) 
0.8

>  <PUBCHEM_CONFORMER_DIVERSEORDER>  (1) 
1
20
13
59
56
49
18
47
6
43
48
31
21
60
37
17
54
11
23
3
52
4
44
16
7
61
53
9
57
50
42
22
51
5
41
2
14
32
8
38
26
19
35
46
25
28
45
24
30
10
27
40
15
58
12
36
34
29
39
55
33

>  <PUBCHEM_MMFF94_PARTIAL_CHARGES>  (1) 
20
1 -0.08
10 0.28
11 0.28
12 -0.15
13 -0.15
14 0.08
15 0.87
16 0.28
2 -0.43
21 0.15
22 0.15
25 0.15
26 0.15
3 -0.43
4 -0.56
5 -0.57
6 -0.14
7 0.42
8 -0.15
9 -0.15

>  <PUBCHEM_EFFECTIVE_ROTOR_COUNT>  (1) 
7

>  <PUBCHEM_PHARMACOPHORE_FEATURES>  (1) 
3
1 1 hydrophobe
1 4 acceptor
6 6 8 9 12 13 14 rings

>  <PUBCHEM_HEAVY_ATOM_COUNT>  (1) 
16

>  <PUBCHEM_ATOM_DEF_STEREO_COUNT>  (1) 
0

>  <PUBCHEM_ATOM_UDEF_STEREO_COUNT>  (1) 
0

>  <PUBCHEM_BOND_DEF_STEREO_COUNT>  (1) 
0

>  <PUBCHEM_BOND_UDEF_STEREO_COUNT>  (1) 
0

>  <PUBCHEM_ISOTOPIC_ATOM_COUNT>  (1) 
0

>  <PUBCHEM_COMPONENT_COUNT>  (1) 
1

>  <PUBCHEM_CACTVS_TAUTO_COUNT>  (1) 
1

>  <PUBCHEM_CONFORMER_ID>  (1) 
0000A8BB00000001

>  <PUBCHEM_MMFF94_ENERGY>  (1) 
33.7409

>  <PUBCHEM_FEATURE_SELFOVERLAP>  (1) 
15.223

>  <PUBCHEM_SHAPE_FINGERPRINT>  (1) 
10014705 185 8935000361006711025
100836 57 7925916980203530055
12555020 224 18260828224364632467
12596602 18 17203327802093553058
12670543 26 17967525775440738631
12954195 1 18187352200756254101
13533116 47 18200593712686596769
13675066 3 13758081779135510556
13955234 65 18056194923747265848
14123255 352 9799685996072028666
1420 369 18272373044831861038
14251740 57 17703520883118300894
14251764 75 11526220582761388010
14455015 7 18335424590534187107
15188451 53 16701725112564783975
15342168 16 8430319038936318537
16760501 71 10303806610120178875
17834072 32 9439392528450811778
17870717 6 17095527292533532123
193927 3 18339652131471156926
19784866 240 18412549846881713501
200 152 18272088327218093345
20281475 54 18409737235797817288
20325693 3 16153429441734211745
20621476 21 17460326671118604099
20645477 56 11815908855153232201
20645477 70 18334009527685690568
20671657 53 18409735066570482860
20871999 31 16660358195357137493
21637258 2 17917704756261101471
22849339 104 16154000148356749427
23272321 79 9079112259374858641
23402655 69 12685080514881825993
23403322 49 18335421253138869689
23559900 14 17458626790969569669
23596394 208 17603579716901056874
270888 7 8934706800155949534
2871803 45 17894346691762736426
2916195 48 11311786064063584607
314194 84 18412831295972751154
3472631 163 11169916078093428875
34797466 226 16805612511369388708
351380 3 18202568371609835606
4259306 186 18334013874213667254
465052 167 18343587368921966998
5104073 3 17917993871203910592
559249 180 18271806783716941811
76465 3 18413387635428035448
7970288 3 18341611495098600102

>  <PUBCHEM_SHAPE_MULTIPOLES>  (1) 
317.73
14.55
2.18
1.02
6.08
0.89
-0.03
12.43
1.45
2.47
-0.13
-1.01
0
-0.07

>  <PUBCHEM_SHAPE_SELFOVERLAP>  (1) 
618.895

>  <PUBCHEM_SHAPE_VOLUME>  (1) 
195.5

>  <PUBCHEM_COORDINATE_TYPE>  (1) 
2
5
10

$$$$
