43205
     RDKit          3D

 20 20  0  0  0  0  0  0  0  0999 V2000
   -8.4691   -2.2620    0.0529 I   0  0  0  0  0  0  0  0  0  0  0  0
    2.6466    0.2150   -0.0019 O   0  0  0  0  0  0  0  0  0  0  0  0
    0.4540    0.5193   -0.0143 O   0  0  0  0  0  0  0  0  0  0  0  0
    1.8280    2.3697    0.0208 O   0  0  0  0  0  0  0  0  0  0  0  0
    6.3972   -0.0035    0.0375 C   0  0  0  0  0  0  0  0  0  0  0  0
    7.4058   -1.1550   -0.0030 C   0  0  0  0  0  0  0  0  0  0  0  0
    4.9423   -0.4689    0.0052 C   0  0  0  0  0  0  0  0  0  0  0  0
    8.8616   -0.6903    0.0542 C   0  0  0  0  0  0  0  0  0  0  0  0
    3.9784    0.7103    0.0140 C   0  0  0  0  0  0  0  0  0  0  0  0
   -1.9493    0.5038   -0.0337 C   0  0  0  0  0  0  0  0  0  0  0  0
   -3.2194    1.3524   -0.0482 C   0  0  0  0  0  0  0  0  0  0  0  0
    9.8228   -1.8637   -0.0620 C   0  0  0  0  0  0  0  0  0  0  0  0
   -0.6974    1.3697   -0.0123 C   0  0  0  0  0  0  0  0  0  0  0  0
   -4.4609    0.4983   -0.0241 C   0  0  0  0  0  0  0  0  0  0  0  0
   -5.0396    0.0754   -1.2208 C   0  0  0  0  0  0  0  0  0  0  0  0
   -5.0311    0.1303    1.1946 C   0  0  0  0  0  0  0  0  0  0  0  0
    1.6572    1.1581    0.0036 C   0  0  0  0  0  0  0  0  0  0  0  0
   -6.1884   -0.7154   -1.1988 C   0  0  0  0  0  0  0  0  0  0  0  0
   -6.1799   -0.6604    1.2166 C   0  0  0  0  0  0  0  0  0  0  0  0
   -6.7586   -1.0832    0.0199 C   0  0  0  0  0  0  0  0  0  0  0  0
  1 20  1  0
  2  9  1  0
  2 17  1  0
  3 13  1  0
  3 17  1  0
  4 17  2  0
  5  6  1  0
  5  7  1  0
  6  8  1  0
  7  9  1  0
  8 12  1  0
 10 11  1  0
 10 13  1  0
 11 14  1  0
 14 15  2  0
 14 16  1  0
 15 18  1  0
 16 19  2  0
 18 20  2  0
 19 20  1  0
M  END
>  <PUBCHEM_COMPOUND_CID>  (1) 
43205

>  <PUBCHEM_CONFORMER_RMSD>  (1) 
1.2

>  <PUBCHEM_CONFORMER_DIVERSEORDER>  (1) 
1
38
26
46
29
18
69
53
15
7
33
6
64
20
68
61
11
59
48
2
45
54
41
66
8
36
4
47
57
35
42
30
67
40
43
24
28
58
25
52
39
56
65
3
49
22
55
5
37
27
32
34
51
23
19
50
14
10
9
31
12
21
60
17
44
13
16
62
63

>  <PUBCHEM_MMFF94_PARTIAL_CHARGES>  (1) 
18
1 -0.08
11 0.14
13 0.28
14 -0.14
15 -0.15
16 -0.15
17 0.87
18 -0.15
19 -0.15
2 -0.43
20 0.08
3 -0.43
4 -0.57
40 0.15
41 0.15
42 0.15
43 0.15
9 0.28

>  <PUBCHEM_EFFECTIVE_ROTOR_COUNT>  (1) 
11

>  <PUBCHEM_PHARMACOPHORE_FEATURES>  (1) 
4
1 1 hydrophobe
1 12 hydrophobe
4 5 6 7 8 hydrophobe
6 14 15 16 18 19 20 rings

>  <PUBCHEM_HEAVY_ATOM_COUNT>  (1) 
20

>  <PUBCHEM_ATOM_DEF_STEREO_COUNT>  (1) 
0

>  <PUBCHEM_ATOM_UDEF_STEREO_COUNT>  (1) 
0

>  <PUBCHEM_BOND_DEF_STEREO_COUNT>  (1) 
0

>  <PUBCHEM_BOND_UDEF_STEREO_COUNT>  (1) 
0

>  <PUBCHEM_ISOTOPIC_ATOM_COUNT>  (1) 
0

>  <PUBCHEM_COMPONENT_COUNT>  (1) 
1

>  <PUBCHEM_CACTVS_TAUTO_COUNT>  (1) 
1

>  <PUBCHEM_CONFORMER_ID>  (1) 
0000A8C500000001

>  <PUBCHEM_MMFF94_ENERGY>  (1) 
25.523

>  <PUBCHEM_FEATURE_SELFOVERLAP>  (1) 
20.297

>  <PUBCHEM_SHAPE_FINGERPRINT>  (1) 
10 15 12535630466096298740
10299344 5 18131914862731980076
106641 1 17846494847180890424
11135609 99 18339644554721858535
11315181 36 12685093679494541725
11386260 185 16081098099866899814
11463208 3 18409451401139891531
13668630 136 18333728040008622875
13685833 64 18413670210459946224
14178184 131 18200592630783217047
14251764 18 17917711318844392628
14344974 52 12829499176999534311
14729087 3 9583517612015175522
14849402 71 16701448117218403888
15152005 1 16665177514126751579
15183329 4 15140956249049631457
15690457 1 18409165507342504778
15706992 2 10519706730218536795
15716309 27 18131632305186296305
17093844 174 12895069622511270253
1754908 1 16845280636939086474
1754911 235 13190342366402260262
1818759 1 18343869905383412054
2026 5 18335138661450498714
21095123 293 11887947779501497322
21150785 3 15864070974778099668
21267235 1 18410856572546095813
21315763 28 18409449172736932980
22224240 67 17275098423986722486
22288116 15 13479143427637836913
23524908 199 12252171945752486464
23559900 14 17314232344753416357
23576562 1 14563111289064098478
246663 6 18412546501102287206
300161 21 8502381022937601601
33532 11 18340486669729731102
3711267 37 9222946023972413870
54039377 194 18410856576883131551
59682541 35 17846492648141979546
636775 72 10087650295169821771
636775 8 18334018297782387054
9953998 17 14692568832301438687

>  <PUBCHEM_SHAPE_MULTIPOLES>  (1) 
405.92
33.08
1.92
0.92
49.31
0.29
0
28.04
-0.15
-0.37
0
-1.73
0.08
0.1

>  <PUBCHEM_SHAPE_SELFOVERLAP>  (1) 
778.236

>  <PUBCHEM_SHAPE_VOLUME>  (1) 
251.2

>  <PUBCHEM_COORDINATE_TYPE>  (1) 
2
5
10

$$$$
