43207
     RDKit          3D

 17 17  0  0  1  0  0  0  0  0999 V2000
    4.8261    3.1749    0.2911 I   0  0  0  0  0  0  0  0  0  0  0  0
   -2.2512   -0.6923    0.1820 O   0  0  0  0  0  0  0  0  0  0  0  0
   -4.2749    0.1963    0.2919 O   0  0  0  0  0  0  0  0  0  0  0  0
   -2.7817    1.0323   -1.2523 O   0  0  0  0  0  0  0  0  0  0  0  0
    1.2568   -2.0637   -0.2093 C   0  0  0  0  0  0  0  0  0  0  0  0
   -0.1731   -1.8757    0.3333 C   0  0  0  0  0  0  0  0  0  0  0  0
    2.1084   -0.8114   -0.0919 C   0  0  0  0  0  0  0  0  0  0  0  0
    1.9408   -3.2453    0.4889 C   0  0  0  0  0  0  0  0  0  0  0  0
   -0.9463   -0.7686   -0.3772 C   0  0  0  0  0  0  0  0  0  0  0  0
    1.9232    0.0240    0.9922 C   0  0  0  0  0  0  0  0  0  0  0  0
    3.0451   -0.5430   -1.0709 C   0  0  0  0  0  0  0  0  0  0  0  0
    2.7056    1.1736    1.1017 C   0  0  0  0  0  0  0  0  0  0  0  0
    3.8277    0.6065   -0.9616 C   0  0  0  0  0  0  0  0  0  0  0  0
    3.6580    1.4648    0.1249 C   0  0  0  0  0  0  0  0  0  0  0  0
   -3.0752    0.2587   -0.3508 C   0  0  0  0  0  0  0  0  0  0  0  0
   -5.2622    1.1338   -0.1499 C   0  0  0  0  0  0  0  0  0  0  0  0
   -6.5271    0.9353    0.6578 C   0  0  0  0  0  0  0  0  0  0  0  0
  1 14  1  0
  2  9  1  0
  2 15  1  0
  3 15  1  0
  3 16  1  0
  4 15  2  0
  5  6  1  0
  5  7  1  0
  5  8  1  0
  6  9  1  0
  7 10  2  0
  7 11  1  0
 10 12  1  0
 11 13  2  0
 12 14  2  0
 13 14  1  0
 16 17  1  0
M  END
>  <PUBCHEM_COMPOUND_CID>  (1) 
43207

>  <PUBCHEM_CONFORMER_RMSD>  (1) 
0.8

>  <PUBCHEM_CONFORMER_DIVERSEORDER>  (1) 
1
44
70
122
55
87
119
38
113
30
125
106
115
63
10
107
64
17
85
29
58
99
62
82
51
74
78
21
95
123
104
98
67
54
103
83
112
110
66
2
114
77
117
56
7
33
61
120
71
57
84
97
31
15
73
26
43
105
34
24
94
19
32
126
65
108
121
20
47
116
46
11
68
8
39
60
76
48
45
75
59
101
53
49
90
124
81
5
28
89
36
35
27
86
25
111
102
22
72
9
23
93
40
18
80
50
13
14
91
100
6
4
79
109
92
41
52
118
16
88
12
96
37
42
69
3

>  <PUBCHEM_MMFF94_PARTIAL_CHARGES>  (1) 
18
1 -0.08
10 -0.15
11 -0.15
12 -0.15
13 -0.15
14 0.08
15 0.87
16 0.28
2 -0.43
26 0.15
27 0.15
28 0.15
29 0.15
3 -0.43
4 -0.57
5 0.14
7 -0.14
9 0.28

>  <PUBCHEM_EFFECTIVE_ROTOR_COUNT>  (1) 
7

>  <PUBCHEM_PHARMACOPHORE_FEATURES>  (1) 
3
1 1 hydrophobe
1 8 hydrophobe
6 7 10 11 12 13 14 rings

>  <PUBCHEM_HEAVY_ATOM_COUNT>  (1) 
17

>  <PUBCHEM_ATOM_DEF_STEREO_COUNT>  (1) 
0

>  <PUBCHEM_ATOM_UDEF_STEREO_COUNT>  (1) 
1

>  <PUBCHEM_BOND_DEF_STEREO_COUNT>  (1) 
0

>  <PUBCHEM_BOND_UDEF_STEREO_COUNT>  (1) 
0

>  <PUBCHEM_ISOTOPIC_ATOM_COUNT>  (1) 
0

>  <PUBCHEM_COMPONENT_COUNT>  (1) 
1

>  <PUBCHEM_CACTVS_TAUTO_COUNT>  (1) 
1

>  <PUBCHEM_CONFORMER_ID>  (1) 
0000A8C700000001

>  <PUBCHEM_MMFF94_ENERGY>  (1) 
33.9861

>  <PUBCHEM_FEATURE_SELFOVERLAP>  (1) 
15.223

>  <PUBCHEM_SHAPE_FINGERPRINT>  (1) 
10498660 4 18411136969507127197
11796584 16 13110959825393622093
11858739 19 8935000348464583745
12633257 1 15864351406046368780
12730499 353 18409459076388127403
13955234 65 18263082132474503883
13965767 371 17968081067356824924
14123255 52 18337668723836556124
14170010 4 18339638924373284522
1420 369 8574440823924003517
14251764 75 18270970145098950345
14528608 73 18272646845039370637
14774955 27 18410287025987027741
15210252 30 18413109489257721504
15342168 16 18411135857511355453
15885798 251 9295291646985294119
17834072 32 18266456705917704184
17868525 174 17540525830219677161
1798214 55 18409165541005872020
19784866 34 18340484560103801152
20621476 66 18266740363207488056
23402655 69 17846781844720769484
23559900 14 17531821138534320867
25 1 18272653489132439086
270888 7 18339921644637420280
3060560 45 17561083566559793510
427121 178 17458065958387442506
474 4 18411981385968598489
5104073 3 18260270716340205347
59682541 52 16701758089540480356
621550 34 18187079521202256181
633830 44 18343016722508366710
6442390 28 18335707203419469858
77188 2 17834110849854166434
7808743 9 18192427691789113984
7970288 3 9295025560555210328
960060 61 12031780392444799473
9999458 23 18408041793315715678

>  <PUBCHEM_SHAPE_MULTIPOLES>  (1) 
344.18
12.37
3.15
1.02
19.54
0.89
-0.06
-12.74
0.62
-3.85
0.53
-0.39
-0.1
0.33

>  <PUBCHEM_SHAPE_SELFOVERLAP>  (1) 
670.993

>  <PUBCHEM_SHAPE_VOLUME>  (1) 
211.6

>  <PUBCHEM_COORDINATE_TYPE>  (1) 
2
5
10

$$$$
