43218
     RDKit          3D

 18 19  0  0  0  0  0  0  0  0999 V2000
    1.6124   -3.1627    0.0270 Cl  0  0  0  0  0  0  0  0  0  0  0  0
   -2.1057    0.4845   -2.8034 Cl  0  0  0  0  0  0  0  0  0  0  0  0
    2.7342    2.9768   -0.1259 Cl  0  0  0  0  0  0  0  0  0  0  0  0
    4.9321    0.9161    1.0581 Cl  0  0  0  0  0  0  0  0  0  0  0  0
   -5.0721    0.9400    1.6700 Cl  0  0  0  0  0  0  0  0  0  0  0  0
   -0.2240   -1.0191   -1.0059 O   0  0  0  0  0  0  0  0  0  0  0  0
    0.9909   -0.5708   -0.5183 C   0  0  0  0  0  0  0  0  0  0  0  0
   -1.3562   -0.5550   -0.4046 C   0  0  0  0  0  0  0  0  0  0  0  0
    1.9201   -1.4657   -0.0154 C   0  0  0  0  0  0  0  0  0  0  0  0
    1.2428    0.7907   -0.5509 C   0  0  0  0  0  0  0  0  0  0  0  0
   -2.3154    0.1595   -1.1223 C   0  0  0  0  0  0  0  0  0  0  0  0
   -1.5464   -0.8077    0.9540 C   0  0  0  0  0  0  0  0  0  0  0  0
    2.4595    1.2709   -0.0665 C   0  0  0  0  0  0  0  0  0  0  0  0
    3.1368   -0.9856    0.4692 C   0  0  0  0  0  0  0  0  0  0  0  0
    3.4065    0.3828    0.4437 C   0  0  0  0  0  0  0  0  0  0  0  0
   -3.4648    0.6217   -0.4812 C   0  0  0  0  0  0  0  0  0  0  0  0
   -2.6957   -0.3456    1.5949 C   0  0  0  0  0  0  0  0  0  0  0  0
   -3.6550    0.3691    0.8774 C   0  0  0  0  0  0  0  0  0  0  0  0
  1  9  1  0
  2 11  1  0
  3 13  1  0
  4 15  1  0
  5 18  1  0
  6  7  1  0
  6  8  1  0
  7  9  2  0
  7 10  1  0
  8 11  2  0
  8 12  1  0
  9 14  1  0
 10 13  2  0
 11 16  1  0
 12 17  2  0
 13 15  1  0
 14 15  2  0
 16 18  2  0
 17 18  1  0
M  END
>  <PUBCHEM_COMPOUND_CID>  (1) 
43218

>  <PUBCHEM_CONFORMER_RMSD>  (1) 
0.6

>  <PUBCHEM_CONFORMER_DIVERSEORDER>  (1) 
1
11
4
6
9
12
2
5
10
3
7
8
13
14

>  <PUBCHEM_MMFF94_PARTIAL_CHARGES>  (1) 
23
1 -0.18
10 -0.15
11 0.18
12 -0.15
13 0.18
14 -0.15
15 0.18
16 -0.15
17 -0.15
18 0.18
19 0.15
2 -0.18
20 0.15
21 0.15
22 0.15
23 0.15
3 -0.18
4 -0.18
5 -0.18
6 -0.17
7 0.08
8 0.08
9 0.18

>  <PUBCHEM_EFFECTIVE_ROTOR_COUNT>  (1) 
2

>  <PUBCHEM_PHARMACOPHORE_FEATURES>  (1) 
3
1 6 acceptor
6 7 9 10 13 14 15 rings
6 8 11 12 16 17 18 rings

>  <PUBCHEM_HEAVY_ATOM_COUNT>  (1) 
18

>  <PUBCHEM_ATOM_DEF_STEREO_COUNT>  (1) 
0

>  <PUBCHEM_ATOM_UDEF_STEREO_COUNT>  (1) 
0

>  <PUBCHEM_BOND_DEF_STEREO_COUNT>  (1) 
0

>  <PUBCHEM_BOND_UDEF_STEREO_COUNT>  (1) 
0

>  <PUBCHEM_ISOTOPIC_ATOM_COUNT>  (1) 
0

>  <PUBCHEM_COMPONENT_COUNT>  (1) 
1

>  <PUBCHEM_CACTVS_TAUTO_COUNT>  (1) 
1

>  <PUBCHEM_CONFORMER_ID>  (1) 
0000A8D200000001

>  <PUBCHEM_MMFF94_ENERGY>  (1) 
51.1876

>  <PUBCHEM_FEATURE_SELFOVERLAP>  (1) 
15.223

>  <PUBCHEM_SHAPE_FINGERPRINT>  (1) 
10366900 7 17894633668576800131
10498660 4 15482673463925415249
11640471 11 17704354372491308585
11725454 13 16954177341462097599
12236239 1 17632854217889947199
12633257 1 17968099758495425665
12892183 10 18338531737701702217
13140716 1 18264488558570639400
13583140 156 17168963699801117112
15238133 3 18336563619982616824
15295992 7 17896021179595643853
15309172 13 18337386140768930174
15342168 16 18341621463769954397
15475509 8 18201175291042562412
15653759 3 17385439916668992884
15775835 57 17561082501175405273
16945 1 18410285887715173342
1813 80 17413044097226175006
18186145 218 18341894125805693366
18219364 16 18262225703221022964
19049666 15 17534050883337091151
19868273 293 15913329091544666879
20157964 124 18340487773372445193
20645476 183 16773794792914872349
20739085 24 18337676313560785032
20871999 31 14620783912931664901
21041028 32 18051695447514520770
21475661 188 18191872215353516617
21486144 27 18335427850414624491
21503847 285 18129957693042190552
21524375 3 18128813221675830070
21731228 192 18263924500510634346
21756936 100 17912936268573089748
232386 152 14923948963411668491
23402539 116 15841545293467182616
23503958 8 14996552963247282464
23526113 38 17752744858403367127
23559900 14 16951971639506389574
31174 14 18262527987488453255
3472631 163 16415477164373350729
4028521 119 15267346206237657697
4340502 62 18340499915208419011
465052 167 13262983818346972961
474 4 18342457066668137176
4921388 177 14692294009828350893
6049 1 17749673969792831639
633830 44 18130791204682223084
77492 1 17560505231854098047
81228 2 16967151334273429542
8272917 22 18341623568029531915
88987 49 15482091804983877495

>  <PUBCHEM_SHAPE_MULTIPOLES>  (1) 
373.91
8.68
2.32
1.75
1.85
0.49
-0.8
-3.76
4.45
-2.84
-0.01
2.25
-0.35
0.08

>  <PUBCHEM_SHAPE_SELFOVERLAP>  (1) 
761.769

>  <PUBCHEM_SHAPE_VOLUME>  (1) 
222.2

>  <PUBCHEM_COORDINATE_TYPE>  (1) 
2
5
10

$$$$
