43215
     RDKit          3D

 22 25  0  0  0  0  0  0  0  0999 V2000
   -0.9878   -4.9311    0.5709 Cl  0  0  0  0  0  0  0  0  0  0  0  0
   -2.5822    0.5795   -0.7177 O   0  0  0  0  0  0  0  0  0  0  0  0
    3.7631   -0.3222   -0.7499 N   0  0  0  0  0  0  0  0  0  0  0  0
    1.3441    0.0727    0.5450 C   0  0  0  0  0  0  0  0  0  0  0  0
    1.9808   -1.2897    0.6517 C   0  0  0  0  0  0  0  0  0  0  0  0
    2.3006    1.2282    0.6205 C   0  0  0  0  0  0  0  0  0  0  0  0
    3.4868   -1.2540    0.3451 C   0  0  0  0  0  0  0  0  0  0  0  0
    3.4593    1.0707   -0.3795 C   0  0  0  0  0  0  0  0  0  0  0  0
    0.0281    0.2321    0.3468 C   0  0  0  0  0  0  0  0  0  0  0  0
   -0.8545   -0.9411    0.1292 C   0  0  0  0  0  0  0  0  0  0  0  0
   -0.5656    1.5884    0.2466 C   0  0  0  0  0  0  0  0  0  0  0  0
    5.1337   -0.4487   -1.2357 C   0  0  0  0  0  0  0  0  0  0  0  0
   -2.1263   -0.6829   -0.4047 C   0  0  0  0  0  0  0  0  0  0  0  0
   -1.8572    1.6728   -0.2955 C   0  0  0  0  0  0  0  0  0  0  0  0
   -0.5212   -2.2691    0.4378 C   0  0  0  0  0  0  0  0  0  0  0  0
    0.0545    2.7736    0.6718 C   0  0  0  0  0  0  0  0  0  0  0  0
   -3.0242   -1.7254   -0.6596 C   0  0  0  0  0  0  0  0  0  0  0  0
   -2.4950    2.9094   -0.4446 C   0  0  0  0  0  0  0  0  0  0  0  0
   -1.4221   -3.3090    0.1893 C   0  0  0  0  0  0  0  0  0  0  0  0
   -0.5870    4.0077    0.5292 C   0  0  0  0  0  0  0  0  0  0  0  0
   -2.6699   -3.0383   -0.3638 C   0  0  0  0  0  0  0  0  0  0  0  0
   -1.8580    4.0763   -0.0329 C   0  0  0  0  0  0  0  0  0  0  0  0
  1 19  1  0
  2 13  1  0
  2 14  1  0
  3  7  1  0
  3  8  1  0
  3 12  1  0
  4  5  1  0
  4  6  1  0
  4  9  2  3
  5  7  1  0
  6  8  1  0
  9 10  1  0
  9 11  1  0
 10 13  2  0
 10 15  1  0
 11 14  2  0
 11 16  1  0
 13 17  1  0
 14 18  1  0
 15 19  2  0
 16 20  2  0
 17 21  2  0
 18 22  2  0
 19 21  1  0
 20 22  1  0
M  END
>  <PUBCHEM_COMPOUND_CID>  (1) 
43215

>  <PUBCHEM_CONFORMER_RMSD>  (1) 
0.6

>  <PUBCHEM_CONFORMER_DIVERSEORDER>  (1) 
2
1

>  <PUBCHEM_MMFF94_PARTIAL_CHARGES>  (1) 
29
1 -0.18
10 0.03
11 0.03
12 0.27
13 0.08
14 0.08
15 -0.15
16 -0.15
17 -0.15
18 -0.15
19 0.18
2 -0.17
20 -0.15
21 -0.15
22 -0.15
3 -0.81
34 0.15
35 0.15
36 0.15
37 0.15
38 0.15
39 0.15
4 -0.28
40 0.15
5 0.14
6 0.14
7 0.27
8 0.27
9 -0.06

>  <PUBCHEM_EFFECTIVE_ROTOR_COUNT>  (1) 
1.2

>  <PUBCHEM_PHARMACOPHORE_FEATURES>  (1) 
6
1 2 acceptor
1 3 cation
6 10 13 15 17 19 21 rings
6 11 14 16 18 20 22 rings
6 2 9 10 11 13 14 rings
6 3 4 5 6 7 8 rings

>  <PUBCHEM_HEAVY_ATOM_COUNT>  (1) 
22

>  <PUBCHEM_ATOM_DEF_STEREO_COUNT>  (1) 
0

>  <PUBCHEM_ATOM_UDEF_STEREO_COUNT>  (1) 
0

>  <PUBCHEM_BOND_DEF_STEREO_COUNT>  (1) 
0

>  <PUBCHEM_BOND_UDEF_STEREO_COUNT>  (1) 
0

>  <PUBCHEM_ISOTOPIC_ATOM_COUNT>  (1) 
0

>  <PUBCHEM_COMPONENT_COUNT>  (1) 
1

>  <PUBCHEM_CACTVS_TAUTO_COUNT>  (1) 
1

>  <PUBCHEM_CONFORMER_ID>  (1) 
0000A8CF00000002

>  <PUBCHEM_MMFF94_ENERGY>  (1) 
118.2469

>  <PUBCHEM_FEATURE_SELFOVERLAP>  (1) 
30.498

>  <PUBCHEM_SHAPE_FINGERPRINT>  (1) 
10319926 262 18125973063779019706
10411042 1 18194679491397421786
10693767 8 17986361522121981039
107951 10 18125456206343759518
10967382 1 16102470741209268345
1100329 8 18411139177658660457
11578080 2 16091156560005378244
11582403 64 16190510385286381392
11680986 33 17617371127630052235
12173636 292 18266170635035583468
12553582 1 18338229496052070219
12592029 89 17762906463516284017
12788726 201 18408882923457428690
13140716 1 18267569244027834441
138480 1 16393523962740486888
13941206 138 18047769100113803158
14022347 108 18263912410019382307
14251757 5 18337402611989810886
14790565 3 18339649932374873345
14955137 171 18119269478222470571
15463212 79 18189336775772242952
15475509 35 12819293505560273941
15475509 8 18200606881821548615
16752209 62 18267009588013589978
167882 2 17183626494416086677
16945 1 18193542583472841305
18785283 64 16970279431795665689
19591789 44 18339922594062062897
20510252 161 18341890749444810929
20645477 70 16968842949956060327
20775438 99 17262108982152153239
21524375 3 17828486868835528920
2334 1 18338502110621655225
23419403 2 16747005410820784324
23557571 272 18271798064938852976
23559900 14 17474660032908519379
2748010 2 17327723502174466129
3091708 16 9275710448305131161
314173 41 17977666738023328994
352729 6 18193827146620728011
394222 165 17538005762406426248
458136 41 17691979154441501089
6443956 14 17760646267025229741
7364860 26 17330271087795833817
81228 2 18341325707926530865
84936 31 17121982894711380424
9709674 26 18343585118976054910
9981440 41 18048313345130774776

>  <PUBCHEM_SHAPE_MULTIPOLES>  (1) 
443.77
6.06
5.94
0.9
6.94
2.32
-0.07
0.9
0.15
-6.55
-1.54
-0.16
0.35
1.54

>  <PUBCHEM_SHAPE_SELFOVERLAP>  (1) 
973.793

>  <PUBCHEM_SHAPE_VOLUME>  (1) 
239.7

>  <PUBCHEM_COORDINATE_TYPE>  (1) 
2
5
10

$$$$
