43221
     RDKit          3D

 19 20  0  0  1  0  0  0  0  0999 V2000
    1.7323    0.1142   -0.8719 O   0  0  0  0  0  0  0  0  0  0  0  0
    3.7490   -0.3273    2.0641 O   0  0  0  0  0  0  0  0  0  0  0  0
    3.5233    2.1565   -1.6066 O   0  0  0  0  0  0  0  0  0  0  0  0
   -0.7368   -3.1859   -0.6531 O   0  0  0  0  0  0  0  0  0  0  0  0
   -4.2788   -0.3276    0.0044 O   0  0  0  0  0  0  0  0  0  0  0  0
   -0.2686   -0.9346   -0.2492 N   0  0  0  0  0  0  0  0  0  0  0  0
   -2.4939   -1.7491   -0.3241 N   0  0  0  0  0  0  0  0  0  0  0  0
    1.1553   -1.0830   -0.3262 C   0  0  0  0  0  0  0  0  0  0  0  0
    3.1609   -0.6823    0.8304 C   0  0  0  0  0  0  0  0  0  0  0  0
    1.8025   -1.3115    1.0275 C   0  0  0  0  0  0  0  0  0  0  0  0
    2.8076    0.5315   -0.0141 C   0  0  0  0  0  0  0  0  0  0  0  0
    3.9643    1.0381   -0.8572 C   0  0  0  0  0  0  0  0  0  0  0  0
   -0.7900    0.3275    0.0042 C   0  0  0  0  0  0  0  0  0  0  0  0
   -2.0968    0.6019    0.1009 C   0  0  0  0  0  0  0  0  0  0  0  0
   -1.1289   -2.0395   -0.4258 C   0  0  0  0  0  0  0  0  0  0  0  0
   -2.6372    1.9687    0.3745 C   0  0  0  0  0  0  0  0  0  0  0  0
   -3.0670   -0.5117   -0.0729 C   0  0  0  0  0  0  0  0  0  0  0  0
   -2.1506    2.4719    1.7312 C   0  0  0  0  0  0  0  0  0  0  0  0
   -2.2465    2.9422   -0.7362 C   0  0  0  0  0  0  0  0  0  0  0  0
  1  8  1  0
  1 11  1  0
  2  9  1  0
  3 12  1  0
  4 15  2  0
  5 17  2  0
  6  8  1  0
  6 13  1  0
  6 15  1  0
  7 15  1  0
  7 17  1  0
  8 10  1  0
  9 10  1  0
  9 11  1  0
 11 12  1  0
 13 14  2  0
 14 16  1  0
 14 17  1  0
 16 18  1  0
 16 19  1  0
M  END
>  <PUBCHEM_COMPOUND_CID>  (1) 
43221

>  <PUBCHEM_CONFORMER_RMSD>  (1) 
0.6

>  <PUBCHEM_CONFORMER_DIVERSEORDER>  (1) 
1
146
144
94
95
110
122
76
40
93
92
67
137
139
59
66
113
116
57
105
10
79
46
81
50
142
107
121
87
125
43
54
60
17
99
129
11
64
78
52
77
119
145
140
18
5
48
2
62
53
13
126
33
38
4
70
133
103
85
108
148
45
74
100
83
102
34
80
101
136
61
73
134
69
131
128
98
71
26
147
49
55
19
104
123
35
68
30
24
117
141
37
114
6
88
65
14
63
3
106
47
109
20
124
23
25
41
143
89
16
90
138
29
120
31
115
135
111
127
72
118
7
22
75
130
21
91
36
27
44
97
58
132
96
56
42
8
82
112
32
39
84
28
51
15
86
12
9

>  <PUBCHEM_MMFF94_PARTIAL_CHARGES>  (1) 
20
1 -0.56
11 0.28
12 0.28
13 -0.04
14 -0.12
15 0.69
16 0.14
17 0.62
2 -0.68
27 0.15
28 0.4
3 -0.68
30 0.37
37 0.4
4 -0.57
5 -0.57
6 -0.47
7 -0.49
8 0.58
9 0.28

>  <PUBCHEM_EFFECTIVE_ROTOR_COUNT>  (1) 
4

>  <PUBCHEM_PHARMACOPHORE_FEATURES>  (1) 
11
1 1 acceptor
1 2 acceptor
1 2 donor
1 3 acceptor
1 3 donor
1 4 acceptor
1 5 acceptor
1 7 donor
3 16 18 19 hydrophobe
5 1 8 9 10 11 rings
6 6 7 13 14 15 17 rings

>  <PUBCHEM_HEAVY_ATOM_COUNT>  (1) 
19

>  <PUBCHEM_ATOM_DEF_STEREO_COUNT>  (1) 
0

>  <PUBCHEM_ATOM_UDEF_STEREO_COUNT>  (1) 
3

>  <PUBCHEM_BOND_DEF_STEREO_COUNT>  (1) 
0

>  <PUBCHEM_BOND_UDEF_STEREO_COUNT>  (1) 
0

>  <PUBCHEM_ISOTOPIC_ATOM_COUNT>  (1) 
0

>  <PUBCHEM_COMPONENT_COUNT>  (1) 
1

>  <PUBCHEM_CACTVS_TAUTO_COUNT>  (1) 
3

>  <PUBCHEM_CONFORMER_ID>  (1) 
0000A8D500000001

>  <PUBCHEM_MMFF94_ENERGY>  (1) 
43.2938

>  <PUBCHEM_FEATURE_SELFOVERLAP>  (1) 
55.826

>  <PUBCHEM_SHAPE_FINGERPRINT>  (1) 
10498660 4 18341051933720563173
11132069 177 18131627907087109171
11640471 11 18114753723578695692
11725454 13 16446711906475964781
12173636 292 18342734113549325007
12553582 1 17764866188110870927
13140716 1 18125994116701213163
13538477 17 18336258058908178190
13764800 53 18059016073268194785
13965767 371 17833264216851629696
14614273 12 18266173934066189389
14739800 52 18198046183860471800
14787075 74 17463707728685554555
15042514 8 18340763857754574167
15342168 16 17981621368433349681
15669948 3 18268427008957946294
16752209 62 18342733014127413247
16945 1 18271520995912882823
18186145 218 17985271772189255644
20510252 161 18273215283538990115
20715895 44 17827623774289593461
21524375 3 18341328873322819127
22749437 52 18125430926092557417
23048698 100 17821443569141088002
2334 1 18269837527799387743
23402539 116 18200294603054431031
23419403 2 16755723429642343871
23557571 272 17989204845725751432
23558518 356 18265331716480787371
23559900 14 18201726111290694366
23598291 2 18040997294029051518
2748010 2 18053673473402203407
350125 39 18126576617483032463
474 4 18051699836987428289
53812653 8 18411142449964414303
7097593 13 18043515128275343058
7364860 26 17553761755463964223
7615 1 18261101985442344564
81228 2 18271245031653617027

>  <PUBCHEM_SHAPE_MULTIPOLES>  (1) 
351.7
7.02
3.02
1.3
2.89
0.19
0.45
2.71
0.39
-1.89
-0.6
1.03
0.6
-1.52

>  <PUBCHEM_SHAPE_SELFOVERLAP>  (1) 
731.616

>  <PUBCHEM_SHAPE_VOLUME>  (1) 
200.2

>  <PUBCHEM_COORDINATE_TYPE>  (1) 
2
5
10

$$$$
