43230
     RDKit          3D

 16 16  0  0  1  0  0  0  0  0999 V2000
    5.5389   -0.3302   -0.8463 Cl  0  0  0  0  0  0  0  0  0  0  0  0
   -2.4680   -1.7503    0.3226 O   0  0  0  0  0  0  0  0  0  0  0  0
   -3.9257   -0.4533   -0.9040 O   0  0  0  0  0  0  0  0  0  0  0  0
   -0.0366    0.2855    1.0126 N   0  0  0  0  0  0  0  0  0  0  0  0
   -0.7940    0.4271    0.0294 N   0  0  0  0  0  0  0  0  0  0  0  0
   -2.9831    2.9002   -0.4990 N   0  0  0  0  0  0  0  0  0  0  0  0
    1.2892    0.1387    0.5715 C   0  0  0  0  0  0  0  0  0  0  0  0
   -2.1891    0.5827    0.4410 C   0  0  0  0  0  0  0  0  0  0  0  0
    2.0921    1.2637    0.4108 C   0  0  0  0  0  0  0  0  0  0  0  0
    1.7899   -1.1306    0.2976 C   0  0  0  0  0  0  0  0  0  0  0  0
    3.4081    1.1184   -0.0283 C   0  0  0  0  0  0  0  0  0  0  0  0
    3.1059   -1.2761   -0.1413 C   0  0  0  0  0  0  0  0  0  0  0  0
    3.9151   -0.1515   -0.3042 C   0  0  0  0  0  0  0  0  0  0  0  0
   -2.9706   -0.5681   -0.1463 C   0  0  0  0  0  0  0  0  0  0  0  0
   -2.6328    1.8741   -0.0851 C   0  0  0  0  0  0  0  0  0  0  0  0
   -3.1393   -2.9303   -0.1309 C   0  0  0  0  0  0  0  0  0  0  0  0
  1 13  1  0
  2 14  1  0
  2 16  1  0
  3 14  2  0
  4  5  2  0
  4  7  1  0
  5  8  1  0
  6 15  3  0
  7  9  2  0
  7 10  1  0
  8 14  1  0
  8 15  1  0
  9 11  1  0
 10 12  2  0
 11 13  2  0
 12 13  1  0
M  END
>  <PUBCHEM_COMPOUND_CID>  (1) 
43230

>  <PUBCHEM_CONFORMER_RMSD>  (1) 
0.6

>  <PUBCHEM_CONFORMER_DIVERSEORDER>  (1) 
3
18
5
19
9
2
15
12
13
22
11
14
21
1
6
10
16
20
17
4
7
8

>  <PUBCHEM_MMFF94_PARTIAL_CHARGES>  (1) 
20
1 -0.18
10 -0.15
11 -0.15
12 -0.15
13 0.18
14 0.66
15 0.36
16 0.28
18 0.15
19 0.15
2 -0.43
20 0.15
21 0.15
3 -0.57
4 -0.18
5 -0.25
6 -0.56
7 0.18
8 0.51
9 -0.15

>  <PUBCHEM_EFFECTIVE_ROTOR_COUNT>  (1) 
4

>  <PUBCHEM_PHARMACOPHORE_FEATURES>  (1) 
3
1 3 acceptor
1 6 acceptor
6 7 9 10 11 12 13 rings

>  <PUBCHEM_HEAVY_ATOM_COUNT>  (1) 
16

>  <PUBCHEM_ATOM_DEF_STEREO_COUNT>  (1) 
0

>  <PUBCHEM_ATOM_UDEF_STEREO_COUNT>  (1) 
1

>  <PUBCHEM_BOND_DEF_STEREO_COUNT>  (1) 
0

>  <PUBCHEM_BOND_UDEF_STEREO_COUNT>  (1) 
0

>  <PUBCHEM_ISOTOPIC_ATOM_COUNT>  (1) 
0

>  <PUBCHEM_COMPONENT_COUNT>  (1) 
1

>  <PUBCHEM_CACTVS_TAUTO_COUNT>  (1) 
1

>  <PUBCHEM_CONFORMER_ID>  (1) 
0000A8DE00000003

>  <PUBCHEM_MMFF94_ENERGY>  (1) 
29.7065

>  <PUBCHEM_FEATURE_SELFOVERLAP>  (1) 
15.223

>  <PUBCHEM_SHAPE_FINGERPRINT>  (1) 
10608611 8 18411695495807887536
10616163 171 18412827992626436087
10680689 15 18336555957813208304
11543360 7 18335990852113251788
12173636 292 18265041445505740397
12500047 106 18337668598976770405
13296908 3 17489863843326414360
13705890 14 17989210352406470856
14965852 173 18411981347255727625
18186145 218 18273500052834978520
200 152 17846500343868766610
20645477 56 18336830780017874809
20645477 70 17203328888725163724
20871999 31 18340762655168350005
221490 88 18269279122248458818
23402539 116 17313105237849344236
23402655 69 18263366897875911876
23557571 272 18272376343018870660
23559900 14 18341602771892934328
23598291 2 17824530894586236666
2871803 45 18338509858648172723
4028521 119 17968086504621897821
4214541 1 18411983533473319368
4990 188 18272098171636382070
58051976 100 18341896290010397997
58051976 378 18411132580324623494
59755656 520 16660938676844861193
6049 1 18059567044194025713
633830 44 16950856803967323896
93112 12 18410853226771866472
9709674 26 18343022164015932015

>  <PUBCHEM_SHAPE_MULTIPOLES>  (1) 
304.46
9.49
2.46
0.82
6.05
0.17
0.01
1.39
2.81
-3.51
0.25
0.09
-0.03
0.34

>  <PUBCHEM_SHAPE_SELFOVERLAP>  (1) 
619.118

>  <PUBCHEM_SHAPE_VOLUME>  (1) 
176

>  <PUBCHEM_COORDINATE_TYPE>  (1) 
2
5
10

$$$$
