43234
     RDKit          3D

 22 24  0  0  1  0  0  0  0  0999 V2000
    1.2260   -1.4973   -1.8895 Cl  0  0  0  0  0  0  0  0  0  0  0  0
    6.0990    0.0060   -0.1679 Cl  0  0  0  0  0  0  0  0  0  0  0  0
   -0.5655   -0.7597   -0.1488 O   0  0  0  0  0  0  0  0  0  0  0  0
   -0.2742    0.8043    1.5707 O   0  0  0  0  0  0  0  0  0  0  0  0
   -1.8589    1.7470   -0.6163 N   0  0  0  0  0  0  0  0  0  0  0  0
   -2.3729    2.6064    0.2637 N   0  0  0  0  0  0  0  0  0  0  0  0
   -3.9918    1.5529   -0.9620 N   0  0  0  0  0  0  0  0  0  0  0  0
    0.0944    0.4694    0.2174 C   0  0  0  0  0  0  0  0  0  0  0  0
   -1.0227   -1.3151    1.0860 C   0  0  0  0  0  0  0  0  0  0  0  0
   -1.3355   -0.0901    1.9055 C   0  0  0  0  0  0  0  0  0  0  0  0
   -2.2126   -2.2212    0.8539 C   0  0  0  0  0  0  0  0  0  0  0  0
   -0.4155    1.5699   -0.7124 C   0  0  0  0  0  0  0  0  0  0  0  0
    1.6046    0.3302    0.0960 C   0  0  0  0  0  0  0  0  0  0  0  0
   -1.8288   -3.4652    0.0506 C   0  0  0  0  0  0  0  0  0  0  0  0
    2.1909   -0.5357   -0.8297 C   0  0  0  0  0  0  0  0  0  0  0  0
    2.4130    1.0953    0.9391 C   0  0  0  0  0  0  0  0  0  0  0  0
   -3.0300   -4.3604   -0.2082 C   0  0  0  0  0  0  0  0  0  0  0  0
    3.5799   -0.6361   -0.9113 C   0  0  0  0  0  0  0  0  0  0  0  0
    3.8017    0.9948    0.8574 C   0  0  0  0  0  0  0  0  0  0  0  0
   -2.8111    1.1228   -1.3418 C   0  0  0  0  0  0  0  0  0  0  0  0
    4.3853    0.1292   -0.0678 C   0  0  0  0  0  0  0  0  0  0  0  0
   -3.6753    2.4525    0.0154 C   0  0  0  0  0  0  0  0  0  0  0  0
  1 15  1  0
  2 21  1  0
  3  8  1  0
  3  9  1  0
  4  8  1  0
  4 10  1  0
  5  6  1  0
  5 12  1  0
  5 20  1  0
  6 22  2  0
  7 20  2  0
  7 22  1  0
  8 12  1  0
  8 13  1  0
  9 10  1  0
  9 11  1  0
 11 14  1  0
 13 15  2  0
 13 16  1  0
 14 17  1  0
 15 18  1  0
 16 19  2  0
 18 21  2  0
 19 21  1  0
M  END
>  <PUBCHEM_COMPOUND_CID>  (1) 
43234

>  <PUBCHEM_CONFORMER_RMSD>  (1) 
0.8

>  <PUBCHEM_CONFORMER_DIVERSEORDER>  (1) 
2
26
85
37
23
92
8
19
7
89
108
20
100
51
9
30
40
109
32
86
79
42
87
93
98
101
69
74
67
41
17
68
95
72
106
16
52
83
94
55
60
49
88
27
105
12
22
50
97
61
15
53
54
47
11
43
35
102
31
58
45
64
111
1
14
70
66
24
62
107
90
104
28
44
48
59
63
10
80
18
21
34
29
3
99
65
46
13
25
4
91
84
81
78
82
71
6
33
77
36
5
96
103
56
76
73
110
57
38
39
75

>  <PUBCHEM_MMFF94_PARTIAL_CHARGES>  (1) 
24
1 -0.18
10 0.28
12 0.26
13 -0.14
15 0.18
16 -0.15
18 -0.15
19 -0.15
2 -0.18
20 0.04
21 0.18
22 0.37
3 -0.56
32 0.15
36 0.15
37 0.15
38 0.15
39 0.15
4 -0.56
5 0.31
6 -0.71
7 -0.57
8 0.7
9 0.28

>  <PUBCHEM_EFFECTIVE_ROTOR_COUNT>  (1) 
6

>  <PUBCHEM_PHARMACOPHORE_FEATURES>  (1) 
8
1 17 hydrophobe
1 3 acceptor
1 4 acceptor
3 5 7 20 cation
3 6 7 22 cation
5 3 4 8 9 10 rings
5 5 6 7 20 22 rings
6 13 15 16 18 19 21 rings

>  <PUBCHEM_HEAVY_ATOM_COUNT>  (1) 
22

>  <PUBCHEM_ATOM_DEF_STEREO_COUNT>  (1) 
0

>  <PUBCHEM_ATOM_UDEF_STEREO_COUNT>  (1) 
2

>  <PUBCHEM_BOND_DEF_STEREO_COUNT>  (1) 
0

>  <PUBCHEM_BOND_UDEF_STEREO_COUNT>  (1) 
0

>  <PUBCHEM_ISOTOPIC_ATOM_COUNT>  (1) 
0

>  <PUBCHEM_COMPONENT_COUNT>  (1) 
1

>  <PUBCHEM_CACTVS_TAUTO_COUNT>  (1) 
1

>  <PUBCHEM_CONFORMER_ID>  (1) 
0000A8E200000002

>  <PUBCHEM_MMFF94_ENERGY>  (1) 
46.3785

>  <PUBCHEM_FEATURE_SELFOVERLAP>  (1) 
43.403

>  <PUBCHEM_SHAPE_FINGERPRINT>  (1) 
11578080 2 17985828374492822297
116883 192 18192992845081629959
12236239 1 15936699185729580160
12293681 25 17987815028589805918
12293681 4 18342456998244683352
12500047 106 18335984186223671210
12788726 201 18044087093064366666
13004483 165 18122902302699255346
13083527 12 17831858319510399248
13134695 92 17471848581834694815
13583140 156 18271516564376896266
13681431 1 17322680033890438707
13899415 180 17833817649310769863
13931106 250 18410299141847338831
15852999 172 18341896230018031990
16945 1 18408036312404487937
17357779 13 18125988610759017487
17539 30 18337949116582085911
1813 80 17904784506323192267
18186145 218 18267297625669258565
200 152 16558460907860767076
20602899 9 18270683056652166307
20681677 76 18340763866623570704
21033648 144 18334845152608408420
21344244 181 18271806770864325767
22182313 1 18192173524166829787
22620623 9 18336829791869162299
22907989 373 18268726058872143788
229495 10 17341522312720643321
23402539 116 18263073340950683996
23419403 2 17558539464293650131
23493267 7 18411412904397733634
23557571 272 18410858805992211422
23559900 14 18338238159887063174
23598288 3 17169579425964395355
57262259 84 18266456688742862939
58779409 54 18409163346214332095
59554788 248 17417540232315604438
59755656 520 18335134237659700149
69090 78 18041560230654745144
81228 2 18042408096101328537
9709674 26 18343019986825832366

>  <PUBCHEM_SHAPE_MULTIPOLES>  (1) 
429.81
8.39
3.62
1.45
10.47
3.37
-0.05
-0.72
0.88
-6.83
0.32
-0.23
0.06
1.28

>  <PUBCHEM_SHAPE_SELFOVERLAP>  (1) 
899.836

>  <PUBCHEM_SHAPE_VOLUME>  (1) 
246.8

>  <PUBCHEM_COORDINATE_TYPE>  (1) 
2
5
10

$$$$
