43238
     RDKit          3D

 17 18  0  0  0  0  0  0  0  0999 V2000
    0.5343    2.7381   -0.2383 Cl  0  0  0  0  0  0  0  0  0  0  0  0
    0.5358   -2.7413   -0.2092 Cl  0  0  0  0  0  0  0  0  0  0  0  0
   -1.0663    0.0139    2.3117 Cl  0  0  0  0  0  0  0  0  0  0  0  0
   -4.2188    0.0132    1.7463 Cl  0  0  0  0  0  0  0  0  0  0  0  0
    5.1193    0.0032    0.3445 Cl  0  0  0  0  0  0  0  0  0  0  0  0
    0.6394   -0.0014   -0.2119 C   0  0  0  0  0  0  0  0  0  0  0  0
   -0.8011   -0.0029   -0.3921 C   0  0  0  0  0  0  0  0  0  0  0  0
    1.3347    1.2072   -0.1327 C   0  0  0  0  0  0  0  0  0  0  0  0
    1.3353   -1.2089   -0.1189 C   0  0  0  0  0  0  0  0  0  0  0  0
   -1.6857    0.0043    0.6865 C   0  0  0  0  0  0  0  0  0  0  0  0
   -1.2927   -0.0115   -1.6974 C   0  0  0  0  0  0  0  0  0  0  0  0
    2.7192    1.2084    0.0386 C   0  0  0  0  0  0  0  0  0  0  0  0
    2.7197   -1.2074    0.0523 C   0  0  0  0  0  0  0  0  0  0  0  0
   -3.0621    0.0028    0.4596 C   0  0  0  0  0  0  0  0  0  0  0  0
   -2.6690   -0.0131   -1.9242 C   0  0  0  0  0  0  0  0  0  0  0  0
    3.4116    0.0013    0.1311 C   0  0  0  0  0  0  0  0  0  0  0  0
   -3.5537   -0.0059   -0.8458 C   0  0  0  0  0  0  0  0  0  0  0  0
  1  8  1  0
  2  9  1  0
  3 10  1  0
  4 14  1  0
  5 16  1  0
  6  7  1  0
  6  8  2  0
  6  9  1  0
  7 10  2  0
  7 11  1  0
  8 12  1  0
  9 13  2  0
 10 14  1  0
 11 15  2  0
 12 16  2  0
 13 16  1  0
 14 17  2  0
 15 17  1  0
M  END
>  <PUBCHEM_COMPOUND_CID>  (1) 
43238

>  <PUBCHEM_CONFORMER_RMSD>  (1) 
0.6

>  <PUBCHEM_CONFORMER_DIVERSEORDER>  (1) 
1

>  <PUBCHEM_MMFF94_PARTIAL_CHARGES>  (1) 
20
1 -0.18
10 0.18
11 -0.15
12 -0.15
13 -0.15
14 0.18
15 -0.15
16 0.18
17 -0.15
18 0.15
19 0.15
2 -0.18
20 0.15
21 0.15
22 0.15
3 -0.18
4 -0.18
5 -0.18
8 0.18
9 0.18

>  <PUBCHEM_EFFECTIVE_ROTOR_COUNT>  (1) 
1

>  <PUBCHEM_PHARMACOPHORE_FEATURES>  (1) 
2
6 6 8 9 12 13 16 rings
6 7 10 11 14 15 17 rings

>  <PUBCHEM_HEAVY_ATOM_COUNT>  (1) 
17

>  <PUBCHEM_ATOM_DEF_STEREO_COUNT>  (1) 
0

>  <PUBCHEM_ATOM_UDEF_STEREO_COUNT>  (1) 
0

>  <PUBCHEM_BOND_DEF_STEREO_COUNT>  (1) 
0

>  <PUBCHEM_BOND_UDEF_STEREO_COUNT>  (1) 
0

>  <PUBCHEM_ISOTOPIC_ATOM_COUNT>  (1) 
0

>  <PUBCHEM_COMPONENT_COUNT>  (1) 
1

>  <PUBCHEM_CACTVS_TAUTO_COUNT>  (1) 
1

>  <PUBCHEM_CONFORMER_ID>  (1) 
0000A8E600000001

>  <PUBCHEM_MMFF94_ENERGY>  (1) 
48.1296

>  <PUBCHEM_FEATURE_SELFOVERLAP>  (1) 
10.149

>  <PUBCHEM_SHAPE_FINGERPRINT>  (1) 
11471102 22 18334866004140925056
11640471 11 17560537130781719545
12119455 92 18259978280163784306
12236239 1 17703787024565170855
124424 183 17748818618671529112
12633257 1 18114762511034168153
13140716 1 18266171924211165232
13464514 151 17534881014705811077
13538477 17 17132113524562031459
13581323 91 15574714711525313067
13583140 156 18272942609430356273
13965767 371 16768212438767572497
15207287 21 17748827418822505907
15219456 202 17894627032905082015
15309172 13 18409167727139009270
15653759 3 17095239232928766964
15775835 57 17418099801607524001
16945 1 18410568487603861959
1813 80 18200612297674867972
18186145 218 18271804652948920036
18219364 16 18334292084693499047
19049666 15 17604984810982824591
200 152 18342727525306869751
204376 136 18409165554312864398
20510252 161 16587743131548937605
20645477 70 18264473006109452215
21061003 4 18334858324665878101
22112679 90 17346880087101866201
23175994 123 18186802465557372172
23184049 59 18411420626622447904
23236772 104 17704069590448023163
23402539 116 15195563485453185513
23493267 7 17168694250764620140
23526113 38 17750217137068715405
23557571 272 16805604741995057205
23559900 14 16660914466826356610
23728640 28 15167130819529927211
2748010 2 18122904502449764124
3286 77 18115317798934848329
34934 24 17417816093490510081
350125 39 17688312708628029996
4340502 62 18271261473331830051
474 4 17772736398380088944
568465 68 18113912566744051594
77492 1 17775563147900230479
81228 2 16536487988112825490
8272917 22 18270972219963331615

>  <PUBCHEM_SHAPE_MULTIPOLES>  (1) 
359.2
7.19
1.9
1.64
2.65
0
-0.32
-0.01
-1.47
1.18
0.23
-2.11
0
-0.02

>  <PUBCHEM_SHAPE_SELFOVERLAP>  (1) 
735.438

>  <PUBCHEM_SHAPE_VOLUME>  (1) 
200.7

>  <PUBCHEM_COORDINATE_TYPE>  (1) 
2
5
10

$$$$
