43246
     RDKit          3D

 19 20  0  0  0  0  0  0  0  0999 V2000
   -1.2756   -1.0498   -2.1233 O   0  0  0  0  0  0  0  0  0  0  0  0
    1.0566   -2.3221    1.8779 O   0  0  0  0  0  0  0  0  0  0  0  0
   -0.3874   -2.7350    0.1842 O   0  0  0  0  0  0  0  0  0  0  0  0
    3.0787    0.5112   -0.2529 C   0  0  0  0  0  0  0  0  0  0  0  0
    0.4299   -0.0585   -0.8251 C   0  0  0  0  0  0  0  0  0  0  0  0
    1.1284   -0.8844    0.0388 C   0  0  0  0  0  0  0  0  0  0  0  0
    4.5057    0.8168    0.0542 C   0  0  0  0  0  0  0  0  0  0  0  0
    2.4626   -0.5974    0.3273 C   0  0  0  0  0  0  0  0  0  0  0  0
    2.3605    1.3332   -1.1214 C   0  0  0  0  0  0  0  0  0  0  0  0
    1.0263    1.0465   -1.4098 C   0  0  0  0  0  0  0  0  0  0  0  0
   -0.9844   -0.3368   -1.1507 C   0  0  0  0  0  0  0  0  0  0  0  0
   -2.0603    0.2272   -0.3515 C   0  0  0  0  0  0  0  0  0  0  0  0
    4.6408    1.7190    1.2488 C   0  0  0  0  0  0  0  0  0  0  0  0
    0.5126   -2.0501    0.6597 C   0  0  0  0  0  0  0  0  0  0  0  0
   -1.7641    1.0326    0.7483 C   0  0  0  0  0  0  0  0  0  0  0  0
   -3.3886   -0.0375   -0.6843 C   0  0  0  0  0  0  0  0  0  0  0  0
   -2.7962    1.5733    1.5151 C   0  0  0  0  0  0  0  0  0  0  0  0
   -4.4209    0.5032    0.0824 C   0  0  0  0  0  0  0  0  0  0  0  0
   -4.1246    1.3086    1.1822 C   0  0  0  0  0  0  0  0  0  0  0  0
  1 11  2  0
  2 14  1  0
  3 14  2  0
  4  7  1  0
  4  8  2  0
  4  9  1  0
  5  6  2  0
  5 10  1  0
  5 11  1  0
  6  8  1  0
  6 14  1  0
  7 13  1  0
  9 10  2  0
 11 12  1  0
 12 15  2  0
 12 16  1  0
 15 17  1  0
 16 18  2  0
 17 19  2  0
 18 19  1  0
M  END
>  <PUBCHEM_COMPOUND_CID>  (1) 
43246

>  <PUBCHEM_CONFORMER_RMSD>  (1) 
0.6

>  <PUBCHEM_CONFORMER_DIVERSEORDER>  (1) 
1
4
2
3

>  <PUBCHEM_MMFF94_PARTIAL_CHARGES>  (1) 
27
1 -0.57
10 -0.15
11 0.4
12 0.09
14 0.63
15 -0.15
16 -0.15
17 -0.15
18 -0.15
19 -0.15
2 -0.65
22 0.15
23 0.15
24 0.15
28 0.15
29 0.15
3 -0.57
30 0.15
31 0.15
32 0.15
33 0.5
4 -0.14
5 0.09
6 0.09
7 0.14
8 -0.15
9 -0.15

>  <PUBCHEM_EFFECTIVE_ROTOR_COUNT>  (1) 
4

>  <PUBCHEM_PHARMACOPHORE_FEATURES>  (1) 
7
1 1 acceptor
1 13 hydrophobe
1 2 acceptor
1 3 acceptor
3 2 3 14 anion
6 12 15 16 17 18 19 rings
6 4 5 6 8 9 10 rings

>  <PUBCHEM_HEAVY_ATOM_COUNT>  (1) 
19

>  <PUBCHEM_ATOM_DEF_STEREO_COUNT>  (1) 
0

>  <PUBCHEM_ATOM_UDEF_STEREO_COUNT>  (1) 
0

>  <PUBCHEM_BOND_DEF_STEREO_COUNT>  (1) 
0

>  <PUBCHEM_BOND_UDEF_STEREO_COUNT>  (1) 
0

>  <PUBCHEM_ISOTOPIC_ATOM_COUNT>  (1) 
0

>  <PUBCHEM_COMPONENT_COUNT>  (1) 
1

>  <PUBCHEM_CACTVS_TAUTO_COUNT>  (1) 
1

>  <PUBCHEM_CONFORMER_ID>  (1) 
0000A8EE00000001

>  <PUBCHEM_MMFF94_ENERGY>  (1) 
62.9159

>  <PUBCHEM_FEATURE_SELFOVERLAP>  (1) 
35.582

>  <PUBCHEM_SHAPE_FINGERPRINT>  (1) 
10498660 4 17274547512325907305
11132069 177 17821446876144670986
11370993 70 17967819344897629603
11471102 22 17531249426409233285
11640471 11 18341618087967675781
12119455 92 17530958107399057149
12236239 1 18343016688312028533
12390115 104 17683539690525235124
12491281 212 18060136561521388902
12592029 89 17676479549361524059
12633257 1 16805616866577555057
12788726 201 17761501691520218054
13140716 1 17751637882861006316
13583140 156 18334295366871692697
13965767 371 17767428802139130209
14739800 52 17416944245610977200
14787075 74 18124030389202978227
15207287 21 16225763021532719843
15209294 21 18341888615225859648
15309172 13 17894915143711662612
15375358 24 16805323263003018733
15534591 1 18273213122922741110
15775835 57 18202006495050234361
16945 1 17458921356916596431
1813 80 17764590919799564446
18186145 218 18410299081801783860
204376 136 18186808010312314468
20603629 256 18043244652345835099
20739085 24 18115030680434310268
21339142 149 18199740522081667294
21524375 3 18413394249735817220
22079108 93 18411419557011989705
221357 26 12535348948781773923
23184049 59 17967812747722406428
23402539 116 17203885266835680037
23419403 2 17113505660087679655
23526113 38 14620801491594283655
23557571 272 16844162540064122140
23559900 14 14852166140307714994
276578 36 18410019805616291342
2838139 119 16988268881209663704
298252 57 17704358770469365214
3472631 163 17560806489925408473
392239 28 18268156542324846011
4340502 62 18334301968119999147
465052 167 16009039401025519096
474 4 18340205297225658544
568465 68 17240491303090236756
58807428 26 18041268942194721850
59755656 520 18409165537154081222
7495541 125 14405174088923205445
77492 1 18342734092296034631
7808743 9 17059783213255086313
81228 2 17318452368742757026
8272917 22 18116721716485668821
9981440 41 17265797886623602680

>  <PUBCHEM_SHAPE_MULTIPOLES>  (1) 
373.4
7.88
2.13
1.59
0.72
1.08
0.05
-5.38
-2.04
0.43
-0.96
-0.07
0.14
-0.89

>  <PUBCHEM_SHAPE_SELFOVERLAP>  (1) 
810.867

>  <PUBCHEM_SHAPE_VOLUME>  (1) 
203.3

>  <PUBCHEM_COORDINATE_TYPE>  (1) 
2
5
10

$$$$
