43254
     RDKit          3D

 24 29  0  0  0  0  0  0  0  0999 V2000
   -1.0093   -0.7513    0.0002 C   0  0  0  0  0  0  0  0  0  0  0  0
   -0.4990    0.5361    0.0004 C   0  0  0  0  0  0  0  0  0  0  0  0
    0.9548    0.4501    0.0004 C   0  0  0  0  0  0  0  0  0  0  0  0
    0.0362   -1.6693    0.0003 C   0  0  0  0  0  0  0  0  0  0  0  0
    1.2891   -0.9273    0.0003 C   0  0  0  0  0  0  0  0  0  0  0  0
   -2.3673   -1.0730    0.0000 C   0  0  0  0  0  0  0  0  0  0  0  0
   -3.2785    0.0345   -0.0001 C   0  0  0  0  0  0  0  0  0  0  0  0
   -1.3682    1.6092    0.0001 C   0  0  0  0  0  0  0  0  0  0  0  0
   -2.7591    1.3715    0.0001 C   0  0  0  0  0  0  0  0  0  0  0  0
    1.9357    1.4239    0.0001 C   0  0  0  0  0  0  0  0  0  0  0  0
    2.6070   -1.3439    0.0006 C   0  0  0  0  0  0  0  0  0  0  0  0
   -0.2448   -3.0213   -0.0002 C   0  0  0  0  0  0  0  0  0  0  0  0
    3.2830    1.0204    0.0001 C   0  0  0  0  0  0  0  0  0  0  0  0
    3.6197   -0.3681    0.0004 C   0  0  0  0  0  0  0  0  0  0  0  0
   -2.6345   -2.4667   -0.0006 C   0  0  0  0  0  0  0  0  0  0  0  0
   -1.5891   -3.4162   -0.0006 C   0  0  0  0  0  0  0  0  0  0  0  0
   -4.6799   -0.1279    0.0000 C   0  0  0  0  0  0  0  0  0  0  0  0
   -3.6463    2.4585    0.0000 C   0  0  0  0  0  0  0  0  0  0  0  0
    4.3140    1.9721   -0.0005 C   0  0  0  0  0  0  0  0  0  0  0  0
    4.9721   -0.7417    0.0004 C   0  0  0  0  0  0  0  0  0  0  0  0
   -5.5412    0.9707   -0.0001 C   0  0  0  0  0  0  0  0  0  0  0  0
   -5.0259    2.2604    0.0000 C   0  0  0  0  0  0  0  0  0  0  0  0
    5.6517    1.5758   -0.0008 C   0  0  0  0  0  0  0  0  0  0  0  0
    5.9797    0.2235   -0.0003 C   0  0  0  0  0  0  0  0  0  0  0  0
  1  2  1  0
  1  4  2  0
  1  6  1  0
  2  3  1  0
  2  8  2  0
  3  5  2  0
  3 10  1  0
  4  5  1  0
  4 12  1  0
  5 11  1  0
  6  7  1  0
  6 15  2  0
  7  9  2  0
  7 17  1  0
  8  9  1  0
  9 18  1  0
 10 13  2  0
 11 14  2  0
 12 16  2  0
 13 14  1  0
 13 19  1  0
 14 20  1  0
 15 16  1  0
 17 21  2  0
 18 22  2  0
 19 23  2  0
 20 24  2  0
 21 22  1  0
 23 24  1  0
M  END
>  <PUBCHEM_COMPOUND_CID>  (1) 
43254

>  <PUBCHEM_CONFORMER_RMSD>  (1) 
0.6

>  <PUBCHEM_CONFORMER_DIVERSEORDER>  (1) 
1

>  <PUBCHEM_MMFF94_PARTIAL_CHARGES>  (1) 
28
10 -0.15
11 -0.15
12 -0.15
15 -0.15
16 -0.15
17 -0.15
18 -0.15
19 -0.15
20 -0.15
21 -0.15
22 -0.15
23 -0.15
24 -0.15
25 0.15
26 0.15
27 0.15
28 0.15
29 0.15
30 0.15
31 0.15
32 0.15
33 0.15
34 0.15
35 0.15
36 0.15
37 0.15
38 0.15
8 -0.15

>  <PUBCHEM_EFFECTIVE_ROTOR_COUNT>  (1) 
0

>  <PUBCHEM_PHARMACOPHORE_FEATURES>  (1) 
6
5 1 2 3 4 5 rings
6 1 2 6 7 8 9 rings
6 1 4 6 12 15 16 rings
6 13 14 19 20 23 24 rings
6 3 5 10 11 13 14 rings
6 7 9 17 18 21 22 rings

>  <PUBCHEM_HEAVY_ATOM_COUNT>  (1) 
24

>  <PUBCHEM_ATOM_DEF_STEREO_COUNT>  (1) 
0

>  <PUBCHEM_ATOM_UDEF_STEREO_COUNT>  (1) 
0

>  <PUBCHEM_BOND_DEF_STEREO_COUNT>  (1) 
0

>  <PUBCHEM_BOND_UDEF_STEREO_COUNT>  (1) 
0

>  <PUBCHEM_ISOTOPIC_ATOM_COUNT>  (1) 
0

>  <PUBCHEM_COMPONENT_COUNT>  (1) 
1

>  <PUBCHEM_CACTVS_TAUTO_COUNT>  (1) 
1

>  <PUBCHEM_CONFORMER_ID>  (1) 
0000A8F600000001

>  <PUBCHEM_MMFF94_ENERGY>  (1) 
102.2304

>  <PUBCHEM_FEATURE_SELFOVERLAP>  (1) 
30.805

>  <PUBCHEM_SHAPE_FINGERPRINT>  (1) 
10 15 18261109716647741664
10050765 1 18266459987862983852
10319926 262 18269538581797609474
10411042 1 17690280834495314991
10493431 412 18409167701205421805
10616163 171 18339363097236207622
10906281 52 18129962120789755072
10967382 1 18338798918557947783
1100329 8 18338800129760227081
11578080 2 13684924630573063881
12107183 9 18263352600262229922
12236239 1 17894630361794841168
12293681 160 17917710150339235753
12390115 104 18271260334569325817
12788726 201 17774724143287768832
12838862 33 18337653257411923069
13140716 1 18335420106377723451
13402501 40 18412544301404240100
13785724 45 17689149011960408034
138480 1 17474107597040716043
14767858 380 18270382963651519789
14787075 74 18273490165994303581
14790565 3 18339365158456701193
15042514 8 18192155013069072987
15131766 46 15938398090007649516
15196674 1 18410574002394623846
15927050 60 18410573968173282787
18608769 82 18339644546791222339
19591789 44 18265895752701517279
20775438 99 16114820378752081943
21033648 144 18337658828359208908
21033648 29 18342449361486739832
21065198 57 18339642356078092416
21133410 171 17116854657350045702
21236236 1 18341331188700607855
21267235 1 18410019839891594618
21279426 13 18341618070898602774
21421861 104 17823122455416042034
21859007 373 17752183025664059452
22182313 1 18197523824841130695
23227448 37 18412262869376728590
23402539 116 18342451564741152101
23558518 356 17899699247795670024
23559900 14 18272090453601724174
25147074 1 18264188301343799338
293599 30 18410576167000131752
3004659 81 18336267852250952758
335352 9 18410856530334804086
34934 24 18408037416422125026
350125 39 18410858793387020809
3545911 37 18411983559517462236
3680242 22 18263923246527734482
4073 2 18115029723131396218
4214541 1 18410855494978627492
495365 180 17346585405553927152
5104073 3 18335415816243010792
5171179 24 17557129907682761401
59755656 215 18341055121198226702
59755656 520 18335697239036859942
6138700 20 18195249910689127142
633830 44 18128253389926610285
7226269 152 18131634469464913104
7808743 9 18410007766775520560
9709674 26 18342745147832453118
9981440 41 18335143072787678339

>  <PUBCHEM_SHAPE_MULTIPOLES>  (1) 
493.91
12.11
3.17
0.62
6.86
1.77
0
-7.33
0
-2.26
0
0
0
0

>  <PUBCHEM_SHAPE_SELFOVERLAP>  (1) 
1170.906

>  <PUBCHEM_SHAPE_VOLUME>  (1) 
226.6

>  <PUBCHEM_COORDINATE_TYPE>  (1) 
2
5
10

$$$$
