43262
     RDKit          3D

 21 22  0  0  1  0  0  0  0  0999 V2000
   -1.3397    0.6585   -1.0758 O   0  0  0  0  0  0  0  0  0  0  0  0
   -2.5104   -1.2361    0.9622 O   0  0  0  0  0  0  0  0  0  0  0  0
   -2.5013   -1.4032   -1.3813 O   0  0  0  0  0  0  0  0  0  0  0  0
    0.8828    0.0744    0.8928 O   0  0  0  0  0  0  0  0  0  0  0  0
   -0.0778    3.0333    1.4045 O   0  0  0  0  0  0  0  0  0  0  0  0
   -0.2280    4.7191   -0.8223 O   0  0  0  0  0  0  0  0  0  0  0  0
    4.6946   -1.1976   -0.4494 N   0  0  0  0  0  0  0  0  0  0  0  0
   -1.1640   -1.1022    0.5082 C   0  0  0  0  0  0  0  0  0  0  0  0
   -0.5237    0.1344    1.0874 C   0  0  0  0  0  0  0  0  0  0  0  0
   -1.1451    1.2343    0.2303 C   0  0  0  0  0  0  0  0  0  0  0  0
   -1.2971   -0.7736   -0.9593 C   0  0  0  0  0  0  0  0  0  0  0  0
   -3.2639   -1.6320   -0.1902 C   0  0  0  0  0  0  0  0  0  0  0  0
   -0.3234    2.5039    0.1013 C   0  0  0  0  0  0  0  0  0  0  0  0
   -3.5770   -3.1208   -0.0940 C   0  0  0  0  0  0  0  0  0  0  0  0
   -4.5402   -0.8037   -0.2479 C   0  0  0  0  0  0  0  0  0  0  0  0
   -1.0551    3.5656   -0.7122 C   0  0  0  0  0  0  0  0  0  0  0  0
    1.4492   -1.0644    1.5271 C   0  0  0  0  0  0  0  0  0  0  0  0
    2.9489   -1.0797    1.2635 C   0  0  0  0  0  0  0  0  0  0  0  0
    3.2540   -1.1633   -0.2287 C   0  0  0  0  0  0  0  0  0  0  0  0
    4.9945   -1.3715   -1.8718 C   0  0  0  0  0  0  0  0  0  0  0  0
    5.3230    0.0245    0.0557 C   0  0  0  0  0  0  0  0  0  0  0  0
  1 10  1  0
  1 11  1  0
  2  8  1  0
  2 12  1  0
  3 11  1  0
  3 12  1  0
  4  9  1  0
  4 17  1  0
  5 13  1  0
  6 16  1  0
  7 19  1  0
  7 20  1  0
  7 21  1  0
  8  9  1  0
  8 11  1  0
  9 10  1  0
 10 13  1  0
 12 14  1  0
 12 15  1  0
 13 16  1  0
 17 18  1  0
 18 19  1  0
M  END
>  <PUBCHEM_COMPOUND_CID>  (1) 
43262

>  <PUBCHEM_CONFORMER_RMSD>  (1) 
0.8

>  <PUBCHEM_CONFORMER_DIVERSEORDER>  (1) 
8
76
68
41
83
104
17
123
78
39
65
121
93
21
87
105
118
18
49
27
113
91
53
16
19
77
94
82
36
1
115
84
109
7
13
79
37
120
28
116
57
38
15
89
26
12
62
44
95
101
96
98
67
66
112
24
11
60
80
85
63
69
6
111
75
14
43
122
45
70
81
107
59
54
55
86
88
46
9
20
117
33
114
72
47
92
48
34
40
119
110
4
51
97
25
102
29
30
2
32
42
31
5
52
103
23
35
3
108
74
22
58
56
90
99
71
10
50
64
100
61
106
73

>  <PUBCHEM_MMFF94_PARTIAL_CHARGES>  (1) 
20
1 -0.56
10 0.28
11 0.56
12 0.56
13 0.28
16 0.28
17 0.28
19 0.27
2 -0.56
20 0.27
21 0.27
3 -0.56
37 0.4
4 -0.56
42 0.4
5 -0.68
6 -0.68
7 -0.81
8 0.28
9 0.28

>  <PUBCHEM_EFFECTIVE_ROTOR_COUNT>  (1) 
8.2

>  <PUBCHEM_PHARMACOPHORE_FEATURES>  (1) 
12
1 1 acceptor
1 2 acceptor
1 3 acceptor
1 4 acceptor
1 5 acceptor
1 5 donor
1 6 acceptor
1 6 donor
1 7 cation
3 12 14 15 hydrophobe
5 1 8 9 10 11 rings
5 2 3 8 11 12 rings

>  <PUBCHEM_HEAVY_ATOM_COUNT>  (1) 
21

>  <PUBCHEM_ATOM_DEF_STEREO_COUNT>  (1) 
4

>  <PUBCHEM_ATOM_UDEF_STEREO_COUNT>  (1) 
1

>  <PUBCHEM_BOND_DEF_STEREO_COUNT>  (1) 
0

>  <PUBCHEM_BOND_UDEF_STEREO_COUNT>  (1) 
0

>  <PUBCHEM_ISOTOPIC_ATOM_COUNT>  (1) 
0

>  <PUBCHEM_COMPONENT_COUNT>  (1) 
1

>  <PUBCHEM_CACTVS_TAUTO_COUNT>  (1) 
1

>  <PUBCHEM_CONFORMER_ID>  (1) 
0000A8FE00000008

>  <PUBCHEM_MMFF94_ENERGY>  (1) 
59.9566

>  <PUBCHEM_FEATURE_SELFOVERLAP>  (1) 
61.645

>  <PUBCHEM_SHAPE_FINGERPRINT>  (1) 
10764073 3 15837932151897048387
11045515 52 18260265278220498588
12160290 23 17911774917604934817
12173636 292 18117839898083196254
12553582 1 18337095839566387371
12633257 1 14404912447900369043
12714826 92 18131062689338214874
12788726 201 18188768332101982787
13009979 54 18058741328969467267
13681431 1 18194675093244818081
14178000 29 18199183065312725015
14251757 5 18335979770965603639
14347332 77 18337389315045869050
14790565 3 17906449931384662673
14955137 171 18264229035351555803
15475509 8 18343301432149183031
15842332 3 17606393251408950418
17134986 127 17183338422664722548
1813 80 18270964651624470079
19765921 60 10953724617472744843
20600515 1 18270980006443426229
20645476 183 17615678545089384120
21421566 26 18343019978214720884
21524375 3 17323511895820021968
22620623 9 18200865167515103197
22849341 161 18270137802343773899
22907989 373 18197492926867008636
23352939 185 18271811262861683296
235170 7 18131358467125616782
23557571 272 18343013377119044664
23558518 356 17611734614266825195
23559900 14 18125146389500717891
23566358 27 17761772167175425567
238078 22 18334296504199496771
2748010 2 18050529046071657017
3057174 1 17258484553254619965
4340502 62 8646496258315756235
532947 4 17903641022809547160
6049 1 17845640474790009722
621550 5 17917434241581864850
6786 2 17192938292877813977
68521 5 18409164372769388705
7164475 11 18191014621873800610
7364860 26 17907006627964914635
7399639 24 18130494319694916890
7615 1 17605825924973447250
81228 2 18267850714693870601
84936 31 17624400270610554145

>  <PUBCHEM_SHAPE_MULTIPOLES>  (1) 
391.97
8.57
4.11
1.42
10.53
6.49
-0.05
-7.81
-2.84
-2.82
-0.83
0.89
-0.18
0.37

>  <PUBCHEM_SHAPE_SELFOVERLAP>  (1) 
791.367

>  <PUBCHEM_SHAPE_VOLUME>  (1) 
232.1

>  <PUBCHEM_COORDINATE_TYPE>  (1) 
2
5
10

$$$$
