43268
     RDKit          3D

 16 17  0  0  0  0  0  0  0  0999 V2000
    3.2398   -2.3159    0.0399 Cl  0  0  0  0  0  0  0  0  0  0  0  0
    1.8565    2.9491   -0.3689 Cl  0  0  0  0  0  0  0  0  0  0  0  0
   -2.0528   -1.8952   -0.4545 O   0  0  0  0  0  0  0  0  0  0  0  0
   -2.5694    0.1718    0.4564 N   0  0  0  0  0  0  0  0  0  0  0  0
    3.7994    0.6426   -0.2010 N   0  0  0  0  0  0  0  0  0  0  0  0
   -3.9878   -0.0411    0.5378 C   0  0  0  0  0  0  0  0  0  0  0  0
   -4.9338    1.1147    0.5499 C   0  0  0  0  0  0  0  0  0  0  0  0
   -4.8648    0.2096   -0.6450 C   0  0  0  0  0  0  0  0  0  0  0  0
   -1.6758   -0.7837   -0.0427 C   0  0  0  0  0  0  0  0  0  0  0  0
   -0.2689   -0.4171   -0.0829 C   0  0  0  0  0  0  0  0  0  0  0  0
    0.0997    0.9236   -0.1926 C   0  0  0  0  0  0  0  0  0  0  0  0
    0.7120   -1.4064   -0.0122 C   0  0  0  0  0  0  0  0  0  0  0  0
    2.4298    0.2858   -0.1610 C   0  0  0  0  0  0  0  0  0  0  0  0
    2.0612   -1.0550   -0.0513 C   0  0  0  0  0  0  0  0  0  0  0  0
    1.4490    1.2752   -0.2316 C   0  0  0  0  0  0  0  0  0  0  0  0
    4.7059    0.3420    0.8596 C   0  0  0  0  0  0  0  0  0  0  0  0
  1 14  1  0
  2 15  1  0
  3  9  2  0
  4  6  1  0
  4  9  1  0
  5 13  1  0
  5 16  1  0
  6  7  1  0
  6  8  1  0
  7  8  1  0
  9 10  1  0
 10 11  2  0
 10 12  1  0
 11 15  1  0
 12 14  2  0
 13 14  1  0
 13 15  2  0
M  END
>  <PUBCHEM_COMPOUND_CID>  (1) 
43268

>  <PUBCHEM_CONFORMER_RMSD>  (1) 
0.6

>  <PUBCHEM_CONFORMER_DIVERSEORDER>  (1) 
1
5
6
2
3
4
7

>  <PUBCHEM_MMFF94_PARTIAL_CHARGES>  (1) 
25
1 -0.18
10 0.09
11 -0.15
12 -0.15
13 0.1
14 0.18
15 0.18
16 0.37
17 0.1
18 0.1
19 0.1
2 -0.18
20 0.1
21 0.1
22 0.37
23 0.15
24 0.15
25 0.4
3 -0.57
4 -0.58
5 -0.87
6 0.05
7 -0.2
8 -0.2
9 0.54

>  <PUBCHEM_EFFECTIVE_ROTOR_COUNT>  (1) 
4.6

>  <PUBCHEM_PHARMACOPHORE_FEATURES>  (1) 
5
1 3 acceptor
1 4 donor
1 5 cation
1 5 donor
6 10 11 12 13 14 15 rings

>  <PUBCHEM_HEAVY_ATOM_COUNT>  (1) 
16

>  <PUBCHEM_ATOM_DEF_STEREO_COUNT>  (1) 
0

>  <PUBCHEM_ATOM_UDEF_STEREO_COUNT>  (1) 
0

>  <PUBCHEM_BOND_DEF_STEREO_COUNT>  (1) 
0

>  <PUBCHEM_BOND_UDEF_STEREO_COUNT>  (1) 
0

>  <PUBCHEM_ISOTOPIC_ATOM_COUNT>  (1) 
0

>  <PUBCHEM_COMPONENT_COUNT>  (1) 
1

>  <PUBCHEM_CACTVS_TAUTO_COUNT>  (1) 
3

>  <PUBCHEM_CONFORMER_ID>  (1) 
0000A90400000001

>  <PUBCHEM_MMFF94_ENERGY>  (1) 
57.9905

>  <PUBCHEM_FEATURE_SELFOVERLAP>  (1) 
25.371

>  <PUBCHEM_SHAPE_FINGERPRINT>  (1) 
11089746 13 17632287991266895376
11471102 20 18408885118174745095
12236239 1 17917990560437908031
12251169 10 18410292527370453429
12346645 6 18342741797462381118
12507557 5 18409168831372898489
13140716 1 18192709166770865760
13675066 3 18186805785556230507
13922767 16 18410012160537795529
14178342 30 18196635496850075690
14790565 3 18191877923238439796
14897335 6 18342458162148697439
15196674 1 18339081480477837001
15442244 35 18339928095535224433
15536298 74 18343304734457073286
1601671 61 18409168818345565188
16945 1 18336828697179769214
18186145 218 18341057337369637631
20645477 70 18339081488767526607
21267235 1 18338807702019470574
21421861 104 17823125732064463330
21501502 16 18192993952718741318
22182313 1 18190729844072143996
23402539 116 17917988369857225317
23402655 69 18272649013871455893
23559900 14 18131072628003333342
2748010 2 18265606577439184892
335352 9 18410293623204247364
34934 24 18413102875139180846
351380 180 18335137575466662245
3545911 37 18413392050907837747
4072396 5 18336252484362043802
474 4 18336265738188137393
5104073 3 18263363749242696713
57005193 9 18413103965765299595
69090 78 18341891888001423847
7364860 26 18412547626109438180
7832392 63 18341331183835707526
84936 182 17984139532906169729
9971528 1 18341613677004400028
9981440 41 17545876495950777152

>  <PUBCHEM_SHAPE_MULTIPOLES>  (1) 
317.18
9.42
2.3
0.76
8.16
0.63
-0.04
1.04
-1.42
-2.05
0.3
0.09
0.06
-0.31

>  <PUBCHEM_SHAPE_SELFOVERLAP>  (1) 
644.195

>  <PUBCHEM_SHAPE_VOLUME>  (1) 
187.7

>  <PUBCHEM_COORDINATE_TYPE>  (1) 
2
5
10

$$$$
