4326
     RDKit          3D

 34 35  0  0  1  0  0  0  0  0999 V2000
    2.7685   -0.9329    1.1486 S   0  0  0  0  0  0  0  0  0  0  0  0
    3.2068   -1.4157    2.4450 O   0  0  0  0  0  0  0  0  0  0  0  0
    3.3242   -1.4903   -0.0706 O   0  0  0  0  0  0  0  0  0  0  0  0
    4.4916    2.8846   -0.4619 O   0  0  0  0  0  0  0  0  0  0  0  0
   -3.8232   -2.0912    1.8480 O   0  0  0  0  0  0  0  0  0  0  0  0
    7.3470   -1.4033    0.0504 O   0  0  0  0  0  0  0  0  0  0  0  0
    6.1188   -1.8814   -1.7984 O   0  0  0  0  0  0  0  0  0  0  0  0
   -6.8236   -1.7315   -2.1864 O   0  0  0  0  0  0  0  0  0  0  0  0
   -4.6551   -1.4650   -2.8004 O   0  0  0  0  0  0  0  0  0  0  0  0
   -6.0514    3.7192   -0.6809 O   0  0  0  0  0  0  0  0  0  0  0  0
   -7.1841    2.5353    0.8886 O   0  0  0  0  0  0  0  0  0  0  0  0
    2.8936    0.7626    1.1024 N   0  0  0  0  0  0  0  0  0  0  0  0
    4.4600    0.8394   -1.5734 N   0  0  0  0  0  0  0  0  0  0  0  0
   -3.8426   -1.1255   -0.2600 N   0  0  0  0  0  0  0  0  0  0  0  0
    2.6116    1.4494   -0.1885 C   0  0  0  0  0  0  0  0  0  0  0  0
    1.7724    2.6716    0.1676 C   0  0  0  0  0  0  0  0  0  0  0  0
    2.1014    2.9312    1.6282 C   0  0  0  0  0  0  0  0  0  0  0  0
    2.2335    1.5277    2.1955 C   0  0  0  0  0  0  0  0  0  0  0  0
    3.9504    1.8165   -0.7356 C   0  0  0  0  0  0  0  0  0  0  0  0
    1.0133   -1.1263    1.0747 C   0  0  0  0  0  0  0  0  0  0  0  0
    0.3755   -1.2383   -0.1608 C   0  0  0  0  0  0  0  0  0  0  0  0
    0.2657   -1.1657    2.2517 C   0  0  0  0  0  0  0  0  0  0  0  0
    5.7315    0.9621   -2.2491 C   0  0  0  0  0  0  0  0  0  0  0  0
   -1.0099   -1.3897   -0.2193 C   0  0  0  0  0  0  0  0  0  0  0  0
   -1.1196   -1.3170    2.1932 C   0  0  0  0  0  0  0  0  0  0  0  0
   -1.7575   -1.4290    0.9577 C   0  0  0  0  0  0  0  0  0  0  0  0
    6.8781    0.4029   -1.4169 C   0  0  0  0  0  0  0  0  0  0  0  0
   -3.2018   -1.5862    0.8961 C   0  0  0  0  0  0  0  0  0  0  0  0
   -5.2724   -1.1897   -0.4606 C   0  0  0  0  0  0  0  0  0  0  0  0
   -6.0015    0.0493    0.0733 C   0  0  0  0  0  0  0  0  0  0  0  0
    6.7205   -1.0703   -1.1086 C   0  0  0  0  0  0  0  0  0  0  0  0
   -5.6335    1.3806   -0.5943 C   0  0  0  0  0  0  0  0  0  0  0  0
   -5.5175   -1.4568   -1.9314 C   0  0  0  0  0  0  0  0  0  0  0  0
   -6.3705    2.5732   -0.0239 C   0  0  0  0  0  0  0  0  0  0  0  0
  1  2  2  0
  1  3  2  0
  1 12  1  0
  1 20  1  0
  4 19  2  0
  5 28  2  0
  6 31  1  0
  7 31  2  0
  8 33  1  0
  9 33  2  0
 10 34  1  0
 11 34  2  0
 12 15  1  0
 12 18  1  0
 13 19  1  0
 13 23  1  0
 14 28  1  0
 14 29  1  0
 15 16  1  0
 15 19  1  0
 16 17  1  0
 17 18  1  0
 20 21  2  0
 20 22  1  0
 21 24  1  0
 22 25  2  0
 23 27  1  0
 24 26  2  0
 25 26  1  0
 26 28  1  0
 27 31  1  0
 29 30  1  0
 29 33  1  0
 30 32  1  0
 32 34  1  0
M  END
>  <PUBCHEM_COMPOUND_CID>  (1) 
4326

>  <PUBCHEM_CONFORMER_RMSD>  (1) 
1.2

>  <PUBCHEM_CONFORMER_DIVERSEORDER>  (1) 
5
147
73
55
80
91
49
172
155
154
117
83
166
124
174
22
31
160
21
13
118
98
61
94
85
164
134
38
181
84
15
69
131
140
63
177
97
127
136
185
105
173
70
58
153
107
125
9
144
189
156
168
6
81
90
39
158
148
143
195
137
151
141
20
114
183
175
135
188
157
54
119
184
193
59
121
194
96
112
33
176
190
50
23
32
187
149
79
111
99
3
93
24
116
71
34
146
150
101
88
12
103
162
7
74
113
4
132
191
152
26
29
123
1
128
133
130
75
126
179
52
145
108
178
43
77
14
92
163
106
60
186
53
17
142
44
2
46
180
64
51
25
67
16
182
36
18
165
11
102
170
159
87
100
27
89
57
78
42
139
120
95
28
48
192
40
30
167
35
171
65
62
161
129
37
109
115
169
68
104
122
56
41
47
66
19
110
8
45
82
138
72
76
10
86

>  <PUBCHEM_MMFF94_PARTIAL_CHARGES>  (1) 
40
1 1.45
10 -0.65
11 -0.57
12 -0.85
13 -0.73
14 -0.73
15 0.42
18 0.36
19 0.57
2 -0.65
20 -0.01
21 -0.15
22 -0.15
23 0.3
24 -0.15
25 -0.15
26 0.09
27 0.06
28 0.54
29 0.36
3 -0.65
31 0.66
32 0.06
33 0.66
34 0.66
4 -0.57
42 0.37
43 0.15
44 0.15
47 0.15
48 0.15
5 -0.57
54 0.37
57 0.5
58 0.5
59 0.5
6 -0.65
7 -0.57
8 -0.65
9 -0.57

>  <PUBCHEM_EFFECTIVE_ROTOR_COUNT>  (1) 
15

>  <PUBCHEM_PHARMACOPHORE_FEATURES>  (1) 
17
1 10 acceptor
1 11 acceptor
1 13 donor
1 14 donor
1 2 acceptor
1 3 acceptor
1 4 acceptor
1 5 acceptor
1 6 acceptor
1 7 acceptor
1 8 acceptor
1 9 acceptor
3 10 11 34 anion
3 6 7 31 anion
3 8 9 33 anion
5 12 15 16 17 18 rings
6 20 21 22 24 25 26 rings

>  <PUBCHEM_HEAVY_ATOM_COUNT>  (1) 
34

>  <PUBCHEM_ATOM_DEF_STEREO_COUNT>  (1) 
0

>  <PUBCHEM_ATOM_UDEF_STEREO_COUNT>  (1) 
2

>  <PUBCHEM_BOND_DEF_STEREO_COUNT>  (1) 
0

>  <PUBCHEM_BOND_UDEF_STEREO_COUNT>  (1) 
0

>  <PUBCHEM_ISOTOPIC_ATOM_COUNT>  (1) 
0

>  <PUBCHEM_COMPONENT_COUNT>  (1) 
1

>  <PUBCHEM_CACTVS_TAUTO_COUNT>  (1) 
4

>  <PUBCHEM_CONFORMER_ID>  (1) 
000010E600000005

>  <PUBCHEM_MMFF94_ENERGY>  (1) 
54.7752

>  <PUBCHEM_FEATURE_SELFOVERLAP>  (1) 
86.477

>  <PUBCHEM_SHAPE_FINGERPRINT>  (1) 
10 15 14851601094758282655
10670039 82 18259983786475550893
11720765 8 18340493369852676944
1200032 147 17023192599742525992
12166972 35 17418093260478093674
12373685 5 9367347033794867971
13627167 48 17894623726249873461
13761468 95 18129111035447295385
13782708 43 13614530649162254142
14068700 675 17060346227696105994
15064981 194 18187640345854254087
15183329 4 18271820042175489766
15238133 3 18260540143733047632
19377110 9 12107783038303417643
21223535 225 18335137553569846085
21458453 9 9583228414629316668
23559900 14 17967531315468976866
249057 25 18189874514468285539
2838139 119 18408606984951609605
38570 142 17748832907890501753
397830 11 8935008044481612114
4058900 60 17385725806946080706
4340502 62 8286203851340698970
437795 51 12685104695737548654
4394409 98 16917072144166194423
504579 68 18336537275232920431
508180 173 18343025497000394057
513532 50 17845362414149080736
6086070 43 17989205949485017033
9689198 14 14634871963818155726

>  <PUBCHEM_SHAPE_MULTIPOLES>  (1) 
629.92
20.28
3.43
2.44
8.35
3.09
0.11
3.98
13.26
2.63
-0.39
-0.37
-0.88
-0.82

>  <PUBCHEM_SHAPE_SELFOVERLAP>  (1) 
1294.119

>  <PUBCHEM_SHAPE_VOLUME>  (1) 
360.7

>  <PUBCHEM_COORDINATE_TYPE>  (1) 
2
5
10

$$$$
