43263
     RDKit          3D

 11 10  0  0  1  0  0  0  0  0999 V2000
   -0.2342   -0.1779    0.0062 O   0  0  0  0  0  0  0  0  0  0  0  0
    1.2467    1.0931    1.2369 O   0  0  0  0  0  0  0  0  0  0  0  0
   -1.2306    0.8409    0.0043 C   0  0  0  0  0  0  0  0  0  0  0  0
   -2.5679    0.2680   -0.4761 C   0  0  0  0  0  0  0  0  0  0  0  0
   -3.0741   -0.8541    0.4344 C   0  0  0  0  0  0  0  0  0  0  0  0
   -0.7598    1.9829   -0.8862 C   0  0  0  0  0  0  0  0  0  0  0  0
    2.0521   -0.6322   -0.2765 C   0  0  0  0  0  0  0  0  0  0  0  0
   -4.4217   -1.3825   -0.0317 C   0  0  0  0  0  0  0  0  0  0  0  0
    1.0102    0.2088    0.4253 C   0  0  0  0  0  0  0  0  0  0  0  0
    3.4710   -0.2369    0.1250 C   0  0  0  0  0  0  0  0  0  0  0  0
    4.5083   -1.1101   -0.5617 C   0  0  0  0  0  0  0  0  0  0  0  0
  1  3  1  0
  1  9  1  0
  2  9  2  0
  3  4  1  0
  3  6  1  0
  4  5  1  0
  5  8  1  0
  7  9  1  0
  7 10  1  0
 10 11  1  0
M  END
>  <PUBCHEM_COMPOUND_CID>  (1) 
43263

>  <PUBCHEM_CONFORMER_RMSD>  (1) 
0.6

>  <PUBCHEM_CONFORMER_DIVERSEORDER>  (1) 
1
240
36
345
93
283
70
318
307
304
310
235
303
173
249
336
219
151
360
91
333
326
39
175
277
257
364
251
22
141
334
314
266
256
287
47
222
42
24
365
289
230
54
276
96
344
313
152
57
2
213
288
206
352
315
280
131
355
218
85
51
239
234
10
9
190
244
127
104
312
110
339
147
320
238
76
28
275
210
324
279
102
108
343
356
270
225
120
273
138
311
164
278
90
78
171
115
263
349
281
67
197
188
150
155
204
109
44
69
261
267
18
350
215
258
329
158
366
220
342
119
229
250
179
60
114
38
61
116
331
274
367
12
82
166
118
192
295
94
25
301
196
137
316
48
144
191
319
305
8
253
146
363
207
105
41
84
201
200
63
347
202
52
351
216
88
309
211
290
174
223
11
178
40
291
341
298
135
154
286
265
101
3
338
14
79
208
348
49
358
293
182
362
199
354
56
6
132
297
107
148
332
237
136
23
330
231
247
100
30
74
29
308
268
80
50
361
185
72
170
43
359
189
236
321
121
86
262
55
16
26
272
165
245
134
89
269
252
264
139
103
87
99
59
95
75
19
337
37
106
212
167
353
113
255
77
62
198
203
299
97
248
183
7
285
177
187
33
195
133
224
323
205
282
73
126
123
117
160
271
284
53
254
140
112
186
317
145
357
193
142
325
13
31
92
68
306
34
169
111
71
233
246
81
242
149
128
46
27
180
143
65
184
125
221
243
296
17
161
45
346
35
172
259
181
322
157
163
214
66
217
58
5
83
122
156
129
302
335
15
21
162
4
292
130
20
32
153
340
294
226
194
209
159
232
228
227
64
260
176
124
300
98
168
328
241
327

>  <PUBCHEM_MMFF94_PARTIAL_CHARGES>  (1) 
5
1 -0.43
2 -0.57
3 0.28
7 0.06
9 0.66

>  <PUBCHEM_EFFECTIVE_ROTOR_COUNT>  (1) 
6

>  <PUBCHEM_PHARMACOPHORE_FEATURES>  (1) 
3
1 11 hydrophobe
1 2 acceptor
1 8 hydrophobe

>  <PUBCHEM_HEAVY_ATOM_COUNT>  (1) 
11

>  <PUBCHEM_ATOM_DEF_STEREO_COUNT>  (1) 
0

>  <PUBCHEM_ATOM_UDEF_STEREO_COUNT>  (1) 
1

>  <PUBCHEM_BOND_DEF_STEREO_COUNT>  (1) 
0

>  <PUBCHEM_BOND_UDEF_STEREO_COUNT>  (1) 
0

>  <PUBCHEM_ISOTOPIC_ATOM_COUNT>  (1) 
0

>  <PUBCHEM_COMPONENT_COUNT>  (1) 
1

>  <PUBCHEM_CACTVS_TAUTO_COUNT>  (1) 
1

>  <PUBCHEM_CONFORMER_ID>  (1) 
0000A8FF00000001

>  <PUBCHEM_MMFF94_ENERGY>  (1) 
7.8389

>  <PUBCHEM_FEATURE_SELFOVERLAP>  (1) 
15.223

>  <PUBCHEM_SHAPE_FINGERPRINT>  (1) 
11062470 55 8070027765816640098
12032990 46 18412263943129179666
14993402 34 16370446661241250510
20281407 28 18411136913640722050
20281475 54 18411139091321094378
20645464 45 9727628432019789493
20711985 344 18041547036921601565
20724930 31 18272089413633842154
20871999 31 17822284670188428949
21061003 4 17561076982290220400
21119208 17 15646770106798824927
21293036 1 16805604784665245803
22485316 2 18411416206911300179
23402539 116 17894628124122154886
23402655 69 12901814035241639099
23557571 272 18337395920362185692
366044 4 10375871870595147861
83771 10 18412265055836945675

>  <PUBCHEM_SHAPE_MULTIPOLES>  (1) 
214.64
7.93
1.56
0.87
1.63
0.5
0.08
-5.29
-0.96
-0.8
-0.26
0.19
0.19
0.58

>  <PUBCHEM_SHAPE_SELFOVERLAP>  (1) 
392.296

>  <PUBCHEM_SHAPE_VOLUME>  (1) 
137.4

>  <PUBCHEM_COORDINATE_TYPE>  (1) 
2
5
10

$$$$
