43264
     RDKit          3D

 22 23  0  0  0  0  0  0  0  0999 V2000
   -0.9299    1.7283   -0.3926 O   0  0  0  0  0  0  0  0  0  0  0  0
   -3.6626    1.4311   -0.4052 O   0  0  0  0  0  0  0  0  0  0  0  0
   -4.7927   -1.0044    0.2693 O   0  0  0  0  0  0  0  0  0  0  0  0
    5.1047   -0.2505   -1.1247 O   0  0  0  0  0  0  0  0  0  0  0  0
    4.6616    1.5046    0.9226 O   0  0  0  0  0  0  0  0  0  0  0  0
   -0.6721   -0.5560    0.2866 C   0  0  0  0  0  0  0  0  0  0  0  0
   -1.4787    0.5238   -0.0589 C   0  0  0  0  0  0  0  0  0  0  0  0
    0.8048   -0.4284    0.3026 C   0  0  0  0  0  0  0  0  0  0  0  0
   -2.8657    0.3777   -0.0660 C   0  0  0  0  0  0  0  0  0  0  0  0
   -1.2392   -1.7809    0.6252 C   0  0  0  0  0  0  0  0  0  0  0  0
   -3.4395   -0.8478    0.2724 C   0  0  0  0  0  0  0  0  0  0  0  0
   -2.6263   -1.9272    0.6181 C   0  0  0  0  0  0  0  0  0  0  0  0
    1.4186   -0.7480   -0.8493 C   0  0  0  0  0  0  0  0  0  0  0  0
    1.4733   -0.0127    1.5184 C   0  0  0  0  0  0  0  0  0  0  0  0
    2.8268   -0.7661   -1.1492 C   0  0  0  0  0  0  0  0  0  0  0  0
    2.7020    0.4840    1.6841 C   0  0  0  0  0  0  0  0  0  0  0  0
    3.8445   -0.1399   -0.5492 C   0  0  0  0  0  0  0  0  0  0  0  0
    3.7690    0.6916    0.6807 C   0  0  0  0  0  0  0  0  0  0  0  0
   -1.2141    2.2279   -1.6965 C   0  0  0  0  0  0  0  0  0  0  0  0
   -4.0860    2.2884    0.6522 C   0  0  0  0  0  0  0  0  0  0  0  0
   -5.3925   -1.4361   -0.9506 C   0  0  0  0  0  0  0  0  0  0  0  0
    5.7939   -1.3594   -0.5902 C   0  0  0  0  0  0  0  0  0  0  0  0
  1  7  1  0
  1 19  1  0
  2  9  1  0
  2 20  1  0
  3 11  1  0
  3 21  1  0
  4 17  1  0
  4 22  1  0
  5 18  2  0
  6  7  2  0
  6  8  1  0
  6 10  1  0
  7  9  1  0
  8 13  2  0
  8 14  1  0
  9 11  2  0
 10 12  2  0
 11 12  1  0
 13 15  1  0
 14 16  2  0
 15 17  2  0
 16 18  1  0
 17 18  1  0
M  END
>  <PUBCHEM_COMPOUND_CID>  (1) 
43264

>  <PUBCHEM_CONFORMER_RMSD>  (1) 
0.8

>  <PUBCHEM_CONFORMER_DIVERSEORDER>  (1) 
1
12
9
8
11
7
3
10
2
5
6
4

>  <PUBCHEM_MMFF94_PARTIAL_CHARGES>  (1) 
28
1 -0.36
10 -0.15
11 0.08
12 -0.15
13 -0.15
14 -0.15
15 -0.15
16 -0.14
17 0.09
18 0.54
19 0.28
2 -0.36
20 0.28
21 0.28
22 0.28
23 0.15
24 0.15
25 0.15
26 0.15
27 0.15
28 0.15
3 -0.36
4 -0.36
5 -0.57
6 0.03
7 0.08
8 -0.03
9 0.08

>  <PUBCHEM_EFFECTIVE_ROTOR_COUNT>  (1) 
5

>  <PUBCHEM_PHARMACOPHORE_FEATURES>  (1) 
7
1 1 acceptor
1 2 acceptor
1 3 acceptor
1 4 acceptor
1 5 acceptor
6 6 7 9 10 11 12 rings
7 8 13 14 15 16 17 18 rings

>  <PUBCHEM_HEAVY_ATOM_COUNT>  (1) 
22

>  <PUBCHEM_ATOM_DEF_STEREO_COUNT>  (1) 
0

>  <PUBCHEM_ATOM_UDEF_STEREO_COUNT>  (1) 
0

>  <PUBCHEM_BOND_DEF_STEREO_COUNT>  (1) 
0

>  <PUBCHEM_BOND_UDEF_STEREO_COUNT>  (1) 
0

>  <PUBCHEM_ISOTOPIC_ATOM_COUNT>  (1) 
0

>  <PUBCHEM_COMPONENT_COUNT>  (1) 
1

>  <PUBCHEM_CACTVS_TAUTO_COUNT>  (1) 
1

>  <PUBCHEM_CONFORMER_ID>  (1) 
0000A90000000001

>  <PUBCHEM_MMFF94_ENERGY>  (1) 
113.477

>  <PUBCHEM_FEATURE_SELFOVERLAP>  (1) 
35.539

>  <PUBCHEM_SHAPE_FINGERPRINT>  (1) 
10369192 42 17912069862385881624
10498660 4 18187919543516966653
10670039 82 17895193273246407966
11315181 36 17676779751002410702
11595378 159 17313663750458327732
12236239 1 16877659084537364226
12390115 104 18341057298952744393
12403259 415 18202002136022146504
12592029 89 13901641760898961223
12670546 56 18113890555406035234
13782708 43 18202569479479906678
14573314 32 18343864419971287274
15183329 4 17749112145981139218
15219456 202 18202563990568996754
15788980 27 17561361764660696270
15961568 22 18042686290135495452
17844677 252 18201725058749367536
18222031 100 18334850671266037791
200 152 16487258750880235178
20645477 70 17203336615413695966
21033648 29 17989197157591756872
21065201 7 18335699459941205426
21267235 1 18187939399419755875
23175994 123 17632867429346461216
23402539 116 18334297539238661806
23557571 272 18411146826509520446
23559900 14 18338240367125850030
3286 77 17632861948962929442
350125 39 17756144484121617633
465052 167 14692009249687072367
474 4 16371866221463897052
5104073 3 18408887295812920194
5281201 14 18131072653646497688
7495541 125 17846500374144696482
77492 1 16950279624291658106

>  <PUBCHEM_SHAPE_MULTIPOLES>  (1) 
423.4
11.38
2.07
1.34
4.67
0.67
0.02
-1.77
-1.63
-2.11
-0.18
0.76
0.27
0.84

>  <PUBCHEM_SHAPE_SELFOVERLAP>  (1) 
898.201

>  <PUBCHEM_SHAPE_VOLUME>  (1) 
236

>  <PUBCHEM_COORDINATE_TYPE>  (1) 
2
5
10

$$$$
