43260
     RDKit          3D

 14 14  0  0  1  0  0  0  0  0999 V2000
    1.9848    0.9801   -1.5313 O   0  0  0  0  0  0  0  0  0  0  0  0
    1.6466   -1.5719   -0.0659 O   0  0  0  0  0  0  0  0  0  0  0  0
   -3.4697    0.4736    0.1187 O   0  0  0  0  0  0  0  0  0  0  0  0
    3.4623    2.0631    0.6928 N   0  0  0  0  0  0  0  0  0  0  0  0
    1.3286    1.2583   -0.2877 C   0  0  0  0  0  0  0  0  0  0  0  0
    0.1776    0.3215   -0.1251 C   0  0  0  0  0  0  0  0  0  0  0  0
    2.3444    1.1382    0.8651 C   0  0  0  0  0  0  0  0  0  0  0  0
    0.3873   -1.0537   -0.0212 C   0  0  0  0  0  0  0  0  0  0  0  0
   -1.1186    0.8348   -0.0783 C   0  0  0  0  0  0  0  0  0  0  0  0
   -2.2050   -0.0271    0.0725 C   0  0  0  0  0  0  0  0  0  0  0  0
   -0.6993   -1.9154    0.1297 C   0  0  0  0  0  0  0  0  0  0  0  0
   -1.9954   -1.4021    0.1764 C   0  0  0  0  0  0  0  0  0  0  0  0
    1.7689   -2.9883    0.0477 C   0  0  0  0  0  0  0  0  0  0  0  0
   -3.6124    1.8889    0.0066 C   0  0  0  0  0  0  0  0  0  0  0  0
  1  5  1  0
  2  8  1  0
  2 13  1  0
  3 10  1  0
  3 14  1  0
  4  7  1  0
  5  6  1  0
  5  7  1  0
  6  8  2  0
  6  9  1  0
  8 11  1  0
  9 10  2  0
 10 12  1  0
 11 12  2  0
M  END
>  <PUBCHEM_COMPOUND_CID>  (1) 
43260

>  <PUBCHEM_CONFORMER_RMSD>  (1) 
0.6

>  <PUBCHEM_CONFORMER_DIVERSEORDER>  (1) 
14
18
26
9
24
13
8
5
6
17
19
15
7
22
27
1
23
28
4
25
11
12
16
3
2
20
21
10

>  <PUBCHEM_MMFF94_PARTIAL_CHARGES>  (1) 
20
1 -0.68
10 0.08
11 -0.15
12 -0.15
13 0.28
14 0.28
18 0.15
19 0.15
2 -0.36
20 0.15
21 0.4
22 0.36
23 0.36
3 -0.36
4 -0.99
5 0.42
6 -0.14
7 0.27
8 0.08
9 -0.15

>  <PUBCHEM_EFFECTIVE_ROTOR_COUNT>  (1) 
4

>  <PUBCHEM_PHARMACOPHORE_FEATURES>  (1) 
7
1 1 acceptor
1 1 donor
1 2 acceptor
1 3 acceptor
1 4 cation
1 4 donor
6 6 8 9 10 11 12 rings

>  <PUBCHEM_HEAVY_ATOM_COUNT>  (1) 
14

>  <PUBCHEM_ATOM_DEF_STEREO_COUNT>  (1) 
0

>  <PUBCHEM_ATOM_UDEF_STEREO_COUNT>  (1) 
1

>  <PUBCHEM_BOND_DEF_STEREO_COUNT>  (1) 
0

>  <PUBCHEM_BOND_UDEF_STEREO_COUNT>  (1) 
0

>  <PUBCHEM_ISOTOPIC_ATOM_COUNT>  (1) 
0

>  <PUBCHEM_COMPONENT_COUNT>  (1) 
1

>  <PUBCHEM_CACTVS_TAUTO_COUNT>  (1) 
1

>  <PUBCHEM_CONFORMER_ID>  (1) 
0000A8FC0000000E

>  <PUBCHEM_MMFF94_ENERGY>  (1) 
51.2665

>  <PUBCHEM_FEATURE_SELFOVERLAP>  (1) 
35.525

>  <PUBCHEM_SHAPE_FINGERPRINT>  (1) 
10465860 228 18339365158461794161
11680986 33 18408890602922153539
12423570 1 8307981611262451970
13140716 1 18337113354738003899
13380535 21 18336000717505457139
13380535 76 18336258046044238907
13380537 58 18051133884888549940
13922767 16 18122057611823470705
14614273 12 18190167061495794597
14648413 74 18337394846509617595
14897335 6 18411693301321847941
15490181 7 18198628911193629167
15490181 8 18043258026847464599
16945 1 18193001641058529495
18186145 218 18059872674119633953
193761 8 18410294722394712443
20510252 161 17983019143473522769
20511035 2 18410579461451479791
20671657 1 18340209583312486351
21029758 11 17980476754836403286
21040471 1 18337397144290422199
21501502 16 18411692193088728531
21524375 3 18200591535185676041
2334 1 18409173225013659203
23402539 116 17624123197996726303
23419403 2 17755275908854222318
23552423 10 18334019384525189943
2748010 2 18335712628316183407
305870 269 18411132558649255504
3071541 12 18340487746784859936
3071541 158 17973448698017936551
43471831 8 18264199382670503586
53812653 166 18411141307692855134
53812653 8 17756719889485485204
7364860 26 18342456989453865990
81228 2 17261604383170584234

>  <PUBCHEM_SHAPE_MULTIPOLES>  (1) 
265.52
4.98
2.81
0.82
2.35
1.33
-0.14
-3.08
0.57
-1.68
0.21
-0.46
-0.26
0.29

>  <PUBCHEM_SHAPE_SELFOVERLAP>  (1) 
543.214

>  <PUBCHEM_SHAPE_VOLUME>  (1) 
154.2

>  <PUBCHEM_COORDINATE_TYPE>  (1) 
2
5
10

$$$$
