43273
     RDKit          3D

 12 11  0  0  0  0  0  0  0  0999 V2000
    4.8849    1.1623    0.5535 Cl  0  0  0  0  0  0  0  0  0  0  0  0
    2.0950    0.1577   -0.1917 O   0  0  0  0  0  0  0  0  0  0  0  0
    0.6376   -1.5021    0.4377 O   0  0  0  0  0  0  0  0  0  0  0  0
   -0.0684    0.6891    0.1413 N   0  0  0  0  0  0  0  0  0  0  0  0
   -3.8054   -0.0130   -0.4964 C   0  0  0  0  0  0  0  0  0  0  0  0
   -2.2980    0.1644   -0.7673 C   0  0  0  0  0  0  0  0  0  0  0  0
   -1.4575    0.5097    0.4596 C   0  0  0  0  0  0  0  0  0  0  0  0
   -4.3737    1.2689    0.1187 C   0  0  0  0  0  0  0  0  0  0  0  0
   -4.0980   -1.1994    0.4231 C   0  0  0  0  0  0  0  0  0  0  0  0
    0.8669   -0.3305    0.1560 C   0  0  0  0  0  0  0  0  0  0  0  0
    3.1621   -0.7971   -0.2169 C   0  0  0  0  0  0  0  0  0  0  0  0
    4.4545   -0.1100   -0.6176 C   0  0  0  0  0  0  0  0  0  0  0  0
  1 12  1  0
  2 10  1  0
  2 11  1  0
  3 10  2  0
  4  7  1  0
  4 10  1  0
  5  6  1  0
  5  8  1  0
  5  9  1  0
  6  7  1  0
 11 12  1  0
M  END
>  <PUBCHEM_COMPOUND_CID>  (1) 
43273

>  <PUBCHEM_CONFORMER_RMSD>  (1) 
0.8

>  <PUBCHEM_CONFORMER_DIVERSEORDER>  (1) 
1
66
46
36
32
7
38
37
42
26
63
10
29
4
43
9
50
57
47
40
2
64
67
11
52
14
34
19
60
51
39
33
62
3
20
59
8
44
6
49
18
28
13
68
69
35
45
30
55
23
56
16
41
22
17
21
58
12
65
54
25
48
24
61
15
31
5
27
53

>  <PUBCHEM_MMFF94_PARTIAL_CHARGES>  (1) 
9
1 -0.29
10 0.78
11 0.28
12 0.29
2 -0.43
24 0.37
3 -0.57
4 -0.73
7 0.3

>  <PUBCHEM_EFFECTIVE_ROTOR_COUNT>  (1) 
7

>  <PUBCHEM_PHARMACOPHORE_FEATURES>  (1) 
3
1 3 acceptor
1 4 donor
3 5 8 9 hydrophobe

>  <PUBCHEM_HEAVY_ATOM_COUNT>  (1) 
12

>  <PUBCHEM_ATOM_DEF_STEREO_COUNT>  (1) 
0

>  <PUBCHEM_ATOM_UDEF_STEREO_COUNT>  (1) 
0

>  <PUBCHEM_BOND_DEF_STEREO_COUNT>  (1) 
0

>  <PUBCHEM_BOND_UDEF_STEREO_COUNT>  (1) 
0

>  <PUBCHEM_ISOTOPIC_ATOM_COUNT>  (1) 
0

>  <PUBCHEM_COMPONENT_COUNT>  (1) 
1

>  <PUBCHEM_CACTVS_TAUTO_COUNT>  (1) 
2

>  <PUBCHEM_CONFORMER_ID>  (1) 
0000A90900000001

>  <PUBCHEM_MMFF94_ENERGY>  (1) 
7.5288

>  <PUBCHEM_FEATURE_SELFOVERLAP>  (1) 
15.223

>  <PUBCHEM_SHAPE_FINGERPRINT>  (1) 
11062470 55 17530967960154234877
11287383 113 18342176704383283656
11401426 45 18260264152928367837
124424 183 12031785864370381695
14123238 8 18040434412462771702
17834072 33 16917057897717416213
17834076 25 18040437676458672412
190213 19 18059857246760214749
20645477 70 17845373254266857846
20724930 37 16153422844706610552
21293036 1 18407478860188326086
22485316 2 18343300353479499287
23402539 116 15864065481778782863
23402655 69 18131632270678800020
23532345 12 10447928394817246394
23557571 272 17750239114337287540
23590187 198 15068613886111426048
265663 24 16081082697307008226
42 15 11097852978160394140
42788 4 18343301461517706100

>  <PUBCHEM_SHAPE_MULTIPOLES>  (1) 
232.1
11.05
1.27
0.79
3.73
0.04
0.04
-1.97
0.15
-0.24
-0.21
-0.02
0.01
0.47

>  <PUBCHEM_SHAPE_SELFOVERLAP>  (1) 
418.606

>  <PUBCHEM_SHAPE_VOLUME>  (1) 
150.1

>  <PUBCHEM_COORDINATE_TYPE>  (1) 
2
5
10

$$$$
