43270
     RDKit          3D

 21 26  0  0  1  0  0  0  0  0999 V2000
    0.2800   -3.1762   -0.0324 O   0  0  0  0  0  0  0  0  0  0  0  0
   -0.0647   -1.9726    0.5844 C   0  0  0  0  0  0  0  0  0  0  0  0
    1.0835   -2.2021   -0.6304 C   0  0  0  0  0  0  0  0  0  0  0  0
   -0.6663   -0.6418    0.1586 C   0  0  0  0  0  0  0  0  0  0  0  0
    2.1402   -1.2137   -0.1860 C   0  0  0  0  0  0  0  0  0  0  0  0
    0.2886    0.4197    0.0168 C   0  0  0  0  0  0  0  0  0  0  0  0
    1.6878    0.1326   -0.0085 C   0  0  0  0  0  0  0  0  0  0  0  0
   -2.0488   -0.3753    0.0790 C   0  0  0  0  0  0  0  0  0  0  0  0
   -0.1524    1.7509   -0.0515 C   0  0  0  0  0  0  0  0  0  0  0  0
    2.6278    1.1756    0.0882 C   0  0  0  0  0  0  0  0  0  0  0  0
    3.5032   -1.5039   -0.1214 C   0  0  0  0  0  0  0  0  0  0  0  0
   -2.4784    0.9637   -0.0839 C   0  0  0  0  0  0  0  0  0  0  0  0
   -1.5317    2.0041   -0.1254 C   0  0  0  0  0  0  0  0  0  0  0  0
    0.7994    2.7828   -0.0190 C   0  0  0  0  0  0  0  0  0  0  0  0
    2.1657    2.5000    0.0892 C   0  0  0  0  0  0  0  0  0  0  0  0
    3.9941    0.8540    0.1515 C   0  0  0  0  0  0  0  0  0  0  0  0
    4.4231   -0.4744    0.0705 C   0  0  0  0  0  0  0  0  0  0  0  0
   -3.0203   -1.3906    0.1757 C   0  0  0  0  0  0  0  0  0  0  0  0
   -3.8527    1.2423   -0.1655 C   0  0  0  0  0  0  0  0  0  0  0  0
   -4.3813   -1.0949    0.0920 C   0  0  0  0  0  0  0  0  0  0  0  0
   -4.7970    0.2198   -0.0817 C   0  0  0  0  0  0  0  0  0  0  0  0
  1  2  1  0
  1  3  1  0
  2  3  1  0
  2  4  1  0
  3  5  1  0
  4  6  2  0
  4  8  1  0
  5  7  2  0
  5 11  1  0
  6  7  1  0
  6  9  1  0
  7 10  1  0
  8 12  2  0
  8 18  1  0
  9 13  2  0
  9 14  1  0
 10 15  1  0
 10 16  2  0
 11 17  2  0
 12 13  1  0
 12 19  1  0
 14 15  2  0
 16 17  1  0
 18 20  2  0
 19 21  2  0
 20 21  1  0
M  END
>  <PUBCHEM_COMPOUND_CID>  (1) 
43270

>  <PUBCHEM_CONFORMER_RMSD>  (1) 
0.6

>  <PUBCHEM_CONFORMER_DIVERSEORDER>  (1) 
1

>  <PUBCHEM_MMFF94_PARTIAL_CHARGES>  (1) 
27
1 -0.3
11 -0.15
13 -0.15
14 -0.15
15 -0.15
16 -0.15
17 -0.15
18 -0.15
19 -0.15
2 0.08
20 -0.15
21 -0.15
22 0.1
23 0.1
24 0.15
25 0.15
26 0.15
27 0.15
28 0.15
29 0.15
3 0.08
30 0.15
31 0.15
32 0.15
33 0.15
4 -0.03
5 -0.03

>  <PUBCHEM_EFFECTIVE_ROTOR_COUNT>  (1) 
0.2

>  <PUBCHEM_PHARMACOPHORE_FEATURES>  (1) 
6
1 1 acceptor
6 4 6 8 9 12 13 rings
6 5 7 10 11 16 17 rings
6 6 7 9 10 14 15 rings
6 8 12 18 19 20 21 rings
7 1 2 3 4 5 6 7 rings

>  <PUBCHEM_HEAVY_ATOM_COUNT>  (1) 
21

>  <PUBCHEM_ATOM_DEF_STEREO_COUNT>  (1) 
0

>  <PUBCHEM_ATOM_UDEF_STEREO_COUNT>  (1) 
2

>  <PUBCHEM_BOND_DEF_STEREO_COUNT>  (1) 
0

>  <PUBCHEM_BOND_UDEF_STEREO_COUNT>  (1) 
0

>  <PUBCHEM_ISOTOPIC_ATOM_COUNT>  (1) 
0

>  <PUBCHEM_COMPONENT_COUNT>  (1) 
1

>  <PUBCHEM_CACTVS_TAUTO_COUNT>  (1) 
1

>  <PUBCHEM_CONFORMER_ID>  (1) 
0000A90600000001

>  <PUBCHEM_MMFF94_ENERGY>  (1) 
113.0096

>  <PUBCHEM_FEATURE_SELFOVERLAP>  (1) 
30.547

>  <PUBCHEM_SHAPE_FINGERPRINT>  (1) 
10411042 1 17690280409261748271
10616163 171 18411420596647276191
10906281 52 18338255816007051992
10967382 1 18410856542681485958
1100329 8 18338513166068110586
11132069 177 18409725157885284600
11471102 20 18411133632443963437
11578080 2 16518488037693947327
11680986 33 18191310596158565816
12011746 2 18411425020653423980
12035758 1 18410853308760984448
12236239 1 17704072902431920971
12403259 226 18408880737287153524
12403260 363 18410568526274424211
12553582 1 18122345675179747651
13140716 1 18410860983699087713
13402501 40 18409167709784800386
138480 1 18410856534160545396
13862211 1 18410568474993662754
14178342 30 18125152741409078904
14223421 5 18266177214893578909
14790565 3 18337963397322471540
15196674 1 18410292510174759968
15230672 131 13219033641626328179
15536298 74 18342458144599361705
15848702 151 17917439674356843295
1601671 61 18411702049758825240
16728300 4 17390197388035890970
16945 1 18050288063724580152
19591789 44 18338234980793677427
200 152 18059851775293782437
20028762 73 18129939104382503975
20739085 24 18189921823243309689
20905425 154 18051974714878236302
21197605 99 17979364376136143747
21267235 1 18411146822183138223
21421861 104 17754175280133957955
221490 88 18336271248763053443
23184049 29 17616813232415249422
23227448 37 18342455997395841207
2334 1 18410575093580191048
23402539 116 18341604928182716718
23559900 14 18411979148617606880
23566358 2 18122057603244228981
238 59 17829566709723813813
2748010 2 18409729573254135052
2871803 45 18337387149954259071
335352 9 18338234856440021357
34934 24 18266734693464794975
350125 39 18410015467863268337
3680242 22 18190460458900916051
5104073 3 18411136917977836201
5939293 188 18411415124811643768
6138700 20 18338238151028473398
6443956 14 18410577249406328221
7364860 26 18412826889104274689
8809292 202 18260553328981861539
9709674 26 18410579500227530583

>  <PUBCHEM_SHAPE_MULTIPOLES>  (1) 
426.3
7.76
3
0.66
3.25
0.04
0
0.37
0.01
-0.91
-0.07
-0.02
0.06
0.32

>  <PUBCHEM_SHAPE_SELFOVERLAP>  (1) 
1001.968

>  <PUBCHEM_SHAPE_VOLUME>  (1) 
216.5

>  <PUBCHEM_COORDINATE_TYPE>  (1) 
2
5
10

$$$$
