43276
     RDKit          3D

 20 20  0  0  1  0  0  0  0  0999 V2000
    2.5096   -1.2750   -1.4857 O   0  0  0  0  0  0  0  0  0  0  0  0
   -0.5750   -0.6780    0.2375 O   0  0  0  0  0  0  0  0  0  0  0  0
   -0.0877   -1.6394   -1.7976 O   0  0  0  0  0  0  0  0  0  0  0  0
   -4.6653    0.2916   -0.2579 N   0  0  0  0  0  0  0  0  0  0  0  0
    1.7289   -0.8819   -0.3489 C   0  0  0  0  0  0  0  0  0  0  0  0
    2.1528   -1.7875    0.8569 C   0  0  0  0  0  0  0  0  0  0  0  0
    1.9255    0.6254   -0.1386 C   0  0  0  0  0  0  0  0  0  0  0  0
    1.8906   -3.2843    0.6104 C   0  0  0  0  0  0  0  0  0  0  0  0
    3.6402   -1.6225    1.2104 C   0  0  0  0  0  0  0  0  0  0  0  0
    0.2652   -1.1236   -0.7435 C   0  0  0  0  0  0  0  0  0  0  0  0
   -2.7604   -0.2989    1.1626 C   0  0  0  0  0  0  0  0  0  0  0  0
   -1.9726   -0.8433   -0.0213 C   0  0  0  0  0  0  0  0  0  0  0  0
    1.7159    1.1440    1.1163 C   0  0  0  0  0  0  0  0  0  0  0  0
    2.3027    1.3926   -1.2141 C   0  0  0  0  0  0  0  0  0  0  0  0
   -4.2639   -0.4313    0.9427 C   0  0  0  0  0  0  0  0  0  0  0  0
    1.8943    2.5141    1.3073 C   0  0  0  0  0  0  0  0  0  0  0  0
    2.4814    2.7628   -1.0230 C   0  0  0  0  0  0  0  0  0  0  0  0
    2.2773    3.3235    0.2378 C   0  0  0  0  0  0  0  0  0  0  0  0
   -6.0905    0.0927   -0.5276 C   0  0  0  0  0  0  0  0  0  0  0  0
   -4.3688    1.7191   -0.1238 C   0  0  0  0  0  0  0  0  0  0  0  0
  1  5  1  0
  2 10  1  0
  2 12  1  0
  3 10  2  0
  4 15  1  0
  4 19  1  0
  4 20  1  0
  5  6  1  0
  5  7  1  0
  5 10  1  0
  6  8  1  0
  6  9  1  0
  7 13  2  0
  7 14  1  0
 11 12  1  0
 11 15  1  0
 13 16  1  0
 14 17  2  0
 16 18  2  0
 17 18  1  0
M  END
>  <PUBCHEM_COMPOUND_CID>  (1) 
43276

>  <PUBCHEM_CONFORMER_RMSD>  (1) 
0.8

>  <PUBCHEM_CONFORMER_DIVERSEORDER>  (1) 
6
337
223
453
409
53
355
52
142
30
205
48
319
359
448
389
165
447
449
103
407
378
320
181
128
459
18
176
432
322
371
215
274
119
301
394
336
47
95
392
126
167
356
306
140
160
115
374
272
454
341
171
318
433
72
456
258
328
191
266
135
440
193
154
344
461
417
400
295
54
276
349
197
217
364
152
136
265
452
74
437
87
434
245
198
284
59
66
209
148
162
398
232
302
269
23
257
46
133
22
431
112
131
65
188
201
375
443
382
439
387
242
170
145
294
41
298
212
323
106
270
345
308
293
161
326
1
81
419
11
105
304
435
441
332
34
451
166
147
172
410
350
313
383
203
38
366
144
199
14
130
264
423
408
182
222
393
20
273
93
397
225
220
111
291
444
358
129
196
252
376
325
43
354
458
132
69
405
429
233
70
333
62
343
338
19
243
296
35
436
153
75
406
307
76
381
402
44
91
159
107
390
346
157
113
230
327
24
311
116
192
121
457
278
380
351
78
263
60
271
414
246
61
255
420
216
218
297
108
300
168
85
234
102
150
204
77
237
460
114
348
31
396
347
39
312
240
82
280
2
401
155
287
329
430
426
299
314
143
334
411
421
117
425
290
282
97
32
68
321
227
369
305
303
365
29
247
183
42
281
127
324
256
315
211
316
292
149
110
109
83
288
268
164
186
238
195
64
235
362
55
63
89
415
120
330
259
174
244
228
249
391
446
101
279
213
49
4
309
179
413
357
71
141
277
267
173
16
138
352
207
283
208
175
8
28
427
377
353
254
399
80
26
178
210
45
388
241
262
384
226
194
9
7
146
94
13
151
125
260
158
289
285
169
73
219
5
335
36
17
67
99
368
445
86
88
428
92
340
15
386
373
184
275
96
124
442
122
79
450
104
202
248
250
404
342
253
372
261
10
12
37
21
317
40
231
286
58
412
455
134
100
310
339
156
200
224
438
403
27
139
50
422
137
416
187
251
25
33
118
90
51
98
3
206
239
56
236
180
177
163
123
418
57
363
379
84
395
221
360
370
331
385
190
367
462
214
185
229
424
189
361

>  <PUBCHEM_MMFF94_PARTIAL_CHARGES>  (1) 
22
1 -0.68
10 0.66
12 0.28
13 -0.15
14 -0.15
15 0.27
16 -0.15
17 -0.15
18 -0.15
19 0.27
2 -0.43
20 0.27
3 -0.57
32 0.4
33 0.15
34 0.15
37 0.15
38 0.15
39 0.15
4 -0.81
5 0.48
7 -0.14

>  <PUBCHEM_EFFECTIVE_ROTOR_COUNT>  (1) 
8

>  <PUBCHEM_PHARMACOPHORE_FEATURES>  (1) 
6
1 1 acceptor
1 1 donor
1 3 acceptor
1 4 cation
3 6 8 9 hydrophobe
6 7 13 14 16 17 18 rings

>  <PUBCHEM_HEAVY_ATOM_COUNT>  (1) 
20

>  <PUBCHEM_ATOM_DEF_STEREO_COUNT>  (1) 
0

>  <PUBCHEM_ATOM_UDEF_STEREO_COUNT>  (1) 
1

>  <PUBCHEM_BOND_DEF_STEREO_COUNT>  (1) 
0

>  <PUBCHEM_BOND_UDEF_STEREO_COUNT>  (1) 
0

>  <PUBCHEM_ISOTOPIC_ATOM_COUNT>  (1) 
0

>  <PUBCHEM_COMPONENT_COUNT>  (1) 
1

>  <PUBCHEM_CACTVS_TAUTO_COUNT>  (1) 
1

>  <PUBCHEM_CONFORMER_ID>  (1) 
0000A90C00000006

>  <PUBCHEM_MMFF94_ENERGY>  (1) 
48.273

>  <PUBCHEM_FEATURE_SELFOVERLAP>  (1) 
30.455

>  <PUBCHEM_SHAPE_FINGERPRINT>  (1) 
10366900 7 18114473270925578999
10498660 4 18127699446599197265
11405975 8 18334861598127075875
12166972 35 17988358178891269507
12403260 363 18340198606030023683
12616971 3 18201715146787573111
12633257 1 17168967036695470032
13134695 92 18267575823696139902
13294875 104 18057882631599461320
13533116 47 18113338575384929819
13583140 156 18334580140219899651
13878862 14 18189312642630790245
13965767 371 17898550227980263324
14178342 30 17388263600179546379
14251764 38 18409445848395601973
14466204 15 18045492020000833299
14955137 171 18412825772803460442
15238133 3 18189621531576304174
15848702 68 18409163303190643749
17134986 127 18056766652655667412
17868525 174 18045212748543039185
17980427 23 17487586776330935302
192875 21 18130225956778587931
20157964 124 18335975437844729359
20281475 54 8502652598093335627
20369508 70 18334856074176965443
20681677 76 18335708290657528107
21524375 3 17982175818376557164
2255824 54 18410016545789218394
22892500 29 18334013882650796431
231179 274 18338810029596203068
23419403 2 18051942893602930840
23557571 272 14620794864982147715
23558518 356 17834391603122974966
23559900 14 17967256399218232011
238 59 18200889477214810017
3060560 45 17846789515310730116
345986 75 17173474780945370954
351380 180 18335977568016613203
474 4 18337107981522692289
495365 180 18333446569168877643
5104073 3 18335428976360435371
5895379 119 17273152201673120857
6442390 28 17903373836925150090
67856867 119 18411971486543598475
7808743 9 17543077130835814420
81228 2 17546174000082396434
9971528 1 17988082166949604086

>  <PUBCHEM_SHAPE_MULTIPOLES>  (1) 
389
8.98
3.49
1.4
19.39
1.03
0.16
1.66
-0.29
-4.62
-0.34
-0.68
-0.06
-0.24

>  <PUBCHEM_SHAPE_SELFOVERLAP>  (1) 
784.271

>  <PUBCHEM_SHAPE_VOLUME>  (1) 
229

>  <PUBCHEM_COORDINATE_TYPE>  (1) 
2
5
10

$$$$
