43286
     RDKit          3D

 27 29  0  0  1  0  0  0  0  0999 V2000
    3.0352   -1.0243    0.0532 O   0  0  0  0  0  0  0  0  0  0  0  0
   -3.0991    6.1612   -1.2962 O   0  0  0  0  0  0  0  0  0  0  0  0
   -3.9000    0.3240    0.5612 N   0  0  0  0  0  0  0  0  0  0  0  0
   -1.0281   -4.6503   -0.5795 N   0  0  0  0  0  0  0  0  0  0  0  0
   -3.0471   -0.8605    0.6738 C   0  0  0  0  0  0  0  0  0  0  0  0
   -2.5281   -1.2981   -0.6982 C   0  0  0  0  0  0  0  0  0  0  0  0
   -3.0911    1.5236    0.3788 C   0  0  0  0  0  0  0  0  0  0  0  0
   -1.6694   -2.5255   -0.6130 C   0  0  0  0  0  0  0  0  0  0  0  0
   -3.9188    2.6271   -0.2776 C   0  0  0  0  0  0  0  0  0  0  0  0
   -4.7508    0.4514    1.7456 C   0  0  0  0  0  0  0  0  0  0  0  0
   -0.2594   -2.5616   -0.4254 C   0  0  0  0  0  0  0  0  0  0  0  0
    0.1175   -3.9062   -0.4080 C   0  0  0  0  0  0  0  0  0  0  0  0
   -3.0871    3.8914   -0.4863 C   0  0  0  0  0  0  0  0  0  0  0  0
   -2.1130   -3.8247   -0.7045 C   0  0  0  0  0  0  0  0  0  0  0  0
    0.7356   -1.5764   -0.2685 C   0  0  0  0  0  0  0  0  0  0  0  0
   -5.6472   -0.7641    1.9110 C   0  0  0  0  0  0  0  0  0  0  0  0
    1.4449   -4.3164   -0.2406 C   0  0  0  0  0  0  0  0  0  0  0  0
   -3.9137    5.0128   -1.1019 C   0  0  0  0  0  0  0  0  0  0  0  0
    2.0675   -1.9719   -0.1001 C   0  0  0  0  0  0  0  0  0  0  0  0
    2.4145   -3.3214   -0.0867 C   0  0  0  0  0  0  0  0  0  0  0  0
    2.6163    0.3385    0.0304 C   0  0  0  0  0  0  0  0  0  0  0  0
    3.8188    1.2231    0.1815 C   0  0  0  0  0  0  0  0  0  0  0  0
    4.2430    1.6124    1.4520 C   0  0  0  0  0  0  0  0  0  0  0  0
    4.5129    1.6558   -0.9485 C   0  0  0  0  0  0  0  0  0  0  0  0
    5.3610    2.4346    1.5926 C   0  0  0  0  0  0  0  0  0  0  0  0
    5.6309    2.4780   -0.8078 C   0  0  0  0  0  0  0  0  0  0  0  0
    6.0549    2.8673    0.4627 C   0  0  0  0  0  0  0  0  0  0  0  0
  1 19  1  0
  1 21  1  0
  2 18  1  0
  3  5  1  0
  3  7  1  0
  3 10  1  0
  4 12  1  0
  4 14  1  0
  5  6  1  0
  6  8  1  0
  7  9  1  0
  8 11  1  0
  8 14  2  0
  9 13  1  0
 10 16  1  0
 11 12  2  0
 11 15  1  0
 12 17  1  0
 13 18  1  0
 15 19  2  0
 17 20  2  0
 19 20  1  0
 21 22  1  0
 22 23  2  0
 22 24  1  0
 23 25  1  0
 24 26  2  0
 25 27  2  0
 26 27  1  0
M  END
>  <PUBCHEM_COMPOUND_CID>  (1) 
43286

>  <PUBCHEM_CONFORMER_RMSD>  (1) 
1.2

>  <PUBCHEM_CONFORMER_DIVERSEORDER>  (1) 
1
187
54
95
71
40
181
130
61
160
166
197
133
58
76
78
63
74
185
157
31
118
66
143
198
134
32
158
182
115
193
19
128
121
176
21
132
6
51
49
202
23
30
88
56
82
179
178
65
142
194
200
168
171
79
153
96
25
127
106
104
34
191
195
62
99
109
57
117
41
196
151
43
81
26
140
102
186
107
73
83
89
146
98
97
114
12
175
59
39
161
3
75
84
77
137
184
190
20
204
145
10
35
90
68
105
93
147
80
50
159
11
108
129
47
70
111
131
163
4
170
9
103
17
189
180
15
94
28
164
46
124
18
53
48
192
110
113
8
123
177
27
14
203
87
44
116
136
2
144
165
91
7
174
173
52
69
183
60
37
205
138
120
139
148
141
201
101
100
167
55
156
188
112
135
85
29
64
119
5
36
122
149
22
72
16
33
24
13
92
172
155
38
150
67
152
199
45
162
126
42
169
125
86
154

>  <PUBCHEM_MMFF94_PARTIAL_CHARGES>  (1) 
34
1 -0.36
10 0.27
12 -0.15
14 -0.3
15 -0.15
17 -0.15
18 0.28
19 0.08
2 -0.68
20 -0.15
21 0.42
22 -0.14
23 -0.15
24 -0.15
25 -0.15
26 -0.15
27 -0.15
3 -0.81
4 0.03
40 0.15
41 0.27
42 0.15
46 0.15
49 0.15
5 0.27
52 0.4
53 0.15
54 0.15
55 0.15
56 0.15
57 0.15
6 0.18
7 0.27
8 -0.18

>  <PUBCHEM_EFFECTIVE_ROTOR_COUNT>  (1) 
11

>  <PUBCHEM_PHARMACOPHORE_FEATURES>  (1) 
9
1 1 acceptor
1 2 acceptor
1 2 donor
1 3 cation
1 4 cation
1 4 donor
5 4 8 11 12 14 rings
6 11 12 15 17 19 20 rings
6 22 23 24 25 26 27 rings

>  <PUBCHEM_HEAVY_ATOM_COUNT>  (1) 
27

>  <PUBCHEM_ATOM_DEF_STEREO_COUNT>  (1) 
0

>  <PUBCHEM_ATOM_UDEF_STEREO_COUNT>  (1) 
0

>  <PUBCHEM_BOND_DEF_STEREO_COUNT>  (1) 
0

>  <PUBCHEM_BOND_UDEF_STEREO_COUNT>  (1) 
0

>  <PUBCHEM_ISOTOPIC_ATOM_COUNT>  (1) 
0

>  <PUBCHEM_COMPONENT_COUNT>  (1) 
1

>  <PUBCHEM_CACTVS_TAUTO_COUNT>  (1) 
1

>  <PUBCHEM_CONFORMER_ID>  (1) 
0000A91600000001

>  <PUBCHEM_MMFF94_ENERGY>  (1) 
55.0315

>  <PUBCHEM_FEATURE_SELFOVERLAP>  (1) 
45.762

>  <PUBCHEM_SHAPE_FINGERPRINT>  (1) 
10256941 240 18048840153114735052
10670039 82 18197780110345560462
10838868 217 17758087343160205712
10937287 8 18339918221236632021
11059845 2 18123435407863609864
12107183 9 18338221718810653738
12390115 104 18128550446839578778
13617811 41 18122614213994745623
14068700 686 18337959996013925321
14251764 38 18119805816510676069
14251764 75 18058468550910985259
14790565 3 18410295813738152134
15322535 138 18411409597046588268
15326921 28 18268404946233563416
16067690 210 17900526080666852768
16988056 13 17402321577884384820
19246450 95 18049693293229090386
21033650 10 18045797938438155212
21133410 127 18187933811504553940
21857420 4 16970835789000330870
22864921 10 18334584525117817004
23559900 14 17835234550272893449
325973 47 17834958568317443056
3418910 222 17255399844030915800
4487111 67 18411414016378441048
469060 322 17978527647323053267
50677037 204 17689994957060938608
508706 21 17985257723699611304
5252454 2 18202565089938382051
550186 7 17985276411365891798
581034 39 18336834177495255484
6475588 51 17831863821966075132
7288768 16 18261678189259549987
7399639 24 18337122181085545291
7808743 9 18269275827829363786

>  <PUBCHEM_SHAPE_MULTIPOLES>  (1) 
533.95
13.05
8.42
1.33
10.28
4.14
0.51
16.54
4.46
-6.37
-4.19
-0.72
0.91
2.13

>  <PUBCHEM_SHAPE_SELFOVERLAP>  (1) 
1119.512

>  <PUBCHEM_SHAPE_VOLUME>  (1) 
303.8

>  <PUBCHEM_COORDINATE_TYPE>  (1) 
2
5
10

$$$$
