43284
     RDKit          3D

 32 33  0  0  1  0  0  0  0  0999 V2000
   -1.8270   -1.1267    0.6218 O   0  0  0  0  0  0  0  0  0  0  0  0
   -2.3119   -1.8167   -1.5201 O   0  0  0  0  0  0  0  0  0  0  0  0
   -6.1268    0.6060    2.3207 O   0  0  0  0  0  0  0  0  0  0  0  0
   -6.1968    1.4789   -2.3877 O   0  0  0  0  0  0  0  0  0  0  0  0
   -7.3324    1.7789    0.1204 O   0  0  0  0  0  0  0  0  0  0  0  0
    4.2008   -1.4431   -0.7743 N   0  0  0  0  0  0  0  0  0  0  0  0
    1.8599   -1.6554   -0.0773 C   0  0  0  0  0  0  0  0  0  0  0  0
    0.5064   -0.9391    0.0143 C   0  0  0  0  0  0  0  0  0  0  0  0
    2.9273   -0.7399   -0.6756 C   0  0  0  0  0  0  0  0  0  0  0  0
   -0.5926   -1.8449    0.5859 C   0  0  0  0  0  0  0  0  0  0  0  0
    5.3125   -0.4919   -0.8250 C   0  0  0  0  0  0  0  0  0  0  0  0
   -0.2945   -2.3407    2.0057 C   0  0  0  0  0  0  0  0  0  0  0  0
    4.2206   -2.3103   -1.9536 C   0  0  0  0  0  0  0  0  0  0  0  0
    5.6156    0.0708    0.5641 C   0  0  0  0  0  0  0  0  0  0  0  0
   -1.3764   -3.2391    2.5822 C   0  0  0  0  0  0  0  0  0  0  0  0
    5.5165   -3.0994   -2.0333 C   0  0  0  0  0  0  0  0  0  0  0  0
    6.7448    1.0693    0.5223 C   0  0  0  0  0  0  0  0  0  0  0  0
   -2.5870   -1.2011   -0.5020 C   0  0  0  0  0  0  0  0  0  0  0  0
    6.4726    2.4216    0.3156 C   0  0  0  0  0  0  0  0  0  0  0  0
    8.0615    0.6408    0.6907 C   0  0  0  0  0  0  0  0  0  0  0  0
   -3.8358   -0.4150   -0.3380 C   0  0  0  0  0  0  0  0  0  0  0  0
    7.5170    3.3454    0.2773 C   0  0  0  0  0  0  0  0  0  0  0  0
    9.1060    1.5646    0.6524 C   0  0  0  0  0  0  0  0  0  0  0  0
    8.8337    2.9169    0.4457 C   0  0  0  0  0  0  0  0  0  0  0  0
   -4.4407    0.1734   -1.4487 C   0  0  0  0  0  0  0  0  0  0  0  0
   -4.4057   -0.2670    0.9265 C   0  0  0  0  0  0  0  0  0  0  0  0
   -5.5804    0.4694    1.0803 C   0  0  0  0  0  0  0  0  0  0  0  0
   -5.6155    0.9096   -1.2949 C   0  0  0  0  0  0  0  0  0  0  0  0
   -6.1852    1.0576   -0.0304 C   0  0  0  0  0  0  0  0  0  0  0  0
   -5.4457   -0.0267    3.4023 C   0  0  0  0  0  0  0  0  0  0  0  0
   -5.5503    1.2797   -3.6432 C   0  0  0  0  0  0  0  0  0  0  0  0
   -7.1904    3.1743    0.3760 C   0  0  0  0  0  0  0  0  0  0  0  0
  1 10  1  0
  1 18  1  0
  2 18  2  0
  3 27  1  0
  3 30  1  0
  4 28  1  0
  4 31  1  0
  5 29  1  0
  5 32  1  0
  6  9  1  0
  6 11  1  0
  6 13  1  0
  7  8  1  0
  7  9  1  0
  8 10  1  0
 10 12  1  0
 11 14  1  0
 12 15  1  0
 13 16  1  0
 14 17  1  0
 17 19  2  0
 17 20  1  0
 18 21  1  0
 19 22  1  0
 20 23  2  0
 21 25  2  0
 21 26  1  0
 22 24  2  0
 23 24  1  0
 25 28  1  0
 26 27  2  0
 27 29  1  0
 28 29  2  0
M  END
>  <PUBCHEM_COMPOUND_CID>  (1) 
43284

>  <PUBCHEM_CONFORMER_RMSD>  (1) 
1.4

>  <PUBCHEM_CONFORMER_DIVERSEORDER>  (1) 
14
27
15
68
99
95
1
73
78
39
31
3
102
41
77
51
5
48
8
61
64
36
69
94
9
105
59
96
40
11
60
110
71
67
80
10
90
76
85
83
19
38
65
108
23
116
57
16
106
93
92
13
45
29
20
37
107
74
52
97
56
4
100
117
70
34
6
24
89
63
86
12
43
115
30
113
91
53
79
32
75
84
21
101
72
47
81
87
44
54
55
17
33
25
18
112
98
66
58
114
22
82
50
42
2
35
111
62
88
7
28
103
26
49
104
46
109

>  <PUBCHEM_MMFF94_PARTIAL_CHARGES>  (1) 
34
1 -0.43
10 0.28
11 0.27
13 0.27
14 0.14
17 -0.14
18 0.63
19 -0.15
2 -0.57
20 -0.15
21 0.09
22 -0.15
23 -0.15
24 -0.15
25 -0.15
26 -0.15
27 0.08
28 0.08
29 0.08
3 -0.36
30 0.28
31 0.28
32 0.28
4 -0.36
5 -0.36
54 0.15
55 0.15
56 0.15
57 0.15
58 0.15
59 0.15
6 -0.81
60 0.15
9 0.27

>  <PUBCHEM_EFFECTIVE_ROTOR_COUNT>  (1) 
15

>  <PUBCHEM_PHARMACOPHORE_FEATURES>  (1) 
8
1 15 hydrophobe
1 2 acceptor
1 3 acceptor
1 4 acceptor
1 5 acceptor
1 6 cation
6 17 19 20 22 23 24 rings
6 21 25 26 27 28 29 rings

>  <PUBCHEM_HEAVY_ATOM_COUNT>  (1) 
32

>  <PUBCHEM_ATOM_DEF_STEREO_COUNT>  (1) 
0

>  <PUBCHEM_ATOM_UDEF_STEREO_COUNT>  (1) 
1

>  <PUBCHEM_BOND_DEF_STEREO_COUNT>  (1) 
0

>  <PUBCHEM_BOND_UDEF_STEREO_COUNT>  (1) 
0

>  <PUBCHEM_ISOTOPIC_ATOM_COUNT>  (1) 
0

>  <PUBCHEM_COMPONENT_COUNT>  (1) 
1

>  <PUBCHEM_CACTVS_TAUTO_COUNT>  (1) 
1

>  <PUBCHEM_CONFORMER_ID>  (1) 
0000A9140000000E

>  <PUBCHEM_MMFF94_ENERGY>  (1) 
102.6007

>  <PUBCHEM_FEATURE_SELFOVERLAP>  (1) 
40.606

>  <PUBCHEM_SHAPE_FINGERPRINT>  (1) 
10280341 67 17386832917157552453
10554248 39 17775005640092860662
10835480 77 18201440294270897606
10930396 42 16732985315666545045
11621639 208 17981325595932672980
12522641 126 14907636558481021388
15183329 4 17060337388178669787
15276724 80 18059297556745565036
19246450 95 13696410150432429703
21033648 29 17967820435387123919
21298829 104 17989495143103501448
21424621 283 18334577910398260331
23081809 10 16988843843532262798
23522609 53 16844748438080846227
23559900 14 14619354509604176587
397638 26 17603586326623629968
4169191 19 18202283615019803516
44249763 50 18113058238158022303
49967989 163 14333407878346206919
504579 68 15195297430210771378
5104073 3 15358269298421581070
6691757 9 16733538446617924442
6695519 79 17896338938809519347
9962374 69 10881689044254155624
9980921 221 15195292971981815683
999808 66 10159695828189924765

>  <PUBCHEM_SHAPE_MULTIPOLES>  (1) 
624.22
29.52
3.66
2.69
32.57
0.3
-0.29
30.56
1.68
4.4
0.22
-5.9
-0.87
4.77

>  <PUBCHEM_SHAPE_SELFOVERLAP>  (1) 
1275.976

>  <PUBCHEM_SHAPE_VOLUME>  (1) 
362.5

>  <PUBCHEM_COORDINATE_TYPE>  (1) 
2
5
10

$$$$
