43298
     RDKit          3D

 17 18  0  0  0  0  0  0  0  0999 V2000
   -5.6011   -0.5192    0.3132 F   0  0  0  0  0  0  0  0  0  0  0  0
    2.5895    1.8755   -0.4040 O   0  0  0  0  0  0  0  0  0  0  0  0
    2.9085   -0.1987    0.6060 N   0  0  0  0  0  0  0  0  0  0  0  0
    4.3293   -0.2725    0.4182 C   0  0  0  0  0  0  0  0  0  0  0  0
    4.9062   -0.7749   -0.8656 C   0  0  0  0  0  0  0  0  0  0  0  0
    5.0274   -1.5936    0.3863 C   0  0  0  0  0  0  0  0  0  0  0  0
    2.1597    0.8809    0.1729 C   0  0  0  0  0  0  0  0  0  0  0  0
    0.6930    0.7209    0.4267 C   0  0  0  0  0  0  0  0  0  0  0  0
   -0.1156    0.1440   -0.4915 C   0  0  0  0  0  0  0  0  0  0  0  0
    0.2590    1.2662    1.7567 C   0  0  0  0  0  0  0  0  0  0  0  0
   -1.5712   -0.0328   -0.2786 C   0  0  0  0  0  0  0  0  0  0  0  0
    0.3596   -0.3542   -1.8330 C   0  0  0  0  0  0  0  0  0  0  0  0
   -2.4334    0.9683   -0.6817 C   0  0  0  0  0  0  0  0  0  0  0  0
   -2.0258   -1.1931    0.3176 C   0  0  0  0  0  0  0  0  0  0  0  0
   -3.8038    0.8028   -0.4807 C   0  0  0  0  0  0  0  0  0  0  0  0
   -3.3962   -1.3589    0.5184 C   0  0  0  0  0  0  0  0  0  0  0  0
   -4.2852   -0.3609    0.1193 C   0  0  0  0  0  0  0  0  0  0  0  0
  1 17  1  0
  2  7  2  0
  3  4  1  0
  3  7  1  0
  4  5  1  0
  4  6  1  0
  5  6  1  0
  7  8  1  0
  8  9  2  0
  8 10  1  0
  9 11  1  0
  9 12  1  0
 11 13  2  0
 11 14  1  0
 13 15  1  0
 14 16  2  0
 15 17  2  0
 16 17  1  0
M  END
>  <PUBCHEM_COMPOUND_CID>  (1) 
43298

>  <PUBCHEM_CONFORMER_RMSD>  (1) 
0.6

>  <PUBCHEM_CONFORMER_DIVERSEORDER>  (1) 
1
3
4
5
2

>  <PUBCHEM_MMFF94_PARTIAL_CHARGES>  (1) 
27
1 -0.19
10 0.14
11 0.03
12 0.14
13 -0.15
14 -0.15
15 -0.15
16 -0.15
17 0.19
18 0.1
19 0.1
2 -0.57
20 0.1
21 0.1
22 0.1
23 0.37
3 -0.58
30 0.15
31 0.15
32 0.15
33 0.15
4 0.05
5 -0.2
6 -0.2
7 0.62
8 -0.12
9 -0.17

>  <PUBCHEM_EFFECTIVE_ROTOR_COUNT>  (1) 
4.6

>  <PUBCHEM_PHARMACOPHORE_FEATURES>  (1) 
5
1 10 hydrophobe
1 12 hydrophobe
1 2 acceptor
1 3 donor
6 11 13 14 15 16 17 rings

>  <PUBCHEM_HEAVY_ATOM_COUNT>  (1) 
17

>  <PUBCHEM_ATOM_DEF_STEREO_COUNT>  (1) 
0

>  <PUBCHEM_ATOM_UDEF_STEREO_COUNT>  (1) 
0

>  <PUBCHEM_BOND_DEF_STEREO_COUNT>  (1) 
0

>  <PUBCHEM_BOND_UDEF_STEREO_COUNT>  (1) 
1

>  <PUBCHEM_ISOTOPIC_ATOM_COUNT>  (1) 
0

>  <PUBCHEM_COMPONENT_COUNT>  (1) 
1

>  <PUBCHEM_CACTVS_TAUTO_COUNT>  (1) 
2

>  <PUBCHEM_CONFORMER_ID>  (1) 
0000A92200000001

>  <PUBCHEM_MMFF94_ENERGY>  (1) 
47.9948

>  <PUBCHEM_FEATURE_SELFOVERLAP>  (1) 
25.371

>  <PUBCHEM_SHAPE_FINGERPRINT>  (1) 
10465860 250 18201998815601054576
11128504 68 15574720196684093606
11132069 177 13542469773410109441
11401426 45 14836403631811044713
117890 112 10663825173958808891
12186901 62 17603856776640747045
124424 183 18273210906962124945
12507560 40 18409160043363609924
12596602 18 15625932166750860654
12633257 1 17774175620488300883
13288520 33 18187365410983451047
13533116 47 14117527502217367990
13675066 3 18130779071172595912
13760787 5 17917986208992894285
14251731 8 18335700511770050438
14341114 176 18335707156089913856
14911166 2 14345798253309767132
14993402 34 14851606587251002556
17804303 29 18261110781313775287
17834072 33 17822296807607803860
18186145 218 16877936178642054212
19784866 240 18337679624743225650
200 152 18201718444346432426
20645477 70 18412263939456724174
21267235 1 18186526509919364491
21618674 57 18272654549862611779
22094290 60 17676202455204021548
2215653 11 18409441462568893583
2297311 6 18333738991689963821
23175994 123 18059856164333868169
23184049 59 16988561316530644364
23402539 116 18201993322992082205
23559900 14 18260826054888897249
26918003 58 18272367560111112306
2838139 119 17203327751013148089
296302 2 8502378845167259721
3004659 81 17822572703981718210
3286 77 17631442531397324849
345986 75 15768373756849215750
4072396 5 17131836443125777143
42 15 18411136939399852766
4214541 1 18333729091917109229
465052 167 18341619226118412590
474 4 13758068640804009722
4990 188 17312820464037030824
5104073 3 18339645641443095177
59755656 215 17968371269923722315
633830 44 16153426181326623997
77779 3 18260266382053428180
9709674 26 18042689592215622882

>  <PUBCHEM_SHAPE_MULTIPOLES>  (1) 
331.73
10.64
1.46
1.19
2.61
0.12
-0.11
-4.24
0.6
0.5
0.21
0.22
0.11
0.4

>  <PUBCHEM_SHAPE_SELFOVERLAP>  (1) 
691.72

>  <PUBCHEM_SHAPE_VOLUME>  (1) 
191.3

>  <PUBCHEM_COORDINATE_TYPE>  (1) 
2
5
10

$$$$
