433
     RDKit          3D

 14 15  0  0  1  0  0  0  0  0999 V2000
   -3.1471   -0.8976   -1.1326 O   0  0  0  0  0  0  0  0  0  0  0  0
   -1.9519    2.6383    0.2366 O   0  0  0  0  0  0  0  0  0  0  0  0
   -1.4674    0.3801   -0.0882 N   0  0  0  0  0  0  0  0  0  0  0  0
    2.4248   -0.5349   -1.4666 N   0  0  0  0  0  0  0  0  0  0  0  0
   -0.4353    0.1728    0.9160 C   0  0  0  0  0  0  0  0  0  0  0  0
   -0.8943   -1.1099    1.6088 C   0  0  0  0  0  0  0  0  0  0  0  0
   -1.6901   -1.8610    0.5451 C   0  0  0  0  0  0  0  0  0  0  0  0
   -2.2311   -0.7600   -0.3352 C   0  0  0  0  0  0  0  0  0  0  0  0
    0.9708    0.0690    0.3618 C   0  0  0  0  0  0  0  0  0  0  0  0
   -1.6535    1.6607   -0.7413 C   0  0  0  0  0  0  0  0  0  0  0  0
    2.0649    0.4571    1.1218 C   0  0  0  0  0  0  0  0  0  0  0  0
    1.1971   -0.4157   -0.9133 C   0  0  0  0  0  0  0  0  0  0  0  0
    3.3440    0.3495    0.5871 C   0  0  0  0  0  0  0  0  0  0  0  0
    3.4691   -0.1483   -0.7000 C   0  0  0  0  0  0  0  0  0  0  0  0
  1  8  2  0
  2 10  1  0
  3  5  1  0
  3  8  1  0
  3 10  1  0
  4 12  2  0
  4 14  1  0
  5  6  1  0
  5  9  1  0
  6  7  1  0
  7  8  1  0
  9 11  2  0
  9 12  1  0
 11 13  1  0
 13 14  2  0
M  END
>  <PUBCHEM_COMPOUND_CID>  (1) 
433

>  <PUBCHEM_CONFORMER_RMSD>  (1) 
0.6

>  <PUBCHEM_CONFORMER_DIVERSEORDER>  (1) 
1
23
12
5
18
17
8
11
20
13
16
15
4
21
19
14
7
6
3
2
22
10
9

>  <PUBCHEM_MMFF94_PARTIAL_CHARGES>  (1) 
18
1 -0.57
10 0.58
11 -0.15
12 0.16
13 -0.15
14 0.16
2 -0.68
22 0.15
23 0.15
24 0.15
25 0.4
26 0.15
3 -0.66
4 -0.62
5 0.44
7 0.06
8 0.57
9 -0.14

>  <PUBCHEM_EFFECTIVE_ROTOR_COUNT>  (1) 
2.8

>  <PUBCHEM_PHARMACOPHORE_FEATURES>  (1) 
6
1 1 acceptor
1 2 acceptor
1 2 donor
1 4 acceptor
5 3 5 6 7 8 rings
6 4 9 11 12 13 14 rings

>  <PUBCHEM_HEAVY_ATOM_COUNT>  (1) 
14

>  <PUBCHEM_ATOM_DEF_STEREO_COUNT>  (1) 
0

>  <PUBCHEM_ATOM_UDEF_STEREO_COUNT>  (1) 
1

>  <PUBCHEM_BOND_DEF_STEREO_COUNT>  (1) 
0

>  <PUBCHEM_BOND_UDEF_STEREO_COUNT>  (1) 
0

>  <PUBCHEM_ISOTOPIC_ATOM_COUNT>  (1) 
0

>  <PUBCHEM_COMPONENT_COUNT>  (1) 
1

>  <PUBCHEM_CACTVS_TAUTO_COUNT>  (1) 
2

>  <PUBCHEM_CONFORMER_ID>  (1) 
000001B100000001

>  <PUBCHEM_MMFF94_ENERGY>  (1) 
31.6661

>  <PUBCHEM_FEATURE_SELFOVERLAP>  (1) 
30.447

>  <PUBCHEM_SHAPE_FINGERPRINT>  (1) 
12138202 97 18269834224832484644
12423570 1 13676195337102791589
12532896 13 18265055717544674425
12716758 59 18338799996531188858
12932764 1 18271537415931389242
13024252 1 17676213489365343035
13299463 15 18131632278946922742
13839132 238 18338513015443561828
14713566 1 17531237400632705835
15775835 57 17459180807269611693
16945 1 18334011713523357579
17844478 74 18060139881146019278
18534176 82 18334579078650521954
19837323 101 18261963937991599985
200 152 16128653050433939791
20201158 50 17917992814715899022
20711985 344 18410856547023984769
21501502 16 18264481793865435178
21524375 3 17830738651596075297
22802520 49 18269563740682177222
228727 97 18040986346036101377
23402539 116 18336530690483604735
23557571 272 18045228377786299170
23559900 14 18115013221677238304
25 1 17626957378106195841
276578 36 17899706647919124993
3248919 1 17821732732441632802
369184 2 16415489250136735283
430814 3 17754185184555674373
5084963 1 17917715742301868458
57812782 119 18343294903440307170
63268167 104 15646769011692538100
74978 22 16298672767289493234
77492 1 16877936144403401360
8030462 33 18040996241556465842
81228 2 18409172112469527761

>  <PUBCHEM_SHAPE_MULTIPOLES>  (1) 
266.41
5.01
1.71
1.36
2.71
0.85
-0.03
-0.1
-1.18
-1.89
0.28
0.28
-0.23
0.18

>  <PUBCHEM_SHAPE_SELFOVERLAP>  (1) 
562.392

>  <PUBCHEM_SHAPE_VOLUME>  (1) 
149.8

>  <PUBCHEM_COORDINATE_TYPE>  (1) 
2
5
10

$$$$
