43303
     RDKit          3D

 17 17  0  0  0  0  0  0  0  0999 V2000
   -6.1579   -0.2738    0.3328 Br  0  0  0  0  0  0  0  0  0  0  0  0
    2.6919    1.2664   -1.1630 O   0  0  0  0  0  0  0  0  0  0  0  0
    2.8615    0.3220    0.9590 N   0  0  0  0  0  0  0  0  0  0  0  0
   -0.0611   -0.1703   -0.3385 C   0  0  0  0  0  0  0  0  0  0  0  0
    0.6996    0.8746    0.0605 C   0  0  0  0  0  0  0  0  0  0  0  0
   -1.5338   -0.1968   -0.1773 C   0  0  0  0  0  0  0  0  0  0  0  0
    0.4912   -1.4018   -1.0109 C   0  0  0  0  0  0  0  0  0  0  0  0
    2.1856    0.8621   -0.1205 C   0  0  0  0  0  0  0  0  0  0  0  0
    0.1910    2.1357    0.6972 C   0  0  0  0  0  0  0  0  0  0  0  0
   -2.3282    0.3000   -1.1923 C   0  0  0  0  0  0  0  0  0  0  0  0
   -2.0715   -0.7161    0.9845 C   0  0  0  0  0  0  0  0  0  0  0  0
   -3.7145    0.2767   -1.0397 C   0  0  0  0  0  0  0  0  0  0  0  0
   -3.4579   -0.7396    1.1371 C   0  0  0  0  0  0  0  0  0  0  0  0
    4.2885    0.1710    0.9741 C   0  0  0  0  0  0  0  0  0  0  0  0
   -4.2795   -0.2432    0.1250 C   0  0  0  0  0  0  0  0  0  0  0  0
    4.7084   -1.1576    0.4247 C   0  0  0  0  0  0  0  0  0  0  0  0
    5.4868   -1.3091   -0.6528 C   0  0  0  0  0  0  0  0  0  0  0  0
  1 15  1  0
  2  8  2  0
  3  8  1  0
  3 14  1  0
  4  5  2  0
  4  6  1  0
  4  7  1  0
  5  8  1  0
  5  9  1  0
  6 10  2  0
  6 11  1  0
 10 12  1  0
 11 13  2  0
 12 15  2  0
 13 15  1  0
 14 16  1  0
 16 17  2  0
M  END
>  <PUBCHEM_COMPOUND_CID>  (1) 
43303

>  <PUBCHEM_CONFORMER_RMSD>  (1) 
0.6

>  <PUBCHEM_CONFORMER_DIVERSEORDER>  (1) 
1
17
7
14
6
11
15
16
8
5
9
4
10
3
13
2
12

>  <PUBCHEM_MMFF94_PARTIAL_CHARGES>  (1) 
25
1 -0.11
10 -0.15
11 -0.15
12 -0.15
13 -0.15
14 0.44
15 0.11
16 -0.29
17 -0.3
2 -0.57
24 0.15
25 0.15
26 0.37
27 0.15
28 0.15
3 -0.73
31 0.15
32 0.15
33 0.15
4 -0.17
5 -0.12
6 0.03
7 0.14
8 0.62
9 0.14

>  <PUBCHEM_EFFECTIVE_ROTOR_COUNT>  (1) 
5

>  <PUBCHEM_PHARMACOPHORE_FEATURES>  (1) 
7
1 1 hydrophobe
1 17 hydrophobe
1 2 acceptor
1 3 donor
1 7 hydrophobe
1 9 hydrophobe
6 6 10 11 12 13 15 rings

>  <PUBCHEM_HEAVY_ATOM_COUNT>  (1) 
17

>  <PUBCHEM_ATOM_DEF_STEREO_COUNT>  (1) 
0

>  <PUBCHEM_ATOM_UDEF_STEREO_COUNT>  (1) 
0

>  <PUBCHEM_BOND_DEF_STEREO_COUNT>  (1) 
0

>  <PUBCHEM_BOND_UDEF_STEREO_COUNT>  (1) 
1

>  <PUBCHEM_ISOTOPIC_ATOM_COUNT>  (1) 
0

>  <PUBCHEM_COMPONENT_COUNT>  (1) 
1

>  <PUBCHEM_CACTVS_TAUTO_COUNT>  (1) 
2

>  <PUBCHEM_CONFORMER_ID>  (1) 
0000A92700000001

>  <PUBCHEM_MMFF94_ENERGY>  (1) 
42.3012

>  <PUBCHEM_FEATURE_SELFOVERLAP>  (1) 
35.522

>  <PUBCHEM_SHAPE_FINGERPRINT>  (1) 
11128504 68 13479135687869229506
12186901 62 16515673430061271943
12236239 1 16988840588342236423
124424 183 18333728039866217673
12596602 18 17274815895730564251
13288520 33 17095522890213022667
13533116 47 17346317077356525806
13675066 3 18337381721237039544
13760787 5 18341326777220510485
14251718 22 16008753506754281470
14573314 32 17603861165728382998
17804303 29 17458625635665181675
17834072 33 15068344522736845822
17862501 102 16559025000027328998
1813 80 18130518461363631524
18186145 218 16370998641774260516
19489759 90 13901905609282591238
19784866 240 18114750347850295986
200 152 18202277022635036983
20645477 70 18334011709681999278
2215653 11 18113611266319959567
2297311 6 17530969059813575471
23175994 123 18409165519584036265
23184049 59 18131348626769835646
23402539 116 14333118681224201197
23557571 272 17458624476150567437
23559900 14 17386008432963404877
2838139 119 18059851707092069817
296302 2 9943534024529241077
345986 75 17273409470768247082
34797466 226 17095534989109769110
4072396 5 18131068221076496915
465052 167 18334018293645688226
474 4 16701735085157143873
5104073 3 17631732811157453547
59755656 215 18270400486279726351

>  <PUBCHEM_SHAPE_MULTIPOLES>  (1) 
344.94
12.07
1.44
1.2
0.13
0.37
-0.05
-3.98
1.5
1.23
-0.01
-0.18
-0.03
0.42

>  <PUBCHEM_SHAPE_SELFOVERLAP>  (1) 
691.602

>  <PUBCHEM_SHAPE_VOLUME>  (1) 
208.1

>  <PUBCHEM_COORDINATE_TYPE>  (1) 
2
5
10

$$$$
