43306
     RDKit          3D

 17 17  0  0  0  0  0  0  0  0999 V2000
   -5.5975   -0.3998   -0.3464 F   0  0  0  0  0  0  0  0  0  0  0  0
    2.6155    1.5173    1.1232 O   0  0  0  0  0  0  0  0  0  0  0  0
    2.8690    0.3586   -0.8843 N   0  0  0  0  0  0  0  0  0  0  0  0
   -0.0716   -0.0781    0.3869 C   0  0  0  0  0  0  0  0  0  0  0  0
   -1.5380   -0.1641    0.1933 C   0  0  0  0  0  0  0  0  0  0  0  0
    0.6723    0.9404   -0.1018 C   0  0  0  0  0  0  0  0  0  0  0  0
    0.4944   -1.2149    1.2000 C   0  0  0  0  0  0  0  0  0  0  0  0
   -2.0293   -0.8198   -0.9189 C   0  0  0  0  0  0  0  0  0  0  0  0
   -2.3732    0.4145    1.1293 C   0  0  0  0  0  0  0  0  0  0  0  0
    0.1469    2.1113   -0.8811 C   0  0  0  0  0  0  0  0  0  0  0  0
    2.1532    0.9903    0.1160 C   0  0  0  0  0  0  0  0  0  0  0  0
   -3.4096   -0.9002   -1.1023 C   0  0  0  0  0  0  0  0  0  0  0  0
   -3.7537    0.3340    0.9461 C   0  0  0  0  0  0  0  0  0  0  0  0
   -4.2720   -0.3234   -0.1697 C   0  0  0  0  0  0  0  0  0  0  0  0
    4.3084    0.2358   -0.8670 C   0  0  0  0  0  0  0  0  0  0  0  0
    4.7209   -0.9969   -0.1888 C   0  0  0  0  0  0  0  0  0  0  0  0
    5.0642   -2.0051    0.3655 C   0  0  0  0  0  0  0  0  0  0  0  0
  1 14  1  0
  2 11  2  0
  3 11  1  0
  3 15  1  0
  4  5  1  0
  4  6  2  0
  4  7  1  0
  5  8  2  0
  5  9  1  0
  6 10  1  0
  6 11  1  0
  8 12  1  0
  9 13  2  0
 12 14  2  0
 13 14  1  0
 15 16  1  0
 16 17  3  0
M  END
>  <PUBCHEM_COMPOUND_CID>  (1) 
43306

>  <PUBCHEM_CONFORMER_RMSD>  (1) 
0.6

>  <PUBCHEM_CONFORMER_DIVERSEORDER>  (1) 
1
10
8
6
9
5
11
3
7
4
2

>  <PUBCHEM_MMFF94_PARTIAL_CHARGES>  (1) 
23
1 -0.19
10 0.14
11 0.62
12 -0.15
13 -0.15
14 0.19
15 0.5
16 -0.2
17 -0.18
2 -0.57
21 0.15
22 0.15
26 0.15
27 0.15
28 0.37
3 -0.73
31 0.18
4 -0.17
5 0.03
6 -0.12
7 0.14
8 -0.15
9 -0.15

>  <PUBCHEM_EFFECTIVE_ROTOR_COUNT>  (1) 
4

>  <PUBCHEM_PHARMACOPHORE_FEATURES>  (1) 
6
1 10 hydrophobe
1 17 hydrophobe
1 2 acceptor
1 3 donor
1 7 hydrophobe
6 5 8 9 12 13 14 rings

>  <PUBCHEM_HEAVY_ATOM_COUNT>  (1) 
17

>  <PUBCHEM_ATOM_DEF_STEREO_COUNT>  (1) 
0

>  <PUBCHEM_ATOM_UDEF_STEREO_COUNT>  (1) 
0

>  <PUBCHEM_BOND_DEF_STEREO_COUNT>  (1) 
0

>  <PUBCHEM_BOND_UDEF_STEREO_COUNT>  (1) 
1

>  <PUBCHEM_ISOTOPIC_ATOM_COUNT>  (1) 
0

>  <PUBCHEM_COMPONENT_COUNT>  (1) 
1

>  <PUBCHEM_CACTVS_TAUTO_COUNT>  (1) 
2

>  <PUBCHEM_CONFORMER_ID>  (1) 
0000A92A00000001

>  <PUBCHEM_MMFF94_ENERGY>  (1) 
41.2932

>  <PUBCHEM_FEATURE_SELFOVERLAP>  (1) 
30.446

>  <PUBCHEM_SHAPE_FINGERPRINT>  (1) 
10062212 137 18273497866264257318
10465860 250 15985106301316710842
12186901 62 15213018249797728239
12236239 1 18343585148871929763
12390115 104 15430585140463930727
12592029 89 18059867146507507583
12670543 26 17895188866441183263
12670546 56 17775282767987401096
13583140 156 15840978945951738346
13760787 5 18187375324058062052
15848702 151 18201160957734135334
16752209 62 17749941177141535064
17862501 102 17989489610494274138
1813 80 18337122185037829348
18186145 218 18188201121620176621
19784866 140 17822008670878367026
200 152 18342457032197563797
20369508 70 18343300375534493536
20645477 70 18186524293869402242
20832881 197 18410856534191947488
22713019 99 18335141986113277722
23175994 123 17531252763868062165
23253445 4 14476952390060157706
23402539 116 18411982429503135724
23493267 7 16153425025980551280
23559900 14 16702026426153806688
3286 77 18131348614001283768
34797466 226 15140976057576054742
4990 188 16153431649368500898
5104073 3 17489028274830123011
5374978 207 16271927142379687362
559249 180 18129662989360772239
573450 72 17775850094523007314
633830 44 17749104534454513413
67856867 119 17488733627151772672
76465 3 18343297046745019566
9971528 1 18336542810818562596
9981440 41 17190367024675375560

>  <PUBCHEM_SHAPE_MULTIPOLES>  (1) 
331.73
10.48
1.63
1.17
2.16
0.23
0.07
-4.42
-1.29
1.64
-0.02
-0.34
0.01
-0.54

>  <PUBCHEM_SHAPE_SELFOVERLAP>  (1) 
683.566

>  <PUBCHEM_SHAPE_VOLUME>  (1) 
191.9

>  <PUBCHEM_COORDINATE_TYPE>  (1) 
2
5
10

$$$$
