43304
     RDKit          3D

 17 17  0  0  0  0  0  0  0  0999 V2000
    2.6649    1.2643   -1.1709 O   0  0  0  0  0  0  0  0  0  0  0  0
    2.8403    0.3273    0.9540 N   0  0  0  0  0  0  0  0  0  0  0  0
   -0.0851   -0.1715   -0.3348 C   0  0  0  0  0  0  0  0  0  0  0  0
   -1.5573   -0.1985   -0.1699 C   0  0  0  0  0  0  0  0  0  0  0  0
    0.6759    0.8752    0.0587 C   0  0  0  0  0  0  0  0  0  0  0  0
   -2.3544    0.2942   -1.1848 C   0  0  0  0  0  0  0  0  0  0  0  0
   -2.0922   -0.7149    0.9945 C   0  0  0  0  0  0  0  0  0  0  0  0
    0.4665   -1.4050   -1.0042 C   0  0  0  0  0  0  0  0  0  0  0  0
   -4.3023   -0.2471    0.1380 C   0  0  0  0  0  0  0  0  0  0  0  0
   -3.7403    0.2698   -1.0294 C   0  0  0  0  0  0  0  0  0  0  0  0
   -3.4782   -0.7395    1.1500 C   0  0  0  0  0  0  0  0  0  0  0  0
    2.1614    0.8632   -0.1258 C   0  0  0  0  0  0  0  0  0  0  0  0
    0.1679    2.1382    0.6923 C   0  0  0  0  0  0  0  0  0  0  0  0
   -5.7842   -0.2726    0.3042 C   0  0  0  0  0  0  0  0  0  0  0  0
    4.2674    0.1773    0.9661 C   0  0  0  0  0  0  0  0  0  0  0  0
    4.6870   -1.1528    0.4204 C   0  0  0  0  0  0  0  0  0  0  0  0
    5.4628   -1.3075   -0.6585 C   0  0  0  0  0  0  0  0  0  0  0  0
  1 12  2  0
  2 12  1  0
  2 15  1  0
  3  4  1  0
  3  5  2  0
  3  8  1  0
  4  6  2  0
  4  7  1  0
  5 12  1  0
  5 13  1  0
  6 10  1  0
  7 11  2  0
  9 10  2  0
  9 11  1  0
  9 14  1  0
 15 16  1  0
 16 17  2  0
M  END
>  <PUBCHEM_COMPOUND_CID>  (1) 
43304

>  <PUBCHEM_CONFORMER_RMSD>  (1) 
0.6

>  <PUBCHEM_CONFORMER_DIVERSEORDER>  (1) 
1
17
7
15
6
12
16
11
8
5
3
10
14
9
2
13
4

>  <PUBCHEM_MMFF94_PARTIAL_CHARGES>  (1) 
25
1 -0.57
10 -0.15
11 -0.15
12 0.62
13 0.14
14 0.14
15 0.44
16 -0.29
17 -0.3
18 0.15
19 0.15
2 -0.73
23 0.15
24 0.15
28 0.37
3 -0.17
34 0.15
35 0.15
36 0.15
4 0.03
5 -0.12
6 -0.15
7 -0.15
8 0.14
9 -0.14

>  <PUBCHEM_EFFECTIVE_ROTOR_COUNT>  (1) 
5

>  <PUBCHEM_PHARMACOPHORE_FEATURES>  (1) 
6
1 1 acceptor
1 13 hydrophobe
1 17 hydrophobe
1 2 donor
1 8 hydrophobe
6 4 6 7 9 10 11 rings

>  <PUBCHEM_HEAVY_ATOM_COUNT>  (1) 
17

>  <PUBCHEM_ATOM_DEF_STEREO_COUNT>  (1) 
0

>  <PUBCHEM_ATOM_UDEF_STEREO_COUNT>  (1) 
0

>  <PUBCHEM_BOND_DEF_STEREO_COUNT>  (1) 
0

>  <PUBCHEM_BOND_UDEF_STEREO_COUNT>  (1) 
1

>  <PUBCHEM_ISOTOPIC_ATOM_COUNT>  (1) 
0

>  <PUBCHEM_COMPONENT_COUNT>  (1) 
1

>  <PUBCHEM_CACTVS_TAUTO_COUNT>  (1) 
2

>  <PUBCHEM_CONFORMER_ID>  (1) 
0000A92800000001

>  <PUBCHEM_MMFF94_ENERGY>  (1) 
43.927

>  <PUBCHEM_FEATURE_SELFOVERLAP>  (1) 
30.446

>  <PUBCHEM_SHAPE_FINGERPRINT>  (1) 
11128504 68 13479135687863961242
12186901 62 16515673430082370951
12236239 1 16988559113354982743
124424 183 18333446564910599545
12596602 18 17275097370728380410
13288520 33 17167861954848297923
13533116 47 17274822437614452782
13675066 3 18337381721210665784
13760787 5 18341608252181403381
14251718 22 15936414442024067142
14573314 32 17603861165733657742
17804303 29 17458344160730669043
17834072 33 15140683591788407686
17862501 102 16558743525018976286
1813 80 18130518461363631532
18186145 218 16153418489034954468
19489759 90 13901906708757295734
19784866 240 18114186294127222346
200 152 18273208712413139211
20645477 70 18334294284175605966
21728266 224 15410314642255897365
2215653 11 18113892741307219743
2297311 6 17530969059771390439
23175994 123 18409165519594579289
23184049 59 18131348631033147934
23402539 116 14476952394265304645
23557571 272 17530963540806941741
23559900 14 17386288804091328957
2838139 119 18059851707092069809
296302 2 10087649212620921205
3004659 81 16443619092167977410
345986 75 17273129095313713706
34797466 226 17095536088626684622
4072396 5 18130785642298465931
42 15 18131913754282290514
465052 167 18334300872460655458
474 4 16629677491082299177
5104073 3 16056309656709552699
573450 72 15841544176242903302
59755656 215 18270963427632598639

>  <PUBCHEM_SHAPE_MULTIPOLES>  (1) 
339
11.34
1.44
1.2
2.32
0.39
-0.04
-3.85
1.23
1.19
-0.02
-0.2
-0.03
0.42

>  <PUBCHEM_SHAPE_SELFOVERLAP>  (1) 
692.154

>  <PUBCHEM_SHAPE_VOLUME>  (1) 
198.1

>  <PUBCHEM_COORDINATE_TYPE>  (1) 
2
5
10

$$$$
