43312
     RDKit          3D

 20 23  0  0  0  0  0  0  0  0999 V2000
    2.9260    1.5764    0.2267 O   0  0  0  0  0  0  0  0  0  0  0  0
    2.3953   -0.7205    0.2750 N   0  0  0  0  0  0  0  0  0  0  0  0
    4.7130   -0.0411    0.3756 C   0  0  0  0  0  0  0  0  0  0  0  0
    5.7717    1.0614    0.1658 C   0  0  0  0  0  0  0  0  0  0  0  0
    5.3100   -0.7431   -0.8621 C   0  0  0  0  0  0  0  0  0  0  0  0
    6.6280   -0.0039   -0.5501 C   0  0  0  0  0  0  0  0  0  0  0  0
    3.2304    0.3898    0.2833 C   0  0  0  0  0  0  0  0  0  0  0  0
   -1.0488    0.5051    0.0554 C   0  0  0  0  0  0  0  0  0  0  0  0
   -1.9947    1.6846   -0.0306 C   0  0  0  0  0  0  0  0  0  0  0  0
   -1.7713   -0.7092    0.0562 C   0  0  0  0  0  0  0  0  0  0  0  0
    1.0017   -0.6988    0.2006 C   0  0  0  0  0  0  0  0  0  0  0  0
   -3.3428    0.9964   -0.0789 C   0  0  0  0  0  0  0  0  0  0  0  0
   -3.1839   -0.4067   -0.0263 C   0  0  0  0  0  0  0  0  0  0  0  0
    0.3330    0.5245    0.1269 C   0  0  0  0  0  0  0  0  0  0  0  0
   -1.1076   -1.9225    0.1292 C   0  0  0  0  0  0  0  0  0  0  0  0
    0.2888   -1.9100    0.2018 C   0  0  0  0  0  0  0  0  0  0  0  0
   -4.5950    1.5796   -0.1612 C   0  0  0  0  0  0  0  0  0  0  0  0
   -4.2887   -1.2414   -0.0563 C   0  0  0  0  0  0  0  0  0  0  0  0
   -5.7084    0.7380   -0.1914 C   0  0  0  0  0  0  0  0  0  0  0  0
   -5.5569   -0.6584   -0.1395 C   0  0  0  0  0  0  0  0  0  0  0  0
  1  7  2  0
  2  7  1  0
  2 11  1  0
  3  4  1  0
  3  5  1  0
  3  7  1  0
  4  6  1  0
  5  6  1  0
  8  9  1  0
  8 10  2  0
  8 14  1  0
  9 12  1  0
 10 13  1  0
 10 15  1  0
 11 14  2  0
 11 16  1  0
 12 13  2  0
 12 17  1  0
 13 18  1  0
 15 16  2  0
 17 19  2  0
 18 20  2  0
 19 20  1  0
M  END
>  <PUBCHEM_COMPOUND_CID>  (1) 
43312

>  <PUBCHEM_CONFORMER_RMSD>  (1) 
0.6

>  <PUBCHEM_CONFORMER_DIVERSEORDER>  (1) 
1
4
6
9
7
10
8
3
2
11
5

>  <PUBCHEM_MMFF94_PARTIAL_CHARGES>  (1) 
23
1 -0.57
11 0.12
12 -0.14
14 -0.15
15 -0.15
16 -0.15
17 -0.15
18 -0.15
19 -0.15
2 -0.55
20 -0.15
28 0.37
3 0.05
31 0.15
32 0.15
33 0.15
34 0.15
35 0.15
36 0.15
37 0.15
7 0.58
8 -0.14
9 0.29

>  <PUBCHEM_EFFECTIVE_ROTOR_COUNT>  (1) 
4

>  <PUBCHEM_PHARMACOPHORE_FEATURES>  (1) 
6
1 1 acceptor
1 2 donor
4 3 4 5 6 rings
5 8 9 10 12 13 rings
6 12 13 17 18 19 20 rings
6 8 10 11 14 15 16 rings

>  <PUBCHEM_HEAVY_ATOM_COUNT>  (1) 
20

>  <PUBCHEM_ATOM_DEF_STEREO_COUNT>  (1) 
0

>  <PUBCHEM_ATOM_UDEF_STEREO_COUNT>  (1) 
0

>  <PUBCHEM_BOND_DEF_STEREO_COUNT>  (1) 
0

>  <PUBCHEM_BOND_UDEF_STEREO_COUNT>  (1) 
0

>  <PUBCHEM_ISOTOPIC_ATOM_COUNT>  (1) 
0

>  <PUBCHEM_COMPONENT_COUNT>  (1) 
1

>  <PUBCHEM_CACTVS_TAUTO_COUNT>  (1) 
2

>  <PUBCHEM_CONFORMER_ID>  (1) 
0000A93000000001

>  <PUBCHEM_MMFF94_ENERGY>  (1) 
67.7842

>  <PUBCHEM_FEATURE_SELFOVERLAP>  (1) 
30.612

>  <PUBCHEM_SHAPE_FINGERPRINT>  (1) 
10411042 1 17905047303020265707
106641 1 14779560001404275337
10730089 173 18411700984575202804
10968037 39 18408602565894323255
11315181 36 18060142054463015232
11524674 6 16200151014744698351
11578080 2 17025138632687391343
12011746 2 18409445886268949261
12107183 9 17541933192033862184
12166972 35 18335142024378080484
12236239 1 17749388165747477602
12390115 104 18199196100643957081
12403259 415 18340476828994402536
12916748 109 18411139130413481000
13288520 33 18342458158180569909
13402501 40 18413670214559832064
13533116 47 13398360040860650364
13631057 29 16951135109374813187
13668630 136 16271933714175496806
14251764 18 18259980475614570906
14528608 73 18409165519757739318
15042514 8 18193841672459326419
15099037 51 18412263947782752140
15183329 4 18342182125043662682
15196674 1 18410009897068840611
15778101 99 18342742867389389665
17834072 8 18272092691157846414
17980427 23 14418133959750655391
18681886 176 18411412955610546840
19489759 90 18040152920464427849
200 152 16917069953732645138
20281389 69 18040994038570786060
20645477 70 17489597719322598614
21267235 1 18410296956347080795
21279426 13 18268713805646647390
21709351 56 18335695061868294733
221357 26 18131069325257995824
2215653 11 18060143124616532846
22224240 67 13767930148056848952
2297311 6 18272094889395488572
23402539 116 18342451564788572879
23536379 177 16128659630429254218
23559900 14 18272363226331056720
293599 30 18409448072375608907
3004659 81 18335423427394959566
335352 9 18410855481661163845
34797466 226 17917438657082648820
34934 24 18335976464347226603
350125 39 18408885131070651101
351380 180 18341894108314704596
3545911 37 18411138030358475722
4073 2 18041564758489363410
4214541 1 18411136948095457800
4325135 7 18412823599565436847
4340502 62 16081090359528781834
474229 33 18410011044120605123
5104073 3 18189620445682828107
542803 24 17168144537747138436
5486654 2 18410572881825027411
59682541 35 18261401083160410465
59755656 215 18341335513616695654
59755656 520 17749104508548280907
6138700 20 18411420570993711862
9996256 80 18341894112483435159

>  <PUBCHEM_SHAPE_MULTIPOLES>  (1) 
400.74
15.16
1.73
0.69
12.42
0.15
0.04
-2.66
2.18
-0.99
-0.05
0.33
0.03
0.33

>  <PUBCHEM_SHAPE_SELFOVERLAP>  (1) 
888.737

>  <PUBCHEM_SHAPE_VOLUME>  (1) 
217.2

>  <PUBCHEM_COORDINATE_TYPE>  (1) 
2
5
10

$$$$
