43317
     RDKit          3D

 19 22  0  0  0  0  0  0  0  0999 V2000
    3.2862   -1.5401    0.2423 O   0  0  0  0  0  0  0  0  0  0  0  0
    2.7439    0.7545    0.2229 N   0  0  0  0  0  0  0  0  0  0  0  0
    5.0305    0.0759    0.3268 C   0  0  0  0  0  0  0  0  0  0  0  0
    5.7215    0.3831   -0.9486 C   0  0  0  0  0  0  0  0  0  0  0  0
    6.0556   -0.8651   -0.1856 C   0  0  0  0  0  0  0  0  0  0  0  0
    3.5849   -0.3508    0.2598 C   0  0  0  0  0  0  0  0  0  0  0  0
   -0.6951   -0.4948    0.0652 C   0  0  0  0  0  0  0  0  0  0  0  0
   -1.6354   -1.6812    0.0224 C   0  0  0  0  0  0  0  0  0  0  0  0
   -1.4239    0.7154    0.0333 C   0  0  0  0  0  0  0  0  0  0  0  0
    1.3500    0.7234    0.1588 C   0  0  0  0  0  0  0  0  0  0  0  0
   -2.9873   -1.0015   -0.0379 C   0  0  0  0  0  0  0  0  0  0  0  0
   -2.8355    0.4033   -0.0300 C   0  0  0  0  0  0  0  0  0  0  0  0
    0.6872   -0.5048    0.1276 C   0  0  0  0  0  0  0  0  0  0  0  0
   -0.7661    1.9337    0.0640 C   0  0  0  0  0  0  0  0  0  0  0  0
    0.6307    1.9305    0.1273 C   0  0  0  0  0  0  0  0  0  0  0  0
   -4.2370   -1.5933   -0.0934 C   0  0  0  0  0  0  0  0  0  0  0  0
   -3.9449    1.2310   -0.0783 C   0  0  0  0  0  0  0  0  0  0  0  0
   -5.3550   -0.7586   -0.1421 C   0  0  0  0  0  0  0  0  0  0  0  0
   -5.2104    0.6394   -0.1345 C   0  0  0  0  0  0  0  0  0  0  0  0
  1  6  2  0
  2  6  1  0
  2 10  1  0
  3  4  1  0
  3  5  1  0
  3  6  1  0
  4  5  1  0
  7  8  1  0
  7  9  2  0
  7 13  1  0
  8 11  1  0
  9 12  1  0
  9 14  1  0
 10 13  2  0
 10 15  1  0
 11 12  2  0
 11 16  1  0
 12 17  1  0
 14 15  2  0
 16 18  2  0
 17 19  2  0
 18 19  1  0
M  END
>  <PUBCHEM_COMPOUND_CID>  (1) 
43317

>  <PUBCHEM_CONFORMER_RMSD>  (1) 
0.6

>  <PUBCHEM_CONFORMER_DIVERSEORDER>  (1) 
1
4
5
6
2
3

>  <PUBCHEM_MMFF94_PARTIAL_CHARGES>  (1) 
30
1 -0.57
10 0.12
11 -0.14
13 -0.15
14 -0.15
15 -0.15
16 -0.15
17 -0.15
18 -0.15
19 -0.15
2 -0.55
20 0.1
21 0.1
22 0.1
23 0.1
24 0.1
25 0.37
28 0.15
29 0.15
3 -0.1
30 0.15
31 0.15
32 0.15
33 0.15
34 0.15
4 -0.2
5 -0.2
6 0.63
7 -0.14
8 0.29

>  <PUBCHEM_EFFECTIVE_ROTOR_COUNT>  (1) 
3.8

>  <PUBCHEM_PHARMACOPHORE_FEATURES>  (1) 
5
1 1 acceptor
1 2 donor
5 7 8 9 11 12 rings
6 11 12 16 17 18 19 rings
6 7 9 10 13 14 15 rings

>  <PUBCHEM_HEAVY_ATOM_COUNT>  (1) 
19

>  <PUBCHEM_ATOM_DEF_STEREO_COUNT>  (1) 
0

>  <PUBCHEM_ATOM_UDEF_STEREO_COUNT>  (1) 
0

>  <PUBCHEM_BOND_DEF_STEREO_COUNT>  (1) 
0

>  <PUBCHEM_BOND_UDEF_STEREO_COUNT>  (1) 
0

>  <PUBCHEM_ISOTOPIC_ATOM_COUNT>  (1) 
0

>  <PUBCHEM_COMPONENT_COUNT>  (1) 
1

>  <PUBCHEM_CACTVS_TAUTO_COUNT>  (1) 
2

>  <PUBCHEM_CONFORMER_ID>  (1) 
0000A93500000001

>  <PUBCHEM_MMFF94_ENERGY>  (1) 
65.1937

>  <PUBCHEM_FEATURE_SELFOVERLAP>  (1) 
25.536

>  <PUBCHEM_SHAPE_FINGERPRINT>  (1) 
10906281 52 18339381698180001042
10968037 39 18408606976351034540
11315181 36 18059859475727091336
11524674 6 16558747914649925990
11578080 2 16952800654399552943
12011746 2 18342454833221787727
12107183 9 17615402563423305360
12236239 1 17894912919097905734
12403259 415 18411125944785313137
12516196 113 18131349730645262584
12788726 201 18336542703597127768
13288520 33 18412826893425433941
13533116 47 13326585025537547268
13685833 64 18410014372857318827
13740256 8 18410294756695902435
13862211 1 18412258449855692447
14251731 8 18408884031716811261
14251752 14 17894904084160410420
14251764 18 18412830188113665001
14528608 73 18261398884026599044
15042514 8 18195246840046161599
15048467 5 17240482498406987901
15099037 51 18411699898064651487
15196674 1 18411135882848681353
17492 89 17979351186053908423
17804303 29 18342174496506654753
17834072 33 18335703866577442932
17834072 8 18410005533909439365
17844677 252 18273501182337888112
1813 80 17530963575145704396
19141452 34 17917427669949787199
200 152 18060699493936212400
20374829 77 18411416215601214752
20612939 158 17895479231657831612
21033648 29 16701723974092391731
21150785 3 14490470928779278939
21236236 1 18270681965905033273
21267235 1 18410016576513145163
21279426 13 18195528090966472975
221490 88 18191028009196795171
2215653 11 18201433662297677517
2297311 6 18272941505254703372
23035841 295 18409167692905741642
23175994 123 17203610401834496721
23402539 116 18272082803642042719
23522609 53 18194713472936178513
23536379 177 16370720413892870396
23557571 272 18272657801221725100
23559900 14 18270391806013872457
23622692 118 17843391032887554919
239999 70 18202003244624764764
2871803 45 18335702724438057954
3004659 81 18260548888708649562
335352 9 18411134745695107149
34797466 226 17774731952187249780
350125 39 18409167697665335197
3545911 37 18411699876521243155
4214541 1 18410854356553928673
4325135 7 18336267921002305732
4463277 17 18410293622803645088
465052 167 18131073749116255550
5104073 3 18340485663736414705
542803 24 17458345243241756206
559249 180 18409163286042604907
59755656 215 18341618075415538502
59755656 520 16805041822180871034
6138700 20 18410856521339057478
9709674 26 18120934172948745611

>  <PUBCHEM_SHAPE_MULTIPOLES>  (1) 
380.16
13.36
1.75
0.68
10.61
0.19
-0.05
-2.89
-1.72
-0.88
0.04
0.31
0.02
-0.1

>  <PUBCHEM_SHAPE_SELFOVERLAP>  (1) 
846.258

>  <PUBCHEM_SHAPE_VOLUME>  (1) 
205.2

>  <PUBCHEM_COORDINATE_TYPE>  (1) 
2
5
10

$$$$
