43315
     RDKit          3D

 18 20  0  0  0  0  0  0  0  0999 V2000
    5.2430    0.2147    0.0016 O   0  0  0  0  0  0  0  0  0  0  0  0
    3.6981   -1.4715   -0.0011 O   0  0  0  0  0  0  0  0  0  0  0  0
    3.0644    0.7864    0.0003 N   0  0  0  0  0  0  0  0  0  0  0  0
   -1.3020   -1.6809   -0.0009 C   0  0  0  0  0  0  0  0  0  0  0  0
   -0.3692   -0.4877   -0.0014 C   0  0  0  0  0  0  0  0  0  0  0  0
   -1.1075    0.7171   -0.0010 C   0  0  0  0  0  0  0  0  0  0  0  0
   -2.6601   -1.0110   -0.0005 C   0  0  0  0  0  0  0  0  0  0  0  0
   -2.5182    0.3948   -0.0005 C   0  0  0  0  0  0  0  0  0  0  0  0
    1.0146   -0.4879   -0.0015 C   0  0  0  0  0  0  0  0  0  0  0  0
   -0.4579    1.9402   -0.0006 C   0  0  0  0  0  0  0  0  0  0  0  0
   -3.9067   -1.6120    0.0006 C   0  0  0  0  0  0  0  0  0  0  0  0
   -3.6345    1.2146    0.0006 C   0  0  0  0  0  0  0  0  0  0  0  0
    1.6691    0.7452   -0.0010 C   0  0  0  0  0  0  0  0  0  0  0  0
    0.9404    1.9471   -0.0002 C   0  0  0  0  0  0  0  0  0  0  0  0
   -5.0317   -0.7854    0.0017 C   0  0  0  0  0  0  0  0  0  0  0  0
   -4.8971    0.6137    0.0016 C   0  0  0  0  0  0  0  0  0  0  0  0
    3.9644   -0.2759   -0.0001 C   0  0  0  0  0  0  0  0  0  0  0  0
    6.2911   -0.7615    0.0022 C   0  0  0  0  0  0  0  0  0  0  0  0
  1 17  1  0
  1 18  1  0
  2 17  2  0
  3 13  1  0
  3 17  1  0
  4  5  1  0
  4  7  1  0
  5  6  2  0
  5  9  1  0
  6  8  1  0
  6 10  1  0
  7  8  2  0
  7 11  1  0
  8 12  1  0
  9 13  2  0
 10 14  2  0
 11 15  2  0
 12 16  2  0
 13 14  1  0
 15 16  1  0
M  END
>  <PUBCHEM_COMPOUND_CID>  (1) 
43315

>  <PUBCHEM_CONFORMER_RMSD>  (1) 
0.6

>  <PUBCHEM_CONFORMER_DIVERSEORDER>  (1) 
1
5
6
9
2
3
7
4
8

>  <PUBCHEM_MMFF94_PARTIAL_CHARGES>  (1) 
24
1 -0.43
10 -0.15
11 -0.15
12 -0.15
13 0.12
14 -0.15
15 -0.15
16 -0.15
17 0.78
18 0.28
2 -0.57
21 0.15
22 0.15
23 0.15
24 0.15
25 0.15
26 0.15
27 0.15
28 0.37
3 -0.55
4 0.29
5 -0.14
7 -0.14
9 -0.15

>  <PUBCHEM_EFFECTIVE_ROTOR_COUNT>  (1) 
3.2

>  <PUBCHEM_PHARMACOPHORE_FEATURES>  (1) 
5
1 2 acceptor
1 3 donor
5 4 5 6 7 8 rings
6 5 6 9 10 13 14 rings
6 7 8 11 12 15 16 rings

>  <PUBCHEM_HEAVY_ATOM_COUNT>  (1) 
18

>  <PUBCHEM_ATOM_DEF_STEREO_COUNT>  (1) 
0

>  <PUBCHEM_ATOM_UDEF_STEREO_COUNT>  (1) 
0

>  <PUBCHEM_BOND_DEF_STEREO_COUNT>  (1) 
0

>  <PUBCHEM_BOND_UDEF_STEREO_COUNT>  (1) 
0

>  <PUBCHEM_ISOTOPIC_ATOM_COUNT>  (1) 
0

>  <PUBCHEM_COMPONENT_COUNT>  (1) 
1

>  <PUBCHEM_CACTVS_TAUTO_COUNT>  (1) 
2

>  <PUBCHEM_CONFORMER_ID>  (1) 
0000A93300000001

>  <PUBCHEM_MMFF94_ENERGY>  (1) 
60.0137

>  <PUBCHEM_FEATURE_SELFOVERLAP>  (1) 
25.536

>  <PUBCHEM_SHAPE_FINGERPRINT>  (1) 
10062212 137 18342453768539585063
10968037 39 18408325497311419716
11315181 36 18202005434551852720
11401426 45 18412824685553800389
11524674 6 16702017570037050334
12032990 46 18410294739500234913
12107183 9 17688870835216815738
12236239 1 17894632543775260636
12403259 226 18268705190348842457
12715332 25 18059574745550460951
13288520 33 18411420609162880533
13675066 3 18271522095577251201
13690532 89 18410575102064630609
13862211 1 18411415124458306799
14115302 16 17822301222480872966
14251731 8 18335137579007080292
14251764 18 18342181089708455697
15042514 8 18266461104323119339
15099037 51 18410293618519058527
15196674 1 18410574028101357957
15536298 74 18342173431270414833
16945 1 17978510059816298117
17492 89 18050285074760320579
17804303 29 18412546539382680305
17834072 33 18409169947916604844
17834072 8 18335414660722818757
1813 80 17530685398846210988
18186145 218 17240756341337725949
19141452 34 18130786793175959535
19489759 90 15841555154469377811
200 152 17989485234328748759
20374829 77 18409446986107520650
20612939 158 17895198856372064324
21267235 1 18409737278330576995
21279426 13 18194402186738256839
221490 88 18191030212425366659
2297311 6 18272098171515192596
23175994 123 17346602979890455817
23402539 116 18343860022077763743
23557571 272 18272376317781621980
23559900 14 18341888645058730368
23622692 118 17915448614008919455
3004659 81 18259988163505751870
335352 9 18410573985969297973
34934 24 18338511941770393975
3545911 37 18411418402019188707
4214541 1 18410856551203115109
4463277 17 18410012148106496268
5104073 3 18340207496042835921
559249 180 18335698312752316395
6138700 20 18337392647739796730
7364860 26 18196653119164278920
9709674 26 18120091942725848331

>  <PUBCHEM_SHAPE_MULTIPOLES>  (1) 
353.71
11.68
1.82
0.6
11.25
0.24
0
-3.38
0.01
-0.6
0
-0.06
0
0

>  <PUBCHEM_SHAPE_SELFOVERLAP>  (1) 
781.51

>  <PUBCHEM_SHAPE_VOLUME>  (1) 
192

>  <PUBCHEM_COORDINATE_TYPE>  (1) 
2
5
10

$$$$
