43325
     RDKit          3D

 23 24  0  0  0  0  0  0  0  0999 V2000
   -1.3405    0.8617   -0.1337 O   0  0  0  0  0  0  0  0  0  0  0  0
   -0.0195   -0.7645    0.7833 O   0  0  0  0  0  0  0  0  0  0  0  0
    6.3778    0.3850    0.2337 O   0  0  0  0  0  0  0  0  0  0  0  0
   -4.9539    0.1795    0.1773 N   0  0  0  0  0  0  0  0  0  0  0  0
    0.8853    1.1291   -0.2540 N   0  0  0  0  0  0  0  0  0  0  0  0
   -6.0681    1.1287    0.2865 C   0  0  0  0  0  0  0  0  0  0  0  0
   -5.1904   -0.9155   -0.7734 C   0  0  0  0  0  0  0  0  0  0  0  0
   -7.3981    0.5353    0.7616 C   0  0  0  0  0  0  0  0  0  0  0  0
   -6.1164   -1.9857   -0.1964 C   0  0  0  0  0  0  0  0  0  0  0  0
   -8.0926   -0.3032   -0.3038 C   0  0  0  0  0  0  0  0  0  0  0  0
   -7.6088   -1.7444   -0.3955 C   0  0  0  0  0  0  0  0  0  0  0  0
   -3.7314    0.9042   -0.1879 C   0  0  0  0  0  0  0  0  0  0  0  0
   -2.4979    0.1334    0.2545 C   0  0  0  0  0  0  0  0  0  0  0  0
   -0.1279    0.3026    0.1915 C   0  0  0  0  0  0  0  0  0  0  0  0
    2.2806    0.9394   -0.1314 C   0  0  0  0  0  0  0  0  0  0  0  0
    3.1617    1.8899   -0.6472 C   0  0  0  0  0  0  0  0  0  0  0  0
    2.7765   -0.1976    0.5064 C   0  0  0  0  0  0  0  0  0  0  0  0
    5.0344    0.5661    0.1127 C   0  0  0  0  0  0  0  0  0  0  0  0
    6.8520   -0.9604    0.2603 C   0  0  0  0  0  0  0  0  0  0  0  0
    8.2594   -0.9972   -0.3152 C   0  0  0  0  0  0  0  0  0  0  0  0
    4.5387    1.7033   -0.5251 C   0  0  0  0  0  0  0  0  0  0  0  0
    4.1533   -0.3843    0.6285 C   0  0  0  0  0  0  0  0  0  0  0  0
    8.8259   -2.4056   -0.3328 C   0  0  0  0  0  0  0  0  0  0  0  0
  1 13  1  0
  1 14  1  0
  2 14  2  0
  3 18  1  0
  3 19  1  0
  4  6  1  0
  4  7  1  0
  4 12  1  0
  5 14  1  0
  5 15  1  0
  6  8  1  0
  7  9  1  0
  8 10  1  0
  9 11  1  0
 10 11  1  0
 12 13  1  0
 15 16  2  0
 15 17  1  0
 16 21  1  0
 17 22  2  0
 18 21  2  0
 18 22  1  0
 19 20  1  0
 20 23  1  0
M  END
>  <PUBCHEM_COMPOUND_CID>  (1) 
43325

>  <PUBCHEM_CONFORMER_RMSD>  (1) 
1

>  <PUBCHEM_CONFORMER_DIVERSEORDER>  (1) 
1
12
25
10
3
31
8
23
4
33
45
39
32
43
41
5
7
34
22
6
21
9
28
44
38
27
24
11
15
16
30
29
2
40
37
20
26
14
35
13
17
19
36
18
42

>  <PUBCHEM_MMFF94_PARTIAL_CHARGES>  (1) 
22
1 -0.43
12 0.27
13 0.28
14 0.78
15 0.12
16 -0.15
17 -0.15
18 0.08
19 0.28
2 -0.57
21 -0.15
22 -0.15
3 -0.36
4 -0.81
40 0.37
41 0.15
42 0.15
47 0.15
48 0.15
5 -0.55
6 0.27
7 0.27

>  <PUBCHEM_EFFECTIVE_ROTOR_COUNT>  (1) 
10.4

>  <PUBCHEM_PHARMACOPHORE_FEATURES>  (1) 
7
1 2 acceptor
1 23 hydrophobe
1 3 acceptor
1 4 cation
1 5 donor
6 15 16 17 18 21 22 rings
7 4 6 7 8 9 10 11 rings

>  <PUBCHEM_HEAVY_ATOM_COUNT>  (1) 
23

>  <PUBCHEM_ATOM_DEF_STEREO_COUNT>  (1) 
0

>  <PUBCHEM_ATOM_UDEF_STEREO_COUNT>  (1) 
0

>  <PUBCHEM_BOND_DEF_STEREO_COUNT>  (1) 
0

>  <PUBCHEM_BOND_UDEF_STEREO_COUNT>  (1) 
0

>  <PUBCHEM_ISOTOPIC_ATOM_COUNT>  (1) 
0

>  <PUBCHEM_COMPONENT_COUNT>  (1) 
1

>  <PUBCHEM_CACTVS_TAUTO_COUNT>  (1) 
2

>  <PUBCHEM_CONFORMER_ID>  (1) 
0000A93D00000001

>  <PUBCHEM_MMFF94_ENERGY>  (1) 
52.9685

>  <PUBCHEM_FEATURE_SELFOVERLAP>  (1) 
35.52

>  <PUBCHEM_SHAPE_FINGERPRINT>  (1) 
10 15 15985099738986484152
10066227 49 18341613672995036022
10299344 5 18410575093258288271
11315181 36 18272090535527615961
11386260 185 16805890688407510644
11524674 6 16774079614003734895
11638347 137 15554451769768538526
11719270 70 18060421313247423718
12089408 11 18272934938328887401
12091667 2 17676204676810012633
12166972 35 18261393372814119924
12236239 1 18411701019425876421
12592606 108 18410575076563982106
13073987 5 14979691943876732912
13533116 47 16515669027350840872
13668630 136 18334853930898386550
13885169 127 18342458119367907593
14202775 3 18410016559418581459
14216079 64 18337391548845133046
14251764 18 18408887364485020749
14251764 46 17203609281443844932
14428016 248 12901545711707795759
15183329 4 17967809462088301571
15198563 99 16515955982969416613
15690457 1 18343579642739992294
15716309 27 18273213127650095149
16120349 18 18187646955824974524
17093844 174 13686301284340914535
1818759 1 18411423903814720910
21095086 128 18413669110674083327
21150785 3 13912325681015759238
21267235 1 18334297539919351244
21315759 40 18412549807589107169
21315763 28 18413108368128299225
23035841 295 18342176687620217273
232437 2 18410575103003737875
23522609 53 18193867970734334621
246663 6 18186241714684819138
28498 318 18335420145359151780
3004659 81 18186516622498577664
33532 11 18410854327064384890
335352 9 18186806881537814382
4073 2 17677337241619772139
4325135 7 18408319995553408495
4340502 62 15626225719628886140
5283156 175 18341894099830226073
59682541 35 11959726088088381407
67123 10 18413107273829140256

>  <PUBCHEM_SHAPE_MULTIPOLES>  (1) 
445.76
29.6
1.89
0.78
1.22
0.57
0
15.79
1.64
1.36
0.35
-0.12
0
-0.83

>  <PUBCHEM_SHAPE_SELFOVERLAP>  (1) 
897.733

>  <PUBCHEM_SHAPE_VOLUME>  (1) 
260.7

>  <PUBCHEM_COORDINATE_TYPE>  (1) 
2
5
10

$$$$
