43339
     RDKit          3D

 26 27  0  0  0  0  0  0  0  0999 V2000
   -0.7750   -0.1878    1.2131 O   0  0  0  0  0  0  0  0  0  0  0  0
    3.9414   -0.2947    0.8168 O   0  0  0  0  0  0  0  0  0  0  0  0
   -0.7368   -2.1702    0.0737 O   0  0  0  0  0  0  0  0  0  0  0  0
   -4.2318    0.3748    0.0593 N   0  0  0  0  0  0  0  0  0  0  0  0
    1.2242   -1.0061    0.6023 N   0  0  0  0  0  0  0  0  0  0  0  0
   -4.7827    1.4973   -0.7076 C   0  0  0  0  0  0  0  0  0  0  0  0
   -4.7138   -0.9401   -0.3669 C   0  0  0  0  0  0  0  0  0  0  0  0
   -6.2789    1.4583   -1.0336 C   0  0  0  0  0  0  0  0  0  0  0  0
   -5.9607   -1.3400    0.4270 C   0  0  0  0  0  0  0  0  0  0  0  0
   -7.1619    0.9151    0.0849 C   0  0  0  0  0  0  0  0  0  0  0  0
   -7.2482   -0.6089    0.0587 C   0  0  0  0  0  0  0  0  0  0  0  0
   -2.7689    0.4356    0.0482 C   0  0  0  0  0  0  0  0  0  0  0  0
   -2.1936   -0.2559    1.2740 C   0  0  0  0  0  0  0  0  0  0  0  0
    3.7971    2.4324   -0.1330 C   0  0  0  0  0  0  0  0  0  0  0  0
    3.6409    3.9442    0.0530 C   0  0  0  0  0  0  0  0  0  0  0  0
    4.9978    1.8496    0.6105 C   0  0  0  0  0  0  0  0  0  0  0  0
    2.4248    4.5235   -0.6710 C   0  0  0  0  0  0  0  0  0  0  0  0
    5.1310    0.3517    0.3693 C   0  0  0  0  0  0  0  0  0  0  0  0
   -0.1394   -1.2250    0.5737 C   0  0  0  0  0  0  0  0  0  0  0  0
    2.3553    6.0352   -0.5154 C   0  0  0  0  0  0  0  0  0  0  0  0
    2.2477   -1.8189    0.0638 C   0  0  0  0  0  0  0  0  0  0  0  0
    3.5871   -1.4474    0.1814 C   0  0  0  0  0  0  0  0  0  0  0  0
    1.9072   -3.0029   -0.5904 C   0  0  0  0  0  0  0  0  0  0  0  0
    4.5859   -2.2601   -0.3552 C   0  0  0  0  0  0  0  0  0  0  0  0
    2.9060   -3.8154   -1.1270 C   0  0  0  0  0  0  0  0  0  0  0  0
    4.2453   -3.4440   -1.0095 C   0  0  0  0  0  0  0  0  0  0  0  0
  1 13  1  0
  1 19  1  0
  2 18  1  0
  2 22  1  0
  3 19  2  0
  4  6  1  0
  4  7  1  0
  4 12  1  0
  5 19  1  0
  5 21  1  0
  6  8  1  0
  7  9  1  0
  8 10  1  0
  9 11  1  0
 10 11  1  0
 12 13  1  0
 14 15  1  0
 14 16  1  0
 15 17  1  0
 16 18  1  0
 17 20  1  0
 21 22  2  0
 21 23  1  0
 22 24  1  0
 23 25  2  0
 24 26  2  0
 25 26  1  0
M  END
>  <PUBCHEM_COMPOUND_CID>  (1) 
43339

>  <PUBCHEM_CONFORMER_RMSD>  (1) 
1.2

>  <PUBCHEM_CONFORMER_DIVERSEORDER>  (1) 
5
38
3
37
47
25
35
39
19
50
45
10
34
53
49
43
51
46
52
24
13
41
33
32
12
29
23
8
31
40
54
48
42
44
16
15
28
55
26
36
7
14
2
18
30
27
1
4
11
17
9
20
22
6
21

>  <PUBCHEM_MMFF94_PARTIAL_CHARGES>  (1) 
22
1 -0.43
12 0.27
13 0.28
18 0.28
19 0.78
2 -0.36
21 0.12
22 0.08
23 -0.15
24 -0.15
25 -0.15
26 -0.15
3 -0.57
4 -0.81
5 -0.55
56 0.37
57 0.15
58 0.15
59 0.15
6 0.27
60 0.15
7 0.27

>  <PUBCHEM_EFFECTIVE_ROTOR_COUNT>  (1) 
13.4

>  <PUBCHEM_PHARMACOPHORE_FEATURES>  (1) 
8
1 2 acceptor
1 20 hydrophobe
1 3 acceptor
1 4 cation
1 5 donor
4 14 15 16 17 hydrophobe
6 21 22 23 24 25 26 rings
7 4 6 7 8 9 10 11 rings

>  <PUBCHEM_HEAVY_ATOM_COUNT>  (1) 
26

>  <PUBCHEM_ATOM_DEF_STEREO_COUNT>  (1) 
0

>  <PUBCHEM_ATOM_UDEF_STEREO_COUNT>  (1) 
0

>  <PUBCHEM_BOND_DEF_STEREO_COUNT>  (1) 
0

>  <PUBCHEM_BOND_UDEF_STEREO_COUNT>  (1) 
0

>  <PUBCHEM_ISOTOPIC_ATOM_COUNT>  (1) 
0

>  <PUBCHEM_COMPONENT_COUNT>  (1) 
1

>  <PUBCHEM_CACTVS_TAUTO_COUNT>  (1) 
2

>  <PUBCHEM_CONFORMER_ID>  (1) 
0000A94B00000005

>  <PUBCHEM_MMFF94_ENERGY>  (1) 
53.1998

>  <PUBCHEM_FEATURE_SELFOVERLAP>  (1) 
40.594

>  <PUBCHEM_SHAPE_FINGERPRINT>  (1) 
10258939 38 17610632186113688771
10673678 19 18268995460616605377
10835480 77 18411413982708818211
11273773 38 18263648540873812300
11374522 174 17827371186519585157
11476731 47 18338803420016321425
1361 2 18411699911155184186
13944108 23 18333456452163705732
14117953 113 18411701007079246268
14556957 393 17418098689828855609
15003188 100 18410575076331769682
15419008 47 17895193238691770676
15799311 1 15554446293295352815
15979999 66 18268437841566866326
16988056 13 18410295783673517732
17844677 252 18270405971306222019
19427546 62 18339923822191192050
20157964 124 18341894073865568354
23522609 53 17417548959905538553
23559900 14 18201710722328200099
239999 70 18270680857487394878
3004659 81 18058163934261015243
34797466 226 18411136914331993891
4573279 73 18054219097526215807
46194498 28 18410007693745206788
5109719 28 18261961833663340745
53794403 172 18263367056705442436

>  <PUBCHEM_SHAPE_MULTIPOLES>  (1) 
507.5
17.73
6.36
0.99
33.07
9.21
0
2.01
1.27
-13.4
2.55
-0.01
-0.18
1.59

>  <PUBCHEM_SHAPE_SELFOVERLAP>  (1) 
1013.147

>  <PUBCHEM_SHAPE_VOLUME>  (1) 
298.5

>  <PUBCHEM_COORDINATE_TYPE>  (1) 
2
5
10

$$$$
