4333
     RDKit          3D

 22 22  0  0  1  0  0  0  0  0999 V2000
   -0.3875    0.3555    1.8330 O   0  0  0  0  0  0  0  0  0  0  0  0
   -0.7765   -2.5245   -0.8725 O   0  0  0  0  0  0  0  0  0  0  0  0
    1.7396    4.3409    0.2949 O   0  0  0  0  0  0  0  0  0  0  0  0
   -2.1323   -1.3746    0.6314 N   0  0  0  0  0  0  0  0  0  0  0  0
   -0.0404    1.3337   -0.2443 N   0  0  0  0  0  0  0  0  0  0  0  0
   -3.2134    0.8264    0.3386 C   0  0  0  0  0  0  0  0  0  0  0  0
   -4.5495    0.2699   -0.1942 C   0  0  0  0  0  0  0  0  0  0  0  0
   -1.9917   -0.0594    0.0625 C   0  0  0  0  0  0  0  0  0  0  0  0
   -0.7401    0.5629    0.6738 C   0  0  0  0  0  0  0  0  0  0  0  0
   -4.4678    0.0979   -1.7136 C   0  0  0  0  0  0  0  0  0  0  0  0
   -5.7366    1.1668    0.1595 C   0  0  0  0  0  0  0  0  0  0  0  0
    1.2078    1.9940    0.0632 C   0  0  0  0  0  0  0  0  0  0  0  0
    2.3340    1.5870   -0.8882 C   0  0  0  0  0  0  0  0  0  0  0  0
    2.9526    0.2587   -0.5265 C   0  0  0  0  0  0  0  0  0  0  0  0
   -1.5095   -2.5003    0.1127 C   0  0  0  0  0  0  0  0  0  0  0  0
    0.9228    3.4781   -0.0178 C   0  0  0  0  0  0  0  0  0  0  0  0
    4.0390    0.2100    0.3471 C   0  0  0  0  0  0  0  0  0  0  0  0
    2.4379   -0.9204   -1.0657 C   0  0  0  0  0  0  0  0  0  0  0  0
   -1.8049   -3.7403    0.9134 C   0  0  0  0  0  0  0  0  0  0  0  0
    4.6108   -1.0176    0.6815 C   0  0  0  0  0  0  0  0  0  0  0  0
    3.0096   -2.1480   -0.7311 C   0  0  0  0  0  0  0  0  0  0  0  0
    4.0961   -2.1965    0.1424 C   0  0  0  0  0  0  0  0  0  0  0  0
  1  9  2  0
  2 15  2  0
  3 16  2  0
  4  8  1  0
  4 15  1  0
  5  9  1  0
  5 12  1  0
  6  7  1  0
  6  8  1  0
  7 10  1  0
  7 11  1  0
  8  9  1  0
 12 13  1  0
 12 16  1  0
 13 14  1  0
 14 17  2  0
 14 18  1  0
 15 19  1  0
 17 20  1  0
 18 21  2  0
 20 22  2  0
 21 22  1  0
M  END
>  <PUBCHEM_COMPOUND_CID>  (1) 
4333

>  <PUBCHEM_CONFORMER_RMSD>  (1) 
1

>  <PUBCHEM_CONFORMER_DIVERSEORDER>  (1) 
1
274
99
59
311
201
172
196
296
69
271
42
186
70
71
189
301
128
251
32
206
67
125
46
232
211
9
130
54
38
33
7
147
267
244
312
293
6
163
273
124
288
245
200
295
182
15
262
171
242
65
141
122
169
184
53
202
173
37
277
221
135
22
160
87
8
48
268
257
103
225
150
286
248
157
264
213
105
49
194
278
210
275
155
308
156
256
80
253
192
96
158
187
217
88
313
290
117
300
280
144
126
97
66
86
229
84
77
18
159
21
183
143
3
118
106
154
151
314
193
176
73
209
208
119
226
43
109
121
168
306
81
298
243
152
305
239
259
23
279
307
74
174
282
131
75
40
5
237
181
102
219
12
39
41
178
114
14
230
215
30
223
153
138
162
164
134
177
250
149
191
197
85
148
252
299
214
36
265
190
165
57
58
212
111
56
204
269
139
310
11
170
127
247
207
10
4
199
47
44
233
78
272
302
255
16
254
285
205
270
76
115
104
179
110
123
31
61
284
303
79
315
136
283
175
91
89
292
246
228
83
51
108
146
218
94
261
120
2
26
304
180
249
52
68
287
19
64
142
234
238
203
266
129
25
60
107
236
161
92
198
95
240
241
100
29
188
258
101
116
62
317
281
90
50
276
316
227
132
137
28
224
112
291
72
98
20
82
35
93
263
309
55
297
231
166
113
185
289
24
167
145
17
13
216
260
140
34
294
63
45
27
195
133
222
235
220

>  <PUBCHEM_MMFF94_PARTIAL_CHARGES>  (1) 
26
1 -0.57
12 0.36
13 0.14
14 -0.14
15 0.57
16 0.45
17 -0.15
18 -0.15
19 0.06
2 -0.57
20 -0.15
21 -0.15
22 -0.15
3 -0.57
34 0.37
35 0.37
38 0.06
39 0.15
4 -0.73
40 0.15
44 0.15
45 0.15
46 0.15
5 -0.73
8 0.36
9 0.57

>  <PUBCHEM_EFFECTIVE_ROTOR_COUNT>  (1) 
10

>  <PUBCHEM_PHARMACOPHORE_FEATURES>  (1) 
7
1 1 acceptor
1 2 acceptor
1 3 acceptor
1 4 donor
1 5 donor
3 7 10 11 hydrophobe
6 14 17 18 20 21 22 rings

>  <PUBCHEM_HEAVY_ATOM_COUNT>  (1) 
22

>  <PUBCHEM_ATOM_DEF_STEREO_COUNT>  (1) 
0

>  <PUBCHEM_ATOM_UDEF_STEREO_COUNT>  (1) 
2

>  <PUBCHEM_BOND_DEF_STEREO_COUNT>  (1) 
0

>  <PUBCHEM_BOND_UDEF_STEREO_COUNT>  (1) 
0

>  <PUBCHEM_ISOTOPIC_ATOM_COUNT>  (1) 
0

>  <PUBCHEM_COMPONENT_COUNT>  (1) 
1

>  <PUBCHEM_CACTVS_TAUTO_COUNT>  (1) 
8

>  <PUBCHEM_CONFORMER_ID>  (1) 
000010ED00000001

>  <PUBCHEM_MMFF94_ENERGY>  (1) 
44.6234

>  <PUBCHEM_FEATURE_SELFOVERLAP>  (1) 
35.522

>  <PUBCHEM_SHAPE_FINGERPRINT>  (1) 
10366900 7 17561367275267339170
12507560 14 18340207397179466156
12553582 1 18268452194951754652
12592029 89 18188215291018142403
12633257 1 18409168813628325574
12670545 2 18115025208308683378
12788726 201 18266465291578103204
13004483 165 18263634075117218122
14466204 15 18267023843522482473
15099037 51 18334575720281339599
17349148 13 18059860558185294147
192875 21 18272655618971987765
21315764 371 15985095336481748638
22113638 7 18342452647157677078
22393880 68 18122922085772068052
23402539 116 18270955722334408924
23558518 356 17827359096475692195
23559900 14 18341327907171702576
3027735 51 17905608804671896030
34934 24 18410011061553402538
57005193 9 18413385428121177246
6138700 20 18194403290445196367
81228 2 17912667729816094888
9709674 26 18267870660421908871
9981440 41 17691397938029437993

>  <PUBCHEM_SHAPE_MULTIPOLES>  (1) 
425.18
9.6
4.15
1.13
5.77
1.02
0.09
-1.1
0.94
-1.49
-0.58
0.36
-0.2
0.29

>  <PUBCHEM_SHAPE_SELFOVERLAP>  (1) 
852.297

>  <PUBCHEM_SHAPE_VOLUME>  (1) 
249

>  <PUBCHEM_COORDINATE_TYPE>  (1) 
2
5
10

$$$$
