43344
     RDKit          3D

 16 16  0  0  0  0  0  0  0  0999 V2000
    1.1122   -0.9645    0.1777 N   0  0  0  0  0  0  0  0  0  0  0  0
   -0.4386    0.8603    0.2746 N   0  0  0  0  0  0  0  0  0  0  0  0
    1.8919    1.2408   -0.0364 N   0  0  0  0  0  0  0  0  0  0  0  0
   -3.0453   -1.6178   -0.5507 N   0  0  0  0  0  0  0  0  0  0  0  0
    1.2680    3.6425   -0.3643 N   0  0  0  0  0  0  0  0  0  0  0  0
    2.5330   -1.3237    0.0666 C   0  0  0  0  0  0  0  0  0  0  0  0
    3.2897   -0.6604    1.2169 C   0  0  0  0  0  0  0  0  0  0  0  0
    2.6402   -2.8454    0.1588 C   0  0  0  0  0  0  0  0  0  0  0  0
    3.0519   -0.8285   -1.2831 C   0  0  0  0  0  0  0  0  0  0  0  0
    0.8171    0.2913    0.1255 C   0  0  0  0  0  0  0  0  0  0  0  0
   -1.7160    0.2738    0.1311 C   0  0  0  0  0  0  0  0  0  0  0  0
   -2.8585    0.9632    0.5061 C   0  0  0  0  0  0  0  0  0  0  0  0
   -1.8545   -0.9993   -0.3865 C   0  0  0  0  0  0  0  0  0  0  0  0
   -4.1019    0.3602    0.3524 C   0  0  0  0  0  0  0  0  0  0  0  0
   -4.1410   -0.9201   -0.1760 C   0  0  0  0  0  0  0  0  0  0  0  0
    1.5519    2.5277   -0.2127 C   0  0  0  0  0  0  0  0  0  0  0  0
  1  6  1  0
  1 10  2  0
  2 10  1  0
  2 11  1  0
  3 10  1  0
  3 16  1  0
  4 13  2  0
  4 15  1  0
  5 16  3  0
  6  7  1  0
  6  8  1  0
  6  9  1  0
 11 12  2  0
 11 13  1  0
 12 14  1  0
 14 15  2  0
M  END
>  <PUBCHEM_COMPOUND_CID>  (1) 
43344

>  <PUBCHEM_CONFORMER_RMSD>  (1) 
0.6

>  <PUBCHEM_CONFORMER_DIVERSEORDER>  (1) 
1
9
10
4
7
8
5
11
2
3
6

>  <PUBCHEM_MMFF94_PARTIAL_CHARGES>  (1) 
19
1 -0.7
10 0.55
11 0.1
12 -0.15
13 0.16
14 -0.15
15 0.16
16 0.62
2 -0.55
26 0.4
27 0.4
28 0.15
29 0.15
3 -0.51
30 0.15
31 0.15
4 -0.62
5 -0.56
6 0.25

>  <PUBCHEM_EFFECTIVE_ROTOR_COUNT>  (1) 
4

>  <PUBCHEM_PHARMACOPHORE_FEATURES>  (1) 
7
1 2 donor
1 3 donor
1 4 acceptor
1 5 acceptor
4 1 2 3 10 cation
4 6 7 8 9 hydrophobe
6 4 11 12 13 14 15 rings

>  <PUBCHEM_HEAVY_ATOM_COUNT>  (1) 
16

>  <PUBCHEM_ATOM_DEF_STEREO_COUNT>  (1) 
0

>  <PUBCHEM_ATOM_UDEF_STEREO_COUNT>  (1) 
0

>  <PUBCHEM_BOND_DEF_STEREO_COUNT>  (1) 
0

>  <PUBCHEM_BOND_UDEF_STEREO_COUNT>  (1) 
0

>  <PUBCHEM_ISOTOPIC_ATOM_COUNT>  (1) 
0

>  <PUBCHEM_COMPONENT_COUNT>  (1) 
1

>  <PUBCHEM_CACTVS_TAUTO_COUNT>  (1) 
3

>  <PUBCHEM_CONFORMER_ID>  (1) 
0000A95000000001

>  <PUBCHEM_MMFF94_ENERGY>  (1) 
86.9527

>  <PUBCHEM_FEATURE_SELFOVERLAP>  (1) 
35.555

>  <PUBCHEM_SHAPE_FINGERPRINT>  (1) 
10465860 71 18128556919423157862
10616163 171 18125442166259568823
12251169 10 18342174458062783171
12553582 1 18337957783388193759
14144814 61 18341331098221393123
14250199 8 18337390538904975527
15375462 189 18261115110435432426
15442244 35 18340489967626161705
15536298 74 18272370905479068704
18186145 218 17821722862717497923
20559304 39 18341613745476197232
20645477 70 18336538421857533415
20671657 1 18339367486180977348
20671657 53 18411419471028240967
20871998 22 18339358548686005858
21501502 16 18270400611260655625
21501925 9 18341884203946098811
21524375 3 17758110784722584956
21634736 98 18341051916609545007
221490 88 18263935486678320315
2255824 54 18336830904476480660
23463225 33 18342458123515090815
23552423 10 18339924925960025805
23557571 272 18198342854188043862
23558518 356 17036973080264938748
23559900 14 18340198687233547249
23598291 2 18271542934795773837
3091708 16 9430489786995722928
312423 11 18271540796386986843
474 4 18119246409335834408
58051976 100 18410295813753768583
58051976 378 18052254286846694727
6992083 37 18054523412780342745
7364860 26 18341333404497596088
74978 22 18410858776254513919
81228 2 17902516986997463696
81539 233 18045217391265731068
84936 182 18056200416968271761
9709674 26 18337955705025215531
9981440 41 17832982028789139217

>  <PUBCHEM_SHAPE_MULTIPOLES>  (1) 
304.37
7.17
2.94
0.87
5.18
2.23
0.02
-3.2
-0.27
-2.39
0.39
-0.54
-0.13
-0.57

>  <PUBCHEM_SHAPE_SELFOVERLAP>  (1) 
622.301

>  <PUBCHEM_SHAPE_VOLUME>  (1) 
169.2

>  <PUBCHEM_COORDINATE_TYPE>  (1) 
2
5
10

$$$$
