43352
     RDKit          3D

 16 16  0  0  0  0  0  0  0  0999 V2000
    0.7627   -1.0130    0.2744 N   0  0  0  0  0  0  0  0  0  0  0  0
   -1.3142    0.1776    0.1612 N   0  0  0  0  0  0  0  0  0  0  0  0
   -1.2898   -2.1711   -0.0712 N   0  0  0  0  0  0  0  0  0  0  0  0
    2.3662    2.2173   -0.5080 N   0  0  0  0  0  0  0  0  0  0  0  0
    0.1280   -4.2082   -0.3958 N   0  0  0  0  0  0  0  0  0  0  0  0
   -2.7599    0.0534    0.0340 C   0  0  0  0  0  0  0  0  0  0  0  0
    1.7615   -0.0213    0.1501 C   0  0  0  0  0  0  0  0  0  0  0  0
   -3.3996    1.4138    0.0600 C   0  0  0  0  0  0  0  0  0  0  0  0
   -0.6101   -0.9104    0.1086 C   0  0  0  0  0  0  0  0  0  0  0  0
    3.0667   -0.2776    0.5403 C   0  0  0  0  0  0  0  0  0  0  0  0
   -2.9992    2.3721   -1.0250 C   0  0  0  0  0  0  0  0  0  0  0  0
    1.4593    1.2251   -0.3625 C   0  0  0  0  0  0  0  0  0  0  0  0
    4.0279    0.7181    0.4060 C   0  0  0  0  0  0  0  0  0  0  0  0
    3.6302    1.9372   -0.1188 C   0  0  0  0  0  0  0  0  0  0  0  0
   -4.3050    1.7477    0.9923 C   0  0  0  0  0  0  0  0  0  0  0  0
   -0.5247   -3.2606   -0.2456 C   0  0  0  0  0  0  0  0  0  0  0  0
  1  7  1  0
  1  9  1  0
  2  6  1  0
  2  9  2  0
  3  9  1  0
  3 16  1  0
  4 12  2  0
  4 14  1  0
  5 16  3  0
  6  8  1  0
  7 10  2  0
  7 12  1  0
  8 11  1  0
  8 15  2  0
 10 13  1  0
 13 14  2  0
M  END
>  <PUBCHEM_COMPOUND_CID>  (1) 
43352

>  <PUBCHEM_CONFORMER_RMSD>  (1) 
0.6

>  <PUBCHEM_CONFORMER_DIVERSEORDER>  (1) 
1
148
176
139
169
135
114
157
193
55
5
43
165
67
159
35
168
173
198
2
86
196
160
154
163
101
50
145
155
151
29
150
113
3
85
13
31
74
32
140
191
166
144
87
122
41
77
25
28
99
190
128
119
109
30
58
147
153
37
172
175
36
120
162
126
93
68
10
141
143
19
39
71
156
45
130
95
167
6
78
188
16
21
44
104
182
192
82
129
142
26
70
174
60
189
127
14
194
195
124
52
197
121
48
177
96
133
33
7
63
65
138
84
170
49
105
132
180
27
149
4
136
89
92
51
57
88
117
134
59
69
137
184
100
12
185
76
181
83
146
187
123
8
112
158
94
61
161
152
23
108
53
111
11
110
79
15
107
46
97
103
91
90
116
131
102
42
54
62
164
98
18
72
40
47
81
56
38
64
115
80
118
73
183
34
125
75
66
171
179
106
17
24
178
186
22
9
20

>  <PUBCHEM_MMFF94_PARTIAL_CHARGES>  (1) 
24
1 -0.55
10 -0.15
11 0.14
12 0.16
13 -0.15
14 0.16
15 -0.3
16 0.62
19 0.4
2 -0.7
20 0.15
24 0.15
25 0.15
26 0.4
27 0.15
28 0.15
29 0.15
3 -0.51
4 -0.62
5 -0.56
6 0.38
7 0.1
8 -0.28
9 0.55

>  <PUBCHEM_EFFECTIVE_ROTOR_COUNT>  (1) 
5

>  <PUBCHEM_PHARMACOPHORE_FEATURES>  (1) 
6
1 1 donor
1 3 donor
1 4 acceptor
1 5 acceptor
4 1 2 3 9 cation
6 4 7 10 12 13 14 rings

>  <PUBCHEM_HEAVY_ATOM_COUNT>  (1) 
16

>  <PUBCHEM_ATOM_DEF_STEREO_COUNT>  (1) 
0

>  <PUBCHEM_ATOM_UDEF_STEREO_COUNT>  (1) 
0

>  <PUBCHEM_BOND_DEF_STEREO_COUNT>  (1) 
0

>  <PUBCHEM_BOND_UDEF_STEREO_COUNT>  (1) 
0

>  <PUBCHEM_ISOTOPIC_ATOM_COUNT>  (1) 
0

>  <PUBCHEM_COMPONENT_COUNT>  (1) 
1

>  <PUBCHEM_CACTVS_TAUTO_COUNT>  (1) 
3

>  <PUBCHEM_CONFORMER_ID>  (1) 
0000A95800000001

>  <PUBCHEM_MMFF94_ENERGY>  (1) 
55.4782

>  <PUBCHEM_FEATURE_SELFOVERLAP>  (1) 
30.48

>  <PUBCHEM_SHAPE_FINGERPRINT>  (1) 
10465860 228 18054234232790383025
12173636 292 18340481287264920703
12500047 106 18341888645374793136
14123255 52 18410571760538019265
14178342 30 18120916546745906466
15442244 35 18335412509097093104
15906896 17 18128813229954892383
1741750 31 18341613754092395352
18186145 218 18342461387336859861
18785283 64 18193286203985149731
204376 136 18411140216934841777
20510252 161 18199474427335455507
20645477 56 18341617082934766256
20671657 1 18053110527743684319
212916 134 18200291274280359360
21426921 1 18051977218986457998
21499 59 18339354180846788109
21524375 3 18334856130085003579
21731228 192 18335143085429395475
23557571 272 17914625092610581484
23558518 356 18190179182004929594
3071541 12 18052542062841381643
3091708 16 9194095890688183107
474 4 18340771421265127561
474229 33 18338237167538809659
633830 44 18059299747162854125
7164475 11 18050562138794822142
7364860 26 18051975814384654023
7832392 63 18336826502457034920
81228 2 17907846654811924051

>  <PUBCHEM_SHAPE_MULTIPOLES>  (1) 
304.37
7.26
3.93
0.8
1.13
4.95
0
-7.13
1.19
0.58
-0.94
0.36
-0.28
-0.21

>  <PUBCHEM_SHAPE_SELFOVERLAP>  (1) 
617.078

>  <PUBCHEM_SHAPE_VOLUME>  (1) 
170.2

>  <PUBCHEM_COORDINATE_TYPE>  (1) 
2
5
10

$$$$
