43351
     RDKit          3D

 17 18  0  0  0  0  0  0  0  0999 V2000
   -1.1010    0.2316    0.1073 N   0  0  0  0  0  0  0  0  0  0  0  0
    0.8983   -1.0247   -0.3030 N   0  0  0  0  0  0  0  0  0  0  0  0
   -1.2065   -2.1124   -0.0591 N   0  0  0  0  0  0  0  0  0  0  0  0
    2.7220    1.9861    0.8048 N   0  0  0  0  0  0  0  0  0  0  0  0
    0.0699   -4.2029    0.4559 N   0  0  0  0  0  0  0  0  0  0  0  0
   -2.5398    0.1395    0.3722 C   0  0  0  0  0  0  0  0  0  0  0  0
   -3.3124    0.3077   -0.9271 C   0  0  0  0  0  0  0  0  0  0  0  0
   -2.9908    1.3334    1.1998 C   0  0  0  0  0  0  0  0  0  0  0  0
   -3.3468    1.8148   -1.1696 C   0  0  0  0  0  0  0  0  0  0  0  0
   -3.1355    2.4727    0.1939 C   0  0  0  0  0  0  0  0  0  0  0  0
   -0.4652   -0.8746   -0.1009 C   0  0  0  0  0  0  0  0  0  0  0  0
    1.9397   -0.0809   -0.1574 C   0  0  0  0  0  0  0  0  0  0  0  0
    3.1567   -0.2648   -0.7949 C   0  0  0  0  0  0  0  0  0  0  0  0
    1.7680    1.0454    0.6235 C   0  0  0  0  0  0  0  0  0  0  0  0
    4.1629    0.6812   -0.6327 C   0  0  0  0  0  0  0  0  0  0  0  0
   -0.5172   -3.2309    0.2169 C   0  0  0  0  0  0  0  0  0  0  0  0
    3.8977    1.7789    0.1703 C   0  0  0  0  0  0  0  0  0  0  0  0
  1  6  1  0
  1 11  2  0
  2 11  1  0
  2 12  1  0
  3 11  1  0
  3 16  1  0
  4 14  2  0
  4 17  1  0
  5 16  3  0
  6  7  1  0
  6  8  1  0
  7  9  1  0
  8 10  1  0
  9 10  1  0
 12 13  2  0
 12 14  1  0
 13 15  1  0
 15 17  2  0
M  END
>  <PUBCHEM_COMPOUND_CID>  (1) 
43351

>  <PUBCHEM_CONFORMER_RMSD>  (1) 
0.6

>  <PUBCHEM_CONFORMER_DIVERSEORDER>  (1) 
2
80
68
33
48
81
45
17
41
7
54
18
37
66
49
43
53
20
44
60
28
36
55
42
9
78
63
21
67
34
79
19
13
29
32
47
75
57
50
5
15
27
56
74
4
82
14
46
51
73
16
31
72
6
76
70
52
8
83
24
58
69
30
26
39
71
1
22
64
11
40
25
77
10
65
3
59
61
12
23
38
62
35

>  <PUBCHEM_MMFF94_PARTIAL_CHARGES>  (1) 
19
1 -0.7
11 0.55
12 0.1
13 -0.15
14 0.16
15 -0.15
16 0.62
17 0.16
2 -0.55
27 0.4
28 0.4
29 0.15
3 -0.51
30 0.15
31 0.15
32 0.15
4 -0.62
5 -0.56
6 0.25

>  <PUBCHEM_EFFECTIVE_ROTOR_COUNT>  (1) 
5

>  <PUBCHEM_PHARMACOPHORE_FEATURES>  (1) 
7
1 2 donor
1 3 donor
1 4 acceptor
1 5 acceptor
4 1 2 3 11 cation
5 6 7 8 9 10 rings
6 4 12 13 14 15 17 rings

>  <PUBCHEM_HEAVY_ATOM_COUNT>  (1) 
17

>  <PUBCHEM_ATOM_DEF_STEREO_COUNT>  (1) 
0

>  <PUBCHEM_ATOM_UDEF_STEREO_COUNT>  (1) 
0

>  <PUBCHEM_BOND_DEF_STEREO_COUNT>  (1) 
0

>  <PUBCHEM_BOND_UDEF_STEREO_COUNT>  (1) 
0

>  <PUBCHEM_ISOTOPIC_ATOM_COUNT>  (1) 
0

>  <PUBCHEM_COMPONENT_COUNT>  (1) 
1

>  <PUBCHEM_CACTVS_TAUTO_COUNT>  (1) 
3

>  <PUBCHEM_CONFORMER_ID>  (1) 
0000A95700000002

>  <PUBCHEM_MMFF94_ENERGY>  (1) 
61.4137

>  <PUBCHEM_FEATURE_SELFOVERLAP>  (1) 
35.555

>  <PUBCHEM_SHAPE_FINGERPRINT>  (1) 
10498660 4 18336538344221568365
10608611 8 18199468947089190760
12173636 292 18409728495206612735
12363563 72 10087633810377996741
12500047 106 18409448124495432790
12730499 353 18265056834711041825
12788726 201 18049989279993451507
13134695 92 17398664606695441999
13294875 104 18197763436987397954
13583140 156 17095796715347044937
136203 1 18120657099955220043
14178342 30 18118674646852950250
15309172 13 18335423443667409077
15842332 3 17699554858977435053
1741750 31 18410291436702039410
18186145 218 18272094859457279052
18219364 16 18338528464546570249
20510252 161 18268993257625417067
20645477 56 18339368581677011240
20671657 1 18195805155133290991
21499 59 18337668625099768309
21524375 3 18342737394894016967
21639500 275 18121770639341316887
22182937 141 18271256013689554569
23557571 272 17981049927049086924
23559900 14 18272661160592817980
25 1 18272658896068912444
305870 269 18336828567972099527
3071541 12 18050288063888487271
3084891 72 18341896230313366002
3091708 16 9050261052191613763
3187 122 17186975022734506432
4028521 119 18341887494028587493
474 4 18268147561448262481
5902787 121 10879694477830601885
6049 1 17841449312495276064
633830 44 18129952165150567261
7364860 26 17977382733558592911
81228 2 17977671131975274627
84936 182 18197773306500464585

>  <PUBCHEM_SHAPE_MULTIPOLES>  (1) 
324.95
7.28
3.62
0.98
2.51
4.64
0.05
-6.42
1.09
-0.71
-0.72
-0.42
-0.33
0.39

>  <PUBCHEM_SHAPE_SELFOVERLAP>  (1) 
675.434

>  <PUBCHEM_SHAPE_VOLUME>  (1) 
178.5

>  <PUBCHEM_COORDINATE_TYPE>  (1) 
2
5
10

$$$$
