43357
     RDKit          3D

 20 20  0  0  0  0  0  0  0  0999 V2000
   -1.3532   -0.8978   -0.2220 N   0  0  0  0  0  0  0  0  0  0  0  0
    0.0816    0.9847    0.1546 N   0  0  0  0  0  0  0  0  0  0  0  0
   -2.2615    1.2663   -0.1679 N   0  0  0  0  0  0  0  0  0  0  0  0
    3.3237   -0.4569    1.1849 N   0  0  0  0  0  0  0  0  0  0  0  0
   -1.8605    3.6752    0.3813 N   0  0  0  0  0  0  0  0  0  0  0  0
   -2.7357   -1.3107   -0.5102 C   0  0  0  0  0  0  0  0  0  0  0  0
   -3.6335   -0.9402    0.6876 C   0  0  0  0  0  0  0  0  0  0  0  0
   -3.1689   -0.6231   -1.8065 C   0  0  0  0  0  0  0  0  0  0  0  0
   -2.7348   -2.8312   -0.7065 C   0  0  0  0  0  0  0  0  0  0  0  0
   -3.2480   -1.5975    2.0079 C   0  0  0  0  0  0  0  0  0  0  0  0
   -1.1400    0.3642   -0.0578 C   0  0  0  0  0  0  0  0  0  0  0  0
    1.3883    0.4546    0.0672 C   0  0  0  0  0  0  0  0  0  0  0  0
    2.0183    0.3186   -1.1622 C   0  0  0  0  0  0  0  0  0  0  0  0
    2.0734    0.0574    1.2012 C   0  0  0  0  0  0  0  0  0  0  0  0
    3.3046   -0.2064   -1.2195 C   0  0  0  0  0  0  0  0  0  0  0  0
    3.9082   -0.5757   -0.0283 C   0  0  0  0  0  0  0  0  0  0  0  0
    1.3449    0.7245   -2.4321 C   0  0  0  0  0  0  0  0  0  0  0  0
    1.4461    0.1798    2.5521 C   0  0  0  0  0  0  0  0  0  0  0  0
    5.2883   -1.1429   -0.0521 C   0  0  0  0  0  0  0  0  0  0  0  0
   -2.0413    2.5571    0.1283 C   0  0  0  0  0  0  0  0  0  0  0  0
  1  6  1  0
  1 11  2  0
  2 11  1  0
  2 12  1  0
  3 11  1  0
  3 20  1  0
  4 14  2  0
  4 16  1  0
  5 20  3  0
  6  7  1  0
  6  8  1  0
  6  9  1  0
  7 10  1  0
 12 13  2  0
 12 14  1  0
 13 15  1  0
 13 17  1  0
 14 18  1  0
 15 16  2  0
 16 19  1  0
M  END
>  <PUBCHEM_COMPOUND_CID>  (1) 
43357

>  <PUBCHEM_CONFORMER_RMSD>  (1) 
0.8

>  <PUBCHEM_CONFORMER_DIVERSEORDER>  (1) 
2
8
5
9
7
4
6
3
1

>  <PUBCHEM_MMFF94_PARTIAL_CHARGES>  (1) 
19
1 -0.7
11 0.55
12 0.1
13 -0.14
14 0.17
15 -0.15
16 0.17
17 0.14
18 0.14
19 0.14
2 -0.55
20 0.62
3 -0.51
32 0.4
33 0.15
37 0.4
4 -0.62
5 -0.56
6 0.25

>  <PUBCHEM_EFFECTIVE_ROTOR_COUNT>  (1) 
5

>  <PUBCHEM_PHARMACOPHORE_FEATURES>  (1) 
8
1 10 hydrophobe
1 2 donor
1 3 donor
1 4 acceptor
1 5 acceptor
3 6 8 9 hydrophobe
4 1 2 3 11 cation
6 4 12 13 14 15 16 rings

>  <PUBCHEM_HEAVY_ATOM_COUNT>  (1) 
20

>  <PUBCHEM_ATOM_DEF_STEREO_COUNT>  (1) 
0

>  <PUBCHEM_ATOM_UDEF_STEREO_COUNT>  (1) 
0

>  <PUBCHEM_BOND_DEF_STEREO_COUNT>  (1) 
0

>  <PUBCHEM_BOND_UDEF_STEREO_COUNT>  (1) 
0

>  <PUBCHEM_ISOTOPIC_ATOM_COUNT>  (1) 
0

>  <PUBCHEM_COMPONENT_COUNT>  (1) 
1

>  <PUBCHEM_CACTVS_TAUTO_COUNT>  (1) 
3

>  <PUBCHEM_CONFORMER_ID>  (1) 
0000A95D00000002

>  <PUBCHEM_MMFF94_ENERGY>  (1) 
102.409

>  <PUBCHEM_FEATURE_SELFOVERLAP>  (1) 
40.63

>  <PUBCHEM_SHAPE_FINGERPRINT>  (1) 
10366900 7 17774998024793961238
11582403 64 15685255057896155608
12236239 1 17822578209380458340
12363563 72 18269547407259362247
12500047 106 18126278649815912108
12553582 1 18268440194581235639
12596599 1 17530969042697340906
12633257 1 17131841992134320739
12714826 92 18130802134920141476
12788726 201 18263950828565187093
13583140 156 17773861044419789498
15238133 3 16056062197656957954
15653759 3 17775001280442097968
16752209 62 18262783113099083927
1813 80 18127988583796959757
18186145 218 16515961574716095575
18219364 16 16128362762479886372
19049666 15 17416131581257194428
19784866 135 18411706473670280843
19862831 5 17458337563418484702
20361792 2 18268711791364975111
21634736 98 17241336909510908730
21713013 43 16298949895596244571
21731516 1 18265336299220798411
22112679 90 18114191804248938916
22393880 68 16298378093815244786
23419403 2 16459033338265741525
23503958 8 18336542729482955994
23557571 272 18131632253573115096
23559900 14 18342442760554301008
23598288 3 18261968396452587229
23598291 2 17750252351785345676
312423 11 18114763593429483180
6049 1 17846204571130765168
77492 1 17822295635013419700
7970288 3 18263369246902042899
81228 2 18272365365594125897

>  <PUBCHEM_SHAPE_MULTIPOLES>  (1) 
386.69
7.99
2.49
2.01
5.32
1.82
0.25
-4.39
0.03
-3.25
0.16
0.17
-0.21
-0.28

>  <PUBCHEM_SHAPE_SELFOVERLAP>  (1) 
787.391

>  <PUBCHEM_SHAPE_VOLUME>  (1) 
219.8

>  <PUBCHEM_COORDINATE_TYPE>  (1) 
2
5
10

$$$$
