4335
     RDKit          3D

 18 18  0  0  1  0  0  0  0  0999 V2000
   -1.2707    0.5227    2.0516 O   0  0  0  0  0  0  0  0  0  0  0  0
   -1.9914   -2.3516   -1.0678 O   0  0  0  0  0  0  0  0  0  0  0  0
   -4.2261    1.4725   -1.1518 O   0  0  0  0  0  0  0  0  0  0  0  0
    5.3044   -0.6547   -0.1863 O   0  0  0  0  0  0  0  0  0  0  0  0
    4.9034    1.4120   -0.8085 O   0  0  0  0  0  0  0  0  0  0  0  0
   -3.3235   -0.1383    0.2644 N   0  0  0  0  0  0  0  0  0  0  0  0
    4.5168    0.3074   -0.3561 N   0  0  0  0  0  0  0  0  0  0  0  0
   -1.9528   -0.0642   -0.2047 C   0  0  0  0  0  0  0  0  0  0  0  0
   -0.9887   -0.3636    0.9635 C   0  0  0  0  0  0  0  0  0  0  0  0
    0.4715   -0.1856    0.6144 C   0  0  0  0  0  0  0  0  0  0  0  0
   -1.7787   -0.9893   -1.4150 C   0  0  0  0  0  0  0  0  0  0  0  0
    1.3457   -1.2430    0.8001 C   0  0  0  0  0  0  0  0  0  0  0  0
    0.9043    1.0314    0.1152 C   0  0  0  0  0  0  0  0  0  0  0  0
   -4.3388    0.6408   -0.2552 C   0  0  0  0  0  0  0  0  0  0  0  0
    2.6928   -1.0788    0.4775 C   0  0  0  0  0  0  0  0  0  0  0  0
    2.2514    1.1957   -0.2076 C   0  0  0  0  0  0  0  0  0  0  0  0
    3.1457    0.1405   -0.0266 C   0  0  0  0  0  0  0  0  0  0  0  0
   -5.6652    0.3460    0.3926 C   0  0  0  0  0  0  0  0  0  0  0  0
  1  9  1  0
  2 11  1  0
  3 14  2  0
  4  7  1  0
  5  7  2  0
  6  8  1  0
  6 14  1  0
  7 17  1  0
  8  9  1  0
  8 11  1  0
  9 10  1  0
 10 12  2  0
 10 13  1  0
 12 15  1  0
 13 16  2  0
 14 18  1  0
 15 17  2  0
 16 17  1  0
M  CHG  2   4  -1   7   1
M  END
>  <PUBCHEM_COMPOUND_CID>  (1) 
4335

>  <PUBCHEM_CONFORMER_RMSD>  (1) 
0.8

>  <PUBCHEM_CONFORMER_DIVERSEORDER>  (1) 
1
5
13
15
12
6
11
7
10
20
4
8
14
19
18
9
17
16
22
21
2
3

>  <PUBCHEM_MMFF94_PARTIAL_CHARGES>  (1) 
25
1 -0.68
10 -0.14
11 0.28
12 -0.15
13 -0.15
14 0.57
15 -0.15
16 -0.15
17 0.13
18 0.06
2 -0.68
23 0.37
24 0.15
25 0.15
26 0.4
27 0.15
28 0.15
29 0.4
3 -0.57
4 -0.52
5 -0.52
6 -0.73
7 0.91
8 0.3
9 0.42

>  <PUBCHEM_EFFECTIVE_ROTOR_COUNT>  (1) 
6

>  <PUBCHEM_PHARMACOPHORE_FEATURES>  (1) 
10
1 1 acceptor
1 1 donor
1 2 acceptor
1 2 donor
1 3 acceptor
1 4 acceptor
1 4 anion
1 5 acceptor
1 6 donor
6 10 12 13 15 16 17 rings

>  <PUBCHEM_HEAVY_ATOM_COUNT>  (1) 
18

>  <PUBCHEM_ATOM_DEF_STEREO_COUNT>  (1) 
0

>  <PUBCHEM_ATOM_UDEF_STEREO_COUNT>  (1) 
2

>  <PUBCHEM_BOND_DEF_STEREO_COUNT>  (1) 
0

>  <PUBCHEM_BOND_UDEF_STEREO_COUNT>  (1) 
0

>  <PUBCHEM_ISOTOPIC_ATOM_COUNT>  (1) 
0

>  <PUBCHEM_COMPONENT_COUNT>  (1) 
1

>  <PUBCHEM_CACTVS_TAUTO_COUNT>  (1) 
2

>  <PUBCHEM_CONFORMER_ID>  (1) 
000010EF00000001

>  <PUBCHEM_MMFF94_ENERGY>  (1) 
43.6683

>  <PUBCHEM_FEATURE_SELFOVERLAP>  (1) 
50.835

>  <PUBCHEM_SHAPE_FINGERPRINT>  (1) 
10366900 7 11818997378704241877
11401426 45 18411978079381616952
11471102 20 18187365411347337552
12236239 1 18272936011611502865
12251169 10 8934997075092972736
12730499 353 17822018596368602827
12788726 201 17345759581663021801
12815109 37 13830131680744346237
13214271 11 17676489466857715695
13533116 47 16916509142905448958
13760787 19 18412259554089724311
14115302 16 17846778541774744409
14911166 2 17418091022942277651
14943859 89 18187081754437504747
14993402 34 18060137630562050681
16752209 62 17489303023829525451
17862501 102 9151175350432939828
18186145 218 17560504167276994169
18522853 276 8502654809368672246
187816 3 17132115732401932171
19862831 5 18131631200983861048
200 152 17989207027426726136
20374829 77 14908177538832307165
20645476 183 18343295990077927159
20645477 70 18262237703613303770
20681677 155 18130784585583796651
20871999 31 18058723731955919663
21119208 17 18272932725940441688
22224240 67 15647058166625052041
23402539 116 12107787432471238347
23402655 69 18408601448475072820
23557571 272 14923941206875006870
23559900 14 17346592019824707538
25 1 17967525761991542266
2916195 48 17095240336793670381
347723 3 17704073975957480417
3545911 37 18187086152579039401
4047638 21 16950002530550679016
4072396 5 18113606877612015128
58051976 100 18341608274236449455
633830 44 17749669683932369518

>  <PUBCHEM_SHAPE_MULTIPOLES>  (1) 
331.12
10.63
1.48
1.19
0.66
0.31
0.15
-2.97
-1.87
-0.08
-0.43
0.68
0.14
-0.53

>  <PUBCHEM_SHAPE_SELFOVERLAP>  (1) 
680.113

>  <PUBCHEM_SHAPE_VOLUME>  (1) 
190.5

>  <PUBCHEM_COORDINATE_TYPE>  (1) 
2
5
10

$$$$
