43363
     RDKit          3D

 16 18  0  0  1  0  0  0  0  0999 V2000
    2.6809    1.6144   -0.2520 S   0  0  0  0  0  0  0  0  0  0  0  0
    2.6884   -1.3628   -0.3101 S   0  0  0  0  0  0  0  0  0  0  0  0
   -0.0648   -2.2608    0.0107 O   0  0  0  0  0  0  0  0  0  0  0  0
   -1.9103    0.6512    0.6532 C   0  0  0  0  0  0  0  0  0  0  0  0
   -1.8767   -0.6193   -0.2408 C   0  0  0  0  0  0  0  0  0  0  0  0
   -0.6133    1.2209   -0.0014 C   0  0  0  0  0  0  0  0  0  0  0  0
    0.4476    0.1113    0.2702 C   0  0  0  0  0  0  0  0  0  0  0  0
   -1.8057   -0.0582   -1.6807 C   0  0  0  0  0  0  0  0  0  0  0  0
   -0.9848    1.2381   -1.5062 C   0  0  0  0  0  0  0  0  0  0  0  0
   -0.4430   -1.0992    0.0221 C   0  0  0  0  0  0  0  0  0  0  0  0
   -1.7843    0.3844    2.1670 C   0  0  0  0  0  0  0  0  0  0  0  0
   -3.1659    1.5299    0.4732 C   0  0  0  0  0  0  0  0  0  0  0  0
   -2.9399   -1.6676   -0.0157 C   0  0  0  0  0  0  0  0  0  0  0  0
    1.6884    0.1266   -0.6127 C   0  0  0  0  0  0  0  0  0  0  0  0
    4.2180    0.7672    0.2088 C   0  0  0  0  0  0  0  0  0  0  0  0
    3.8654   -0.5759    0.8144 C   0  0  0  0  0  0  0  0  0  0  0  0
  1 14  1  0
  1 15  1  0
  2 14  1  0
  2 16  1  0
  3 10  2  0
  4  5  1  0
  4  6  1  0
  4 11  1  0
  4 12  1  0
  5  8  1  0
  5 10  1  0
  5 13  1  0
  6  7  1  0
  6  9  1  0
  7 10  1  0
  7 14  1  0
  8  9  1  0
 15 16  1  0
M  END
>  <PUBCHEM_COMPOUND_CID>  (1) 
43363

>  <PUBCHEM_CONFORMER_RMSD>  (1) 
0.6

>  <PUBCHEM_CONFORMER_DIVERSEORDER>  (1) 
1
2
3
4

>  <PUBCHEM_MMFF94_PARTIAL_CHARGES>  (1) 
9
1 -0.46
10 0.45
14 0.46
15 0.23
16 0.23
2 -0.46
3 -0.57
5 0.06
7 0.06

>  <PUBCHEM_EFFECTIVE_ROTOR_COUNT>  (1) 
2.8

>  <PUBCHEM_PHARMACOPHORE_FEATURES>  (1) 
4
1 3 acceptor
3 4 11 12 hydrophobe
5 1 2 14 15 16 rings
7 4 5 6 7 8 9 10 rings

>  <PUBCHEM_HEAVY_ATOM_COUNT>  (1) 
16

>  <PUBCHEM_ATOM_DEF_STEREO_COUNT>  (1) 
0

>  <PUBCHEM_ATOM_UDEF_STEREO_COUNT>  (1) 
3

>  <PUBCHEM_BOND_DEF_STEREO_COUNT>  (1) 
0

>  <PUBCHEM_BOND_UDEF_STEREO_COUNT>  (1) 
0

>  <PUBCHEM_ISOTOPIC_ATOM_COUNT>  (1) 
0

>  <PUBCHEM_COMPONENT_COUNT>  (1) 
1

>  <PUBCHEM_CACTVS_TAUTO_COUNT>  (1) 
2

>  <PUBCHEM_CONFORMER_ID>  (1) 
0000A96300000001

>  <PUBCHEM_MMFF94_ENERGY>  (1) 
62.8078

>  <PUBCHEM_FEATURE_SELFOVERLAP>  (1) 
20.297

>  <PUBCHEM_SHAPE_FINGERPRINT>  (1) 
10863032 1 18201723929225384603
10948715 1 17986114015719366177
11132069 177 18410014312258089682
12173636 292 18343581819745066461
12251169 10 18409737244065712752
12382932 28 18342742901326777520
12423570 1 8643631841272382887
12491281 212 16630253502184046778
12916754 54 18333726948955184326
12932764 1 17895194372773924686
13024252 1 15285351821554719917
13172582 1 18333736792962029132
13214271 11 18202843262053606052
13296908 3 17822006480951402538
13581323 91 18113332042332983606
13693222 15 18187361060661465672
13764800 53 16486988270840188161
14144814 61 18410853274606999672
14614273 12 18261101946676986479
15309172 13 18335988592691435394
15534591 1 16414370961270598785
15653759 3 17240484680720041232
15775835 57 18335423448083487792
16945 1 18055094076547384909
18186145 218 18339923719295820374
19837323 101 15769228132764021665
200 152 18129929182711773903
20510252 161 18131074869564591162
20525323 117 17988638623054522006
21501502 16 18410013277529816972
21524375 3 16698943184879965129
2306618 200 18335690624903404724
23402539 116 18270668891533701310
23419403 2 17626636634701992039
23493267 7 14764355916134704622
23557571 272 15984810575796604898
23559900 14 18202003175826478646
2748010 2 18335425642574470958
369184 2 18411982455293973452
4340502 62 18270689654196686473
5104073 3 18410852170874252010
5706482 22 18272651208235617313
74978 22 18411139169052420772

>  <PUBCHEM_SHAPE_MULTIPOLES>  (1) 
331.1
6.01
1.88
1.36
5.27
0.41
-0.16
-0.47
-1.02
-0.21
0.1
-0.84
-0.27
-0.28

>  <PUBCHEM_SHAPE_SELFOVERLAP>  (1) 
679.898

>  <PUBCHEM_SHAPE_VOLUME>  (1) 
197.5

>  <PUBCHEM_COORDINATE_TYPE>  (1) 
2
5
10

$$$$
