43369
     RDKit          3D

  5  4  0  0  0  0  0  0  0  0999 V2000
   -0.4394    0.0108   -0.3427 N   0  0  0  0  0  0  0  0  0  0  0  0
    0.6684   -0.6933    0.2587 N   0  0  0  0  0  0  0  0  0  0  0  0
   -1.6638   -0.6929    0.0365 C   0  0  0  0  0  0  0  0  0  0  0  0
   -0.4715    1.3906    0.1487 C   0  0  0  0  0  0  0  0  0  0  0  0
    1.9063   -0.0152   -0.1011 C   0  0  0  0  0  0  0  0  0  0  0  0
  1  2  1  0
  1  3  1  0
  1  4  1  0
  2  5  1  0
M  END
>  <PUBCHEM_COMPOUND_CID>  (1) 
43369

>  <PUBCHEM_CONFORMER_RMSD>  (1) 
0.4

>  <PUBCHEM_CONFORMER_DIVERSEORDER>  (1) 
1
2
3

>  <PUBCHEM_MMFF94_PARTIAL_CHARGES>  (1) 
6
1 -0.54
2 -0.63
3 0.27
4 0.27
5 0.27
6 0.36

>  <PUBCHEM_EFFECTIVE_ROTOR_COUNT>  (1) 
1

>  <PUBCHEM_PHARMACOPHORE_FEATURES>  (1) 
1
1 2 donor

>  <PUBCHEM_HEAVY_ATOM_COUNT>  (1) 
5

>  <PUBCHEM_ATOM_DEF_STEREO_COUNT>  (1) 
0

>  <PUBCHEM_ATOM_UDEF_STEREO_COUNT>  (1) 
0

>  <PUBCHEM_BOND_DEF_STEREO_COUNT>  (1) 
0

>  <PUBCHEM_BOND_UDEF_STEREO_COUNT>  (1) 
0

>  <PUBCHEM_ISOTOPIC_ATOM_COUNT>  (1) 
0

>  <PUBCHEM_COMPONENT_COUNT>  (1) 
1

>  <PUBCHEM_CACTVS_TAUTO_COUNT>  (1) 
1

>  <PUBCHEM_CONFORMER_ID>  (1) 
0000A96900000001

>  <PUBCHEM_MMFF94_ENERGY>  (1) 
11.6676

>  <PUBCHEM_FEATURE_SELFOVERLAP>  (1) 
5.074

>  <PUBCHEM_SHAPE_FINGERPRINT>  (1) 
139733 1 9295299343175915095
16714656 1 18271814535531622030
20096714 4 17977950077200072624
21015797 1 9655276164396414575
21040471 1 17907296546494147904
29004967 10 18337676428738996411
5460574 1 9439413423102833294
5943 1 11189997846341735989

>  <PUBCHEM_SHAPE_MULTIPOLES>  (1) 
92.94
2.16
1.19
0.62
0.53
0.47
0
-0.49
-0.04
-0.29
0.08
0
0.01
-0.03

>  <PUBCHEM_SHAPE_SELFOVERLAP>  (1) 
153.422

>  <PUBCHEM_SHAPE_VOLUME>  (1) 
65.9

>  <PUBCHEM_COORDINATE_TYPE>  (1) 
2
5
10

$$$$
