4336
     RDKit          3D

 26 25  0  0  1  0  0  0  0  0999 V2000
    0.4136   -2.3344    0.3182 S   0  0  0  0  0  0  0  0  0  0  0  0
   -3.0052   -2.9146   -1.0396 O   0  0  0  0  0  0  0  0  0  0  0  0
   -3.2174   -2.5586    1.2223 O   0  0  0  0  0  0  0  0  0  0  0  0
   -3.8657    1.0217    0.8736 O   0  0  0  0  0  0  0  0  0  0  0  0
   -1.8698   -0.1577    1.0878 N   0  0  0  0  0  0  0  0  0  0  0  0
    4.6320    0.6361    0.2018 C   0  0  0  0  0  0  0  0  0  0  0  0
    4.7873   -0.5362   -0.7752 C   0  0  0  0  0  0  0  0  0  0  0  0
    1.0985    2.3066    0.8763 C   0  0  0  0  0  0  0  0  0  0  0  0
    2.4048    1.5654    1.0663 C   0  0  0  0  0  0  0  0  0  0  0  0
    3.3005    1.3256    0.0885 C   0  0  0  0  0  0  0  0  0  0  0  0
    3.8177   -1.6740   -0.5351 C   0  0  0  0  0  0  0  0  0  0  0  0
    0.8592    2.8073   -0.5536 C   0  0  0  0  0  0  0  0  0  0  0  0
    2.6329   -1.8047   -1.1649 C   0  0  0  0  0  0  0  0  0  0  0  0
   -1.9827   -0.9584   -0.1068 C   0  0  0  0  0  0  0  0  0  0  0  0
    2.6928    1.1215    2.4774 C   0  0  0  0  0  0  0  0  0  0  0  0
    1.6006   -2.8686   -0.9457 C   0  0  0  0  0  0  0  0  0  0  0  0
   -0.6137   -1.2682   -0.7184 C   0  0  0  0  0  0  0  0  0  0  0  0
    4.2260   -2.6671    0.5213 C   0  0  0  0  0  0  0  0  0  0  0  0
   -0.4365    3.5550   -0.7079 C   0  0  0  0  0  0  0  0  0  0  0  0
   -1.4491    3.2765   -1.5502 C   0  0  0  0  0  0  0  0  0  0  0  0
   -2.8041   -2.2231    0.1171 C   0  0  0  0  0  0  0  0  0  0  0  0
   -2.6715    4.1536   -1.5914 C   0  0  0  0  0  0  0  0  0  0  0  0
   -1.4890    2.1067   -2.4918 C   0  0  0  0  0  0  0  0  0  0  0  0
   -2.8259    0.7672    1.4758 C   0  0  0  0  0  0  0  0  0  0  0  0
   -2.4727    1.4455    2.7724 C   0  0  0  0  0  0  0  0  0  0  0  0
   -3.7626   -4.1230   -0.9181 C   0  0  0  0  0  0  0  0  0  0  0  0
  1 16  1  0
  1 17  1  0
  2 21  1  0
  2 26  1  0
  3 21  2  0
  4 24  2  0
  5 14  1  0
  5 24  1  0
  6  7  1  0
  6 10  1  0
  7 11  1  0
  8  9  1  0
  8 12  1  0
  9 10  2  0
  9 15  1  0
 11 13  2  0
 11 18  1  0
 12 19  1  0
 13 16  1  0
 14 17  1  0
 14 21  1  0
 19 20  2  3
 20 22  1  0
 20 23  1  0
 24 25  1  0
M  END
>  <PUBCHEM_COMPOUND_CID>  (1) 
4336

>  <PUBCHEM_CONFORMER_RMSD>  (1) 
1.6

>  <PUBCHEM_CONFORMER_DIVERSEORDER>  (1) 
1
31
38
79
148
24
65
20
55
119
118
11
34
70
121
143
90
82
95
30
43
122
61
99
142
47
48
78
101
72
86
64
2
75
94
146
56
120
88
7
141
6
96
5
77
66
13
21
132
8
19
23
137
126
107
93
98
67
140
110
125
73
124
103
25
114
45
89
123
14
136
109
85
130
33
113
44
4
76
105
60
115
108
50
35
12
87
29
138
28
54
102
139
131
144
128
100
37
58
133
74
91
42
129
63
97
145
111
51
49
134
135
92
10
3
69
127
39
46
147
9
59
104
62
112
84
106
27
52
15
68
22
36
53
80
81
83
17
71
117
26
40
116
32
16
57
18
41

>  <PUBCHEM_MMFF94_PARTIAL_CHARGES>  (1) 
30
1 -0.46
10 -0.29
11 -0.28
12 0.14
13 -0.29
14 0.36
15 0.14
16 0.37
17 0.23
18 0.14
19 -0.29
2 -0.43
20 -0.28
21 0.66
22 0.14
23 0.14
24 0.57
25 0.06
26 0.28
3 -0.57
33 0.15
36 0.15
4 -0.57
48 0.15
49 0.37
5 -0.73
6 0.14
7 0.14
8 0.14
9 -0.28

>  <PUBCHEM_EFFECTIVE_ROTOR_COUNT>  (1) 
14

>  <PUBCHEM_PHARMACOPHORE_FEATURES>  (1) 
9
1 15 hydrophobe
1 18 hydrophobe
1 3 acceptor
1 4 acceptor
1 5 donor
3 20 22 23 hydrophobe
4 1 13 16 17 hydrophobe
4 6 7 10 11 hydrophobe
4 8 9 12 19 hydrophobe

>  <PUBCHEM_HEAVY_ATOM_COUNT>  (1) 
26

>  <PUBCHEM_ATOM_DEF_STEREO_COUNT>  (1) 
0

>  <PUBCHEM_ATOM_UDEF_STEREO_COUNT>  (1) 
1

>  <PUBCHEM_BOND_DEF_STEREO_COUNT>  (1) 
0

>  <PUBCHEM_BOND_UDEF_STEREO_COUNT>  (1) 
2

>  <PUBCHEM_ISOTOPIC_ATOM_COUNT>  (1) 
0

>  <PUBCHEM_COMPONENT_COUNT>  (1) 
1

>  <PUBCHEM_CACTVS_TAUTO_COUNT>  (1) 
2

>  <PUBCHEM_CONFORMER_ID>  (1) 
000010F000000001

>  <PUBCHEM_MMFF94_ENERGY>  (1) 
34.6888

>  <PUBCHEM_FEATURE_SELFOVERLAP>  (1) 
45.681

>  <PUBCHEM_SHAPE_FINGERPRINT>  (1) 
107951 10 17026572352568613041
12633257 1 18199196087727224738
13402501 40 18193279589619482173
14251757 17 18048882883959958704
144659 39 17898000236475710104
20691752 17 18260837037536946386
20764821 26 18191862319226088180
20775438 99 17765667474773799175
238 59 17690545399726131148
35225 105 17242999173138586125
437795 51 17543071187181663605
4409770 3 17977670809979243334
508706 21 18337100172987376780
9981440 41 17398944977685689667

>  <PUBCHEM_SHAPE_MULTIPOLES>  (1) 
516.33
8.24
5.81
2.12
5.72
0.49
-0.76
3.34
-0.4
-5.25
2.67
-1.35
-1.49
1.37

>  <PUBCHEM_SHAPE_SELFOVERLAP>  (1) 
976.083

>  <PUBCHEM_SHAPE_VOLUME>  (1) 
321.3

>  <PUBCHEM_COORDINATE_TYPE>  (1) 
2
5
10

$$$$
