43367
     RDKit          3D

 19 20  0  0  1  0  0  0  0  0999 V2000
   -2.4652   -2.4604   -0.2082 O   0  0  0  0  0  0  0  0  0  0  0  0
    4.7262   -0.5805   -1.2147 O   0  0  0  0  0  0  0  0  0  0  0  0
   -3.8266    2.0292   -0.2149 O   0  0  0  0  0  0  0  0  0  0  0  0
    0.2935   -1.3950    0.2481 N   0  0  0  0  0  0  0  0  0  0  0  0
   -1.5676    1.5688    0.1001 N   0  0  0  0  0  0  0  0  0  0  0  0
   -3.1704   -0.2193   -0.2167 N   0  0  0  0  0  0  0  0  0  0  0  0
    2.5432   -0.8029    0.6069 N   0  0  0  0  0  0  0  0  0  0  0  0
    0.7438    0.7824    0.4100 N   0  0  0  0  0  0  0  0  0  0  0  0
   -0.8988   -0.7462    0.0994 C   0  0  0  0  0  0  0  0  0  0  0  0
   -0.5948    0.5838    0.2024 C   0  0  0  0  0  0  0  0  0  0  0  0
    1.2522   -0.4325    0.4325 C   0  0  0  0  0  0  0  0  0  0  0  0
   -2.2112   -1.2622   -0.1189 C   0  0  0  0  0  0  0  0  0  0  0  0
    3.6550    0.1234    0.8108 C   0  0  0  0  0  0  0  0  0  0  0  0
   -2.9179    1.1966   -0.1169 C   0  0  0  0  0  0  0  0  0  0  0  0
    4.2576    0.5712   -0.5164 C   0  0  0  0  0  0  0  0  0  0  0  0
    0.5017   -2.8256    0.2176 C   0  0  0  0  0  0  0  0  0  0  0  0
   -1.1948    2.9732    0.2168 C   0  0  0  0  0  0  0  0  0  0  0  0
   -4.5547   -0.6228   -0.4416 C   0  0  0  0  0  0  0  0  0  0  0  0
    5.4287    1.5189   -0.2963 C   0  0  0  0  0  0  0  0  0  0  0  0
  1 12  2  0
  2 15  1  0
  3 14  2  0
  4  9  1  0
  4 11  1  0
  4 16  1  0
  5 10  1  0
  5 14  1  0
  5 17  1  0
  6 12  1  0
  6 14  1  0
  6 18  1  0
  7 11  1  0
  7 13  1  0
  8 10  1  0
  8 11  2  0
  9 10  2  0
  9 12  1  0
 13 15  1  0
 15 19  1  0
M  END
>  <PUBCHEM_COMPOUND_CID>  (1) 
43367

>  <PUBCHEM_CONFORMER_RMSD>  (1) 
0.6

>  <PUBCHEM_CONFORMER_DIVERSEORDER>  (1) 
2
9
1
11
6
5
3
8
4
7
10

>  <PUBCHEM_MMFF94_PARTIAL_CHARGES>  (1) 
20
1 -0.57
10 0.29
11 0.27
12 0.71
13 0.37
14 0.69
15 0.28
16 0.26
17 0.3
18 0.3
2 -0.68
22 0.4
3 -0.57
36 0.4
4 0.05
5 -0.42
6 -0.42
7 -0.85
8 -0.57
9 -0.24

>  <PUBCHEM_EFFECTIVE_ROTOR_COUNT>  (1) 
3

>  <PUBCHEM_PHARMACOPHORE_FEATURES>  (1) 
8
1 1 acceptor
1 2 acceptor
1 2 donor
1 3 acceptor
1 7 donor
4 4 7 8 11 cation
5 4 8 9 10 11 rings
6 5 6 9 10 12 14 rings

>  <PUBCHEM_HEAVY_ATOM_COUNT>  (1) 
19

>  <PUBCHEM_ATOM_DEF_STEREO_COUNT>  (1) 
0

>  <PUBCHEM_ATOM_UDEF_STEREO_COUNT>  (1) 
1

>  <PUBCHEM_BOND_DEF_STEREO_COUNT>  (1) 
0

>  <PUBCHEM_BOND_UDEF_STEREO_COUNT>  (1) 
0

>  <PUBCHEM_ISOTOPIC_ATOM_COUNT>  (1) 
0

>  <PUBCHEM_COMPONENT_COUNT>  (1) 
1

>  <PUBCHEM_CACTVS_TAUTO_COUNT>  (1) 
3

>  <PUBCHEM_CONFORMER_ID>  (1) 
0000A96700000002

>  <PUBCHEM_MMFF94_ENERGY>  (1) 
33.3659

>  <PUBCHEM_FEATURE_SELFOVERLAP>  (1) 
40.713

>  <PUBCHEM_SHAPE_FINGERPRINT>  (1) 
10411042 1 17833830847645186355
10498660 4 18409445860821262604
10967382 1 18411410713917102147
12173636 292 18410569566083985924
12236239 1 17749383784959905050
12390115 104 18129112143052693161
12403814 3 17458338620307441989
12954195 1 17986686874225590948
13140716 1 18194688296512194025
14790565 3 18339933631944008033
15196674 1 18410007702313970731
16945 1 18340193112434607803
18186145 218 17917710219010888554
20510252 161 18342461456399104896
20645477 70 17060349505004020838
20871999 31 18341614858299773900
21029758 27 18261394490180102821
21267235 1 18339927138380334415
21501502 16 18194957448753225459
2334 1 18122897896378716753
23366157 5 17899415285938651234
23402539 116 18340199804067547150
23557571 272 18272658964925597860
23558518 356 17976253535185361251
23559900 14 18127405649419433990
2748010 2 18124016078245074761
474 4 17313391170981217052
4990 188 18060140912465704102
5104073 3 18336825295032915226
58051976 378 18412543202419775942

>  <PUBCHEM_SHAPE_MULTIPOLES>  (1) 
348.5
9.15
2.69
0.77
8.85
0.15
-0.04
2.52
-2.35
-1.61
0.1
0.54
-0.04
-0.23

>  <PUBCHEM_SHAPE_SELFOVERLAP>  (1) 
731.019

>  <PUBCHEM_SHAPE_VOLUME>  (1) 
198.3

>  <PUBCHEM_COORDINATE_TYPE>  (1) 
2
5
10

$$$$
