43361
     RDKit          3D

 23 25  0  0  1  0  0  0  0  0999 V2000
   -0.6121    0.8736    0.0183 O   0  0  0  0  0  0  0  0  0  0  0  0
    1.7474   -1.1043   -1.8247 O   0  0  0  0  0  0  0  0  0  0  0  0
   -0.6109    0.0898   -2.1489 O   0  0  0  0  0  0  0  0  0  0  0  0
   -4.0508    0.9420    0.2776 N   0  0  0  0  0  0  0  0  0  0  0  0
    0.9246   -1.6317    0.3413 C   0  0  0  0  0  0  0  0  0  0  0  0
   -0.0648   -2.6580   -0.2020 C   0  0  0  0  0  0  0  0  0  0  0  0
    2.1475   -2.4901    0.6489 C   0  0  0  0  0  0  0  0  0  0  0  0
    1.2143   -0.5045   -0.6341 C   0  0  0  0  0  0  0  0  0  0  0  0
    0.1410   -3.8796    0.6885 C   0  0  0  0  0  0  0  0  0  0  0  0
    1.5610   -3.7652    1.2457 C   0  0  0  0  0  0  0  0  0  0  0  0
   -1.8308    1.5595   -0.2328 C   0  0  0  0  0  0  0  0  0  0  0  0
   -2.3096    2.2696    1.0310 C   0  0  0  0  0  0  0  0  0  0  0  0
   -0.1038    0.1686   -1.0365 C   0  0  0  0  0  0  0  0  0  0  0  0
   -2.9233    0.5461   -0.5693 C   0  0  0  0  0  0  0  0  0  0  0  0
    2.2344    0.5460   -0.1907 C   0  0  0  0  0  0  0  0  0  0  0  0
   -3.4559    1.4044    1.5302 C   0  0  0  0  0  0  0  0  0  0  0  0
   -5.0046   -0.1384    0.4779 C   0  0  0  0  0  0  0  0  0  0  0  0
    2.2777    0.9029    1.1376 C   0  0  0  0  0  0  0  0  0  0  0  0
    3.0701    1.0938   -1.1369 C   0  0  0  0  0  0  0  0  0  0  0  0
   -5.6285   -0.5709   -0.8381 C   0  0  0  0  0  0  0  0  0  0  0  0
    3.2078    1.8605    1.5421 C   0  0  0  0  0  0  0  0  0  0  0  0
    4.0003    2.0513   -0.7322 C   0  0  0  0  0  0  0  0  0  0  0  0
    4.0691    2.4346    0.6073 C   0  0  0  0  0  0  0  0  0  0  0  0
  1 11  1  0
  1 13  1  0
  2  8  1  0
  3 13  2  0
  4 14  1  0
  4 16  1  0
  4 17  1  0
  5  6  1  0
  5  7  1  0
  5  8  1  0
  6  9  1  0
  7 10  1  0
  8 13  1  0
  8 15  1  0
  9 10  1  0
 11 12  1  0
 11 14  1  0
 12 16  1  0
 15 18  2  0
 15 19  1  0
 17 20  1  0
 18 21  1  0
 19 22  2  0
 21 23  2  0
 22 23  1  0
M  END
>  <PUBCHEM_COMPOUND_CID>  (1) 
43361

>  <PUBCHEM_CONFORMER_RMSD>  (1) 
0.8

>  <PUBCHEM_CONFORMER_DIVERSEORDER>  (1) 
4
337
165
421
280
197
216
366
376
339
408
144
277
267
157
385
133
230
71
426
281
402
361
7
401
54
418
186
383
367
264
333
329
325
338
75
34
208
411
226
78
268
287
386
101
19
279
49
193
275
362
237
141
253
138
247
318
285
55
231
152
201
148
400
398
109
405
240
416
65
242
335
353
404
6
27
155
293
359
210
249
369
202
74
151
232
399
29
213
33
257
183
137
80
390
412
93
409
104
269
234
410
91
272
298
305
295
163
206
255
59
423
212
322
328
403
284
427
129
85
251
271
422
363
407
145
56
266
143
24
258
31
378
396
175
120
432
52
107
433
123
42
51
150
43
207
311
252
98
136
233
37
236
331
380
373
63
319
192
259
320
303
314
189
217
358
39
116
112
159
246
161
50
162
288
219
88
419
115
316
135
172
379
296
245
41
308
20
355
105
73
79
360
195
372
119
32
68
103
370
114
131
352
218
437
343
57
241
302
223
227
174
191
166
374
381
384
365
326
146
23
351
30
273
14
18
274
377
118
9
356
94
260
187
117
347
194
198
149
16
124
125
182
222
261
291
307
301
304
430
334
26
10
178
289
167
8
290
190
36
44
25
414
243
156
130
228
180
214
22
188
349
142
346
139
332
340
294
181
397
265
327
425
106
276
170
248
357
102
160
35
283
435
13
300
64
434
72
184
86
122
344
250
221
134
132
263
254
45
342
278
350
256
28
200
83
299
215
62
286
391
244
336
395
345
67
330
209
415
168
100
2
321
429
239
127
413
87
99
306
262
282
147
309
428
169
153
21
40
82
5
171
96
66
420
341
47
89
224
393
313
173
128
92
158
1
15
436
205
38
431
382
58
371
121
12
84
199
196
392
111
17
387
77
61
220
238
46
389
76
48
53
211
95
229
179
90
324
126
312
154
417
354
203
225
3
235
406
204
424
315
110
81
140
375
70
323
317
348
177
97
388
164
368
69
310
297
185
394
113
11
60
270
364
176
292
108

>  <PUBCHEM_MMFF94_PARTIAL_CHARGES>  (1) 
22
1 -0.43
11 0.28
13 0.66
14 0.27
15 -0.14
16 0.27
17 0.27
18 -0.15
19 -0.15
2 -0.68
21 -0.15
22 -0.15
23 -0.15
3 -0.57
4 -0.81
40 0.4
43 0.15
44 0.15
48 0.15
49 0.15
50 0.15
8 0.48

>  <PUBCHEM_EFFECTIVE_ROTOR_COUNT>  (1) 
8

>  <PUBCHEM_PHARMACOPHORE_FEATURES>  (1) 
7
1 2 acceptor
1 2 donor
1 3 acceptor
1 4 cation
5 4 11 12 14 16 rings
5 5 6 7 9 10 rings
6 15 18 19 21 22 23 rings

>  <PUBCHEM_HEAVY_ATOM_COUNT>  (1) 
23

>  <PUBCHEM_ATOM_DEF_STEREO_COUNT>  (1) 
0

>  <PUBCHEM_ATOM_UDEF_STEREO_COUNT>  (1) 
2

>  <PUBCHEM_BOND_DEF_STEREO_COUNT>  (1) 
0

>  <PUBCHEM_BOND_UDEF_STEREO_COUNT>  (1) 
0

>  <PUBCHEM_ISOTOPIC_ATOM_COUNT>  (1) 
0

>  <PUBCHEM_COMPONENT_COUNT>  (1) 
1

>  <PUBCHEM_CACTVS_TAUTO_COUNT>  (1) 
1

>  <PUBCHEM_CONFORMER_ID>  (1) 
0000A96100000004

>  <PUBCHEM_MMFF94_ENERGY>  (1) 
53.5971

>  <PUBCHEM_FEATURE_SELFOVERLAP>  (1) 
35.53

>  <PUBCHEM_SHAPE_FINGERPRINT>  (1) 
10074138 170 17903898299997931242
10090160 65 18338231665337582853
10165383 225 18334871532196891068
10366900 7 18262813877512118345
1100329 8 18050285070349022921
11646440 116 17762346112361565691
12633257 1 17840032836629004409
12788726 201 17542230507250912370
13140716 1 18408037407732262618
13533116 47 18265055735299270785
13583140 156 18194953055249692581
13911987 19 18115029731120568149
14289901 80 18335426712417401505
146900 427 18202007642318101833
14787075 74 18128813230445203525
14863182 85 18041860470718176951
17138139 8 17910935144662864303
17868525 174 17544481855750842193
204376 136 18334577992034384597
20567600 347 18410572902962247698
20681651 13 18272092635481865289
21524375 3 18344144804506638620
21796203 349 17616850667509016643
22393880 68 18270125604341559117
2255824 54 18266186028235126406
22956985 138 17970336027992822458
23558518 356 17622989610172412976
23559900 14 18045212752737760125
25222932 49 18271240655794346311
2637199 183 17274834557553382204
3052486 1 18118969336795320379
312423 11 18129944460369329301
350125 39 18335135402023377890
3797600 57 17775564226142834697
392239 28 18270685410489377979
427121 178 18411425037469321934
4340502 62 18410293644499819807
458136 41 18335148565776003448
469060 322 17897710180117185311
474 4 18410298050714889620
5486654 2 18267306606930774933
59755656 520 18337386162481065740
6442390 28 18337961202387740362
6913067 236 18040984185857800197
7097593 13 17764031259790143475
7495541 125 11599718519624388221
81228 2 17904197380098419278

>  <PUBCHEM_SHAPE_MULTIPOLES>  (1) 
450.74
8.5
3.96
1.53
9.84
4.71
-0.21
-5.51
0.46
-2.88
1.75
-0.29
-0.2
-0.69

>  <PUBCHEM_SHAPE_SELFOVERLAP>  (1) 
953.28

>  <PUBCHEM_SHAPE_VOLUME>  (1) 
254.8

>  <PUBCHEM_COORDINATE_TYPE>  (1) 
2
5
10

$$$$
