43375
     RDKit          3D

 15 14  0  0  0  0  0  0  0  0999 V2000
   -0.6691    0.0220    0.1855 Si  0  0  0  0  0  4  0  0  0  0  0  0
   -0.9910    1.3550   -0.7809 O   0  0  0  0  0  0  0  0  0  0  0  0
    0.0900   -1.1515   -0.7413 O   0  0  0  0  0  0  0  0  0  0  0  0
   -2.1221   -0.5837    0.7665 O   0  0  0  0  0  0  0  0  0  0  0  0
    2.5572    0.1257    0.5870 O   0  0  0  0  0  0  0  0  0  0  0  0
    0.4172    0.5253    1.6334 C   0  0  0  0  0  0  0  0  0  0  0  0
    1.7855    1.1008    1.2779 C   0  0  0  0  0  0  0  0  0  0  0  0
   -1.6614    2.4768   -0.2245 C   0  0  0  0  0  0  0  0  0  0  0  0
    0.4469   -2.3914   -0.1477 C   0  0  0  0  0  0  0  0  0  0  0  0
   -3.1085   -1.0300   -0.1535 C   0  0  0  0  0  0  0  0  0  0  0  0
   -1.8273    3.5333   -1.2960 C   0  0  0  0  0  0  0  0  0  0  0  0
    1.1117   -3.2643   -1.1907 C   0  0  0  0  0  0  0  0  0  0  0  0
   -4.3138   -1.5247    0.6174 C   0  0  0  0  0  0  0  0  0  0  0  0
    3.7874    0.5941    0.2655 C   0  0  0  0  0  0  0  0  0  0  0  0
    4.4973    0.2126   -0.7985 C   0  0  0  0  0  0  0  0  0  0  0  0
  1  2  1  0
  1  3  1  0
  1  4  1  0
  1  6  1  0
  2  8  1  0
  3  9  1  0
  4 10  1  0
  5  7  1  0
  5 14  1  0
  6  7  1  0
  8 11  1  0
  9 12  1  0
 10 13  1  0
 14 15  2  0
M  END
>  <PUBCHEM_COMPOUND_CID>  (1) 
43375

>  <PUBCHEM_CONFORMER_RMSD>  (1) 
0.8

>  <PUBCHEM_CONFORMER_DIVERSEORDER>  (1) 
1
15
18
11
6
9
20
12
5
17
14
23
8
13
3
2
16
22
7
4
21
19
10

>  <PUBCHEM_MMFF94_PARTIAL_CHARGES>  (1) 
15
1 0.97
10 0.28
14 -0.07
15 -0.3
2 -0.58
3 -0.58
35 0.15
36 0.15
37 0.15
4 -0.58
5 -0.36
6 -0.08
7 0.28
8 0.28
9 0.28

>  <PUBCHEM_EFFECTIVE_ROTOR_COUNT>  (1) 
10

>  <PUBCHEM_PHARMACOPHORE_FEATURES>  (1) 
1
1 5 acceptor

>  <PUBCHEM_HEAVY_ATOM_COUNT>  (1) 
15

>  <PUBCHEM_ATOM_DEF_STEREO_COUNT>  (1) 
0

>  <PUBCHEM_ATOM_UDEF_STEREO_COUNT>  (1) 
0

>  <PUBCHEM_BOND_DEF_STEREO_COUNT>  (1) 
0

>  <PUBCHEM_BOND_UDEF_STEREO_COUNT>  (1) 
0

>  <PUBCHEM_ISOTOPIC_ATOM_COUNT>  (1) 
0

>  <PUBCHEM_COMPONENT_COUNT>  (1) 
1

>  <PUBCHEM_CACTVS_TAUTO_COUNT>  (1) 
1

>  <PUBCHEM_CONFORMER_ID>  (1) 
0000A96F00000001

>  <PUBCHEM_MMFF94_ENERGY>  (1) 
14.5176

>  <PUBCHEM_FEATURE_SELFOVERLAP>  (1) 
5.074

>  <PUBCHEM_SHAPE_FINGERPRINT>  (1) 
12186901 62 18333446530187085124
13380535 21 18197218048975901681
16945 1 18115012108447122488
20344682 1 18338520840800089723
20511035 2 17762011546813217058
21330990 113 18342185474548246569
21501502 16 18194391204633455267
23419403 2 15893567277354378906
23557571 272 18187087235005814959
2748010 2 18128245693118511426
3250762 1 18122622760705266959
3286 77 17274260685429061945
45790113 53 18341604949831529192
53812653 11 18058165209876163178
56616090 163 18120942698221776236
59554788 170 18266458891792398216
81228 2 17479144897756981186
9999458 23 17631454643215617187

>  <PUBCHEM_SHAPE_MULTIPOLES>  (1) 
303.43
6.27
3.54
1.32
2.86
0.49
0.14
-0.59
-0.04
-1.94
-2.02
0.2
0.31
1.48

>  <PUBCHEM_SHAPE_SELFOVERLAP>  (1) 
547.886

>  <PUBCHEM_SHAPE_VOLUME>  (1) 
195.3

>  <PUBCHEM_COORDINATE_TYPE>  (1) 
2
5
10

$$$$
