43373
     RDKit          3D

 24 27  0  0  1  0  0  0  0  0999 V2000
    2.3760    0.5668    1.2201 O   0  0  0  0  0  0  0  0  0  0  0  0
   -6.3204    0.2776   -0.3581 O   0  0  0  0  0  0  0  0  0  0  0  0
    2.0962   -0.1323   -1.1221 C   0  0  0  0  0  0  0  0  0  0  0  0
    1.1833   -1.3274   -0.7277 C   0  0  0  0  0  0  0  0  0  0  0  0
   -0.0814   -0.9792    0.1069 C   0  0  0  0  0  0  0  0  0  0  0  0
   -0.8462    0.2420   -0.4623 C   0  0  0  0  0  0  0  0  0  0  0  0
    3.0531   -0.0163    0.1053 C   0  0  0  0  0  0  0  0  0  0  0  0
    1.3027    1.1462   -1.4554 C   0  0  0  0  0  0  0  0  0  0  0  0
    2.1228   -2.2800    0.0493 C   0  0  0  0  0  0  0  0  0  0  0  0
   -2.1819    0.5708    0.3178 C   0  0  0  0  0  0  0  0  0  0  0  0
    0.1062    1.4447   -0.5610 C   0  0  0  0  0  0  0  0  0  0  0  0
    3.3632   -1.4765    0.4572 C   0  0  0  0  0  0  0  0  0  0  0  0
   -1.0238   -2.1988    0.1609 C   0  0  0  0  0  0  0  0  0  0  0  0
    2.8862   -0.5112   -2.4066 C   0  0  0  0  0  0  0  0  0  0  0  0
   -3.0061   -0.7072    0.5008 C   0  0  0  0  0  0  0  0  0  0  0  0
   -2.2606   -1.9182    1.0011 C   0  0  0  0  0  0  0  0  0  0  0  0
    4.3262    0.7990   -0.1184 C   0  0  0  0  0  0  0  0  0  0  0  0
   -2.9915    1.6067   -0.5177 C   0  0  0  0  0  0  0  0  0  0  0  0
   -1.9033    1.1658    1.7175 C   0  0  0  0  0  0  0  0  0  0  0  0
   -4.4440    1.7388   -0.0865 C   0  0  0  0  0  0  0  0  0  0  0  0
   -4.3262   -0.7947    0.2668 C   0  0  0  0  0  0  0  0  0  0  0  0
    5.2190    0.7776    1.1170 C   0  0  0  0  0  0  0  0  0  0  0  0
   -5.1225    0.3955   -0.1085 C   0  0  0  0  0  0  0  0  0  0  0  0
    6.4731    1.6101    0.9037 C   0  0  0  0  0  0  0  0  0  0  0  0
  1  7  1  0
  2 23  2  0
  3  4  1  0
  3  7  1  0
  3  8  1  0
  3 14  1  0
  4  5  1  0
  4  9  1  0
  5  6  1  0
  5 13  1  0
  6 10  1  0
  6 11  1  0
  7 12  1  0
  7 17  1  0
  8 11  1  0
  9 12  1  0
 10 15  1  0
 10 18  1  0
 10 19  1  0
 13 16  1  0
 15 16  1  0
 15 21  2  0
 17 22  1  0
 18 20  1  0
 20 23  1  0
 21 23  1  0
 22 24  1  0
M  END
>  <PUBCHEM_COMPOUND_CID>  (1) 
43373

>  <PUBCHEM_CONFORMER_RMSD>  (1) 
0.6

>  <PUBCHEM_CONFORMER_DIVERSEORDER>  (1) 
2
17
11
5
21
4
15
18
20
19
22
6
16
10
9
1
8
23
13
14
12
24
7
3

>  <PUBCHEM_MMFF94_PARTIAL_CHARGES>  (1) 
11
1 -0.68
10 0.14
15 -0.28
16 0.14
2 -0.57
20 0.06
21 -0.14
23 0.49
50 0.4
53 0.15
7 0.28

>  <PUBCHEM_EFFECTIVE_ROTOR_COUNT>  (1) 
3.8

>  <PUBCHEM_PHARMACOPHORE_FEATURES>  (1) 
8
1 1 acceptor
1 1 donor
1 2 acceptor
1 24 hydrophobe
5 3 4 7 9 12 rings
6 10 15 18 20 21 23 rings
6 3 4 5 6 8 11 rings
6 5 6 10 13 15 16 rings

>  <PUBCHEM_HEAVY_ATOM_COUNT>  (1) 
24

>  <PUBCHEM_ATOM_DEF_STEREO_COUNT>  (1) 
3

>  <PUBCHEM_ATOM_UDEF_STEREO_COUNT>  (1) 
3

>  <PUBCHEM_BOND_DEF_STEREO_COUNT>  (1) 
0

>  <PUBCHEM_BOND_UDEF_STEREO_COUNT>  (1) 
0

>  <PUBCHEM_ISOTOPIC_ATOM_COUNT>  (1) 
0

>  <PUBCHEM_COMPONENT_COUNT>  (1) 
1

>  <PUBCHEM_CACTVS_TAUTO_COUNT>  (1) 
5

>  <PUBCHEM_CONFORMER_ID>  (1) 
0000A96D00000002

>  <PUBCHEM_MMFF94_ENERGY>  (1) 
77.1254

>  <PUBCHEM_FEATURE_SELFOVERLAP>  (1) 
40.748

>  <PUBCHEM_SHAPE_FINGERPRINT>  (1) 
10 15 18261949747979161232
10366900 7 17489870448759126098
11045977 3 18341611560013038104
11132069 177 18260555510609034887
11370993 70 18409448081087051283
12011746 2 18201721769015285272
12236239 1 17167863101403982464
12403259 415 18264206920232333669
12507560 40 18410854348327958438
12553582 1 18115896064420062685
12592029 89 17822018558483997915
12633257 1 15357701889806575976
128620 24 15769771321615170167
13140716 1 18045506562501647241
13224815 77 18202008694273677047
13402501 40 18271801349961457280
13533116 47 18340487746806550099
14178342 30 18187930633254621106
14251764 30 10735581545014009901
14787075 74 18060131089516866905
14790565 3 17971766712169994348
15142383 8 14707474876562663999
15183329 4 12535081849430471672
15196674 1 18335703793568299519
15238133 3 17313108540035642908
15375358 24 18411141341746599399
15527383 91 14273455886029329318
15788980 27 14996284725396304869
16945 1 18115890596810455439
17349148 13 18335701607487961711
17980427 23 18114740563856774148
1813 80 16081083737306636086
18186145 218 18200046035963868831
19784866 140 10735883871898251492
200 152 18131632262494839437
20511986 3 18263065683144937415
20715895 44 17970061154834149357
21033648 29 18129651024045876024
21452121 103 18410853235920892338
21756936 100 18057028320181958952
21859007 373 16951950766128277477
22149856 69 18191893188189617331
22224240 67 18339633538552379976
23198884 109 13686304616750558088
23402539 116 18334570278869044711
23557571 272 18059015119585475179
23559900 14 18264787492463243430
23622692 88 17167860868153052342
2838139 119 17417800765100890624
296302 2 18201719548189950645
312423 11 15410346429156140055
34797466 226 17561086895391263733
34934 24 18408600383275970443
4072396 5 18040713675721306998
4325135 7 17775277301100675237
4340502 62 18413106160804824140
46194498 28 9079114488431321882
5104073 3 18262806151314209945
59755656 215 18411986824199094142
633830 44 17416698950974471871
67856867 119 17896323686758307605
9709674 26 18335712632622011911
9971528 1 17895196554401195902
9981440 41 18334297573820505323

>  <PUBCHEM_SHAPE_MULTIPOLES>  (1) 
482.17
11.68
2.1
1.39
0.51
0.65
0.36
-4.97
-2.37
0.05
-0.22
1.18
-0.17
0.93

>  <PUBCHEM_SHAPE_SELFOVERLAP>  (1) 
1023.917

>  <PUBCHEM_SHAPE_VOLUME>  (1) 
267.4

>  <PUBCHEM_COORDINATE_TYPE>  (1) 
2
5
10

$$$$
