43379
     RDKit          3D

 14 14  0  0  1  0  0  0  0  0999 V2000
    2.9657   -2.0906    0.9703 Cl  0  0  0  0  0  0  0  0  0  0  0  0
    1.4530    0.5484    0.3268 O   0  0  0  0  0  0  0  0  0  0  0  0
    2.6604    1.2889   -1.4880 O   0  0  0  0  0  0  0  0  0  0  0  0
    3.2246    1.8984    0.6560 N   0  0  0  0  0  0  0  0  0  0  0  0
   -0.1407   -1.2850    0.4326 C   0  0  0  0  0  0  0  0  0  0  0  0
    1.0223   -0.6348   -0.3457 C   0  0  0  0  0  0  0  0  0  0  0  0
   -1.4350   -0.5710    0.2339 C   0  0  0  0  0  0  0  0  0  0  0  0
    2.2264   -1.5540   -0.5604 C   0  0  0  0  0  0  0  0  0  0  0  0
   -1.7974    0.4676    1.0916 C   0  0  0  0  0  0  0  0  0  0  0  0
   -2.2828   -0.9414   -0.8101 C   0  0  0  0  0  0  0  0  0  0  0  0
   -3.0077    1.1356    0.9057 C   0  0  0  0  0  0  0  0  0  0  0  0
   -3.4932   -0.2733   -0.9959 C   0  0  0  0  0  0  0  0  0  0  0  0
   -3.8555    0.7653   -0.1380 C   0  0  0  0  0  0  0  0  0  0  0  0
    2.4598    1.2458   -0.2789 C   0  0  0  0  0  0  0  0  0  0  0  0
  1  8  1  0
  2  6  1  0
  2 14  1  0
  3 14  2  0
  4 14  1  0
  5  6  1  0
  5  7  1  0
  6  8  1  0
  7  9  2  0
  7 10  1  0
  9 11  1  0
 10 12  2  0
 11 13  2  0
 12 13  1  0
M  END
>  <PUBCHEM_COMPOUND_CID>  (1) 
43379

>  <PUBCHEM_CONFORMER_RMSD>  (1) 
0.6

>  <PUBCHEM_CONFORMER_DIVERSEORDER>  (1) 
1
90
92
68
51
77
45
58
19
3
10
80
11
87
72
98
55
85
59
69
12
30
76
25
15
8
67
91
73
74
49
94
64
81
4
93
84
89
96
57
9
7
79
52
18
27
48
88
82
32
14
47
22
29
43
86
66
61
31
2
50
33
56
78
44
71
38
21
70
54
34
63
13
40
53
65
42
35
20
95
26
97
17
83
16
6
62
39
5
60
28
41
46
36
23
37
24
75

>  <PUBCHEM_MMFF94_PARTIAL_CHARGES>  (1) 
21
1 -0.29
10 -0.15
11 -0.15
12 -0.15
13 -0.15
14 0.78
2 -0.43
20 0.15
21 0.15
22 0.15
23 0.15
24 0.15
25 0.37
26 0.37
3 -0.57
4 -0.8
5 0.14
6 0.28
7 -0.14
8 0.29
9 -0.15

>  <PUBCHEM_EFFECTIVE_ROTOR_COUNT>  (1) 
5

>  <PUBCHEM_PHARMACOPHORE_FEATURES>  (1) 
3
1 3 acceptor
1 4 donor
6 7 9 10 11 12 13 rings

>  <PUBCHEM_HEAVY_ATOM_COUNT>  (1) 
14

>  <PUBCHEM_ATOM_DEF_STEREO_COUNT>  (1) 
0

>  <PUBCHEM_ATOM_UDEF_STEREO_COUNT>  (1) 
1

>  <PUBCHEM_BOND_DEF_STEREO_COUNT>  (1) 
0

>  <PUBCHEM_BOND_UDEF_STEREO_COUNT>  (1) 
0

>  <PUBCHEM_ISOTOPIC_ATOM_COUNT>  (1) 
0

>  <PUBCHEM_COMPONENT_COUNT>  (1) 
1

>  <PUBCHEM_CACTVS_TAUTO_COUNT>  (1) 
2

>  <PUBCHEM_CONFORMER_ID>  (1) 
0000A97300000001

>  <PUBCHEM_MMFF94_ENERGY>  (1) 
31.9994

>  <PUBCHEM_FEATURE_SELFOVERLAP>  (1) 
15.223

>  <PUBCHEM_SHAPE_FINGERPRINT>  (1) 
11715629 250 18343863337893093613
12162725 195 18272367542788785695
12932764 1 17632300102984979699
13922767 16 18262514780289918826
14181834 199 18411417281038181214
14250199 8 18341336604305916181
14897335 6 18412541045903068530
15775835 57 18342745121698496277
17041 49 18265893553805135226
18186145 218 18260831466821912439
20559304 39 18059574650686490986
20645464 45 16588022441856557321
20645476 183 17989488519841957671
20653085 51 18334858260726314389
20671657 1 18409168822561274734
20711985 344 13613423376386078411
20715346 28 16950291706145418371
21501502 16 18343580741882205475
21524375 3 18267583701035432404
22096605 113 18411134770583806113
22169311 14 14635136958525595741
2255824 54 18333735684882046406
230 275 18186806889320601452
23557571 272 15913042067343733107
23559900 14 16557897884961824294
23598291 2 18200037235396622367
305870 269 18336826498087909402
3082319 5 18202846556409417335
474 4 18260550073249113844
5262128 65 16629706057047402240
7364860 26 18272089375195420746
74978 22 18334861588762135627
7615 1 18272929393167178355
8030462 33 18272939344437585027
9939556 21 18272367529956819831
9971528 1 18127687137254510326
9981440 41 18123739022826733120

>  <PUBCHEM_SHAPE_MULTIPOLES>  (1) 
273.26
6.83
1.96
1.16
1.85
0.14
0.07
1.25
0.27
-2.23
-0.17
-0.02
0.07
-0.93

>  <PUBCHEM_SHAPE_SELFOVERLAP>  (1) 
547.268

>  <PUBCHEM_SHAPE_VOLUME>  (1) 
160.9

>  <PUBCHEM_COORDINATE_TYPE>  (1) 
2
5
10

$$$$
