43378
     RDKit          3D

 20 21  0  0  0  0  0  0  0  0999 V2000
    5.4011   -0.4908   -0.9765 Cl  0  0  0  0  0  0  0  0  0  0  0  0
   -0.0823   -0.8813    1.0907 O   0  0  0  0  0  0  0  0  0  0  0  0
   -3.2368   -2.4297   -0.0218 N   0  0  0  0  0  0  0  0  0  0  0  0
    1.8515    0.4510    0.6094 C   0  0  0  0  0  0  0  0  0  0  0  0
    1.1812    1.6803    1.1279 C   0  0  0  0  0  0  0  0  0  0  0  0
   -2.3536   -1.4323    0.5814 C   0  0  0  0  0  0  0  0  0  0  0  0
    1.1970   -0.7763    0.6108 C   0  0  0  0  0  0  0  0  0  0  0  0
   -0.9041   -1.8855    0.5102 C   0  0  0  0  0  0  0  0  0  0  0  0
   -0.0906    2.0429    0.3892 C   0  0  0  0  0  0  0  0  0  0  0  0
    3.1539    0.5397    0.1177 C   0  0  0  0  0  0  0  0  0  0  0  0
    1.8301   -1.9160    0.1259 C   0  0  0  0  0  0  0  0  0  0  0  0
    3.7943   -0.5995   -0.3699 C   0  0  0  0  0  0  0  0  0  0  0  0
   -0.1019    2.0025   -0.9935 C   0  0  0  0  0  0  0  0  0  0  0  0
   -1.2113    2.4063    1.1143 C   0  0  0  0  0  0  0  0  0  0  0  0
    3.1324   -1.8273   -0.3657 C   0  0  0  0  0  0  0  0  0  0  0  0
   -2.8613   -2.6691   -1.4149 C   0  0  0  0  0  0  0  0  0  0  0  0
   -4.6310   -1.9970    0.0646 C   0  0  0  0  0  0  0  0  0  0  0  0
   -1.2728    2.3365   -1.6738 C   0  0  0  0  0  0  0  0  0  0  0  0
   -2.3823    2.7402    0.4340 C   0  0  0  0  0  0  0  0  0  0  0  0
   -2.4132    2.7054   -0.9601 C   0  0  0  0  0  0  0  0  0  0  0  0
  1 12  1  0
  2  7  1  0
  2  8  1  0
  3  6  1  0
  3 16  1  0
  3 17  1  0
  4  5  1  0
  4  7  2  0
  4 10  1  0
  5  9  1  0
  6  8  1  0
  7 11  1  0
  9 13  2  0
  9 14  1  0
 10 12  2  0
 11 15  2  0
 12 15  1  0
 13 18  1  0
 14 19  2  0
 18 20  2  0
 19 20  1  0
M  END
>  <PUBCHEM_COMPOUND_CID>  (1) 
43378

>  <PUBCHEM_CONFORMER_RMSD>  (1) 
0.8

>  <PUBCHEM_CONFORMER_DIVERSEORDER>  (1) 
4
66
53
8
58
20
13
74
1
64
19
72
18
69
65
11
47
3
10
27
17
9
28
26
63
59
35
61
5
36
44
33
25
46
22
57
29
37
70
51
30
75
12
23
43
60
45
71
39
41
68
56
16
49
54
52
2
62
34
7
21
31
6
14
40
73
67
55
48
15
42
24
50
32
38

>  <PUBCHEM_MMFF94_PARTIAL_CHARGES>  (1) 
28
1 -0.18
10 -0.15
11 -0.15
12 0.18
13 -0.15
14 -0.15
15 -0.15
16 0.27
17 0.27
18 -0.15
19 -0.15
2 -0.36
20 -0.15
27 0.15
28 0.15
29 0.15
3 -0.81
30 0.15
31 0.15
38 0.15
39 0.15
4 -0.14
40 0.15
5 0.29
6 0.27
7 0.08
8 0.28
9 -0.14

>  <PUBCHEM_EFFECTIVE_ROTOR_COUNT>  (1) 
6

>  <PUBCHEM_PHARMACOPHORE_FEATURES>  (1) 
4
1 2 acceptor
1 3 cation
6 4 7 10 11 12 15 rings
6 9 13 14 18 19 20 rings

>  <PUBCHEM_HEAVY_ATOM_COUNT>  (1) 
20

>  <PUBCHEM_ATOM_DEF_STEREO_COUNT>  (1) 
0

>  <PUBCHEM_ATOM_UDEF_STEREO_COUNT>  (1) 
0

>  <PUBCHEM_BOND_DEF_STEREO_COUNT>  (1) 
0

>  <PUBCHEM_BOND_UDEF_STEREO_COUNT>  (1) 
0

>  <PUBCHEM_ISOTOPIC_ATOM_COUNT>  (1) 
0

>  <PUBCHEM_COMPONENT_COUNT>  (1) 
1

>  <PUBCHEM_CACTVS_TAUTO_COUNT>  (1) 
1

>  <PUBCHEM_CONFORMER_ID>  (1) 
0000A97200000004

>  <PUBCHEM_MMFF94_ENERGY>  (1) 
59.8696

>  <PUBCHEM_FEATURE_SELFOVERLAP>  (1) 
20.297

>  <PUBCHEM_SHAPE_FINGERPRINT>  (1) 
10064457 181 18125164827294198889
104564 63 18409167714296104019
11578080 2 17703776046533804752
116883 192 18410855503120091331
12035759 4 17825975850665920668
12553582 1 18339915025918763323
12715332 25 17906733605352240058
12788726 201 18335417958825698746
15081414 286 18048599510718557457
15210252 30 17677041464433685837
15420108 30 16975875408957042688
17357779 13 18338223972792322599
17492 54 18043234766116992749
17980427 26 16196761387726039400
20600515 1 17534602000629127848
21160774 45 18263642857903643833
21236236 1 18408890612213370166
21344244 181 17699569139358846007
21641784 216 18115045085633399964
22182313 1 18129929157669944352
22289505 5 18263628719193137063
22620623 9 18269852959822656478
23402539 116 18335703866556740114
23419403 2 17703209811173209184
23557571 272 18341622498999478294
238 59 16961234896326683605
25147074 1 18041561322473497282
3052486 1 18041541586117207073
57262259 84 18340495490806132046
58779409 54 18340483357813833442
6443956 14 18123183765296797135
7164475 11 18335419024515638410
7237137 82 18338532863146657678
81228 2 18333450962529888625

>  <PUBCHEM_SHAPE_MULTIPOLES>  (1) 
402.61
7.47
4.06
1.28
4.89
0.49
-0.29
-4.66
-2.13
-4.96
-0.58
-0.33
0.44
0.23

>  <PUBCHEM_SHAPE_SELFOVERLAP>  (1) 
834.912

>  <PUBCHEM_SHAPE_VOLUME>  (1) 
232.4

>  <PUBCHEM_COORDINATE_TYPE>  (1) 
2
5
10

$$$$
