43376
     RDKit          3D

 12 12  0  0  0  0  0  0  0  0999 V2000
    2.8087   -1.9814    0.2459 Br  0  0  0  0  0  0  0  0  0  0  0  0
   -2.4083    1.0055   -0.4282 O   0  0  0  0  0  0  0  0  0  0  0  0
   -2.3947   -1.7339    0.0407 O   0  0  0  0  0  0  0  0  0  0  0  0
    2.7180    2.0763    0.4280 O   0  0  0  0  0  0  0  0  0  0  0  0
   -1.2322    0.3350   -0.2764 C   0  0  0  0  0  0  0  0  0  0  0  0
    1.1825    0.3595   -0.2048 C   0  0  0  0  0  0  0  0  0  0  0  0
   -0.0284    1.0347   -0.3580 C   0  0  0  0  0  0  0  0  0  0  0  0
   -1.2253   -1.0400   -0.0415 C   0  0  0  0  0  0  0  0  0  0  0  0
    1.1896   -1.0155    0.0302 C   0  0  0  0  0  0  0  0  0  0  0  0
   -0.0144   -1.7153    0.1118 C   0  0  0  0  0  0  0  0  0  0  0  0
    2.4121    1.1371   -0.2991 C   0  0  0  0  0  0  0  0  0  0  0  0
   -3.0077    1.5380    0.7514 C   0  0  0  0  0  0  0  0  0  0  0  0
  1  9  1  0
  2  5  1  0
  2 12  1  0
  3  8  1  0
  4 11  2  0
  5  7  2  0
  5  8  1  0
  6  7  1  0
  6  9  2  0
  6 11  1  0
  8 10  2  0
  9 10  1  0
M  END
>  <PUBCHEM_COMPOUND_CID>  (1) 
43376

>  <PUBCHEM_CONFORMER_RMSD>  (1) 
0.6

>  <PUBCHEM_CONFORMER_DIVERSEORDER>  (1) 
2
1

>  <PUBCHEM_MMFF94_PARTIAL_CHARGES>  (1) 
16
1 -0.11
10 -0.15
11 0.42
12 0.28
13 0.15
14 0.15
15 0.06
19 0.45
2 -0.36
3 -0.53
4 -0.57
5 0.08
6 0.09
7 -0.15
8 0.08
9 0.11

>  <PUBCHEM_EFFECTIVE_ROTOR_COUNT>  (1) 
2

>  <PUBCHEM_PHARMACOPHORE_FEATURES>  (1) 
5
1 1 hydrophobe
1 2 acceptor
1 3 donor
1 4 acceptor
6 5 6 7 8 9 10 rings

>  <PUBCHEM_HEAVY_ATOM_COUNT>  (1) 
12

>  <PUBCHEM_ATOM_DEF_STEREO_COUNT>  (1) 
0

>  <PUBCHEM_ATOM_UDEF_STEREO_COUNT>  (1) 
0

>  <PUBCHEM_BOND_DEF_STEREO_COUNT>  (1) 
0

>  <PUBCHEM_BOND_UDEF_STEREO_COUNT>  (1) 
0

>  <PUBCHEM_ISOTOPIC_ATOM_COUNT>  (1) 
0

>  <PUBCHEM_COMPONENT_COUNT>  (1) 
1

>  <PUBCHEM_CACTVS_TAUTO_COUNT>  (1) 
5

>  <PUBCHEM_CONFORMER_ID>  (1) 
0000A97000000002

>  <PUBCHEM_MMFF94_ENERGY>  (1) 
44.7114

>  <PUBCHEM_FEATURE_SELFOVERLAP>  (1) 
25.371

>  <PUBCHEM_SHAPE_FINGERPRINT>  (1) 
12251169 10 18338234851712433275
13140716 1 18408886200448559626
13380535 21 18336277794198143508
13922767 16 18121215372921240845
14614273 12 18116135848043534893
14648413 74 18410576154379207938
14897335 6 18410848871885875605
16945 1 18192706739671186254
193761 8 18409729581775634262
19973954 147 18410291419363999006
20510252 161 17981892157082606296
20511035 2 18335713727469076206
21040471 1 18336267932953303428
21501502 16 18410292518844056254
2334 1 18336546109268640558
23552423 10 18259987093394510294
23559900 14 18270414879886442316
2748010 2 18335421278787581774
53812653 166 18410577271355424468
68250623 7 18410857672063121838
7364860 26 18413387631666006510

>  <PUBCHEM_SHAPE_MULTIPOLES>  (1) 
235.29
4.52
2.39
0.72
0.79
0.09
-0.04
0.55
-0.73
-1.03
-0.23
0.08
0.08
-0.22

>  <PUBCHEM_SHAPE_SELFOVERLAP>  (1) 
477.151

>  <PUBCHEM_SHAPE_VOLUME>  (1) 
141.4

>  <PUBCHEM_COORDINATE_TYPE>  (1) 
2
5
10

$$$$
