43385
     RDKit          3D

 22 26  0  0  1  0  0  0  0  0999 V2000
    0.1796    2.3379   -1.6344 O   0  0  0  0  0  0  0  0  0  0  0  0
   -1.2294    2.5089    1.6728 O   0  0  0  0  0  0  0  0  0  0  0  0
    0.1580    2.0192   -0.2400 C   0  0  0  0  0  0  0  0  0  0  0  0
    0.6890    0.6069   -0.0379 C   0  0  0  0  0  0  0  0  0  0  0  0
   -0.2513   -0.4596    0.0081 C   0  0  0  0  0  0  0  0  0  0  0  0
   -1.2729    2.2428    0.2687 C   0  0  0  0  0  0  0  0  0  0  0  0
   -1.6526   -0.2348   -0.0240 C   0  0  0  0  0  0  0  0  0  0  0  0
   -2.1855    1.0689    0.0282 C   0  0  0  0  0  0  0  0  0  0  0  0
    0.2251   -1.7877    0.0592 C   0  0  0  0  0  0  0  0  0  0  0  0
    2.0958    0.3483   -0.0034 C   0  0  0  0  0  0  0  0  0  0  0  0
   -2.5507   -1.3296   -0.0859 C   0  0  0  0  0  0  0  0  0  0  0  0
    2.5363   -0.9921    0.0958 C   0  0  0  0  0  0  0  0  0  0  0  0
    1.6014   -2.0333    0.1221 C   0  0  0  0  0  0  0  0  0  0  0  0
   -3.5720    1.2753   -0.0345 C   0  0  0  0  0  0  0  0  0  0  0  0
   -0.6776   -2.8577    0.0303 C   0  0  0  0  0  0  0  0  0  0  0  0
   -2.0481   -2.6324   -0.0605 C   0  0  0  0  0  0  0  0  0  0  0  0
   -3.9334   -1.1009   -0.1567 C   0  0  0  0  0  0  0  0  0  0  0  0
    3.0960    1.3497   -0.0744 C   0  0  0  0  0  0  0  0  0  0  0  0
   -4.4403    0.1952   -0.1407 C   0  0  0  0  0  0  0  0  0  0  0  0
    3.9097   -1.2884    0.1458 C   0  0  0  0  0  0  0  0  0  0  0  0
    4.4579    1.0417   -0.0268 C   0  0  0  0  0  0  0  0  0  0  0  0
    4.8650   -0.2782    0.0881 C   0  0  0  0  0  0  0  0  0  0  0  0
  1  3  1  0
  2  6  1  0
  3  4  1  0
  3  6  1  0
  4  5  2  0
  4 10  1  0
  5  7  1  0
  5  9  1  0
  6  8  1  0
  7  8  2  0
  7 11  1  0
  8 14  1  0
  9 13  2  0
  9 15  1  0
 10 12  2  0
 10 18  1  0
 11 16  1  0
 11 17  2  0
 12 13  1  0
 12 20  1  0
 14 19  2  0
 15 16  2  0
 17 19  1  0
 18 21  2  0
 20 22  2  0
 21 22  1  0
M  END
>  <PUBCHEM_COMPOUND_CID>  (1) 
43385

>  <PUBCHEM_CONFORMER_RMSD>  (1) 
0.6

>  <PUBCHEM_CONFORMER_DIVERSEORDER>  (1) 
1

>  <PUBCHEM_MMFF94_PARTIAL_CHARGES>  (1) 
28
1 -0.68
13 -0.15
14 -0.15
15 -0.15
16 -0.15
17 -0.15
18 -0.15
19 -0.15
2 -0.68
20 -0.15
21 -0.15
22 -0.15
25 0.15
26 0.15
27 0.15
28 0.15
29 0.15
3 0.42
30 0.15
31 0.15
32 0.4
33 0.4
34 0.15
35 0.15
36 0.15
4 -0.14
6 0.42
8 -0.14

>  <PUBCHEM_EFFECTIVE_ROTOR_COUNT>  (1) 
0.4

>  <PUBCHEM_PHARMACOPHORE_FEATURES>  (1) 
9
1 1 acceptor
1 1 donor
1 2 acceptor
1 2 donor
6 10 12 18 20 21 22 rings
6 3 4 5 6 7 8 rings
6 4 5 9 10 12 13 rings
6 5 7 9 11 15 16 rings
6 7 8 11 14 17 19 rings

>  <PUBCHEM_HEAVY_ATOM_COUNT>  (1) 
22

>  <PUBCHEM_ATOM_DEF_STEREO_COUNT>  (1) 
2

>  <PUBCHEM_ATOM_UDEF_STEREO_COUNT>  (1) 
0

>  <PUBCHEM_BOND_DEF_STEREO_COUNT>  (1) 
0

>  <PUBCHEM_BOND_UDEF_STEREO_COUNT>  (1) 
0

>  <PUBCHEM_ISOTOPIC_ATOM_COUNT>  (1) 
0

>  <PUBCHEM_COMPONENT_COUNT>  (1) 
1

>  <PUBCHEM_CACTVS_TAUTO_COUNT>  (1) 
1

>  <PUBCHEM_CONFORMER_ID>  (1) 
0000A97900000001

>  <PUBCHEM_MMFF94_ENERGY>  (1) 
76.8299

>  <PUBCHEM_FEATURE_SELFOVERLAP>  (1) 
45.814

>  <PUBCHEM_SHAPE_FINGERPRINT>  (1) 
10319926 262 18198318772807712570
10411042 1 17762055845064573294
10493431 412 18341058415343450401
10616163 171 18411703226886202766
10863032 1 18411980273418873530
10906281 52 18341911683600337807
10967382 1 18410292493010929423
1100329 8 18339083816781673705
11112241 14 16555350582539079016
11132069 177 18410849958628470664
12011746 2 18410571777575243127
12236239 1 17821727248005714154
12403814 3 17748821917185229357
12788726 201 18059870449316265912
12838862 33 18337933650114696069
12954195 1 18057907778817290204
13027679 85 18341891956694377377
13132413 78 18338517559455410853
13140716 1 18122352542953935963
138480 1 17113819583758835683
13862211 1 18410568513637955335
14081887 123 18272356616465864240
14223421 5 18194401087158102454
14787075 74 18272082829385667341
14790565 3 18340495452373615625
15196674 1 18410292514485746423
15442244 35 18266175042104798994
15536298 74 18341894082650441342
16945 1 18270690740090195507
1813 80 17167859773073464468
19591789 44 18121782716795134470
200 152 18343577443410521797
20510252 161 18271807886795595505
20715895 44 17829032235541247141
20739085 24 17975443251113990161
20775438 99 16618377965241422183
21029758 11 18270955847331487561
21267235 1 18409738373557988291
21421861 104 17823970139783291978
2334 1 18410011039772844807
23402539 116 18341885303384023142
23557571 272 18270972335785154006
23559900 14 18271523208517535112
238 59 16528318655283446565
2748010 2 18337395933231262935
3178227 256 18336839680002333499
335352 9 18338233769786993182
34934 24 18335976536438790466
350125 39 18338233744280738290
474 4 17458912664477841420
484989 97 18118959446409427695
5104073 3 18410009944445402514
59755656 215 18341616976183290606
7471813 234 17625241392874866399
9709674 26 18342744000838905646

>  <PUBCHEM_SHAPE_MULTIPOLES>  (1) 
441.01
7.69
3.04
0.8
3.7
0.29
-0.02
0.06
0.03
-0.98
-0.09
-0.1
-0.45
-0.37

>  <PUBCHEM_SHAPE_SELFOVERLAP>  (1) 
1026.316

>  <PUBCHEM_SHAPE_VOLUME>  (1) 
224.6

>  <PUBCHEM_COORDINATE_TYPE>  (1) 
2
5
10

$$$$
