43387
     RDKit          3D

 29 31  0  0  1  0  0  0  0  0999 V2000
   -9.2840    0.3326   -1.6251 Cl  0  0  0  0  0  0  0  0  0  0  0  0
    0.4121    0.9412   -0.6867 O   0  0  0  0  0  0  0  0  0  0  0  0
    3.9028    0.2001   -0.4426 O   0  0  0  0  0  0  0  0  0  0  0  0
    2.5664    0.8093   -2.2169 O   0  0  0  0  0  0  0  0  0  0  0  0
    7.6049   -2.0901    0.3391 N   0  0  0  0  0  0  0  0  0  0  0  0
    1.6156    0.6484    0.0209 C   0  0  0  0  0  0  0  0  0  0  0  0
    1.9091    1.7768    1.0252 C   0  0  0  0  0  0  0  0  0  0  0  0
    1.4291   -0.7155    0.6826 C   0  0  0  0  0  0  0  0  0  0  0  0
    2.7242    0.5700   -1.0258 C   0  0  0  0  0  0  0  0  0  0  0  0
    2.0833    3.1512    0.3899 C   0  0  0  0  0  0  0  0  0  0  0  0
   -0.7493    0.4610   -0.1458 C   0  0  0  0  0  0  0  0  0  0  0  0
   -3.1104   -0.5147    0.9569 C   0  0  0  0  0  0  0  0  0  0  0  0
   -4.3761   -1.0375    1.5469 C   0  0  0  0  0  0  0  0  0  0  0  0
   -1.4601    1.2391    0.7625 C   0  0  0  0  0  0  0  0  0  0  0  0
   -1.2098   -0.8011   -0.5070 C   0  0  0  0  0  0  0  0  0  0  0  0
   -2.6438    0.7500    1.3154 C   0  0  0  0  0  0  0  0  0  0  0  0
   -2.3935   -1.2903    0.0457 C   0  0  0  0  0  0  0  0  0  0  0  0
   -5.6161   -0.6924    0.7469 C   0  0  0  0  0  0  0  0  0  0  0  0
    5.0238    0.0933   -1.3258 C   0  0  0  0  0  0  0  0  0  0  0  0
    6.2317   -0.3186   -0.5365 C   0  0  0  0  0  0  0  0  0  0  0  0
   -6.0417   -1.5591   -0.2432 C   0  0  0  0  0  0  0  0  0  0  0  0
   -6.2917    0.4819    1.0253 C   0  0  0  0  0  0  0  0  0  0  0  0
   -7.1822   -1.2406   -0.9804 C   0  0  0  0  0  0  0  0  0  0  0  0
   -7.4323    0.8003    0.2881 C   0  0  0  0  0  0  0  0  0  0  0  0
    7.0608    0.6341    0.0290 C   0  0  0  0  0  0  0  0  0  0  0  0
   -7.8776   -0.0610   -0.7147 C   0  0  0  0  0  0  0  0  0  0  0  0
    6.5342   -1.6523   -0.3606 C   0  0  0  0  0  0  0  0  0  0  0  0
    8.1723    0.2227    0.7561 C   0  0  0  0  0  0  0  0  0  0  0  0
    8.3981   -1.1387    0.8807 C   0  0  0  0  0  0  0  0  0  0  0  0
  1 26  1  0
  2  6  1  0
  2 11  1  0
  3  9  1  0
  3 19  1  0
  4  9  2  0
  5 27  2  0
  5 29  1  0
  6  7  1  0
  6  8  1  0
  6  9  1  0
  7 10  1  0
 11 14  2  0
 11 15  1  0
 12 13  1  0
 12 16  2  0
 12 17  1  0
 13 18  1  0
 14 16  1  0
 15 17  2  0
 18 21  2  0
 18 22  1  0
 19 20  1  0
 20 25  2  0
 20 27  1  0
 21 23  1  0
 22 24  2  0
 23 26  2  0
 24 26  1  0
 25 28  1  0
 28 29  2  0
M  END
>  <PUBCHEM_COMPOUND_CID>  (1) 
43387

>  <PUBCHEM_CONFORMER_RMSD>  (1) 
1.2

>  <PUBCHEM_CONFORMER_DIVERSEORDER>  (1) 
6
295
266
84
152
227
302
238
74
99
128
14
307
233
98
101
56
35
75
125
174
191
88
241
292
267
230
76
37
256
298
301
318
96
148
118
251
248
34
216
210
228
300
141
166
105
111
221
316
20
36
260
131
271
27
108
272
58
145
197
293
194
285
312
155
209
47
90
18
263
25
1
183
207
12
170
297
253
179
38
124
202
80
265
29
252
280
217
313
15
308
65
278
112
39
46
304
225
190
199
44
159
232
242
16
71
247
13
306
150
296
133
144
48
151
303
314
94
181
62
23
135
305
119
203
268
2
311
226
77
276
178
204
249
54
53
136
85
173
189
146
291
126
235
26
61
171
116
55
156
81
243
290
185
50
78
52
222
180
274
254
162
212
139
283
223
237
163
45
117
63
319
184
79
257
167
169
262
270
134
214
182
21
83
104
208
123
273
196
8
176
30
140
288
200
187
57
315
122
66
107
284
244
177
73
113
258
240
277
4
103
281
102
282
279
157
91
127
286
43
219
264
82
192
149
49
154
31
106
218
89
193
320
115
114
158
143
68
70
206
129
109
7
3
40
153
110
287
137
147
100
188
142
120
9
245
236
67
28
231
93
172
130
17
160
138
310
69
186
213
269
24
22
289
132
198
201
59
161
60
5
205
51
299
11
72
234
239
10
195
261
87
165
246
220
95
64
275
224
255
97
211
294
86
229
215
32
41
121
168
250
19
92
259
42
33
309
175
317
164

>  <PUBCHEM_MMFF94_PARTIAL_CHARGES>  (1) 
38
1 -0.18
11 0.08
12 -0.14
13 0.29
14 -0.15
15 -0.15
16 -0.15
17 -0.15
18 -0.14
19 0.42
2 -0.36
20 -0.14
21 -0.15
22 -0.15
23 -0.15
24 -0.15
25 -0.15
26 0.18
27 0.16
28 -0.15
29 0.16
3 -0.43
4 -0.57
40 0.15
41 0.15
42 0.15
43 0.15
46 0.15
47 0.15
48 0.15
49 0.15
5 -0.62
50 0.15
51 0.15
52 0.15
53 0.15
6 0.34
9 0.66

>  <PUBCHEM_EFFECTIVE_ROTOR_COUNT>  (1) 
9

>  <PUBCHEM_PHARMACOPHORE_FEATURES>  (1) 
7
1 10 hydrophobe
1 2 acceptor
1 4 acceptor
1 5 acceptor
6 11 12 14 15 16 17 rings
6 18 21 22 23 24 26 rings
6 5 20 25 27 28 29 rings

>  <PUBCHEM_HEAVY_ATOM_COUNT>  (1) 
29

>  <PUBCHEM_ATOM_DEF_STEREO_COUNT>  (1) 
0

>  <PUBCHEM_ATOM_UDEF_STEREO_COUNT>  (1) 
1

>  <PUBCHEM_BOND_DEF_STEREO_COUNT>  (1) 
0

>  <PUBCHEM_BOND_UDEF_STEREO_COUNT>  (1) 
0

>  <PUBCHEM_ISOTOPIC_ATOM_COUNT>  (1) 
0

>  <PUBCHEM_COMPONENT_COUNT>  (1) 
1

>  <PUBCHEM_CACTVS_TAUTO_COUNT>  (1) 
1

>  <PUBCHEM_CONFORMER_ID>  (1) 
0000A97B00000006

>  <PUBCHEM_MMFF94_ENERGY>  (1) 
90.9157

>  <PUBCHEM_FEATURE_SELFOVERLAP>  (1) 
35.531

>  <PUBCHEM_SHAPE_FINGERPRINT>  (1) 
10 15 14476961177420664766
10162869 55 16128647570187792101
10299344 5 11891330963029461467
10369192 42 11458420254663815867
106641 1 14476957895838732042
10670039 82 17167856444780168061
10674148 151 15791729715631203852
10883706 142 12823295681409792454
11089746 13 18341900718643932569
11135926 11 17894914014663363075
11315181 36 14261357938858054011
11724838 91 13254795745915767089
12202916 173 18131353007352232599
12539747 91 18336536183747731236
12643181 29 18040718095079696427
12838862 33 18411408518946357130
13008946 282 17488456546080191624
13885169 127 18186802448282453341
13914758 101 17968098603307419621
14150023 79 10592050154916102428
14251764 18 17132117948457467690
14294032 229 14707754105519490623
14849402 71 9871455522237991363
15188451 53 18187647982226439336
15301273 46 18259981591683692832
15347591 1 18119532287054443435
15392192 104 15769774650932269702
15461852 350 15841555184544821561
15728490 51 13758068606512973333
15840311 113 16128655284866973696
15849732 13 17060341824943151140
16120349 18 17704067434912693192
16664035 7 16271926009020428049
18335252 98 10663825187033744893
18365409 1 13110666286012591492
18603816 31 18341606062323680207
19611394 137 10735580436932845181
20105231 36 13767930113544188465
20567600 234 15339120139524368672
21033648 29 8502073108368674526
21095123 145 9223224162006708193
21365058 27 8214144049732402489
21781055 127 16153973673925596369
21792934 111 18411130347490723688
22224240 67 15985105206627434774
23559900 14 18042693973414691065
24771293 8 17132126727027924656
249057 25 17845670225469988689
249057 3 16732987543498621858
28498 318 17821729425121746542
3092352 35 8358257034051899688
335352 9 18341896315637705668
3418910 222 11527954486538384643
34797466 226 8214145158007161370
3552219 110 7997973500785367679
3633792 109 18114180809422382403
4098825 35 14996271492586430018
4112364 45 14189282799614939608
4258327 124 12391220665218860970
4403749 210 14333134031917371657
445580 37 13695863718991774439
474113 269 18341047419889776902
5028188 123 14129352809423911091
5283156 175 17603585214685938682
5758199 1 11887955445062792428
59682541 35 15267338531094371034
6081469 158 18259984873133873277
6126387 218 18341330020131620617
6371380 46 18334576879706453051
6394761 36 18113054935169318391
6691757 9 16415202316826830239

>  <PUBCHEM_SHAPE_MULTIPOLES>  (1) 
576.09
28.79
1.85
1.4
0.45
0.7
-0.28
-9.19
-3.1
1.53
0.26
-0.87
0.07
-0.47

>  <PUBCHEM_SHAPE_SELFOVERLAP>  (1) 
1224.743

>  <PUBCHEM_SHAPE_VOLUME>  (1) 
321.1

>  <PUBCHEM_COORDINATE_TYPE>  (1) 
2
5
10

$$$$
