43381
     RDKit          3D

 29 32  0  0  0  0  0  0  0  0999 V2000
   -3.2580    2.4860    0.8793 O   0  0  0  0  0  0  0  0  0  0  0  0
   -0.9534    2.8006   -1.2793 O   0  0  0  0  0  0  0  0  0  0  0  0
   -2.5088    0.3353    0.1921 N   0  0  0  0  0  0  0  0  0  0  0  0
    1.7131    0.3650    0.3673 N   0  0  0  0  0  0  0  0  0  0  0  0
   -1.1566    0.6942   -0.1670 C   0  0  0  0  0  0  0  0  0  0  0  0
   -4.8264    0.7763    0.9712 C   0  0  0  0  0  0  0  0  0  0  0  0
   -5.8098    0.6729   -0.1575 C   0  0  0  0  0  0  0  0  0  0  0  0
   -5.9865    1.7255    0.8973 C   0  0  0  0  0  0  0  0  0  0  0  0
   -0.4497    1.3898    1.0005 C   0  0  0  0  0  0  0  0  0  0  0  0
   -0.3688   -0.5379   -0.6223 C   0  0  0  0  0  0  0  0  0  0  0  0
   -3.4454    1.2881    0.6905 C   0  0  0  0  0  0  0  0  0  0  0  0
    1.0389    1.6201    0.7232 C   0  0  0  0  0  0  0  0  0  0  0  0
    1.1166   -0.2309   -0.8350 C   0  0  0  0  0  0  0  0  0  0  0  0
   -1.3781    1.6467   -1.3096 C   0  0  0  0  0  0  0  0  0  0  0  0
    3.1444    0.5922    0.1687 C   0  0  0  0  0  0  0  0  0  0  0  0
   -2.8808   -1.0741    0.1079 C   0  0  0  0  0  0  0  0  0  0  0  0
   -2.1426    1.1178   -2.4929 C   0  0  0  0  0  0  0  0  0  0  0  0
    3.9415   -0.6898    0.4127 C   0  0  0  0  0  0  0  0  0  0  0  0
   -3.4746   -1.5704   -1.0528 C   0  0  0  0  0  0  0  0  0  0  0  0
   -2.6418   -1.9246    1.1874 C   0  0  0  0  0  0  0  0  0  0  0  0
    5.4216   -0.4639    0.2331 C   0  0  0  0  0  0  0  0  0  0  0  0
   -3.8297   -2.9168   -1.1337 C   0  0  0  0  0  0  0  0  0  0  0  0
   -2.9968   -3.2712    1.1063 C   0  0  0  0  0  0  0  0  0  0  0  0
   -3.5908   -3.7672   -0.0543 C   0  0  0  0  0  0  0  0  0  0  0  0
    6.0074   -0.6429   -1.0202 C   0  0  0  0  0  0  0  0  0  0  0  0
    6.2049   -0.0754    1.3199 C   0  0  0  0  0  0  0  0  0  0  0  0
    7.3764   -0.4338   -1.1865 C   0  0  0  0  0  0  0  0  0  0  0  0
    7.5740    0.1338    1.1534 C   0  0  0  0  0  0  0  0  0  0  0  0
    8.1597   -0.0454   -0.0999 C   0  0  0  0  0  0  0  0  0  0  0  0
  1 11  2  0
  2 14  2  0
  3  5  1  0
  3 11  1  0
  3 16  1  0
  4 12  1  0
  4 13  1  0
  4 15  1  0
  5  9  1  0
  5 10  1  0
  5 14  1  0
  6  7  1  0
  6  8  1  0
  6 11  1  0
  7  8  1  0
  9 12  1  0
 10 13  1  0
 14 17  1  0
 15 18  1  0
 16 19  2  0
 16 20  1  0
 18 21  1  0
 19 22  1  0
 20 23  2  0
 21 25  2  0
 21 26  1  0
 22 24  2  0
 23 24  1  0
 25 27  1  0
 26 28  2  0
 27 29  2  0
 28 29  1  0
M  END
>  <PUBCHEM_COMPOUND_CID>  (1) 
43381

>  <PUBCHEM_CONFORMER_RMSD>  (1) 
1

>  <PUBCHEM_CONFORMER_DIVERSEORDER>  (1) 
1
55
10
65
57
42
74
79
3
73
87
89
61
66
69
52
85
83
49
14
67
43
75
23
32
68
92
62
8
96
15
90
30
82
54
40
86
22
25
51
47
56
59
78
45
13
36
9
19
70
33
27
72
11
60
71
64
44
77
18
6
39
95
80
48
31
76
38
29
2
46
50
35
17
94
84
91
4
81
93
26
12
88
24
7
53
5
21
28
41
20
16
34
63
37
58

>  <PUBCHEM_MMFF94_PARTIAL_CHARGES>  (1) 
42
1 -0.57
11 0.63
12 0.27
13 0.27
14 0.45
15 0.27
16 0.12
17 0.06
18 0.14
19 -0.15
2 -0.57
20 -0.15
21 -0.14
22 -0.15
23 -0.15
24 -0.15
25 -0.15
26 -0.15
27 -0.15
28 -0.15
29 -0.15
3 -0.48
30 0.1
31 0.1
32 0.1
33 0.1
34 0.1
4 -0.81
5 0.36
50 0.15
51 0.15
52 0.15
53 0.15
54 0.15
55 0.15
56 0.15
57 0.15
58 0.15
59 0.15
6 -0.1
7 -0.2
8 -0.2

>  <PUBCHEM_EFFECTIVE_ROTOR_COUNT>  (1) 
9.8

>  <PUBCHEM_PHARMACOPHORE_FEATURES>  (1) 
6
1 1 acceptor
1 2 acceptor
1 4 cation
6 16 19 20 22 23 24 rings
6 21 25 26 27 28 29 rings
6 4 5 9 10 12 13 rings

>  <PUBCHEM_HEAVY_ATOM_COUNT>  (1) 
29

>  <PUBCHEM_ATOM_DEF_STEREO_COUNT>  (1) 
0

>  <PUBCHEM_ATOM_UDEF_STEREO_COUNT>  (1) 
0

>  <PUBCHEM_BOND_DEF_STEREO_COUNT>  (1) 
0

>  <PUBCHEM_BOND_UDEF_STEREO_COUNT>  (1) 
0

>  <PUBCHEM_ISOTOPIC_ATOM_COUNT>  (1) 
0

>  <PUBCHEM_COMPONENT_COUNT>  (1) 
1

>  <PUBCHEM_CACTVS_TAUTO_COUNT>  (1) 
2

>  <PUBCHEM_CONFORMER_ID>  (1) 
0000A97500000001

>  <PUBCHEM_MMFF94_ENERGY>  (1) 
110.7514

>  <PUBCHEM_FEATURE_SELFOVERLAP>  (1) 
30.447

>  <PUBCHEM_SHAPE_FINGERPRINT>  (1) 
10050765 1 18268148849595923785
10076449 9 17968088738490019935
10290309 65 18191866712988376270
11135926 11 18114453488486107610
11315181 36 18341046401765736486
11524674 6 17846778498772831190
12616971 3 17385732408785418326
12643181 29 18412543206651673506
13009979 54 18263654029334957949
13540713 5 18118701039326971893
13583140 156 16702299078782466291
13631057 29 18335134341140374594
14840074 17 17530683186484749451
14844126 61 18342457097266340355
14856354 85 18342746216762117804
15131766 46 16011878443628676461
15183329 4 17530679931754133090
15352257 5 18272092665562843654
15361156 5 18335708281867139724
15510794 2 17847063277781879678
15537594 2 17894908516667062514
15849732 13 17967536766510072797
17093844 174 17988921189085035138
17492 89 17977103788660654019
18927931 339 18342460378104175398
21033648 29 17489289907463854690
21236236 1 18412262865087496987
220451 1 18186238412445994434
2303208 19 17703800223907260350
23522609 53 18043558112698775828
23559900 14 18272363208950773168
249057 3 18408042914096568181
335352 9 18413387631892970413
3383291 50 18341897428815847035
397830 11 17988073526197766928
4017518 198 18272371941057558271
4073 2 18342178882369942546
4098825 35 11098121254650006120
44802255 64 17822285748394480175
484985 159 18271232915835959135
5080951 261 18266999769824249462
5104073 3 18341610481717836320
5364581 5 18128245873903180344
5486654 36 18262242239219743579
58260988 114 17168724045512020299
59755656 215 18271812272437616302
6009941 240 18131635569145027482
7226269 152 18131351861112708577
9953998 17 18411133641513881248

>  <PUBCHEM_SHAPE_MULTIPOLES>  (1) 
575.11
18.57
3.02
1.52
42.55
2.28
0.53
1.98
-2.27
-6.64
-0.07
-0.26
-0.23
-0.08

>  <PUBCHEM_SHAPE_SELFOVERLAP>  (1) 
1227.527

>  <PUBCHEM_SHAPE_VOLUME>  (1) 
314.6

>  <PUBCHEM_COORDINATE_TYPE>  (1) 
2
5
10

$$$$
