43394
     RDKit          3D

 12 11  0  0  0  0  0  0  0  0999 V2000
   -1.1901   -1.8144    0.0149 O   0  0  0  0  0  0  0  0  0  0  0  0
    2.6327    0.0577    0.0000 N   0  0  0  0  0  0  0  0  0  0  0  0
    1.3896   -0.7532   -0.0090 C   0  0  0  0  0  0  0  0  0  0  0  0
    0.1762    0.1650   -0.0076 C   0  0  0  0  0  0  0  0  0  0  0  0
   -2.4533    0.2547    0.0079 C   0  0  0  0  0  0  0  0  0  0  0  0
   -1.1558   -0.5816    0.0030 C   0  0  0  0  0  0  0  0  0  0  0  0
    2.6692    1.0124   -1.2012 C   0  0  0  0  0  0  0  0  0  0  0  0
    2.7255    0.8982    1.2808 C   0  0  0  0  0  0  0  0  0  0  0  0
    3.8724   -0.8445   -0.0698 C   0  0  0  0  0  0  0  0  0  0  0  0
   -2.4984    1.1376   -1.2518 C   0  0  0  0  0  0  0  0  0  0  0  0
   -2.5123    1.1653    1.2412 C   0  0  0  0  0  0  0  0  0  0  0  0
   -3.6559   -0.6971   -0.0084 C   0  0  0  0  0  0  0  0  0  0  0  0
  1  6  2  0
  2  3  1  0
  2  7  1  0
  2  8  1  0
  2  9  1  0
  3  4  1  0
  4  6  1  0
  5  6  1  0
  5 10  1  0
  5 11  1  0
  5 12  1  0
M  CHG  1   2   1
M  END
>  <PUBCHEM_COMPOUND_CID>  (1) 
43394

>  <PUBCHEM_CONFORMER_RMSD>  (1) 
0.6

>  <PUBCHEM_CONFORMER_DIVERSEORDER>  (1) 
1
6
5
4
3
2

>  <PUBCHEM_MMFF94_PARTIAL_CHARGES>  (1) 
9
1 -0.57
2 -1.01
3 0.5
4 0.06
5 0.06
6 0.45
7 0.5
8 0.5
9 0.5

>  <PUBCHEM_EFFECTIVE_ROTOR_COUNT>  (1) 
4

>  <PUBCHEM_PHARMACOPHORE_FEATURES>  (1) 
3
1 1 acceptor
1 2 cation
4 5 10 11 12 hydrophobe

>  <PUBCHEM_HEAVY_ATOM_COUNT>  (1) 
12

>  <PUBCHEM_ATOM_DEF_STEREO_COUNT>  (1) 
0

>  <PUBCHEM_ATOM_UDEF_STEREO_COUNT>  (1) 
0

>  <PUBCHEM_BOND_DEF_STEREO_COUNT>  (1) 
0

>  <PUBCHEM_BOND_UDEF_STEREO_COUNT>  (1) 
0

>  <PUBCHEM_ISOTOPIC_ATOM_COUNT>  (1) 
0

>  <PUBCHEM_COMPONENT_COUNT>  (1) 
1

>  <PUBCHEM_CACTVS_TAUTO_COUNT>  (1) 
2

>  <PUBCHEM_CONFORMER_ID>  (1) 
0000A98200000001

>  <PUBCHEM_MMFF94_ENERGY>  (1) 
38.2993

>  <PUBCHEM_FEATURE_SELFOVERLAP>  (1) 
15.223

>  <PUBCHEM_SHAPE_FINGERPRINT>  (1) 
11062470 55 9943805581972901539
12162725 195 17704351065429911360
124424 183 18059851740955097642
12916754 54 18187651322861818991
12932764 1 16008741437927795670
13024252 1 14923944553192210627
14144814 61 18113898264640027786
14325111 11 18410856546818269159
14390081 3 18059853969473405705
15775835 57 18261112937445432105
18186145 218 18271807891175003952
190213 19 18259985985118588690
19107657 9 18339656567513088060
20281407 28 11963391842648805522
20645464 45 18272937102601943111
21028194 46 18412261726968324455
2306618 200 18335980861919432329
23402539 116 17846488223745214589
23557571 272 17629762537432532246
3248919 1 18272371966515293486
5084963 1 18335139786905067939
57812782 119 17489584550055757780
74978 22 18341051899624575168
8030462 33 18131635568933959028
81228 2 17977661231996717947

>  <PUBCHEM_SHAPE_MULTIPOLES>  (1) 
236.1
6.79
1.39
1.14
1.85
0.16
-0.02
-0.12
0.01
-0.27
0.01
0.05
-0.56
0.01

>  <PUBCHEM_SHAPE_SELFOVERLAP>  (1) 
438.164

>  <PUBCHEM_SHAPE_VOLUME>  (1) 
152.1

>  <PUBCHEM_COORDINATE_TYPE>  (1) 
2
5
10

$$$$
