43390
     RDKit          3D

 11 10  0  0  0  0  0  0  0  0999 V2000
    0.4548    0.9375    0.6466 O   0  0  0  0  0  0  0  0  0  0  0  0
    1.5838   -0.9764   -0.2587 O   0  0  0  0  0  0  0  0  0  0  0  0
   -1.9870   -0.4384    0.2438 O   0  0  0  0  0  0  0  0  0  0  0  0
    0.4127   -0.4721    0.3972 C   0  0  0  0  0  0  0  0  0  0  0  0
   -0.8097   -0.8643   -0.4313 C   0  0  0  0  0  0  0  0  0  0  0  0
    0.5588    1.7471   -0.5168 C   0  0  0  0  0  0  0  0  0  0  0  0
    2.7717   -0.7231    0.4804 C   0  0  0  0  0  0  0  0  0  0  0  0
   -3.1586   -0.8033   -0.4724 C   0  0  0  0  0  0  0  0  0  0  0  0
    0.5926    3.2028   -0.1030 C   0  0  0  0  0  0  0  0  0  0  0  0
    3.9544   -1.2853   -0.2791 C   0  0  0  0  0  0  0  0  0  0  0  0
   -4.3736   -0.3245    0.2934 C   0  0  0  0  0  0  0  0  0  0  0  0
  1  4  1  0
  1  6  1  0
  2  4  1  0
  2  7  1  0
  3  5  1  0
  3  8  1  0
  4  5  1  0
  6  9  1  0
  7 10  1  0
  8 11  1  0
M  END
>  <PUBCHEM_COMPOUND_CID>  (1) 
43390

>  <PUBCHEM_CONFORMER_RMSD>  (1) 
0.6

>  <PUBCHEM_CONFORMER_DIVERSEORDER>  (1) 
2
59
42
48
41
40
46
55
67
66
65
69
53
35
64
61
51
28
12
72
56
71
58
36
70
20
45
63
23
31
37
24
27
57
5
33
54
44
49
21
8
62
38
9
25
60
11
10
32
4
15
50
47
43
19
29
17
68
18
16
30
39
34
6
1
52
22
14
13
26
7
3

>  <PUBCHEM_MMFF94_PARTIAL_CHARGES>  (1) 
8
1 -0.56
2 -0.56
3 -0.56
4 0.56
5 0.28
6 0.28
7 0.28
8 0.28

>  <PUBCHEM_EFFECTIVE_ROTOR_COUNT>  (1) 
7

>  <PUBCHEM_PHARMACOPHORE_FEATURES>  (1) 
3
1 1 acceptor
1 2 acceptor
1 3 acceptor

>  <PUBCHEM_HEAVY_ATOM_COUNT>  (1) 
11

>  <PUBCHEM_ATOM_DEF_STEREO_COUNT>  (1) 
0

>  <PUBCHEM_ATOM_UDEF_STEREO_COUNT>  (1) 
0

>  <PUBCHEM_BOND_DEF_STEREO_COUNT>  (1) 
0

>  <PUBCHEM_BOND_UDEF_STEREO_COUNT>  (1) 
0

>  <PUBCHEM_ISOTOPIC_ATOM_COUNT>  (1) 
0

>  <PUBCHEM_COMPONENT_COUNT>  (1) 
1

>  <PUBCHEM_CACTVS_TAUTO_COUNT>  (1) 
1

>  <PUBCHEM_CONFORMER_ID>  (1) 
0000A97E00000002

>  <PUBCHEM_MMFF94_ENERGY>  (1) 
15.8347

>  <PUBCHEM_FEATURE_SELFOVERLAP>  (1) 
15.258

>  <PUBCHEM_SHAPE_FINGERPRINT>  (1) 
10130415 120 18260547818301547771
10219947 1 18272088300926290502
12119455 92 11743834725174664554
12932764 1 17313648452391461331
14648413 74 18118967133508518907
17041 50 18335126592966033917
18410436 195 18341893000060453792
187816 3 17967820418608259538
19021347 4 17184184483993303032
20339313 130 18410859884108007051
20671657 1 18267307727801142677
20711985 327 18342462538350964158
20711985 344 18120650236871267938
20871998 22 18342461387558445038
21130352 189 18408879650955664357
23402539 116 18342448201776906710
23532345 12 18130791170459407163
23598291 2 18200587128892284751
305870 269 17906449188048852093
3071541 12 18194122043091007988
3250762 1 17683536395498939194
58734987 36 18408886252167320076
68521 5 18264490594211226804
7364860 26 18268428129838765817
81228 2 18121230787574417888
9939556 21 18200027499048855151

>  <PUBCHEM_SHAPE_MULTIPOLES>  (1) 
208.77
6.37
2.43
0.75
3.43
3.32
0.01
-4.17
-0.07
-1.39
0.24
0
0
-0.05

>  <PUBCHEM_SHAPE_SELFOVERLAP>  (1) 
372.615

>  <PUBCHEM_SHAPE_VOLUME>  (1) 
136.1

>  <PUBCHEM_COORDINATE_TYPE>  (1) 
2
5
10

$$$$
