43396
     RDKit          3D

 20 22  0  0  1  0  0  0  0  0999 V2000
   -0.5589    2.1693    0.0308 O   0  0  0  0  0  0  0  0  0  0  0  0
    3.2209    0.2555   -0.2842 N   0  0  0  0  0  0  0  0  0  0  0  0
    0.7943    0.1701    0.1278 C   0  0  0  0  0  0  0  0  0  0  0  0
    1.9680    1.0040   -0.3819 C   0  0  0  0  0  0  0  0  0  0  0  0
    0.7124   -1.1513   -0.6354 C   0  0  0  0  0  0  0  0  0  0  0  0
    3.5032   -0.0940    1.1151 C   0  0  0  0  0  0  0  0  0  0  0  0
    4.3262    1.0246   -0.8730 C   0  0  0  0  0  0  0  0  0  0  0  0
    4.7854   -0.9200    1.2297 C   0  0  0  0  0  0  0  0  0  0  0  0
    5.6353    0.2354   -0.8233 C   0  0  0  0  0  0  0  0  0  0  0  0
    5.9697   -0.1953    0.6004 C   0  0  0  0  0  0  0  0  0  0  0  0
   -0.4420   -1.9986   -0.1137 C   0  0  0  0  0  0  0  0  0  0  0  0
   -0.5151    0.9424    0.0019 C   0  0  0  0  0  0  0  0  0  0  0  0
   -1.7402   -1.2402   -0.1518 C   0  0  0  0  0  0  0  0  0  0  0  0
   -1.7772    0.1611   -0.0913 C   0  0  0  0  0  0  0  0  0  0  0  0
   -3.0036    0.8374   -0.1150 C   0  0  0  0  0  0  0  0  0  0  0  0
   -2.9489   -1.9496   -0.2069 C   0  0  0  0  0  0  0  0  0  0  0  0
   -4.1959    0.1174   -0.1853 C   0  0  0  0  0  0  0  0  0  0  0  0
   -4.1693   -1.2743   -0.2281 C   0  0  0  0  0  0  0  0  0  0  0  0
   -5.5019    0.8381   -0.2084 C   0  0  0  0  0  0  0  0  0  0  0  0
   -6.0625    1.0681    1.1926 C   0  0  0  0  0  0  0  0  0  0  0  0
  1 12  2  0
  2  4  1  0
  2  6  1  0
  2  7  1  0
  3  4  1  0
  3  5  1  0
  3 12  1  0
  5 11  1  0
  6  8  1  0
  7  9  1  0
  8 10  1  0
  9 10  1  0
 11 13  1  0
 12 14  1  0
 13 14  2  0
 13 16  1  0
 14 15  1  0
 15 17  2  0
 16 18  2  0
 17 18  1  0
 17 19  1  0
 19 20  1  0
M  END
>  <PUBCHEM_COMPOUND_CID>  (1) 
43396

>  <PUBCHEM_CONFORMER_RMSD>  (1) 
0.6

>  <PUBCHEM_CONFORMER_DIVERSEORDER>  (1) 
1
12
6
2
10
8
9
14
7
4
11
3
5
13

>  <PUBCHEM_MMFF94_PARTIAL_CHARGES>  (1) 
18
1 -0.57
11 0.14
12 0.42
13 -0.14
14 0.09
15 -0.15
16 -0.15
17 -0.14
18 -0.15
19 0.14
2 -0.81
3 0.06
38 0.15
39 0.15
4 0.27
40 0.15
6 0.27
7 0.27

>  <PUBCHEM_EFFECTIVE_ROTOR_COUNT>  (1) 
4.8

>  <PUBCHEM_PHARMACOPHORE_FEATURES>  (1) 
6
1 1 acceptor
1 2 cation
1 20 hydrophobe
6 13 14 15 16 17 18 rings
6 2 6 7 8 9 10 rings
6 3 5 11 12 13 14 rings

>  <PUBCHEM_HEAVY_ATOM_COUNT>  (1) 
20

>  <PUBCHEM_ATOM_DEF_STEREO_COUNT>  (1) 
0

>  <PUBCHEM_ATOM_UDEF_STEREO_COUNT>  (1) 
1

>  <PUBCHEM_BOND_DEF_STEREO_COUNT>  (1) 
0

>  <PUBCHEM_BOND_UDEF_STEREO_COUNT>  (1) 
0

>  <PUBCHEM_ISOTOPIC_ATOM_COUNT>  (1) 
0

>  <PUBCHEM_COMPONENT_COUNT>  (1) 
1

>  <PUBCHEM_CACTVS_TAUTO_COUNT>  (1) 
2

>  <PUBCHEM_CONFORMER_ID>  (1) 
0000A98400000001

>  <PUBCHEM_MMFF94_ENERGY>  (1) 
32.5525

>  <PUBCHEM_FEATURE_SELFOVERLAP>  (1) 
30.467

>  <PUBCHEM_SHAPE_FINGERPRINT>  (1) 
10062212 137 18337947995484845391
10906281 52 18339378408372234879
11089746 13 17346590872789065801
11315181 36 17917719028215678640
11646440 116 17918002689425708521
12107183 9 17538831495886844560
12236239 1 18040715883392428364
12390115 104 17915470402262097233
12616971 3 17894910750065607454
12788726 201 18340212903517885632
13140716 1 18339923839597362585
13167823 11 18113896078813085946
13533116 47 17417252018435524894
13760787 19 18186237355140357762
13760787 5 17894907455567267495
13862211 1 18412257371929742591
14251764 18 18335703862519813427
15099037 51 18412826906009668645
15183329 4 18335136492417232399
15196674 1 18339360884768543196
15788980 27 17821726134970920053
1601671 61 18341895186209103569
17804303 29 18342736368280632600
17834072 33 18040151838443886132
1813 80 17023185977314503070
19489759 90 17203611475934854129
19784866 170 18411140216903225679
19784866 9 18261109651879970339
200 152 17967810565926505768
20281389 69 18261109677776660381
20621476 66 18411987953142626417
20645477 70 15140950718023116608
21033648 29 16988267742705115922
21267235 1 18338521949482115047
21421861 104 18042960982899539490
220451 1 18186523211183981926
23175994 123 16988563532512346992
23402539 116 18272082820705906447
23536379 177 17022618658804172341
23559900 14 18201437030032488064
300161 21 18187639232808423164
3004659 81 18334297574463407356
335352 9 18411699898523743661
34934 24 18341891866605845183
3545911 37 18343867706127742391
3680242 22 18336831896387105522
4072396 5 18341324513857089222
465052 167 17894635837872836506
474 4 17170120489688116932
5104073 3 18337672034913561185
5385378 56 18200039430383886571
542803 24 17894348895392201918
559249 180 18408598167104539703
59755656 215 18272375218117130606
67856867 119 18189895495420761444
7226269 152 18131634465628933673

>  <PUBCHEM_SHAPE_MULTIPOLES>  (1) 
400.74
14
1.75
0.96
4.31
0.38
-0.18
-2.26
-2.19
-1.29
0.09
0.62
-0.02
-1.08

>  <PUBCHEM_SHAPE_SELFOVERLAP>  (1) 
842.997

>  <PUBCHEM_SHAPE_VOLUME>  (1) 
225.5

>  <PUBCHEM_COORDINATE_TYPE>  (1) 
2
5
10

$$$$
