43405
     RDKit          3D

 22 25  0  0  1  0  0  0  0  0999 V2000
    3.8613    0.6074    0.9899 N   0  0  0  0  0  0  0  0  0  0  0  0
   -0.8516   -0.0040   -0.4751 N   0  0  0  0  0  0  0  0  0  0  0  0
    2.9356    0.3301   -0.1326 C   0  0  0  0  0  0  0  0  0  0  0  0
    3.3015   -1.0057   -0.8108 C   0  0  0  0  0  0  0  0  0  0  0  0
    1.4688    0.2527    0.3148 C   0  0  0  0  0  0  0  0  0  0  0  0
    4.7524   -1.0301   -1.2738 C   0  0  0  0  0  0  0  0  0  0  0  0
    5.2607    0.6419    0.5297 C   0  0  0  0  0  0  0  0  0  0  0  0
    5.6771   -0.6757   -0.1197 C   0  0  0  0  0  0  0  0  0  0  0  0
    0.5480    0.0648   -0.8817 C   0  0  0  0  0  0  0  0  0  0  0  0
    3.5501    1.8643    1.6770 C   0  0  0  0  0  0  0  0  0  0  0  0
   -1.6782    1.0829   -0.3696 C   0  0  0  0  0  0  0  0  0  0  0  0
   -1.5045   -1.1637   -0.1517 C   0  0  0  0  0  0  0  0  0  0  0  0
   -2.9233    0.6070    0.0417 C   0  0  0  0  0  0  0  0  0  0  0  0
   -2.8136   -0.8134    0.1794 C   0  0  0  0  0  0  0  0  0  0  0  0
   -1.4259    2.4397   -0.6033 C   0  0  0  0  0  0  0  0  0  0  0  0
   -1.0451   -2.4856   -0.1258 C   0  0  0  0  0  0  0  0  0  0  0  0
   -3.9708    1.5331    0.2301 C   0  0  0  0  0  0  0  0  0  0  0  0
   -3.7107   -1.8350    0.5557 C   0  0  0  0  0  0  0  0  0  0  0  0
   -2.4793    3.3374   -0.4100 C   0  0  0  0  0  0  0  0  0  0  0  0
   -1.9525   -3.4798    0.2495 C   0  0  0  0  0  0  0  0  0  0  0  0
   -3.7337    2.8931    0.0006 C   0  0  0  0  0  0  0  0  0  0  0  0
   -3.2662   -3.1615    0.5857 C   0  0  0  0  0  0  0  0  0  0  0  0
  1  3  1  0
  1  7  1  0
  1 10  1  0
  2  9  1  0
  2 11  1  0
  2 12  1  0
  3  4  1  0
  3  5  1  0
  4  6  1  0
  5  9  1  0
  6  8  1  0
  7  8  1  0
 11 13  1  0
 11 15  2  0
 12 14  2  0
 12 16  1  0
 13 14  1  0
 13 17  2  0
 14 18  1  0
 15 19  1  0
 16 20  2  0
 17 21  1  0
 18 22  2  0
 19 21  2  0
 20 22  1  0
M  END
>  <PUBCHEM_COMPOUND_CID>  (1) 
43405

>  <PUBCHEM_CONFORMER_RMSD>  (1) 
0.6

>  <PUBCHEM_CONFORMER_DIVERSEORDER>  (1) 
1
15
10
5
16
7
2
11
6
17
13
9
3
14
8
4
12

>  <PUBCHEM_MMFF94_PARTIAL_CHARGES>  (1) 
24
1 -0.81
10 0.27
11 -0.15
12 -0.15
15 -0.15
16 -0.15
17 -0.15
18 -0.15
19 -0.15
2 0.05
20 -0.15
21 -0.15
22 -0.15
3 0.27
39 0.15
40 0.15
41 0.15
42 0.15
43 0.15
44 0.15
45 0.15
46 0.15
7 0.27
9 0.26

>  <PUBCHEM_EFFECTIVE_ROTOR_COUNT>  (1) 
4.2

>  <PUBCHEM_PHARMACOPHORE_FEATURES>  (1) 
6
1 1 cation
1 2 cation
5 2 11 12 13 14 rings
6 1 3 4 6 7 8 rings
6 11 13 15 17 19 21 rings
6 12 14 16 18 20 22 rings

>  <PUBCHEM_HEAVY_ATOM_COUNT>  (1) 
22

>  <PUBCHEM_ATOM_DEF_STEREO_COUNT>  (1) 
0

>  <PUBCHEM_ATOM_UDEF_STEREO_COUNT>  (1) 
1

>  <PUBCHEM_BOND_DEF_STEREO_COUNT>  (1) 
0

>  <PUBCHEM_BOND_UDEF_STEREO_COUNT>  (1) 
0

>  <PUBCHEM_ISOTOPIC_ATOM_COUNT>  (1) 
0

>  <PUBCHEM_COMPONENT_COUNT>  (1) 
1

>  <PUBCHEM_CACTVS_TAUTO_COUNT>  (1) 
1

>  <PUBCHEM_CONFORMER_ID>  (1) 
0000A98D00000001

>  <PUBCHEM_MMFF94_ENERGY>  (1) 
40.6954

>  <PUBCHEM_FEATURE_SELFOVERLAP>  (1) 
30.628

>  <PUBCHEM_SHAPE_FINGERPRINT>  (1) 
10319926 262 18339626894559759458
10369192 42 17556012834435859248
10411042 1 18120941874063269963
105312 117 17823686482957764421
11370993 144 17917725594745953170
11405975 8 18411413995535724120
11545043 162 18412827993216740634
11720765 8 16622332900419397615
12107183 9 17973434413537199458
12173636 292 18337104558333569885
12236239 1 17240492385501019500
12500047 106 18338797819209616646
12507560 40 18273214235704139172
12553582 1 17977396258416051975
12788726 201 18043546107505072986
13140716 1 18120948454232008531
13544592 145 18198633133705533790
13583140 156 18060416937102529454
138480 1 16679501461548423095
14081887 123 18337944688143438002
14178342 30 18261663840274239450
14251757 17 18201441333594785786
14420673 8 18192430767360595282
14844126 61 18334575789043424259
15042514 8 18335429010430282443
15230672 131 18046914784512870126
15806764 133 17917164861518006316
15961568 22 17974002044968705764
17844677 252 18409455816929825672
1813 80 17459747210450371334
20510252 161 18341895195110183857
20645477 56 18411139091189374869
20645477 70 16988283076096857438
21033648 29 17845921992653187120
21065198 57 18412543215404767982
21065199 12 18270960254099834714
21065201 7 18410008828233790314
21650355 55 18264770029347289103
21792961 116 17988372490703156868
22122407 14 16199881647412365195
22224240 67 18269002990770786121
22943178 12 18273212010905824520
23402539 116 18341888641312161983
23557571 272 18341614845209332036
23559900 14 18341898442458926518
23845131 108 17978525131110300329
3091708 16 9201123935111682923
312423 11 17749964382849660316
3298306 158 18128541466342512246
4073 2 18410013230939414906
4214541 1 18411139126044647588
508706 21 18412539907905442854
5104073 3 18341608227186741800
5265222 85 18339657736915461142
5364581 5 18197482129989679168
602551 16 18407478860536472694
7399639 24 17768798012285559128
84936 182 17548414809032982249
9709674 26 18343298193300678116
9981440 41 18046070363513156609

>  <PUBCHEM_SHAPE_MULTIPOLES>  (1) 
442.79
10.73
3.86
1.01
15.18
0.56
-0.12
-0.6
-1.01
-6.04
-0.28
0.99
-0.18
1.85

>  <PUBCHEM_SHAPE_SELFOVERLAP>  (1) 
963.507

>  <PUBCHEM_SHAPE_VOLUME>  (1) 
241.9

>  <PUBCHEM_COORDINATE_TYPE>  (1) 
2
5
10

$$$$
