43408
     RDKit          3D

 11 11  0  0  0  0  0  0  0  0999 V2000
    0.8000    1.9809    0.0051 O   0  0  0  0  0  0  0  0  0  0  0  0
   -0.7362    0.3248    0.0010 N   0  0  0  0  0  0  0  0  0  0  0  0
   -0.9815   -1.0056   -0.0006 N   0  0  0  0  0  0  0  0  0  0  0  0
   -2.9346    0.1772    0.0012 N   0  0  0  0  0  0  0  0  0  0  0  0
    1.6235   -0.2953    0.0003 C   0  0  0  0  0  0  0  0  0  0  0  0
    1.4315   -1.1390   -1.2615 C   0  0  0  0  0  0  0  0  0  0  0  0
    1.4479   -1.1592    1.2515 C   0  0  0  0  0  0  0  0  0  0  0  0
    3.0073    0.3588   -0.0013 C   0  0  0  0  0  0  0  0  0  0  0  0
    0.5793    0.7785    0.0019 C   0  0  0  0  0  0  0  0  0  0  0  0
   -1.9228    1.0135    0.0019 C   0  0  0  0  0  0  0  0  0  0  0  0
   -2.3145   -1.0346    0.0003 C   0  0  0  0  0  0  0  0  0  0  0  0
  1  9  2  0
  2  3  1  0
  2  9  1  0
  2 10  1  0
  3 11  2  0
  4 10  2  0
  4 11  1  0
  5  6  1  0
  5  7  1  0
  5  8  1  0
  5  9  1  0
M  END
>  <PUBCHEM_COMPOUND_CID>  (1) 
43408

>  <PUBCHEM_CONFORMER_RMSD>  (1) 
0.4

>  <PUBCHEM_CONFORMER_DIVERSEORDER>  (1) 
1
5
6
4
2
3

>  <PUBCHEM_MMFF94_PARTIAL_CHARGES>  (1) 
10
1 -0.57
10 0.04
11 0.37
2 0.56
21 0.15
22 0.15
3 -0.71
4 -0.57
5 0.06
9 0.52

>  <PUBCHEM_EFFECTIVE_ROTOR_COUNT>  (1) 
2

>  <PUBCHEM_PHARMACOPHORE_FEATURES>  (1) 
4
1 1 acceptor
3 3 4 11 cation
4 5 6 7 8 hydrophobe
5 2 3 4 10 11 rings

>  <PUBCHEM_HEAVY_ATOM_COUNT>  (1) 
11

>  <PUBCHEM_ATOM_DEF_STEREO_COUNT>  (1) 
0

>  <PUBCHEM_ATOM_UDEF_STEREO_COUNT>  (1) 
0

>  <PUBCHEM_BOND_DEF_STEREO_COUNT>  (1) 
0

>  <PUBCHEM_BOND_UDEF_STEREO_COUNT>  (1) 
0

>  <PUBCHEM_ISOTOPIC_ATOM_COUNT>  (1) 
0

>  <PUBCHEM_COMPONENT_COUNT>  (1) 
1

>  <PUBCHEM_CACTVS_TAUTO_COUNT>  (1) 
1

>  <PUBCHEM_CONFORMER_ID>  (1) 
0000A99000000001

>  <PUBCHEM_MMFF94_ENERGY>  (1) 
33.5437

>  <PUBCHEM_FEATURE_SELFOVERLAP>  (1) 
20.297

>  <PUBCHEM_SHAPE_FINGERPRINT>  (1) 
10219947 1 18131069346468613836
10857977 72 18342728633107745170
12524768 44 18270684160205494943
12897270 3 18271815605152428646
12932764 1 18113618963127746061
15310529 11 17168144499013266053
15775835 57 18113336388502296507
16945 1 18410574032438295906
17990270 104 18343024401704143815
18185500 45 18260543373031469490
20201158 50 18342739615450066207
20653091 64 18336549412103733633
20711985 344 17907872703540498380
21040471 1 18050286960049951297
23235685 24 18131348604952088343
23552423 10 18188208835513159685
2748010 2 18197220243603709909
29004967 10 18131074822420086314
369184 2 18187078430069585523
5084963 1 18270682102863399720
528886 8 18202566180970682102

>  <PUBCHEM_SHAPE_MULTIPOLES>  (1) 
205.56
3.91
1.51
0.9
0.96
0.3
0.01
-0.12
-0.01
-0.09
-0.01
-0.47
-0.36
0

>  <PUBCHEM_SHAPE_SELFOVERLAP>  (1) 
423.453

>  <PUBCHEM_SHAPE_VOLUME>  (1) 
121

>  <PUBCHEM_COORDINATE_TYPE>  (1) 
2
5
10

$$$$
