43406
     RDKit          3D

 21 24  0  0  1  0  0  0  0  0999 V2000
   -4.3645    0.6511   -0.2003 N   0  0  0  0  0  0  0  0  0  0  0  0
    0.4827    0.1619    0.6909 N   0  0  0  0  0  0  0  0  0  0  0  0
   -1.9298    0.3654    0.1940 C   0  0  0  0  0  0  0  0  0  0  0  0
   -1.9498   -0.9492   -0.5936 C   0  0  0  0  0  0  0  0  0  0  0  0
   -3.3069    0.6409    0.8215 C   0  0  0  0  0  0  0  0  0  0  0  0
   -0.8420    0.3354    1.2659 C   0  0  0  0  0  0  0  0  0  0  0  0
   -3.1028   -0.9564   -1.5916 C   0  0  0  0  0  0  0  0  0  0  0  0
   -4.4318   -0.6345   -0.9081 C   0  0  0  0  0  0  0  0  0  0  0  0
    1.3007    1.1929    0.3024 C   0  0  0  0  0  0  0  0  0  0  0  0
    1.0778   -1.0540    0.4668 C   0  0  0  0  0  0  0  0  0  0  0  0
    2.4722    0.6208   -0.1941 C   0  0  0  0  0  0  0  0  0  0  0  0
    2.3314   -0.7996   -0.0899 C   0  0  0  0  0  0  0  0  0  0  0  0
   -5.6578    0.9700    0.4047 C   0  0  0  0  0  0  0  0  0  0  0  0
    1.0957    2.5765    0.3514 C   0  0  0  0  0  0  0  0  0  0  0  0
    0.6073   -2.3491    0.7121 C   0  0  0  0  0  0  0  0  0  0  0  0
    3.4918    1.4739   -0.6664 C   0  0  0  0  0  0  0  0  0  0  0  0
    3.1582   -1.8943   -0.4189 C   0  0  0  0  0  0  0  0  0  0  0  0
    2.1201    3.4007   -0.1222 C   0  0  0  0  0  0  0  0  0  0  0  0
    1.4446   -3.4169    0.3784 C   0  0  0  0  0  0  0  0  0  0  0  0
    3.3012    2.8597   -0.6241 C   0  0  0  0  0  0  0  0  0  0  0  0
    2.7017   -3.1953   -0.1789 C   0  0  0  0  0  0  0  0  0  0  0  0
  1  5  1  0
  1  8  1  0
  1 13  1  0
  2  6  1  0
  2  9  1  0
  2 10  1  0
  3  4  1  0
  3  5  1  0
  3  6  1  0
  4  7  1  0
  7  8  1  0
  9 11  1  0
  9 14  2  0
 10 12  2  0
 10 15  1  0
 11 12  1  0
 11 16  2  0
 12 17  1  0
 14 18  1  0
 15 19  2  0
 16 20  1  0
 17 21  2  0
 18 20  2  0
 19 21  1  0
M  END
>  <PUBCHEM_COMPOUND_CID>  (1) 
43406

>  <PUBCHEM_CONFORMER_RMSD>  (1) 
0.6

>  <PUBCHEM_CONFORMER_DIVERSEORDER>  (1) 
1
6
8
4
10
5
7
3
9
2
11
12

>  <PUBCHEM_MMFF94_PARTIAL_CHARGES>  (1) 
24
1 -0.81
10 -0.15
13 0.27
14 -0.15
15 -0.15
16 -0.15
17 -0.15
18 -0.15
19 -0.15
2 0.05
20 -0.15
21 -0.15
36 0.15
37 0.15
38 0.15
39 0.15
40 0.15
41 0.15
42 0.15
43 0.15
5 0.27
6 0.26
8 0.27
9 -0.15

>  <PUBCHEM_EFFECTIVE_ROTOR_COUNT>  (1) 
3.2

>  <PUBCHEM_PHARMACOPHORE_FEATURES>  (1) 
6
1 1 cation
1 2 cation
5 2 9 10 11 12 rings
6 1 3 4 5 7 8 rings
6 10 12 15 17 19 21 rings
6 9 11 14 16 18 20 rings

>  <PUBCHEM_HEAVY_ATOM_COUNT>  (1) 
21

>  <PUBCHEM_ATOM_DEF_STEREO_COUNT>  (1) 
0

>  <PUBCHEM_ATOM_UDEF_STEREO_COUNT>  (1) 
1

>  <PUBCHEM_BOND_DEF_STEREO_COUNT>  (1) 
0

>  <PUBCHEM_BOND_UDEF_STEREO_COUNT>  (1) 
0

>  <PUBCHEM_ISOTOPIC_ATOM_COUNT>  (1) 
0

>  <PUBCHEM_COMPONENT_COUNT>  (1) 
1

>  <PUBCHEM_CACTVS_TAUTO_COUNT>  (1) 
1

>  <PUBCHEM_CONFORMER_ID>  (1) 
0000A98E00000001

>  <PUBCHEM_MMFF94_ENERGY>  (1) 
42.6206

>  <PUBCHEM_FEATURE_SELFOVERLAP>  (1) 
30.628

>  <PUBCHEM_SHAPE_FINGERPRINT>  (1) 
10411042 1 17904766578976802362
105312 117 17900555776318624396
10693767 8 18202009776901420334
11265709 11 18121495757213758770
11370993 70 18122057869315949108
12107183 9 17910120106009487865
12173636 292 17905609156959577733
12293681 160 17844822570967205688
12553582 1 18122618362363908903
12730499 353 18262811769025911649
13004483 165 17761197822330824770
13009979 54 17702111265665323587
13140716 1 18335416928360199074
13464514 151 18338803432805693102
13533116 47 18341606045612679087
138480 1 18265896865346038150
15502722 9 18409730689908643771
16087824 20 17328868690764812565
16752209 62 16773802450973475353
16945 1 18266755734599372392
17818456 19 17557992740895919969
17980427 23 18127099031730085514
1813 80 17984148054300568134
19784866 34 18339360901980372665
20645477 70 18334295357727493691
21524375 3 17971744725820520264
21634736 98 18342742879672878782
221490 88 18408612465314535939
22393880 68 18200878494767260284
2255824 54 18411416206885062846
22907989 373 17037548128639755396
23419403 2 17243541293291639502
23559900 14 18412539899125805779
23598291 2 18129954372847951889
238 59 18337392741817283010
25 1 18335702805509589056
2748010 2 17833852821155983592
3060560 45 18337107972969908572
352729 6 18050860115257118336
4280585 95 17985843531780764542
474 4 18337106864578117673
5281201 14 18261389993185833493
543358 83 18341054029928444937
633830 44 18269557298221028477
6443956 14 18264490581336627556
7364860 26 18410573968161492576
7471813 234 18269550538111036312
81228 2 17543342761967352944
8272917 22 18411142424363266181
84936 182 18272086166396279000
9981440 41 17979907534346749248

>  <PUBCHEM_SHAPE_MULTIPOLES>  (1) 
422.21
8.31
3.89
1.04
12.52
0.5
-0.11
-2.26
-1.69
-5.49
-0.02
0.6
0.1
-0.99

>  <PUBCHEM_SHAPE_SELFOVERLAP>  (1) 
926.098

>  <PUBCHEM_SHAPE_VOLUME>  (1) 
226.1

>  <PUBCHEM_COORDINATE_TYPE>  (1) 
2
5
10

$$$$
