43404
     RDKit          3D

 21 24  0  0  0  0  0  0  0  0999 V2000
   -4.4948    0.1375   -0.4444 N   0  0  0  0  0  0  0  0  0  0  0  0
    0.5701   -0.1982    0.7623 N   0  0  0  0  0  0  0  0  0  0  0  0
   -1.8373   -0.6830    0.4825 C   0  0  0  0  0  0  0  0  0  0  0  0
   -2.0673    0.5999   -0.3235 C   0  0  0  0  0  0  0  0  0  0  0  0
   -3.1218   -1.0646    1.2258 C   0  0  0  0  0  0  0  0  0  0  0  0
   -0.6701   -0.5198    1.4521 C   0  0  0  0  0  0  0  0  0  0  0  0
   -3.2977    0.4778   -1.2250 C   0  0  0  0  0  0  0  0  0  0  0  0
   -4.3170   -1.1320    0.2729 C   0  0  0  0  0  0  0  0  0  0  0  0
    0.9973    1.0767    0.4900 C   0  0  0  0  0  0  0  0  0  0  0  0
    1.4643   -1.1304    0.3005 C   0  0  0  0  0  0  0  0  0  0  0  0
    2.2178    0.9652   -0.1764 C   0  0  0  0  0  0  0  0  0  0  0  0
    2.5132   -0.4301   -0.2959 C   0  0  0  0  0  0  0  0  0  0  0  0
   -5.6707    0.0751   -1.3121 C   0  0  0  0  0  0  0  0  0  0  0  0
    0.4027    2.3103    0.7792 C   0  0  0  0  0  0  0  0  0  0  0  0
    1.4269   -2.5280    0.3641 C   0  0  0  0  0  0  0  0  0  0  0  0
    2.8791    2.1459   -0.5750 C   0  0  0  0  0  0  0  0  0  0  0  0
    3.5798   -1.1626   -0.8580 C   0  0  0  0  0  0  0  0  0  0  0  0
    1.0769    3.4656    0.3742 C   0  0  0  0  0  0  0  0  0  0  0  0
    2.4950   -3.2313   -0.1989 C   0  0  0  0  0  0  0  0  0  0  0  0
    2.2968    3.3869   -0.2930 C   0  0  0  0  0  0  0  0  0  0  0  0
    3.5567   -2.5607   -0.8016 C   0  0  0  0  0  0  0  0  0  0  0  0
  1  7  1  0
  1  8  1  0
  1 13  1  0
  2  6  1  0
  2  9  1  0
  2 10  1  0
  3  4  1  0
  3  5  1  0
  3  6  1  0
  4  7  1  0
  5  8  1  0
  9 11  1  0
  9 14  2  0
 10 12  2  0
 10 15  1  0
 11 12  1  0
 11 16  2  0
 12 17  1  0
 14 18  1  0
 15 19  2  0
 16 20  1  0
 17 21  2  0
 18 20  2  0
 19 21  1  0
M  END
>  <PUBCHEM_COMPOUND_CID>  (1) 
43404

>  <PUBCHEM_CONFORMER_RMSD>  (1) 
0.6

>  <PUBCHEM_CONFORMER_DIVERSEORDER>  (1) 
1
5
3
4
2

>  <PUBCHEM_MMFF94_PARTIAL_CHARGES>  (1) 
24
1 -0.81
10 -0.15
13 0.27
14 -0.15
15 -0.15
16 -0.15
17 -0.15
18 -0.15
19 -0.15
2 0.05
20 -0.15
21 -0.15
36 0.15
37 0.15
38 0.15
39 0.15
40 0.15
41 0.15
42 0.15
43 0.15
6 0.26
7 0.27
8 0.27
9 -0.15

>  <PUBCHEM_EFFECTIVE_ROTOR_COUNT>  (1) 
3.2

>  <PUBCHEM_PHARMACOPHORE_FEATURES>  (1) 
6
1 1 cation
1 2 cation
5 2 9 10 11 12 rings
6 1 3 4 5 7 8 rings
6 10 12 15 17 19 21 rings
6 9 11 14 16 18 20 rings

>  <PUBCHEM_HEAVY_ATOM_COUNT>  (1) 
21

>  <PUBCHEM_ATOM_DEF_STEREO_COUNT>  (1) 
0

>  <PUBCHEM_ATOM_UDEF_STEREO_COUNT>  (1) 
0

>  <PUBCHEM_BOND_DEF_STEREO_COUNT>  (1) 
0

>  <PUBCHEM_BOND_UDEF_STEREO_COUNT>  (1) 
0

>  <PUBCHEM_ISOTOPIC_ATOM_COUNT>  (1) 
0

>  <PUBCHEM_COMPONENT_COUNT>  (1) 
1

>  <PUBCHEM_CACTVS_TAUTO_COUNT>  (1) 
1

>  <PUBCHEM_CONFORMER_ID>  (1) 
0000A98C00000001

>  <PUBCHEM_MMFF94_ENERGY>  (1) 
42.5732

>  <PUBCHEM_FEATURE_SELFOVERLAP>  (1) 
30.628

>  <PUBCHEM_SHAPE_FINGERPRINT>  (1) 
10165383 225 17616564051155414248
10498660 4 17095232619359438199
10693767 8 18131642179537871334
10764073 3 17329088743324046824
116883 192 17909270182771792462
12553582 1 18194982750505981466
12623949 98 17979107043102181683
12730499 353 18264495164346281307
12769317 202 18267302208393932696
12788726 201 17617096902140977466
13004483 165 18051399683155950602
13009979 54 17702962322140836275
13134695 92 18412260606076708580
13533116 47 18342454881473912013
13911987 19 18263386771027253262
14178000 15 18340765944891648680
14508225 48 18194410996275330558
14790565 3 17114390239058192136
15502722 9 18339363079554749689
16945 1 18266198187730607754
17539 30 17763183536309349262
17818456 19 17344359856475315129
1813 80 17845102774543457990
20388580 30 18272367533987737807
20645477 70 18410008866667027655
20671657 53 18270123400669882010
21304303 282 16691848431435567780
21452121 199 18265888073695618306
21524375 3 17758397757309682248
221357 26 18335977559374152365
221490 88 18336837484271945939
22182313 1 17895762932192206667
22289505 5 18335412418538939261
2255824 54 18342180007007633254
22620623 9 17408825228239430726
23114952 82 18333732441907321173
23526113 38 18187367579952634859
23559900 14 18409442600877469763
23598291 2 17988099802116755873
238 59 18265595753652237167
25 1 18194689386980537576
266924 87 18410586067544093916
2748010 2 17834424545748598794
2838139 119 15938126459302209646
3060560 45 18340206413879849268
3323516 105 18334581265126388243
46194498 28 18334289873196603981
495365 180 18268980067759959961
5281201 14 18408604764706575799
59682541 52 18269534136495895693
5969126 39 18053100628187471886
6049 1 17896054259575857611
6287921 2 17971764525683097733
7164475 11 17833552293451653446
7364860 26 18410857693664201544
7399639 24 17831022695184353251
7471813 234 18201716215316551376
81228 2 17906452126175293568
9709674 26 18334575784980506579

>  <PUBCHEM_SHAPE_MULTIPOLES>  (1) 
422.21
8.31
3.8
1.14
12.48
1.54
-0.02
-2.59
3.58
-5.34
0.01
0.76
-0.09
0.82

>  <PUBCHEM_SHAPE_SELFOVERLAP>  (1) 
926.208

>  <PUBCHEM_SHAPE_VOLUME>  (1) 
225.9

>  <PUBCHEM_COORDINATE_TYPE>  (1) 
2
5
10

$$$$
