43402
     RDKit          3D

 15 16  0  0  0  0  0  0  0  0999 V2000
    1.0030   -2.7014   -0.2902 O   0  0  0  0  0  0  0  0  0  0  0  0
   -1.7633   -2.6396    0.4259 O   0  0  0  0  0  0  0  0  0  0  0  0
    2.1299    0.6374    1.4295 O   0  0  0  0  0  0  0  0  0  0  0  0
    3.9139    1.1251    0.1152 O   0  0  0  0  0  0  0  0  0  0  0  0
    0.6775   -0.3565   -0.4999 N   0  0  0  0  0  0  0  0  0  0  0  0
   -0.4381    0.4809   -0.3130 C   0  0  0  0  0  0  0  0  0  0  0  0
   -1.5503   -0.2651    0.0718 C   0  0  0  0  0  0  0  0  0  0  0  0
    1.9856    0.1024   -0.8999 C   0  0  0  0  0  0  0  0  0  0  0  0
    0.3534   -1.6790   -0.2489 C   0  0  0  0  0  0  0  0  0  0  0  0
   -1.1213   -1.6598    0.1348 C   0  0  0  0  0  0  0  0  0  0  0  0
   -0.5315    1.8525   -0.4605 C   0  0  0  0  0  0  0  0  0  0  0  0
   -2.7834    0.2973    0.3241 C   0  0  0  0  0  0  0  0  0  0  0  0
   -1.7719    2.4514   -0.2110 C   0  0  0  0  0  0  0  0  0  0  0  0
   -2.8863    1.6814    0.1773 C   0  0  0  0  0  0  0  0  0  0  0  0
    2.7827    0.6731    0.2446 C   0  0  0  0  0  0  0  0  0  0  0  0
  1  9  2  0
  2 10  2  0
  3 15  1  0
  4 15  2  0
  5  6  1  0
  5  8  1  0
  5  9  1  0
  6  7  2  0
  6 11  1  0
  7 10  1  0
  7 12  1  0
  8 15  1  0
  9 10  1  0
 11 13  2  0
 12 14  2  0
 13 14  1  0
M  END
>  <PUBCHEM_COMPOUND_CID>  (1) 
43402

>  <PUBCHEM_CONFORMER_RMSD>  (1) 
0.6

>  <PUBCHEM_CONFORMER_DIVERSEORDER>  (1) 
1
3
2

>  <PUBCHEM_MMFF94_PARTIAL_CHARGES>  (1) 
20
1 -0.57
10 0.48
11 -0.15
12 -0.15
13 -0.15
14 -0.15
15 0.66
18 0.15
19 0.15
2 -0.57
20 0.15
21 0.15
22 0.5
3 -0.65
4 -0.57
5 -0.48
6 0.12
7 0.09
8 0.36
9 0.63

>  <PUBCHEM_EFFECTIVE_ROTOR_COUNT>  (1) 
2.2

>  <PUBCHEM_PHARMACOPHORE_FEATURES>  (1) 
7
1 1 acceptor
1 2 acceptor
1 3 acceptor
1 4 acceptor
3 3 4 15 anion
5 5 6 7 9 10 rings
6 6 7 11 12 13 14 rings

>  <PUBCHEM_HEAVY_ATOM_COUNT>  (1) 
15

>  <PUBCHEM_ATOM_DEF_STEREO_COUNT>  (1) 
0

>  <PUBCHEM_ATOM_UDEF_STEREO_COUNT>  (1) 
0

>  <PUBCHEM_BOND_DEF_STEREO_COUNT>  (1) 
0

>  <PUBCHEM_BOND_UDEF_STEREO_COUNT>  (1) 
0

>  <PUBCHEM_ISOTOPIC_ATOM_COUNT>  (1) 
0

>  <PUBCHEM_COMPONENT_COUNT>  (1) 
1

>  <PUBCHEM_CACTVS_TAUTO_COUNT>  (1) 
1

>  <PUBCHEM_CONFORMER_ID>  (1) 
0000A98A00000001

>  <PUBCHEM_MMFF94_ENERGY>  (1) 
37.724

>  <PUBCHEM_FEATURE_SELFOVERLAP>  (1) 
35.674

>  <PUBCHEM_SHAPE_FINGERPRINT>  (1) 
10967382 1 18337958887405649077
12382932 28 18408328782650268817
13140716 1 18049453831263427953
13380535 76 18339074900102590975
14420673 8 18265041437586024466
14614273 12 18334569127438092341
14648413 74 17688592662970059545
16945 1 18336838553897682941
193761 8 18337957770698652655
20510252 161 18198348544497608240
20511035 2 18046644312518912271
20871998 184 18268717275669089911
21501502 16 18340761529533406015
21524375 3 18270673173615854662
2334 1 17833559272662220061
23388829 49 17118034570073298149
23402539 116 18198613518379078207
23419403 2 14667165371518225424
23559900 14 18200324226145199494
23598294 1 18264200482255464808
2748010 2 18118699720608065773
305870 269 18191864526686005032
3071541 236 18260259780931267899
53812653 166 18343024346001587105
5706482 22 18338781352035939472
7364860 26 17909829838390456223
77492 1 17458909361463341956
81228 2 18266186200107768739

>  <PUBCHEM_SHAPE_MULTIPOLES>  (1) 
280.23
4.45
2.78
0.83
2.08
1.4
-0.1
-2.54
-0.66
-0.78
0.02
0.31
-0.12
0.43

>  <PUBCHEM_SHAPE_SELFOVERLAP>  (1) 
612.323

>  <PUBCHEM_SHAPE_VOLUME>  (1) 
151.4

>  <PUBCHEM_COORDINATE_TYPE>  (1) 
2
5
10

$$$$
