43407
     RDKit          3D

 12 12  0  0  0  0  0  0  0  0999 V2000
    2.8742    0.2284   -0.2235 Cl  0  0  0  0  0  0  0  0  0  0  0  0
   -3.3506    0.6535    0.1340 Cl  0  0  0  0  0  0  0  0  0  0  0  0
    1.4262    3.0751    0.1597 Cl  0  0  0  0  0  0  0  0  0  0  0  0
    0.9621   -2.0185   -0.3763 O   0  0  0  0  0  0  0  0  0  0  0  0
   -1.7579   -1.8569   -0.2237 O   0  0  0  0  0  0  0  0  0  0  0  0
    0.3759   -0.7969   -0.2122 C   0  0  0  0  0  0  0  0  0  0  0  0
   -1.0145   -0.7161   -0.1344 C   0  0  0  0  0  0  0  0  0  0  0  0
    1.1478    0.3617   -0.1241 C   0  0  0  0  0  0  0  0  0  0  0  0
   -1.6329    0.5231    0.0316 C   0  0  0  0  0  0  0  0  0  0  0  0
    0.5291    1.6009    0.0419 C   0  0  0  0  0  0  0  0  0  0  0  0
   -0.8612    1.6816    0.1198 C   0  0  0  0  0  0  0  0  0  0  0  0
    1.3018   -2.7358    0.8072 C   0  0  0  0  0  0  0  0  0  0  0  0
  1  8  1  0
  2  9  1  0
  3 10  1  0
  4  6  1  0
  4 12  1  0
  5  7  1  0
  6  7  2  0
  6  8  1  0
  7  9  1  0
  8 10  2  0
  9 11  2  0
 10 11  1  0
M  END
>  <PUBCHEM_COMPOUND_CID>  (1) 
43407

>  <PUBCHEM_CONFORMER_RMSD>  (1) 
0.4

>  <PUBCHEM_CONFORMER_DIVERSEORDER>  (1) 
1
2

>  <PUBCHEM_MMFF94_PARTIAL_CHARGES>  (1) 
14
1 -0.18
10 0.18
11 -0.15
12 0.28
13 0.15
17 0.45
2 -0.18
3 -0.18
4 -0.36
5 -0.53
6 0.08
7 0.08
8 0.18
9 0.18

>  <PUBCHEM_EFFECTIVE_ROTOR_COUNT>  (1) 
1

>  <PUBCHEM_PHARMACOPHORE_FEATURES>  (1) 
3
1 4 acceptor
1 5 donor
6 6 7 8 9 10 11 rings

>  <PUBCHEM_HEAVY_ATOM_COUNT>  (1) 
12

>  <PUBCHEM_ATOM_DEF_STEREO_COUNT>  (1) 
0

>  <PUBCHEM_ATOM_UDEF_STEREO_COUNT>  (1) 
0

>  <PUBCHEM_BOND_DEF_STEREO_COUNT>  (1) 
0

>  <PUBCHEM_BOND_UDEF_STEREO_COUNT>  (1) 
0

>  <PUBCHEM_ISOTOPIC_ATOM_COUNT>  (1) 
0

>  <PUBCHEM_COMPONENT_COUNT>  (1) 
1

>  <PUBCHEM_CACTVS_TAUTO_COUNT>  (1) 
3

>  <PUBCHEM_CONFORMER_ID>  (1) 
0000A98F00000001

>  <PUBCHEM_MMFF94_ENERGY>  (1) 
37.6069

>  <PUBCHEM_FEATURE_SELFOVERLAP>  (1) 
15.223

>  <PUBCHEM_SHAPE_FINGERPRINT>  (1) 
10967382 1 18411139095478736100
12423570 1 11057934727277280574
12524768 44 18128259982390315895
13140716 1 18339361997328843841
16945 1 18410569574373285333
193761 8 17907299110684471740
20588541 1 18336552637713817549
20645476 183 17824562982698290380
20871998 184 16613366476818844108
21501502 16 18124596645774984212
22344851 341 18269270329959787185
2334 1 18051413169147174373
23552423 10 18338231690790570101
23559900 14 18271258209457436972
241688 4 17834960767445511913
2748010 2 18194403531057953285
5084963 1 17914903264271794186
5255222 1 18408598150040559365
528862 383 18263363598955698851
528886 8 18412261757043632064
53812653 166 18342174470599584096
81228 2 17114102166794605561

>  <PUBCHEM_SHAPE_MULTIPOLES>  (1) 
240.83
3.54
3.21
0.7
1.74
0.13
-0.05
0.28
-0.02
-1.68
-0.5
-0.09
-0.12
-0.24

>  <PUBCHEM_SHAPE_SELFOVERLAP>  (1) 
476.464

>  <PUBCHEM_SHAPE_VOLUME>  (1) 
146.9

>  <PUBCHEM_COORDINATE_TYPE>  (1) 
2
5
10

$$$$
