43419
     RDKit          3D

 27 29  0  0  0  0  0  0  0  0999 V2000
    1.0083    1.4640   -1.2322 O   0  0  0  0  0  0  0  0  0  0  0  0
   -1.8794    2.8789    0.0367 O   0  0  0  0  0  0  0  0  0  0  0  0
   -0.6842   -1.6408   -1.3003 O   0  0  0  0  0  0  0  0  0  0  0  0
    5.5277    0.2791   -0.0176 O   0  0  0  0  0  0  0  0  0  0  0  0
   -0.2984   -2.1700    0.9468 O   0  0  0  0  0  0  0  0  0  0  0  0
    4.9416    0.5128    2.2366 O   0  0  0  0  0  0  0  0  0  0  0  0
   -2.9526    0.8239   -0.0907 N   0  0  0  0  0  0  0  0  0  0  0  0
   -3.7584    0.9753    1.1004 C   0  0  0  0  0  0  0  0  0  0  0  0
   -5.0846    1.6744    0.7830 C   0  0  0  0  0  0  0  0  0  0  0  0
   -3.9927   -0.3767    1.7828 C   0  0  0  0  0  0  0  0  0  0  0  0
   -6.0452    0.7790    0.0005 C   0  0  0  0  0  0  0  0  0  0  0  0
   -4.9550   -1.2688    0.9984 C   0  0  0  0  0  0  0  0  0  0  0  0
   -6.2711   -0.5555    0.7046 C   0  0  0  0  0  0  0  0  0  0  0  0
   -2.0722    1.8014   -0.5241 C   0  0  0  0  0  0  0  0  0  0  0  0
   -1.3266    1.4105   -1.7850 C   0  0  0  0  0  0  0  0  0  0  0  0
   -0.0691    0.6790   -1.4062 C   0  0  0  0  0  0  0  0  0  0  0  0
    0.1936   -0.6329   -1.2021 C   0  0  0  0  0  0  0  0  0  0  0  0
    1.5714   -0.6925   -0.8649 C   0  0  0  0  0  0  0  0  0  0  0  0
    2.0258    0.6219   -0.8968 C   0  0  0  0  0  0  0  0  0  0  0  0
    2.4837   -1.7106   -0.5369 C   0  0  0  0  0  0  0  0  0  0  0  0
    3.3382    1.0022   -0.6220 C   0  0  0  0  0  0  0  0  0  0  0  0
    4.2281   -0.0262   -0.2978 C   0  0  0  0  0  0  0  0  0  0  0  0
    3.8111   -1.3591   -0.2559 C   0  0  0  0  0  0  0  0  0  0  0  0
   -0.8702   -2.3854   -0.1136 C   0  0  0  0  0  0  0  0  0  0  0  0
   -1.8671   -3.4859   -0.3260 C   0  0  0  0  0  0  0  0  0  0  0  0
    5.7734    0.5391    1.3393 C   0  0  0  0  0  0  0  0  0  0  0  0
    7.2238    0.8629    1.5431 C   0  0  0  0  0  0  0  0  0  0  0  0
  1 16  1  0
  1 19  1  0
  2 14  2  0
  3 17  1  0
  3 24  1  0
  4 22  1  0
  4 26  1  0
  5 24  2  0
  6 26  2  0
  7  8  1  0
  7 14  1  0
  8  9  1  0
  8 10  1  0
  9 11  1  0
 10 12  1  0
 11 13  1  0
 12 13  1  0
 14 15  1  0
 15 16  1  0
 16 17  2  0
 17 18  1  0
 18 19  2  0
 18 20  1  0
 19 21  1  0
 20 23  2  0
 21 22  2  0
 22 23  1  0
 24 25  1  0
 26 27  1  0
M  END
>  <PUBCHEM_COMPOUND_CID>  (1) 
43419

>  <PUBCHEM_CONFORMER_RMSD>  (1) 
1

>  <PUBCHEM_CONFORMER_DIVERSEORDER>  (1) 
1
32
26
94
45
54
80
64
43
59
31
76
10
89
55
92
49
68
97
16
50
86
37
98
38
19
39
23
41
107
111
40
65
35
96
22
85
91
33
87
81
62
6
109
106
93
99
90
30
12
42
47
105
104
60
61
51
36
82
79
95
28
72
17
18
103
71
69
66
78
75
34
88
101
108
15
25
4
58
70
102
83
14
48
73
44
52
57
11
46
21
27
8
3
67
110
100
13
7
53
63
20
29
74
77
2
84
9
56
5
24

>  <PUBCHEM_MMFF94_PARTIAL_CHARGES>  (1) 
25
1 -0.28
14 0.57
15 0.24
16 -0.04
17 0.06
19 0.14
2 -0.57
20 -0.15
21 -0.15
22 0.08
23 -0.15
24 0.66
25 0.06
26 0.66
27 0.06
3 -0.21
39 0.37
4 -0.23
42 0.15
43 0.15
44 0.15
5 -0.57
6 -0.57
7 -0.73
8 0.3

>  <PUBCHEM_EFFECTIVE_ROTOR_COUNT>  (1) 
9.2

>  <PUBCHEM_PHARMACOPHORE_FEATURES>  (1) 
8
1 1 acceptor
1 2 acceptor
1 5 acceptor
1 6 acceptor
1 7 donor
5 1 16 17 18 19 rings
6 18 19 20 21 22 23 rings
6 8 9 10 11 12 13 rings

>  <PUBCHEM_HEAVY_ATOM_COUNT>  (1) 
27

>  <PUBCHEM_ATOM_DEF_STEREO_COUNT>  (1) 
0

>  <PUBCHEM_ATOM_UDEF_STEREO_COUNT>  (1) 
0

>  <PUBCHEM_BOND_DEF_STEREO_COUNT>  (1) 
0

>  <PUBCHEM_BOND_UDEF_STEREO_COUNT>  (1) 
0

>  <PUBCHEM_ISOTOPIC_ATOM_COUNT>  (1) 
0

>  <PUBCHEM_COMPONENT_COUNT>  (1) 
1

>  <PUBCHEM_CACTVS_TAUTO_COUNT>  (1) 
2

>  <PUBCHEM_CONFORMER_ID>  (1) 
0000A99B00000001

>  <PUBCHEM_MMFF94_ENERGY>  (1) 
47.0559

>  <PUBCHEM_FEATURE_SELFOVERLAP>  (1) 
40.703

>  <PUBCHEM_SHAPE_FINGERPRINT>  (1) 
10 15 18408881863396929200
10074138 170 18267856362260009578
10674148 151 11602808112627308207
10838868 229 18044646500419648082
11135609 201 17560786767693392210
11578080 2 17417240086868475834
12422481 6 18334016060009545162
12596602 18 17418096486151260259
12633257 1 18337389439351416160
12838862 33 18409721851920886069
12930653 34 18194126205320636485
13140716 1 18191873541922553998
13540713 5 17972040507443999468
14787075 74 18060699464214520997
14790565 3 17252045211799039828
14931854 50 10591765325537525371
15183329 4 8214148451413945549
15475509 84 17393630381170843827
17857418 61 16877662353007541592
20028762 73 18341619192138963487
20197701 30 18340773658932844339
21033648 29 18339921506955698284
21637258 2 15285352925461788572
21792961 116 12319455528283953564
22079108 93 18131348600783923012
22224240 67 18343582924142258373
25147074 1 17970351623376984364
2838139 119 15913325784557213936
3027735 51 11458689591519764641
392239 28 18272096010814554505
4098825 35 14620798206461721436
4340502 62 18343586222133744716
474113 269 17023165116420950147
5104073 3 18265891346576872248
5171179 24 17833557795247036247
563151 74 17346594167425016854
58260988 393 16844470258145534763
59755656 520 14692570996554019557

>  <PUBCHEM_SHAPE_MULTIPOLES>  (1) 
515.45
14.88
2.65
1.65
6.34
1.48
-0.37
-4.16
-9.95
-2.06
0.32
0.91
-0.33
0.9

>  <PUBCHEM_SHAPE_SELFOVERLAP>  (1) 
1096.7

>  <PUBCHEM_SHAPE_VOLUME>  (1) 
284

>  <PUBCHEM_COORDINATE_TYPE>  (1) 
2
5
10

$$$$
