43417
     RDKit          3D

 28 30  0  0  0  0  0  0  0  0999 V2000
    1.3496    0.7309    1.8064 O   0  0  0  0  0  0  0  0  0  0  0  0
   -0.1850   -2.2987    0.8183 O   0  0  0  0  0  0  0  0  0  0  0  0
    5.7134    0.5279   -0.2480 O   0  0  0  0  0  0  0  0  0  0  0  0
   -1.6680    2.2464    1.4670 O   0  0  0  0  0  0  0  0  0  0  0  0
   -0.0826   -1.8857   -1.4833 O   0  0  0  0  0  0  0  0  0  0  0  0
   -6.6158   -0.8663   -1.6538 O   0  0  0  0  0  0  0  0  0  0  0  0
    4.8254    1.5682   -2.1478 O   0  0  0  0  0  0  0  0  0  0  0  0
   -2.8084    0.2337    1.0597 N   0  0  0  0  0  0  0  0  0  0  0  0
    1.9480   -1.0512    0.5537 C   0  0  0  0  0  0  0  0  0  0  0  0
    0.3121   -0.1457    1.7838 C   0  0  0  0  0  0  0  0  0  0  0  0
    0.6262   -1.2533    1.0307 C   0  0  0  0  0  0  0  0  0  0  0  0
    2.3478    0.1819    1.0584 C   0  0  0  0  0  0  0  0  0  0  0  0
   -0.8851    0.2521    2.5394 C   0  0  0  0  0  0  0  0  0  0  0  0
    2.8496   -1.7727   -0.2481 C   0  0  0  0  0  0  0  0  0  0  0  0
    3.5953    0.7564    0.8214 C   0  0  0  0  0  0  0  0  0  0  0  0
    4.4759    0.0215    0.0221 C   0  0  0  0  0  0  0  0  0  0  0  0
    4.1120   -1.2204   -0.5047 C   0  0  0  0  0  0  0  0  0  0  0  0
   -1.8375    1.0420    1.6390 C   0  0  0  0  0  0  0  0  0  0  0  0
   -3.8436    0.6275    0.1784 C   0  0  0  0  0  0  0  0  0  0  0  0
   -0.4946   -2.5454   -0.5383 C   0  0  0  0  0  0  0  0  0  0  0  0
   -4.7235   -0.3277   -0.3023 C   0  0  0  0  0  0  0  0  0  0  0  0
   -3.9533    1.9592   -0.1856 C   0  0  0  0  0  0  0  0  0  0  0  0
   -5.7428    0.0600   -1.1722 C   0  0  0  0  0  0  0  0  0  0  0  0
   -4.9723    2.3470   -1.0553 C   0  0  0  0  0  0  0  0  0  0  0  0
   -5.8672    1.3974   -1.5485 C   0  0  0  0  0  0  0  0  0  0  0  0
   -1.4045   -3.7306   -0.6701 C   0  0  0  0  0  0  0  0  0  0  0  0
    5.7663    1.3193   -1.4056 C   0  0  0  0  0  0  0  0  0  0  0  0
    7.1624    1.8263   -1.6147 C   0  0  0  0  0  0  0  0  0  0  0  0
  1 10  1  0
  1 12  1  0
  2 11  1  0
  2 20  1  0
  3 16  1  0
  3 27  1  0
  4 18  2  0
  5 20  2  0
  6 23  1  0
  7 27  2  0
  8 18  1  0
  8 19  1  0
  9 11  1  0
  9 12  2  0
  9 14  1  0
 10 11  2  0
 10 13  1  0
 12 15  1  0
 13 18  1  0
 14 17  2  0
 15 16  2  0
 16 17  1  0
 19 21  2  0
 19 22  1  0
 20 26  1  0
 21 23  1  0
 22 24  2  0
 23 25  2  0
 24 25  1  0
 27 28  1  0
M  END
>  <PUBCHEM_COMPOUND_CID>  (1) 
43417

>  <PUBCHEM_CONFORMER_RMSD>  (1) 
1

>  <PUBCHEM_CONFORMER_DIVERSEORDER>  (1) 
1
45
58
106
144
145
47
27
71
61
79
135
54
136
40
73
119
72
97
87
51
93
66
34
143
150
102
48
16
18
57
89
11
108
43
148
122
4
46
146
29
8
96
85
15
44
76
90
60
25
120
141
55
149
35
31
134
91
104
98
21
70
69
19
100
74
20
7
10
81
56
28
107
140
37
80
38
77
116
95
105
65
118
147
137
155
32
36
75
83
26
62
133
138
99
124
153
123
113
112
14
121
49
24
6
9
130
142
154
126
53
50
109
94
115
59
131
67
68
22
12
114
78
86
13
125
101
52
33
63
110
88
39
84
64
92
111
139
17
23
30
103
127
82
132
42
5
129
41
117
152
3
128
151
2

>  <PUBCHEM_MMFF94_PARTIAL_CHARGES>  (1) 
36
1 -0.28
10 -0.04
11 0.06
12 0.14
13 0.24
14 -0.15
15 -0.15
16 0.08
17 -0.15
18 0.57
19 0.12
2 -0.21
20 0.66
21 -0.15
22 -0.15
23 0.08
24 -0.15
25 -0.15
26 0.06
27 0.66
28 0.06
3 -0.23
31 0.15
32 0.15
33 0.15
34 0.37
35 0.15
36 0.15
37 0.15
38 0.15
4 -0.57
45 0.45
5 -0.57
6 -0.53
7 -0.57
8 -0.55

>  <PUBCHEM_EFFECTIVE_ROTOR_COUNT>  (1) 
8

>  <PUBCHEM_PHARMACOPHORE_FEATURES>  (1) 
9
1 1 acceptor
1 4 acceptor
1 5 acceptor
1 6 donor
1 7 acceptor
1 8 donor
5 1 9 10 11 12 rings
6 19 21 22 23 24 25 rings
6 9 12 14 15 16 17 rings

>  <PUBCHEM_HEAVY_ATOM_COUNT>  (1) 
28

>  <PUBCHEM_ATOM_DEF_STEREO_COUNT>  (1) 
0

>  <PUBCHEM_ATOM_UDEF_STEREO_COUNT>  (1) 
0

>  <PUBCHEM_BOND_DEF_STEREO_COUNT>  (1) 
0

>  <PUBCHEM_BOND_UDEF_STEREO_COUNT>  (1) 
0

>  <PUBCHEM_ISOTOPIC_ATOM_COUNT>  (1) 
0

>  <PUBCHEM_COMPONENT_COUNT>  (1) 
1

>  <PUBCHEM_CACTVS_TAUTO_COUNT>  (1) 
13

>  <PUBCHEM_CONFORMER_ID>  (1) 
0000A99900000001

>  <PUBCHEM_MMFF94_ENERGY>  (1) 
71.0638

>  <PUBCHEM_FEATURE_SELFOVERLAP>  (1) 
45.775

>  <PUBCHEM_SHAPE_FINGERPRINT>  (1) 
10674148 151 16200439048352610771
10928967 22 15338539541176152661
11135609 12 10665216043958147256
11513181 2 18053967068919263004
11763715 3 13254534097289038426
11796584 16 13254253601290576776
11961588 58 18186518817089488730
12633257 1 13551482483176579838
12717326 150 14258860869903538236
13103583 49 9583513231185788217
13257819 37 18343303690680001911
13383661 66 15338846424978835854
13540713 4 17557977626826715258
13690498 29 17842280551591902470
13782708 43 13398625030877561852
13911987 19 18413394228535306777
14251764 30 13398626147663854757
14767858 380 18202004330428687728
14930077 153 18046634670079826388
14931854 50 17917988356808449159
14951699 99 14780131769452934006
15575132 122 18261949661868838349
173720 79 18339061723623261178
17492 54 18343582936478534331
19958102 18 17988653969389655734
20511986 3 14924212838303237153
20775438 99 17057489764626131422
21344244 181 16486972942202506183
21475661 188 16733276732737918828
21792965 215 15938134117625283545
22393880 68 18058432237210455617
24180151 46 11386353855616305796
27425 322 17463978952361702753
2838139 119 17603864447146752581
312425 54 10879982575858042133
33382 64 13326857721226596764
3472631 163 17458621147957477733
3737641 26 13254529616836606724
392239 28 14634867604294650486
437795 70 17559659828225661999
58260988 114 11167402582122939236
6669772 16 17344881196299892826
7237137 82 18199760308985729606
7970288 3 14620495853622734637
999808 66 12679188185030221404

>  <PUBCHEM_SHAPE_MULTIPOLES>  (1) 
530.16
15.5
2.89
2.07
1.88
1.72
-0.48
-10.91
12.01
-0.63
1.22
-0.05
-0.59
-1.41

>  <PUBCHEM_SHAPE_SELFOVERLAP>  (1) 
1152.452

>  <PUBCHEM_SHAPE_VOLUME>  (1) 
286.5

>  <PUBCHEM_COORDINATE_TYPE>  (1) 
2
5
10

$$$$
