43410
     RDKit          3D

 17 17  0  0  1  0  0  0  0  0999 V2000
    4.7757    1.8112   -0.0657 Cl  0  0  0  0  0  0  0  0  0  0  0  0
   -1.5959    0.3152    0.5206 O   0  0  0  0  0  0  0  0  0  0  0  0
   -2.1527   -0.9491   -1.3209 O   0  0  0  0  0  0  0  0  0  0  0  0
   -0.0740   -2.6311   -0.9628 N   0  0  0  0  0  0  0  0  0  0  0  0
   -0.1965   -1.5496    0.0327 C   0  0  0  0  0  0  0  0  0  0  0  0
   -2.7221    1.1626    0.2727 C   0  0  0  0  0  0  0  0  0  0  0  0
    1.0711   -0.6919    0.0082 C   0  0  0  0  0  0  0  0  0  0  0  0
   -1.4246   -0.7162   -0.3632 C   0  0  0  0  0  0  0  0  0  0  0  0
   -0.5195   -2.2157    1.3841 C   0  0  0  0  0  0  0  0  0  0  0  0
   -3.9914    0.3141    0.3316 C   0  0  0  0  0  0  0  0  0  0  0  0
   -2.7405    2.2333    1.3617 C   0  0  0  0  0  0  0  0  0  0  0  0
   -2.5567    1.8009   -1.1056 C   0  0  0  0  0  0  0  0  0  0  0  0
    1.1375    0.3595   -0.8763 C   0  0  0  0  0  0  0  0  0  0  0  0
    2.0955   -1.0063    0.8712 C   0  0  0  0  0  0  0  0  0  0  0  0
    2.2931    1.1404   -0.8995 C   0  0  0  0  0  0  0  0  0  0  0  0
    3.2510   -0.2254    0.8483 C   0  0  0  0  0  0  0  0  0  0  0  0
    3.3499    0.8481   -0.0371 C   0  0  0  0  0  0  0  0  0  0  0  0
  1 17  1  0
  2  6  1  0
  2  8  1  0
  3  8  2  0
  4  5  1  0
  5  7  1  0
  5  8  1  0
  5  9  1  0
  6 10  1  0
  6 11  1  0
  6 12  1  0
  7 13  2  0
  7 14  1  0
 13 15  1  0
 14 16  2  0
 15 17  2  0
 16 17  1  0
M  END
>  <PUBCHEM_COMPOUND_CID>  (1) 
43410

>  <PUBCHEM_CONFORMER_RMSD>  (1) 
0.6

>  <PUBCHEM_CONFORMER_DIVERSEORDER>  (1) 
1
55
53
40
61
48
64
37
63
34
26
68
42
32
28
57
12
67
46
35
20
54
66
49
24
4
29
58
59
7
65
51
36
10
31
45
43
62
3
38
14
52
23
17
25
44
18
19
27
60
47
41
39
8
2
9
5
33
56
22
30
21
50
11
16
13
15
6

>  <PUBCHEM_MMFF94_PARTIAL_CHARGES>  (1) 
19
1 -0.18
13 -0.15
14 -0.15
15 -0.15
16 -0.15
17 0.18
2 -0.43
3 -0.57
30 0.36
31 0.36
32 0.15
33 0.15
34 0.15
35 0.15
4 -0.99
5 0.47
6 0.28
7 -0.14
8 0.66

>  <PUBCHEM_EFFECTIVE_ROTOR_COUNT>  (1) 
4

>  <PUBCHEM_PHARMACOPHORE_FEATURES>  (1) 
5
1 3 acceptor
1 4 cation
1 4 donor
4 6 10 11 12 hydrophobe
6 7 13 14 15 16 17 rings

>  <PUBCHEM_HEAVY_ATOM_COUNT>  (1) 
17

>  <PUBCHEM_ATOM_DEF_STEREO_COUNT>  (1) 
0

>  <PUBCHEM_ATOM_UDEF_STEREO_COUNT>  (1) 
1

>  <PUBCHEM_BOND_DEF_STEREO_COUNT>  (1) 
0

>  <PUBCHEM_BOND_UDEF_STEREO_COUNT>  (1) 
0

>  <PUBCHEM_ISOTOPIC_ATOM_COUNT>  (1) 
0

>  <PUBCHEM_COMPONENT_COUNT>  (1) 
1

>  <PUBCHEM_CACTVS_TAUTO_COUNT>  (1) 
1

>  <PUBCHEM_CONFORMER_ID>  (1) 
0000A99200000001

>  <PUBCHEM_MMFF94_ENERGY>  (1) 
50.4935

>  <PUBCHEM_FEATURE_SELFOVERLAP>  (1) 
25.371

>  <PUBCHEM_SHAPE_FINGERPRINT>  (1) 
10465860 228 18126010360040419777
10618630 7 8718827583040260064
11471102 22 17240768324180339896
11640471 11 18270673152304724017
11769659 78 9079117756721955480
12251169 10 17748829648020990148
12491281 212 18412543236631743258
12633257 1 15213028128212466429
12788726 201 18122050172724745810
12892183 10 16877661227731358864
13764800 53 18337121171024523163
14739800 52 17985524871293664360
14787075 74 18337673126605471667
15209294 21 18262509416577652432
15309172 13 18114176419549061414
15534591 1 18412546539266486374
15775835 57 18410573985156998785
15906896 17 18337393871436425435
16945 1 18199737218983076998
1741750 31 18340771528591616280
18186145 218 18269841925824786892
19107657 9 18271249322025239584
19862831 5 12103846747994731108
20361792 2 9655283822449704121
20510252 161 18266180710833668034
20645477 56 18271532017294609152
20671657 1 18196381320463841750
21524375 3 18409731750712863843
21713013 43 13901893514860920837
21731228 192 18261117356708291035
22094290 62 18334854962022814522
23402539 116 18199461258828764527
23419403 2 15889053803233172225
23557571 272 17631173172032733030
23559900 14 17988926687460701848
305870 269 18188486865583428506
4340502 62 17968104080255593393
474 4 18337110051517639529
568465 68 14996001051623393472
5939293 188 17041197935892313105
6333272 397 18333455326543676275
633830 44 18129668473933802093
7364860 26 17912366429069872775
81228 2 18048607202556643723

>  <PUBCHEM_SHAPE_MULTIPOLES>  (1) 
335
6.96
2.49
1.24
3.3
0.52
-0.05
-5.18
-0.83
-0.49
-0.18
-0.48
0.04
-0.66

>  <PUBCHEM_SHAPE_SELFOVERLAP>  (1) 
684.393

>  <PUBCHEM_SHAPE_VOLUME>  (1) 
197.2

>  <PUBCHEM_COORDINATE_TYPE>  (1) 
2
5
10

$$$$
