43420
     RDKit          3D

 19 21  0  0  0  0  0  0  0  0999 V2000
   -0.8291    1.5699   -0.1882 O   0  0  0  0  0  0  0  0  0  0  0  0
    4.0122   -3.0481    0.0581 O   0  0  0  0  0  0  0  0  0  0  0  0
    3.2263   -1.5929   -1.4972 O   0  0  0  0  0  0  0  0  0  0  0  0
   -0.0267   -0.4701    0.3876 N   0  0  0  0  0  0  0  0  0  0  0  0
    1.0141    0.4217    0.2916 C   0  0  0  0  0  0  0  0  0  0  0  0
    2.3938    0.2620    0.4843 C   0  0  0  0  0  0  0  0  0  0  0  0
    0.5267    1.6715   -0.0610 C   0  0  0  0  0  0  0  0  0  0  0  0
   -1.0799    0.2610    0.0953 C   0  0  0  0  0  0  0  0  0  0  0  0
    3.0109   -1.0431    0.8653 C   0  0  0  0  0  0  0  0  0  0  0  0
    3.2177    1.3834    0.3094 C   0  0  0  0  0  0  0  0  0  0  0  0
    1.3103    2.8044   -0.2433 C   0  0  0  0  0  0  0  0  0  0  0  0
   -2.4639   -0.1205    0.0354 C   0  0  0  0  0  0  0  0  0  0  0  0
    2.6842    2.6280   -0.0472 C   0  0  0  0  0  0  0  0  0  0  0  0
   -3.4407    0.8231   -0.2949 C   0  0  0  0  0  0  0  0  0  0  0  0
   -2.8417   -1.4382    0.3085 C   0  0  0  0  0  0  0  0  0  0  0  0
    3.4113   -1.8908   -0.3252 C   0  0  0  0  0  0  0  0  0  0  0  0
   -4.7842    0.4522   -0.3517 C   0  0  0  0  0  0  0  0  0  0  0  0
   -4.1851   -1.8093    0.2515 C   0  0  0  0  0  0  0  0  0  0  0  0
   -5.1563   -0.8640   -0.0784 C   0  0  0  0  0  0  0  0  0  0  0  0
  1  7  1  0
  1  8  1  0
  2 16  1  0
  3 16  2  0
  4  5  1  0
  4  8  2  0
  5  6  1  0
  5  7  2  0
  6  9  1  0
  6 10  2  0
  7 11  1  0
  8 12  1  0
  9 16  1  0
 10 13  1  0
 11 13  2  0
 12 14  2  0
 12 15  1  0
 14 17  1  0
 15 18  2  0
 17 19  2  0
 18 19  1  0
M  END
>  <PUBCHEM_COMPOUND_CID>  (1) 
43420

>  <PUBCHEM_CONFORMER_RMSD>  (1) 
0.6

>  <PUBCHEM_CONFORMER_DIVERSEORDER>  (1) 
1
4
6
2
3
5

>  <PUBCHEM_MMFF94_PARTIAL_CHARGES>  (1) 
28
1 -0.28
10 -0.15
11 -0.15
12 0.05
13 -0.15
14 -0.15
15 -0.15
16 0.66
17 -0.15
18 -0.15
19 -0.15
2 -0.65
22 0.15
23 0.15
24 0.15
25 0.15
26 0.15
27 0.15
28 0.15
29 0.15
3 -0.57
30 0.5
4 -0.57
5 0.23
6 -0.14
7 0.14
8 0.43
9 0.2

>  <PUBCHEM_EFFECTIVE_ROTOR_COUNT>  (1) 
3

>  <PUBCHEM_PHARMACOPHORE_FEATURES>  (1) 
6
1 2 acceptor
1 3 acceptor
3 2 3 16 anion
5 1 4 5 7 8 rings
6 12 14 15 17 18 19 rings
6 5 6 7 10 11 13 rings

>  <PUBCHEM_HEAVY_ATOM_COUNT>  (1) 
19

>  <PUBCHEM_ATOM_DEF_STEREO_COUNT>  (1) 
0

>  <PUBCHEM_ATOM_UDEF_STEREO_COUNT>  (1) 
0

>  <PUBCHEM_BOND_DEF_STEREO_COUNT>  (1) 
0

>  <PUBCHEM_BOND_UDEF_STEREO_COUNT>  (1) 
0

>  <PUBCHEM_ISOTOPIC_ATOM_COUNT>  (1) 
0

>  <PUBCHEM_COMPONENT_COUNT>  (1) 
1

>  <PUBCHEM_CACTVS_TAUTO_COUNT>  (1) 
1

>  <PUBCHEM_CONFORMER_ID>  (1) 
0000A99C00000001

>  <PUBCHEM_MMFF94_ENERGY>  (1) 
37.4251

>  <PUBCHEM_FEATURE_SELFOVERLAP>  (1) 
30.622

>  <PUBCHEM_SHAPE_FINGERPRINT>  (1) 
10616163 171 18051413169279283607
10906281 52 18115600360697021240
11405975 8 18412830170765049441
116883 192 18339923697399354372
12107183 9 18125729989519417545
12363563 72 18338522924117931298
12553582 1 18191304871041429250
12841375 25 18338516344433378854
13134695 92 17917416636321449337
13140716 1 18198058076028535712
13296908 3 18408601474471580563
13533116 47 18272088336029548291
13583140 156 17488169594945291433
13955234 65 18270119140236235928
14252887 29 18411978070469864304
14790565 3 17042328233935746896
14866123 147 17620757185008356665
15196674 1 18336261327894826361
15352361 1 18339079268380132754
15442244 35 18411419475529333073
15536298 74 18410008870835310097
15848702 151 18410290315894832181
17492 89 18338797926716447299
17818456 19 17845101679606404873
18186145 218 17749100102343584891
20374829 77 18336262328037150650
20645477 70 18337104661428745259
20671657 53 18338519642419610096
20871998 22 18411132498915514648
21065198 57 18409729590945486265
21267235 1 18335425715815657729
221490 88 18335145335850132651
2215653 11 18410849937486119287
23557571 272 17458333161061299541
23559900 14 18411131437636469577
29717793 49 18342729733489746287
3004659 81 17968661497896316554
312423 11 18270697419117957281
314173 41 18336830792723337682
335352 9 18265612083592844981
33824 294 18338515365027919696
3421961 26 18412540994764452746
3545911 37 18263924500616155177
4214541 1 18335415799121552793
4463277 69 18060140894943060686
5104073 3 18336263526913074401
5207 123 18269835328791982671
5281201 14 18334574659561658773
633830 44 17894622682704435369
6443956 14 18409731720711214454
7364860 26 18340487871766543208
77779 3 18335699498827837417
8272917 22 18339082699736820261
8863177 126 17896336847097350195
9709674 26 18262520424214809411

>  <PUBCHEM_SHAPE_MULTIPOLES>  (1) 
368.42
9.57
2.92
0.79
8.82
0.22
-0.1
4.37
-0.52
-3.74
-0.3
-0.41
0.21
0.61

>  <PUBCHEM_SHAPE_SELFOVERLAP>  (1) 
818.183

>  <PUBCHEM_SHAPE_VOLUME>  (1) 
198.2

>  <PUBCHEM_COORDINATE_TYPE>  (1) 
2
5
10

$$$$
