43430
     RDKit          3D

 29 30  0  0  0  0  0  0  0  0999 V2000
    6.9999   -0.6872   -1.6435 Cl  0  0  0  0  0  0  0  0  0  0  0  0
   -3.4281   -0.7180    0.6188 O   0  0  0  0  0  0  0  0  0  0  0  0
    2.0968    0.7436    1.2829 O   0  0  0  0  0  0  0  0  0  0  0  0
   -2.3891   -4.0518    0.4821 O   0  0  0  0  0  0  0  0  0  0  0  0
   -1.4720   -2.2685    1.3856 O   0  0  0  0  0  0  0  0  0  0  0  0
   -4.0762    2.1731   -0.7784 N   0  0  0  0  0  0  0  0  0  0  0  0
   -2.4136   -2.8122    0.7371 N   0  0  0  0  0  0  0  0  0  0  0  0
   -2.6334    1.8697   -0.9256 C   0  0  0  0  0  0  0  0  0  0  0  0
   -4.7016    1.3297    0.3423 C   0  0  0  0  0  0  0  0  0  0  0  0
   -1.8745    2.2301    0.3456 C   0  0  0  0  0  0  0  0  0  0  0  0
   -4.2919    3.6544   -0.4348 C   0  0  0  0  0  0  0  0  0  0  0  0
   -4.8343    1.8718   -2.0795 C   0  0  0  0  0  0  0  0  0  0  0  0
   -0.3742    1.9319    0.2655 C   0  0  0  0  0  0  0  0  0  0  0  0
   -4.5495   -0.1428    0.1105 C   0  0  0  0  0  0  0  0  0  0  0  0
    0.3479    2.3845    1.5390 C   0  0  0  0  0  0  0  0  0  0  0  0
    1.8488    2.1292    1.4724 C   0  0  0  0  0  0  0  0  0  0  0  0
   -5.3254   -1.0803   -0.5304 C   0  0  0  0  0  0  0  0  0  0  0  0
   -4.6363   -2.3105   -0.4083 C   0  0  0  0  0  0  0  0  0  0  0  0
   -3.4886   -2.0370    0.2987 C   0  0  0  0  0  0  0  0  0  0  0  0
    3.2368    0.4064    0.5999 C   0  0  0  0  0  0  0  0  0  0  0  0
    3.2913   -0.7586   -0.1652 C   0  0  0  0  0  0  0  0  0  0  0  0
    2.1091   -1.6660   -0.2580 C   0  0  0  0  0  0  0  0  0  0  0  0
    4.3499    1.2439    0.6762 C   0  0  0  0  0  0  0  0  0  0  0  0
    4.4591   -1.0866   -0.8540 C   0  0  0  0  0  0  0  0  0  0  0  0
    2.3980   -3.0669    0.3123 C   0  0  0  0  0  0  0  0  0  0  0  0
    1.5726   -1.7864   -1.6962 C   0  0  0  0  0  0  0  0  0  0  0  0
    5.5177    0.9156   -0.0124 C   0  0  0  0  0  0  0  0  0  0  0  0
    5.5723   -0.2497   -0.7775 C   0  0  0  0  0  0  0  0  0  0  0  0
    6.6885    1.8385    0.0949 C   0  0  0  0  0  0  0  0  0  0  0  0
  1 28  1  0
  2 14  1  0
  2 19  1  0
  3 16  1  0
  3 20  1  0
  4  7  1  0
  5  7  2  0
  6  8  1  0
  6  9  1  0
  6 11  1  0
  6 12  1  0
  7 19  1  0
  8 10  1  0
  9 14  1  0
 10 13  1  0
 13 15  1  0
 14 17  2  0
 15 16  1  0
 17 18  1  0
 18 19  2  0
 20 21  2  0
 20 23  1  0
 21 22  1  0
 21 24  1  0
 22 25  1  0
 22 26  1  0
 23 27  2  0
 24 28  2  0
 27 28  1  0
 27 29  1  0
M  CHG  3   4  -1   6   1   7   1
M  END
>  <PUBCHEM_COMPOUND_CID>  (1) 
43430

>  <PUBCHEM_CONFORMER_RMSD>  (1) 
1.6

>  <PUBCHEM_CONFORMER_DIVERSEORDER>  (1) 
1
68
33
51
3
34
58
38
43
24
9
27
25
60
69
15
46
12
70
6
7
14
37
71
10
49
39
5
52
42
35
11
40
54
30
72
61
2
13
19
66
63
65
64
16
53
21
29
62
73
32
26
74
45
44
55
67
41
59
57
8
18
20
23
17
36
48
22
4
56
31
47
28
50

>  <PUBCHEM_MMFF94_PARTIAL_CHARGES>  (1) 
28
1 -0.18
11 0.5
12 0.5
14 -0.04
16 0.28
17 -0.15
18 -0.15
19 0.22
2 -0.28
20 0.08
21 -0.14
22 0.14
23 -0.15
24 -0.15
27 -0.14
28 0.18
29 0.14
3 -0.36
4 -0.52
48 0.15
49 0.15
5 -0.52
51 0.15
52 0.15
6 -1.01
7 0.96
8 0.5
9 0.68

>  <PUBCHEM_EFFECTIVE_ROTOR_COUNT>  (1) 
11

>  <PUBCHEM_PHARMACOPHORE_FEATURES>  (1) 
9
1 2 acceptor
1 3 acceptor
1 4 acceptor
1 4 anion
1 5 acceptor
1 6 cation
3 22 25 26 hydrophobe
5 2 14 17 18 19 rings
6 20 21 23 24 27 28 rings

>  <PUBCHEM_HEAVY_ATOM_COUNT>  (1) 
29

>  <PUBCHEM_ATOM_DEF_STEREO_COUNT>  (1) 
0

>  <PUBCHEM_ATOM_UDEF_STEREO_COUNT>  (1) 
0

>  <PUBCHEM_BOND_DEF_STEREO_COUNT>  (1) 
0

>  <PUBCHEM_BOND_UDEF_STEREO_COUNT>  (1) 
0

>  <PUBCHEM_ISOTOPIC_ATOM_COUNT>  (1) 
0

>  <PUBCHEM_COMPONENT_COUNT>  (1) 
1

>  <PUBCHEM_CACTVS_TAUTO_COUNT>  (1) 
1

>  <PUBCHEM_CONFORMER_ID>  (1) 
0000A9A600000001

>  <PUBCHEM_MMFF94_ENERGY>  (1) 
76.199

>  <PUBCHEM_FEATURE_SELFOVERLAP>  (1) 
45.762

>  <PUBCHEM_SHAPE_FINGERPRINT>  (1) 
10675989 125 17615964409602669337
11488393 25 16915680094211425470
12422481 6 8430310242948739200
12596602 18 14261053403020288840
12788726 201 17486771878937356864
13402501 40 18342459270107861003
13617811 41 18040714745833484629
14251757 17 18341045234051545153
14251757 5 18408044034966513939
14279260 333 18127974114543549534
14461889 52 18200866375430029736
14617045 38 18410578379414652691
14765038 42 18200050451433128785
14931854 50 18410284801251990839
15361156 5 18340205314590001453
16067689 391 17485393092058032070
17627616 140 18262234392104056083
17852330 162 18268446762926214052
20764821 26 18266446612644085435
21279426 13 18341054038866760174
22393880 68 18412544297594205946
23559900 14 18340758334463457561
4073 2 18413107234457594616
4435113 14 17988376900611268196
484989 97 18272379689773807470
508706 21 18410006680476049971
5283173 99 18408887321656511288

>  <PUBCHEM_SHAPE_MULTIPOLES>  (1) 
565.24
16.15
4.28
1.42
11.41
1.35
0.32
-2.29
5.7
-4.6
-0.64
0.1
-0.27
2.57

>  <PUBCHEM_SHAPE_SELFOVERLAP>  (1) 
1150.023

>  <PUBCHEM_SHAPE_VOLUME>  (1) 
333.6

>  <PUBCHEM_COORDINATE_TYPE>  (1) 
2
5
10

$$$$
