43436
     RDKit          3D

 28 29  0  0  0  0  0  0  0  0999 V2000
    4.2375   -1.8544   -2.3729 Br  0  0  0  0  0  0  0  0  0  0  0  0
    1.4956    0.1586    2.2539 Br  0  0  0  0  0  0  0  0  0  0  0  0
    6.7929    1.8302    1.1020 Br  0  0  0  0  0  0  0  0  0  0  0  0
   -2.5357    1.6602   -0.9158 O   0  0  0  0  0  0  0  0  0  0  0  0
    1.9376   -1.4831   -0.3338 O   0  0  0  0  0  0  0  0  0  0  0  0
    0.4697    3.4438   -0.8946 O   0  0  0  0  0  0  0  0  0  0  0  0
   -0.3755    2.0165   -2.3391 O   0  0  0  0  0  0  0  0  0  0  0  0
   -4.5406   -0.6500    0.2562 N   0  0  0  0  0  0  0  0  0  0  0  0
   -0.4606    2.6644   -1.2548 N   0  0  0  0  0  0  0  0  0  0  0  0
   -3.3154   -1.2892   -0.2783 C   0  0  0  0  0  0  0  0  0  0  0  0
   -4.7097    0.7680   -0.3086 C   0  0  0  0  0  0  0  0  0  0  0  0
   -3.1853   -2.7180    0.2347 C   0  0  0  0  0  0  0  0  0  0  0  0
   -4.4809   -0.5475    1.7874 C   0  0  0  0  0  0  0  0  0  0  0  0
   -5.7894   -1.4621   -0.1173 C   0  0  0  0  0  0  0  0  0  0  0  0
   -1.9314   -3.4356   -0.2731 C   0  0  0  0  0  0  0  0  0  0  0  0
   -0.6584   -2.7449    0.2230 C   0  0  0  0  0  0  0  0  0  0  0  0
   -3.5416    1.6551   -0.0022 C   0  0  0  0  0  0  0  0  0  0  0  0
    0.5958   -3.4850   -0.2508 C   0  0  0  0  0  0  0  0  0  0  0  0
   -3.2492    2.4996    1.0433 C   0  0  0  0  0  0  0  0  0  0  0  0
    1.8772   -2.7966    0.2032 C   0  0  0  0  0  0  0  0  0  0  0  0
   -1.9821    3.0595    0.7534 C   0  0  0  0  0  0  0  0  0  0  0  0
   -1.5905    2.5173   -0.4485 C   0  0  0  0  0  0  0  0  0  0  0  0
    3.0374   -0.7315   -0.0091 C   0  0  0  0  0  0  0  0  0  0  0  0
    4.1739   -0.7731   -0.8166 C   0  0  0  0  0  0  0  0  0  0  0  0
    3.0201    0.0739    1.1296 C   0  0  0  0  0  0  0  0  0  0  0  0
    5.2933   -0.0095   -0.4854 C   0  0  0  0  0  0  0  0  0  0  0  0
    4.1393    0.8375    1.4608 C   0  0  0  0  0  0  0  0  0  0  0  0
    5.2759    0.7958    0.6533 C   0  0  0  0  0  0  0  0  0  0  0  0
  1 24  1  0
  2 25  1  0
  3 28  1  0
  4 17  1  0
  4 22  1  0
  5 20  1  0
  5 23  1  0
  6  9  1  0
  7  9  2  0
  8 10  1  0
  8 11  1  0
  8 13  1  0
  8 14  1  0
  9 22  1  0
 10 12  1  0
 11 17  1  0
 12 15  1  0
 15 16  1  0
 16 18  1  0
 17 19  2  0
 18 20  1  0
 19 21  1  0
 21 22  2  0
 23 24  2  0
 23 25  1  0
 24 26  1  0
 25 27  2  0
 26 28  2  0
 27 28  1  0
M  CHG  3   6  -1   8   1   9   1
M  END
>  <PUBCHEM_COMPOUND_CID>  (1) 
43436

>  <PUBCHEM_CONFORMER_RMSD>  (1) 
1.4

>  <PUBCHEM_CONFORMER_DIVERSEORDER>  (1) 
1
10
28
42
76
120
9
75
38
14
48
116
100
15
63
11
37
58
104
84
41
109
4
131
67
79
118
57
119
107
53
114
123
126
25
39
90
26
29
117
105
89
20
50
69
77
44
86
2
127
97
43
129
85
7
54
106
99
74
36
82
33
70
62
130
6
98
128
73
65
24
71
88
5
94
21
30
59
132
18
125
51
87
61
110
49
60
17
115
121
64
19
27
113
72
3
45
32
13
31
66
96
102
12
122
55
68
95
16
91
81
112
8
40
124
52
47
35
103
56
22
101
23
80
108
93
83
46
111
92
34
78

>  <PUBCHEM_MMFF94_PARTIAL_CHARGES>  (1) 
28
1 -0.11
10 0.5
11 0.68
13 0.5
14 0.5
17 -0.04
19 -0.15
2 -0.11
20 0.28
21 -0.15
22 0.22
23 0.08
24 0.11
25 0.11
26 -0.15
27 -0.15
28 0.11
3 -0.11
4 -0.28
47 0.15
5 -0.36
50 0.15
51 0.15
52 0.15
6 -0.52
7 -0.52
8 -1.01
9 0.96

>  <PUBCHEM_EFFECTIVE_ROTOR_COUNT>  (1) 
11

>  <PUBCHEM_PHARMACOPHORE_FEATURES>  (1) 
12
1 1 hydrophobe
1 2 hydrophobe
1 3 hydrophobe
1 4 acceptor
1 5 acceptor
1 6 acceptor
1 6 anion
1 7 acceptor
1 8 cation
4 12 15 16 18 hydrophobe
5 4 17 19 21 22 rings
6 23 24 25 26 27 28 rings

>  <PUBCHEM_HEAVY_ATOM_COUNT>  (1) 
28

>  <PUBCHEM_ATOM_DEF_STEREO_COUNT>  (1) 
0

>  <PUBCHEM_ATOM_UDEF_STEREO_COUNT>  (1) 
0

>  <PUBCHEM_BOND_DEF_STEREO_COUNT>  (1) 
0

>  <PUBCHEM_BOND_UDEF_STEREO_COUNT>  (1) 
0

>  <PUBCHEM_ISOTOPIC_ATOM_COUNT>  (1) 
0

>  <PUBCHEM_COMPONENT_COUNT>  (1) 
1

>  <PUBCHEM_CACTVS_TAUTO_COUNT>  (1) 
1

>  <PUBCHEM_CONFORMER_ID>  (1) 
0000A9AC00000001

>  <PUBCHEM_MMFF94_ENERGY>  (1) 
68.8857

>  <PUBCHEM_FEATURE_SELFOVERLAP>  (1) 
60.988

>  <PUBCHEM_SHAPE_FINGERPRINT>  (1) 
10006869 2 18265319639127677119
10498660 4 18335135333039975191
10670039 82 18261689073128359566
10864689 126 18266742372756070428
11014199 57 17834957846863086235
11059048 146 17697044630206388833
11135609 187 18192135016091960597
11513181 2 17984709080234871638
11595378 159 17968085409226012850
12596602 18 16877947186638193330
13402501 40 18271804652748732955
13561361 72 18409725184219421784
13947920 24 18271524286158207536
14251757 17 18060425668708173882
14840074 17 18334867138276074433
15001296 14 18043822098019485157
15629462 23 13408721812723611566
15721738 15 17036949457380926364
15975801 100 17749956527913548068
17627616 140 17469611062370504909
17977149 70 18339931424472553874
18336668 15 18042400391104189853
20764821 26 18123735475031057723
20765182 5 18337951293676538508
21315764 371 18340495469447755892
21795232 40 18188751955724330917
21796203 349 17827958235686978313
23536364 44 17627815027794793486
3052486 1 18333453144895566046
339767 52 18040713667078761285
3524813 1 18201715163150135291
392239 28 18342457070857823753
469060 322 17240481403280102343
474144 1 17750812127457086261
50150288 127 16055214379792502507
552612 73 17841982588931854048
6442390 28 18411698760468134286

>  <PUBCHEM_SHAPE_MULTIPOLES>  (1) 
560.61
13.51
4.58
1.77
7.02
0.58
0.28
-2.12
-1.94
-2.4
0.87
1.31
-0.44
2.07

>  <PUBCHEM_SHAPE_SELFOVERLAP>  (1) 
1108.64

>  <PUBCHEM_SHAPE_VOLUME>  (1) 
343.9

>  <PUBCHEM_COORDINATE_TYPE>  (1) 
2
5
10

$$$$
