43450
     RDKit          3D

 18 18  0  0  0  0  0  0  0  0999 V2000
    1.3566    1.2185    0.5254 O   0  0  0  0  0  0  0  0  0  0  0  0
    2.5522    0.6922   -1.3632 O   0  0  0  0  0  0  0  0  0  0  0  0
   -1.7947    0.7732   -0.6130 N   0  0  0  0  0  0  0  0  0  0  0  0
    3.5306    0.6945    0.7412 N   0  0  0  0  0  0  0  0  0  0  0  0
   -2.6663   -0.2352   -0.0035 C   0  0  0  0  0  0  0  0  0  0  0  0
    0.1794    1.4194   -0.2829 C   0  0  0  0  0  0  0  0  0  0  0  0
   -0.4693    0.1693   -0.8939 C   0  0  0  0  0  0  0  0  0  0  0  0
   -1.1564    1.5784    0.4570 C   0  0  0  0  0  0  0  0  0  0  0  0
   -3.7944    0.4443    0.8213 C   0  0  0  0  0  0  0  0  0  0  0  0
   -3.3301   -1.0743   -1.1303 C   0  0  0  0  0  0  0  0  0  0  0  0
   -1.8643   -1.1208    0.8708 C   0  0  0  0  0  0  0  0  0  0  0  0
   -4.6755    1.4303    0.0568 C   0  0  0  0  0  0  0  0  0  0  0  0
   -4.2378   -2.2083   -0.6554 C   0  0  0  0  0  0  0  0  0  0  0  0
    2.4891    0.8525   -0.1489 C   0  0  0  0  0  0  0  0  0  0  0  0
   -1.2152   -1.8398    1.5811 C   0  0  0  0  0  0  0  0  0  0  0  0
    4.8676    0.3103    0.3510 C   0  0  0  0  0  0  0  0  0  0  0  0
    4.9755   -1.1780    0.3800 C   0  0  0  0  0  0  0  0  0  0  0  0
    5.2530   -1.9265   -0.6936 C   0  0  0  0  0  0  0  0  0  0  0  0
  1  6  1  0
  1 14  1  0
  2 14  2  0
  3  5  1  0
  3  7  1  0
  3  8  1  0
  4 14  1  0
  4 16  1  0
  5  9  1  0
  5 10  1  0
  5 11  1  0
  6  7  1  0
  6  8  1  0
  9 12  1  0
 10 13  1  0
 11 15  3  0
 16 17  1  0
 17 18  2  0
M  END
>  <PUBCHEM_COMPOUND_CID>  (1) 
43450

>  <PUBCHEM_CONFORMER_RMSD>  (1) 
0.8

>  <PUBCHEM_CONFORMER_DIVERSEORDER>  (1) 
2
23
54
29
58
27
21
50
64
59
19
18
52
17
67
25
49
33
61
51
41
31
12
43
56
28
30
57
39
47
53
63
22
44
32
34
65
35
13
9
62
48
14
24
42
36
60
3
15
55
16
10
45
1
38
6
46
20
40
8
66
37
4
7
11
26
5

>  <PUBCHEM_MMFF94_PARTIAL_CHARGES>  (1) 
19
1 -0.41
11 -0.2
14 0.78
15 -0.18
16 0.44
17 -0.29
18 -0.3
2 -0.57
3 -0.69
34 0.18
35 0.37
38 0.15
39 0.15
4 -0.73
40 0.15
5 0.47
6 0.26
7 0.21
8 0.21

>  <PUBCHEM_EFFECTIVE_ROTOR_COUNT>  (1) 
8.8

>  <PUBCHEM_PHARMACOPHORE_FEATURES>  (1) 
8
1 12 hydrophobe
1 13 hydrophobe
1 15 hydrophobe
1 18 hydrophobe
1 2 acceptor
1 3 cation
1 4 donor
4 3 6 7 8 rings

>  <PUBCHEM_HEAVY_ATOM_COUNT>  (1) 
18

>  <PUBCHEM_ATOM_DEF_STEREO_COUNT>  (1) 
0

>  <PUBCHEM_ATOM_UDEF_STEREO_COUNT>  (1) 
0

>  <PUBCHEM_BOND_DEF_STEREO_COUNT>  (1) 
0

>  <PUBCHEM_BOND_UDEF_STEREO_COUNT>  (1) 
0

>  <PUBCHEM_ISOTOPIC_ATOM_COUNT>  (1) 
0

>  <PUBCHEM_COMPONENT_COUNT>  (1) 
1

>  <PUBCHEM_CACTVS_TAUTO_COUNT>  (1) 
2

>  <PUBCHEM_CONFORMER_ID>  (1) 
0000A9BA00000002

>  <PUBCHEM_MMFF94_ENERGY>  (1) 
39.3665

>  <PUBCHEM_FEATURE_SELFOVERLAP>  (1) 
40.597

>  <PUBCHEM_SHAPE_FINGERPRINT>  (1) 
10062212 137 18412821408879057367
10670039 82 12751246952047214122
11128504 68 13984673546608794658
11458722 379 18113899342888218906
12553582 1 17603578621652929872
12555020 224 18040426724519401771
12596602 18 16271917238850254026
13533116 47 18268708501256489571
14115302 16 17968104135425802332
1420 369 18341331167009519670
15196674 1 18412824698702602278
15880784 105 17846778525138570994
17959699 21 7853573522107037006
18186145 218 16008748051850637332
18769570 83 15984550997074912265
19141452 34 18413671296843819237
200 152 18201996659464070799
20281475 54 18410857702254389660
20645477 70 18261668285617871996
21069387 34 18336826519246312807
21618674 57 18202004295905705440
2215653 11 18338796719682197222
22485316 2 18343300383728996976
23402539 116 18335977623213261485
23403322 49 18410853282664359710
23559900 14 18408884075183864736
26918003 58 17704069573452679392
3286 77 18059006314727996921
5104073 3 17917429860377437458
559249 180 18412821361676569751
59755656 520 18195801865589847365
76465 3 18200588232646118991
9709674 26 18335985362955143554

>  <PUBCHEM_SHAPE_MULTIPOLES>  (1) 
348.73
11.16
2.11
1.17
11.31
0.76
-0.05
3.87
0.57
-0.7
-0.03
-0.28
0.36
-0.09

>  <PUBCHEM_SHAPE_SELFOVERLAP>  (1) 
689.631

>  <PUBCHEM_SHAPE_VOLUME>  (1) 
208.9

>  <PUBCHEM_COORDINATE_TYPE>  (1) 
2
5
10

$$$$
