43457
     RDKit          3D

 17 18  0  0  0  0  0  0  0  0999 V2000
    2.3371   -0.2007    0.8154 O   0  0  0  0  0  0  0  0  0  0  0  0
    3.4259   -0.4519   -1.1909 O   0  0  0  0  0  0  0  0  0  0  0  0
   -0.5605   -0.0179    0.3269 N   0  0  0  0  0  0  0  0  0  0  0  0
    4.3029    0.8463    0.5213 N   0  0  0  0  0  0  0  0  0  0  0  0
   -1.9398   -0.3487   -0.0446 C   0  0  0  0  0  0  0  0  0  0  0  0
    0.3553   -0.4601   -0.7530 C   0  0  0  0  0  0  0  0  0  0  0  0
   -0.0113   -1.0994    1.1808 C   0  0  0  0  0  0  0  0  0  0  0  0
   -2.2975    0.3700   -1.3622 C   0  0  0  0  0  0  0  0  0  0  0  0
   -2.8940    0.1081    1.0786 C   0  0  0  0  0  0  0  0  0  0  0  0
    1.2641   -1.0638    0.3271 C   0  0  0  0  0  0  0  0  0  0  0  0
   -2.3656    1.8919   -1.2160 C   0  0  0  0  0  0  0  0  0  0  0  0
   -2.9618    1.6298    1.2259 C   0  0  0  0  0  0  0  0  0  0  0  0
   -3.3138    2.3067   -0.0952 C   0  0  0  0  0  0  0  0  0  0  0  0
   -2.0605   -1.8093   -0.2309 C   0  0  0  0  0  0  0  0  0  0  0  0
    3.3644    0.0204   -0.0606 C   0  0  0  0  0  0  0  0  0  0  0  0
   -2.1591   -2.9960   -0.3825 C   0  0  0  0  0  0  0  0  0  0  0  0
    5.5141    1.2748   -0.1400 C   0  0  0  0  0  0  0  0  0  0  0  0
  1 10  1  0
  1 15  1  0
  2 15  2  0
  3  5  1  0
  3  6  1  0
  3  7  1  0
  4 15  1  0
  4 17  1  0
  5  8  1  0
  5  9  1  0
  5 14  1  0
  6 10  1  0
  7 10  1  0
  8 11  1  0
  9 12  1  0
 11 13  1  0
 12 13  1  0
 14 16  3  0
M  END
>  <PUBCHEM_COMPOUND_CID>  (1) 
43457

>  <PUBCHEM_CONFORMER_RMSD>  (1) 
0.8

>  <PUBCHEM_CONFORMER_DIVERSEORDER>  (1) 
2
5
10
7
9
4
8
6
11
13
3
12
1

>  <PUBCHEM_MMFF94_PARTIAL_CHARGES>  (1) 
14
1 -0.41
10 0.26
14 -0.2
15 0.78
16 -0.18
17 0.3
2 -0.57
3 -0.69
33 0.18
34 0.37
4 -0.73
5 0.47
6 0.21
7 0.21

>  <PUBCHEM_EFFECTIVE_ROTOR_COUNT>  (1) 
6

>  <PUBCHEM_PHARMACOPHORE_FEATURES>  (1) 
6
1 16 hydrophobe
1 2 acceptor
1 3 cation
1 4 donor
4 3 6 7 10 rings
6 5 8 9 11 12 13 rings

>  <PUBCHEM_HEAVY_ATOM_COUNT>  (1) 
17

>  <PUBCHEM_ATOM_DEF_STEREO_COUNT>  (1) 
0

>  <PUBCHEM_ATOM_UDEF_STEREO_COUNT>  (1) 
0

>  <PUBCHEM_BOND_DEF_STEREO_COUNT>  (1) 
0

>  <PUBCHEM_BOND_UDEF_STEREO_COUNT>  (1) 
0

>  <PUBCHEM_ISOTOPIC_ATOM_COUNT>  (1) 
0

>  <PUBCHEM_COMPONENT_COUNT>  (1) 
1

>  <PUBCHEM_CACTVS_TAUTO_COUNT>  (1) 
2

>  <PUBCHEM_CONFORMER_ID>  (1) 
0000A9C100000002

>  <PUBCHEM_MMFF94_ENERGY>  (1) 
39.0052

>  <PUBCHEM_FEATURE_SELFOVERLAP>  (1) 
30.446

>  <PUBCHEM_SHAPE_FINGERPRINT>  (1) 
10680689 15 18335144228154609034
11132069 177 17967812734774285828
11405975 8 18411982430273528818
11715629 250 18334577927931420606
12173636 292 18342178817470237653
12507557 5 14924222776704579422
13024252 1 15864068776340517011
13214271 11 17312823766740293845
13675066 3 17531529789537910402
13693222 15 12613044889411635122
14123255 52 18266458715635052305
14123260 362 18409168800902042764
14142880 1 18113333094595002037
15209294 21 18113897152581316100
15309172 13 18265336106063210745
15342168 16 18266742377093267829
15534591 1 18059575724781554609
16945 1 18410845582078252235
1741750 31 18340764845216393235
18186145 218 18342181042521922046
18785283 64 17834685894266305139
200 152 15719671069289306947
20645477 56 18413112757568577296
20645477 70 16629976438655902638
20871999 31 18060410327063425805
21339142 149 18114184180481411395
21426921 1 18339640156479986318
21524375 3 18117833301161116323
23227448 37 18412265068553484397
23402539 116 18341043129628859431
23403322 49 10592040254425413796
23557571 272 18272375321053550308
23559900 14 18131073680882367510
25 1 17702105755517421555
27216 239 18187087226310684217
3268164 11 18339355383195083598
6049 1 17559666420593785362
81228 2 18338233885941325787

>  <PUBCHEM_SHAPE_MULTIPOLES>  (1) 
328.15
8.2
2.41
1.23
13.97
0.62
0.03
-4.75
0.05
-2.7
0.28
-0.59
-0.2
-0.1

>  <PUBCHEM_SHAPE_SELFOVERLAP>  (1) 
670.209

>  <PUBCHEM_SHAPE_VOLUME>  (1) 
188

>  <PUBCHEM_COORDINATE_TYPE>  (1) 
2
5
10

$$$$
