43465
     RDKit          3D

 21 22  0  0  0  0  0  0  0  0999 V2000
    0.5214    1.1163    0.4750 O   0  0  0  0  0  0  0  0  0  0  0  0
    1.3862    1.4121   -1.6316 O   0  0  0  0  0  0  0  0  0  0  0  0
   -2.7752    0.9292   -0.2477 N   0  0  0  0  0  0  0  0  0  0  0  0
    2.7013    0.6894    0.1387 N   0  0  0  0  0  0  0  0  0  0  0  0
   -0.7740    1.5294   -0.0050 C   0  0  0  0  0  0  0  0  0  0  0  0
   -3.5325   -0.2873    0.0596 C   0  0  0  0  0  0  0  0  0  0  0  0
   -1.9681    1.3145    0.9358 C   0  0  0  0  0  0  0  0  0  0  0  0
   -1.5146    0.5601   -0.9371 C   0  0  0  0  0  0  0  0  0  0  0  0
   -4.3740   -0.6845   -1.1847 C   0  0  0  0  0  0  0  0  0  0  0  0
   -4.5079   -0.0392    1.2435 C   0  0  0  0  0  0  0  0  0  0  0  0
    3.9561    0.5650   -0.5693 C   0  0  0  0  0  0  0  0  0  0  0  0
    5.1410    0.8748    0.3517 C   0  0  0  0  0  0  0  0  0  0  0  0
    4.0949   -0.8222   -1.2053 C   0  0  0  0  0  0  0  0  0  0  0  0
    5.3814   -0.2252    1.3856 C   0  0  0  0  0  0  0  0  0  0  0  0
    4.3368   -1.9194   -0.1687 C   0  0  0  0  0  0  0  0  0  0  0  0
    5.5273   -1.5941    0.7280 C   0  0  0  0  0  0  0  0  0  0  0  0
   -2.5955   -1.3826    0.3979 C   0  0  0  0  0  0  0  0  0  0  0  0
    1.5261    1.1021   -0.4532 C   0  0  0  0  0  0  0  0  0  0  0  0
   -5.1893   -1.9692   -1.0422 C   0  0  0  0  0  0  0  0  0  0  0  0
   -5.5046    1.1029    1.0557 C   0  0  0  0  0  0  0  0  0  0  0  0
   -1.8368   -2.2722    0.6732 C   0  0  0  0  0  0  0  0  0  0  0  0
  1  5  1  0
  1 18  1  0
  2 18  2  0
  3  6  1  0
  3  7  1  0
  3  8  1  0
  4 11  1  0
  4 18  1  0
  5  7  1  0
  5  8  1  0
  6  9  1  0
  6 10  1  0
  6 17  1  0
  9 19  1  0
 10 20  1  0
 11 12  1  0
 11 13  1  0
 12 14  1  0
 13 15  1  0
 14 16  1  0
 15 16  1  0
 17 21  3  0
M  END
>  <PUBCHEM_COMPOUND_CID>  (1) 
43465

>  <PUBCHEM_CONFORMER_RMSD>  (1) 
0.8

>  <PUBCHEM_CONFORMER_DIVERSEORDER>  (1) 
1
27
43
55
24
20
34
9
15
33
21
51
39
41
56
58
31
30
22
8
49
40
57
11
23
10
16
5
28
53
44
4
37
26
14
32
38
13
18
17
19
35
54
6
48
42
29
47
3
7
46
45
50
25
36
52
2
12

>  <PUBCHEM_MMFF94_PARTIAL_CHARGES>  (1) 
14
1 -0.41
11 0.3
17 -0.2
18 0.78
2 -0.57
21 -0.18
3 -0.69
4 -0.73
42 0.37
49 0.18
5 0.26
6 0.47
7 0.21
8 0.21

>  <PUBCHEM_EFFECTIVE_ROTOR_COUNT>  (1) 
9

>  <PUBCHEM_PHARMACOPHORE_FEATURES>  (1) 
8
1 19 hydrophobe
1 2 acceptor
1 20 hydrophobe
1 21 hydrophobe
1 3 cation
1 4 donor
4 3 5 7 8 rings
6 11 12 13 14 15 16 rings

>  <PUBCHEM_HEAVY_ATOM_COUNT>  (1) 
21

>  <PUBCHEM_ATOM_DEF_STEREO_COUNT>  (1) 
0

>  <PUBCHEM_ATOM_UDEF_STEREO_COUNT>  (1) 
0

>  <PUBCHEM_BOND_DEF_STEREO_COUNT>  (1) 
0

>  <PUBCHEM_BOND_UDEF_STEREO_COUNT>  (1) 
0

>  <PUBCHEM_ISOTOPIC_ATOM_COUNT>  (1) 
0

>  <PUBCHEM_COMPONENT_COUNT>  (1) 
1

>  <PUBCHEM_CACTVS_TAUTO_COUNT>  (1) 
2

>  <PUBCHEM_CONFORMER_ID>  (1) 
0000A9C900000001

>  <PUBCHEM_MMFF94_ENERGY>  (1) 
41.2847

>  <PUBCHEM_FEATURE_SELFOVERLAP>  (1) 
40.596

>  <PUBCHEM_SHAPE_FINGERPRINT>  (1) 
10498660 4 10087642563668857066
10670039 82 11311786089923118394
11089746 13 9079115540730028652
11595378 159 14045749192712708490
12507557 5 15123790708277230665
12523318 42 16415189126876366543
12555020 224 18187638146250736815
12596602 18 16415474974150980266
12616971 3 18186526513750205549
13533116 47 18340767142971187880
13551218 46 18336549330562937787
1420 369 18409730647301732286
14251764 18 18059860575919142377
146900 427 17845930844892410464
14848178 5 18408037429222689414
15183329 4 18040148509332743407
15188451 53 17917137390680328015
15537594 2 17822302283702012890
15880784 105 16988847180985420574
17349148 13 18410580582342589374
17857418 61 18410007736948061066
1813 80 17385452007366019564
19141452 34 18408326600696203427
20403669 9 18408887317546355166
20645477 70 17167871872175912116
21315763 178 18411698777009738874
21403212 168 18339649919937637249
21424621 283 15624842448428521323
220451 1 18412833486116103644
221357 26 8142084256533484122
23402539 116 18341892996150549941
23559900 14 18264770029437551216
3004659 81 18186525393359586982
312425 54 17846221012207649114
339767 52 18114453539914490722
34797466 226 14274037523195713710
351380 3 17894915109584013530
3680242 22 18261960630872518354
5104073 3 17917151701484880897
542803 24 8862944987308645572
559249 180 18041837298899980208
5924683 9 17989201577593197503
960060 61 16732987518446015830

>  <PUBCHEM_SHAPE_MULTIPOLES>  (1) 
410.47
14.56
2.09
1.31
6.93
0.84
0.08
4.46
-2.38
-0.45
-0.02
-0.17
0.01
-1.09

>  <PUBCHEM_SHAPE_SELFOVERLAP>  (1) 
825.578

>  <PUBCHEM_SHAPE_VOLUME>  (1) 
240.6

>  <PUBCHEM_COORDINATE_TYPE>  (1) 
2
5
10

$$$$
