43467
     RDKit          3D

 20 21  0  0  0  0  0  0  0  0999 V2000
   -0.0028   -0.7688   -0.2219 P   0  0  0  0  0  0  0  0  0  0  0  0
    0.8380   -1.9534    0.4987 O   0  0  0  0  0  0  0  0  0  0  0  0
   -1.4879   -0.8734    0.4208 O   0  0  0  0  0  0  0  0  0  0  0  0
    0.5671    0.5948    0.4343 O   0  0  0  0  0  0  0  0  0  0  0  0
    0.0223   -0.7915   -1.7248 O   0  0  0  0  0  0  0  0  0  0  0  0
    0.5070   -3.3114    0.2640 C   0  0  0  0  0  0  0  0  0  0  0  0
    0.6485   -3.6119   -1.2204 C   0  0  0  0  0  0  0  0  0  0  0  0
    1.4063   -4.1996    1.1103 C   0  0  0  0  0  0  0  0  0  0  0  0
   -2.5008    0.0100    0.2063 C   0  0  0  0  0  0  0  0  0  0  0  0
    1.8361    1.0793    0.2617 C   0  0  0  0  0  0  0  0  0  0  0  0
   -2.3006    1.1124   -0.6245 C   0  0  0  0  0  0  0  0  0  0  0  0
    2.7395    0.3789   -0.5305 C   0  0  0  0  0  0  0  0  0  0  0  0
   -3.7391   -0.1869    0.8174 C   0  0  0  0  0  0  0  0  0  0  0  0
    2.2103    2.2673    0.8803 C   0  0  0  0  0  0  0  0  0  0  0  0
   -3.3388    2.0177   -0.8444 C   0  0  0  0  0  0  0  0  0  0  0  0
    4.0322    0.8725   -0.7065 C   0  0  0  0  0  0  0  0  0  0  0  0
   -4.7773    0.7184    0.5974 C   0  0  0  0  0  0  0  0  0  0  0  0
    3.5030    2.7610    0.7043 C   0  0  0  0  0  0  0  0  0  0  0  0
   -4.5771    1.8207   -0.2334 C   0  0  0  0  0  0  0  0  0  0  0  0
    4.4140    2.0637   -0.0891 C   0  0  0  0  0  0  0  0  0  0  0  0
  1  2  1  0
  1  3  1  0
  1  4  1  0
  1  5  2  0
  2  6  1  0
  3  9  1  0
  4 10  1  0
  6  7  1  0
  6  8  1  0
  9 11  2  0
  9 13  1  0
 10 12  2  0
 10 14  1  0
 11 15  1  0
 12 16  1  0
 13 17  2  0
 14 18  2  0
 15 19  2  0
 16 20  2  0
 17 19  1  0
 18 20  1  0
M  END
>  <PUBCHEM_COMPOUND_CID>  (1) 
43467

>  <PUBCHEM_CONFORMER_RMSD>  (1) 
0.8

>  <PUBCHEM_CONFORMER_DIVERSEORDER>  (1) 
1
37
34
23
8
28
15
32
18
16
14
39
20
29
11
40
35
38
25
19
36
27
31
13
10
41
17
4
30
5
7
21
2
12
26
33
3
6
9
22
24

>  <PUBCHEM_MMFF94_PARTIAL_CHARGES>  (1) 
28
1 1.51
10 0.08
11 -0.15
12 -0.15
13 -0.15
14 -0.15
15 -0.15
16 -0.15
17 -0.15
18 -0.15
19 -0.15
2 -0.55
20 -0.15
28 0.15
29 0.15
3 -0.35
30 0.15
31 0.15
32 0.15
33 0.15
34 0.15
35 0.15
36 0.15
37 0.15
4 -0.35
5 -0.7
6 0.28
9 0.08

>  <PUBCHEM_EFFECTIVE_ROTOR_COUNT>  (1) 
6

>  <PUBCHEM_PHARMACOPHORE_FEATURES>  (1) 
4
1 5 acceptor
3 6 7 8 hydrophobe
6 10 12 14 16 18 20 rings
6 9 11 13 15 17 19 rings

>  <PUBCHEM_HEAVY_ATOM_COUNT>  (1) 
20

>  <PUBCHEM_ATOM_DEF_STEREO_COUNT>  (1) 
0

>  <PUBCHEM_ATOM_UDEF_STEREO_COUNT>  (1) 
0

>  <PUBCHEM_BOND_DEF_STEREO_COUNT>  (1) 
0

>  <PUBCHEM_BOND_UDEF_STEREO_COUNT>  (1) 
0

>  <PUBCHEM_ISOTOPIC_ATOM_COUNT>  (1) 
0

>  <PUBCHEM_COMPONENT_COUNT>  (1) 
1

>  <PUBCHEM_CACTVS_TAUTO_COUNT>  (1) 
1

>  <PUBCHEM_CONFORMER_ID>  (1) 
0000A9CB00000001

>  <PUBCHEM_MMFF94_ENERGY>  (1) 
47.8164

>  <PUBCHEM_FEATURE_SELFOVERLAP>  (1) 
20.297

>  <PUBCHEM_SHAPE_FINGERPRINT>  (1) 
1100329 8 18410290273088467730
11833330 49 17545033170542523107
12173636 292 18264765652464326484
12500047 106 18268431424680029536
12532896 13 18267864054909686214
12549972 3 17534083877835028897
12592029 89 18410576158452493130
12730499 353 18410301285515736393
12788726 201 17691668400772869274
12895836 83 17825412884002122364
13004483 165 17260459796072098154
13134695 92 17834099862873610295
13544653 18 11314301763225397549
13681431 1 17910391684579668694
138480 1 17905606605728093146
13955234 65 18265054643871513587
14123255 52 18411134770478544945
14251751 93 18130222773896812455
15502722 9 18338237046757180459
15927050 60 18410293657791793474
1813 80 17269479729672867807
18186145 218 18202288038830999656
18785283 64 18188207602926260474
20101258 96 17182229548082146568
21033648 29 18340763861812158624
21120745 212 17109895980656909196
21524375 3 18270401705981638959
21731228 192 18338237188179819433
23558518 356 18123466356775542774
23559900 14 18047744906631473179
25 1 18201441397739791508
283562 15 18124023800786865447
3091708 16 9406330200565595634
3298306 158 18410580565500694014
3729539 64 18196676029004879846
5104073 3 18117289060655254633
5385378 56 18338803303614107969
6138700 20 18268720407528820246
621550 34 18334580123039711877
633830 44 18272933833984404413
6442390 28 18335987574520364006
7226269 152 18060129986343853440
7364860 26 18266742376765986375
77188 2 17689432681216526418
7808743 9 17974855278797621020
81228 2 17547000192454610603
81539 233 18410858732956662071
9841814 1 17901951842110181955
9981440 41 18335978744447444905

>  <PUBCHEM_SHAPE_MULTIPOLES>  (1) 
391.96
8.44
4.52
1.12
4.68
5.9
-0.19
-8.81
0.41
-3.6
0.61
-0.07
0.38
0.6

>  <PUBCHEM_SHAPE_SELFOVERLAP>  (1) 
805.299

>  <PUBCHEM_SHAPE_VOLUME>  (1) 
224.8

>  <PUBCHEM_COORDINATE_TYPE>  (1) 
2
5
10

$$$$
