43469
     RDKit          3D

 22 24  0  0  0  0  0  0  0  0999 V2000
    4.4217   -1.8414    0.5310 N   0  0  0  0  0  0  0  0  0  0  0  0
    0.1013   -1.2739   -2.9210 N   0  0  0  0  0  0  0  0  0  0  0  0
   -0.2100   -0.3515   -0.4444 C   0  0  0  0  0  0  0  0  0  0  0  0
    0.7011   -1.1994    0.4871 C   0  0  0  0  0  0  0  0  0  0  0  0
   -1.6939   -0.6460   -0.0703 C   0  0  0  0  0  0  0  0  0  0  0  0
    0.3680    1.0906   -0.3835 C   0  0  0  0  0  0  0  0  0  0  0  0
   -2.6288    0.2363    0.5075 C   0  0  0  0  0  0  0  0  0  0  0  0
    0.0617    2.0221    0.6261 C   0  0  0  0  0  0  0  0  0  0  0  0
   -2.3348    1.6394    0.9644 C   0  0  0  0  0  0  0  0  0  0  0  0
   -0.9925    1.7610    1.6595 C   0  0  0  0  0  0  0  0  0  0  0  0
    2.1405   -1.0963    0.0325 C   0  0  0  0  0  0  0  0  0  0  0  0
   -2.1628   -1.9671   -0.3403 C   0  0  0  0  0  0  0  0  0  0  0  0
    1.3799    1.4749   -1.3045 C   0  0  0  0  0  0  0  0  0  0  0  0
   -0.0345   -0.8717   -1.8413 C   0  0  0  0  0  0  0  0  0  0  0  0
    3.0320   -1.9128    0.9666 C   0  0  0  0  0  0  0  0  0  0  0  0
   -3.9682   -0.1872    0.7042 C   0  0  0  0  0  0  0  0  0  0  0  0
    0.7143    3.2747    0.6711 C   0  0  0  0  0  0  0  0  0  0  0  0
   -3.4786   -2.3752   -0.1159 C   0  0  0  0  0  0  0  0  0  0  0  0
    2.0158    2.7185   -1.2550 C   0  0  0  0  0  0  0  0  0  0  0  0
   -4.3906   -1.4752    0.3967 C   0  0  0  0  0  0  0  0  0  0  0  0
    1.6805    3.6229   -0.2644 C   0  0  0  0  0  0  0  0  0  0  0  0
    5.2780   -2.6427    1.3940 C   0  0  0  0  0  0  0  0  0  0  0  0
  1 15  1  0
  1 22  1  0
  2 14  3  0
  3  4  1  0
  3  5  1  0
  3  6  1  0
  3 14  1  0
  4 11  1  0
  5  7  2  0
  5 12  1  0
  6  8  2  0
  6 13  1  0
  7  9  1  0
  7 16  1  0
  8 10  1  0
  8 17  1  0
  9 10  1  0
 11 15  1  0
 12 18  2  0
 13 19  2  0
 16 20  2  0
 17 21  2  0
 18 20  1  0
 19 21  1  0
M  END
>  <PUBCHEM_COMPOUND_CID>  (1) 
43469

>  <PUBCHEM_CONFORMER_RMSD>  (1) 
0.8

>  <PUBCHEM_CONFORMER_DIVERSEORDER>  (1) 
2
11
8
5
13
1
6
10
4
3
12
9
14
15
7

>  <PUBCHEM_MMFF94_PARTIAL_CHARGES>  (1) 
29
1 -0.9
10 0.14
12 -0.15
13 -0.15
14 0.36
15 0.27
16 -0.15
17 -0.15
18 -0.15
19 -0.15
2 -0.56
20 -0.15
21 -0.15
22 0.27
3 0.49
31 0.15
32 0.15
35 0.15
36 0.15
37 0.15
38 0.15
39 0.15
40 0.15
41 0.36
5 -0.14
6 -0.14
7 -0.14
8 -0.14
9 0.14

>  <PUBCHEM_EFFECTIVE_ROTOR_COUNT>  (1) 
4.6

>  <PUBCHEM_PHARMACOPHORE_FEATURES>  (1) 
6
1 1 cation
1 1 donor
1 2 acceptor
6 5 7 12 16 18 20 rings
6 6 8 13 17 19 21 rings
7 3 5 6 7 8 9 10 rings

>  <PUBCHEM_HEAVY_ATOM_COUNT>  (1) 
22

>  <PUBCHEM_ATOM_DEF_STEREO_COUNT>  (1) 
0

>  <PUBCHEM_ATOM_UDEF_STEREO_COUNT>  (1) 
0

>  <PUBCHEM_BOND_DEF_STEREO_COUNT>  (1) 
0

>  <PUBCHEM_BOND_UDEF_STEREO_COUNT>  (1) 
0

>  <PUBCHEM_ISOTOPIC_ATOM_COUNT>  (1) 
0

>  <PUBCHEM_COMPONENT_COUNT>  (1) 
1

>  <PUBCHEM_CACTVS_TAUTO_COUNT>  (1) 
1

>  <PUBCHEM_CONFORMER_ID>  (1) 
0000A9CD00000002

>  <PUBCHEM_MMFF94_ENERGY>  (1) 
79.4786

>  <PUBCHEM_FEATURE_SELFOVERLAP>  (1) 
30.457

>  <PUBCHEM_SHAPE_FINGERPRINT>  (1) 
10759866 29 18193284206967690813
107951 10 17400381421230201892
10863032 1 18119253011180018723
1100329 8 18409453566113703507
11045515 52 17968372339069346662
11578080 2 17821716256746723717
12592029 89 18050294957363641425
13004483 165 17828192208256329523
13140716 1 18342178821512426361
13941206 138 17686352270843051412
15475509 35 17606147149883370347
16945 1 18123474049172596449
17980427 23 18059850619800101081
1813 80 18335987480453512134
20600515 1 18197785396822840161
20645476 183 17180535200363440045
20905425 154 18199483223523539973
21421861 104 18196116467469048171
21452121 71 18187094939734181802
21524375 3 17767418141998224045
21650355 55 18266455399888430714
22112679 90 18193576496645328164
23366157 5 18116719701560652380
23419403 2 18196904769545103768
23558518 356 15967360549054489561
23559900 14 18337096969300820955
25147074 1 18200882885088798467
2748010 2 16971705528615657473
298252 57 17125945470214371149
3759504 43 17253999061251872156
394222 165 18054523661635153784
43471831 8 17834392697927808537
4409770 3 17682385949743126100
484985 159 17319561393792055410
5104073 3 18268447883411635139
5845 1 12690771355017648122
59554788 191 18340483383662511781
59755656 520 17326328226509984212
7097593 13 18410293627014443779
7364860 26 18267026230974912602
7471813 234 18200296836289783735
81228 2 17697061149040576641
90316 7 18121223073765662040
9925002 15 17344039009079623694

>  <PUBCHEM_SHAPE_MULTIPOLES>  (1) 
442.79
6.86
4.07
1.65
1.52
2.34
-0.95
-7.35
3.03
3.75
0.61
0.57
-0.2
-2.16

>  <PUBCHEM_SHAPE_SELFOVERLAP>  (1) 
949.348

>  <PUBCHEM_SHAPE_VOLUME>  (1) 
238.6

>  <PUBCHEM_COORDINATE_TYPE>  (1) 
2
5
10

$$$$
