4347
     RDKit          3D

 20 21  0  0  0  0  0  0  0  0999 V2000
    5.0039    0.7572    0.1443 S   0  0  0  0  0  0  0  0  0  0  0  0
   -1.0499   -2.0796    0.6875 O   0  0  0  0  0  0  0  0  0  0  0  0
    5.2127    1.6966   -0.9486 O   0  0  0  0  0  0  0  0  0  0  0  0
    5.2840    1.1665    1.5135 O   0  0  0  0  0  0  0  0  0  0  0  0
   -1.4562   -0.6943   -1.1271 N   0  0  0  0  0  0  0  0  0  0  0  0
    5.8719   -0.6766   -0.1878 N   0  0  0  0  0  0  0  0  0  0  0  0
    0.7316   -0.7523   -0.0626 C   0  0  0  0  0  0  0  0  0  0  0  0
   -2.8440   -1.0556   -1.3063 C   0  0  0  0  0  0  0  0  0  0  0  0
    3.3592    0.1763    0.0646 C   0  0  0  0  0  0  0  0  0  0  0  0
   -3.7616   -0.1732   -0.5104 C   0  0  0  0  0  0  0  0  0  0  0  0
   -0.6381   -1.2366   -0.1290 C   0  0  0  0  0  0  0  0  0  0  0  0
    1.4208   -0.7739    1.1498 C   0  0  0  0  0  0  0  0  0  0  0  0
    1.3560   -0.2665   -1.2114 C   0  0  0  0  0  0  0  0  0  0  0  0
    2.7346   -0.3095    1.2133 C   0  0  0  0  0  0  0  0  0  0  0  0
    2.6699    0.1978   -1.1478 C   0  0  0  0  0  0  0  0  0  0  0  0
   -4.1046   -0.5309    0.7882 C   0  0  0  0  0  0  0  0  0  0  0  0
   -4.2595    0.9929   -1.0801 C   0  0  0  0  0  0  0  0  0  0  0  0
   -4.9574    0.2887    1.5275 C   0  0  0  0  0  0  0  0  0  0  0  0
   -5.1122    1.8126   -0.3408 C   0  0  0  0  0  0  0  0  0  0  0  0
   -5.4612    1.4604    0.9630 C   0  0  0  0  0  0  0  0  0  0  0  0
  1  3  2  0
  1  4  2  0
  1  6  1  0
  1  9  1  0
  2 11  2  0
  5  8  1  0
  5 11  1  0
  7 11  1  0
  7 12  2  0
  7 13  1  0
  8 10  1  0
  9 14  2  0
  9 15  1  0
 10 16  2  0
 10 17  1  0
 12 14  1  0
 13 15  2  0
 16 18  1  0
 17 19  2  0
 18 20  2  0
 19 20  1  0
M  END
>  <PUBCHEM_COMPOUND_CID>  (1) 
4347

>  <PUBCHEM_CONFORMER_RMSD>  (1) 
0.8

>  <PUBCHEM_CONFORMER_DIVERSEORDER>  (1) 
2
7
6
10
4
5
8
9
1
3

>  <PUBCHEM_MMFF94_PARTIAL_CHARGES>  (1) 
32
1 1.45
10 -0.14
11 0.54
12 -0.15
13 -0.15
14 -0.15
15 -0.15
16 -0.15
17 -0.15
18 -0.15
19 -0.15
2 -0.57
20 -0.15
23 0.37
24 0.15
25 0.15
26 0.15
27 0.15
28 0.15
29 0.15
3 -0.65
30 0.15
31 0.15
32 0.15
33 0.42
34 0.42
4 -0.65
5 -0.73
6 -0.98
7 0.09
8 0.44
9 -0.01

>  <PUBCHEM_EFFECTIVE_ROTOR_COUNT>  (1) 
5

>  <PUBCHEM_PHARMACOPHORE_FEATURES>  (1) 
7
1 2 acceptor
1 3 acceptor
1 4 acceptor
1 5 donor
1 6 donor
6 10 16 17 18 19 20 rings
6 7 9 12 13 14 15 rings

>  <PUBCHEM_HEAVY_ATOM_COUNT>  (1) 
20

>  <PUBCHEM_ATOM_DEF_STEREO_COUNT>  (1) 
0

>  <PUBCHEM_ATOM_UDEF_STEREO_COUNT>  (1) 
0

>  <PUBCHEM_BOND_DEF_STEREO_COUNT>  (1) 
0

>  <PUBCHEM_BOND_UDEF_STEREO_COUNT>  (1) 
0

>  <PUBCHEM_ISOTOPIC_ATOM_COUNT>  (1) 
0

>  <PUBCHEM_COMPONENT_COUNT>  (1) 
1

>  <PUBCHEM_CACTVS_TAUTO_COUNT>  (1) 
2

>  <PUBCHEM_CONFORMER_ID>  (1) 
000010FB00000002

>  <PUBCHEM_MMFF94_ENERGY>  (1) 
32.9447

>  <PUBCHEM_FEATURE_SELFOVERLAP>  (1) 
35.538

>  <PUBCHEM_SHAPE_FINGERPRINT>  (1) 
10354089 29 17603587417524165412
10447042 23 11095885952074671636
10498660 4 17417521412006491185
105312 117 17489588978409731319
10803635 8 13542462051507616005
11089746 13 16988556901515325698
11370993 144 16806158831789753083
12507557 5 17022620879950968445
12596602 18 16805323305373066672
12670543 26 15626232307733989436
12892183 10 16660639610082785043
13668630 136 10231750107046090169
13782708 43 10809606105593602632
14123255 352 18273210894003408949
14341114 176 16950564320609670739
14341114 328 17095818654582948013
14848160 23 9367342617718960236
14848178 5 8718833080387616665
14849402 71 16951142801587510836
15183329 4 16773800277218882764
15188451 53 14273748382398731833
15475509 8 17822587010512162718
15880784 105 13623540064767618341
1601671 61 18201999936835685260
17349148 13 8790885219822093557
17780758 139 15285361704744284829
17870717 6 11024107638596363545
18335252 98 17346599686842750815
18769570 83 18272645757969975168
18785283 64 15069199994734119294
18927931 339 12901544620622376803
193927 3 7781508252951806381
200 152 12319738072364382023
20281389 69 18273212001867692145
21065199 12 16660641804985120623
221357 26 14692564408627509747
22224240 67 17894635855643692587
22393880 68 14045447939247757797
23198884 109 16917065556013279133
23402539 116 17918270952449863908
23402655 69 15554453968106121323
23559900 14 11527654263907632527
26918003 58 14851601073146004095
270888 7 17986959544994605633
2838139 119 17632856395549448137
2916195 48 18272085028255844833
3009799 131 14189571923379881234
32948 21 17132114645648683586
351380 3 8502366742129040581
4028521 119 17132111304559694849
465052 167 14129055903325661128
49783359 22 13262393358468448649
5104073 3 17386842988807855304
542803 24 18410293631451381230
59682541 52 15697443208925389533
59755656 520 18408042909648769611
960060 61 14405188369795050196

>  <PUBCHEM_SHAPE_MULTIPOLES>  (1) 
387.87
14.7
1.57
1.47
3.09
0.17
0.11
8.09
1.76
-0.72
0.01
-0.33
0.06
-0.19

>  <PUBCHEM_SHAPE_SELFOVERLAP>  (1) 
813.868

>  <PUBCHEM_SHAPE_VOLUME>  (1) 
218.8

>  <PUBCHEM_COORDINATE_TYPE>  (1) 
2
5
10

$$$$
