43471
     RDKit          3D

 12 12  0  0  0  0  0  0  0  0999 V2000
   -2.6413   -0.5568   -1.1998 O   0  0  0  0  0  0  0  0  0  0  0  0
   -2.8048   -0.5730    1.0672 O   0  0  0  0  0  0  0  0  0  0  0  0
    1.8396    2.4648   -0.0155 N   0  0  0  0  0  0  0  0  0  0  0  0
   -0.1206    1.0090    0.0167 C   0  0  0  0  0  0  0  0  0  0  0  0
   -0.6695   -0.2732    0.0306 C   0  0  0  0  0  0  0  0  0  0  0  0
    1.2643    1.1748   -0.0018 C   0  0  0  0  0  0  0  0  0  0  0  0
    1.5514   -1.2241    0.0073 C   0  0  0  0  0  0  0  0  0  0  0  0
    0.1665   -1.3897    0.0258 C   0  0  0  0  0  0  0  0  0  0  0  0
    2.1004    0.0582   -0.0065 C   0  0  0  0  0  0  0  0  0  0  0  0
   -1.0188    2.2068    0.0229 C   0  0  0  0  0  0  0  0  0  0  0  0
    2.4447   -2.4184    0.0025 C   0  0  0  0  0  0  0  0  0  0  0  0
   -2.1118   -0.4783    0.0507 C   0  0  0  0  0  0  0  0  0  0  0  0
  1 12  1  0
  2 12  2  0
  3  6  1  0
  4  5  2  0
  4  6  1  0
  4 10  1  0
  5  8  1  0
  5 12  1  0
  6  9  2  0
  7  8  2  0
  7  9  1  0
  7 11  1  0
M  END
>  <PUBCHEM_COMPOUND_CID>  (1) 
43471

>  <PUBCHEM_CONFORMER_RMSD>  (1) 
0.4

>  <PUBCHEM_CONFORMER_DIVERSEORDER>  (1) 
2
1
3

>  <PUBCHEM_MMFF94_PARTIAL_CHARGES>  (1) 
17
1 -0.65
10 0.14
11 0.14
12 0.63
13 0.15
14 0.15
2 -0.57
21 0.4
22 0.4
23 0.5
3 -0.9
4 -0.14
5 0.09
6 0.1
7 -0.14
8 -0.15
9 -0.15

>  <PUBCHEM_EFFECTIVE_ROTOR_COUNT>  (1) 
1

>  <PUBCHEM_PHARMACOPHORE_FEATURES>  (1) 
6
1 1 acceptor
1 2 acceptor
1 3 cation
1 3 donor
3 1 2 12 anion
6 4 5 6 7 8 9 rings

>  <PUBCHEM_HEAVY_ATOM_COUNT>  (1) 
12

>  <PUBCHEM_ATOM_DEF_STEREO_COUNT>  (1) 
0

>  <PUBCHEM_ATOM_UDEF_STEREO_COUNT>  (1) 
0

>  <PUBCHEM_BOND_DEF_STEREO_COUNT>  (1) 
0

>  <PUBCHEM_BOND_UDEF_STEREO_COUNT>  (1) 
0

>  <PUBCHEM_ISOTOPIC_ATOM_COUNT>  (1) 
0

>  <PUBCHEM_COMPONENT_COUNT>  (1) 
1

>  <PUBCHEM_CACTVS_TAUTO_COUNT>  (1) 
1

>  <PUBCHEM_CONFORMER_ID>  (1) 
0000A9CF00000002

>  <PUBCHEM_MMFF94_ENERGY>  (1) 
49.1944

>  <PUBCHEM_FEATURE_SELFOVERLAP>  (1) 
30.503

>  <PUBCHEM_SHAPE_FINGERPRINT>  (1) 
1 1 18193557993810094692
11206711 2 18336832987498761364
12423570 1 11110420537657318083
12524768 44 18335700601990789299
161256 15 18410864256326893484
16945 1 18410855490435642918
193761 8 18338517422169892560
20645476 183 16600167372266538166
20645477 70 18338508738247362183
20871998 184 17767402383625922054
21040471 1 17762338415478659024
21501502 16 18338799992194263796
2334 1 17762055845385319782
23552423 10 18409451379489844884
23559900 14 17621314638222303766
241688 4 18121779426717791096
2748010 2 18195801873883473054
528886 8 18123469642114092792
63268167 104 18270114750874454953
81228 2 17689715260215570922

>  <PUBCHEM_SHAPE_MULTIPOLES>  (1) 
230.23
3.61
2.52
0.76
0.51
1.28
0.03
-1.82
-0.02
-0.98
0
0.41
-0.17
-0.01

>  <PUBCHEM_SHAPE_SELFOVERLAP>  (1) 
483.131

>  <PUBCHEM_SHAPE_VOLUME>  (1) 
132.3

>  <PUBCHEM_COORDINATE_TYPE>  (1) 
2
5
10

$$$$
