43473
     RDKit          3D

 18 18  0  0  0  0  0  0  0  0999 V2000
    1.0209   -0.7489   -2.2882 O   0  0  0  0  0  0  0  0  0  0  0  0
    1.3467    1.1032    2.0145 O   0  0  0  0  0  0  0  0  0  0  0  0
    4.0428   -2.3883    0.7510 O   0  0  0  0  0  0  0  0  0  0  0  0
    2.5980   -1.5009   -0.8015 N   0  0  0  0  0  0  0  0  0  0  0  0
    2.7602   -0.5762    1.3480 N   0  0  0  0  0  0  0  0  0  0  0  0
    1.4950    0.6461   -0.3623 C   0  0  0  0  0  0  0  0  0  0  0  0
    0.0672    1.1964   -0.4910 C   0  0  0  0  0  0  0  0  0  0  0  0
   -0.9738    0.1523   -0.0875 C   0  0  0  0  0  0  0  0  0  0  0  0
    2.4930    1.6933   -0.8884 C   0  0  0  0  0  0  0  0  0  0  0  0
   -2.3937    0.7152   -0.1848 C   0  0  0  0  0  0  0  0  0  0  0  0
    1.6447   -0.5933   -1.2387 C   0  0  0  0  0  0  0  0  0  0  0  0
    1.8224    0.4174    1.1100 C   0  0  0  0  0  0  0  0  0  0  0  0
   -3.4354   -0.3438    0.1829 C   0  0  0  0  0  0  0  0  0  0  0  0
   -4.8792    0.1443    0.0337 C   0  0  0  0  0  0  0  0  0  0  0  0
    2.4417    2.9551   -0.0568 C   0  0  0  0  0  0  0  0  0  0  0  0
   -5.9201   -0.9361    0.3302 C   0  0  0  0  0  0  0  0  0  0  0  0
    3.2049   -1.5371    0.4480 C   0  0  0  0  0  0  0  0  0  0  0  0
   -7.3352   -0.3986    0.1807 C   0  0  0  0  0  0  0  0  0  0  0  0
  1 11  2  0
  2 12  2  0
  3 17  2  0
  4 11  1  0
  4 17  1  0
  5 12  1  0
  5 17  1  0
  6  7  1  0
  6  9  1  0
  6 11  1  0
  6 12  1  0
  7  8  1  0
  8 10  1  0
  9 15  1  0
 10 13  1  0
 13 14  1  0
 14 16  1  0
 16 18  1  0
M  END
>  <PUBCHEM_COMPOUND_CID>  (1) 
43473

>  <PUBCHEM_CONFORMER_RMSD>  (1) 
0.8

>  <PUBCHEM_CONFORMER_DIVERSEORDER>  (1) 
1
58
69
57
54
26
50
88
87
77
71
21
49
22
56
55
45
70
24
74
67
86
68
80
35
60
47
64
18
53
44
76
8
89
9
17
12
83
66
51
75
63
39
81
84
14
52
43
34
62
33
46
4
73
85
78
10
2
79
42
72
29
61
59
27
5
41
31
48
6
13
65
23
7
36
20
32
15
3
38
40
11
19
30
82
16
28
37
25

>  <PUBCHEM_MMFF94_PARTIAL_CHARGES>  (1) 
11
1 -0.57
11 0.57
12 0.57
17 0.69
2 -0.57
3 -0.57
34 0.37
35 0.37
4 -0.49
5 -0.49
6 0.12

>  <PUBCHEM_EFFECTIVE_ROTOR_COUNT>  (1) 
7.6

>  <PUBCHEM_PHARMACOPHORE_FEATURES>  (1) 
10
1 1 acceptor
1 15 hydrophobe
1 18 hydrophobe
1 2 acceptor
1 3 acceptor
1 4 donor
1 5 donor
3 13 14 16 hydrophobe
3 7 8 10 hydrophobe
6 4 5 6 11 12 17 rings

>  <PUBCHEM_HEAVY_ATOM_COUNT>  (1) 
18

>  <PUBCHEM_ATOM_DEF_STEREO_COUNT>  (1) 
0

>  <PUBCHEM_ATOM_UDEF_STEREO_COUNT>  (1) 
0

>  <PUBCHEM_BOND_DEF_STEREO_COUNT>  (1) 
0

>  <PUBCHEM_BOND_UDEF_STEREO_COUNT>  (1) 
0

>  <PUBCHEM_ISOTOPIC_ATOM_COUNT>  (1) 
0

>  <PUBCHEM_COMPONENT_COUNT>  (1) 
1

>  <PUBCHEM_CACTVS_TAUTO_COUNT>  (1) 
5

>  <PUBCHEM_CONFORMER_ID>  (1) 
0000A9D100000001

>  <PUBCHEM_MMFF94_ENERGY>  (1) 
33.1672

>  <PUBCHEM_FEATURE_SELFOVERLAP>  (1) 
50.8

>  <PUBCHEM_SHAPE_FINGERPRINT>  (1) 
10912923 1 18059302049998222913
12616971 3 18273491283007560887
12616999 72 17775016720860382069
13533116 47 18334576854585170763
13955234 65 18337953497037258544
14178342 30 17771354071507928305
14252887 29 18041001786491438321
14863182 85 16916792851074944558
15210252 30 9079105670521571943
16945 1 17058342831800570028
17844677 252 18334299756481295501
17980427 23 14260193580764257168
20369508 70 18260828185361234307
20559304 39 17132122320380929057
20645477 70 18186237338239836035
21637258 2 17749945540907734722
23081809 10 11242244183243080675
23557571 272 17022893575851327213
23559900 14 17822297920141515639
23590187 302 14056722340010917319
239999 70 17530685450196044017
3060560 45 14201405983966774002
31174 14 18334007315419168692
312423 11 18261684696677932061
3286 77 18187365393993375773
427121 178 14692563312867861566
465052 167 18412266112125022927
5104073 3 18411991256600017353
5374978 207 17346600777268259641
54040823 5 18409737261577806852
7364860 26 18335701671928555144
960060 61 16370730335779241487

>  <PUBCHEM_SHAPE_MULTIPOLES>  (1) 
342.86
11.76
2.1
1.38
31.39
0.48
0.1
-4.25
-1.7
-3.63
-0.11
-1.35
-0.12
-0.14

>  <PUBCHEM_SHAPE_SELFOVERLAP>  (1) 
682.176

>  <PUBCHEM_SHAPE_VOLUME>  (1) 
200.9

>  <PUBCHEM_COORDINATE_TYPE>  (1) 
2
5
10

$$$$
