43485
     RDKit          3D

 25 26  0  0  0  0  0  0  0  0999 V2000
   -3.1668   -1.6514   -0.4479 O   0  0  0  0  0  0  0  0  0  0  0  0
    1.2495    0.0229   -0.3319 O   0  0  0  0  0  0  0  0  0  0  0  0
    3.7335   -2.6526    0.1576 N   0  0  0  0  0  0  0  0  0  0  0  0
   -4.5840   -1.5392   -0.1947 C   0  0  0  0  0  0  0  0  0  0  0  0
   -0.5151    1.3933    0.5326 C   0  0  0  0  0  0  0  0  0  0  0  0
    0.4475    2.4807    0.8799 C   0  0  0  0  0  0  0  0  0  0  0  0
    0.6745    3.5090   -0.2423 C   0  0  0  0  0  0  0  0  0  0  0  0
   -2.7929    0.5651    0.4890 C   0  0  0  0  0  0  0  0  0  0  0  0
   -2.3436   -0.6169   -0.1033 C   0  0  0  0  0  0  0  0  0  0  0  0
   -0.0715    0.2123   -0.0583 C   0  0  0  0  0  0  0  0  0  0  0  0
   -1.8721    1.5708    0.8063 C   0  0  0  0  0  0  0  0  0  0  0  0
    1.7171    4.5696    0.1250 C   0  0  0  0  0  0  0  0  0  0  0  0
   -5.0419   -0.2503    0.4466 C   0  0  0  0  0  0  0  0  0  0  0  0
   -0.9844   -0.7923   -0.3764 C   0  0  0  0  0  0  0  0  0  0  0  0
   -4.2075    0.7399    0.7693 C   0  0  0  0  0  0  0  0  0  0  0  0
   -4.9529   -2.7150    0.7176 C   0  0  0  0  0  0  0  0  0  0  0  0
   -5.2775   -1.7020   -1.5524 C   0  0  0  0  0  0  0  0  0  0  0  0
    3.2012   -1.2997    0.0937 C   0  0  0  0  0  0  0  0  0  0  0  0
    1.7324   -1.3187   -0.2986 C   0  0  0  0  0  0  0  0  0  0  0  0
    1.9323    5.5554   -1.0240 C   0  0  0  0  0  0  0  0  0  0  0  0
    3.5994   -3.3242   -1.1376 C   0  0  0  0  0  0  0  0  0  0  0  0
    5.1372   -2.6380    0.5762 C   0  0  0  0  0  0  0  0  0  0  0  0
    2.9942    6.5878   -0.6804 C   0  0  0  0  0  0  0  0  0  0  0  0
    4.0888   -4.7606   -1.0645 C   0  0  0  0  0  0  0  0  0  0  0  0
    5.3026   -1.9460    1.9186 C   0  0  0  0  0  0  0  0  0  0  0  0
  1  4  1  0
  1  9  1  0
  2 10  1  0
  2 19  1  0
  3 18  1  0
  3 21  1  0
  3 22  1  0
  4 13  1  0
  4 16  1  0
  4 17  1  0
  5  6  1  0
  5 10  1  0
  5 11  2  0
  6  7  1  0
  7 12  1  0
  8  9  2  0
  8 11  1  0
  8 15  1  0
  9 14  1  0
 10 14  2  0
 12 20  1  0
 13 15  2  0
 18 19  1  0
 20 23  1  0
 21 24  1  0
 22 25  1  0
M  END
>  <PUBCHEM_COMPOUND_CID>  (1) 
43485

>  <PUBCHEM_CONFORMER_RMSD>  (1) 
1

>  <PUBCHEM_CONFORMER_DIVERSEORDER>  (1) 
10
101
32
20
110
62
75
99
22
86
68
64
34
60
78
106
52
53
36
111
35
69
58
28
97
49
46
18
73
37
83
24
54
11
13
21
55
72
1
87
42
39
89
29
93
112
38
17
105
98
33
47
7
23
91
5
43
16
67
2
80
19
4
84
45
70
56
90
81
92
41
40
6
95
74
31
57
63
76
48
50
61
85
8
51
14
25
59
26
77
12
66
27
15
3
65
9
96
30
88
71
94
100
114
108
107
109
82
113
79
103
104
44
102
115

>  <PUBCHEM_MMFF94_PARTIAL_CHARGES>  (1) 
21
1 -0.36
10 0.08
11 -0.15
13 -0.29
14 -0.15
15 -0.18
18 0.27
19 0.28
2 -0.36
21 0.27
22 0.27
3 -0.81
30 0.15
33 0.15
34 0.15
35 0.15
4 0.42
5 -0.14
6 0.14
8 0.03
9 0.08

>  <PUBCHEM_EFFECTIVE_ROTOR_COUNT>  (1) 
10.4

>  <PUBCHEM_PHARMACOPHORE_FEATURES>  (1) 
8
1 1 acceptor
1 2 acceptor
1 23 hydrophobe
1 3 cation
3 4 16 17 hydrophobe
4 6 7 12 20 hydrophobe
6 1 4 8 9 13 15 rings
6 5 8 9 10 11 14 rings

>  <PUBCHEM_HEAVY_ATOM_COUNT>  (1) 
25

>  <PUBCHEM_ATOM_DEF_STEREO_COUNT>  (1) 
0

>  <PUBCHEM_ATOM_UDEF_STEREO_COUNT>  (1) 
0

>  <PUBCHEM_BOND_DEF_STEREO_COUNT>  (1) 
0

>  <PUBCHEM_BOND_UDEF_STEREO_COUNT>  (1) 
0

>  <PUBCHEM_ISOTOPIC_ATOM_COUNT>  (1) 
0

>  <PUBCHEM_COMPONENT_COUNT>  (1) 
1

>  <PUBCHEM_CACTVS_TAUTO_COUNT>  (1) 
1

>  <PUBCHEM_CONFORMER_ID>  (1) 
0000A9DD0000000A

>  <PUBCHEM_MMFF94_ENERGY>  (1) 
59.9651

>  <PUBCHEM_FEATURE_SELFOVERLAP>  (1) 
40.626

>  <PUBCHEM_SHAPE_FINGERPRINT>  (1) 
107951 10 17404314387017897364
11045515 52 18189057507950118036
11056379 131 17834405518764221014
11763715 3 18121246211139477854
11963148 33 17475505553304193031
12788726 201 17755585936319725834
13540713 5 18129953394423668089
13690498 29 17840881681202498814
13941206 138 17689157133410819708
13968360 50 17905317782204919757
14394314 77 18264768753615584203
15042514 8 18052826844842345739
15230672 131 16536249381590760550
15927050 60 17475237276987667204
15961568 22 18411136914685038352
1813 80 18336546027743396122
19319366 153 17838617008743306597
20600515 1 18128546955030907061
21304303 282 17038070959309296596
23366157 5 18336266867770122689
23559900 14 18409440419376922835
25147074 1 17988092205126698289
255183 313 17551806819690309057
4409770 3 17758112597209327117
5104073 3 18129953385802261019
6058803 2 18129955576177435601
7399639 24 18057869274578523394
77188 2 18338240366730250076
9981440 41 17688312699832588537

>  <PUBCHEM_SHAPE_MULTIPOLES>  (1) 
497.77
11.65
8.37
1.19
4.76
14.85
-0.06
-14.22
-0.96
-16.07
3.22
-0.54
-0.47
-1.32

>  <PUBCHEM_SHAPE_SELFOVERLAP>  (1) 
1009.498

>  <PUBCHEM_SHAPE_VOLUME>  (1) 
293.5

>  <PUBCHEM_COORDINATE_TYPE>  (1) 
2
5
10

$$$$
