4348
     RDKit          3D

 11 11  0  0  0  0  0  0  0  0999 V2000
    5.1217   -0.0276    0.1656 O   0  0  0  0  0  0  0  0  0  0  0  0
    1.4309    0.0135    0.1558 N   0  0  0  0  0  0  0  0  0  0  0  0
    0.4497    0.0209   -0.9307 C   0  0  0  0  0  0  0  0  0  0  0  0
   -0.9543    0.0078   -0.4283 C   0  0  0  0  0  0  0  0  0  0  0  0
    2.7845    0.0370   -0.3745 C   0  0  0  0  0  0  0  0  0  0  0  0
    3.8190   -0.0177    0.7348 C   0  0  0  0  0  0  0  0  0  0  0  0
   -1.6048   -1.2061   -0.2074 C   0  0  0  0  0  0  0  0  0  0  0  0
   -1.6172    1.2096   -0.1796 C   0  0  0  0  0  0  0  0  0  0  0  0
   -2.9180   -1.2183    0.2625 C   0  0  0  0  0  0  0  0  0  0  0  0
   -2.9306    1.1974    0.2903 C   0  0  0  0  0  0  0  0  0  0  0  0
   -3.5809   -0.0166    0.5114 C   0  0  0  0  0  0  0  0  0  0  0  0
  1  6  1  0
  2  3  1  0
  2  5  1  0
  3  4  1  0
  4  7  2  0
  4  8  1  0
  5  6  1  0
  7  9  1  0
  8 10  2  0
  9 11  2  0
 10 11  1  0
M  END
>  <PUBCHEM_COMPOUND_CID>  (1) 
4348

>  <PUBCHEM_CONFORMER_RMSD>  (1) 
0.6

>  <PUBCHEM_CONFORMER_DIVERSEORDER>  (1) 
1
13
11
7
12
5
6
4
3
2
8
10
9

>  <PUBCHEM_MMFF94_PARTIAL_CHARGES>  (1) 
18
1 -0.68
10 -0.15
11 -0.15
16 0.36
19 0.15
2 -0.9
20 0.15
21 0.15
22 0.15
23 0.15
24 0.4
3 0.41
4 -0.14
5 0.27
6 0.28
7 -0.15
8 -0.15
9 -0.15

>  <PUBCHEM_EFFECTIVE_ROTOR_COUNT>  (1) 
4

>  <PUBCHEM_PHARMACOPHORE_FEATURES>  (1) 
5
1 1 acceptor
1 1 donor
1 2 cation
1 2 donor
6 4 7 8 9 10 11 rings

>  <PUBCHEM_HEAVY_ATOM_COUNT>  (1) 
11

>  <PUBCHEM_ATOM_DEF_STEREO_COUNT>  (1) 
0

>  <PUBCHEM_ATOM_UDEF_STEREO_COUNT>  (1) 
0

>  <PUBCHEM_BOND_DEF_STEREO_COUNT>  (1) 
0

>  <PUBCHEM_BOND_UDEF_STEREO_COUNT>  (1) 
0

>  <PUBCHEM_ISOTOPIC_ATOM_COUNT>  (1) 
0

>  <PUBCHEM_COMPONENT_COUNT>  (1) 
1

>  <PUBCHEM_CACTVS_TAUTO_COUNT>  (1) 
1

>  <PUBCHEM_CONFORMER_ID>  (1) 
000010FC00000001

>  <PUBCHEM_MMFF94_ENERGY>  (1) 
16.9146

>  <PUBCHEM_FEATURE_SELFOVERLAP>  (1) 
25.371

>  <PUBCHEM_SHAPE_FINGERPRINT>  (1) 
12251169 10 18409450297216167028
13024252 1 14562529570672831525
13214271 11 17917991676802552365
13897977 58 18410299146305778140
15219456 202 17917439670061850102
200 152 15430033275019161715
20279233 1 17775290456163386286
20645464 45 17917998273782479319
20645477 70 13190605128137728872
20711985 327 17240206542742821278
20828058 44 18408039607050390882
20871999 31 9655293692812019211
21119208 17 10519984863726268720
22485316 2 16009025086115584792
23402539 116 18272644667512115703
23403322 49 12540687107419900856
42 15 18408603635162033178

>  <PUBCHEM_SHAPE_MULTIPOLES>  (1) 
215.52
8.1
1.16
0.82
10.42
0.01
0.04
0.07
-2.08
-1.22
-0.02
0.12
0
-0.02

>  <PUBCHEM_SHAPE_SELFOVERLAP>  (1) 
429.207

>  <PUBCHEM_SHAPE_VOLUME>  (1) 
128.1

>  <PUBCHEM_COORDINATE_TYPE>  (1) 
2
5
10

$$$$
