43493
     RDKit          3D

 12 11  0  0  0  0  0  0  0  0999 V2000
    1.7830   -0.0126    0.1760 O   0  0  0  0  0  0  0  0  0  0  0  0
   -2.6901   -0.1063    0.2861 O   0  0  0  0  0  0  0  0  0  0  0  0
    0.9610   -2.0055   -0.6969 O   0  0  0  0  0  0  0  0  0  0  0  0
   -0.5562    1.9140    0.8683 O   0  0  0  0  0  0  0  0  0  0  0  0
   -1.5638   -0.9318    0.1644 N   0  0  0  0  0  0  0  0  0  0  0  0
    3.1321   -0.4733    0.0633 C   0  0  0  0  0  0  0  0  0  0  0  0
   -0.4938   -0.2372   -0.0660 C   0  0  0  0  0  0  0  0  0  0  0  0
    4.0658    0.6075    0.5649 C   0  0  0  0  0  0  0  0  0  0  0  0
    0.8473   -0.8861   -0.2399 C   0  0  0  0  0  0  0  0  0  0  0  0
   -0.6819    1.2519   -0.1505 C   0  0  0  0  0  0  0  0  0  0  0  0
   -0.9861    1.8112   -1.5058 C   0  0  0  0  0  0  0  0  0  0  0  0
   -3.8174   -0.9317    0.5361 C   0  0  0  0  0  0  0  0  0  0  0  0
  1  6  1  0
  1  9  1  0
  2  5  1  0
  2 12  1  0
  3  9  2  0
  4 10  2  0
  5  7  2  0
  6  8  1  0
  7  9  1  0
  7 10  1  0
 10 11  1  0
M  END
>  <PUBCHEM_COMPOUND_CID>  (1) 
43493

>  <PUBCHEM_CONFORMER_RMSD>  (1) 
0.6

>  <PUBCHEM_CONFORMER_DIVERSEORDER>  (1) 
1
72
68
25
48
66
40
57
28
69
39
51
44
83
60
12
67
82
37
36
22
38
76
54
8
49
43
74
84
56
32
21
73
55
34
42
79
33
61
24
77
41
46
50
47
30
27
70
81
65
4
29
64
80
78
2
75
5
9
31
35
26
23
52
11
16
59
14
53
71
19
20
7
45
3
10
18
58
17
13
6
62
15
63

>  <PUBCHEM_MMFF94_PARTIAL_CHARGES>  (1) 
11
1 -0.43
10 0.51
11 0.06
12 0.28
2 -0.22
3 -0.57
4 -0.57
5 -0.51
6 0.28
7 0.45
9 0.72

>  <PUBCHEM_EFFECTIVE_ROTOR_COUNT>  (1) 
5

>  <PUBCHEM_PHARMACOPHORE_FEATURES>  (1) 
4
1 3 acceptor
1 4 acceptor
1 5 acceptor
1 7 anion

>  <PUBCHEM_HEAVY_ATOM_COUNT>  (1) 
12

>  <PUBCHEM_ATOM_DEF_STEREO_COUNT>  (1) 
0

>  <PUBCHEM_ATOM_UDEF_STEREO_COUNT>  (1) 
0

>  <PUBCHEM_BOND_DEF_STEREO_COUNT>  (1) 
0

>  <PUBCHEM_BOND_UDEF_STEREO_COUNT>  (1) 
1

>  <PUBCHEM_ISOTOPIC_ATOM_COUNT>  (1) 
0

>  <PUBCHEM_COMPONENT_COUNT>  (1) 
1

>  <PUBCHEM_CACTVS_TAUTO_COUNT>  (1) 
2

>  <PUBCHEM_CONFORMER_ID>  (1) 
0000A9E500000001

>  <PUBCHEM_MMFF94_ENERGY>  (1) 
17.0208

>  <PUBCHEM_FEATURE_SELFOVERLAP>  (1) 
20.301

>  <PUBCHEM_SHAPE_FINGERPRINT>  (1) 
10219947 1 18341899631568963179
10857977 72 18410289224614495027
11132069 177 18341328984960235954
12932764 1 15984808295575185178
14252887 29 18339098037487469467
14614273 12 18263076634958030084
15219456 202 18269272365890414286
16945 1 18341908401897215907
17846911 113 18341888615125288818
18380122 1 18410857624907990078
21028194 46 18337106774916417958
21061003 4 18201995547062636952
23402539 116 18187918508545938215
2748010 2 18195529181867138510
3250762 1 17909557155254115463
5084963 1 18187930538980981644
58734985 188 18199473327802787209
81228 2 17897745175231104897

>  <PUBCHEM_SHAPE_MULTIPOLES>  (1) 
218.5
5.61
1.84
0.94
2.09
0.53
-0.16
-1.21
1.67
-0.56
-0.41
-0.13
0.34
0.6

>  <PUBCHEM_SHAPE_SELFOVERLAP>  (1) 
417.331

>  <PUBCHEM_SHAPE_VOLUME>  (1) 
134.8

>  <PUBCHEM_COORDINATE_TYPE>  (1) 
2
5
10

$$$$
