43494
     RDKit          3D

 22 26  0  0  0  0  0  0  0  0999 V2000
   -1.1884    3.2186   -0.1849 O   0  0  0  0  0  0  0  0  0  0  0  0
    0.6771    0.1119   -0.1269 C   0  0  0  0  0  0  0  0  0  0  0  0
   -0.5008   -0.8097   -0.2292 C   0  0  0  0  0  0  0  0  0  0  0  0
   -1.8069   -0.3093    0.0069 C   0  0  0  0  0  0  0  0  0  0  0  0
    0.4270    1.5004   -0.2133 C   0  0  0  0  0  0  0  0  0  0  0  0
   -2.0555    1.0651    0.1524 C   0  0  0  0  0  0  0  0  0  0  0  0
    2.0469   -0.2987    0.0668 C   0  0  0  0  0  0  0  0  0  0  0  0
   -2.9229   -1.1874    0.0537 C   0  0  0  0  0  0  0  0  0  0  0  0
   -0.9565    2.0192   -0.0951 C   0  0  0  0  0  0  0  0  0  0  0  0
    3.0858    0.6650   -0.0813 C   0  0  0  0  0  0  0  0  0  0  0  0
   -0.4006   -2.1549   -0.6269 C   0  0  0  0  0  0  0  0  0  0  0  0
    1.4594    2.4323   -0.3336 C   0  0  0  0  0  0  0  0  0  0  0  0
   -3.3370    1.5565    0.4309 C   0  0  0  0  0  0  0  0  0  0  0  0
    2.7775    2.0061   -0.3134 C   0  0  0  0  0  0  0  0  0  0  0  0
   -2.7466   -2.5436   -0.2296 C   0  0  0  0  0  0  0  0  0  0  0  0
   -4.2015   -0.6884    0.3486 C   0  0  0  0  0  0  0  0  0  0  0  0
    2.4756   -1.5960    0.4567 C   0  0  0  0  0  0  0  0  0  0  0  0
   -1.4983   -3.0161   -0.6069 C   0  0  0  0  0  0  0  0  0  0  0  0
   -4.4040    0.6742    0.5490 C   0  0  0  0  0  0  0  0  0  0  0  0
    4.4384    0.3005    0.0355 C   0  0  0  0  0  0  0  0  0  0  0  0
    3.8239   -1.9455    0.5859 C   0  0  0  0  0  0  0  0  0  0  0  0
    4.8075   -1.0004    0.3549 C   0  0  0  0  0  0  0  0  0  0  0  0
  1  9  2  0
  2  3  1  0
  2  5  2  0
  2  7  1  0
  3  4  1  0
  3 11  2  0
  4  6  2  0
  4  8  1  0
  5  9  1  0
  5 12  1  0
  6  9  1  0
  6 13  1  0
  7 10  2  0
  7 17  1  0
  8 15  1  0
  8 16  2  0
 10 14  1  0
 10 20  1  0
 11 18  1  0
 12 14  2  0
 13 19  2  0
 15 18  2  0
 16 19  1  0
 17 21  2  0
 20 22  2  0
 21 22  1  0
M  END
>  <PUBCHEM_COMPOUND_CID>  (1) 
43494

>  <PUBCHEM_CONFORMER_RMSD>  (1) 
0.6

>  <PUBCHEM_CONFORMER_DIVERSEORDER>  (1) 
1
2

>  <PUBCHEM_MMFF94_PARTIAL_CHARGES>  (1) 
28
1 -0.57
11 -0.15
12 -0.15
13 -0.15
14 -0.15
15 -0.15
16 -0.15
17 -0.15
18 -0.15
19 -0.15
20 -0.15
21 -0.15
22 -0.15
23 0.15
24 0.15
25 0.15
26 0.15
27 0.15
28 0.15
29 0.15
30 0.15
31 0.15
32 0.15
33 0.15
34 0.15
5 0.09
6 0.09
9 0.4

>  <PUBCHEM_EFFECTIVE_ROTOR_COUNT>  (1) 
0

>  <PUBCHEM_PHARMACOPHORE_FEATURES>  (1) 
6
1 1 acceptor
6 2 3 4 5 6 9 rings
6 2 5 7 10 12 14 rings
6 3 4 8 11 15 18 rings
6 4 6 8 13 16 19 rings
6 7 10 17 20 21 22 rings

>  <PUBCHEM_HEAVY_ATOM_COUNT>  (1) 
22

>  <PUBCHEM_ATOM_DEF_STEREO_COUNT>  (1) 
0

>  <PUBCHEM_ATOM_UDEF_STEREO_COUNT>  (1) 
0

>  <PUBCHEM_BOND_DEF_STEREO_COUNT>  (1) 
0

>  <PUBCHEM_BOND_UDEF_STEREO_COUNT>  (1) 
0

>  <PUBCHEM_ISOTOPIC_ATOM_COUNT>  (1) 
0

>  <PUBCHEM_COMPONENT_COUNT>  (1) 
1

>  <PUBCHEM_CACTVS_TAUTO_COUNT>  (1) 
1

>  <PUBCHEM_CONFORMER_ID>  (1) 
0000A9E600000001

>  <PUBCHEM_MMFF94_ENERGY>  (1) 
88.9159

>  <PUBCHEM_FEATURE_SELFOVERLAP>  (1) 
30.567

>  <PUBCHEM_SHAPE_FINGERPRINT>  (1) 
10062212 137 18343017835047431207
10319926 262 18198316526497748618
10369192 42 16912254265314232176
10616163 171 18340491187207119110
10759866 29 18189347916595818156
10967382 1 18411139155803470101
1100329 8 18410856585530919369
11578080 2 17416393479714851066
12251169 10 18411138026031866394
12422481 6 18194989360871782417
12553582 1 18409440401980905550
12633257 1 18130517361466771625
12788726 201 17917445185037741936
13140716 1 18411705408755501835
13583140 156 17603302627302233355
138480 1 15240036136768742876
14081887 123 18200296836236958616
14178342 30 17837195344603805536
14790565 3 18267875981813068201
15042514 8 18410858767527728099
15196674 1 18410293635466857993
15209289 33 18040998440495539986
15256400 18 18340770334221494674
15375462 189 18113893845398528282
15403338 16 17170945943183317091
15442244 35 18410855494662122910
15536298 74 18341332288048568888
16110190 28 18339354176905625722
16728300 4 17318434406899719939
16945 1 18338797818856240717
17349148 13 18131066043733721951
17492 89 18265898132161807522
17804303 29 18342178851708831920
1813 80 17385442124762237876
19591789 44 18122627145882992782
20028762 73 18131349743905302519
20261772 1 18411706477849073602
20510252 161 18129098914025757848
20775438 99 16330987624821585975
20905425 154 17911246331542183676
21033648 29 17843942794171218784
21267235 1 18409739477311725491
21421861 104 18114454566485456418
22182313 1 18052826836289471215
23184049 59 18410016515750444299
2334 1 18339645662970665397
23366157 5 18042965578678069436
23402539 116 18272362071301124815
23463225 33 18410013251453967149
23559900 14 18271522083125242800
2748010 2 17546455475074859861
335352 9 18410575046108658973
34934 24 18337950207081473976
350125 39 18410858724609794633
4409770 3 17610042491831099820
5104073 3 18339363066675097488
58807428 26 18197231256332477651
7064713 232 18201439108311148729
7097593 13 18408316671001152274
7471813 234 17697577141768911439
7832392 63 18339642359961466606
90525 40 18343022207139587271
9709674 26 18412832395200049054

>  <PUBCHEM_SHAPE_MULTIPOLES>  (1) 
446.88
8.17
3.3
0.73
2.83
0.07
0
-1.54
1.62
-0.77
-0.45
-0.01
-0.11
-0.87

>  <PUBCHEM_SHAPE_SELFOVERLAP>  (1) 
1043.412

>  <PUBCHEM_SHAPE_VOLUME>  (1) 
225.8

>  <PUBCHEM_COORDINATE_TYPE>  (1) 
2
5
10

$$$$
