43491
     RDKit          3D

 29 32  0  0  0  0  0  0  0  0999 V2000
   -0.3621    0.2649    0.8768 O   0  0  0  0  0  0  0  0  0  0  0  0
    2.5889   -1.2711   -0.3277 O   0  0  0  0  0  0  0  0  0  0  0  0
    5.7746    2.3522   -0.4942 O   0  0  0  0  0  0  0  0  0  0  0  0
   -3.5219    1.5220   -0.5258 N   0  0  0  0  0  0  0  0  0  0  0  0
   -2.6514    1.0535    0.5424 C   0  0  0  0  0  0  0  0  0  0  0  0
   -3.8087    0.4789   -1.5104 C   0  0  0  0  0  0  0  0  0  0  0  0
   -4.8309    1.9487   -0.0326 C   0  0  0  0  0  0  0  0  0  0  0  0
   -4.9981    1.0458   -2.2715 C   0  0  0  0  0  0  0  0  0  0  0  0
   -5.6678    2.0145   -1.3015 C   0  0  0  0  0  0  0  0  0  0  0  0
   -2.4018    2.2239    1.5380 C   0  0  0  0  0  0  0  0  0  0  0  0
   -3.3029   -0.1486    1.2807 C   0  0  0  0  0  0  0  0  0  0  0  0
   -1.3036    0.6686   -0.1106 C   0  0  0  0  0  0  0  0  0  0  0  0
   -1.7628    3.4810    0.9550 C   0  0  0  0  0  0  0  0  0  0  0  0
   -2.4898   -0.7441    2.4266 C   0  0  0  0  0  0  0  0  0  0  0  0
    0.8962   -0.0507    0.4364 C   0  0  0  0  0  0  0  0  0  0  0  0
    1.9901    0.8150    0.2985 C   0  0  0  0  0  0  0  0  0  0  0  0
    1.2852   -1.2951    0.0533 C   0  0  0  0  0  0  0  0  0  0  0  0
    3.0209    0.0128   -0.1800 C   0  0  0  0  0  0  0  0  0  0  0  0
    0.6484   -2.5798   -0.0350 C   0  0  0  0  0  0  0  0  0  0  0  0
    2.2472    2.1798    0.5165 C   0  0  0  0  0  0  0  0  0  0  0  0
    4.3050    0.4755   -0.4618 C   0  0  0  0  0  0  0  0  0  0  0  0
    3.5297    2.6746    0.2427 C   0  0  0  0  0  0  0  0  0  0  0  0
    4.5384    1.8358   -0.2382 C   0  0  0  0  0  0  0  0  0  0  0  0
    0.0012   -2.9640   -1.2130 C   0  0  0  0  0  0  0  0  0  0  0  0
    0.6712   -3.4535    1.0560 C   0  0  0  0  0  0  0  0  0  0  0  0
   -0.6181   -4.2107   -1.2993 C   0  0  0  0  0  0  0  0  0  0  0  0
    0.0519   -4.7005    0.9696 C   0  0  0  0  0  0  0  0  0  0  0  0
   -0.5927   -5.0790   -0.2081 C   0  0  0  0  0  0  0  0  0  0  0  0
    6.7636    1.4496   -0.9829 C   0  0  0  0  0  0  0  0  0  0  0  0
  1 12  1  0
  1 15  1  0
  2 17  1  0
  2 18  1  0
  3 23  1  0
  3 29  1  0
  4  5  1  0
  4  6  1  0
  4  7  1  0
  5 10  1  0
  5 11  1  0
  5 12  1  0
  6  8  1  0
  7  9  1  0
  8  9  1  0
 10 13  1  0
 11 14  1  0
 15 16  1  0
 15 17  2  0
 16 18  2  0
 16 20  1  0
 17 19  1  0
 18 21  1  0
 19 24  2  0
 19 25  1  0
 20 22  2  0
 21 23  2  0
 22 23  1  0
 24 26  1  0
 25 27  2  0
 26 28  2  0
 27 28  1  0
M  END
>  <PUBCHEM_COMPOUND_CID>  (1) 
43491

>  <PUBCHEM_CONFORMER_RMSD>  (1) 
1

>  <PUBCHEM_CONFORMER_DIVERSEORDER>  (1) 
1
27
19
14
18
10
11
24
17
20
9
8
13
25
21
15
3
5
12
16
4
2
26
23
6
7
22

>  <PUBCHEM_MMFF94_PARTIAL_CHARGES>  (1) 
30
1 -0.34
12 0.28
15 0.06
17 0.09
18 0.14
19 0.05
2 -0.28
20 -0.15
21 -0.15
22 -0.15
23 0.08
24 -0.15
25 -0.15
26 -0.15
27 -0.15
28 -0.15
29 0.28
3 -0.36
4 -0.81
5 0.27
50 0.15
51 0.15
52 0.15
53 0.15
54 0.15
55 0.15
56 0.15
57 0.15
6 0.27
7 0.27

>  <PUBCHEM_EFFECTIVE_ROTOR_COUNT>  (1) 
9

>  <PUBCHEM_PHARMACOPHORE_FEATURES>  (1) 
10
1 1 acceptor
1 13 hydrophobe
1 14 hydrophobe
1 2 acceptor
1 3 acceptor
1 4 cation
5 2 15 16 17 18 rings
5 4 6 7 8 9 rings
6 16 18 20 21 22 23 rings
6 19 24 25 26 27 28 rings

>  <PUBCHEM_HEAVY_ATOM_COUNT>  (1) 
29

>  <PUBCHEM_ATOM_DEF_STEREO_COUNT>  (1) 
0

>  <PUBCHEM_ATOM_UDEF_STEREO_COUNT>  (1) 
0

>  <PUBCHEM_BOND_DEF_STEREO_COUNT>  (1) 
0

>  <PUBCHEM_BOND_UDEF_STEREO_COUNT>  (1) 
0

>  <PUBCHEM_ISOTOPIC_ATOM_COUNT>  (1) 
0

>  <PUBCHEM_COMPONENT_COUNT>  (1) 
1

>  <PUBCHEM_CACTVS_TAUTO_COUNT>  (1) 
1

>  <PUBCHEM_CONFORMER_ID>  (1) 
0000A9E300000001

>  <PUBCHEM_MMFF94_ENERGY>  (1) 
90.205

>  <PUBCHEM_FEATURE_SELFOVERLAP>  (1) 
50.85

>  <PUBCHEM_SHAPE_FINGERPRINT>  (1) 
10090160 65 18340761559862051117
10119406 146 18128840602925805494
1100329 8 18410009893750306754
11045515 52 17331959929045798190
11049842 53 15477617694881561773
11069576 57 17840562839819876199
11146346 60 18041831940195312248
11991303 11 18261118529735750422
12293681 160 18060134349218151737
12553582 1 17186734814104476499
12730499 353 18335143042859634545
12788726 201 18048865592253268410
13583140 156 17676486211278053512
1361 2 18336533985272439669
13690498 29 17694247830041081220
13911987 19 18410008853761397341
14202776 33 17535210039592276180
15219462 58 17904518154289937945
15324884 4 18115893882465679146
15842332 3 17628354875187344089
17138139 8 17700943748068695559
17899979 129 18264768749315803117
17980427 23 13984957241614053483
18365409 1 18266170828794552207
19301676 85 18126023576885041990
19319366 153 18270382924596121143
19427546 20 18048887587439784548
20775438 99 17124195026481628517
21033648 144 18114181895764648581
21033648 29 18337667628594340776
21307412 95 18128563543238506052
21641784 216 17181950272065394748
2255824 54 18196931071966840567
23559900 14 18191581939650479235
238 59 18340484448656535427
23929065 36 17838314630688098656
3103668 31 18048592917997019175
376196 1 18113893819507431201
4058900 60 18337394837872203597
4409770 3 18194120939342597635
53917941 68 18267295603271853454
550186 7 16733526239966811588
563151 97 18268153067470391360
59755656 520 18200607993463424819
6669772 16 18342185436427005990
9981440 41 18409444765493722713

>  <PUBCHEM_SHAPE_MULTIPOLES>  (1) 
574.22
10.9
5.91
1.62
5.53
9.45
-0.06
-14.14
5.41
0.37
-0.22
-2.2
0.11
0.01

>  <PUBCHEM_SHAPE_SELFOVERLAP>  (1) 
1237.829

>  <PUBCHEM_SHAPE_VOLUME>  (1) 
322

>  <PUBCHEM_COORDINATE_TYPE>  (1) 
2
5
10

$$$$
