4349
     RDKit          3D

 34 36  0  0  1  0  0  0  0  0999 V2000
   -2.6709    0.4642   -1.2549 O   0  0  0  0  0  0  0  0  0  0  0  0
    0.7710   -0.3734   -0.6970 O   0  0  0  0  0  0  0  0  0  0  0  0
   -3.0070   -4.1094    0.6346 O   0  0  0  0  0  0  0  0  0  0  0  0
    4.7776    0.5789   -0.1561 O   0  0  0  0  0  0  0  0  0  0  0  0
    3.3418    1.9712    0.9731 O   0  0  0  0  0  0  0  0  0  0  0  0
   -0.5027    1.4417   -0.0338 N   0  0  0  0  0  0  0  0  0  0  0  0
   -2.8838   -1.1815    0.3777 N   0  0  0  0  0  0  0  0  0  0  0  0
    2.8328    1.1597   -1.1419 N   0  0  0  0  0  0  0  0  0  0  0  0
   -1.4483    0.6921    0.7828 C   0  0  0  0  0  0  0  0  0  0  0  0
   -2.1623    1.7492    1.6173 C   0  0  0  0  0  0  0  0  0  0  0  0
   -2.1142    2.9921    0.7321 C   0  0  0  0  0  0  0  0  0  0  0  0
   -0.7643    2.8768    0.0406 C   0  0  0  0  0  0  0  0  0  0  0  0
   -2.3874   -0.0043   -0.1555 C   0  0  0  0  0  0  0  0  0  0  0  0
    0.5831    0.8435   -0.6543 C   0  0  0  0  0  0  0  0  0  0  0  0
   -3.8256   -2.0288   -0.3174 C   0  0  0  0  0  0  0  0  0  0  0  0
    1.5573    1.7883   -1.3115 C   0  0  0  0  0  0  0  0  0  0  0  0
   -3.2174   -3.4190   -0.5950 C   0  0  0  0  0  0  0  0  0  0  0  0
   -5.1357   -2.0855    0.4928 C   0  0  0  0  0  0  0  0  0  0  0  0
    1.2061    1.9921   -2.7668 C   0  0  0  0  0  0  0  0  0  0  0  0
   -5.9690   -0.8316    0.3973 C   0  0  0  0  0  0  0  0  0  0  0  0
   -1.9005   -3.3531   -1.3624 C   0  0  0  0  0  0  0  0  0  0  0  0
   -6.9287   -0.7067   -0.6074 C   0  0  0  0  0  0  0  0  0  0  0  0
   -5.7796    0.2032    1.3133 C   0  0  0  0  0  0  0  0  0  0  0  0
    3.6256    1.2999   -0.0136 C   0  0  0  0  0  0  0  0  0  0  0  0
   -7.6989    0.4530   -0.6957 C   0  0  0  0  0  0  0  0  0  0  0  0
   -6.5499    1.3627    1.2250 C   0  0  0  0  0  0  0  0  0  0  0  0
   -7.5094    1.4876    0.2205 C   0  0  0  0  0  0  0  0  0  0  0  0
    5.6909    0.6372    0.9453 C   0  0  0  0  0  0  0  0  0  0  0  0
    6.8936   -0.2025    0.6293 C   0  0  0  0  0  0  0  0  0  0  0  0
    7.9919    0.3667   -0.0155 C   0  0  0  0  0  0  0  0  0  0  0  0
    6.9134   -1.5526    0.9798 C   0  0  0  0  0  0  0  0  0  0  0  0
    9.1098   -0.4142   -0.3095 C   0  0  0  0  0  0  0  0  0  0  0  0
    8.0312   -2.3332    0.6858 C   0  0  0  0  0  0  0  0  0  0  0  0
    9.1294   -1.7642    0.0412 C   0  0  0  0  0  0  0  0  0  0  0  0
  1 13  2  0
  2 14  2  0
  3 17  1  0
  4 24  1  0
  4 28  1  0
  5 24  2  0
  6  9  1  0
  6 12  1  0
  6 14  1  0
  7 13  1  0
  7 15  1  0
  8 16  1  0
  8 24  1  0
  9 10  1  0
  9 13  1  0
 10 11  1  0
 11 12  1  0
 14 16  1  0
 15 17  1  0
 15 18  1  0
 16 19  1  0
 17 21  1  0
 18 20  1  0
 20 22  2  0
 20 23  1  0
 22 25  1  0
 23 26  2  0
 25 27  2  0
 26 27  1  0
 28 29  1  0
 29 30  2  0
 29 31  1  0
 30 32  1  0
 31 33  2  0
 32 34  2  0
 33 34  1  0
M  END
>  <PUBCHEM_COMPOUND_CID>  (1) 
4349

>  <PUBCHEM_CONFORMER_RMSD>  (1) 
1.6

>  <PUBCHEM_CONFORMER_DIVERSEORDER>  (1) 
1
66
41
91
93
23
30
55
113
110
141
87
71
65
64
84
94
142
136
116
90
137
13
104
70
57
15
56
140
98
12
59
35
150
130
99
107
118
126
24
45
129
149
7
76
27
103
86
49
114
21
153
134
152
95
105
67
58
17
22
148
53
68
156
120
127
32
146
20
147
102
155
143
151
61
60
38
78
34
119
79
19
85
3
111
50
112
108
37
16
10
31
88
26
74
124
96
122
121
81
54
101
83
29
133
6
138
46
92
40
73
132
109
139
115
48
47
43
75
89
33
4
8
69
2
131
5
97
100
82
42
14
36
145
52
135
80
28
62
25
106
144
154
39
117
72
128
18
9
77
123
11
51
125
63
44

>  <PUBCHEM_MMFF94_PARTIAL_CHARGES>  (1) 
43
1 -0.57
12 0.3
13 0.57
14 0.57
15 0.3
16 0.36
17 0.28
18 0.14
2 -0.57
20 -0.14
22 -0.15
23 -0.15
24 0.78
25 -0.15
26 -0.15
27 -0.15
28 0.42
29 -0.14
3 -0.68
30 -0.15
31 -0.15
32 -0.15
33 -0.15
34 -0.15
4 -0.43
43 0.37
5 -0.57
54 0.37
55 0.4
56 0.15
57 0.15
58 0.15
59 0.15
6 -0.66
60 0.15
63 0.15
64 0.15
65 0.15
66 0.15
67 0.15
7 -0.73
8 -0.73
9 0.36

>  <PUBCHEM_EFFECTIVE_ROTOR_COUNT>  (1) 
14

>  <PUBCHEM_PHARMACOPHORE_FEATURES>  (1) 
10
1 1 acceptor
1 2 acceptor
1 3 acceptor
1 3 donor
1 5 acceptor
1 7 donor
1 8 donor
5 6 9 10 11 12 rings
6 20 22 23 25 26 27 rings
6 29 30 31 32 33 34 rings

>  <PUBCHEM_HEAVY_ATOM_COUNT>  (1) 
34

>  <PUBCHEM_ATOM_DEF_STEREO_COUNT>  (1) 
0

>  <PUBCHEM_ATOM_UDEF_STEREO_COUNT>  (1) 
4

>  <PUBCHEM_BOND_DEF_STEREO_COUNT>  (1) 
0

>  <PUBCHEM_BOND_UDEF_STEREO_COUNT>  (1) 
0

>  <PUBCHEM_ISOTOPIC_ATOM_COUNT>  (1) 
0

>  <PUBCHEM_COMPONENT_COUNT>  (1) 
1

>  <PUBCHEM_CACTVS_TAUTO_COUNT>  (1) 
4

>  <PUBCHEM_CONFORMER_ID>  (1) 
000010FD00000001

>  <PUBCHEM_MMFF94_ENERGY>  (1) 
78.9251

>  <PUBCHEM_FEATURE_SELFOVERLAP>  (1) 
50.749

>  <PUBCHEM_SHAPE_FINGERPRINT>  (1) 
10 15 16917348156514339504
10076449 9 13551480258737260037
10305334 12 18409168839773864147
11135609 201 12247674951120152364
11331351 85 18113336418715619116
117089 54 17899422171077585066
12144603 126 18260275170263527900
12592606 108 18261390087559205611
12838863 1 18059287773553714399
14394314 77 18410293592907685883
14856354 85 16081089312332078379
15021287 119 17604152614394829741
15064986 96 17130710475460022222
15320294 125 18336269019944409727
15684393 108 16443344244252119834
15911013 46 18408323281203721522
16120349 21 18335421270392572533
21150785 3 10665228150642772684
22224240 67 14333408952109493572
23569917 315 18262240044977752115
4098825 35 10881670317833372312
444769 64 18261114084650164875
5085150 59 18202003231044115663
6691757 9 18060146444431502587

>  <PUBCHEM_SHAPE_MULTIPOLES>  (1) 
655.41
26.87
3.67
1.44
44.44
2.64
0.58
10.25
-5.53
-2.81
0.23
-0.24
-0.59
-1.78

>  <PUBCHEM_SHAPE_SELFOVERLAP>  (1) 
1371.605

>  <PUBCHEM_SHAPE_VOLUME>  (1) 
370

>  <PUBCHEM_COORDINATE_TYPE>  (1) 
2
5
10

$$$$
