43497
     RDKit          3D

 18 19  0  0  0  0  0  0  0  0999 V2000
    3.3034   -3.3595   -1.5245 Cl  0  0  0  0  0  0  0  0  0  0  0  0
    4.3439    3.1279    0.5844 Cl  0  0  0  0  0  0  0  0  0  0  0  0
    1.8000    0.0659   -0.0308 N   0  0  0  0  0  0  0  0  0  0  0  0
    0.8687    0.3149    1.0680 C   0  0  0  0  0  0  0  0  0  0  0  0
   -0.4593   -0.3390    0.8423 C   0  0  0  0  0  0  0  0  0  0  0  0
    2.0356   -1.3691   -0.1870 C   0  0  0  0  0  0  0  0  0  0  0  0
    3.0622    0.7686    0.1989 C   0  0  0  0  0  0  0  0  0  0  0  0
   -1.5091    0.3167    0.1787 C   0  0  0  0  0  0  0  0  0  0  0  0
   -2.7408   -0.3562   -0.0023 C   0  0  0  0  0  0  0  0  0  0  0  0
   -0.6216   -1.6395    1.3206 C   0  0  0  0  0  0  0  0  0  0  0  0
    3.0258   -1.6140   -1.3150 C   0  0  0  0  0  0  0  0  0  0  0  0
    2.8102    2.2632    0.3241 C   0  0  0  0  0  0  0  0  0  0  0  0
   -1.3634    1.6255   -0.3091 C   0  0  0  0  0  0  0  0  0  0  0  0
   -2.8866   -1.6652    0.4856 C   0  0  0  0  0  0  0  0  0  0  0  0
   -1.8329   -2.3013    1.1426 C   0  0  0  0  0  0  0  0  0  0  0  0
   -3.7906    0.2994   -0.6659 C   0  0  0  0  0  0  0  0  0  0  0  0
   -2.4170    2.2618   -0.9661 C   0  0  0  0  0  0  0  0  0  0  0  0
   -3.6283    1.5999   -1.1441 C   0  0  0  0  0  0  0  0  0  0  0  0
  1 11  1  0
  2 12  1  0
  3  4  1  0
  3  6  1  0
  3  7  1  0
  4  5  1  0
  5  8  2  0
  5 10  1  0
  6 11  1  0
  7 12  1  0
  8  9  1  0
  8 13  1  0
  9 14  2  0
  9 16  1  0
 10 15  2  0
 13 17  2  0
 14 15  1  0
 16 18  2  0
 17 18  1  0
M  END
>  <PUBCHEM_COMPOUND_CID>  (1) 
43497

>  <PUBCHEM_CONFORMER_RMSD>  (1) 
0.8

>  <PUBCHEM_CONFORMER_DIVERSEORDER>  (1) 
1
7
15
9
3
10
16
14
2
6
13
4
17
18
11
12
8
5

>  <PUBCHEM_MMFF94_PARTIAL_CHARGES>  (1) 
23
1 -0.29
10 -0.15
11 0.29
12 0.29
13 -0.15
14 -0.15
15 -0.15
16 -0.15
17 -0.15
18 -0.15
2 -0.29
25 0.15
3 -0.81
30 0.15
31 0.15
32 0.15
33 0.15
34 0.15
35 0.15
4 0.41
5 -0.14
6 0.27
7 0.27

>  <PUBCHEM_EFFECTIVE_ROTOR_COUNT>  (1) 
6

>  <PUBCHEM_PHARMACOPHORE_FEATURES>  (1) 
3
1 3 cation
6 5 8 9 10 14 15 rings
6 8 9 13 16 17 18 rings

>  <PUBCHEM_HEAVY_ATOM_COUNT>  (1) 
18

>  <PUBCHEM_ATOM_DEF_STEREO_COUNT>  (1) 
0

>  <PUBCHEM_ATOM_UDEF_STEREO_COUNT>  (1) 
0

>  <PUBCHEM_BOND_DEF_STEREO_COUNT>  (1) 
0

>  <PUBCHEM_BOND_UDEF_STEREO_COUNT>  (1) 
0

>  <PUBCHEM_ISOTOPIC_ATOM_COUNT>  (1) 
0

>  <PUBCHEM_COMPONENT_COUNT>  (1) 
1

>  <PUBCHEM_CACTVS_TAUTO_COUNT>  (1) 
1

>  <PUBCHEM_CONFORMER_ID>  (1) 
0000A9E900000001

>  <PUBCHEM_MMFF94_ENERGY>  (1) 
53.0028

>  <PUBCHEM_FEATURE_SELFOVERLAP>  (1) 
15.249

>  <PUBCHEM_SHAPE_FINGERPRINT>  (1) 
10498660 4 18041548158071505597
10608611 8 18335698377329806736
10871710 139 15813973201013077532
10906281 52 17754469163666740617
12173636 292 18114452401732118701
12363563 72 17628649548493274862
12553582 1 17838358293247235462
12788726 201 17257944689378486190
13544592 145 18265055738808313079
15210252 30 13571437051563102148
16945 1 18263358084529024859
17134986 127 17899118439516158925
18186145 218 18265333915350392985
18915476 22 18201445804571143214
20344682 1 17979358890844929442
20465049 17 17762905364252874533
20510252 161 18334292110990882329
20645477 56 18260550026183828129
20645477 70 17918281947866952278
20671657 53 17914903024165374798
21069387 34 17558830589898675542
21120745 212 8709445424988954870
21524375 3 17533210861106938867
22182313 1 18261120707125835643
22802520 49 18410019814238043371
23114952 82 18413113853075433612
23402539 116 17899681638118429145
23526113 38 18343295933820891490
23557571 272 18041853937613795370
23559900 14 18340200805016590026
2748010 2 18261682557504371211
394222 165 13538746865773001746
5262128 65 18058454188276596124
526903 126 18261383464793494681
5283173 99 17974012748200585998
59554788 281 16950554549300779227
6049 1 18262819413656397570
621550 34 18196101151146496714
633830 44 18267007372480839805
7399639 24 18196379344942253482
81228 2 17968956299907867265
9709674 26 18411135827035303062

>  <PUBCHEM_SHAPE_MULTIPOLES>  (1) 
369.19
7.51
3.67
1.33
2.4
0.27
0.13
-2.59
1.98
3.92
0.69
0.08
0.61
3.23

>  <PUBCHEM_SHAPE_SELFOVERLAP>  (1) 
755.5

>  <PUBCHEM_SHAPE_VOLUME>  (1) 
214.4

>  <PUBCHEM_COORDINATE_TYPE>  (1) 
2
5
10

$$$$
