43501
     RDKit          3D

 36 37  0  0  0  0  0  0  0  0999 V2000
    8.4658   -1.6727   -0.3724 S   0  0  0  0  0  0  0  0  0  0  0  0
   -8.4360    1.7039   -0.3717 S   0  0  0  0  0  0  0  0  0  0  0  0
    4.6402    1.7235   -1.0807 O   0  0  0  0  0  0  0  0  0  0  0  0
   -4.6517   -1.7322   -1.0889 O   0  0  0  0  0  0  0  0  0  0  0  0
    6.9518   -2.5986   -2.3328 O   0  0  0  0  0  0  0  0  0  0  0  0
   -6.9019    2.6243   -2.3190 O   0  0  0  0  0  0  0  0  0  0  0  0
    6.8061    2.1216   -0.2453 N   0  0  0  0  0  0  0  0  0  0  0  0
   -6.8250   -2.1120   -0.2646 N   0  0  0  0  0  0  0  0  0  0  0  0
    7.7231    0.9579    0.1073 C   0  0  0  0  0  0  0  0  0  0  0  0
   -7.7286   -0.9393    0.0924 C   0  0  0  0  0  0  0  0  0  0  0  0
    5.3607    1.6614   -0.0887 C   0  0  0  0  0  0  0  0  0  0  0  0
   -5.3746   -1.6714   -0.0987 C   0  0  0  0  0  0  0  0  0  0  0  0
    7.0757    2.5873   -1.6715 C   0  0  0  0  0  0  0  0  0  0  0  0
    7.0971    3.2914    0.6982 C   0  0  0  0  0  0  0  0  0  0  0  0
   -7.0943   -2.5642   -1.6953 C   0  0  0  0  0  0  0  0  0  0  0  0
   -7.1348   -3.2846    0.6692 C   0  0  0  0  0  0  0  0  0  0  0  0
    4.8586    1.1590    1.2587 C   0  0  0  0  0  0  0  0  0  0  0  0
   -4.8865   -1.1890    1.2542 C   0  0  0  0  0  0  0  0  0  0  0  0
    7.4059   -0.2477   -0.7622 C   0  0  0  0  0  0  0  0  0  0  0  0
   -7.3924    0.2684   -0.7672 C   0  0  0  0  0  0  0  0  0  0  0  0
    3.4090    0.8095    1.2572 C   0  0  0  0  0  0  0  0  0  0  0  0
   -3.4215   -0.8362    1.2556 C   0  0  0  0  0  0  0  0  0  0  0  0
    0.6969    0.1564    1.2562 C   0  0  0  0  0  0  0  0  0  0  0  0
   -0.7095   -0.1825    1.2567 C   0  0  0  0  0  0  0  0  0  0  0  0
    2.4581    1.7787    1.5769 C   0  0  0  0  0  0  0  0  0  0  0  0
   -3.0172    0.4633    0.9497 C   0  0  0  0  0  0  0  0  0  0  0  0
    3.0038   -0.4862    0.9368 C   0  0  0  0  0  0  0  0  0  0  0  0
   -2.4697   -1.8088    1.5621 C   0  0  0  0  0  0  0  0  0  0  0  0
    1.1021    1.4522    1.5764 C   0  0  0  0  0  0  0  0  0  0  0  0
   -1.6612    0.7902    0.9503 C   0  0  0  0  0  0  0  0  0  0  0  0
    1.6478   -0.8128    0.9363 C   0  0  0  0  0  0  0  0  0  0  0  0
   -1.1138   -1.4819    1.5626 C   0  0  0  0  0  0  0  0  0  0  0  0
    7.8550   -2.8402   -1.5411 C   0  0  0  0  0  0  0  0  0  0  0  0
   -7.8053    2.8717   -1.5294 C   0  0  0  0  0  0  0  0  0  0  0  0
    8.5506   -4.1700   -1.4727 C   0  0  0  0  0  0  0  0  0  0  0  0
   -8.4843    4.2098   -1.4544 C   0  0  0  0  0  0  0  0  0  0  0  0
  1 19  1  0
  1 33  1  0
  2 20  1  0
  2 34  1  0
  3 11  2  0
  4 12  2  0
  5 33  2  0
  6 34  2  0
  7  9  1  0
  7 11  1  0
  7 13  1  0
  7 14  1  0
  8 10  1  0
  8 12  1  0
  8 15  1  0
  8 16  1  0
  9 19  1  0
 10 20  1  0
 11 17  1  0
 12 18  1  0
 17 21  1  0
 18 22  1  0
 21 25  2  0
 21 27  1  0
 22 26  2  0
 22 28  1  0
 23 24  1  0
 23 29  2  0
 23 31  1  0
 24 30  2  0
 24 32  1  0
 25 29  1  0
 26 30  1  0
 27 31  2  0
 28 32  2  0
 33 35  1  0
 34 36  1  0
M  CHG  2   7   1   8   1
M  END
>  <PUBCHEM_COMPOUND_CID>  (1) 
43501

>  <PUBCHEM_CONFORMER_RMSD>  (1) 
1.2

>  <PUBCHEM_CONFORMER_DIVERSEORDER>  (1) 
2
44
53
79
24
46
18
35
77
21
42
45
47
30
65
3
61
1
23
33
27
59
78
43
26
37
62
29
7
41
55
73
49
76
51
67
5
22
31
68
71
9
57
12
72
15
34
39
81
64
17
54
36
13
16
63
50
66
8
14
25
40
60
69
38
32
75
52
80
10
70
6
74
28
56
58
19
20
11
4
48

>  <PUBCHEM_MMFF94_PARTIAL_CHARGES>  (1) 
42
1 -0.37
10 0.5
11 0.9
12 0.9
13 0.5
14 0.5
15 0.5
16 0.5
17 0.2
18 0.2
19 0.23
2 -0.37
20 0.23
21 -0.14
22 -0.14
25 -0.15
26 -0.15
27 -0.15
28 -0.15
29 -0.15
3 -0.57
30 -0.15
31 -0.15
32 -0.15
33 0.65
34 0.65
35 0.06
36 0.06
4 -0.57
5 -0.57
6 -0.57
61 0.15
62 0.15
63 0.15
64 0.15
65 0.15
66 0.15
67 0.15
68 0.15
7 -0.91
8 -0.91
9 0.5

>  <PUBCHEM_EFFECTIVE_ROTOR_COUNT>  (1) 
15

>  <PUBCHEM_PHARMACOPHORE_FEATURES>  (1) 
4
1 3 acceptor
1 4 acceptor
6 21 23 25 27 29 31 rings
6 22 24 26 28 30 32 rings

>  <PUBCHEM_HEAVY_ATOM_COUNT>  (1) 
36

>  <PUBCHEM_ATOM_DEF_STEREO_COUNT>  (1) 
0

>  <PUBCHEM_ATOM_UDEF_STEREO_COUNT>  (1) 
0

>  <PUBCHEM_BOND_DEF_STEREO_COUNT>  (1) 
0

>  <PUBCHEM_BOND_UDEF_STEREO_COUNT>  (1) 
0

>  <PUBCHEM_ISOTOPIC_ATOM_COUNT>  (1) 
0

>  <PUBCHEM_COMPONENT_COUNT>  (1) 
1

>  <PUBCHEM_CACTVS_TAUTO_COUNT>  (1) 
1

>  <PUBCHEM_CONFORMER_ID>  (1) 
0000A9ED00000002

>  <PUBCHEM_MMFF94_ENERGY>  (1) 
104.5675

>  <PUBCHEM_FEATURE_SELFOVERLAP>  (1) 
20.297

>  <PUBCHEM_SHAPE_FINGERPRINT>  (1) 
10 15 7997978963561008194
10049733 168 16271383907155013006
10066227 49 18272939319217141570
10669705 176 18410292497749255465
11135926 11 16916794015633826783
11181472 205 17822003181884003784
11408170 132 18187081716009743264
12013929 112 17822861870643482518
13383668 362 10231454329648838786
14040221 8 17241046493082330666
14849402 71 11674886623320030422
14919807 6 18336263436270445677
15064981 194 16371306530905161729
1577012 14 17894620461948257849
16728433 281 18339922616028432537
1754908 1 10303818682760967181
17852330 134 18339638919830092359
2026 5 18131080286368554390
20609170 45 18053379899091228511
21585481 104 18187087252354794708
21895439 516 18413673495851562598
22164985 6 17917712443819739185
23569943 247 18059023791399188346
23576562 1 17753327870718642839
3711267 37 15719390650578840868
44802255 64 18272645784642008455
44880568 143 18114185262908063452
4625314 4 18410855442948292612
4874694 18 18269274737825451746
504579 68 18410856546765444098
5937810 71 18040428911206427445
6201320 221 17703230586447562654
636783 156 17971470694698614570
9962374 69 13758067528154181976

>  <PUBCHEM_SHAPE_MULTIPOLES>  (1) 
715.12
35.29
4.58
2.03
0.64
0.1
-0.55
-0.07
-22.61
-0.13
-2.77
0.03
-0.01
6.7

>  <PUBCHEM_SHAPE_SELFOVERLAP>  (1) 
1436.554

>  <PUBCHEM_SHAPE_VOLUME>  (1) 
425.3

>  <PUBCHEM_COORDINATE_TYPE>  (1) 
2
5
10

$$$$
