43509
     RDKit          3D

 20 23  0  0  1  0  0  0  0  0999 V2000
   -1.9954    1.7740   -1.5883 O   0  0  0  0  0  0  0  0  0  0  0  0
   -3.6054    1.7461    1.6293 O   0  0  0  0  0  0  0  0  0  0  0  0
   -1.4570    0.0133   -0.0986 C   0  0  0  0  0  0  0  0  0  0  0  0
   -2.0888    1.3931   -0.2149 C   0  0  0  0  0  0  0  0  0  0  0  0
   -0.0386   -0.1594   -0.0434 C   0  0  0  0  0  0  0  0  0  0  0  0
   -3.5632    1.4677    0.2290 C   0  0  0  0  0  0  0  0  0  0  0  0
   -2.3048   -1.1175   -0.1104 C   0  0  0  0  0  0  0  0  0  0  0  0
    0.4860   -1.4724    0.0331 C   0  0  0  0  0  0  0  0  0  0  0  0
    0.8933    0.9074   -0.0683 C   0  0  0  0  0  0  0  0  0  0  0  0
   -4.3437    0.2164   -0.0260 C   0  0  0  0  0  0  0  0  0  0  0  0
   -3.7608   -0.9746   -0.2006 C   0  0  0  0  0  0  0  0  0  0  0  0
   -1.7582   -2.4002   -0.0456 C   0  0  0  0  0  0  0  0  0  0  0  0
    2.2841    0.7025   -0.0042 C   0  0  0  0  0  0  0  0  0  0  0  0
   -0.3799   -2.5728    0.0336 C   0  0  0  0  0  0  0  0  0  0  0  0
    1.8746   -1.6805    0.0995 C   0  0  0  0  0  0  0  0  0  0  0  0
    2.7810   -0.6112    0.0837 C   0  0  0  0  0  0  0  0  0  0  0  0
    3.1890    1.7779   -0.0260 C   0  0  0  0  0  0  0  0  0  0  0  0
    4.1690   -0.8212    0.1497 C   0  0  0  0  0  0  0  0  0  0  0  0
    4.5646    1.5552    0.0402 C   0  0  0  0  0  0  0  0  0  0  0  0
    5.0543    0.2563    0.1283 C   0  0  0  0  0  0  0  0  0  0  0  0
  1  4  1  0
  2  6  1  0
  3  4  1  0
  3  5  1  0
  3  7  2  0
  4  6  1  0
  5  8  2  0
  5  9  1  0
  6 10  1  0
  7 11  1  0
  7 12  1  0
  8 14  1  0
  8 15  1  0
  9 13  2  0
 10 11  2  0
 12 14  2  0
 13 16  1  0
 13 17  1  0
 15 16  2  0
 16 18  1  0
 17 19  2  0
 18 20  2  0
 19 20  1  0
M  END
>  <PUBCHEM_COMPOUND_CID>  (1) 
43509

>  <PUBCHEM_CONFORMER_RMSD>  (1) 
0.6

>  <PUBCHEM_CONFORMER_DIVERSEORDER>  (1) 
1

>  <PUBCHEM_MMFF94_PARTIAL_CHARGES>  (1) 
28
1 -0.68
10 -0.29
11 -0.18
12 -0.15
14 -0.15
15 -0.15
17 -0.15
18 -0.15
19 -0.15
2 -0.68
20 -0.15
23 0.15
24 0.15
25 0.15
26 0.15
27 0.15
28 0.15
29 0.4
3 -0.14
30 0.15
31 0.15
32 0.4
33 0.15
34 0.15
4 0.42
6 0.42
7 0.03
9 -0.15

>  <PUBCHEM_EFFECTIVE_ROTOR_COUNT>  (1) 
0.4

>  <PUBCHEM_PHARMACOPHORE_FEATURES>  (1) 
8
1 1 acceptor
1 1 donor
1 2 acceptor
1 2 donor
6 13 16 17 18 19 20 rings
6 3 4 6 7 10 11 rings
6 3 5 7 8 12 14 rings
6 5 8 9 13 15 16 rings

>  <PUBCHEM_HEAVY_ATOM_COUNT>  (1) 
20

>  <PUBCHEM_ATOM_DEF_STEREO_COUNT>  (1) 
2

>  <PUBCHEM_ATOM_UDEF_STEREO_COUNT>  (1) 
0

>  <PUBCHEM_BOND_DEF_STEREO_COUNT>  (1) 
0

>  <PUBCHEM_BOND_UDEF_STEREO_COUNT>  (1) 
0

>  <PUBCHEM_ISOTOPIC_ATOM_COUNT>  (1) 
0

>  <PUBCHEM_COMPONENT_COUNT>  (1) 
1

>  <PUBCHEM_CACTVS_TAUTO_COUNT>  (1) 
1

>  <PUBCHEM_CONFORMER_ID>  (1) 
0000A9F500000001

>  <PUBCHEM_MMFF94_ENERGY>  (1) 
61.9654

>  <PUBCHEM_FEATURE_SELFOVERLAP>  (1) 
40.667

>  <PUBCHEM_SHAPE_FINGERPRINT>  (1) 
10411042 1 17185595166340037762
10493431 412 18340776961762415921
10608611 8 18339076094578096900
10616163 171 18339363092719687806
10646746 165 18412545444455858382
10967382 1 18409728439435431958
11132069 177 18333730229909291453
12107183 9 17835804101490666466
12173636 292 18412821408488427159
12390115 104 18271825504873074649
12403814 3 18040995137750000645
12644460 14 18114179675540694634
13140716 1 18265337213753674051
13583140 156 16660914517780518304
138480 1 17762054337646960522
14790565 3 18411144610301770345
15042514 8 18121784091121768459
15196674 1 18410291423632618518
15209294 21 18343588417062740121
15309172 13 18336551534186628465
15442244 35 18409443657766634506
15536298 74 18413671305581602734
16945 1 17977941289691729887
18186145 218 18340769239316012220
19591789 44 18408884005905134166
200 152 17988638627238836359
20510252 161 18343023323989008587
20645477 56 18408603677879461196
21267235 1 18410018757644628302
21524375 3 18410572889982666182
23227448 37 18410853308386626142
23402539 116 18341042029979971239
23557571 272 18197787810689750622
23559900 14 18272933791999991270
238 59 17613678602300387949
2748010 2 18191022296621454575
3004659 81 18261681381754438206
335352 9 18338797810973389478
350125 39 18410857689590929769
3545911 37 18411982481538524308
4214541 1 18411136956869898248
474 4 17604150462399605004
5104073 3 18409445908239613282
633830 44 18130228138184189309
69090 78 18410289228930730030
77779 3 18411419531416181004
9709674 26 18341336668836524982

>  <PUBCHEM_SHAPE_MULTIPOLES>  (1) 
399.85
9.06
2.46
0.81
4.43
0.63
-0.02
-3.29
-0.77
-0.78
-0.02
-0.54
-0.35
-0.33

>  <PUBCHEM_SHAPE_SELFOVERLAP>  (1) 
907.252

>  <PUBCHEM_SHAPE_VOLUME>  (1) 
208.4

>  <PUBCHEM_COORDINATE_TYPE>  (1) 
2
5
10

$$$$
