43512
     RDKit          3D

 18 21  0  0  0  0  0  0  0  0999 V2000
   -1.7549    0.3566    0.1003 C   0  0  0  0  0  0  0  0  0  0  0  0
   -2.6981   -0.6974    0.0688 C   0  0  0  0  0  0  0  0  0  0  0  0
   -0.3558    0.0667    0.0587 C   0  0  0  0  0  0  0  0  0  0  0  0
   -4.1784   -0.4128    0.1676 C   0  0  0  0  0  0  0  0  0  0  0  0
    0.0527   -1.2894   -0.0008 C   0  0  0  0  0  0  0  0  0  0  0  0
   -4.5613    0.9480   -0.4150 C   0  0  0  0  0  0  0  0  0  0  0  0
   -2.2633   -2.0225    0.0210 C   0  0  0  0  0  0  0  0  0  0  0  0
   -2.2799    1.7356    0.1890 C   0  0  0  0  0  0  0  0  0  0  0  0
    0.6710    1.0459    0.0641 C   0  0  0  0  0  0  0  0  0  0  0  0
   -0.9041   -2.3124   -0.0176 C   0  0  0  0  0  0  0  0  0  0  0  0
    2.0389    0.7163    0.0219 C   0  0  0  0  0  0  0  0  0  0  0  0
    2.4169   -0.6379   -0.0311 C   0  0  0  0  0  0  0  0  0  0  0  0
   -3.5667    2.0098   -0.0665 C   0  0  0  0  0  0  0  0  0  0  0  0
    1.4181   -1.6213   -0.0426 C   0  0  0  0  0  0  0  0  0  0  0  0
    3.0367    1.7066    0.0304 C   0  0  0  0  0  0  0  0  0  0  0  0
    3.7811   -0.9731   -0.0731 C   0  0  0  0  0  0  0  0  0  0  0  0
    4.3874    1.3603   -0.0118 C   0  0  0  0  0  0  0  0  0  0  0  0
    4.7596    0.0210   -0.0632 C   0  0  0  0  0  0  0  0  0  0  0  0
  1  2  2  0
  1  3  1  0
  1  8  1  0
  2  4  1  0
  2  7  1  0
  3  5  2  0
  3  9  1  0
  4  6  1  0
  5 10  1  0
  5 14  1  0
  6 13  1  0
  7 10  2  0
  8 13  2  0
  9 11  2  0
 11 12  1  0
 11 15  1  0
 12 14  2  0
 12 16  1  0
 15 17  2  0
 16 18  2  0
 17 18  1  0
M  END
>  <PUBCHEM_COMPOUND_CID>  (1) 
43512

>  <PUBCHEM_CONFORMER_RMSD>  (1) 
0.6

>  <PUBCHEM_CONFORMER_DIVERSEORDER>  (1) 
1

>  <PUBCHEM_MMFF94_PARTIAL_CHARGES>  (1) 
24
1 0.03
10 -0.15
13 -0.29
14 -0.15
15 -0.15
16 -0.15
17 -0.15
18 -0.15
2 -0.14
23 0.15
24 0.15
25 0.15
26 0.15
27 0.15
28 0.15
29 0.15
30 0.15
31 0.15
32 0.15
4 0.14
6 0.14
7 -0.15
8 -0.18
9 -0.15

>  <PUBCHEM_EFFECTIVE_ROTOR_COUNT>  (1) 
0.4

>  <PUBCHEM_PHARMACOPHORE_FEATURES>  (1) 
4
6 1 2 3 5 7 10 rings
6 1 2 4 6 8 13 rings
6 11 12 15 16 17 18 rings
6 3 5 9 11 12 14 rings

>  <PUBCHEM_HEAVY_ATOM_COUNT>  (1) 
18

>  <PUBCHEM_ATOM_DEF_STEREO_COUNT>  (1) 
0

>  <PUBCHEM_ATOM_UDEF_STEREO_COUNT>  (1) 
0

>  <PUBCHEM_BOND_DEF_STEREO_COUNT>  (1) 
0

>  <PUBCHEM_BOND_UDEF_STEREO_COUNT>  (1) 
0

>  <PUBCHEM_ISOTOPIC_ATOM_COUNT>  (1) 
0

>  <PUBCHEM_COMPONENT_COUNT>  (1) 
1

>  <PUBCHEM_CACTVS_TAUTO_COUNT>  (1) 
1

>  <PUBCHEM_CONFORMER_ID>  (1) 
0000A9F800000001

>  <PUBCHEM_MMFF94_ENERGY>  (1) 
55.6961

>  <PUBCHEM_FEATURE_SELFOVERLAP>  (1) 
20.368

>  <PUBCHEM_SHAPE_FINGERPRINT>  (1) 
10411042 1 17402050496840033870
10608611 8 18340485659673574560
10616163 171 18339645649859319470
10646746 165 18411139143097922788
10967382 1 18338798918394170648
11132069 177 18410852187584719392
11370993 70 18411415098672360439
11471102 20 18412261714447231078
12173636 292 18411134761972837863
12236239 1 17821727252247862504
12390115 104 18200331917756867249
12403259 415 18341610429740657697
12403814 3 17676482848091586389
12500047 106 18412258462782519520
13140716 1 18121226381138269995
13380535 76 18412545388136311711
138480 1 17618222806275085679
14790565 3 18269845224808784481
14866123 147 16976475205914956690
14897335 6 18410855451538259718
15042514 8 18193280917249985227
15196674 1 18410575088958059203
15375358 24 18343865515457155094
15420108 30 15754598855836817658
15442244 35 18337952290657700754
15536298 74 18342177752355362294
16945 1 18266740362273226795
17492 89 18409730690099463882
18186145 218 18200604613387485656
200 152 17775281668844875677
20510252 161 18343025497284671457
20645477 56 18409449206273556625
20645477 70 18202285758366824726
21267235 1 18410583893704670338
21524375 3 18410855434500990711
23227448 37 18340485659562681687
23402539 116 18342450457014129613
23402655 69 18343863303311588364
23559900 14 18272089371222206846
238 59 17396099510550210637
2748010 2 18339372889392195487
3004659 81 18261963938967955438
335352 9 18338517418191163958
34934 24 18410287026002786914
350125 39 18410860984020840881
3545911 37 18411140246751673388
4028521 119 18408317783413090541
4214541 1 18410293614060671208
474 4 17458912664314544972
495365 180 17417799678405053624
4990 188 18059862740208074476
5104073 3 18409449184777388242
58051976 378 18341892944283745477
633830 44 18128818538956106021
69090 78 18413105069630027335
7364860 26 18196091049531466654
77779 3 18410294717993743392
9709674 26 18341619225928605958

>  <PUBCHEM_SHAPE_MULTIPOLES>  (1) 
370.43
8.98
2.29
0.63
2.09
0.3
0
-3.1
0.4
-0.81
0
-0.05
-0.01
0.14

>  <PUBCHEM_SHAPE_SELFOVERLAP>  (1) 
841.707

>  <PUBCHEM_SHAPE_VOLUME>  (1) 
178.6

>  <PUBCHEM_COORDINATE_TYPE>  (1) 
2
5
10

$$$$
