4351
     RDKit          3D

 13 12  0  0  0  0  0  0  0  0999 V2000
    1.6403   -0.2980    0.6817 O   0  0  0  0  0  0  0  0  0  0  0  0
    1.1159    1.2170   -0.9629 O   0  0  0  0  0  0  0  0  0  0  0  0
   -0.3022    0.8304    0.8334 N   0  0  0  0  0  0  0  0  0  0  0  0
   -4.8746   -1.8053    0.1408 N   0  0  0  0  0  0  0  0  0  0  0  0
    2.8681   -0.5959    0.0075 C   0  0  0  0  0  0  0  0  0  0  0  0
   -2.4220    1.1089   -0.3944 C   0  0  0  0  0  0  0  0  0  0  0  0
   -3.1211   -0.0636    0.3049 C   0  0  0  0  0  0  0  0  0  0  0  0
   -1.3482    1.7506    0.4797 C   0  0  0  0  0  0  0  0  0  0  0  0
    3.6935    0.6865   -0.0888 C   0  0  0  0  0  0  0  0  0  0  0  0
    3.6039   -1.6477    0.8348 C   0  0  0  0  0  0  0  0  0  0  0  0
    2.5404   -1.1385   -1.3829 C   0  0  0  0  0  0  0  0  0  0  0  0
   -4.2385   -0.6827   -0.5376 C   0  0  0  0  0  0  0  0  0  0  0  0
    0.8443    0.6383    0.0839 C   0  0  0  0  0  0  0  0  0  0  0  0
  1  5  1  0
  1 13  1  0
  2 13  2  0
  3  8  1  0
  3 13  1  0
  4 12  1  0
  5  9  1  0
  5 10  1  0
  5 11  1  0
  6  7  1  0
  6  8  1  0
  7 12  1  0
M  END
>  <PUBCHEM_COMPOUND_CID>  (1) 
4351

>  <PUBCHEM_CONFORMER_RMSD>  (1) 
0.8

>  <PUBCHEM_CONFORMER_DIVERSEORDER>  (1) 
1
60
19
55
18
43
11
9
59
14
58
49
63
10
24
47
54
42
31
34
26
38
57
22
25
46
29
36
62
6
61
4
7
13
56
32
23
33
53
28
27
17
8
5
41
52
48
30
50
15
16
45
20
35
3
39
44
51
2
12
40
37
21

>  <PUBCHEM_MMFF94_PARTIAL_CHARGES>  (1) 
11
1 -0.43
12 0.27
13 0.78
2 -0.57
3 -0.73
31 0.37
32 0.36
33 0.36
4 -0.99
5 0.28
8 0.3

>  <PUBCHEM_EFFECTIVE_ROTOR_COUNT>  (1) 
7

>  <PUBCHEM_PHARMACOPHORE_FEATURES>  (1) 
5
1 2 acceptor
1 3 donor
1 4 cation
1 4 donor
4 5 9 10 11 hydrophobe

>  <PUBCHEM_HEAVY_ATOM_COUNT>  (1) 
13

>  <PUBCHEM_ATOM_DEF_STEREO_COUNT>  (1) 
0

>  <PUBCHEM_ATOM_UDEF_STEREO_COUNT>  (1) 
0

>  <PUBCHEM_BOND_DEF_STEREO_COUNT>  (1) 
0

>  <PUBCHEM_BOND_UDEF_STEREO_COUNT>  (1) 
0

>  <PUBCHEM_ISOTOPIC_ATOM_COUNT>  (1) 
0

>  <PUBCHEM_COMPONENT_COUNT>  (1) 
1

>  <PUBCHEM_CACTVS_TAUTO_COUNT>  (1) 
2

>  <PUBCHEM_CONFORMER_ID>  (1) 
000010FF00000001

>  <PUBCHEM_MMFF94_ENERGY>  (1) 
15.0055

>  <PUBCHEM_FEATURE_SELFOVERLAP>  (1) 
25.371

>  <PUBCHEM_SHAPE_FINGERPRINT>  (1) 
10465860 228 10807937063536568156
10618630 7 18342740710877554319
11769659 78 18336825303585997057
11806522 49 18335701667264218848
12932764 1 18043544806446590872
13705890 14 18333447625582970196
14123255 352 10159705690115396291
14123255 52 9367349232406452413
14123260 362 7925630042350367199
14251710 61 18201165355733180271
14252887 29 16773802488931881118
14350558 41 18343588438379139093
14576447 43 18261112989027348118
15477762 27 18259986002288129276
177051 138 18343021073109588645
18186145 218 13768508422094866476
18915474 69 18333732442107599099
19107657 162 18131071485193580807
201361 129 11024107637884317716
20233049 118 11241964893233911014
20281407 28 17775284941546853097
20281475 54 18341334418262664121
20621476 91 17914587635747294826
20671657 53 18186519912654575061
20767249 442 8142086442476353687
20871999 31 18114174229748938293
21503847 285 12103846774001918418
22485316 2 18412543210972826073
23402539 116 18187077321910150300
23402655 69 17531525373984879061
3248919 1 17844805876471081616
4028521 119 12035447238149060623
76465 3 18041551422083009786

>  <PUBCHEM_SHAPE_MULTIPOLES>  (1) 
245.83
8.82
1.77
1
6.29
0.19
-0.16
5.06
-0.06
0.64
0.08
-0.54
0.15
-0.22

>  <PUBCHEM_SHAPE_SELFOVERLAP>  (1) 
460.048

>  <PUBCHEM_SHAPE_VOLUME>  (1) 
153.6

>  <PUBCHEM_COORDINATE_TYPE>  (1) 
2
5
10

$$$$
