43517
     RDKit          3D

 21 23  0  0  1  0  0  0  0  0999 V2000
   -0.8753   -0.7609    1.6535 S   0  0  0  0  0  0  0  0  0  0  0  0
    4.1418    0.7470   -1.1751 O   0  0  0  0  0  0  0  0  0  0  0  0
    4.0653   -1.2789    0.7322 O   0  0  0  0  0  0  0  0  0  0  0  0
   -2.0669    2.1301    1.2157 N   0  0  0  0  0  0  0  0  0  0  0  0
   -1.9999    1.6030   -0.1500 C   0  0  0  0  0  0  0  0  0  0  0  0
   -0.5814    1.6728   -0.7390 C   0  0  0  0  0  0  0  0  0  0  0  0
   -2.6050    0.2231   -0.3068 C   0  0  0  0  0  0  0  0  0  0  0  0
    0.5705    0.8178   -0.2440 C   0  0  0  0  0  0  0  0  0  0  0  0
    0.5403   -0.2140    0.7119 C   0  0  0  0  0  0  0  0  0  0  0  0
   -2.1465   -0.8911    0.4154 C   0  0  0  0  0  0  0  0  0  0  0  0
    1.8107    1.1087   -0.8639 C   0  0  0  0  0  0  0  0  0  0  0  0
   -3.6434    0.0421   -1.2390 C   0  0  0  0  0  0  0  0  0  0  0  0
    1.7357   -0.8970    1.0257 C   0  0  0  0  0  0  0  0  0  0  0  0
    2.9802    0.4201   -0.5480 C   0  0  0  0  0  0  0  0  0  0  0  0
   -2.7354   -2.1482    0.2092 C   0  0  0  0  0  0  0  0  0  0  0  0
    2.9422   -0.5861    0.4017 C   0  0  0  0  0  0  0  0  0  0  0  0
   -3.4476    2.2369    1.6454 C   0  0  0  0  0  0  0  0  0  0  0  0
   -4.2183   -1.2120   -1.4423 C   0  0  0  0  0  0  0  0  0  0  0  0
   -3.7640   -2.3074   -0.7179 C   0  0  0  0  0  0  0  0  0  0  0  0
    4.4419    0.0525   -2.3841 C   0  0  0  0  0  0  0  0  0  0  0  0
    4.8552   -0.7584    1.7996 C   0  0  0  0  0  0  0  0  0  0  0  0
  1  9  1  0
  1 10  1  0
  2 14  1  0
  2 20  1  0
  3 16  1  0
  3 21  1  0
  4  5  1  0
  4 17  1  0
  5  6  1  0
  5  7  1  0
  6  8  1  0
  7 10  2  0
  7 12  1  0
  8  9  2  0
  8 11  1  0
  9 13  1  0
 10 15  1  0
 11 14  2  0
 12 18  2  0
 13 16  2  0
 14 16  1  0
 15 19  2  0
 18 19  1  0
M  END
>  <PUBCHEM_COMPOUND_CID>  (1) 
43517

>  <PUBCHEM_CONFORMER_RMSD>  (1) 
0.6

>  <PUBCHEM_CONFORMER_DIVERSEORDER>  (1) 
1
8
6
13
15
10
11
7
16
12
14
3
9
2
4
5

>  <PUBCHEM_MMFF94_PARTIAL_CHARGES>  (1) 
28
1 -0.2
10 0.1
11 -0.15
12 -0.15
13 -0.15
14 0.08
15 -0.15
16 0.08
17 0.27
18 -0.15
19 -0.15
2 -0.36
20 0.28
21 0.28
25 0.36
26 0.15
27 0.15
28 0.15
29 0.15
3 -0.36
33 0.15
34 0.15
4 -0.9
5 0.41
6 0.14
7 -0.14
8 -0.14
9 0.1

>  <PUBCHEM_EFFECTIVE_ROTOR_COUNT>  (1) 
3.6

>  <PUBCHEM_PHARMACOPHORE_FEATURES>  (1) 
7
1 2 acceptor
1 3 acceptor
1 4 cation
1 4 donor
6 7 10 12 15 18 19 rings
6 8 9 11 13 14 16 rings
7 1 5 6 7 8 9 10 rings

>  <PUBCHEM_HEAVY_ATOM_COUNT>  (1) 
21

>  <PUBCHEM_ATOM_DEF_STEREO_COUNT>  (1) 
0

>  <PUBCHEM_ATOM_UDEF_STEREO_COUNT>  (1) 
1

>  <PUBCHEM_BOND_DEF_STEREO_COUNT>  (1) 
0

>  <PUBCHEM_BOND_UDEF_STEREO_COUNT>  (1) 
0

>  <PUBCHEM_ISOTOPIC_ATOM_COUNT>  (1) 
0

>  <PUBCHEM_COMPONENT_COUNT>  (1) 
1

>  <PUBCHEM_CACTVS_TAUTO_COUNT>  (1) 
1

>  <PUBCHEM_CONFORMER_ID>  (1) 
0000A9FD00000001

>  <PUBCHEM_MMFF94_ENERGY>  (1) 
89.2612

>  <PUBCHEM_FEATURE_SELFOVERLAP>  (1) 
35.536

>  <PUBCHEM_SHAPE_FINGERPRINT>  (1) 
10062212 137 18187077334610416642
11315181 36 18410845556629864482
11578080 2 18118371077937611509
12035759 4 17896301576540545451
12403259 415 14346085195911811872
12553582 1 18341058513832272899
12596599 1 18335988583869334046
12616971 3 17894913984191922376
12714826 92 17561367292204426377
12788726 201 18343308067789298249
13224815 77 18113343015779317672
13583140 156 16415195620871795852
13760787 5 17603591798644112396
14178342 30 18200592488736883754
14289901 80 17131832083955745108
15163728 17 12109160610978694479
16752209 62 18343301465860354151
16945 1 18261392196055630689
17349148 13 17967521372930461866
1813 80 17417247783644730319
18186145 218 15357690890474536450
192875 21 17967801752458416120
19862831 5 17749379377986115475
200 152 18261944223886164611
20645477 70 16732980908291030122
20775438 99 16683406433067299519
21634736 98 18190744321937491276
23402539 116 18336811031620811867
23557571 272 17632569444457559544
23559900 14 18266159777416352904
25147074 1 18186525384716950200
2748010 2 16743136276388551465
3004659 81 17749376066788032246
312423 11 18186528695873244834
3286 77 18341597236070207136
463206 1 18053931021122227543
4921388 177 18059871536100707917
57096353 35 18041285451790349790
633830 44 16153427212361543372
67856867 119 17968929911998396724
6786 2 16335873437424242545

>  <PUBCHEM_SHAPE_MULTIPOLES>  (1) 
419.3
9.25
2.19
1.84
6.4
0.2
-0.13
-2.57
-2.13
-2.42
0.43
0.86
0.13
-2.24

>  <PUBCHEM_SHAPE_SELFOVERLAP>  (1) 
885.332

>  <PUBCHEM_SHAPE_VOLUME>  (1) 
236.6

>  <PUBCHEM_COORDINATE_TYPE>  (1) 
2
5
10

$$$$
