43524
     RDKit          3D

 12 12  0  0  0  0  0  0  0  0999 V2000
    1.5050   -1.8691   -0.9965 Cl  0  0  0  0  0  0  0  0  0  0  0  0
    1.4545   -1.0902    1.8048 Cl  0  0  0  0  0  0  0  0  0  0  0  0
    1.7772    1.1254   -1.4493 O   0  0  0  0  0  0  0  0  0  0  0  0
    2.8619    1.0727    0.5343 O   0  0  0  0  0  0  0  0  0  0  0  0
   -0.4150   -0.2000    0.0810 C   0  0  0  0  0  0  0  0  0  0  0  0
    1.0372   -0.5356    0.1353 C   0  0  0  0  0  0  0  0  0  0  0  0
   -0.8417    1.0985    0.3599 C   0  0  0  0  0  0  0  0  0  0  0  0
   -1.3467   -1.1844   -0.2491 C   0  0  0  0  0  0  0  0  0  0  0  0
   -2.1997    1.4127    0.3089 C   0  0  0  0  0  0  0  0  0  0  0  0
   -2.7048   -0.8702   -0.3001 C   0  0  0  0  0  0  0  0  0  0  0  0
   -3.1312    0.4284   -0.0211 C   0  0  0  0  0  0  0  0  0  0  0  0
    2.0034    0.6118   -0.2080 C   0  0  0  0  0  0  0  0  0  0  0  0
  1  6  1  0
  2  6  1  0
  3 12  1  0
  4 12  2  0
  5  6  1  0
  5  7  2  0
  5  8  1  0
  6 12  1  0
  7  9  1  0
  8 10  2  0
  9 11  2  0
 10 11  1  0
M  END
>  <PUBCHEM_COMPOUND_CID>  (1) 
43524

>  <PUBCHEM_CONFORMER_RMSD>  (1) 
0.6

>  <PUBCHEM_CONFORMER_DIVERSEORDER>  (1) 
1
4
2
5
6
3

>  <PUBCHEM_MMFF94_PARTIAL_CHARGES>  (1) 
18
1 -0.29
10 -0.15
11 -0.15
12 0.66
13 0.15
14 0.15
15 0.15
16 0.15
17 0.15
18 0.5
2 -0.29
3 -0.65
4 -0.57
5 -0.14
6 0.78
7 -0.15
8 -0.15
9 -0.15

>  <PUBCHEM_EFFECTIVE_ROTOR_COUNT>  (1) 
2

>  <PUBCHEM_PHARMACOPHORE_FEATURES>  (1) 
4
1 3 acceptor
1 4 acceptor
3 3 4 12 anion
6 5 7 8 9 10 11 rings

>  <PUBCHEM_HEAVY_ATOM_COUNT>  (1) 
12

>  <PUBCHEM_ATOM_DEF_STEREO_COUNT>  (1) 
0

>  <PUBCHEM_ATOM_UDEF_STEREO_COUNT>  (1) 
0

>  <PUBCHEM_BOND_DEF_STEREO_COUNT>  (1) 
0

>  <PUBCHEM_BOND_UDEF_STEREO_COUNT>  (1) 
0

>  <PUBCHEM_ISOTOPIC_ATOM_COUNT>  (1) 
0

>  <PUBCHEM_COMPONENT_COUNT>  (1) 
1

>  <PUBCHEM_CACTVS_TAUTO_COUNT>  (1) 
1

>  <PUBCHEM_CONFORMER_ID>  (1) 
0000AA0400000001

>  <PUBCHEM_MMFF94_ENERGY>  (1) 
31.9851

>  <PUBCHEM_FEATURE_SELFOVERLAP>  (1) 
20.358

>  <PUBCHEM_SHAPE_FINGERPRINT>  (1) 
12326174 3 17895194351088338578
12524768 44 18411140191001319239
12897270 3 18273220823709269661
12932764 1 17677056716073302871
14128692 85 17843979039263221974
14648413 74 18198633137409591918
15775835 57 18408604777053862192
16945 1 18268159823379172525
170605 34 18334298686147812768
18186145 218 18041842797154224013
19973954 147 18271249296450250581
20082192 1 18268147552631253673
21501502 16 18131072576257828551
21524375 3 18116439339413254644
22802520 49 17916045510834806023
230 275 18113903749239489708
23552423 10 18338802200066066271
2748010 2 18341336578720709351
3248919 1 18271515404250260483
369184 2 17385719188754625209
5084963 1 17914898630250047083
528886 8 18202001074679979507
7364860 26 18201720596441786118
8030462 33 17489301945755849361

>  <PUBCHEM_SHAPE_MULTIPOLES>  (1) 
238.96
4.28
1.72
1.19
1.57
0.2
0.27
-0.66
-0.07
-0.36
-0.24
-0.9
0.21
-0.28

>  <PUBCHEM_SHAPE_SELFOVERLAP>  (1) 
479.654

>  <PUBCHEM_SHAPE_VOLUME>  (1) 
141.2

>  <PUBCHEM_COORDINATE_TYPE>  (1) 
2
5
10

$$$$
