43529
     RDKit          3D

 15 14  0  0  1  0  0  0  0  0999 V2000
    0.4055   -1.0485   -0.2963 O   0  0  0  0  0  0  0  0  0  0  0  0
   -3.0452    1.3155    0.5670 O   0  0  0  0  0  0  0  0  0  0  0  0
   -1.7802    0.4590   -1.1615 O   0  0  0  0  0  0  0  0  0  0  0  0
   -0.1190   -2.8391    1.0700 O   0  0  0  0  0  0  0  0  0  0  0  0
    2.3773    0.9797   -0.0905 N   0  0  0  0  0  0  0  0  0  0  0  0
    0.9718    1.2076    0.3284 C   0  0  0  0  0  0  0  0  0  0  0  0
    0.3138   -0.1000    0.7673 C   0  0  0  0  0  0  0  0  0  0  0  0
    3.0421    2.2986   -0.5083 C   0  0  0  0  0  0  0  0  0  0  0  0
    3.1967    0.3749    1.0576 C   0  0  0  0  0  0  0  0  0  0  0  0
    2.4412    0.0148   -1.2824 C   0  0  0  0  0  0  0  0  0  0  0  0
   -1.1581    0.0567    1.1602 C   0  0  0  0  0  0  0  0  0  0  0  0
   -2.0000    0.6162    0.0315 C   0  0  0  0  0  0  0  0  0  0  0  0
   -0.0874   -2.2884   -0.0212 C   0  0  0  0  0  0  0  0  0  0  0  0
   -0.6150   -2.9499   -1.2418 C   0  0  0  0  0  0  0  0  0  0  0  0
   -3.9434    1.9029   -0.3800 C   0  0  0  0  0  0  0  0  0  0  0  0
  1  7  1  0
  1 13  1  0
  2 12  1  0
  2 15  1  0
  3 12  2  0
  4 13  2  0
  5  6  1  0
  5  8  1  0
  5  9  1  0
  5 10  1  0
  6  7  1  0
  7 11  1  0
 11 12  1  0
 13 14  1  0
M  CHG  1   5   1
M  END
>  <PUBCHEM_COMPOUND_CID>  (1) 
43529

>  <PUBCHEM_CONFORMER_RMSD>  (1) 
0.8

>  <PUBCHEM_CONFORMER_DIVERSEORDER>  (1) 
1
7
15
10
5
6
9
4
8
2
3
11
12
13
14

>  <PUBCHEM_MMFF94_PARTIAL_CHARGES>  (1) 
15
1 -0.43
10 0.5
11 0.06
12 0.66
13 0.66
14 0.06
15 0.28
2 -0.43
3 -0.57
4 -0.57
5 -1.01
6 0.5
7 0.28
8 0.5
9 0.5

>  <PUBCHEM_EFFECTIVE_ROTOR_COUNT>  (1) 
7

>  <PUBCHEM_PHARMACOPHORE_FEATURES>  (1) 
3
1 3 acceptor
1 4 acceptor
1 5 cation

>  <PUBCHEM_HEAVY_ATOM_COUNT>  (1) 
15

>  <PUBCHEM_ATOM_DEF_STEREO_COUNT>  (1) 
1

>  <PUBCHEM_ATOM_UDEF_STEREO_COUNT>  (1) 
0

>  <PUBCHEM_BOND_DEF_STEREO_COUNT>  (1) 
0

>  <PUBCHEM_BOND_UDEF_STEREO_COUNT>  (1) 
0

>  <PUBCHEM_ISOTOPIC_ATOM_COUNT>  (1) 
0

>  <PUBCHEM_COMPONENT_COUNT>  (1) 
1

>  <PUBCHEM_CACTVS_TAUTO_COUNT>  (1) 
1

>  <PUBCHEM_CONFORMER_ID>  (1) 
0000AA0900000001

>  <PUBCHEM_MMFF94_ENERGY>  (1) 
47.3517

>  <PUBCHEM_FEATURE_SELFOVERLAP>  (1) 
15.223

>  <PUBCHEM_SHAPE_FINGERPRINT>  (1) 
1 1 18335983047651259790
10922049 32 18409740555575006331
11031198 65 18338240345424224953
12138202 97 18200602521959841820
12423570 1 11753115445105643595
12500047 106 18342452694966618160
12532896 13 18337110163033866654
14817 1 16764164281645897627
15502708 8 18053664960312740495
15775835 57 18187083979130772404
15852999 172 17917711318606833934
15906896 17 18264768942272592747
16945 1 18336272257848129360
17134986 127 18410012104798179461
17954114 43 18338510820578175959
18186145 218 18201733816034683469
19786989 88 18189324689739676789
20645476 183 17750252424825954982
20645477 70 18124309403606442669
20711985 344 17978503466514218658
20820808 20 18342459188498259793
21501502 16 18120366812264468604
21524375 3 18409724062884908385
22713019 5 17838880883065708279
22713019 99 18057616364996327214
23419403 2 17477543768377381411
25 1 18269571454454230641
2748010 2 18269295541417950850
305870 269 18338508621544234017
3060560 45 18339358556991318533
528862 383 18196083340275666683
59915604 170 16558743542251658472
7364860 26 17982447096953194587
81228 2 17906450279102076635
81539 233 18336544902820615309
88987 49 18197775703582865144

>  <PUBCHEM_SHAPE_MULTIPOLES>  (1) 
280.23
5.07
3.04
1.23
0.85
2.46
-0.05
-5.08
-0.53
0.91
-0.52
-0.21
0.33
-0.15

>  <PUBCHEM_SHAPE_SELFOVERLAP>  (1) 
534.653

>  <PUBCHEM_SHAPE_VOLUME>  (1) 
173.7

>  <PUBCHEM_COORDINATE_TYPE>  (1) 
2
5
10

$$$$
