43527
     RDKit          3D

 12 11  0  0  1  0  0  0  0  0999 V2000
    0.4284   -1.5269   -0.8126 O   0  0  0  0  0  0  0  0  0  0  0  0
   -3.1481    0.3004    0.6404 O   0  0  0  0  0  0  0  0  0  0  0  0
   -1.8230    0.0709   -1.2338 O   0  0  0  0  0  0  0  0  0  0  0  0
    2.2911    0.4299    0.0507 N   0  0  0  0  0  0  0  0  0  0  0  0
    0.8713    0.4545    0.4832 C   0  0  0  0  0  0  0  0  0  0  0  0
    0.2769   -0.9533    0.4865 C   0  0  0  0  0  0  0  0  0  0  0  0
    2.8915    1.8423    0.0710 C   0  0  0  0  0  0  0  0  0  0  0  0
    3.1285   -0.4582    0.9810 C   0  0  0  0  0  0  0  0  0  0  0  0
    2.4168   -0.1215   -1.3761 C   0  0  0  0  0  0  0  0  0  0  0  0
   -1.2050   -0.9915    0.8707 C   0  0  0  0  0  0  0  0  0  0  0  0
   -2.0629   -0.1535   -0.0554 C   0  0  0  0  0  0  0  0  0  0  0  0
   -4.0654    1.1069   -0.1056 C   0  0  0  0  0  0  0  0  0  0  0  0
  1  6  1  0
  2 11  1  0
  2 12  1  0
  3 11  2  0
  4  5  1  0
  4  7  1  0
  4  8  1  0
  4  9  1  0
  5  6  1  0
  6 10  1  0
 10 11  1  0
M  CHG  1   4   1
M  END
>  <PUBCHEM_COMPOUND_CID>  (1) 
43527

>  <PUBCHEM_CONFORMER_RMSD>  (1) 
0.6

>  <PUBCHEM_CONFORMER_DIVERSEORDER>  (1) 
2
7
9
3
6
1
4
8
5

>  <PUBCHEM_MMFF94_PARTIAL_CHARGES>  (1) 
13
1 -0.68
10 0.06
11 0.66
12 0.28
2 -0.43
27 0.4
3 -0.57
4 -1.01
5 0.5
6 0.28
7 0.5
8 0.5
9 0.5

>  <PUBCHEM_EFFECTIVE_ROTOR_COUNT>  (1) 
5

>  <PUBCHEM_PHARMACOPHORE_FEATURES>  (1) 
4
1 1 acceptor
1 1 donor
1 3 acceptor
1 4 cation

>  <PUBCHEM_HEAVY_ATOM_COUNT>  (1) 
12

>  <PUBCHEM_ATOM_DEF_STEREO_COUNT>  (1) 
1

>  <PUBCHEM_ATOM_UDEF_STEREO_COUNT>  (1) 
0

>  <PUBCHEM_BOND_DEF_STEREO_COUNT>  (1) 
0

>  <PUBCHEM_BOND_UDEF_STEREO_COUNT>  (1) 
0

>  <PUBCHEM_ISOTOPIC_ATOM_COUNT>  (1) 
0

>  <PUBCHEM_COMPONENT_COUNT>  (1) 
1

>  <PUBCHEM_CACTVS_TAUTO_COUNT>  (1) 
1

>  <PUBCHEM_CONFORMER_ID>  (1) 
0000AA0700000002

>  <PUBCHEM_MMFF94_ENERGY>  (1) 
39.0058

>  <PUBCHEM_FEATURE_SELFOVERLAP>  (1) 
20.301

>  <PUBCHEM_SHAPE_FINGERPRINT>  (1) 
10857977 72 16515978007877940659
11031198 65 18273220776739007275
11062470 55 13902185984773898715
12897270 3 14692576545619616362
12932764 1 17675918815748461874
13705890 14 16702303468244064302
14325111 11 18336264630060077859
15775835 57 18259986006625216560
16945 1 18188758471041765106
170605 34 18410575063599770715
177051 138 13479143388761383153
18186145 218 18130799944455100665
18511873 20 18040709247610187530
20281407 28 9583519815338692731
20653085 51 18272377502612138883
20711983 171 17821736056308548038
21028194 46 18113898247417941153
21293036 1 14908172054317195835
22485316 2 9511460018003731985
230 275 18202003200820634074
23235685 24 18408601461549833361
23402539 116 18060124449613530152
3248919 1 17632303392660870618
5084963 1 17240480295231176570
8030462 33 15697734669742799610

>  <PUBCHEM_SHAPE_MULTIPOLES>  (1) 
224.37
6.14
1.4
1.13
3.38
0.24
0.3
2.66
-0.5
-0.42
-0.1
-0.4
-0.14
0.1

>  <PUBCHEM_SHAPE_SELFOVERLAP>  (1) 
418.629

>  <PUBCHEM_SHAPE_VOLUME>  (1) 
142.4

>  <PUBCHEM_COORDINATE_TYPE>  (1) 
2
5
10

$$$$
