43532
     RDKit          3D

 15 16  0  0  0  0  0  0  0  0999 V2000
    3.1009    0.2008   -0.0775 O   0  0  0  0  0  0  0  0  0  0  0  0
   -0.5440    2.5722    0.3012 O   0  0  0  0  0  0  0  0  0  0  0  0
   -2.3881   -1.8609    0.3028 O   0  0  0  0  0  0  0  0  0  0  0  0
   -2.7413    0.8810    0.4240 O   0  0  0  0  0  0  0  0  0  0  0  0
    2.9542   -2.1083   -0.1417 O   0  0  0  0  0  0  0  0  0  0  0  0
    0.8766    0.6683    0.1208 C   0  0  0  0  0  0  0  0  0  0  0  0
    1.0343   -0.7013    0.0617 C   0  0  0  0  0  0  0  0  0  0  0  0
    2.1929    1.3257    0.0352 C   0  0  0  0  0  0  0  0  0  0  0  0
   -0.3834    1.2244    0.2426 C   0  0  0  0  0  0  0  0  0  0  0  0
   -0.0322   -1.5793    0.1195 C   0  0  0  0  0  0  0  0  0  0  0  0
   -1.4838    0.3636    0.3038 C   0  0  0  0  0  0  0  0  0  0  0  0
   -1.3089   -1.0297    0.2426 C   0  0  0  0  0  0  0  0  0  0  0  0
    2.4507   -1.0054   -0.0645 C   0  0  0  0  0  0  0  0  0  0  0  0
   -0.7245    3.2616   -0.9361 C   0  0  0  0  0  0  0  0  0  0  0  0
   -3.0033   -2.2127   -0.9343 C   0  0  0  0  0  0  0  0  0  0  0  0
  1  8  1  0
  1 13  1  0
  2  9  1  0
  2 14  1  0
  3 12  1  0
  3 15  1  0
  4 11  1  0
  5 13  2  0
  6  7  2  0
  6  8  1  0
  6  9  1  0
  7 10  1  0
  7 13  1  0
  9 11  2  0
 10 12  2  0
 11 12  1  0
M  END
>  <PUBCHEM_COMPOUND_CID>  (1) 
43532

>  <PUBCHEM_CONFORMER_RMSD>  (1) 
0.6

>  <PUBCHEM_CONFORMER_DIVERSEORDER>  (1) 
2
1

>  <PUBCHEM_MMFF94_PARTIAL_CHARGES>  (1) 
17
1 -0.43
10 -0.15
11 0.08
12 0.08
13 0.63
14 0.28
15 0.28
18 0.15
19 0.45
2 -0.36
3 -0.36
4 -0.53
5 -0.57
6 -0.14
7 0.09
8 0.42
9 0.08

>  <PUBCHEM_EFFECTIVE_ROTOR_COUNT>  (1) 
2.4

>  <PUBCHEM_PHARMACOPHORE_FEATURES>  (1) 
6
1 2 acceptor
1 3 acceptor
1 4 donor
1 5 acceptor
5 1 6 7 8 13 rings
6 6 7 9 10 11 12 rings

>  <PUBCHEM_HEAVY_ATOM_COUNT>  (1) 
15

>  <PUBCHEM_ATOM_DEF_STEREO_COUNT>  (1) 
0

>  <PUBCHEM_ATOM_UDEF_STEREO_COUNT>  (1) 
0

>  <PUBCHEM_BOND_DEF_STEREO_COUNT>  (1) 
0

>  <PUBCHEM_BOND_UDEF_STEREO_COUNT>  (1) 
0

>  <PUBCHEM_ISOTOPIC_ATOM_COUNT>  (1) 
0

>  <PUBCHEM_COMPONENT_COUNT>  (1) 
1

>  <PUBCHEM_CACTVS_TAUTO_COUNT>  (1) 
5

>  <PUBCHEM_CONFORMER_ID>  (1) 
0000AA0C00000002

>  <PUBCHEM_MMFF94_ENERGY>  (1) 
58.9229

>  <PUBCHEM_FEATURE_SELFOVERLAP>  (1) 
30.537

>  <PUBCHEM_SHAPE_FINGERPRINT>  (1) 
1 1 17111847068250929653
10967382 1 18410859832415431737
11206711 2 18265052612203970927
13140716 1 18410858741536183851
13380535 76 17325769175996061417
14817 1 14316204180525464945
15490181 7 18047751503310544290
16945 1 18265894648937178706
193761 8 18410857616544700784
20645476 183 16958486186045655342
20645477 70 17616520101435861447
21501502 16 18412266133847467218
21524375 3 17540257549140159849
2334 1 18339082699784338499
23388829 49 18055352706487533631
23402539 116 18270107054267011686
23419403 2 17252245177086268572
23526114 1 17113819051092927975
23552423 10 18334582364569502722
23559900 14 17694504746564416430
241688 4 18410012147663196657
25 1 16893140994220005148
257057 1 18339911692875961258
2748010 2 18411701027530170003
3060560 45 17326322230234115444
3071541 158 18046056335764534029
5255222 1 18340486668943585424
7364860 26 17836366321373753201
81228 2 18408319964971874337

>  <PUBCHEM_SHAPE_MULTIPOLES>  (1) 
279.35
4.21
3.18
0.75
0.06
1.99
0.1
-2.69
0.45
0.6
0.73
0.27
0.1
-0.23

>  <PUBCHEM_SHAPE_SELFOVERLAP>  (1) 
606.433

>  <PUBCHEM_SHAPE_VOLUME>  (1) 
156.5

>  <PUBCHEM_COORDINATE_TYPE>  (1) 
2
5
10

$$$$
