43538
     RDKit          3D

 26 27  0  0  0  0  0  0  0  0999 V2000
    6.4588   -0.7842    1.9096 Cl  0  0  0  0  0  0  0  0  0  0  0  0
    1.8432   -0.0492   -1.6598 O   0  0  0  0  0  0  0  0  0  0  0  0
   -0.8256   -1.4711   -1.7672 O   0  0  0  0  0  0  0  0  0  0  0  0
   -2.1630   -2.4750    0.2793 N   0  0  0  0  0  0  0  0  0  0  0  0
   -0.8216    0.7520   -1.0164 N   0  0  0  0  0  0  0  0  0  0  0  0
   -1.8801   -1.0446    0.3357 C   0  0  0  0  0  0  0  0  0  0  0  0
   -1.1376   -0.6238   -0.9262 C   0  0  0  0  0  0  0  0  0  0  0  0
   -0.0719    1.3102   -2.1527 C   0  0  0  0  0  0  0  0  0  0  0  0
   -1.3158    1.7014   -0.0395 C   0  0  0  0  0  0  0  0  0  0  0  0
   -3.3333   -2.7352   -0.5601 C   0  0  0  0  0  0  0  0  0  0  0  0
   -2.3728   -3.0112    1.6249 C   0  0  0  0  0  0  0  0  0  0  0  0
    1.4242    1.2882   -1.8985 C   0  0  0  0  0  0  0  0  0  0  0  0
   -2.5361    2.3508   -0.2265 C   0  0  0  0  0  0  0  0  0  0  0  0
   -0.5540    1.9630    1.0995 C   0  0  0  0  0  0  0  0  0  0  0  0
   -3.6403   -4.2216   -0.6285 C   0  0  0  0  0  0  0  0  0  0  0  0
   -3.5425   -2.3273    2.3121 C   0  0  0  0  0  0  0  0  0  0  0  0
   -2.9945    3.2615    0.7255 C   0  0  0  0  0  0  0  0  0  0  0  0
   -3.3733    2.0904   -1.4367 C   0  0  0  0  0  0  0  0  0  0  0  0
   -1.0126    2.8735    2.0514 C   0  0  0  0  0  0  0  0  0  0  0  0
   -2.2326    3.5228    1.8644 C   0  0  0  0  0  0  0  0  0  0  0  0
    2.9186   -0.2205   -0.8280 C   0  0  0  0  0  0  0  0  0  0  0  0
    3.9076    0.7605   -0.7555 C   0  0  0  0  0  0  0  0  0  0  0  0
    3.0246   -1.3762   -0.0542 C   0  0  0  0  0  0  0  0  0  0  0  0
    5.0024    0.5860    0.0908 C   0  0  0  0  0  0  0  0  0  0  0  0
    4.1196   -1.5509    0.7922 C   0  0  0  0  0  0  0  0  0  0  0  0
    5.1086   -0.5697    0.8646 C   0  0  0  0  0  0  0  0  0  0  0  0
  1 26  1  0
  2 12  1  0
  2 21  1  0
  3  7  2  0
  4  6  1  0
  4 10  1  0
  4 11  1  0
  5  7  1  0
  5  8  1  0
  5  9  1  0
  6  7  1  0
  8 12  1  0
  9 13  2  0
  9 14  1  0
 10 15  1  0
 11 16  1  0
 13 17  1  0
 13 18  1  0
 14 19  2  0
 17 20  2  0
 19 20  1  0
 21 22  2  0
 21 23  1  0
 22 24  1  0
 23 25  2  0
 24 26  2  0
 25 26  1  0
M  END
>  <PUBCHEM_COMPOUND_CID>  (1) 
43538

>  <PUBCHEM_CONFORMER_RMSD>  (1) 
1

>  <PUBCHEM_CONFORMER_DIVERSEORDER>  (1) 
1
4
189
117
215
34
121
59
61
178
155
182
38
24
181
52
198
194
150
91
60
80
78
203
127
128
104
180
86
162
10
126
101
85
148
83
88
166
205
21
67
139
17
174
93
3
65
53
120
77
98
39
135
210
33
29
41
28
6
5
197
136
116
137
152
12
54
179
23
125
163
146
103
114
164
75
2
15
97
144
176
62
20
42
156
147
66
213
50
56
79
43
8
123
142
130
99
68
145
22
89
177
113
14
187
161
19
48
51
81
170
102
183
208
110
115
44
30
31
95
153
16
195
94
186
175
45
26
55
192
158
87
132
57
47
202
35
84
58
184
122
167
37
157
105
211
129
206
108
191
106
172
100
138
143
107
70
149
92
212
188
151
63
200
168
134
7
74
185
72
118
214
40
124
133
173
154
165
71
190
18
193
160
90
13
112
49
141
73
201
131
27
25
111
171
169
9
82
64
204
11
36
69
109
119
140
199
207
96
76
32
196
209
159
46

>  <PUBCHEM_MMFF94_PARTIAL_CHARGES>  (1) 
32
1 -0.18
10 0.27
11 0.27
12 0.28
13 -0.14
14 -0.15
17 -0.15
18 0.14
19 -0.15
2 -0.36
20 -0.15
21 0.08
22 -0.15
23 -0.15
24 -0.15
25 -0.15
26 0.18
3 -0.57
37 0.15
4 -0.81
44 0.15
48 0.15
49 0.15
5 -0.48
50 0.15
51 0.15
52 0.15
53 0.15
6 0.33
7 0.57
8 0.3
9 0.12

>  <PUBCHEM_EFFECTIVE_ROTOR_COUNT>  (1) 
10

>  <PUBCHEM_PHARMACOPHORE_FEATURES>  (1) 
5
1 2 acceptor
1 3 acceptor
1 4 cation
6 21 22 23 24 25 26 rings
6 9 13 14 17 19 20 rings

>  <PUBCHEM_HEAVY_ATOM_COUNT>  (1) 
26

>  <PUBCHEM_ATOM_DEF_STEREO_COUNT>  (1) 
0

>  <PUBCHEM_ATOM_UDEF_STEREO_COUNT>  (1) 
0

>  <PUBCHEM_BOND_DEF_STEREO_COUNT>  (1) 
0

>  <PUBCHEM_BOND_UDEF_STEREO_COUNT>  (1) 
0

>  <PUBCHEM_ISOTOPIC_ATOM_COUNT>  (1) 
0

>  <PUBCHEM_COMPONENT_COUNT>  (1) 
1

>  <PUBCHEM_CACTVS_TAUTO_COUNT>  (1) 
1

>  <PUBCHEM_CONFORMER_ID>  (1) 
0000AA1200000001

>  <PUBCHEM_MMFF94_ENERGY>  (1) 
91.1633

>  <PUBCHEM_FEATURE_SELFOVERLAP>  (1) 
25.373

>  <PUBCHEM_SHAPE_FINGERPRINT>  (1) 
11036077 4 18263072228738309370
11070050 100 16905299505711559457
11135609 149 17548664819443631151
11552529 35 18411976953979210214
121448 382 18198618840091718037
12160290 23 18192739815805072975
12422481 6 17756186369239002561
12549972 3 17487078673284003302
12596599 1 18187933824810570994
12788726 201 18265915689992673687
13583140 156 17560788906671670298
13631057 29 18265337381758279236
14068700 675 18262789808747863998
14178342 30 18335425625869485230
14251757 17 15866040346122123483
14468879 13 17130982054077526228
14787075 74 18200303309132604893
14844126 61 18270945921388338086
18603816 31 15864341412174209208
20197701 30 18119526531930402229
20600515 1 17342965920011738967
21304303 282 18196075661164623781
244849 19 17544444889684659847
345986 75 18191040094971320891
3633792 109 17904463126441149621
376196 1 16983777130911752460
392239 28 18125436669133440232
4340502 62 17907322965698498249
469060 322 17131252683976946102
5104073 3 18261099774235801224
9981440 41 17631159793410033758

>  <PUBCHEM_SHAPE_MULTIPOLES>  (1) 
515.24
10.1
4.82
2.24
18.61
1.44
-0.3
4.44
-4.22
-9
-1.83
-0.46
-0.51
-0.95

>  <PUBCHEM_SHAPE_SELFOVERLAP>  (1) 
1056.36

>  <PUBCHEM_SHAPE_VOLUME>  (1) 
298.7

>  <PUBCHEM_COORDINATE_TYPE>  (1) 
2
5
10

$$$$
