43536
     RDKit          3D

 26 27  0  0  0  0  0  0  0  0999 V2000
   -1.0290    1.0037    0.7977 O   0  0  0  0  0  0  0  0  0  0  0  0
    0.9650   -3.1871    0.0711 O   0  0  0  0  0  0  0  0  0  0  0  0
   -1.7513   -3.2200   -0.2012 N   0  0  0  0  0  0  0  0  0  0  0  0
    0.9166   -1.0681    1.0779 N   0  0  0  0  0  0  0  0  0  0  0  0
   -1.1562   -2.4228    0.8664 C   0  0  0  0  0  0  0  0  0  0  0  0
    0.3683   -0.3268    2.2244 C   0  0  0  0  0  0  0  0  0  0  0  0
    0.3389   -2.2736    0.6152 C   0  0  0  0  0  0  0  0  0  0  0  0
   -3.0065   -3.8248    0.2471 C   0  0  0  0  0  0  0  0  0  0  0  0
   -1.9792   -2.3984   -1.3908 C   0  0  0  0  0  0  0  0  0  0  0  0
    2.1469   -0.5578    0.5072 C   0  0  0  0  0  0  0  0  0  0  0  0
   -0.0546    1.0766    1.8304 C   0  0  0  0  0  0  0  0  0  0  0  0
   -4.0121   -2.7625    0.6571 C   0  0  0  0  0  0  0  0  0  0  0  0
   -2.5989   -3.2153   -2.5119 C   0  0  0  0  0  0  0  0  0  0  0  0
    3.0193    0.1972    1.2912 C   0  0  0  0  0  0  0  0  0  0  0  0
    2.4587   -0.8218   -0.8266 C   0  0  0  0  0  0  0  0  0  0  0  0
    4.5154    0.4243   -0.5922 C   0  0  0  0  0  0  0  0  0  0  0  0
    4.2036    0.6881    0.7415 C   0  0  0  0  0  0  0  0  0  0  0  0
    3.6429   -0.3308   -1.3762 C   0  0  0  0  0  0  0  0  0  0  0  0
   -1.5148    2.1934    0.3218 C   0  0  0  0  0  0  0  0  0  0  0  0
   -1.3668    2.5383   -1.0216 C   0  0  0  0  0  0  0  0  0  0  0  0
    5.7809    0.9496   -1.1809 C   0  0  0  0  0  0  0  0  0  0  0  0
   -2.1638    3.0636    1.1977 C   0  0  0  0  0  0  0  0  0  0  0  0
   -1.8675    3.7534   -1.4891 C   0  0  0  0  0  0  0  0  0  0  0  0
   -0.6748    1.6192   -1.9734 C   0  0  0  0  0  0  0  0  0  0  0  0
   -2.6647    4.2788    0.7303 C   0  0  0  0  0  0  0  0  0  0  0  0
   -2.5164    4.6235   -0.6131 C   0  0  0  0  0  0  0  0  0  0  0  0
  1 11  1  0
  1 19  1  0
  2  7  2  0
  3  5  1  0
  3  8  1  0
  3  9  1  0
  4  6  1  0
  4  7  1  0
  4 10  1  0
  5  7  1  0
  6 11  1  0
  8 12  1  0
  9 13  1  0
 10 14  2  0
 10 15  1  0
 14 17  1  0
 15 18  2  0
 16 17  2  0
 16 18  1  0
 16 21  1  0
 19 20  2  0
 19 22  1  0
 20 23  1  0
 20 24  1  0
 22 25  2  0
 23 26  2  0
 25 26  1  0
M  END
>  <PUBCHEM_COMPOUND_CID>  (1) 
43536

>  <PUBCHEM_CONFORMER_RMSD>  (1) 
1.2

>  <PUBCHEM_CONFORMER_DIVERSEORDER>  (1) 
1
86
17
78
82
93
70
104
9
22
77
24
68
72
34
100
47
36
81
41
37
57
20
102
27
42
56
12
44
58
69
91
74
49
8
88
38
64
62
3
80
99
19
25
60
101
26
10
85
51
14
61
103
98
13
18
71
75
7
16
63
6
54
65
4
46
95
53
31
50
21
84
67
2
59
40
45
39
28
48
55
73
90
35
76
23
5
33
66
32
89
43
15
11
29
30
87
94
92
79
97
52
96
83

>  <PUBCHEM_MMFF94_PARTIAL_CHARGES>  (1) 
32
1 -0.36
10 0.12
11 0.28
14 -0.15
15 -0.15
16 -0.14
17 -0.15
18 -0.15
19 0.08
2 -0.57
20 -0.14
21 0.14
22 -0.15
23 -0.15
24 0.14
25 -0.15
26 -0.15
3 -0.81
4 -0.48
43 0.15
44 0.15
45 0.15
46 0.15
5 0.33
50 0.15
51 0.15
55 0.15
56 0.15
6 0.3
7 0.57
8 0.27
9 0.27

>  <PUBCHEM_EFFECTIVE_ROTOR_COUNT>  (1) 
10

>  <PUBCHEM_PHARMACOPHORE_FEATURES>  (1) 
5
1 1 acceptor
1 2 acceptor
1 3 cation
6 10 14 15 16 17 18 rings
6 19 20 22 23 25 26 rings

>  <PUBCHEM_HEAVY_ATOM_COUNT>  (1) 
26

>  <PUBCHEM_ATOM_DEF_STEREO_COUNT>  (1) 
0

>  <PUBCHEM_ATOM_UDEF_STEREO_COUNT>  (1) 
0

>  <PUBCHEM_BOND_DEF_STEREO_COUNT>  (1) 
0

>  <PUBCHEM_BOND_UDEF_STEREO_COUNT>  (1) 
0

>  <PUBCHEM_ISOTOPIC_ATOM_COUNT>  (1) 
0

>  <PUBCHEM_COMPONENT_COUNT>  (1) 
1

>  <PUBCHEM_CACTVS_TAUTO_COUNT>  (1) 
1

>  <PUBCHEM_CONFORMER_ID>  (1) 
0000AA1000000001

>  <PUBCHEM_MMFF94_ENERGY>  (1) 
87.5487

>  <PUBCHEM_FEATURE_SELFOVERLAP>  (1) 
25.371

>  <PUBCHEM_SHAPE_FINGERPRINT>  (1) 
11421498 54 17895744218408197586
11477941 20 18122927562267158780
12156800 1 17910436949508774013
12160290 23 18270663304166143827
12788726 201 18336258033080098838
13681431 1 17690003752910412826
14955137 171 18048894179740187571
151778 21 17690283703216503001
15210252 30 18117259557785906461
17357779 13 18056189404771915830
1813 80 18053386783786848459
20600515 1 17907567383142952210
21285901 2 18059028283744685790
21304303 282 18120903201749611386
21304303 64 17905619043953232954
21641784 216 18122084236542250820
2255824 54 17404852657772139529
23419403 2 17488453255918028888
238 59 17619079334517204584
26353 1 18053658363200645974
266924 78 17333673586483891593
3060560 45 17473539158013277234
35225 105 18200582597685781143
38695281 34 17833267515591669130
469060 322 18190197830473049235
5080951 261 17988918964629709258
5081480 168 17907572876495755167
9925002 15 18048625842925653065

>  <PUBCHEM_SHAPE_MULTIPOLES>  (1) 
513.37
7.52
6.49
2.04
11.06
2.66
-0.4
0.2
-2.08
-11.3
-1.32
-0.36
-0.11
-0.57

>  <PUBCHEM_SHAPE_SELFOVERLAP>  (1) 
1059.199

>  <PUBCHEM_SHAPE_VOLUME>  (1) 
297.2

>  <PUBCHEM_COORDINATE_TYPE>  (1) 
2
5
10

$$$$
