43545
     RDKit          3D

 15 15  0  0  0  0  0  0  0  0999 V2000
    2.3204    0.1453    0.4768 P   0  0  0  0  0  0  0  0  0  0  0  0
    1.1386   -0.9242    0.2137 O   0  0  0  0  0  0  0  0  0  0  0  0
    2.3371    1.0546   -0.8647 O   0  0  0  0  0  0  0  0  0  0  0  0
    3.6692   -0.7480    0.3631 O   0  0  0  0  0  0  0  0  0  0  0  0
    2.2118    0.9076    1.7675 O   0  0  0  0  0  0  0  0  0  0  0  0
   -5.4174    0.5884   -0.2163 N   0  0  0  0  0  0  0  0  0  0  0  0
   -0.1925   -0.6178    0.1258 C   0  0  0  0  0  0  0  0  0  0  0  0
   -0.6067    0.7027    0.2673 C   0  0  0  0  0  0  0  0  0  0  0  0
   -1.1202   -1.6285   -0.1040 C   0  0  0  0  0  0  0  0  0  0  0  0
   -1.9630    1.0158    0.1780 C   0  0  0  0  0  0  0  0  0  0  0  0
   -2.4766   -1.3155   -0.1934 C   0  0  0  0  0  0  0  0  0  0  0  0
   -2.8979    0.0067   -0.0523 C   0  0  0  0  0  0  0  0  0  0  0  0
    3.3734    2.0084   -1.0202 C   0  0  0  0  0  0  0  0  0  0  0  0
    3.9111   -1.5231   -0.7986 C   0  0  0  0  0  0  0  0  0  0  0  0
   -4.2873    0.3276   -0.1427 C   0  0  0  0  0  0  0  0  0  0  0  0
  1  2  1  0
  1  3  1  0
  1  4  1  0
  1  5  2  0
  2  7  1  0
  3 13  1  0
  4 14  1  0
  6 15  3  0
  7  8  2  0
  7  9  1  0
  8 10  1  0
  9 11  2  0
 10 12  2  0
 11 12  1  0
 12 15  1  0
M  END
>  <PUBCHEM_COMPOUND_CID>  (1) 
43545

>  <PUBCHEM_CONFORMER_RMSD>  (1) 
0.6

>  <PUBCHEM_CONFORMER_DIVERSEORDER>  (1) 
1
6
9
11
4
14
15
12
5
10
13
7
2
8
3

>  <PUBCHEM_MMFF94_PARTIAL_CHARGES>  (1) 
19
1 1.51
10 -0.15
11 -0.15
12 0.07
13 0.28
14 0.28
15 0.48
16 0.15
17 0.15
18 0.15
19 0.15
2 -0.35
3 -0.55
4 -0.55
5 -0.7
6 -0.56
7 0.08
8 -0.15
9 -0.15

>  <PUBCHEM_EFFECTIVE_ROTOR_COUNT>  (1) 
4

>  <PUBCHEM_PHARMACOPHORE_FEATURES>  (1) 
3
1 5 acceptor
1 6 acceptor
6 7 8 9 10 11 12 rings

>  <PUBCHEM_HEAVY_ATOM_COUNT>  (1) 
15

>  <PUBCHEM_ATOM_DEF_STEREO_COUNT>  (1) 
0

>  <PUBCHEM_ATOM_UDEF_STEREO_COUNT>  (1) 
0

>  <PUBCHEM_BOND_DEF_STEREO_COUNT>  (1) 
0

>  <PUBCHEM_BOND_UDEF_STEREO_COUNT>  (1) 
0

>  <PUBCHEM_ISOTOPIC_ATOM_COUNT>  (1) 
0

>  <PUBCHEM_COMPONENT_COUNT>  (1) 
1

>  <PUBCHEM_CACTVS_TAUTO_COUNT>  (1) 
1

>  <PUBCHEM_CONFORMER_ID>  (1) 
0000AA1900000001

>  <PUBCHEM_MMFF94_ENERGY>  (1) 
29.0053

>  <PUBCHEM_FEATURE_SELFOVERLAP>  (1) 
15.223

>  <PUBCHEM_SHAPE_FINGERPRINT>  (1) 
11132069 177 18411972581470024195
12932764 1 17630892792410014582
13760787 5 18410576193476817397
14115302 16 18342741818820951938
15342168 16 16951419899406587764
15536298 74 18408888459996950580
15775835 57 18187368786859615268
18186145 218 17458337572040009295
200 152 16630519614268688491
20279233 1 16630809923766228446
20645476 183 18264212589441516943
20645477 70 18411984650122781030
21119208 17 18408323263438003671
212847 35 18343021086200504809
2255824 54 18187082858619016570
23402539 116 17917701367246795517
23557571 272 17344339209955281090
23559900 14 18343018908894542238
3286 77 17703785890641278136
474 4 17096655490105694028
4990 188 17060337422939107397
5104073 3 18335422408669683051
537710 114 18412263947899244985
58051976 100 18335424568748692630
633830 44 18113333128770052279
69090 78 17917702500912706167
7364860 26 18341051908642024492
9999458 23 18040156197329724726

>  <PUBCHEM_SHAPE_MULTIPOLES>  (1) 
284.08
8.68
1.71
0.96
4.28
0
0.19
-1.1
-1.56
-1.25
-0.38
-0.89
-0.26
-0.16

>  <PUBCHEM_SHAPE_SELFOVERLAP>  (1) 
565.301

>  <PUBCHEM_SHAPE_VOLUME>  (1) 
168.4

>  <PUBCHEM_COORDINATE_TYPE>  (1) 
2
5
10

$$$$
