43547
     RDKit          3D

 16 18  0  0  0  0  0  0  0  0999 V2000
    3.3613    1.0070    0.3246 O   0  0  0  0  0  0  0  0  0  0  0  0
    0.0940   -0.7314    0.0319 C   0  0  0  0  0  0  0  0  0  0  0  0
   -1.3060   -0.3984   -0.0160 C   0  0  0  0  0  0  0  0  0  0  0  0
    1.0499    0.3106    0.1559 C   0  0  0  0  0  0  0  0  0  0  0  0
   -1.6966    0.9639    0.0620 C   0  0  0  0  0  0  0  0  0  0  0  0
    0.6265    1.6399    0.2299 C   0  0  0  0  0  0  0  0  0  0  0  0
    2.4239    0.0187    0.2052 C   0  0  0  0  0  0  0  0  0  0  0  0
   -0.7261    1.9617    0.1837 C   0  0  0  0  0  0  0  0  0  0  0  0
    0.5999   -2.0536   -0.0372 C   0  0  0  0  0  0  0  0  0  0  0  0
   -2.3471   -1.3526   -0.1381 C   0  0  0  0  0  0  0  0  0  0  0  0
   -3.0547    1.3222    0.0183 C   0  0  0  0  0  0  0  0  0  0  0  0
    2.8812   -1.2935    0.1343 C   0  0  0  0  0  0  0  0  0  0  0  0
    1.9689   -2.3302    0.0133 C   0  0  0  0  0  0  0  0  0  0  0  0
   -3.6942   -0.9827   -0.1806 C   0  0  0  0  0  0  0  0  0  0  0  0
   -4.0480    0.3553   -0.1023 C   0  0  0  0  0  0  0  0  0  0  0  0
    3.8670    1.5629   -0.8849 C   0  0  0  0  0  0  0  0  0  0  0  0
  1  7  1  0
  1 16  1  0
  2  3  2  0
  2  4  1  0
  2  9  1  0
  3  5  1  0
  3 10  1  0
  4  6  2  0
  4  7  1  0
  5  8  2  0
  5 11  1  0
  6  8  1  0
  7 12  2  0
  9 13  2  0
 10 14  2  0
 11 15  2  0
 12 13  1  0
 14 15  1  0
M  END
>  <PUBCHEM_COMPOUND_CID>  (1) 
43547

>  <PUBCHEM_CONFORMER_RMSD>  (1) 
0.6

>  <PUBCHEM_CONFORMER_DIVERSEORDER>  (1) 
1

>  <PUBCHEM_MMFF94_PARTIAL_CHARGES>  (1) 
21
1 -0.36
10 -0.15
11 -0.15
12 -0.15
13 -0.15
14 -0.15
15 -0.15
16 0.28
17 0.15
18 0.15
19 0.15
20 0.15
21 0.15
22 0.15
23 0.15
24 0.15
25 0.15
6 -0.15
7 0.08
8 -0.15
9 -0.15

>  <PUBCHEM_EFFECTIVE_ROTOR_COUNT>  (1) 
1

>  <PUBCHEM_PHARMACOPHORE_FEATURES>  (1) 
4
1 1 acceptor
6 2 3 4 5 6 8 rings
6 2 4 7 9 12 13 rings
6 3 5 10 11 14 15 rings

>  <PUBCHEM_HEAVY_ATOM_COUNT>  (1) 
16

>  <PUBCHEM_ATOM_DEF_STEREO_COUNT>  (1) 
0

>  <PUBCHEM_ATOM_UDEF_STEREO_COUNT>  (1) 
0

>  <PUBCHEM_BOND_DEF_STEREO_COUNT>  (1) 
0

>  <PUBCHEM_BOND_UDEF_STEREO_COUNT>  (1) 
0

>  <PUBCHEM_ISOTOPIC_ATOM_COUNT>  (1) 
0

>  <PUBCHEM_COMPONENT_COUNT>  (1) 
1

>  <PUBCHEM_CACTVS_TAUTO_COUNT>  (1) 
1

>  <PUBCHEM_CONFORMER_ID>  (1) 
0000AA1B00000001

>  <PUBCHEM_MMFF94_ENERGY>  (1) 
65.2953

>  <PUBCHEM_FEATURE_SELFOVERLAP>  (1) 
20.346

>  <PUBCHEM_SHAPE_FINGERPRINT>  (1) 
10411042 1 15529679403543575709
10608611 8 18337386033268251069
10616163 171 18412265051420880071
10967382 1 18411417336434763155
10980938 120 18411980256270815314
11132069 177 18411409605403959776
11471102 20 18411130325493075917
11806522 49 18339073912798280567
13140716 1 18267584611125439875
13221675 6 18413386549017658847
13380535 21 18412550885773299035
13380535 76 18335420200993442010
14144814 61 18412543189381841243
14576447 43 18057025012582628111
14790565 3 18194415604301362121
15196674 1 18411135818840721363
15219456 202 18409445852209826187
15442244 35 18124032325721486971
15536298 74 18343301435990573326
15775835 57 18342460360813022989
16945 1 18269264819543035449
18186145 218 17822008662246429103
19591789 44 17761501691113457594
200 152 18059844091955869391
20645477 70 18341045216787624039
21267235 1 18339931419919403019
21501502 16 18340487755475021353
221490 88 18337399253104111994
2255824 54 18188493467449634234
2334 1 18411697681777202107
23366157 5 18041565724450855074
23402539 116 18270675484983538900
23402655 69 18341885269741579645
23463225 33 18338232669895413978
23559900 14 18196645203597405746
2748010 2 18411979122394135463
3312278 4 18412829109633885489
335352 9 17979353062632162125
34934 24 18341603828712961989
394222 165 17968372472424648272
4409770 3 16383941749697476470
474 4 17604155938345880940
4990 188 17917441929726207820
5104073 3 18410855434817424843
528886 8 18411975892546937595
537710 114 18411702101340890569
53812653 166 18271801362798457512
57096353 35 18341326781731515439
58051976 378 18411981373273724260
7364860 26 18270680857882280262
8809292 202 18334580096821801251
9709674 26 18410858715872270847

>  <PUBCHEM_SHAPE_MULTIPOLES>  (1) 
323.4
6.52
2.35
0.68
1.13
0.36
-0.04
-0.85
-0.75
-0.98
-0.05
-0.18
-0.08
-0.4

>  <PUBCHEM_SHAPE_SELFOVERLAP>  (1) 
724.836

>  <PUBCHEM_SHAPE_VOLUME>  (1) 
172.4

>  <PUBCHEM_COORDINATE_TYPE>  (1) 
2
5
10

$$$$
