43541
     RDKit          3D

 17 18  0  0  0  0  0  0  0  0999 V2000
    0.5401    0.1693    0.8451 S   0  0  0  0  0  0  0  0  0  0  0  0
   -5.9015   -0.6304    0.2287 F   0  0  0  0  0  0  0  0  0  0  0  0
    2.2944   -2.2612    0.5304 O   0  0  0  0  0  0  0  0  0  0  0  0
    3.1473   -0.1283    0.0605 N   0  0  0  0  0  0  0  0  0  0  0  0
    2.2861    2.0095    0.0798 N   0  0  0  0  0  0  0  0  0  0  0  0
    4.2635    0.7081   -0.3081 C   0  0  0  0  0  0  0  0  0  0  0  0
    3.6753    2.1026   -0.4100 C   0  0  0  0  0  0  0  0  0  0  0  0
    2.0779    0.7481    0.2899 C   0  0  0  0  0  0  0  0  0  0  0  0
    3.2201   -1.5285    0.1807 C   0  0  0  0  0  0  0  0  0  0  0  0
   -0.5016    0.7375   -0.5175 C   0  0  0  0  0  0  0  0  0  0  0  0
   -1.9465    0.3716   -0.3177 C   0  0  0  0  0  0  0  0  0  0  0  0
    4.5577   -2.1342   -0.1740 C   0  0  0  0  0  0  0  0  0  0  0  0
   -2.7894    1.2497    0.3502 C   0  0  0  0  0  0  0  0  0  0  0  0
   -2.4194   -0.8400   -0.8043 C   0  0  0  0  0  0  0  0  0  0  0  0
   -4.1296    0.9102    0.5353 C   0  0  0  0  0  0  0  0  0  0  0  0
   -3.7596   -1.1796   -0.6194 C   0  0  0  0  0  0  0  0  0  0  0  0
   -4.6149   -0.3044    0.0504 C   0  0  0  0  0  0  0  0  0  0  0  0
  1  8  1  0
  1 10  1  0
  2 17  1  0
  3  9  2  0
  4  6  1  0
  4  8  1  0
  4  9  1  0
  5  7  1  0
  5  8  2  0
  6  7  1  0
  9 12  1  0
 10 11  1  0
 11 13  2  0
 11 14  1  0
 13 15  1  0
 14 16  2  0
 15 17  2  0
 16 17  1  0
M  END
>  <PUBCHEM_COMPOUND_CID>  (1) 
43541

>  <PUBCHEM_CONFORMER_RMSD>  (1) 
0.6

>  <PUBCHEM_CONFORMER_DIVERSEORDER>  (1) 
1
14
18
15
24
22
26
32
17
16
19
2
25
31
30
33
29
23
20
10
11
21
34
3
4
9
6
5
8
27
7
28
35
36
13
12

>  <PUBCHEM_MMFF94_PARTIAL_CHARGES>  (1) 
21
1 -0.37
10 0.37
11 -0.14
12 0.06
13 -0.15
14 -0.15
15 -0.15
16 -0.15
17 0.19
2 -0.19
27 0.15
28 0.15
29 0.15
3 -0.57
30 0.15
4 -0.42
5 -0.7
6 0.3
7 0.25
8 0.65
9 0.57

>  <PUBCHEM_EFFECTIVE_ROTOR_COUNT>  (1) 
4.6

>  <PUBCHEM_PHARMACOPHORE_FEATURES>  (1) 
3
1 3 acceptor
5 4 5 6 7 8 rings
6 11 13 14 15 16 17 rings

>  <PUBCHEM_HEAVY_ATOM_COUNT>  (1) 
17

>  <PUBCHEM_ATOM_DEF_STEREO_COUNT>  (1) 
0

>  <PUBCHEM_ATOM_UDEF_STEREO_COUNT>  (1) 
0

>  <PUBCHEM_BOND_DEF_STEREO_COUNT>  (1) 
0

>  <PUBCHEM_BOND_UDEF_STEREO_COUNT>  (1) 
0

>  <PUBCHEM_ISOTOPIC_ATOM_COUNT>  (1) 
0

>  <PUBCHEM_COMPONENT_COUNT>  (1) 
1

>  <PUBCHEM_CACTVS_TAUTO_COUNT>  (1) 
1

>  <PUBCHEM_CONFORMER_ID>  (1) 
0000AA1500000001

>  <PUBCHEM_MMFF94_ENERGY>  (1) 
41.6193

>  <PUBCHEM_FEATURE_SELFOVERLAP>  (1) 
15.223

>  <PUBCHEM_SHAPE_FINGERPRINT>  (1) 
10616163 171 18270962482740092263
12107183 9 17909274576729273009
12616999 72 18334298690938756172
12730499 353 18261966261753659872
12788726 201 17489039183788377777
128620 24 16515399677187761423
13167823 11 18413108355459272343
13533116 47 18412824711803671611
13760787 19 18200876274384959229
13955234 65 18411134775380050784
14251717 144 18408319991126598226
14341114 176 18411425011878879267
15196674 1 18411699863762883319
15242433 33 18413107290344254343
15477762 27 18409448060192236008
15536298 74 18412260636199534090
17834072 33 18411417336777589591
17834074 16 18408605885192250411
17844677 252 18335989688093036925
1813 80 17458065954081958317
18186145 218 17603583015108827624
19422 9 18342175557352812937
19784866 240 18059019371908715558
20279233 1 16008744723430227193
20281475 54 18271798060216448631
20645477 70 18410012117872907254
21065198 48 18343025484458044889
21267235 1 18340494386831004550
221490 88 18335989735284903818
2255824 54 18408041819063971862
22646028 1 18343862212616624873
23557571 272 16877653556877434181
23559900 14 18411410705005433737
23596394 208 17895180078685069807
3004659 81 18341615884802349326
312423 11 18340498784814199225
33824 294 18334855043811686008
4214541 1 18339923719148419417
42630746 31 18410008854077336568
474 4 18042971058866422204
5104073 3 18342459227284607545
522135 26 18410855473266433684
5281201 14 17967812726073737484
573450 72 17846778494973183297
633830 44 17748826297936138217
77779 3 18411700989118291313
8272917 22 18411986862225772926
90127 26 17749392542388185157
9709674 26 18335423507870528467

>  <PUBCHEM_SHAPE_MULTIPOLES>  (1) 
330.6
11.52
2.13
0.81
6.15
0.34
0.01
2.39
-0.2
-2.8
-0.04
0.14
0.01
-0.74

>  <PUBCHEM_SHAPE_SELFOVERLAP>  (1) 
679.341

>  <PUBCHEM_SHAPE_VOLUME>  (1) 
193.5

>  <PUBCHEM_COORDINATE_TYPE>  (1) 
2
5
10

$$$$
