43542
     RDKit          3D

 13 13  0  0  0  0  0  0  0  0999 V2000
   -1.3366   -0.6948    0.4033 S   0  0  0  0  0  0  0  0  0  0  0  0
    3.2322   -0.5040   -0.1260 O   0  0  0  0  0  0  0  0  0  0  0  0
    1.4416   -1.8975    0.1607 O   0  0  0  0  0  0  0  0  0  0  0  0
    1.1334    0.4219    0.0476 N   0  0  0  0  0  0  0  0  0  0  0  0
   -0.6619    1.8577    0.1436 N   0  0  0  0  0  0  0  0  0  0  0  0
    1.7270    1.7293   -0.0737 C   0  0  0  0  0  0  0  0  0  0  0  0
    0.5457    2.6810   -0.0718 C   0  0  0  0  0  0  0  0  0  0  0  0
   -0.2432    0.6324    0.1838 C   0  0  0  0  0  0  0  0  0  0  0  0
    1.8954   -0.7629    0.0398 C   0  0  0  0  0  0  0  0  0  0  0  0
   -2.8104    0.0001   -0.3777 C   0  0  0  0  0  0  0  0  0  0  0  0
   -3.9156   -1.0064   -0.3803 C   0  0  0  0  0  0  0  0  0  0  0  0
    4.0961   -1.6459   -0.1522 C   0  0  0  0  0  0  0  0  0  0  0  0
   -5.1036   -0.8110    0.2029 C   0  0  0  0  0  0  0  0  0  0  0  0
  1  8  1  0
  1 10  1  0
  2  9  1  0
  2 12  1  0
  3  9  2  0
  4  6  1  0
  4  8  1  0
  4  9  1  0
  5  7  1  0
  5  8  2  0
  6  7  1  0
 10 11  1  0
 11 13  2  0
M  END
>  <PUBCHEM_COMPOUND_CID>  (1) 
43542

>  <PUBCHEM_CONFORMER_RMSD>  (1) 
0.6

>  <PUBCHEM_CONFORMER_DIVERSEORDER>  (1) 
1
23
10
31
37
14
12
28
24
27
26
39
25
38
30
3
33
13
34
32
22
8
5
2
40
18
29
4
35
15
41
21
6
11
36
19
9
17
7
16
20

>  <PUBCHEM_MMFF94_PARTIAL_CHARGES>  (1) 
16
1 -0.37
10 0.37
11 -0.29
12 0.28
13 -0.3
2 -0.43
20 0.15
24 0.15
25 0.15
3 -0.57
4 -0.42
5 -0.7
6 0.3
7 0.25
8 0.65
9 0.78

>  <PUBCHEM_EFFECTIVE_ROTOR_COUNT>  (1) 
5.6

>  <PUBCHEM_PHARMACOPHORE_FEATURES>  (1) 
3
1 13 hydrophobe
1 3 acceptor
5 4 5 6 7 8 rings

>  <PUBCHEM_HEAVY_ATOM_COUNT>  (1) 
13

>  <PUBCHEM_ATOM_DEF_STEREO_COUNT>  (1) 
0

>  <PUBCHEM_ATOM_UDEF_STEREO_COUNT>  (1) 
0

>  <PUBCHEM_BOND_DEF_STEREO_COUNT>  (1) 
0

>  <PUBCHEM_BOND_UDEF_STEREO_COUNT>  (1) 
0

>  <PUBCHEM_ISOTOPIC_ATOM_COUNT>  (1) 
0

>  <PUBCHEM_COMPONENT_COUNT>  (1) 
1

>  <PUBCHEM_CACTVS_TAUTO_COUNT>  (1) 
1

>  <PUBCHEM_CONFORMER_ID>  (1) 
0000AA1600000001

>  <PUBCHEM_MMFF94_ENERGY>  (1) 
25.1002

>  <PUBCHEM_FEATURE_SELFOVERLAP>  (1) 
15.223

>  <PUBCHEM_SHAPE_FINGERPRINT>  (1) 
11471102 20 18337387248991720829
11806522 49 18411136944064130636
12032990 46 18410855442969502095
12841375 25 18410572868628759357
14115302 16 17822021920673601302
14251717 144 18339077193768081751
14252887 29 18059862744171115422
15442244 35 18413393129266544937
15477762 27 18411417353783521847
18186145 218 17822562898338720403
20201158 50 18334013895504140787
20339313 130 18341614841051300489
20645477 70 18337946904905978655
20671657 1 18268713999004655917
20671657 53 18411141320314019517
20708731 107 18262520419619005821
20871998 184 17986667065598817964
20871998 22 18200882768312369742
20871999 31 18188208684983738749
21296965 67 18411697660296999913
221490 88 18191310592212342731
23402539 116 18337668594987868558
23532345 12 18060423512897880649
2748010 2 18048046447531639410
3071541 37 18190747633531778364
4416823 128 18410011026972196197
58734987 36 18408322194054359506
7364860 26 18269834379430396625

>  <PUBCHEM_SHAPE_MULTIPOLES>  (1) 
249.68
7.62
2.37
0.65
6.68
1.33
0
-5.32
0.51
-1.81
0.02
0.15
-0.03
0.02

>  <PUBCHEM_SHAPE_SELFOVERLAP>  (1) 
481.026

>  <PUBCHEM_SHAPE_VOLUME>  (1) 
154.7

>  <PUBCHEM_COORDINATE_TYPE>  (1) 
2
5
10

$$$$
