43544
     RDKit          3D

 23 25  0  0  0  0  0  0  0  0999 V2000
   -1.5760    2.8547   -1.0612 O   0  0  0  0  0  0  0  0  0  0  0  0
   -1.4833    2.4644    1.1827 O   0  0  0  0  0  0  0  0  0  0  0  0
    1.4581   -0.2109    0.7303 N   0  0  0  0  0  0  0  0  0  0  0  0
   -2.2613    0.2343   -1.1810 N   0  0  0  0  0  0  0  0  0  0  0  0
   -1.1264    0.6467   -0.3789 C   0  0  0  0  0  0  0  0  0  0  0  0
    0.1512    0.5682   -1.2225 C   0  0  0  0  0  0  0  0  0  0  0  0
   -1.0139   -0.2605    0.8517 C   0  0  0  0  0  0  0  0  0  0  0  0
    1.4170    0.7505   -0.3789 C   0  0  0  0  0  0  0  0  0  0  0  0
    0.2973   -0.0461    1.6143 C   0  0  0  0  0  0  0  0  0  0  0  0
    2.7017   -0.0654    1.4868 C   0  0  0  0  0  0  0  0  0  0  0  0
   -1.4095    2.0672    0.0294 C   0  0  0  0  0  0  0  0  0  0  0  0
   -3.3918   -0.3618   -0.6540 C   0  0  0  0  0  0  0  0  0  0  0  0
    3.9133   -0.3060    0.6260 C   0  0  0  0  0  0  0  0  0  0  0  0
   -3.7910   -1.6497   -1.0636 C   0  0  0  0  0  0  0  0  0  0  0  0
   -4.1796    0.3007    0.3084 C   0  0  0  0  0  0  0  0  0  0  0  0
    4.4292   -1.5898    0.5161 C   0  0  0  0  0  0  0  0  0  0  0  0
    4.4969    0.7590   -0.0458 C   0  0  0  0  0  0  0  0  0  0  0  0
   -4.9321   -2.2507   -0.5324 C   0  0  0  0  0  0  0  0  0  0  0  0
   -5.3205   -0.3006    0.8397 C   0  0  0  0  0  0  0  0  0  0  0  0
    5.5516   -1.8131   -0.2815 C   0  0  0  0  0  0  0  0  0  0  0  0
    5.6193    0.5357   -0.8435 C   0  0  0  0  0  0  0  0  0  0  0  0
   -5.6967   -1.5763    0.4192 C   0  0  0  0  0  0  0  0  0  0  0  0
    6.1465   -0.7505   -0.9614 C   0  0  0  0  0  0  0  0  0  0  0  0
  1 11  1  0
  2 11  2  0
  3  8  1  0
  3  9  1  0
  3 10  1  0
  4  5  1  0
  4 12  1  0
  5  6  1  0
  5  7  1  0
  5 11  1  0
  6  8  1  0
  7  9  1  0
 10 13  1  0
 12 14  2  0
 12 15  1  0
 13 16  2  0
 13 17  1  0
 14 18  1  0
 15 19  2  0
 16 20  1  0
 17 21  2  0
 18 22  2  0
 19 22  1  0
 20 23  2  0
 21 23  1  0
M  END
>  <PUBCHEM_COMPOUND_CID>  (1) 
43544

>  <PUBCHEM_CONFORMER_RMSD>  (1) 
0.8

>  <PUBCHEM_CONFORMER_DIVERSEORDER>  (1) 
1
29
16
22
93
10
97
25
81
19
109
44
43
52
102
96
48
63
62
31
18
94
83
88
77
73
7
12
114
108
58
79
104
112
106
27
64
74
42
107
6
23
34
99
11
110
49
71
72
17
70
53
40
36
24
60
15
86
90
76
68
46
87
8
14
85
84
113
13
33
105
111
41
20
56
89
45
92
28
39
101
35
30
55
78
82
95
5
9
98
26
3
4
91
65
67
75
57
54
69
66
51
103
21
47
80
37
50
59
38
100
2
61
32

>  <PUBCHEM_MMFF94_PARTIAL_CHARGES>  (1) 
33
1 -0.65
10 0.41
11 0.66
12 0.1
13 -0.14
14 -0.15
15 -0.15
16 -0.15
17 -0.15
18 -0.15
19 -0.15
2 -0.57
20 -0.15
21 -0.15
22 -0.15
23 -0.15
3 -0.81
32 0.4
35 0.5
36 0.15
37 0.15
38 0.15
39 0.15
4 -0.87
40 0.15
41 0.15
42 0.15
43 0.15
44 0.15
45 0.15
5 0.43
8 0.27
9 0.27

>  <PUBCHEM_EFFECTIVE_ROTOR_COUNT>  (1) 
6.2

>  <PUBCHEM_PHARMACOPHORE_FEATURES>  (1) 
9
1 1 acceptor
1 2 acceptor
1 3 cation
1 4 cation
1 4 donor
3 1 2 11 anion
6 12 14 15 18 19 22 rings
6 13 16 17 20 21 23 rings
6 3 5 6 7 8 9 rings

>  <PUBCHEM_HEAVY_ATOM_COUNT>  (1) 
23

>  <PUBCHEM_ATOM_DEF_STEREO_COUNT>  (1) 
0

>  <PUBCHEM_ATOM_UDEF_STEREO_COUNT>  (1) 
0

>  <PUBCHEM_BOND_DEF_STEREO_COUNT>  (1) 
0

>  <PUBCHEM_BOND_UDEF_STEREO_COUNT>  (1) 
0

>  <PUBCHEM_ISOTOPIC_ATOM_COUNT>  (1) 
0

>  <PUBCHEM_COMPONENT_COUNT>  (1) 
1

>  <PUBCHEM_CACTVS_TAUTO_COUNT>  (1) 
1

>  <PUBCHEM_CONFORMER_ID>  (1) 
0000AA1800000001

>  <PUBCHEM_MMFF94_ENERGY>  (1) 
77.9765

>  <PUBCHEM_FEATURE_SELFOVERLAP>  (1) 
45.726

>  <PUBCHEM_SHAPE_FINGERPRINT>  (1) 
10498660 4 15936415537768001358
10595046 47 18335423448584589324
10692045 39 9799150551142341060
11045515 52 17894907429940597093
11056379 131 18336264535708226741
11089746 13 9511462208447706238
11128504 68 17894630361905740886
11405975 8 10231742397705907342
11524674 6 16415479354927919935
11763715 3 18261972760076693452
117890 112 8358259241838831686
11961588 58 12613036123267332936
12236239 1 18260270745803484981
12596602 18 13038897863115699158
12633257 1 15913324740669001543
12788726 201 18261667099784944579
12969540 114 15719392832680819290
13009979 54 18199757006688369505
13103583 49 17632304514254295251
13288520 33 18411982464311162903
13533116 47 18262244416910873300
13673619 4 18131913771314440930
13675066 3 13398625078411871474
13911987 19 15430046443563302358
14251758 9 14189579636998525074
14251764 30 18202562916695674067
14341114 176 17632295717606956601
14347332 77 18335697187919206346
14528608 73 16805319990153627662
14739800 52 8286205994281512430
14840074 17 18411704296106388351
14955137 171 18340210812242683043
15348495 7 15051441764917046038
15799311 1 18271261464188240894
16994733 274 14129324162735612039
17349148 13 17603307029300839658
173720 79 13695859368432275608
17834072 33 18333732408016665284
17844677 252 18272091603998818944
1813 80 18409173233550840349
18222031 100 18269537490316934735
19141452 34 12103837956565980280
19784866 140 18187078455733933339
200 152 17821728338436952905
20157964 124 11386354942057654776
20197701 30 9367355842329933761
20511986 3 8934714436528310364
20715895 44 8214153966389538422
21267235 1 18335144232787329483
21315763 191 18202565072816638530
21403212 168 13470415439743014903
21424621 283 11891598084800709887
21859007 373 12534810191799291794
22950370 63 18342738545981999995
2297311 6 18342744009027465220
23035841 295 18409167714132931115
23402539 116 18408039611134296661
23503953 91 11311765181927128402
23522609 53 18197247847533478136
23559900 14 18339634637505091864
268830 7 13182437968646164034
2767999 5 9439409025030273231
2838139 119 8070032151047418895
2916195 48 7925914772553715543
33382 64 18202004313608008338
351380 3 18335417984627001159
3737641 26 18341333279880734731
46194498 28 18343025493633496916
465052 167 17704077313295041830
497634 4 18261675878703788068
5104073 3 17988353772745135858
5207 217 15719393962004088402
5283173 99 11746938702350230007
53794403 172 16082794723238206756
59755656 215 18059577927656971295
7495541 125 18060414725336887800
7970288 3 18339073917057052279

>  <PUBCHEM_SHAPE_MULTIPOLES>  (1) 
451.63
14.56
2.14
1.32
7
0.62
0.15
-8.73
-1.71
-1.46
-0.3
0.08
0.09
-0.38

>  <PUBCHEM_SHAPE_SELFOVERLAP>  (1) 
968.128

>  <PUBCHEM_SHAPE_VOLUME>  (1) 
246.4

>  <PUBCHEM_COORDINATE_TYPE>  (1) 
2
5
10

$$$$
