4355
     RDKit          3D

 24 25  0  0  1  0  0  0  0  0999 V2000
   -1.3968    1.3431   -0.3797 O   0  0  0  0  0  0  0  0  0  0  0  0
   -1.6605   -2.0681   -0.7821 O   0  0  0  0  0  0  0  0  0  0  0  0
   -3.1162    1.8022   -1.8253 O   0  0  0  0  0  0  0  0  0  0  0  0
   -3.2617    0.0234   -0.3529 N   0  0  0  0  0  0  0  0  0  0  0  0
   -0.6685   -1.7567    1.3007 N   0  0  0  0  0  0  0  0  0  0  0  0
    0.4255   -2.5510    0.9993 N   0  0  0  0  0  0  0  0  0  0  0  0
    6.2149   -1.7485   -1.2381 N   0  0  0  0  0  0  0  0  0  0  0  0
   -2.7457   -0.6705    0.8183 C   0  0  0  0  0  0  0  0  0  0  0  0
   -3.9391   -1.4512    1.3576 C   0  0  0  0  0  0  0  0  0  0  0  0
   -4.7808   -1.7222    0.1117 C   0  0  0  0  0  0  0  0  0  0  0  0
   -4.5850   -0.4665   -0.7236 C   0  0  0  0  0  0  0  0  0  0  0  0
   -1.6519   -1.5795    0.3454 C   0  0  0  0  0  0  0  0  0  0  0  0
   -2.6304    1.1156   -0.9291 C   0  0  0  0  0  0  0  0  0  0  0  0
    1.4981   -1.7409    0.4380 C   0  0  0  0  0  0  0  0  0  0  0  0
    2.7304   -2.6043    0.1680 C   0  0  0  0  0  0  0  0  0  0  0  0
    3.8728   -1.7658   -0.4149 C   0  0  0  0  0  0  0  0  0  0  0  0
   -0.6688    2.4554   -0.9121 C   0  0  0  0  0  0  0  0  0  0  0  0
    5.1467   -2.5702   -0.6820 C   0  0  0  0  0  0  0  0  0  0  0  0
    0.6501    2.5613   -0.2045 C   0  0  0  0  0  0  0  0  0  0  0  0
    0.7534    3.3337    0.9472 C   0  0  0  0  0  0  0  0  0  0  0  0
    1.7571    1.8861   -0.7064 C   0  0  0  0  0  0  0  0  0  0  0  0
    1.9793    3.4322    1.6051 C   0  0  0  0  0  0  0  0  0  0  0  0
    2.9830    1.9845   -0.0482 C   0  0  0  0  0  0  0  0  0  0  0  0
    3.0940    2.7576    1.1076 C   0  0  0  0  0  0  0  0  0  0  0  0
  1 13  1  0
  1 17  1  0
  2 12  2  0
  3 13  2  0
  4  8  1  0
  4 11  1  0
  4 13  1  0
  5  6  1  0
  5 12  1  0
  6 14  1  0
  7 18  1  0
  8  9  1  0
  8 12  1  0
  9 10  1  0
 10 11  1  0
 14 15  1  0
 15 16  1  0
 16 18  1  0
 17 19  1  0
 19 20  2  0
 19 21  1  0
 20 22  1  0
 21 23  2  0
 22 24  2  0
 23 24  1  0
M  END
>  <PUBCHEM_COMPOUND_CID>  (1) 
4355

>  <PUBCHEM_CONFORMER_RMSD>  (1) 
1

>  <PUBCHEM_CONFORMER_DIVERSEORDER>  (1) 
1
119
127
60
200
122
65
253
32
221
98
165
8
25
29
184
89
103
246
178
64
268
261
183
92
116
72
13
176
126
223
148
115
134
131
264
263
71
216
84
48
222
265
5
167
228
247
258
28
236
59
19
100
224
99
6
57
143
66
269
42
47
101
125
118
90
164
254
186
24
158
232
145
23
128
41
30
161
251
267
105
219
108
39
206
110
187
260
266
139
14
135
111
168
93
9
81
241
195
136
130
198
74
38
83
43
212
94
188
242
124
12
194
249
141
172
27
163
202
144
271
231
132
20
3
150
270
63
80
230
250
4
69
175
76
243
34
62
55
205
201
36
2
256
54
171
61
225
239
147
138
226
162
213
252
35
50
154
245
209
113
193
153
91
244
56
82
120
44
142
31
211
155
189
10
159
207
22
114
191
78
196
96
109
204
79
67
18
192
97
248
33
86
174
106
58
169
227
11
170
173
152
182
51
255
52
26
203
237
140
137
7
156
179
149
49
77
210
181
15
88
37
215
45
68
85
73
214
104
53
259
240
177
129
233
146
166
107
123
16
180
75
121
220
21
197
234
112
95
40
229
17
151
199
87
102
257
238
157
185
190
235
46
262
117
208
160
133
70
217
218

>  <PUBCHEM_MMFF94_PARTIAL_CHARGES>  (1) 
29
1 -0.43
11 0.3
12 0.57
13 0.78
14 0.27
17 0.42
18 0.27
19 -0.14
2 -0.57
20 -0.15
21 -0.15
22 -0.15
23 -0.15
24 -0.15
3 -0.57
32 0.37
33 0.36
4 -0.66
44 0.15
45 0.15
46 0.36
47 0.36
48 0.15
49 0.15
5 -0.42
50 0.15
6 -0.64
7 -0.99
8 0.36

>  <PUBCHEM_EFFECTIVE_ROTOR_COUNT>  (1) 
12

>  <PUBCHEM_PHARMACOPHORE_FEATURES>  (1) 
8
1 2 acceptor
1 3 acceptor
1 5 donor
1 6 donor
1 7 cation
1 7 donor
5 4 8 9 10 11 rings
6 19 20 21 22 23 24 rings

>  <PUBCHEM_HEAVY_ATOM_COUNT>  (1) 
24

>  <PUBCHEM_ATOM_DEF_STEREO_COUNT>  (1) 
0

>  <PUBCHEM_ATOM_UDEF_STEREO_COUNT>  (1) 
1

>  <PUBCHEM_BOND_DEF_STEREO_COUNT>  (1) 
0

>  <PUBCHEM_BOND_UDEF_STEREO_COUNT>  (1) 
0

>  <PUBCHEM_ISOTOPIC_ATOM_COUNT>  (1) 
0

>  <PUBCHEM_COMPONENT_COUNT>  (1) 
1

>  <PUBCHEM_CACTVS_TAUTO_COUNT>  (1) 
2

>  <PUBCHEM_CONFORMER_ID>  (1) 
0000110300000001

>  <PUBCHEM_MMFF94_ENERGY>  (1) 
35.0055

>  <PUBCHEM_FEATURE_SELFOVERLAP>  (1) 
42.087

>  <PUBCHEM_SHAPE_FINGERPRINT>  (1) 
1100329 8 18052257293567148737
11370993 70 17837768198620209193
12788726 201 17621589523906227288
13402501 40 18335699503017290280
13533116 47 18271809089977314281
14790565 3 17256526314382412341
14866123 147 18053388690878967545
14931854 50 18046340834413961486
15006816 218 18263638640145292121
20028762 73 17258499371356611807
20642791 35 18263351517882653609
20775438 99 17836325558140581711
221357 26 18408324362965780694
22182313 1 18041543828886532205
23352939 185 18341901753093020690
23559900 14 18187363250841839413
238918 7 18122325025240947416
465052 167 16519341603300558427
508706 21 18040708173857566837
5265222 85 17759529159444995852
532947 4 18337664330132660595
6823239 73 18337380565980378216

>  <PUBCHEM_SHAPE_MULTIPOLES>  (1) 
456.38
9.74
4.91
1.36
2.68
1.91
0.07
-7.74
-2.29
5.51
0.86
-0.22
0.47
2.69

>  <PUBCHEM_SHAPE_SELFOVERLAP>  (1) 
930.813

>  <PUBCHEM_SHAPE_VOLUME>  (1) 
264.2

>  <PUBCHEM_COORDINATE_TYPE>  (1) 
2
5
10

$$$$
