43550
     RDKit          3D

 20 20  0  0  0  0  0  0  0  0999 V2000
    3.9939    1.3396   -2.0517 F   0  0  0  0  0  0  0  0  0  0  0  0
   -4.2139    0.3443   -0.4186 O   0  0  0  0  0  0  0  0  0  0  0  0
    3.0573   -1.3175   -1.1310 O   0  0  0  0  0  0  0  0  0  0  0  0
   -5.4830    1.6842    0.9712 O   0  0  0  0  0  0  0  0  0  0  0  0
    3.5145    1.8784    2.1480 O   0  0  0  0  0  0  0  0  0  0  0  0
    1.3395   -0.9242    0.3454 N   0  0  0  0  0  0  0  0  0  0  0  0
    3.3531    0.3045    0.4979 N   0  0  0  0  0  0  0  0  0  0  0  0
    2.7612    1.0302    1.6582 N   0  0  0  0  0  0  0  0  0  0  0  0
   -2.3669   -1.0511    0.1718 C   0  0  0  0  0  0  0  0  0  0  0  0
    0.4568   -1.9148   -0.2275 C   0  0  0  0  0  0  0  0  0  0  0  0
   -1.5267   -1.5915    1.3356 C   0  0  0  0  0  0  0  0  0  0  0  0
   -1.4760   -0.3851   -0.8844 C   0  0  0  0  0  0  0  0  0  0  0  0
   -0.4329   -2.5426    0.8483 C   0  0  0  0  0  0  0  0  0  0  0  0
   -0.3727   -1.3255   -1.3719 C   0  0  0  0  0  0  0  0  0  0  0  0
   -3.4244   -0.0727    0.6795 C   0  0  0  0  0  0  0  0  0  0  0  0
    2.6150   -0.6899   -0.1633 C   0  0  0  0  0  0  0  0  0  0  0  0
   -5.2186    1.2318   -0.1345 C   0  0  0  0  0  0  0  0  0  0  0  0
    4.7021    0.6569    0.0730 C   0  0  0  0  0  0  0  0  0  0  0  0
   -5.9659    1.5825   -1.3854 C   0  0  0  0  0  0  0  0  0  0  0  0
    4.6876    1.7628   -0.9605 C   0  0  0  0  0  0  0  0  0  0  0  0
  1 20  1  0
  2 15  1  0
  2 17  1  0
  3 16  2  0
  4 17  2  0
  5  8  2  0
  6 10  1  0
  6 16  1  0
  7  8  1  0
  7 16  1  0
  7 18  1  0
  9 11  1  0
  9 12  1  0
  9 15  1  0
 10 13  1  0
 10 14  1  0
 11 13  1  0
 12 14  1  0
 17 19  1  0
 18 20  1  0
M  END
>  <PUBCHEM_COMPOUND_CID>  (1) 
43550

>  <PUBCHEM_CONFORMER_RMSD>  (1) 
1

>  <PUBCHEM_CONFORMER_DIVERSEORDER>  (1) 
2
56
63
28
42
77
66
72
41
53
51
27
23
71
65
59
36
11
19
54
26
46
68
50
35
45
49
80
29
37
21
15
67
13
73
58
24
31
3
34
9
8
30
69
18
47
16
75
20
57
81
12
6
48
43
74
33
60
61
79
39
44
4
10
5
40
64
55
22
38
7
52
62
32
78
17
1
76
25
70
14

>  <PUBCHEM_MMFF94_PARTIAL_CHARGES>  (1) 
16
1 -0.34
10 0.3
15 0.28
16 0.69
17 0.66
18 0.3
19 0.06
2 -0.43
20 0.34
3 -0.57
33 0.37
4 -0.57
5 -0.16
6 -0.73
7 -0.18
8 -0.02

>  <PUBCHEM_EFFECTIVE_ROTOR_COUNT>  (1) 
10.2

>  <PUBCHEM_PHARMACOPHORE_FEATURES>  (1) 
4
1 3 acceptor
1 4 acceptor
1 6 donor
6 9 10 11 12 13 14 rings

>  <PUBCHEM_HEAVY_ATOM_COUNT>  (1) 
20

>  <PUBCHEM_ATOM_DEF_STEREO_COUNT>  (1) 
0

>  <PUBCHEM_ATOM_UDEF_STEREO_COUNT>  (1) 
0

>  <PUBCHEM_BOND_DEF_STEREO_COUNT>  (1) 
0

>  <PUBCHEM_BOND_UDEF_STEREO_COUNT>  (1) 
0

>  <PUBCHEM_ISOTOPIC_ATOM_COUNT>  (1) 
0

>  <PUBCHEM_COMPONENT_COUNT>  (1) 
1

>  <PUBCHEM_CACTVS_TAUTO_COUNT>  (1) 
2

>  <PUBCHEM_CONFORMER_ID>  (1) 
0000AA1E00000002

>  <PUBCHEM_MMFF94_ENERGY>  (1) 
25.522

>  <PUBCHEM_FEATURE_SELFOVERLAP>  (1) 
20.297

>  <PUBCHEM_SHAPE_FINGERPRINT>  (1) 
10498660 4 18131351946500000336
11089746 13 17989197149170652684
122479 349 18334860549321982074
12596602 18 16443351978981902121
12633257 1 17241032297244447408
12892183 10 14779539072054944327
1420 369 8286201656121644073
14251740 57 12829492510783387473
14251751 18 10663830649778276268
14252887 29 7997960284890811775
14341114 328 15068634802301463679
14528608 73 17917703587834662277
14848178 96 18410014316816989593
15238133 3 18335411396790520512
15342168 16 18260268555370196839
15342816 4 10807939279739699562
17834072 32 18261961846142248556
1813 80 10087636044251549355
193927 3 8934999313060895721
19784866 140 13183021800693551319
20374829 77 10375878459080306555
20567600 234 17676209083172022213
212847 35 18413106148051771690
212916 134 17822006493762744179
21475661 188 18410004459809159521
21637258 2 8069740759444116253
22289505 5 18059859446100150276
23559900 14 18334863766553336110
270888 7 18334013903983344701
2838139 119 18131063806029744273
4259306 186 12103845644509675165
4463277 69 8646762301248242851
465052 167 9655570829175805053
474 4 18335422352993375871
495365 180 18411976927793038922
5104073 3 17386563712801555208
5352402 22 11818991872518926555
56616090 13 18201428203642294035
56616090 284 13614520766505420183
59682541 52 17489311815279466621
633830 44 18408884010279450567
7062679 13 11383826061420034605
76465 3 10735888239816519158
7808743 9 18187651370180344908

>  <PUBCHEM_SHAPE_MULTIPOLES>  (1) 
365.9
12.47
2.4
1.62
8.08
0.37
0.26
-12
-0.92
0.14
0.1
-1.04
-0.57
0.62

>  <PUBCHEM_SHAPE_SELFOVERLAP>  (1) 
718.898

>  <PUBCHEM_SHAPE_VOLUME>  (1) 
217

>  <PUBCHEM_COORDINATE_TYPE>  (1) 
2
5
10

$$$$
