43555
     RDKit          3D

 18 20  0  0  1  0  0  0  0  0999 V2000
    0.5317    1.9544    0.8227 O   0  0  0  0  0  0  0  0  0  0  0  0
    0.4203   -2.5132   -0.4207 O   0  0  0  0  0  0  0  0  0  0  0  0
    0.1790   -0.3120    0.3474 N   0  0  0  0  0  0  0  0  0  0  0  0
   -0.9613   -0.4831    1.0658 N   0  0  0  0  0  0  0  0  0  0  0  0
    1.8872    0.7066   -0.7892 C   0  0  0  0  0  0  0  0  0  0  0  0
    2.1368   -0.8156   -0.7553 C   0  0  0  0  0  0  0  0  0  0  0  0
    3.1146    1.5977   -0.6340 C   0  0  0  0  0  0  0  0  0  0  0  0
    3.2107   -1.2753    0.2444 C   0  0  0  0  0  0  0  0  0  0  0  0
    0.8046    0.9086    0.2564 C   0  0  0  0  0  0  0  0  0  0  0  0
    0.7959   -1.3583   -0.2945 C   0  0  0  0  0  0  0  0  0  0  0  0
    4.2219    1.0106    0.1780 C   0  0  0  0  0  0  0  0  0  0  0  0
    4.2640   -0.2671    0.5675 C   0  0  0  0  0  0  0  0  0  0  0  0
   -2.1951   -0.1715    0.4852 C   0  0  0  0  0  0  0  0  0  0  0  0
   -3.3679   -0.2051    1.2506 C   0  0  0  0  0  0  0  0  0  0  0  0
   -2.2736    0.1775   -0.8692 C   0  0  0  0  0  0  0  0  0  0  0  0
   -4.5983    0.1054    0.6713 C   0  0  0  0  0  0  0  0  0  0  0  0
   -3.5041    0.4881   -1.4484 C   0  0  0  0  0  0  0  0  0  0  0  0
   -4.6664    0.4521   -0.6781 C   0  0  0  0  0  0  0  0  0  0  0  0
  1  9  2  0
  2 10  2  0
  3  4  1  0
  3  9  1  0
  3 10  1  0
  4 13  1  0
  5  6  1  0
  5  7  1  0
  5  9  1  0
  6  8  1  0
  6 10  1  0
  7 11  1  0
  8 12  1  0
 11 12  2  0
 13 14  2  0
 13 15  1  0
 14 16  1  0
 15 17  2  0
 16 18  2  0
 17 18  1  0
M  END
>  <PUBCHEM_COMPOUND_CID>  (1) 
43555

>  <PUBCHEM_CONFORMER_RMSD>  (1) 
0.6

>  <PUBCHEM_CONFORMER_DIVERSEORDER>  (1) 
1
15
7
11
16
4
14
9
6
12
2
3
17
10
8
13
5

>  <PUBCHEM_MMFF94_PARTIAL_CHARGES>  (1) 
26
1 -0.57
10 0.57
11 -0.29
12 -0.29
13 0.1
14 -0.15
15 -0.15
16 -0.15
17 -0.15
18 -0.15
2 -0.57
25 0.15
26 0.15
27 0.4
28 0.15
29 0.15
3 -0.1
30 0.15
31 0.15
32 0.15
4 -0.52
5 0.06
6 0.06
7 0.14
8 0.14
9 0.57

>  <PUBCHEM_EFFECTIVE_ROTOR_COUNT>  (1) 
2.6

>  <PUBCHEM_PHARMACOPHORE_FEATURES>  (1) 
6
1 1 acceptor
1 2 acceptor
1 4 donor
5 3 5 6 9 10 rings
6 13 14 15 16 17 18 rings
6 5 6 7 8 11 12 rings

>  <PUBCHEM_HEAVY_ATOM_COUNT>  (1) 
18

>  <PUBCHEM_ATOM_DEF_STEREO_COUNT>  (1) 
0

>  <PUBCHEM_ATOM_UDEF_STEREO_COUNT>  (1) 
2

>  <PUBCHEM_BOND_DEF_STEREO_COUNT>  (1) 
0

>  <PUBCHEM_BOND_UDEF_STEREO_COUNT>  (1) 
0

>  <PUBCHEM_ISOTOPIC_ATOM_COUNT>  (1) 
0

>  <PUBCHEM_COMPONENT_COUNT>  (1) 
1

>  <PUBCHEM_CACTVS_TAUTO_COUNT>  (1) 
3

>  <PUBCHEM_CONFORMER_ID>  (1) 
0000AA2300000001

>  <PUBCHEM_MMFF94_ENERGY>  (1) 
48.5948

>  <PUBCHEM_FEATURE_SELFOVERLAP>  (1) 
30.628

>  <PUBCHEM_SHAPE_FINGERPRINT>  (1) 
10646746 165 16950558865753421668
11471102 20 18411139129891280476
11543360 7 15051736425500799552
12011746 2 18410017611737335734
12119455 92 18334289885633300782
12236239 1 17418375779289846047
128620 24 17561083613898949887
13134695 92 18411689972638180812
13583140 156 17676208008717963874
13675066 3 17603587447567792186
15219456 202 18040718065003758103
15375358 24 18260547801532940247
15653759 3 17167865265972560597
15788980 27 17967811652110184987
16945 1 18336275565447837358
17349148 13 18341894065349181642
18186145 218 18412554205793679006
200 152 18273209794887303181
20279233 1 18113341903509420859
204376 136 18412546543503671854
20645477 70 18409731724974987918
23184049 59 18409449189494354286
23402539 116 17603578647491181999
23402655 69 18272650113267155981
23557571 272 17240206500083298421
23559900 14 17313387777809535506
25 1 18411984667386727671
296302 2 18202281415838000072
350125 39 18051697938463910939
351380 180 17821723944701103557
4047638 21 18186804672985523436
4072396 5 18336815408329513506
42 15 16153423948043752872
474 4 17559947895676244464
633830 44 18059310793575723967
69090 78 18260547857141064611
7495541 125 17968386748584528041
77492 1 17418379064897733411

>  <PUBCHEM_SHAPE_MULTIPOLES>  (1) 
348.73
9.04
1.61
1.14
3.97
0.3
-0.04
-1.56
0.23
-1.35
-0.14
0.79
-0.08
0.34

>  <PUBCHEM_SHAPE_SELFOVERLAP>  (1) 
757.541

>  <PUBCHEM_SHAPE_VOLUME>  (1) 
188.7

>  <PUBCHEM_COORDINATE_TYPE>  (1) 
2
5
10

$$$$
