43552
     RDKit          3D

  8  8  0  0  1  0  0  0  0  0999 V2000
    0.7970   -0.3997    0.3624 C   0  0  0  0  0  0  0  0  0  0  0  0
   -0.5224   -0.0549   -0.3596 C   0  0  0  0  0  0  0  0  0  0  0  0
    0.4841   -1.8807    0.0630 C   0  0  0  0  0  0  0  0  0  0  0  0
   -1.0033   -1.4750    0.0040 C   0  0  0  0  0  0  0  0  0  0  0  0
    2.0433    0.1389   -0.3018 C   0  0  0  0  0  0  0  0  0  0  0  0
   -1.3140    1.0694    0.2692 C   0  0  0  0  0  0  0  0  0  0  0  0
    2.3010    1.5905    0.0714 C   0  0  0  0  0  0  0  0  0  0  0  0
   -2.7859    1.0115   -0.1087 C   0  0  0  0  0  0  0  0  0  0  0  0
  1  2  1  0
  1  3  1  0
  1  5  1  0
  2  4  1  0
  2  6  1  0
  3  4  1  0
  5  7  1  0
  6  8  1  0
M  END
>  <PUBCHEM_COMPOUND_CID>  (1) 
43552

>  <PUBCHEM_CONFORMER_RMSD>  (1) 
0.6

>  <PUBCHEM_CONFORMER_DIVERSEORDER>  (1) 
1
7
8
9
2
4
5
3
6

>  <PUBCHEM_MMFF94_PARTIAL_CHARGES>  (1) 
0

>  <PUBCHEM_EFFECTIVE_ROTOR_COUNT>  (1) 
2.8

>  <PUBCHEM_PHARMACOPHORE_FEATURES>  (1) 
3
1 7 hydrophobe
1 8 hydrophobe
4 1 2 3 4 rings

>  <PUBCHEM_HEAVY_ATOM_COUNT>  (1) 
8

>  <PUBCHEM_ATOM_DEF_STEREO_COUNT>  (1) 
0

>  <PUBCHEM_ATOM_UDEF_STEREO_COUNT>  (1) 
2

>  <PUBCHEM_BOND_DEF_STEREO_COUNT>  (1) 
0

>  <PUBCHEM_BOND_UDEF_STEREO_COUNT>  (1) 
0

>  <PUBCHEM_ISOTOPIC_ATOM_COUNT>  (1) 
0

>  <PUBCHEM_COMPONENT_COUNT>  (1) 
1

>  <PUBCHEM_CACTVS_TAUTO_COUNT>  (1) 
1

>  <PUBCHEM_CONFORMER_ID>  (1) 
0000AA2000000001

>  <PUBCHEM_MMFF94_ENERGY>  (1) 
10.7135

>  <PUBCHEM_FEATURE_SELFOVERLAP>  (1) 
15.223

>  <PUBCHEM_SHAPE_FINGERPRINT>  (1) 
100427 49 16754662508359051380
14390081 3 18412543202087687201
20096714 4 18410575046150817546
21040471 1 18410292510296105258
23552449 1 17546725314906037662
29004967 10 17543913403975404251
5084963 1 17986386698544431769

>  <PUBCHEM_SHAPE_MULTIPOLES>  (1) 
164.64
3.25
1.94
0.67
0.46
0.46
0
-2.06
-0.14
-0.15
0.08
-0.01
-0.01
-0.01

>  <PUBCHEM_SHAPE_SELFOVERLAP>  (1) 
310.671

>  <PUBCHEM_SHAPE_VOLUME>  (1) 
105

>  <PUBCHEM_COORDINATE_TYPE>  (1) 
2
5
10

$$$$
