43553
     RDKit          3D

  9  8  0  0  0  0  0  0  0  0999 V2000
   -0.1577    0.0048   -0.0148 C   0  0  0  0  0  0  0  0  0  0  0  0
   -0.0502    1.4431   -0.4724 C   0  0  0  0  0  0  0  0  0  0  0  0
    0.8857   -0.7300    0.4226 C   0  0  0  0  0  0  0  0  0  0  0  0
    2.3274   -0.3129    0.4874 C   0  0  0  0  0  0  0  0  0  0  0  0
   -1.4994   -0.5809   -0.0405 C   0  0  0  0  0  0  0  0  0  0  0  0
   -0.2539    2.4264    0.6727 C   0  0  0  0  0  0  0  0  0  0  0  0
    3.0604   -0.6532   -0.8001 C   0  0  0  0  0  0  0  0  0  0  0  0
   -2.3756   -0.2251   -1.2076 C   0  0  0  0  0  0  0  0  0  0  0  0
   -1.9365   -1.3722    0.9528 C   0  0  0  0  0  0  0  0  0  0  0  0
  1  2  1  0
  1  3  2  0
  1  5  1  0
  2  6  1  0
  3  4  1  0
  4  7  1  0
  5  8  1  0
  5  9  2  0
M  END
>  <PUBCHEM_COMPOUND_CID>  (1) 
43553

>  <PUBCHEM_CONFORMER_RMSD>  (1) 
0.6

>  <PUBCHEM_CONFORMER_DIVERSEORDER>  (1) 
5
6
4
2
8
3
1
7

>  <PUBCHEM_MMFF94_PARTIAL_CHARGES>  (1) 
10
1 -0.14
12 0.15
2 0.14
24 0.15
25 0.15
3 -0.29
4 0.14
5 -0.14
8 0.14
9 -0.3

>  <PUBCHEM_EFFECTIVE_ROTOR_COUNT>  (1) 
3

>  <PUBCHEM_PHARMACOPHORE_FEATURES>  (1) 
2
1 6 hydrophobe
1 7 hydrophobe

>  <PUBCHEM_HEAVY_ATOM_COUNT>  (1) 
9

>  <PUBCHEM_ATOM_DEF_STEREO_COUNT>  (1) 
0

>  <PUBCHEM_ATOM_UDEF_STEREO_COUNT>  (1) 
0

>  <PUBCHEM_BOND_DEF_STEREO_COUNT>  (1) 
0

>  <PUBCHEM_BOND_UDEF_STEREO_COUNT>  (1) 
1

>  <PUBCHEM_ISOTOPIC_ATOM_COUNT>  (1) 
0

>  <PUBCHEM_COMPONENT_COUNT>  (1) 
1

>  <PUBCHEM_CACTVS_TAUTO_COUNT>  (1) 
1

>  <PUBCHEM_CONFORMER_ID>  (1) 
0000AA2100000005

>  <PUBCHEM_MMFF94_ENERGY>  (1) 
12.1984

>  <PUBCHEM_FEATURE_SELFOVERLAP>  (1) 
10.149

>  <PUBCHEM_SHAPE_FINGERPRINT>  (1) 
100427 49 18341331196868581832
12897270 3 18334296448765478118
14128692 85 17750812114609353782
15310529 11 15719390616266704227
161256 15 17682403894316857587
16945 1 17895184489595214767
20711978 78 17979920741450226951
20711985 344 18197496229728377640
21040471 1 17691682286470358248
21061003 4 18338531840174470162
29004967 10 18411698828607349306
369184 2 11819279957577016606
81228 2 18268708316393983232

>  <PUBCHEM_SHAPE_MULTIPOLES>  (1) 
185.22
3.65
1.87
1.07
1.99
1.53
-0.11
-1.77
-0.87
-0.43
0.51
-0.3
-0.09
0.27

>  <PUBCHEM_SHAPE_SELFOVERLAP>  (1) 
341.71

>  <PUBCHEM_SHAPE_VOLUME>  (1) 
118.9

>  <PUBCHEM_COORDINATE_TYPE>  (1) 
2
5
10

$$$$
