43559
     RDKit          3D

 14 14  0  0  0  0  0  0  0  0999 V2000
    3.3427   -1.7231   -0.5227 O   0  0  0  0  0  0  0  0  0  0  0  0
    3.2586    2.3262   -0.0696 O   0  0  0  0  0  0  0  0  0  0  0  0
   -3.3212    1.1247   -1.1453 O   0  0  0  0  0  0  0  0  0  0  0  0
   -1.4795    0.6883    0.8472 N   0  0  0  0  0  0  0  0  0  0  0  0
   -2.6271   -0.0342    0.7461 N   0  0  0  0  0  0  0  0  0  0  0  0
   -0.2544    0.0820    0.5000 C   0  0  0  0  0  0  0  0  0  0  0  0
    0.8859    0.8653    0.3211 C   0  0  0  0  0  0  0  0  0  0  0  0
    2.0973    0.2652   -0.0226 C   0  0  0  0  0  0  0  0  0  0  0  0
   -0.1833   -1.3012    0.3352 C   0  0  0  0  0  0  0  0  0  0  0  0
    2.1685   -1.1180   -0.1872 C   0  0  0  0  0  0  0  0  0  0  0  0
    1.0283   -1.9012   -0.0083 C   0  0  0  0  0  0  0  0  0  0  0  0
    3.2763    1.1007   -0.2047 C   0  0  0  0  0  0  0  0  0  0  0  0
   -3.4902    0.2590   -0.2894 C   0  0  0  0  0  0  0  0  0  0  0  0
   -4.7020   -0.6338   -0.2999 C   0  0  0  0  0  0  0  0  0  0  0  0
  1 10  1  0
  2 12  2  0
  3 13  2  0
  4  5  1  0
  4  6  1  0
  5 13  1  0
  6  7  2  0
  6  9  1  0
  7  8  1  0
  8 10  2  0
  8 12  1  0
  9 11  2  0
 10 11  1  0
 13 14  1  0
M  END
>  <PUBCHEM_COMPOUND_CID>  (1) 
43559

>  <PUBCHEM_CONFORMER_RMSD>  (1) 
0.6

>  <PUBCHEM_CONFORMER_DIVERSEORDER>  (1) 
2
29
10
27
28
8
26
4
20
19
24
16
30
11
22
12
21
23
3
25
9
17
15
5
7
13
6
14
18
1

>  <PUBCHEM_MMFF94_PARTIAL_CHARGES>  (1) 
21
1 -0.53
10 0.08
11 -0.15
12 0.42
13 0.57
14 0.06
15 0.15
16 0.15
17 0.15
18 0.4
19 0.37
2 -0.57
20 0.06
24 0.45
3 -0.57
4 -0.52
5 -0.41
6 0.1
7 -0.15
8 0.09
9 -0.15

>  <PUBCHEM_EFFECTIVE_ROTOR_COUNT>  (1) 
4

>  <PUBCHEM_PHARMACOPHORE_FEATURES>  (1) 
6
1 1 donor
1 2 acceptor
1 3 acceptor
1 4 donor
1 5 donor
6 6 7 8 9 10 11 rings

>  <PUBCHEM_HEAVY_ATOM_COUNT>  (1) 
14

>  <PUBCHEM_ATOM_DEF_STEREO_COUNT>  (1) 
0

>  <PUBCHEM_ATOM_UDEF_STEREO_COUNT>  (1) 
0

>  <PUBCHEM_BOND_DEF_STEREO_COUNT>  (1) 
0

>  <PUBCHEM_BOND_UDEF_STEREO_COUNT>  (1) 
0

>  <PUBCHEM_ISOTOPIC_ATOM_COUNT>  (1) 
0

>  <PUBCHEM_COMPONENT_COUNT>  (1) 
1

>  <PUBCHEM_CACTVS_TAUTO_COUNT>  (1) 
8

>  <PUBCHEM_CONFORMER_ID>  (1) 
0000AA2700000002

>  <PUBCHEM_MMFF94_ENERGY>  (1) 
41.8792

>  <PUBCHEM_FEATURE_SELFOVERLAP>  (1) 
32.043

>  <PUBCHEM_SHAPE_FINGERPRINT>  (1) 
10608611 8 18260545598088409221
10799339 124 8502657004334330999
12932764 1 17749395810778754267
13380535 76 18339645645933318562
13705890 14 18343861100077774379
14251717 144 18413107255757759986
14325111 11 18410577283907939169
14576447 43 17916574483755720399
14897335 6 18341049722192207178
15219456 202 18260833695862199969
15477762 27 18271810056113224158
16945 1 18267035968051135074
18186145 218 18411143497867648273
19422 9 17917716768867623995
20281407 28 13470690343293122997
20645477 70 18342177735059793031
20671657 53 18197222442753910198
21499 59 18339923834885553244
21524375 3 18337390560364052880
21639500 275 18341888623436012120
22096605 113 18409167731307213721
221490 88 18410300228400426171
228727 97 17632868537400726225
23402539 116 17241035626487783635
23402655 69 18342454829454399501
23557571 272 17386300882093019441
25610 137 18342461452309846249
2748010 2 18266198277724727114
57096353 35 18059856190340938205
58051976 378 18340203098012115845
581208 293 18413386540364368896
81539 233 18259986015515669112

>  <PUBCHEM_SHAPE_MULTIPOLES>  (1) 
260.54
7.41
1.87
0.81
6.47
0.09
-0.02
-1.17
-1.73
-1.95
-0.17
0.37
-0.08
0.3

>  <PUBCHEM_SHAPE_SELFOVERLAP>  (1) 
540.659

>  <PUBCHEM_SHAPE_VOLUME>  (1) 
147.9

>  <PUBCHEM_COORDINATE_TYPE>  (1) 
2
5
10

$$$$
