43567
     RDKit          3D

 23 25  0  0  0  0  0  0  0  0999 V2000
    4.6311   -2.5816    0.6588 Cl  0  0  0  0  0  0  0  0  0  0  0  0
    5.5352   -0.8959   -1.9506 Cl  0  0  0  0  0  0  0  0  0  0  0  0
   -2.2771   -2.7017    0.8180 O   0  0  0  0  0  0  0  0  0  0  0  0
   -4.4016   -1.5962   -0.5863 O   0  0  0  0  0  0  0  0  0  0  0  0
   -1.1263    3.5009   -0.2023 N   0  0  0  0  0  0  0  0  0  0  0  0
   -1.1456    0.7747    0.5013 C   0  0  0  0  0  0  0  0  0  0  0  0
   -0.0686    1.5977    0.8509 C   0  0  0  0  0  0  0  0  0  0  0  0
    1.1209    1.1010    1.6036 C   0  0  0  0  0  0  0  0  0  0  0  0
   -2.2269    1.3322   -0.2120 C   0  0  0  0  0  0  0  0  0  0  0  0
    2.2356    0.5840    0.7173 C   0  0  0  0  0  0  0  0  0  0  0  0
   -1.1801   -0.5879    0.8396 C   0  0  0  0  0  0  0  0  0  0  0  0
   -3.3171    0.5231   -0.5725 C   0  0  0  0  0  0  0  0  0  0  0  0
   -0.1092    2.9330    0.4801 C   0  0  0  0  0  0  0  0  0  0  0  0
   -2.2687   -1.3825    0.4763 C   0  0  0  0  0  0  0  0  0  0  0  0
   -3.3349   -0.8282   -0.2281 C   0  0  0  0  0  0  0  0  0  0  0  0
   -2.1571    2.6899   -0.5308 C   0  0  0  0  0  0  0  0  0  0  0  0
    2.8552   -0.6097    1.0405 C   0  0  0  0  0  0  0  0  0  0  0  0
    2.6075    1.3181   -0.3945 C   0  0  0  0  0  0  0  0  0  0  0  0
    3.8814   -1.0855    0.2243 C   0  0  0  0  0  0  0  0  0  0  0  0
    3.6337    0.8424   -1.2107 C   0  0  0  0  0  0  0  0  0  0  0  0
    4.2706   -0.3595   -0.9014 C   0  0  0  0  0  0  0  0  0  0  0  0
   -1.7064   -3.6162   -0.1156 C   0  0  0  0  0  0  0  0  0  0  0  0
   -5.4513   -0.9522   -1.3057 C   0  0  0  0  0  0  0  0  0  0  0  0
  1 19  1  0
  2 21  1  0
  3 14  1  0
  3 22  1  0
  4 15  1  0
  4 23  1  0
  5 13  2  0
  5 16  1  0
  6  7  2  0
  6  9  1  0
  6 11  1  0
  7  8  1  0
  7 13  1  0
  8 10  1  0
  9 12  1  0
  9 16  2  0
 10 17  2  0
 10 18  1  0
 11 14  2  0
 12 15  2  0
 14 15  1  0
 17 19  1  0
 18 20  2  0
 19 21  2  0
 20 21  1  0
M  END
>  <PUBCHEM_COMPOUND_CID>  (1) 
43567

>  <PUBCHEM_CONFORMER_RMSD>  (1) 
0.6

>  <PUBCHEM_CONFORMER_DIVERSEORDER>  (1) 
13
52
19
41
53
66
60
55
10
18
44
14
42
63
64
17
20
46
16
47
12
15
65
59
43
48
9
56
11
45
49
61
68
67
50
62
2
1
54
39
51
5
27
40
6
28
57
32
31
58
37
35
36
26
25
38
8
7
30
29
23
34
3
4
33
24
21
22

>  <PUBCHEM_MMFF94_PARTIAL_CHARGES>  (1) 
28
1 -0.18
10 -0.14
11 -0.15
12 -0.15
13 0.16
14 0.08
15 0.08
16 0.16
17 -0.15
18 -0.15
19 0.18
2 -0.18
20 -0.15
21 0.18
22 0.28
23 0.28
26 0.15
27 0.15
28 0.15
29 0.15
3 -0.36
30 0.15
31 0.15
32 0.15
4 -0.36
5 -0.62
7 -0.14
8 0.29

>  <PUBCHEM_EFFECTIVE_ROTOR_COUNT>  (1) 
4

>  <PUBCHEM_PHARMACOPHORE_FEATURES>  (1) 
6
1 3 acceptor
1 4 acceptor
1 5 acceptor
6 10 17 18 19 20 21 rings
6 5 6 7 9 13 16 rings
6 6 9 11 12 14 15 rings

>  <PUBCHEM_HEAVY_ATOM_COUNT>  (1) 
23

>  <PUBCHEM_ATOM_DEF_STEREO_COUNT>  (1) 
0

>  <PUBCHEM_ATOM_UDEF_STEREO_COUNT>  (1) 
0

>  <PUBCHEM_BOND_DEF_STEREO_COUNT>  (1) 
0

>  <PUBCHEM_BOND_UDEF_STEREO_COUNT>  (1) 
0

>  <PUBCHEM_ISOTOPIC_ATOM_COUNT>  (1) 
0

>  <PUBCHEM_COMPONENT_COUNT>  (1) 
1

>  <PUBCHEM_CACTVS_TAUTO_COUNT>  (1) 
1

>  <PUBCHEM_CONFORMER_ID>  (1) 
0000AA2F0000000D

>  <PUBCHEM_MMFF94_ENERGY>  (1) 
88.8097

>  <PUBCHEM_FEATURE_SELFOVERLAP>  (1) 
30.479

>  <PUBCHEM_SHAPE_FINGERPRINT>  (1) 
10319926 262 9007055756448989380
10693767 8 18056168450317978735
12363563 72 17561083588187395808
12553582 1 18337114556801176763
12596602 18 13830127304162369422
12788726 201 18410013199866821795
12892183 10 12103303576523729860
14022347 108 18116415098760118209
14251757 5 18337119998815046654
14251764 30 18188224203180861347
14739800 52 9005042516494335982
14790565 3 18122907530365869433
14866123 147 18269836415993760625
14931854 50 18334575711713082742
14950920 106 13398620628942019134
15475509 8 18413673509385258797
16752209 62 18335690612102503025
20403669 9 18272932730161906990
20693207 138 18273210889861786392
20775438 99 17549790701901520431
20871999 31 18407760330764905677
21307412 95 18343025527555840319
21634736 98 18261682557878767884
22393880 68 18337682906441047164
23379529 103 18199487583179395190
23557571 272 18342165692193242912
23559900 14 18410849984662700648
26353 1 17750787938444498389
3004659 81 18186793665353959922
3027735 51 18200594670791695303
3117164 225 10015036262569725300
314173 41 18194123138375837563
392239 28 11236280435783234668
4280585 95 18336539529985566896
463206 1 18341887532541192999
474144 1 17677876951632522186
484985 159 16915677877306387510
960060 61 18338513157129763245
9709674 26 18412257367829902160

>  <PUBCHEM_SHAPE_MULTIPOLES>  (1) 
460.35
10.22
3.65
1.35
5.06
0.25
0.22
6.59
5.2
-2.24
-0.27
1.09
0.09
-0.27

>  <PUBCHEM_SHAPE_SELFOVERLAP>  (1) 
989.065

>  <PUBCHEM_SHAPE_VOLUME>  (1) 
258.3

>  <PUBCHEM_COORDINATE_TYPE>  (1) 
2
5
10

$$$$
