4356
     RDKit          3D

 24 24  0  0  1  0  0  0  0  0999 V2000
   -0.7444   -0.0937    2.0137 O   0  0  0  0  0  0  0  0  0  0  0  0
   -0.6442    3.2186   -1.3324 O   0  0  0  0  0  0  0  0  0  0  0  0
    0.2444    4.5690    0.2483 O   0  0  0  0  0  0  0  0  0  0  0  0
   -5.6459    0.4164   -0.9135 O   0  0  0  0  0  0  0  0  0  0  0  0
   -5.3195   -1.3177    0.5178 O   0  0  0  0  0  0  0  0  0  0  0  0
   -0.2133    0.9840    0.0297 N   0  0  0  0  0  0  0  0  0  0  0  0
   -2.6647   -1.3256    0.1916 N   0  0  0  0  0  0  0  0  0  0  0  0
    1.8010    2.0533    0.9830 C   0  0  0  0  0  0  0  0  0  0  0  0
    2.7494    1.5077   -0.1088 C   0  0  0  0  0  0  0  0  0  0  0  0
    0.3103    2.1812    0.6345 C   0  0  0  0  0  0  0  0  0  0  0  0
   -1.2303   -1.2176   -0.0772 C   0  0  0  0  0  0  0  0  0  0  0  0
   -0.5305   -2.5357    0.2850 C   0  0  0  0  0  0  0  0  0  0  0  0
   -0.7060   -0.0729    0.7844 C   0  0  0  0  0  0  0  0  0  0  0  0
    4.1979    1.3578    0.3506 C   0  0  0  0  0  0  0  0  0  0  0  0
    2.6956    2.4313   -1.3317 C   0  0  0  0  0  0  0  0  0  0  0  0
   -0.0071    3.4396   -0.1578 C   0  0  0  0  0  0  0  0  0  0  0  0
    0.9566   -2.5014    0.0215 C   0  0  0  0  0  0  0  0  0  0  0  0
   -3.4039   -0.3143   -0.5469 C   0  0  0  0  0  0  0  0  0  0  0  0
    1.4539   -2.8935   -1.2215 C   0  0  0  0  0  0  0  0  0  0  0  0
    1.8326   -2.0770    1.0207 C   0  0  0  0  0  0  0  0  0  0  0  0
    2.8270   -2.8616   -1.4651 C   0  0  0  0  0  0  0  0  0  0  0  0
    3.2057   -2.0450    0.7769 C   0  0  0  0  0  0  0  0  0  0  0  0
   -4.8675   -0.4658   -0.2368 C   0  0  0  0  0  0  0  0  0  0  0  0
    3.7027   -2.4373   -0.4660 C   0  0  0  0  0  0  0  0  0  0  0  0
  1 13  2  0
  2 16  1  0
  3 16  2  0
  4 23  1  0
  5 23  2  0
  6 10  1  0
  6 13  1  0
  7 11  1  0
  7 18  1  0
  8  9  1  0
  8 10  1  0
  9 14  1  0
  9 15  1  0
 10 16  1  0
 11 12  1  0
 11 13  1  0
 12 17  1  0
 17 19  2  0
 17 20  1  0
 18 23  1  0
 19 21  1  0
 20 22  2  0
 21 24  2  0
 22 24  1  0
M  END
>  <PUBCHEM_COMPOUND_CID>  (1) 
4356

>  <PUBCHEM_CONFORMER_RMSD>  (1) 
1

>  <PUBCHEM_CONFORMER_DIVERSEORDER>  (1) 
1
54
36
21
9
90
81
92
5
33
89
15
3
46
42
13
59
64
91
7
50
56
37
57
48
39
32
51
74
16
17
96
79
94
27
52
38
29
25
24
68
6
4
61
22
98
86
93
44
69
35
12
87
53
31
60
88
83
14
63
23
19
85
58
78
40
49
80
71
84
20
26
30
43
28
18
72
10
62
65
2
67
76
34
73
95
77
75
70
66
97
47
41
55
45
82
8
11

>  <PUBCHEM_MMFF94_PARTIAL_CHARGES>  (1) 
29
1 -0.57
10 0.36
11 0.33
12 0.14
13 0.57
16 0.66
17 -0.14
18 0.33
19 -0.15
2 -0.65
20 -0.15
21 -0.15
22 -0.15
23 0.66
24 -0.15
3 -0.57
30 0.37
39 0.36
4 -0.65
42 0.15
43 0.15
44 0.15
45 0.15
46 0.5
47 0.15
48 0.5
5 -0.57
6 -0.73
7 -0.9

>  <PUBCHEM_EFFECTIVE_ROTOR_COUNT>  (1) 
11

>  <PUBCHEM_PHARMACOPHORE_FEATURES>  (1) 
12
1 1 acceptor
1 2 acceptor
1 3 acceptor
1 4 acceptor
1 5 acceptor
1 6 donor
1 7 cation
1 7 donor
3 2 3 16 anion
3 4 5 23 anion
3 9 14 15 hydrophobe
6 17 19 20 21 22 24 rings

>  <PUBCHEM_HEAVY_ATOM_COUNT>  (1) 
24

>  <PUBCHEM_ATOM_DEF_STEREO_COUNT>  (1) 
0

>  <PUBCHEM_ATOM_UDEF_STEREO_COUNT>  (1) 
2

>  <PUBCHEM_BOND_DEF_STEREO_COUNT>  (1) 
0

>  <PUBCHEM_BOND_UDEF_STEREO_COUNT>  (1) 
0

>  <PUBCHEM_ISOTOPIC_ATOM_COUNT>  (1) 
0

>  <PUBCHEM_COMPONENT_COUNT>  (1) 
1

>  <PUBCHEM_CACTVS_TAUTO_COUNT>  (1) 
2

>  <PUBCHEM_CONFORMER_ID>  (1) 
0000110400000001

>  <PUBCHEM_MMFF94_ENERGY>  (1) 
43.7807

>  <PUBCHEM_FEATURE_SELFOVERLAP>  (1) 
61.015

>  <PUBCHEM_SHAPE_FINGERPRINT>  (1) 
116883 192 18267861675160168089
12173636 292 17329144084235351215
12422481 6 18122873578305529538
12592029 89 18193000541483774035
12788726 201 18118969083350370483
13140716 1 18266178331727676241
14251757 17 17897148153149124741
15081414 286 18411142454496868921
1601671 61 18336540633338377609
17093844 170 18339637957841995664
17357779 13 18126832803412599751
17492 54 18263666047033364726
17980427 26 16914504883389521953
1813 80 18200033928509707295
18785283 64 18265623250513206187
20739085 24 18268454393943362211
20775438 99 17260432922318718591
20905425 154 18341055116876794532
21285901 2 18260823795709823749
23352939 185 18200596895341940979
23419403 2 17896855713205407406
23557571 272 17694488253119411554
23566358 2 18264195937805947957
3014063 31 18338515244404968532
3060560 45 18196365038305918168
3298306 158 18193000532598212854
59755656 215 18410293614703989892
6443956 14 18410293613997400324
70251023 43 18267881479344638498
7164475 11 17760926242948513163
81228 2 17979365157133954387

>  <PUBCHEM_SHAPE_MULTIPOLES>  (1) 
454.6
7.84
5.2
1.26
11.42
3.86
0.01
-3.24
1.34
-3.69
1.01
-0.41
-0.08
0.61

>  <PUBCHEM_SHAPE_SELFOVERLAP>  (1) 
918.465

>  <PUBCHEM_SHAPE_VOLUME>  (1) 
263.8

>  <PUBCHEM_COORDINATE_TYPE>  (1) 
2
5
10

$$$$
