43569
     RDKit          3D

 23 25  0  0  0  0  0  0  0  0999 V2000
   -2.7162    2.4446    0.7906 O   0  0  0  0  0  0  0  0  0  0  0  0
   -4.5433    1.2456   -0.9223 O   0  0  0  0  0  0  0  0  0  0  0  0
    5.2222    1.5974   -0.9838 O   0  0  0  0  0  0  0  0  0  0  0  0
   -0.7630   -3.4902   -0.5516 N   0  0  0  0  0  0  0  0  0  0  0  0
   -0.0450   -1.5836    0.7523 C   0  0  0  0  0  0  0  0  0  0  0  0
   -1.1670   -0.8522    0.3456 C   0  0  0  0  0  0  0  0  0  0  0  0
    0.9945   -1.0316    1.6704 C   0  0  0  0  0  0  0  0  0  0  0  0
   -2.0977   -1.4573   -0.5241 C   0  0  0  0  0  0  0  0  0  0  0  0
    2.1299   -0.3257    0.9579 C   0  0  0  0  0  0  0  0  0  0  0  0
   -1.3924    0.4647    0.7787 C   0  0  0  0  0  0  0  0  0  0  0  0
   -3.2307   -0.7404   -0.9432 C   0  0  0  0  0  0  0  0  0  0  0  0
    0.1061   -2.8788    0.2811 C   0  0  0  0  0  0  0  0  0  0  0  0
   -2.5218    1.1679    0.3556 C   0  0  0  0  0  0  0  0  0  0  0  0
   -3.4389    0.5666   -0.5033 C   0  0  0  0  0  0  0  0  0  0  0  0
   -1.8402   -2.7673   -0.9329 C   0  0  0  0  0  0  0  0  0  0  0  0
    2.0262    1.0298    0.7036 C   0  0  0  0  0  0  0  0  0  0  0  0
    3.2431   -1.0537    0.5785 C   0  0  0  0  0  0  0  0  0  0  0  0
    3.0715    1.6796    0.0473 C   0  0  0  0  0  0  0  0  0  0  0  0
    4.2885   -0.4039   -0.0778 C   0  0  0  0  0  0  0  0  0  0  0  0
    4.2028    0.9629   -0.3433 C   0  0  0  0  0  0  0  0  0  0  0  0
   -2.1600    3.4908   -0.0029 C   0  0  0  0  0  0  0  0  0  0  0  0
   -5.7177    1.1299   -0.1214 C   0  0  0  0  0  0  0  0  0  0  0  0
    6.3491    0.8049   -1.3552 C   0  0  0  0  0  0  0  0  0  0  0  0
  1 13  1  0
  1 21  1  0
  2 14  1  0
  2 22  1  0
  3 20  1  0
  3 23  1  0
  4 12  2  0
  4 15  1  0
  5  6  2  0
  5  7  1  0
  5 12  1  0
  6  8  1  0
  6 10  1  0
  7  9  1  0
  8 11  1  0
  8 15  2  0
  9 16  2  0
  9 17  1  0
 10 13  2  0
 11 14  2  0
 13 14  1  0
 16 18  1  0
 17 19  2  0
 18 20  2  0
 19 20  1  0
M  END
>  <PUBCHEM_COMPOUND_CID>  (1) 
43569

>  <PUBCHEM_CONFORMER_RMSD>  (1) 
0.8

>  <PUBCHEM_CONFORMER_DIVERSEORDER>  (1) 
2
9
6
13
7
16
12
15
14
8
5
11
10
4
3
1

>  <PUBCHEM_MMFF94_PARTIAL_CHARGES>  (1) 
29
1 -0.36
10 -0.15
11 -0.15
12 0.16
13 0.08
14 0.08
15 0.16
16 -0.15
17 -0.15
18 -0.15
19 -0.15
2 -0.36
20 0.08
21 0.28
22 0.28
23 0.28
26 0.15
27 0.15
28 0.15
29 0.15
3 -0.36
30 0.15
31 0.15
32 0.15
33 0.15
4 -0.62
5 -0.14
7 0.29
9 -0.14

>  <PUBCHEM_EFFECTIVE_ROTOR_COUNT>  (1) 
5

>  <PUBCHEM_PHARMACOPHORE_FEATURES>  (1) 
7
1 1 acceptor
1 2 acceptor
1 3 acceptor
1 4 acceptor
6 4 5 6 8 12 15 rings
6 6 8 10 11 13 14 rings
6 9 16 17 18 19 20 rings

>  <PUBCHEM_HEAVY_ATOM_COUNT>  (1) 
23

>  <PUBCHEM_ATOM_DEF_STEREO_COUNT>  (1) 
0

>  <PUBCHEM_ATOM_UDEF_STEREO_COUNT>  (1) 
0

>  <PUBCHEM_BOND_DEF_STEREO_COUNT>  (1) 
0

>  <PUBCHEM_BOND_UDEF_STEREO_COUNT>  (1) 
0

>  <PUBCHEM_ISOTOPIC_ATOM_COUNT>  (1) 
0

>  <PUBCHEM_COMPONENT_COUNT>  (1) 
1

>  <PUBCHEM_CACTVS_TAUTO_COUNT>  (1) 
1

>  <PUBCHEM_CONFORMER_ID>  (1) 
0000AA3100000002

>  <PUBCHEM_MMFF94_ENERGY>  (1) 
100.2219

>  <PUBCHEM_FEATURE_SELFOVERLAP>  (1) 
35.555

>  <PUBCHEM_SHAPE_FINGERPRINT>  (1) 
10498660 4 18410001161253099089
10670039 82 18409732816339870884
10674148 151 16773523178539664088
10871710 139 18336265661137793109
11370993 144 13118539845960536828
12173636 292 18341317938225073479
12363563 72 15410901781728977442
12788726 201 18131354063877192785
13583140 156 17027105620530260435
13994607 96 17895206544273489281
14251757 5 18341336694658432996
1454969 45 18411415129924197759
14713325 29 18337405936041634866
14767858 380 18269254864673948887
14787075 74 18260541230808211523
14790565 3 18342739577386802153
14840074 17 18040439875793697669
14931854 50 18412824655611037676
15183329 4 18339933628249680534
15475509 35 11237420698214281077
15575132 122 18188207603005940965
16752209 62 18200577130129025273
16994733 274 15431968446267101959
17492 54 18262217998708953597
20775438 99 16980637290843136359
20871999 31 18269829977205027727
21524375 3 18335696088033091027
21756936 100 17676772084406399898
21857420 4 15329203841125887335
22393880 68 18271528714865730822
22620623 9 17559660927557889319
23366157 5 17904480701959209171
23402655 69 18335419101898266102
23559900 14 18059286686505118736
26353 1 17050454131559980759
2637199 183 18409450241460830562
38570 142 17895487951237656670
469060 322 14129624457404802483
474 4 18188205403618207507
5283173 99 18342741871194483840
59755656 520 17022901280959170882
633830 44 17603581950627247730

>  <PUBCHEM_SHAPE_MULTIPOLES>  (1) 
450.74
10.78
3.41
1.16
8.3
0.65
-0.05
-7.25
4.61
-2.34
0.33
0.52
0.14
-1.21

>  <PUBCHEM_SHAPE_SELFOVERLAP>  (1) 
981.87

>  <PUBCHEM_SHAPE_VOLUME>  (1) 
246.8

>  <PUBCHEM_COORDINATE_TYPE>  (1) 
2
5
10

$$$$
