43572
     RDKit          3D

 27 29  0  0  0  0  0  0  0  0999 V2000
    3.2479   -2.4414    0.9188 O   0  0  0  0  0  0  0  0  0  0  0  0
    5.1433   -1.2724   -0.7398 O   0  0  0  0  0  0  0  0  0  0  0  0
   -2.4380   -2.8298   -0.1974 O   0  0  0  0  0  0  0  0  0  0  0  0
   -4.7216    1.3736   -0.4324 O   0  0  0  0  0  0  0  0  0  0  0  0
   -4.6278   -1.3350   -1.0008 O   0  0  0  0  0  0  0  0  0  0  0  0
    1.4960    3.5669   -0.3736 N   0  0  0  0  0  0  0  0  0  0  0  0
   -0.3768    1.1296    1.7767 C   0  0  0  0  0  0  0  0  0  0  0  0
    0.6966    1.6639    0.8874 C   0  0  0  0  0  0  0  0  0  0  0  0
    1.8048    0.9056    0.4922 C   0  0  0  0  0  0  0  0  0  0  0  0
   -1.5176    0.4677    1.0316 C   0  0  0  0  0  0  0  0  0  0  0  0
    2.7700    1.4953   -0.3498 C   0  0  0  0  0  0  0  0  0  0  0  0
    1.9830   -0.4234    0.9101 C   0  0  0  0  0  0  0  0  0  0  0  0
    0.5928    2.9696    0.4327 C   0  0  0  0  0  0  0  0  0  0  0  0
   -2.6011    1.2335    0.6414 C   0  0  0  0  0  0  0  0  0  0  0  0
   -1.4489   -0.8867    0.7592 C   0  0  0  0  0  0  0  0  0  0  0  0
    3.8899    0.7515   -0.7571 C   0  0  0  0  0  0  0  0  0  0  0  0
    3.0996   -1.1535    0.4991 C   0  0  0  0  0  0  0  0  0  0  0  0
    4.0511   -0.5673   -0.3326 C   0  0  0  0  0  0  0  0  0  0  0  0
    2.5591    2.8181   -0.7443 C   0  0  0  0  0  0  0  0  0  0  0  0
   -2.4996   -1.4959    0.0731 C   0  0  0  0  0  0  0  0  0  0  0  0
   -3.6519    0.6245   -0.0445 C   0  0  0  0  0  0  0  0  0  0  0  0
   -3.6012   -0.7403   -0.3288 C   0  0  0  0  0  0  0  0  0  0  0  0
    2.6775   -3.4594    0.0992 C   0  0  0  0  0  0  0  0  0  0  0  0
    6.0693   -0.5991   -1.5901 C   0  0  0  0  0  0  0  0  0  0  0  0
   -2.9836   -3.7148    0.7788 C   0  0  0  0  0  0  0  0  0  0  0  0
   -4.6950    2.7609   -0.1026 C   0  0  0  0  0  0  0  0  0  0  0  0
   -4.9180   -0.8418   -2.3066 C   0  0  0  0  0  0  0  0  0  0  0  0
  1 17  1  0
  1 23  1  0
  2 18  1  0
  2 24  1  0
  3 20  1  0
  3 25  1  0
  4 21  1  0
  4 26  1  0
  5 22  1  0
  5 27  1  0
  6 13  2  0
  6 19  1  0
  7  8  1  0
  7 10  1  0
  8  9  2  0
  8 13  1  0
  9 11  1  0
  9 12  1  0
 10 14  2  0
 10 15  1  0
 11 16  1  0
 11 19  2  0
 12 17  2  0
 14 21  1  0
 15 20  2  0
 16 18  2  0
 17 18  1  0
 20 22  1  0
 21 22  2  0
M  END
>  <PUBCHEM_COMPOUND_CID>  (1) 
43572

>  <PUBCHEM_CONFORMER_RMSD>  (1) 
0.8

>  <PUBCHEM_CONFORMER_DIVERSEORDER>  (1) 
29
26
40
37
11
42
34
2
43
18
12
1
36
39
10
38
7
19
33
23
13
5
31
27
9
41
21
32
35
6
15
14
3
28
4
17
22
8
16
25
30
24
20

>  <PUBCHEM_MMFF94_PARTIAL_CHARGES>  (1) 
31
1 -0.36
10 -0.14
12 -0.15
13 0.16
14 -0.15
15 -0.15
16 -0.15
17 0.08
18 0.08
19 0.16
2 -0.36
20 0.08
21 0.08
22 0.08
23 0.28
24 0.28
25 0.28
26 0.28
27 0.28
3 -0.36
30 0.15
31 0.15
32 0.15
33 0.15
34 0.15
35 0.15
4 -0.36
5 -0.36
6 -0.62
7 0.29
8 -0.14

>  <PUBCHEM_EFFECTIVE_ROTOR_COUNT>  (1) 
7

>  <PUBCHEM_PHARMACOPHORE_FEATURES>  (1) 
9
1 1 acceptor
1 2 acceptor
1 3 acceptor
1 4 acceptor
1 5 acceptor
1 6 acceptor
6 10 14 15 20 21 22 rings
6 6 8 9 11 13 19 rings
6 9 11 12 16 17 18 rings

>  <PUBCHEM_HEAVY_ATOM_COUNT>  (1) 
27

>  <PUBCHEM_ATOM_DEF_STEREO_COUNT>  (1) 
0

>  <PUBCHEM_ATOM_UDEF_STEREO_COUNT>  (1) 
0

>  <PUBCHEM_BOND_DEF_STEREO_COUNT>  (1) 
0

>  <PUBCHEM_BOND_UDEF_STEREO_COUNT>  (1) 
0

>  <PUBCHEM_ISOTOPIC_ATOM_COUNT>  (1) 
0

>  <PUBCHEM_COMPONENT_COUNT>  (1) 
1

>  <PUBCHEM_CACTVS_TAUTO_COUNT>  (1) 
1

>  <PUBCHEM_CONFORMER_ID>  (1) 
0000AA340000001D

>  <PUBCHEM_MMFF94_ENERGY>  (1) 
132.0752

>  <PUBCHEM_FEATURE_SELFOVERLAP>  (1) 
45.716

>  <PUBCHEM_SHAPE_FINGERPRINT>  (1) 
10074138 170 14294534198750661459
11796584 16 17775286015035632077
12363563 72 16487256590522228657
12553582 1 18409456851721344074
12788726 201 17986396572637692848
13004483 165 17973434417678971458
14117953 113 17979632329975083838
14251757 5 18336551525185490652
14790565 3 17907863903485494185
14931854 50 18410290289772296151
15183329 4 18337669703279478029
17349148 13 17846500331200005989
17492 89 18194688291674388050
20626108 58 17988633116690534293
20775438 99 16765029683697957559
21756936 100 11242261796281878728
221490 88 18193567885299196994
22393880 68 18410017675739754508
23559900 14 18339353192576977345
238 59 18046917257843307202
2838139 119 15575570201187953862
3004659 81 18341891883231566416
4280585 95 18409729539601005624
44062 13 18341055193827737007
46194498 28 17750516371862042981
463206 1 18335990787546317778
9709674 26 18269269230833294097

>  <PUBCHEM_SHAPE_MULTIPOLES>  (1) 
521.32
11.26
4.14
1.36
0.67
0.8
0.35
3.01
6.08
-0.45
-0.32
-0.47
0.15
-0.48

>  <PUBCHEM_SHAPE_SELFOVERLAP>  (1) 
1127.982

>  <PUBCHEM_SHAPE_VOLUME>  (1) 
287.8

>  <PUBCHEM_COORDINATE_TYPE>  (1) 
2
5
10

$$$$
