43580
     RDKit          3D

  7  6  0  0  0  0  0  0  0  0999 V2000
   -1.7625    0.9792    0.1088 O   0  0  0  0  0  0  0  0  0  0  0  0
   -1.5551   -1.0971   -0.5985 O   0  0  0  0  0  0  0  0  0  0  0  0
    1.1766    1.2514   -0.4517 O   0  0  0  0  0  0  0  0  0  0  0  0
    2.0917   -0.8113   -0.0818 O   0  0  0  0  0  0  0  0  0  0  0  0
   -1.1853   -0.1241    0.0856 N   0  0  0  0  0  0  0  0  0  0  0  0
    0.0246   -0.2844    0.9022 C   0  0  0  0  0  0  0  0  0  0  0  0
    1.2099    0.0861    0.0354 C   0  0  0  0  0  0  0  0  0  0  0  0
  1  5  1  0
  2  5  2  0
  3  7  1  0
  4  7  2  0
  5  6  1  0
  6  7  1  0
M  CHG  3   1  -1   3  -1   5   1
M  END
>  <PUBCHEM_COMPOUND_CID>  (1) 
43580

>  <PUBCHEM_CONFORMER_RMSD>  (1) 
0.4

>  <PUBCHEM_CONFORMER_DIVERSEORDER>  (1) 
1
6
5
3
4
2

>  <PUBCHEM_MMFF94_PARTIAL_CHARGES>  (1) 
7
1 -0.52
2 -0.52
3 -0.9
4 -0.9
5 0.8
6 0.13
7 0.91

>  <PUBCHEM_EFFECTIVE_ROTOR_COUNT>  (1) 
2

>  <PUBCHEM_PHARMACOPHORE_FEATURES>  (1) 
6
1 1 acceptor
1 1 anion
1 2 acceptor
1 3 acceptor
1 4 acceptor
3 3 4 7 anion

>  <PUBCHEM_HEAVY_ATOM_COUNT>  (1) 
7

>  <PUBCHEM_ATOM_DEF_STEREO_COUNT>  (1) 
0

>  <PUBCHEM_ATOM_UDEF_STEREO_COUNT>  (1) 
0

>  <PUBCHEM_BOND_DEF_STEREO_COUNT>  (1) 
0

>  <PUBCHEM_BOND_UDEF_STEREO_COUNT>  (1) 
0

>  <PUBCHEM_ISOTOPIC_ATOM_COUNT>  (1) 
0

>  <PUBCHEM_COMPONENT_COUNT>  (1) 
1

>  <PUBCHEM_CACTVS_TAUTO_COUNT>  (1) 
2

>  <PUBCHEM_CONFORMER_ID>  (1) 
0000AA3C00000001

>  <PUBCHEM_MMFF94_ENERGY>  (1) 
7.1483

>  <PUBCHEM_FEATURE_SELFOVERLAP>  (1) 
30.582

>  <PUBCHEM_SHAPE_FINGERPRINT>  (1) 
16714656 1 18121221982706766580
20096714 4 18187367614354453905
21040471 1 18200030612572863145
24536 1 17896038904619348680
29004967 10 18261120634132380266

>  <PUBCHEM_SHAPE_MULTIPOLES>  (1) 
115.6
2.42
1.12
0.76
0.05
0.15
0.11
-0.16
-0.32
-0.04
-0.16
-0.04
-0.07
-0.22

>  <PUBCHEM_SHAPE_SELFOVERLAP>  (1) 
217.837

>  <PUBCHEM_SHAPE_VOLUME>  (1) 
71.8

>  <PUBCHEM_COORDINATE_TYPE>  (1) 
2
5
10

$$$$
