43589
     RDKit          3D

 28 27  0  0  1  0  0  0  0  0999 V2000
   -1.1603    4.4432   -0.6995 O   0  0  0  0  0  0  0  0  0  0  0  0
    1.1979    4.4347    0.7116 O   0  0  0  0  0  0  0  0  0  0  0  0
   -2.0822    2.1776   -2.0021 O   0  0  0  0  0  0  0  0  0  0  0  0
    2.1174    2.1594    1.9964 O   0  0  0  0  0  0  0  0  0  0  0  0
   -3.1761    0.7440    0.0946 O   0  0  0  0  0  0  0  0  0  0  0  0
    3.1897    0.7282   -0.0954 O   0  0  0  0  0  0  0  0  0  0  0  0
   -1.7050   -0.6256    1.2215 O   0  0  0  0  0  0  0  0  0  0  0  0
    1.7093   -0.6170   -1.2395 O   0  0  0  0  0  0  0  0  0  0  0  0
   -5.1359   -1.0710    0.1488 N   0  0  0  0  0  0  0  0  0  0  0  0
    5.1216   -1.1174   -0.1320 N   0  0  0  0  0  0  0  0  0  0  0  0
   -0.3939    3.2405   -0.6472 C   0  0  0  0  0  0  0  0  0  0  0  0
    0.4302    3.2330    0.6514 C   0  0  0  0  0  0  0  0  0  0  0  0
   -1.3286    2.0228   -0.7929 C   0  0  0  0  0  0  0  0  0  0  0  0
    1.3638    2.0132    0.7859 C   0  0  0  0  0  0  0  0  0  0  0  0
   -2.3370    1.8692    0.3448 C   0  0  0  0  0  0  0  0  0  0  0  0
    2.3711    1.8664   -0.3524 C   0  0  0  0  0  0  0  0  0  0  0  0
   -2.7360   -0.4471    0.5926 C   0  0  0  0  0  0  0  0  0  0  0  0
    2.7364   -0.4554   -0.5996 C   0  0  0  0  0  0  0  0  0  0  0  0
   -3.7386   -1.4962    0.2642 C   0  0  0  0  0  0  0  0  0  0  0  0
    3.7190   -1.5204   -0.2625 C   0  0  0  0  0  0  0  0  0  0  0  0
   -3.4195   -2.7947    0.0847 C   0  0  0  0  0  0  0  0  0  0  0  0
    3.3779   -2.8141   -0.0883 C   0  0  0  0  0  0  0  0  0  0  0  0
   -2.0269   -3.3662    0.1664 C   0  0  0  0  0  0  0  0  0  0  0  0
   -4.4610   -3.8371   -0.2481 C   0  0  0  0  0  0  0  0  0  0  0  0
    1.9774   -3.3637   -0.1853 C   0  0  0  0  0  0  0  0  0  0  0  0
    4.3995   -3.8731    0.2536 C   0  0  0  0  0  0  0  0  0  0  0  0
   -6.2410   -0.7348    0.0572 C   0  0  0  0  0  0  0  0  0  0  0  0
    6.2308   -0.7986   -0.0290 C   0  0  0  0  0  0  0  0  0  0  0  0
  1 11  1  0
  2 12  1  0
  3 13  1  0
  4 14  1  0
  5 15  1  0
  5 17  1  0
  6 16  1  0
  6 18  1  0
  7 17  2  0
  8 18  2  0
  9 19  1  0
  9 27  3  0
 10 20  1  0
 10 28  3  0
 11 12  1  0
 11 13  1  0
 12 14  1  0
 13 15  1  0
 14 16  1  0
 17 19  1  0
 18 20  1  0
 19 21  2  3
 20 22  2  3
 21 23  1  0
 21 24  1  0
 22 25  1  0
 22 26  1  0
M  CHG  4   9   1  10   1  27  -1  28  -1
M  END
>  <PUBCHEM_COMPOUND_CID>  (1) 
43589

>  <PUBCHEM_CONFORMER_RMSD>  (1) 
1.8

>  <PUBCHEM_CONFORMER_DIVERSEORDER>  (1) 
1
14
16
57
7
4
5
43
12
36
23
6
60
46
33
47
8
49
41
21
59
53
24
48
25
3
11
29
52
20
44
45
58
19
54
31
9
18
10
34
55
15
35
56
22
27
42
51
37
26
32
30
2
38
40
28
39
50
61
13
17

>  <PUBCHEM_MMFF94_PARTIAL_CHARGES>  (1) 
32
1 -0.68
10 0.24
11 0.28
12 0.28
13 0.28
14 0.28
15 0.28
16 0.28
17 0.71
18 0.71
19 0.14
2 -0.68
20 0.14
21 -0.28
22 -0.28
23 0.14
24 0.14
25 0.14
26 0.14
27 -0.37
28 -0.37
3 -0.68
37 0.4
38 0.4
39 0.4
4 -0.68
40 0.4
5 -0.43
6 -0.43
7 -0.57
8 -0.57
9 0.24

>  <PUBCHEM_EFFECTIVE_ROTOR_COUNT>  (1) 
11

>  <PUBCHEM_PHARMACOPHORE_FEATURES>  (1) 
12
1 1 acceptor
1 1 donor
1 2 acceptor
1 2 donor
1 3 acceptor
1 3 donor
1 4 acceptor
1 4 donor
1 7 acceptor
1 8 acceptor
3 21 23 24 hydrophobe
3 22 25 26 hydrophobe

>  <PUBCHEM_HEAVY_ATOM_COUNT>  (1) 
28

>  <PUBCHEM_ATOM_DEF_STEREO_COUNT>  (1) 
0

>  <PUBCHEM_ATOM_UDEF_STEREO_COUNT>  (1) 
4

>  <PUBCHEM_BOND_DEF_STEREO_COUNT>  (1) 
0

>  <PUBCHEM_BOND_UDEF_STEREO_COUNT>  (1) 
0

>  <PUBCHEM_ISOTOPIC_ATOM_COUNT>  (1) 
0

>  <PUBCHEM_COMPONENT_COUNT>  (1) 
1

>  <PUBCHEM_CACTVS_TAUTO_COUNT>  (1) 
1

>  <PUBCHEM_CONFORMER_ID>  (1) 
0000AA4500000001

>  <PUBCHEM_MMFF94_ENERGY>  (1) 
61.6181

>  <PUBCHEM_FEATURE_SELFOVERLAP>  (1) 
60.928

>  <PUBCHEM_SHAPE_FINGERPRINT>  (1) 
10483366 6 18192418690181155901
11513181 2 17265547206398627486
12107183 9 18270978860278340017
12293681 25 18193807462691165421
12633257 1 18200611219310924683
12788726 201 18188490164229367930
12969540 37 18266458883001834740
12990986 174 18337670806922179058
13402501 40 18410855460133741858
1361 2 17690277535933362987
13631057 29 18338804408211623156
138480 1 14879190696892564608
14117953 113 18342744000923263127
14863182 85 17544200831887946645
14866123 147 18124036724586117449
15320467 1 18410576158421539170
15352361 1 18410577279407230402
19315092 285 17631169886768295979
19930381 70 18265895954860782075
20775438 99 17835190793610273831
20775530 9 18409449201967974955
23559900 14 18340483495141991387
463206 1 18335991955382251146
5309563 4 18411981407306401903
6433294 58 18411421738750160142
6443956 14 18265618869541179413

>  <PUBCHEM_SHAPE_MULTIPOLES>  (1) 
519.31
11.39
6.44
1.06
0.25
1.87
0
-11.93
-0.06
-0.08
0.01
-0.01
0.76
0.9

>  <PUBCHEM_SHAPE_SELFOVERLAP>  (1) 
1025.268

>  <PUBCHEM_SHAPE_VOLUME>  (1) 
304.8

>  <PUBCHEM_COORDINATE_TYPE>  (1) 
2
5
10

$$$$
