43583
     RDKit          3D

 25 25  0  0  0  0  0  0  0  0999 V2000
   -3.9573   -2.8065   -0.1265 S   0  0  0  0  0  0  0  0  0  0  0  0
   -4.0543   -3.5384    1.3321 O   0  0  0  0  0  0  0  0  0  0  0  0
   -4.5681   -3.7061   -1.0943 O   0  0  0  0  0  0  0  0  0  0  0  0
   -2.5918   -2.3390   -0.3073 O   0  0  0  0  0  0  0  0  0  0  0  0
    2.0284    1.1405   -0.6041 C   0  0  0  0  0  0  0  0  0  0  0  0
    3.2611    1.0015    0.2909 C   0  0  0  0  0  0  0  0  0  0  0  0
    0.8413    1.7155    0.1700 C   0  0  0  0  0  0  0  0  0  0  0  0
    4.4582    0.4568   -0.4917 C   0  0  0  0  0  0  0  0  0  0  0  0
   -0.3821    1.8841   -0.7336 C   0  0  0  0  0  0  0  0  0  0  0  0
    5.6989    0.3498    0.3976 C   0  0  0  0  0  0  0  0  0  0  0  0
   -1.5774    2.4249    0.0524 C   0  0  0  0  0  0  0  0  0  0  0  0
    6.9350   -0.1693   -0.3422 C   0  0  0  0  0  0  0  0  0  0  0  0
   -2.8294    2.6394   -0.7999 C   0  0  0  0  0  0  0  0  0  0  0  0
    8.1939   -0.2066    0.5271 C   0  0  0  0  0  0  0  0  0  0  0  0
   -4.0778    3.1705   -0.0823 C   0  0  0  0  0  0  0  0  0  0  0  0
    9.3927   -0.7439   -0.2578 C   0  0  0  0  0  0  0  0  0  0  0  0
   -4.6410    2.2575    1.0167 C   0  0  0  0  0  0  0  0  0  0  0  0
   10.6605   -0.7466    0.5960 C   0  0  0  0  0  0  0  0  0  0  0  0
   -5.2302    0.9516    0.5446 C   0  0  0  0  0  0  0  0  0  0  0  0
   11.8606   -1.2493   -0.1906 C   0  0  0  0  0  0  0  0  0  0  0  0
   -4.4226   -0.1810    0.4404 C   0  0  0  0  0  0  0  0  0  0  0  0
   -6.5827    0.8768    0.2119 C   0  0  0  0  0  0  0  0  0  0  0  0
   -4.9677   -1.3884    0.0040 C   0  0  0  0  0  0  0  0  0  0  0  0
   -7.1279   -0.3306   -0.2248 C   0  0  0  0  0  0  0  0  0  0  0  0
   -6.3203   -1.4632   -0.3287 C   0  0  0  0  0  0  0  0  0  0  0  0
  1  2  1  0
  1  3  2  0
  1  4  2  0
  1 23  1  0
  5  6  1  0
  5  7  1  0
  6  8  1  0
  7  9  1  0
  8 10  1  0
  9 11  1  0
 10 12  1  0
 11 13  1  0
 12 14  1  0
 13 15  1  0
 14 16  1  0
 15 17  1  0
 16 18  1  0
 17 19  1  0
 18 20  1  0
 19 21  2  0
 19 22  1  0
 21 23  1  0
 22 24  2  0
 23 25  2  0
 24 25  1  0
M  END
>  <PUBCHEM_COMPOUND_CID>  (1) 
43583

>  <PUBCHEM_CONFORMER_RMSD>  (1) 
1.6

>  <PUBCHEM_CONFORMER_DIVERSEORDER>  (1) 
1
54
89
92
79
94
55
56
5
86
65
40
35
16
12
24
7
53
91
68
93
41
14
97
13
28
80
84
4
9
64
29
83
15
18
85
3
58
77
31
6
75
32
78
8
44
96
17
20
81
71
33
39
73
100
101
82
21
66
95
98
60
36
88
2
38
26
22
104
45
51
37
50
87
102
34
30
90
59
27
74
69
19
25
49
62
10
52
23
70
67
103
72
11
47
48
99
43
42
46
63
76
57
61

>  <PUBCHEM_MMFF94_PARTIAL_CHARGES>  (1) 
16
1 1.49
17 0.14
19 -0.14
2 -0.68
21 -0.15
22 -0.15
23 -0.01
24 -0.15
25 -0.15
3 -0.65
4 -0.65
57 0.15
58 0.15
59 0.15
60 0.15
61 0.5

>  <PUBCHEM_EFFECTIVE_ROTOR_COUNT>  (1) 
15

>  <PUBCHEM_PHARMACOPHORE_FEATURES>  (1) 
6
1 2 acceptor
1 20 hydrophobe
1 3 acceptor
1 4 acceptor
4 1 2 3 4 anion
6 19 21 22 23 24 25 rings

>  <PUBCHEM_HEAVY_ATOM_COUNT>  (1) 
25

>  <PUBCHEM_ATOM_DEF_STEREO_COUNT>  (1) 
0

>  <PUBCHEM_ATOM_UDEF_STEREO_COUNT>  (1) 
0

>  <PUBCHEM_BOND_DEF_STEREO_COUNT>  (1) 
0

>  <PUBCHEM_BOND_UDEF_STEREO_COUNT>  (1) 
0

>  <PUBCHEM_ISOTOPIC_ATOM_COUNT>  (1) 
0

>  <PUBCHEM_COMPONENT_COUNT>  (1) 
1

>  <PUBCHEM_CACTVS_TAUTO_COUNT>  (1) 
1

>  <PUBCHEM_CONFORMER_ID>  (1) 
0000AA3F00000001

>  <PUBCHEM_MMFF94_ENERGY>  (1) 
17.2626

>  <PUBCHEM_FEATURE_SELFOVERLAP>  (1) 
30.503

>  <PUBCHEM_SHAPE_FINGERPRINT>  (1) 
100830 39 18412262822248541768
10670039 82 18410006641947756755
11135609 99 18411982481739478532
11756154 67 18408603660600242388
12104220 1 17989209204917649641
12498461 61 18335696110673836122
12643181 29 18411136939410395759
12838863 1 18200306758487313751
13974486 27 17406561303354358822
14202775 3 18270402665295098158
14279260 333 18040156214377933746
14344974 204 18201157766874719614
15510794 2 18131073694078220286
15728490 51 18408884015217287604
16989713 51 18187357714824505236
17324776 126 17625525062411807871
19611394 137 18131069351144136880
20609170 92 18043522825331348693
20721686 56 18409172087021879923
21026386 80 13551467026765584442
21095123 145 17918272061316850284
21133665 82 18336544928991098967
21362267 20 18411697661474523450
21795232 338 18060127783151587492
232437 2 18336548228095707344
23378982 89 15578344019516089836
23559900 14 18126842919037125713
395649 100 18040721394247290058
397830 11 18201145655420235992
54039377 194 17894917351588622769
559249 180 18409167740968104741
57676310 115 18264757768303285517
57676310 188 18114743729607023474
57828716 94 15937512772826040690
59520647 208 17986959540562683430
59521270 166 18187360975184925517
6138700 20 18410574029430361711
67123 10 18335703820235200900
68570916 9 18335708273620850340
9953998 17 18273215279007295529

>  <PUBCHEM_SHAPE_MULTIPOLES>  (1) 
500.73
34.72
3.79
0.89
124.43
1.95
-0.05
17.43
-2.45
-9.55
0.21
-0.37
0.1
-0.54

>  <PUBCHEM_SHAPE_SELFOVERLAP>  (1) 
958.312

>  <PUBCHEM_SHAPE_VOLUME>  (1) 
306.4

>  <PUBCHEM_COORDINATE_TYPE>  (1) 
2
5
10

$$$$
