43604
     RDKit          3D

 17 18  0  0  0  0  0  0  0  0999 V2000
   -1.4703    3.1276   -0.4002 Cl  0  0  0  0  0  0  0  0  0  0  0  0
   -2.6480   -2.9190    0.6133 Cl  0  0  0  0  0  0  0  0  0  0  0  0
   -4.7831   -1.0498   -0.9445 Cl  0  0  0  0  0  0  0  0  0  0  0  0
    5.2638   -1.2138   -1.0661 Cl  0  0  0  0  0  0  0  0  0  0  0  0
    0.3078    1.1553    1.0080 O   0  0  0  0  0  0  0  0  0  0  0  0
   -0.8929    0.6430    0.5458 C   0  0  0  0  0  0  0  0  0  0  0  0
    1.4566    0.6063    0.5272 C   0  0  0  0  0  0  0  0  0  0  0  0
   -1.7942    1.4566   -0.1183 C   0  0  0  0  0  0  0  0  0  0  0  0
   -1.1561   -0.6978    0.7695 C   0  0  0  0  0  0  0  0  0  0  0  0
   -2.3576   -1.2410    0.3146 C   0  0  0  0  0  0  0  0  0  0  0  0
   -2.9958    0.9134   -0.5732 C   0  0  0  0  0  0  0  0  0  0  0  0
    1.5911    0.3544   -0.8380 C   0  0  0  0  0  0  0  0  0  0  0  0
    2.4995    0.2954    1.3999 C   0  0  0  0  0  0  0  0  0  0  0  0
   -3.2776   -0.4355   -0.3566 C   0  0  0  0  0  0  0  0  0  0  0  0
    2.7684   -0.2085   -1.3307 C   0  0  0  0  0  0  0  0  0  0  0  0
    3.6769   -0.2674    0.9073 C   0  0  0  0  0  0  0  0  0  0  0  0
    3.8114   -0.5193   -0.4581 C   0  0  0  0  0  0  0  0  0  0  0  0
  1  8  1  0
  2 10  1  0
  3 14  1  0
  4 17  1  0
  5  6  1  0
  5  7  1  0
  6  8  2  0
  6  9  1  0
  7 12  2  0
  7 13  1  0
  8 11  1  0
  9 10  2  0
 10 14  1  0
 11 14  2  0
 12 15  1  0
 13 16  2  0
 15 17  2  0
 16 17  1  0
M  END
>  <PUBCHEM_COMPOUND_CID>  (1) 
43604

>  <PUBCHEM_CONFORMER_RMSD>  (1) 
0.6

>  <PUBCHEM_CONFORMER_DIVERSEORDER>  (1) 
2
7
6
1
3
4
5

>  <PUBCHEM_MMFF94_PARTIAL_CHARGES>  (1) 
23
1 -0.18
10 0.18
11 -0.15
12 -0.15
13 -0.15
14 0.18
15 -0.15
16 -0.15
17 0.18
18 0.15
19 0.15
2 -0.18
20 0.15
21 0.15
22 0.15
23 0.15
3 -0.18
4 -0.18
5 -0.17
6 0.08
7 0.08
8 0.18
9 -0.15

>  <PUBCHEM_EFFECTIVE_ROTOR_COUNT>  (1) 
2

>  <PUBCHEM_PHARMACOPHORE_FEATURES>  (1) 
3
1 5 acceptor
6 6 8 9 10 11 14 rings
6 7 12 13 15 16 17 rings

>  <PUBCHEM_HEAVY_ATOM_COUNT>  (1) 
17

>  <PUBCHEM_ATOM_DEF_STEREO_COUNT>  (1) 
0

>  <PUBCHEM_ATOM_UDEF_STEREO_COUNT>  (1) 
0

>  <PUBCHEM_BOND_DEF_STEREO_COUNT>  (1) 
0

>  <PUBCHEM_BOND_UDEF_STEREO_COUNT>  (1) 
0

>  <PUBCHEM_ISOTOPIC_ATOM_COUNT>  (1) 
0

>  <PUBCHEM_COMPONENT_COUNT>  (1) 
1

>  <PUBCHEM_CACTVS_TAUTO_COUNT>  (1) 
1

>  <PUBCHEM_CONFORMER_ID>  (1) 
0000AA5400000002

>  <PUBCHEM_MMFF94_ENERGY>  (1) 
49.8953

>  <PUBCHEM_FEATURE_SELFOVERLAP>  (1) 
15.223

>  <PUBCHEM_SHAPE_FINGERPRINT>  (1) 
11127187 94 18260545662702783631
11543360 7 18262816120212930292
11578080 2 16881279814924736892
11582403 64 16113655613232184896
12236239 1 17240478091823386936
12363563 72 18202288034356314007
12500047 106 18193275196263219964
12553582 1 18334015016569486267
13296908 3 17846777390950453360
13544592 145 18343298193511720091
14115302 16 18113614625147603535
14251764 30 17534365593277842883
14386348 63 18059857285330810214
14863182 85 15881813051430101855
15375462 189 13902183794293234686
16752209 62 18187914059133529265
16945 1 18335137575023524817
17870717 6 18340219487786795662
19141452 34 17774718770906121335
19862831 5 17313104176333012966
200 152 16558745698150952815
20374829 77 18342733031618629391
20645476 183 17095239241914574683
20645477 70 17561361781893410542
20871999 31 18335143072418081300
231179 274 12685098094578464630
23402539 116 18409442558028153701
23402655 69 15864066559636226142
23403322 49 18130510738722191966
23557571 272 18339631321896107360
23559900 14 18411976962674542568
23598291 2 17315344839507548810
26918003 58 16271925999913260975
2748010 2 18120643897684207345
2871803 45 18412542111271560534
3082319 5 17385444327837685258
3286 77 17131832096587251193
4921388 177 18261969482525580914
59755656 520 17842280259913836473
77492 1 17240759545436245456
81228 2 18412267220632780377
9709674 26 18343014531900796602

>  <PUBCHEM_SHAPE_MULTIPOLES>  (1) 
351.46
8.96
2.39
1.25
5.39
0.48
0
-4.71
-3.1
-2.71
0.04
0.8
-0.11
0.74

>  <PUBCHEM_SHAPE_SELFOVERLAP>  (1) 
722.54

>  <PUBCHEM_SHAPE_VOLUME>  (1) 
206.5

>  <PUBCHEM_COORDINATE_TYPE>  (1) 
2
5
10

$$$$
