43603
     RDKit          3D

 16 17  0  0  0  0  0  0  0  0999 V2000
    2.5531    0.7504    2.4334 Cl  0  0  0  0  0  0  0  0  0  0  0  0
   -2.6077   -2.4393    0.9766 Cl  0  0  0  0  0  0  0  0  0  0  0  0
   -4.8897   -0.5787   -0.3663 Cl  0  0  0  0  0  0  0  0  0  0  0  0
    0.6170    1.3925    0.2244 O   0  0  0  0  0  0  0  0  0  0  0  0
   -0.6537    0.9224    0.0940 C   0  0  0  0  0  0  0  0  0  0  0  0
    1.6554    0.5467   -0.1271 C   0  0  0  0  0  0  0  0  0  0  0  0
   -0.9723   -0.3605    0.5395 C   0  0  0  0  0  0  0  0  0  0  0  0
   -1.6375    1.7240   -0.4851 C   0  0  0  0  0  0  0  0  0  0  0  0
    2.6099    0.1813    0.8060 C   0  0  0  0  0  0  0  0  0  0  0  0
    1.7041    0.0852   -1.4317 C   0  0  0  0  0  0  0  0  0  0  0  0
   -2.2748   -0.8417    0.4059 C   0  0  0  0  0  0  0  0  0  0  0  0
   -2.9397    1.2429   -0.6187 C   0  0  0  0  0  0  0  0  0  0  0  0
   -3.2586   -0.0398   -0.1732 C   0  0  0  0  0  0  0  0  0  0  0  0
    3.6452   -0.6717    0.4233 C   0  0  0  0  0  0  0  0  0  0  0  0
    2.7395   -0.7677   -1.8142 C   0  0  0  0  0  0  0  0  0  0  0  0
    3.7100   -1.1461   -0.8869 C   0  0  0  0  0  0  0  0  0  0  0  0
  1  9  1  0
  2 11  1  0
  3 13  1  0
  4  5  1  0
  4  6  1  0
  5  7  2  0
  5  8  1  0
  6  9  2  0
  6 10  1  0
  7 11  1  0
  8 12  2  0
  9 14  1  0
 10 15  2  0
 11 13  2  0
 12 13  1  0
 14 16  2  0
 15 16  1  0
M  END
>  <PUBCHEM_COMPOUND_CID>  (1) 
43603

>  <PUBCHEM_CONFORMER_RMSD>  (1) 
0.6

>  <PUBCHEM_CONFORMER_DIVERSEORDER>  (1) 
1
7
10
5
2
9
8
6
3
4
12
14
13
11

>  <PUBCHEM_MMFF94_PARTIAL_CHARGES>  (1) 
23
1 -0.18
10 -0.15
11 0.18
12 -0.15
13 0.18
14 -0.15
15 -0.15
16 -0.15
17 0.15
18 0.15
19 0.15
2 -0.18
20 0.15
21 0.15
22 0.15
23 0.15
3 -0.18
4 -0.17
5 0.08
6 0.08
7 -0.15
8 -0.15
9 0.18

>  <PUBCHEM_EFFECTIVE_ROTOR_COUNT>  (1) 
2

>  <PUBCHEM_PHARMACOPHORE_FEATURES>  (1) 
3
1 4 acceptor
6 5 7 8 11 12 13 rings
6 6 9 10 14 15 16 rings

>  <PUBCHEM_HEAVY_ATOM_COUNT>  (1) 
16

>  <PUBCHEM_ATOM_DEF_STEREO_COUNT>  (1) 
0

>  <PUBCHEM_ATOM_UDEF_STEREO_COUNT>  (1) 
0

>  <PUBCHEM_BOND_DEF_STEREO_COUNT>  (1) 
0

>  <PUBCHEM_BOND_UDEF_STEREO_COUNT>  (1) 
0

>  <PUBCHEM_ISOTOPIC_ATOM_COUNT>  (1) 
0

>  <PUBCHEM_COMPONENT_COUNT>  (1) 
1

>  <PUBCHEM_CACTVS_TAUTO_COUNT>  (1) 
1

>  <PUBCHEM_CONFORMER_ID>  (1) 
0000AA5300000001

>  <PUBCHEM_MMFF94_ENERGY>  (1) 
49.1511

>  <PUBCHEM_FEATURE_SELFOVERLAP>  (1) 
15.223

>  <PUBCHEM_SHAPE_FINGERPRINT>  (1) 
10366900 7 17989209256693912210
10751810 167 17603874390053753179
11031198 65 13695878008352794168
11471102 22 17275100609549997896
11582403 64 16470287715928570240
11615757 297 15841546388319781168
12202030 40 18201729486696989275
12236239 1 16950278490414854704
12251169 10 15913324689161055500
13296908 3 18272369767328598508
13538477 17 17530965808322963139
13693222 15 16559033770266040850
14115302 16 17894351098652461007
14289901 80 16630521864794485667
14386348 63 18272374173991547934
14787075 74 13536210395526534256
15375358 24 18343576347977563944
16752209 62 18113611253830332833
16945 1 18260267434642156057
18186145 218 18270394988990644897
19049666 15 17915459398196701176
19141452 34 18060138778225972695
19862831 5 17022908959933252095
200 152 16558743482201139757
20279233 1 18343303673404829454
204376 136 16843861274511335392
20645476 183 16515408482139971299
20645477 70 17632576041537751990
20871999 31 18261125053374133604
232386 152 18040703792838009304
23402539 116 18336537249378752829
23402655 69 15285360604515024718
23557571 272 18410851066477448992
23559900 14 18408321111981317252
23598291 2 16372122200950320104
26918003 58 16773793680186188935
2748010 2 17973163113195282337
3060560 45 14996006527996794498
3082319 5 16877667871966312998
31174 14 17346875659016724128
3286 77 17561084687345407276
474 4 15553585457004623306
7364860 26 18266463289918115204
74978 22 18040441009395602709
77492 1 16950280676527009968
8030462 33 16950005828658573640
81228 2 18270972232458395993
9709674 26 18412824715687208271

>  <PUBCHEM_SHAPE_MULTIPOLES>  (1) 
329.01
7.9
1.73
1.6
2.92
0.46
0.42
2.45
-0.81
1.29
0.2
-1.97
0.02
1.21

>  <PUBCHEM_SHAPE_SELFOVERLAP>  (1) 
683.598

>  <PUBCHEM_SHAPE_VOLUME>  (1) 
190.3

>  <PUBCHEM_COORDINATE_TYPE>  (1) 
2
5
10

$$$$
