43619
     RDKit          3D

 27 29  0  0  0  0  0  0  0  0999 V2000
   -1.1442   -1.3775    0.6801 O   0  0  0  0  0  0  0  0  0  0  0  0
   -4.4257    1.6791   -0.5185 O   0  0  0  0  0  0  0  0  0  0  0  0
    2.5442    0.8175   -0.0770 O   0  0  0  0  0  0  0  0  0  0  0  0
    2.9722    2.9355   -0.8705 O   0  0  0  0  0  0  0  0  0  0  0  0
   -2.4422    0.5275    0.1033 N   0  0  0  0  0  0  0  0  0  0  0  0
    5.4459   -1.4563   -0.1975 N   0  0  0  0  0  0  0  0  0  0  0  0
   -5.1565   -3.3163    0.4010 C   0  0  0  0  0  0  0  0  0  0  0  0
   -5.9820   -2.5049   -0.6079 C   0  0  0  0  0  0  0  0  0  0  0  0
   -3.6563   -2.9877    0.3225 C   0  0  0  0  0  0  0  0  0  0  0  0
   -5.8047   -0.9892   -0.4185 C   0  0  0  0  0  0  0  0  0  0  0  0
   -3.4362   -1.5281    0.1598 C   0  0  0  0  0  0  0  0  0  0  0  0
   -4.3854   -0.6463   -0.1476 C   0  0  0  0  0  0  0  0  0  0  0  0
   -2.1693   -0.8087    0.3425 C   0  0  0  0  0  0  0  0  0  0  0  0
   -3.7818    0.6910   -0.2065 C   0  0  0  0  0  0  0  0  0  0  0  0
   -1.4794    1.5863    0.1675 C   0  0  0  0  0  0  0  0  0  0  0  0
   -0.1384    1.3360   -0.1343 C   0  0  0  0  0  0  0  0  0  0  0  0
   -1.8774    2.8752    0.5315 C   0  0  0  0  0  0  0  0  0  0  0  0
    4.0840   -1.0176    0.0686 C   0  0  0  0  0  0  0  0  0  0  0  0
    0.7984    2.3676   -0.0724 C   0  0  0  0  0  0  0  0  0  0  0  0
    5.6142   -2.8678    0.1567 C   0  0  0  0  0  0  0  0  0  0  0  0
    6.4088   -0.6327    0.5377 C   0  0  0  0  0  0  0  0  0  0  0  0
    3.8985    0.4351   -0.3398 C   0  0  0  0  0  0  0  0  0  0  0  0
   -0.9405    3.9068    0.5935 C   0  0  0  0  0  0  0  0  0  0  0  0
    0.3974    3.6531    0.2915 C   0  0  0  0  0  0  0  0  0  0  0  0
    2.1937    2.1035   -0.3858 C   0  0  0  0  0  0  0  0  0  0  0  0
    4.6254   -3.7439   -0.5938 C   0  0  0  0  0  0  0  0  0  0  0  0
    7.8371   -1.0371    0.2140 C   0  0  0  0  0  0  0  0  0  0  0  0
  1 13  2  0
  2 14  2  0
  3 22  1  0
  3 25  1  0
  4 25  2  0
  5 13  1  0
  5 14  1  0
  5 15  1  0
  6 18  1  0
  6 20  1  0
  6 21  1  0
  7  8  1  0
  7  9  1  0
  8 10  1  0
  9 11  1  0
 10 12  1  0
 11 12  2  0
 11 13  1  0
 12 14  1  0
 15 16  2  0
 15 17  1  0
 16 19  1  0
 17 23  2  0
 18 22  1  0
 19 24  2  0
 19 25  1  0
 20 26  1  0
 21 27  1  0
 23 24  1  0
M  END
>  <PUBCHEM_COMPOUND_CID>  (1) 
43619

>  <PUBCHEM_CONFORMER_RMSD>  (1) 
1

>  <PUBCHEM_CONFORMER_DIVERSEORDER>  (1) 
1
43
46
27
21
82
30
70
64
4
67
60
33
14
73
59
36
77
13
45
39
10
38
74
53
63
6
17
81
41
71
22
3
16
62
48
69
32
84
9
78
8
68
66
52
23
2
83
15
40
29
28
54
26
51
58
7
80
11
79
72
55
37
47
65
20
57
18
25
50
76
61
75
31
5
42
19
35
44
56
12
24
34
49

>  <PUBCHEM_MMFF94_PARTIAL_CHARGES>  (1) 
27
1 -0.57
10 0.14
11 -0.12
12 -0.12
13 0.62
14 0.62
15 0.12
16 -0.15
17 -0.15
18 0.27
19 0.09
2 -0.57
20 0.27
21 0.27
22 0.28
23 -0.15
24 -0.15
25 0.63
3 -0.43
36 0.15
37 0.15
4 -0.57
46 0.15
47 0.15
5 -0.24
6 -0.81
9 0.14

>  <PUBCHEM_EFFECTIVE_ROTOR_COUNT>  (1) 
9

>  <PUBCHEM_PHARMACOPHORE_FEATURES>  (1) 
7
1 1 acceptor
1 2 acceptor
1 4 acceptor
1 6 cation
5 5 11 12 13 14 rings
6 15 16 17 19 23 24 rings
6 7 8 9 10 11 12 rings

>  <PUBCHEM_HEAVY_ATOM_COUNT>  (1) 
27

>  <PUBCHEM_ATOM_DEF_STEREO_COUNT>  (1) 
0

>  <PUBCHEM_ATOM_UDEF_STEREO_COUNT>  (1) 
0

>  <PUBCHEM_BOND_DEF_STEREO_COUNT>  (1) 
0

>  <PUBCHEM_BOND_UDEF_STEREO_COUNT>  (1) 
0

>  <PUBCHEM_ISOTOPIC_ATOM_COUNT>  (1) 
0

>  <PUBCHEM_COMPONENT_COUNT>  (1) 
1

>  <PUBCHEM_CACTVS_TAUTO_COUNT>  (1) 
1

>  <PUBCHEM_CONFORMER_ID>  (1) 
0000AA6300000001

>  <PUBCHEM_MMFF94_ENERGY>  (1) 
55.8512

>  <PUBCHEM_FEATURE_SELFOVERLAP>  (1) 
35.595

>  <PUBCHEM_SHAPE_FINGERPRINT>  (1) 
10411042 1 18411418453337445137
10693767 8 17982997137011203247
10939801 23 18341609370022796014
11197282 1 18410576201508284246
117089 54 18337680818275538739
11719270 70 18049719926105689464
12107183 9 18341908359517671609
12166972 35 17968098654783568246
12760667 363 18411700989207754213
13540713 5 18338255820144744652
13631057 29 18410575055574254136
13911852 28 18412544349033671079
13955234 65 17695631045327977569
14068700 675 18335136497350834128
14347332 77 18409167701237128972
14429380 30 18408888455839341162
1454969 45 18408327705657950020
14866123 147 18269280071705614161
15142526 21 11023836071502933741
15250474 111 18335992961264064652
15320467 1 18410856598622621230
15351339 4 18040986315624009490
15352361 1 18410575072242426662
15728490 83 18263937552637068731
16992752 21 18340217340952117636
17492 89 18265614462666960561
17909252 39 18412266177050270368
19319366 153 17762906863080469028
20567600 70 18409446995040301146
21033648 29 14620253931094343657
21033650 10 16733252478978704589
21223535 225 15068616046543091878
21279426 13 18261946449517792903
21703447 108 18341325686969198136
23559900 14 18411409605673621744
23569914 152 18125406823780871127
23569943 247 18339642369438748795
23622692 118 18409731759825408140
255183 313 17981625774890727145
3004659 81 18113613517220211872
325973 47 18337397140070269458
335352 9 18410008806922906549
3421961 26 18269555120630599464
345986 75 17702682093068755457
463206 1 18265616657137383618
50080093 196 17029085797643067850
5104073 3 18130796701976962537
56633871 153 18340782442071782809
6201320 77 17098091388352279835
6431902 208 18412258424571361046
7970288 3 18411980286309530926
88748 71 18336833095015218659

>  <PUBCHEM_SHAPE_MULTIPOLES>  (1) 
522.21
16.83
5.29
0.75
18.61
1.14
-0.01
-19.28
-0.59
-0.39
0.21
-0.02
0.02
-0.13

>  <PUBCHEM_SHAPE_SELFOVERLAP>  (1) 
1107.068

>  <PUBCHEM_SHAPE_VOLUME>  (1) 
292

>  <PUBCHEM_COORDINATE_TYPE>  (1) 
2
5
10

$$$$
