43612
     RDKit          3D

 19 21  0  0  1  0  0  0  0  0999 V2000
   -1.4378    1.6862    1.5646 O   0  0  0  0  0  0  0  0  0  0  0  0
   -0.8265   -2.5369   -0.2167 O   0  0  0  0  0  0  0  0  0  0  0  0
    5.5407   -0.0395   -0.5161 O   0  0  0  0  0  0  0  0  0  0  0  0
   -0.7633   -0.4090    0.7663 N   0  0  0  0  0  0  0  0  0  0  0  0
    2.8006    0.4563    0.0736 N   0  0  0  0  0  0  0  0  0  0  0  0
   -3.0451   -0.0316    0.9206 C   0  0  0  0  0  0  0  0  0  0  0  0
   -2.7925   -1.1183   -0.1300 C   0  0  0  0  0  0  0  0  0  0  0  0
   -4.1578    0.9635    0.6088 C   0  0  0  0  0  0  0  0  0  0  0  0
   -2.9042   -0.6498   -1.5902 C   0  0  0  0  0  0  0  0  0  0  0  0
   -1.6705    0.5736    1.1169 C   0  0  0  0  0  0  0  0  0  0  0  0
   -1.3505   -1.4921    0.1416 C   0  0  0  0  0  0  0  0  0  0  0  0
    0.6615   -0.2890    1.0039 C   0  0  0  0  0  0  0  0  0  0  0  0
    1.3713    0.3179   -0.1975 C   0  0  0  0  0  0  0  0  0  0  0  0
   -4.3794    1.2253   -0.8451 C   0  0  0  0  0  0  0  0  0  0  0  0
   -3.8207    0.5063   -1.8236 C   0  0  0  0  0  0  0  0  0  0  0  0
    3.4145   -0.8559    0.3194 C   0  0  0  0  0  0  0  0  0  0  0  0
    3.4805    1.1291   -1.0421 C   0  0  0  0  0  0  0  0  0  0  0  0
    4.9072   -0.6869    0.5879 C   0  0  0  0  0  0  0  0  0  0  0  0
    4.9719    1.2507   -0.7424 C   0  0  0  0  0  0  0  0  0  0  0  0
  1 10  2  0
  2 11  2  0
  3 18  1  0
  3 19  1  0
  4 10  1  0
  4 11  1  0
  4 12  1  0
  5 13  1  0
  5 16  1  0
  5 17  1  0
  6  7  1  0
  6  8  1  0
  6 10  1  0
  7  9  1  0
  7 11  1  0
  8 14  1  0
  9 15  1  0
 12 13  1  0
 14 15  2  0
 16 18  1  0
 17 19  1  0
M  END
>  <PUBCHEM_COMPOUND_CID>  (1) 
43612

>  <PUBCHEM_CONFORMER_RMSD>  (1) 
0.6

>  <PUBCHEM_CONFORMER_DIVERSEORDER>  (1) 
1
78
22
91
14
46
76
61
10
56
87
42
9
83
45
13
4
64
71
8
79
85
24
47
32
51
39
77
72
88
80
7
37
53
43
31
75
69
74
3
35
89
70
90
30
63
60
82
15
84
66
16
93
48
52
59
68
33
17
25
73
81
41
23
38
11
67
26
21
92
50
58
94
12
6
55
57
54
62
86
2
18
5
49
29
28
19
40
27
65
20
34
36
44

>  <PUBCHEM_MMFF94_PARTIAL_CHARGES>  (1) 
21
1 -0.57
10 0.57
11 0.57
12 0.3
13 0.27
14 -0.29
15 -0.29
16 0.27
17 0.27
18 0.28
19 0.28
2 -0.57
3 -0.56
30 0.15
31 0.15
4 -0.42
5 -0.81
6 0.06
7 0.06
8 0.14
9 0.14

>  <PUBCHEM_EFFECTIVE_ROTOR_COUNT>  (1) 
4.8

>  <PUBCHEM_PHARMACOPHORE_FEATURES>  (1) 
7
1 1 acceptor
1 2 acceptor
1 3 acceptor
1 5 cation
5 4 6 7 10 11 rings
6 3 5 16 17 18 19 rings
6 6 7 8 9 14 15 rings

>  <PUBCHEM_HEAVY_ATOM_COUNT>  (1) 
19

>  <PUBCHEM_ATOM_DEF_STEREO_COUNT>  (1) 
0

>  <PUBCHEM_ATOM_UDEF_STEREO_COUNT>  (1) 
2

>  <PUBCHEM_BOND_DEF_STEREO_COUNT>  (1) 
0

>  <PUBCHEM_BOND_UDEF_STEREO_COUNT>  (1) 
0

>  <PUBCHEM_ISOTOPIC_ATOM_COUNT>  (1) 
0

>  <PUBCHEM_COMPONENT_COUNT>  (1) 
1

>  <PUBCHEM_CACTVS_TAUTO_COUNT>  (1) 
3

>  <PUBCHEM_CONFORMER_ID>  (1) 
0000AA5C00000001

>  <PUBCHEM_MMFF94_ENERGY>  (1) 
25.5486

>  <PUBCHEM_FEATURE_SELFOVERLAP>  (1) 
35.702

>  <PUBCHEM_SHAPE_FINGERPRINT>  (1) 
10014705 185 18187365471418941708
10366900 7 17203611493283599810
11089746 13 18343297085737504128
11315181 36 17275107241301126664
12236239 1 18335141985696267258
12596602 18 11169920484903863508
128620 24 13542463168140856464
13288520 33 14979955878507674013
13544653 18 12319452216541875075
13583140 156 17603594035984379603
13675066 3 17095529508609835272
14420673 8 8356058032725196296
15209294 21 14490466453059183893
17349148 13 18131351895366567934
17870717 6 16774086175827448181
1813 80 10591763233392788138
18186145 218 18343013432558149473
19489759 90 17561363959462805122
19862831 5 18410851066540167984
200 152 17917989481773479636
20279233 1 15985111807939381774
20645476 183 18333724741279093651
20645477 56 16660362580117637955
20645477 70 18040436551895010330
20871999 31 18272645796824854615
21033648 29 17240479243091413436
21079973 296 15554443011565395436
23379529 103 16340012317398385095
23402539 116 18060137622035621008
23402655 69 18186522133590166108
23559900 14 18060415855045214176
27216 239 16805323301705288213
2838139 119 17386832946952797445
300161 21 18411417337173312936
3268164 11 17561365054242076936
4028521 119 18186801387446578172
4175511 318 18333452058073511879
4921388 177 16272208617599199151
5283173 99 15338843006290109497
542803 24 15719396140074486908
90127 26 16732989730190831060

>  <PUBCHEM_SHAPE_MULTIPOLES>  (1) 
363.44
11.14
1.63
1.41
11.9
0.36
0.03
-3.49
2.31
-0.14
0.28
-1.45
-0.3
-0.54

>  <PUBCHEM_SHAPE_SELFOVERLAP>  (1) 
762.922

>  <PUBCHEM_SHAPE_VOLUME>  (1) 
204.2

>  <PUBCHEM_COORDINATE_TYPE>  (1) 
2
5
10

$$$$
