4362
     RDKit          3D

  9  9  0  0  0  0  0  0  0  0999 V2000
   -0.1002   -2.3016    0.1333 O   0  0  0  0  0  0  0  0  0  0  0  0
   -0.1134    2.3021    0.1330 O   0  0  0  0  0  0  0  0  0  0  0  0
    0.3265    0.0008    0.2342 N   0  0  0  0  0  0  0  0  0  0  0  0
    1.7408    0.0036    0.5525 C   0  0  0  0  0  0  0  0  0  0  0  0
   -0.4274   -1.1291    0.0639 C   0  0  0  0  0  0  0  0  0  0  0  0
   -0.4317    1.1271    0.0642 C   0  0  0  0  0  0  0  0  0  0  0  0
    2.5915    0.0054   -0.7008 C   0  0  0  0  0  0  0  0  0  0  0  0
   -1.7919   -0.6710   -0.2402 C   0  0  0  0  0  0  0  0  0  0  0  0
   -1.7943    0.6626   -0.2402 C   0  0  0  0  0  0  0  0  0  0  0  0
  1  5  2  0
  2  6  2  0
  3  4  1  0
  3  5  1  0
  3  6  1  0
  4  7  1  0
  5  8  1  0
  6  9  1  0
  8  9  2  0
M  END
>  <PUBCHEM_COMPOUND_CID>  (1) 
4362

>  <PUBCHEM_CONFORMER_RMSD>  (1) 
0.4

>  <PUBCHEM_CONFORMER_DIVERSEORDER>  (1) 
1

>  <PUBCHEM_MMFF94_PARTIAL_CHARGES>  (1) 
10
1 -0.57
15 0.15
16 0.15
2 -0.57
3 -0.42
4 0.3
5 0.62
6 0.62
8 -0.14
9 -0.14

>  <PUBCHEM_EFFECTIVE_ROTOR_COUNT>  (1) 
1.2

>  <PUBCHEM_PHARMACOPHORE_FEATURES>  (1) 
3
1 1 acceptor
1 2 acceptor
5 3 5 6 8 9 rings

>  <PUBCHEM_HEAVY_ATOM_COUNT>  (1) 
9

>  <PUBCHEM_ATOM_DEF_STEREO_COUNT>  (1) 
0

>  <PUBCHEM_ATOM_UDEF_STEREO_COUNT>  (1) 
0

>  <PUBCHEM_BOND_DEF_STEREO_COUNT>  (1) 
0

>  <PUBCHEM_BOND_UDEF_STEREO_COUNT>  (1) 
0

>  <PUBCHEM_ISOTOPIC_ATOM_COUNT>  (1) 
0

>  <PUBCHEM_COMPONENT_COUNT>  (1) 
1

>  <PUBCHEM_CACTVS_TAUTO_COUNT>  (1) 
1

>  <PUBCHEM_CONFORMER_ID>  (1) 
0000110A00000001

>  <PUBCHEM_MMFF94_ENERGY>  (1) 
3.6067

>  <PUBCHEM_FEATURE_SELFOVERLAP>  (1) 
15.223

>  <PUBCHEM_SHAPE_FINGERPRINT>  (1) 
12423570 1 11991576118188292677
161256 15 17471020644867105099
16714656 1 18410578387587875116
18185500 45 18261385710807838578
21040471 1 18338507530601279386
23552423 10 18046627806690639574
2748010 2 18266166417514790109
29004967 10 15985099717374380434
5084963 1 18129379302591630314

>  <PUBCHEM_SHAPE_MULTIPOLES>  (1) 
168.5
2.62
1.93
0.71
1.36
0
-0.03
0
-0.53
-0.43
0.13
0.19
0
0

>  <PUBCHEM_SHAPE_SELFOVERLAP>  (1) 
347.182

>  <PUBCHEM_SHAPE_VOLUME>  (1) 
98.2

>  <PUBCHEM_COORDINATE_TYPE>  (1) 
2
5
10

$$$$
