43631
     RDKit          3D

 28 31  0  0  1  0  0  0  0  0999 V2000
    2.6156    1.1170    0.0548 O   0  0  0  0  0  0  0  0  0  0  0  0
    4.1192   -1.0869    0.3960 O   0  0  0  0  0  0  0  0  0  0  0  0
    2.3133    1.1274    2.3761 O   0  0  0  0  0  0  0  0  0  0  0  0
    4.3928   -1.3479   -1.9142 O   0  0  0  0  0  0  0  0  0  0  0  0
   -3.7226   -0.6220    0.1818 N   0  0  0  0  0  0  0  0  0  0  0  0
   -2.2570   -0.4762    0.3811 C   0  0  0  0  0  0  0  0  0  0  0  0
   -1.7019    0.8289   -0.1992 C   0  0  0  0  0  0  0  0  0  0  0  0
   -1.4811   -1.6633   -0.2335 C   0  0  0  0  0  0  0  0  0  0  0  0
   -4.4133    0.5931    0.6425 C   0  0  0  0  0  0  0  0  0  0  0  0
   -2.5645    1.9147   -0.4471 C   0  0  0  0  0  0  0  0  0  0  0  0
   -4.0484    1.7755   -0.2502 C   0  0  0  0  0  0  0  0  0  0  0  0
   -0.3070    0.9540   -0.4229 C   0  0  0  0  0  0  0  0  0  0  0  0
    0.0124   -1.4923   -0.0667 C   0  0  0  0  0  0  0  0  0  0  0  0
   -4.2678   -1.7812    0.8958 C   0  0  0  0  0  0  0  0  0  0  0  0
    0.5796   -0.2030   -0.1611 C   0  0  0  0  0  0  0  0  0  0  0  0
   -2.0489    3.1149   -0.9453 C   0  0  0  0  0  0  0  0  0  0  0  0
    0.1747    2.1776   -0.9221 C   0  0  0  0  0  0  0  0  0  0  0  0
   -5.7576   -1.9735    0.6385 C   0  0  0  0  0  0  0  0  0  0  0  0
    1.9716   -0.0875    0.0035 C   0  0  0  0  0  0  0  0  0  0  0  0
    0.8235   -2.6190    0.1389 C   0  0  0  0  0  0  0  0  0  0  0  0
   -0.6855    3.2459   -1.1783 C   0  0  0  0  0  0  0  0  0  0  0  0
    2.7722   -1.2118    0.2253 C   0  0  0  0  0  0  0  0  0  0  0  0
    2.1996   -2.4769    0.2870 C   0  0  0  0  0  0  0  0  0  0  0  0
   -6.0746   -2.2142   -0.8306 C   0  0  0  0  0  0  0  0  0  0  0  0
    2.7305    1.6452    1.3486 C   0  0  0  0  0  0  0  0  0  0  0  0
    4.8567   -1.1742   -0.7950 C   0  0  0  0  0  0  0  0  0  0  0  0
    3.4481    2.9614    1.2987 C   0  0  0  0  0  0  0  0  0  0  0  0
    6.3202   -1.0254   -0.5025 C   0  0  0  0  0  0  0  0  0  0  0  0
  1 19  1  0
  1 25  1  0
  2 22  1  0
  2 26  1  0
  3 25  2  0
  4 26  2  0
  5  6  1  0
  5  9  1  0
  5 14  1  0
  6  7  1  0
  6  8  1  0
  7 10  2  0
  7 12  1  0
  8 13  1  0
  9 11  1  0
 10 11  1  0
 10 16  1  0
 12 15  1  0
 12 17  2  0
 13 15  2  0
 13 20  1  0
 14 18  1  0
 15 19  1  0
 16 21  2  0
 17 21  1  0
 18 24  1  0
 19 22  2  0
 20 23  2  0
 22 23  1  0
 25 27  1  0
 26 28  1  0
M  END
>  <PUBCHEM_COMPOUND_CID>  (1) 
43631

>  <PUBCHEM_CONFORMER_RMSD>  (1) 
0.8

>  <PUBCHEM_CONFORMER_DIVERSEORDER>  (1) 
1
30
9
12
25
31
27
38
15
39
18
47
43
28
24
48
16
33
13
20
32
46
29
5
14
36
37
49
4
40
45
6
22
23
26
35
11
3
7
41
17
34
19
21
42
2
44
8
10

>  <PUBCHEM_MMFF94_PARTIAL_CHARGES>  (1) 
29
1 -0.23
10 -0.14
11 0.14
13 -0.14
14 0.27
16 -0.15
17 -0.15
19 0.08
2 -0.23
20 -0.15
21 -0.15
22 0.08
23 -0.15
25 0.66
26 0.66
27 0.06
28 0.06
3 -0.57
38 0.15
39 0.15
4 -0.57
42 0.15
43 0.15
44 0.15
5 -0.81
6 0.41
7 -0.14
8 0.14
9 0.27

>  <PUBCHEM_EFFECTIVE_ROTOR_COUNT>  (1) 
6.8

>  <PUBCHEM_PHARMACOPHORE_FEATURES>  (1) 
8
1 24 hydrophobe
1 3 acceptor
1 4 acceptor
1 5 cation
6 13 15 19 20 22 23 rings
6 5 6 7 9 10 11 rings
6 6 7 8 12 13 15 rings
6 7 10 12 16 17 21 rings

>  <PUBCHEM_HEAVY_ATOM_COUNT>  (1) 
28

>  <PUBCHEM_ATOM_DEF_STEREO_COUNT>  (1) 
0

>  <PUBCHEM_ATOM_UDEF_STEREO_COUNT>  (1) 
1

>  <PUBCHEM_BOND_DEF_STEREO_COUNT>  (1) 
0

>  <PUBCHEM_BOND_UDEF_STEREO_COUNT>  (1) 
0

>  <PUBCHEM_ISOTOPIC_ATOM_COUNT>  (1) 
0

>  <PUBCHEM_COMPONENT_COUNT>  (1) 
1

>  <PUBCHEM_CACTVS_TAUTO_COUNT>  (1) 
1

>  <PUBCHEM_CONFORMER_ID>  (1) 
0000AA6F00000001

>  <PUBCHEM_MMFF94_ENERGY>  (1) 
85.4895

>  <PUBCHEM_FEATURE_SELFOVERLAP>  (1) 
40.683

>  <PUBCHEM_SHAPE_FINGERPRINT>  (1) 
10076449 9 18202015330636686846
10366900 7 18336824178452213113
10411042 1 18334582386450586071
12035758 1 18201141218945249106
12403259 226 18338793420862425120
12553582 1 18187091684829343011
12623949 98 17916599742105291999
12788726 201 17967812721847413531
13140716 1 18337382739160184561
13402501 40 18411139108722340610
13617811 41 18116156760366510644
13782708 43 18272934924964275566
14223421 5 18410004404090427737
14787075 74 17894641347978617739
14790565 3 18335713736549699244
15196674 1 18409168822587622397
15927050 60 17544774776925458431
16087824 20 18190461568406335269
1813 80 17458338688884727789
18222031 100 18261951951012378051
18608769 82 18410293588222094282
19591789 44 18409732854645994590
21033648 29 18202272611492706187
21267235 1 18336837454555340779
22182313 1 18335966649571800877
23559900 14 18335697213346586581
2748010 2 18409156714684483556
335352 9 18334014970279634597
350125 39 18411140229772283840
5104073 3 18411418414977996497
59554788 170 18411699915466034276
59755656 215 18335137532347944199
6823239 73 18409725149685987320
7495541 125 18412827967409883504

>  <PUBCHEM_SHAPE_MULTIPOLES>  (1) 
547.77
11.53
3.74
1.26
1.42
1.8
-0.26
-7.14
0.45
1.02
0.4
-0.92
0.48
1.85

>  <PUBCHEM_SHAPE_SELFOVERLAP>  (1) 
1189.998

>  <PUBCHEM_SHAPE_VOLUME>  (1) 
294.7

>  <PUBCHEM_COORDINATE_TYPE>  (1) 
2
5
10

$$$$
