43633
     RDKit          3D

 30 33  0  0  1  0  0  0  0  0999 V2000
    1.3695   -0.8703   -0.2258 O   0  0  0  0  0  0  0  0  0  0  0  0
    3.0523    0.9987    0.7279 O   0  0  0  0  0  0  0  0  0  0  0  0
    0.9953   -1.4951    1.9970 O   0  0  0  0  0  0  0  0  0  0  0  0
    2.0000   -3.9460    1.5415 O   0  0  0  0  0  0  0  0  0  0  0  0
    3.4190    1.8640   -1.4140 O   0  0  0  0  0  0  0  0  0  0  0  0
    6.0514    1.3489   -1.2421 O   0  0  0  0  0  0  0  0  0  0  0  0
   -4.7890    1.3567    0.3437 N   0  0  0  0  0  0  0  0  0  0  0  0
   -3.3498    1.0227    0.5042 C   0  0  0  0  0  0  0  0  0  0  0  0
   -2.8944   -0.1152   -0.4157 C   0  0  0  0  0  0  0  0  0  0  0  0
   -2.4511    2.2550    0.2532 C   0  0  0  0  0  0  0  0  0  0  0  0
   -3.8418   -1.0018   -0.9642 C   0  0  0  0  0  0  0  0  0  0  0  0
   -5.6003    0.1326    0.4405 C   0  0  0  0  0  0  0  0  0  0  0  0
   -5.3130   -0.7830   -0.7458 C   0  0  0  0  0  0  0  0  0  0  0  0
   -1.5096   -0.3045   -0.6565 C   0  0  0  0  0  0  0  0  0  0  0  0
   -0.9851    1.9035    0.3745 C   0  0  0  0  0  0  0  0  0  0  0  0
   -0.5324    0.6441   -0.0748 C   0  0  0  0  0  0  0  0  0  0  0  0
   -5.2521    2.3177    1.3504 C   0  0  0  0  0  0  0  0  0  0  0  0
   -3.4193   -2.0584   -1.7764 C   0  0  0  0  0  0  0  0  0  0  0  0
   -1.1229   -1.3801   -1.4764 C   0  0  0  0  0  0  0  0  0  0  0  0
    0.8377    0.3561    0.0589 C   0  0  0  0  0  0  0  0  0  0  0  0
   -0.0839    2.8461    0.8928 C   0  0  0  0  0  0  0  0  0  0  0  0
   -2.0661   -2.2477   -2.0281 C   0  0  0  0  0  0  0  0  0  0  0  0
    1.7279    1.2933    0.5916 C   0  0  0  0  0  0  0  0  0  0  0  0
    1.2687    2.5392    1.0027 C   0  0  0  0  0  0  0  0  0  0  0  0
    1.3962   -1.7494    0.8692 C   0  0  0  0  0  0  0  0  0  0  0  0
    3.8353    1.3445   -0.3873 C   0  0  0  0  0  0  0  0  0  0  0  0
    1.9996   -3.0616    0.4385 C   0  0  0  0  0  0  0  0  0  0  0  0
    5.2723    0.9746   -0.1233 C   0  0  0  0  0  0  0  0  0  0  0  0
    2.5591   -5.2116    1.2048 C   0  0  0  0  0  0  0  0  0  0  0  0
    7.4266    1.0272   -1.0609 C   0  0  0  0  0  0  0  0  0  0  0  0
  1 20  1  0
  1 25  1  0
  2 23  1  0
  2 26  1  0
  3 25  2  0
  4 27  1  0
  4 29  1  0
  5 26  2  0
  6 28  1  0
  6 30  1  0
  7  8  1  0
  7 12  1  0
  7 17  1  0
  8  9  1  0
  8 10  1  0
  9 11  2  0
  9 14  1  0
 10 15  1  0
 11 13  1  0
 11 18  1  0
 12 13  1  0
 14 16  1  0
 14 19  2  0
 15 16  2  0
 15 21  1  0
 16 20  1  0
 18 22  2  0
 19 22  1  0
 20 23  2  0
 21 24  2  0
 23 24  1  0
 25 27  1  0
 26 28  1  0
M  END
>  <PUBCHEM_COMPOUND_CID>  (1) 
43633

>  <PUBCHEM_CONFORMER_RMSD>  (1) 
1

>  <PUBCHEM_CONFORMER_DIVERSEORDER>  (1) 
1
2
21
22
19
6
28
23
9
24
7
29
5
30
18
25
4
8
20
17
26
16
10
12
27
14
3
13
15
11

>  <PUBCHEM_MMFF94_PARTIAL_CHARGES>  (1) 
33
1 -0.23
10 0.14
11 -0.14
12 0.27
13 0.14
15 -0.14
17 0.27
18 -0.15
19 -0.15
2 -0.23
20 0.08
21 -0.15
22 -0.15
23 0.08
24 -0.15
25 0.66
26 0.66
27 0.34
28 0.34
29 0.28
3 -0.57
30 0.28
4 -0.56
41 0.15
42 0.15
43 0.15
44 0.15
45 0.15
5 -0.57
6 -0.56
7 -0.81
8 0.41
9 -0.14

>  <PUBCHEM_EFFECTIVE_ROTOR_COUNT>  (1) 
8.8

>  <PUBCHEM_PHARMACOPHORE_FEATURES>  (1) 
9
1 3 acceptor
1 4 acceptor
1 5 acceptor
1 6 acceptor
1 7 cation
6 15 16 20 21 23 24 rings
6 7 8 9 11 12 13 rings
6 8 9 10 14 15 16 rings
6 9 11 14 18 19 22 rings

>  <PUBCHEM_HEAVY_ATOM_COUNT>  (1) 
30

>  <PUBCHEM_ATOM_DEF_STEREO_COUNT>  (1) 
1

>  <PUBCHEM_ATOM_UDEF_STEREO_COUNT>  (1) 
0

>  <PUBCHEM_BOND_DEF_STEREO_COUNT>  (1) 
0

>  <PUBCHEM_BOND_UDEF_STEREO_COUNT>  (1) 
0

>  <PUBCHEM_ISOTOPIC_ATOM_COUNT>  (1) 
0

>  <PUBCHEM_COMPONENT_COUNT>  (1) 
1

>  <PUBCHEM_CACTVS_TAUTO_COUNT>  (1) 
1

>  <PUBCHEM_CONFORMER_ID>  (1) 
0000AA7100000001

>  <PUBCHEM_MMFF94_ENERGY>  (1) 
95.996

>  <PUBCHEM_FEATURE_SELFOVERLAP>  (1) 
45.774

>  <PUBCHEM_SHAPE_FINGERPRINT>  (1) 
10190108 129 18192159398399558987
10759866 29 18410292463267911745
11007060 377 18127136492361410488
11135609 187 18259982700254889740
11135926 11 18336820910024350924
11578080 2 17751065925923374757
11991303 11 16805898410896215546
12107183 9 17836646323804351505
12236239 1 18335703857882455132
12553582 1 18270944843667681133
12788726 201 17488751060397829017
13140716 1 17981869054801466369
13583140 156 18261107496513217345
14790565 3 18339364183309448353
15219462 58 17681869256750655667
16110190 28 17984405357059068115
1813 80 17827061923399289874
18681886 176 17275099578699960973
19311894 1 17840861094654102623
19319366 153 18408605872423503526
21033650 10 18055669246242764708
21133410 221 15102932556304315663
21267235 1 18129383864332260509
21360443 120 18260272945697308430
21421861 104 18264766571566371882
21781055 127 16628847150046191643
21792965 2 18040430023571764138
229495 10 18115295662404607077
23559900 14 17559116467359315775
23566358 27 18263922146562808882
25147074 1 18271232842678661127
335352 9 18059858406839800189
34934 24 18341896268699325609
4409770 3 17899711330003248506
59755656 215 18131641075662470316
59755656 520 17967817188855870482
7097593 13 18269818875104899187

>  <PUBCHEM_SHAPE_MULTIPOLES>  (1) 
577.19
12.25
4.43
1.57
8.68
5.49
0.12
-5.08
3.4
2.91
-2.21
0.22
1.02
-3.86

>  <PUBCHEM_SHAPE_SELFOVERLAP>  (1) 
1247.975

>  <PUBCHEM_SHAPE_VOLUME>  (1) 
312.2

>  <PUBCHEM_COORDINATE_TYPE>  (1) 
2
5
10

$$$$
