43643
     RDKit          3D

 25 26  0  0  0  0  0  0  0  0999 V2000
   -4.8354    1.3616    0.4580 O   0  0  0  0  0  0  0  0  0  0  0  0
    1.6202    1.4450   -0.1730 O   0  0  0  0  0  0  0  0  0  0  0  0
    3.9870    0.1872    0.0038 N   0  0  0  0  0  0  0  0  0  0  0  0
    0.4270   -0.4499    0.5323 N   0  0  0  0  0  0  0  0  0  0  0  0
    7.7415   -0.5595   -0.0941 C   0  0  0  0  0  0  0  0  0  0  0  0
    6.4268    0.2179   -0.2144 C   0  0  0  0  0  0  0  0  0  0  0  0
    8.9778    0.2824   -0.4176 C   0  0  0  0  0  0  0  0  0  0  0  0
    5.1963   -0.6188    0.1346 C   0  0  0  0  0  0  0  0  0  0  0  0
   10.2529   -0.5597   -0.3529 C   0  0  0  0  0  0  0  0  0  0  0  0
    2.8064   -0.5888    0.3545 C   0  0  0  0  0  0  0  0  0  0  0  0
   11.4886    0.2775   -0.6421 C   0  0  0  0  0  0  0  0  0  0  0  0
    1.5682    0.2773    0.2002 C   0  0  0  0  0  0  0  0  0  0  0  0
   -0.9160   -0.0036    0.5182 C   0  0  0  0  0  0  0  0  0  0  0  0
   -1.9575   -0.8576    0.8810 C   0  0  0  0  0  0  0  0  0  0  0  0
   -1.1913    1.3094    0.1356 C   0  0  0  0  0  0  0  0  0  0  0  0
   -3.2747   -0.3989    0.8609 C   0  0  0  0  0  0  0  0  0  0  0  0
   -3.5503    0.9137    0.4778 C   0  0  0  0  0  0  0  0  0  0  0  0
   -2.5086    1.7679    0.1151 C   0  0  0  0  0  0  0  0  0  0  0  0
   -1.6915   -2.2681    1.2964 C   0  0  0  0  0  0  0  0  0  0  0  0
   -5.7949    0.5395   -0.1085 C   0  0  0  0  0  0  0  0  0  0  0  0
   -5.5396   -0.0954   -1.3240 C   0  0  0  0  0  0  0  0  0  0  0  0
   -7.0165    0.3460    0.5365 C   0  0  0  0  0  0  0  0  0  0  0  0
   -6.5060   -0.9242   -1.8945 C   0  0  0  0  0  0  0  0  0  0  0  0
   -7.9829   -0.4826   -0.0341 C   0  0  0  0  0  0  0  0  0  0  0  0
   -7.7276   -1.1181   -1.2495 C   0  0  0  0  0  0  0  0  0  0  0  0
  1 17  1  0
  1 20  1  0
  2 12  2  0
  3  8  1  0
  3 10  1  0
  4 12  1  0
  4 13  1  0
  5  6  1  0
  5  7  1  0
  6  8  1  0
  7  9  1  0
  9 11  1  0
 10 12  1  0
 13 14  2  0
 13 15  1  0
 14 16  1  0
 14 19  1  0
 15 18  2  0
 16 17  2  0
 17 18  1  0
 20 21  2  0
 20 22  1  0
 21 23  1  0
 22 24  2  0
 23 25  2  0
 24 25  1  0
M  END
>  <PUBCHEM_COMPOUND_CID>  (1) 
43643

>  <PUBCHEM_CONFORMER_RMSD>  (1) 
1

>  <PUBCHEM_CONFORMER_DIVERSEORDER>  (1) 
1
140
21
49
135
11
22
130
79
18
13
40
143
24
68
53
59
35
4
61
113
99
138
80
16
60
97
41
23
78
105
121
17
67
36
64
6
73
116
12
103
5
33
90
72
109
94
34
137
39
44
2
95
123
115
26
108
129
15
71
77
46
37
51
117
107
100
93
3
50
92
127
56
27
9
32
25
106
74
30
8
83
76
62
120
111
102
43
98
7
96
28
10
104
131
144
47
63
122
38
82
58
101
91
70
45
57
42
141
89
118
142
65
48
31
66
29
81
112
69
126
54
128
86
14
119
85
52
134
133
55
88
124
84
132
87
110
139
75
125
19
20
136
114

>  <PUBCHEM_MMFF94_PARTIAL_CHARGES>  (1) 
30
1 -0.17
10 0.33
12 0.57
13 0.12
14 -0.14
15 -0.15
16 -0.15
17 0.08
18 -0.15
19 0.14
2 -0.57
20 0.08
21 -0.15
22 -0.15
23 -0.15
24 -0.15
25 -0.15
3 -0.9
36 0.36
4 -0.55
42 0.37
43 0.15
44 0.15
45 0.15
49 0.15
50 0.15
51 0.15
52 0.15
53 0.15
8 0.27

>  <PUBCHEM_EFFECTIVE_ROTOR_COUNT>  (1) 
11

>  <PUBCHEM_PHARMACOPHORE_FEATURES>  (1) 
9
1 1 acceptor
1 11 hydrophobe
1 2 acceptor
1 3 cation
1 3 donor
1 4 donor
4 5 6 7 9 hydrophobe
6 13 14 15 16 17 18 rings
6 20 21 22 23 24 25 rings

>  <PUBCHEM_HEAVY_ATOM_COUNT>  (1) 
25

>  <PUBCHEM_ATOM_DEF_STEREO_COUNT>  (1) 
0

>  <PUBCHEM_ATOM_UDEF_STEREO_COUNT>  (1) 
0

>  <PUBCHEM_BOND_DEF_STEREO_COUNT>  (1) 
0

>  <PUBCHEM_BOND_UDEF_STEREO_COUNT>  (1) 
0

>  <PUBCHEM_ISOTOPIC_ATOM_COUNT>  (1) 
0

>  <PUBCHEM_COMPONENT_COUNT>  (1) 
1

>  <PUBCHEM_CACTVS_TAUTO_COUNT>  (1) 
2

>  <PUBCHEM_CONFORMER_ID>  (1) 
0000AA7B00000001

>  <PUBCHEM_MMFF94_ENERGY>  (1) 
60.974

>  <PUBCHEM_FEATURE_SELFOVERLAP>  (1) 
45.67

>  <PUBCHEM_SHAPE_FINGERPRINT>  (1) 
10076449 9 17917993879978298504
11315181 36 17968103023087269304
12082328 90 16415484805267687552
12089408 11 18336265653222364224
12664476 115 11241971499880315726
12838862 33 17822280306617772090
14202775 3 17418100897927368614
14251764 18 18335979801172968514
14251764 46 18186523203337625130
15183329 4 18187357727587794883
15461852 350 17989207053760830900
15849732 13 16515405170546235983
1818759 1 14979960264233597764
18335252 98 16917071057491865374
20721686 146 13190878898312894911
21095086 128 17632296766481024134
21150785 3 18202563977884548390
21360443 120 18040151794841053986
21362267 2 16515967090788916396
21362267 20 16988839493363831438
232437 2 17846500323422493878
23559900 14 18264767830071372105
246663 6 15195567905675776204
249057 3 17821731663147659620
335352 9 18260268564439912566
33684 2 18260550014047694216
395649 100 18409729607567056870
44802255 64 16298379163557689555
4874694 18 18113900464787598698
54039377 194 18272085055081112631
57676310 188 18202282476685451862
59521270 166 18413107234187907061
636775 8 18342455989470700783
6691757 9 18261403246969794690
67123 10 17846779612092052036
9953998 17 8646765590950422696

>  <PUBCHEM_SHAPE_MULTIPOLES>  (1) 
492.79
34.22
1.4
1.11
89.02
0.07
0.31
3.63
12.63
-1.49
-0.25
-1.97
0.38
-0.94

>  <PUBCHEM_SHAPE_SELFOVERLAP>  (1) 
1011.385

>  <PUBCHEM_SHAPE_VOLUME>  (1) 
283.9

>  <PUBCHEM_COORDINATE_TYPE>  (1) 
2
5
10

$$$$
