43640
     RDKit          3D

 23 26  0  0  0  0  0  0  0  0999 V2000
    5.6072    0.0012    0.5758 O   0  0  0  0  0  0  0  0  0  0  0  0
    0.3652    0.0014   -1.2808 N   0  0  0  0  0  0  0  0  0  0  0  0
   -3.3295   -0.0020    0.6987 N   0  0  0  0  0  0  0  0  0  0  0  0
   -0.8877    0.0004   -0.6094 C   0  0  0  0  0  0  0  0  0  0  0  0
   -1.4998    1.2145   -0.2819 C   0  0  0  0  0  0  0  0  0  0  0  0
   -1.4976   -1.2149   -0.2823 C   0  0  0  0  0  0  0  0  0  0  0  0
   -2.7376    1.1657    0.3813 C   0  0  0  0  0  0  0  0  0  0  0  0
   -2.7355   -1.1686    0.3809 C   0  0  0  0  0  0  0  0  0  0  0  0
   -0.9096    2.4504   -0.5987 C   0  0  0  0  0  0  0  0  0  0  0  0
   -0.9052   -2.4497   -0.5994 C   0  0  0  0  0  0  0  0  0  0  0  0
    1.6857    0.0016   -0.8127 C   0  0  0  0  0  0  0  0  0  0  0  0
   -3.3521    2.3711    0.7100 C   0  0  0  0  0  0  0  0  0  0  0  0
   -3.3479   -2.3752    0.7093 C   0  0  0  0  0  0  0  0  0  0  0  0
   -1.5446    3.6412   -0.2590 C   0  0  0  0  0  0  0  0  0  0  0  0
   -1.5380   -3.6418   -0.2600 C   0  0  0  0  0  0  0  0  0  0  0  0
   -2.7684    3.6011    0.3967 C   0  0  0  0  0  0  0  0  0  0  0  0
   -2.7619   -3.6040    0.3958 C   0  0  0  0  0  0  0  0  0  0  0  0
    2.7550    0.0018   -1.7156 C   0  0  0  0  0  0  0  0  0  0  0  0
    1.9489    0.0013    0.5620 C   0  0  0  0  0  0  0  0  0  0  0  0
    4.0700    0.0014   -1.2499 C   0  0  0  0  0  0  0  0  0  0  0  0
    3.2637    0.0012    1.0274 C   0  0  0  0  0  0  0  0  0  0  0  0
    4.3243    0.0012    0.1215 C   0  0  0  0  0  0  0  0  0  0  0  0
    5.7953    0.0008    1.9902 C   0  0  0  0  0  0  0  0  0  0  0  0
  1 22  1  0
  1 23  1  0
  2  4  1  0
  2 11  1  0
  3  7  2  0
  3  8  1  0
  4  5  2  0
  4  6  1  0
  5  7  1  0
  5  9  1  0
  6  8  2  0
  6 10  1  0
  7 12  1  0
  8 13  1  0
  9 14  2  0
 10 15  2  0
 11 18  2  0
 11 19  1  0
 12 16  2  0
 13 17  2  0
 14 16  1  0
 15 17  1  0
 18 20  1  0
 19 21  2  0
 20 22  2  0
 21 22  1  0
M  END
>  <PUBCHEM_COMPOUND_CID>  (1) 
43640

>  <PUBCHEM_CONFORMER_RMSD>  (1) 
0.6

>  <PUBCHEM_CONFORMER_DIVERSEORDER>  (1) 
1
2
3
4

>  <PUBCHEM_MMFF94_PARTIAL_CHARGES>  (1) 
34
1 -0.36
10 -0.15
11 0.1
12 -0.15
13 -0.15
14 -0.15
15 -0.15
16 -0.15
17 -0.15
18 -0.15
19 -0.15
2 -0.6
20 -0.15
21 -0.15
22 0.08
23 0.28
24 0.4
25 0.15
26 0.15
27 0.15
28 0.15
29 0.15
3 -0.62
30 0.15
31 0.15
32 0.15
33 0.15
34 0.15
35 0.15
36 0.15
4 0.1
7 0.31
8 0.31
9 -0.15

>  <PUBCHEM_EFFECTIVE_ROTOR_COUNT>  (1) 
3

>  <PUBCHEM_PHARMACOPHORE_FEATURES>  (1) 
8
1 1 acceptor
1 2 cation
1 2 donor
1 3 acceptor
6 11 18 19 20 21 22 rings
6 3 4 5 6 7 8 rings
6 5 7 9 12 14 16 rings
6 6 8 10 13 15 17 rings

>  <PUBCHEM_HEAVY_ATOM_COUNT>  (1) 
23

>  <PUBCHEM_ATOM_DEF_STEREO_COUNT>  (1) 
0

>  <PUBCHEM_ATOM_UDEF_STEREO_COUNT>  (1) 
0

>  <PUBCHEM_BOND_DEF_STEREO_COUNT>  (1) 
0

>  <PUBCHEM_BOND_UDEF_STEREO_COUNT>  (1) 
0

>  <PUBCHEM_ISOTOPIC_ATOM_COUNT>  (1) 
0

>  <PUBCHEM_COMPONENT_COUNT>  (1) 
1

>  <PUBCHEM_CACTVS_TAUTO_COUNT>  (1) 
2

>  <PUBCHEM_CONFORMER_ID>  (1) 
0000AA7800000001

>  <PUBCHEM_MMFF94_ENERGY>  (1) 
103.6078

>  <PUBCHEM_FEATURE_SELFOVERLAP>  (1) 
40.658

>  <PUBCHEM_SHAPE_FINGERPRINT>  (1) 
10074138 170 18408603660789270027
10319926 262 18342167840251539834
10369192 42 16627154203104398216
10411042 1 18051421956919716303
10930396 42 18053066748735744720
1100329 8 18265343974707008697
11049842 53 18120961429091164846
11582403 64 17628056919940986549
12035758 1 18341344344480737785
12107183 9 18047180853256468658
12173636 292 18266460901783981821
12236239 1 17603870021961230446
12523318 42 18411409627332405810
12553582 1 18122360222208170887
12633257 1 18129954467168414912
12788726 201 18189634897562378770
12930653 34 18341607101715964118
13004483 165 18194963165439053247
13009979 54 18041848431919558510
13140716 1 18267029542864118323
13583140 156 17988345036892730402
138480 1 16535396160476395431
14081887 123 18412826901873086634
14178342 30 18408321077848542702
14420673 8 18048598119508473290
14787075 74 17467644027705293636
14844126 61 18335697282108027971
15042514 8 18336838566946368331
15230672 131 18048326540347546102
15326921 28 17758651392773415832
15475509 35 16668547585658163779
15842332 3 17822306707707920444
16992727 255 18190720013414308621
17780758 139 18261939813624645570
17980427 26 17476065835760417397
19377110 9 17968936522222103608
20510252 161 18270974435934445297
20554085 129 18053921988715911097
20600515 1 18127990774309414957
21033648 29 18196939864092456400
21065201 7 18341903965713191542
21304303 282 18120910868640846965
21421861 104 17257102987388892595
21650355 55 18338234976598742087
22149856 69 17543666062186354073
22224240 67 18199192794062757249
22956985 138 17183329059599113858
23402539 116 18343577473897546279
23557571 272 18201452367439674276
23559900 14 18127427674222192622
2748010 2 17832175761144289111
3091708 16 8697282639998816095
3178227 256 18263382416410313571
350125 39 17905625310632219223
5265222 85 18270981136927719678
5364581 5 18127108987834030624
58807428 26 18193853539416327625
602551 16 18411422804445063142
7097593 13 18042681707198784746
7364860 26 17185603416965957909
7808743 9 18338248098056712732
81228 2 18341614858299839007
84936 182 17478335232055126657
90316 7 18338808930311253135
9981440 41 18120093875614521961

>  <PUBCHEM_SHAPE_MULTIPOLES>  (1) 
457.5
9.11
4.27
1.3
15.99
0.01
-0.04
-0.02
-4.01
-7.66
-0.19
1.68
0
0

>  <PUBCHEM_SHAPE_SELFOVERLAP>  (1) 
1028.055

>  <PUBCHEM_SHAPE_VOLUME>  (1) 
241.1

>  <PUBCHEM_COORDINATE_TYPE>  (1) 
2
5
10

$$$$
