43654
     RDKit          3D

 22 24  0  0  0  0  0  0  0  0999 V2000
    1.7667   -0.6472    0.0002 Si  0  0  0  0  0  4  0  0  0  0  0  0
    1.8777    0.3235    1.3602 O   0  0  0  0  0  0  0  0  0  0  0  0
    1.8800    0.3190   -1.3630 O   0  0  0  0  0  0  0  0  0  0  0  0
    3.0462   -1.7277    0.0030 O   0  0  0  0  0  0  0  0  0  0  0  0
    0.3215   -1.4711    0.0007 O   0  0  0  0  0  0  0  0  0  0  0  0
   -5.1629    1.5036   -0.0001 O   0  0  0  0  0  0  0  0  0  0  0  0
   -6.0112   -0.6364    0.0006 O   0  0  0  0  0  0  0  0  0  0  0  0
    4.6224    0.9798    0.0000 N   0  0  0  0  0  0  0  0  0  0  0  0
    4.0235    1.5683    1.1948 C   0  0  0  0  0  0  0  0  0  0  0  0
    4.1109    1.4146   -1.2968 C   0  0  0  0  0  0  0  0  0  0  0  0
    5.1355   -0.3836    0.1022 C   0  0  0  0  0  0  0  0  0  0  0  0
    2.4878    1.6087    1.2695 C   0  0  0  0  0  0  0  0  0  0  0  0
    3.1340    0.4743   -2.0230 C   0  0  0  0  0  0  0  0  0  0  0  0
    4.2223   -1.4360    0.7539 C   0  0  0  0  0  0  0  0  0  0  0  0
   -0.9907   -1.0772   -0.0006 C   0  0  0  0  0  0  0  0  0  0  0  0
   -1.9973   -2.0363    0.0004 C   0  0  0  0  0  0  0  0  0  0  0  0
   -1.3028    0.2778   -0.0014 C   0  0  0  0  0  0  0  0  0  0  0  0
   -3.3333   -1.6353    0.0003 C   0  0  0  0  0  0  0  0  0  0  0  0
   -2.6388    0.6787   -0.0015 C   0  0  0  0  0  0  0  0  0  0  0  0
   -3.6540   -0.2779   -0.0006 C   0  0  0  0  0  0  0  0  0  0  0  0
   -5.0470    0.1403   -0.0004 C   0  0  0  0  0  0  0  0  0  0  0  0
   -6.4903    2.0400    0.0015 C   0  0  0  0  0  0  0  0  0  0  0  0
  1  2  1  0
  1  3  1  0
  1  4  1  0
  1  5  1  0
  2 12  1  0
  3 13  1  0
  4 14  1  0
  5 15  1  0
  6 21  1  0
  6 22  1  0
  7 21  2  0
  8  9  1  0
  8 10  1  0
  8 11  1  0
  9 12  1  0
 10 13  1  0
 11 14  1  0
 15 16  2  0
 15 17  1  0
 16 18  1  0
 17 19  2  0
 18 20  2  0
 19 20  1  0
 20 21  1  0
M  END
>  <PUBCHEM_COMPOUND_CID>  (1) 
43654

>  <PUBCHEM_CONFORMER_RMSD>  (1) 
0.8

>  <PUBCHEM_CONFORMER_DIVERSEORDER>  (1) 
1
4
2
3

>  <PUBCHEM_MMFF94_PARTIAL_CHARGES>  (1) 
26
1 1.19
10 0.27
11 0.27
12 0.28
13 0.28
14 0.28
15 0.08
16 -0.15
17 -0.15
18 -0.15
19 -0.15
2 -0.58
20 0.09
21 0.63
22 0.28
3 -0.58
35 0.15
36 0.15
37 0.15
38 0.15
4 -0.58
5 -0.38
6 -0.43
7 -0.57
8 -0.81
9 0.27

>  <PUBCHEM_EFFECTIVE_ROTOR_COUNT>  (1) 
5.8

>  <PUBCHEM_PHARMACOPHORE_FEATURES>  (1) 
3
1 7 acceptor
1 8 cation
6 15 16 17 18 19 20 rings

>  <PUBCHEM_HEAVY_ATOM_COUNT>  (1) 
22

>  <PUBCHEM_ATOM_DEF_STEREO_COUNT>  (1) 
0

>  <PUBCHEM_ATOM_UDEF_STEREO_COUNT>  (1) 
0

>  <PUBCHEM_BOND_DEF_STEREO_COUNT>  (1) 
0

>  <PUBCHEM_BOND_UDEF_STEREO_COUNT>  (1) 
0

>  <PUBCHEM_ISOTOPIC_ATOM_COUNT>  (1) 
0

>  <PUBCHEM_COMPONENT_COUNT>  (1) 
1

>  <PUBCHEM_CACTVS_TAUTO_COUNT>  (1) 
1

>  <PUBCHEM_CONFORMER_ID>  (1) 
0000AA8600000001

>  <PUBCHEM_MMFF94_ENERGY>  (1) 
74.3976

>  <PUBCHEM_FEATURE_SELFOVERLAP>  (1) 
15.223

>  <PUBCHEM_SHAPE_FINGERPRINT>  (1) 
10498660 4 18343868826956172097
11089746 13 18201430385190131727
11595378 159 16443616905259483645
12236239 1 18040435498984067387
12596602 18 16660651782141837137
12616971 3 17095239250129735367
12788726 201 17632020753990999905
13167372 99 18261674762254812277
13533116 47 18411698747056101370
14341114 328 17168142381641966009
14528608 73 18201995539089451933
15183329 4 17989489593815851113
15196674 1 18411979165813254923
15238133 3 18413108333921307832
17844677 252 18272373117999240641
200 152 14620802600012453891
20645477 70 16702031884603377902
21033648 29 18335403665480369097
212847 35 18410856551239772120
21503847 285 17167864171130420772
22289505 5 17846779598463663728
23557571 272 17915743278460793903
23559900 14 18412832386783811174
2838139 119 18271515396114402917
3004659 81 18409730625932644354
3060560 45 17060344041589153988
34797466 226 17274829098992275309
350125 39 18335138631395335118
3545911 37 18408604777037888414
474 4 17748830743195582554
495365 180 17131541838787548850
5104073 3 18333447651374114179
542803 24 17894067411751677569
59682541 52 16773240574345283429
8509985 295 18343013372697476810
960060 61 14405188373741786385

>  <PUBCHEM_SHAPE_MULTIPOLES>  (1) 
430.77
13.88
2.03
1.19
15.5
0.02
-0.3
-5.28
0.08
0.57
0.23
-1.77
-0.43
-0.13

>  <PUBCHEM_SHAPE_SELFOVERLAP>  (1) 
895.363

>  <PUBCHEM_SHAPE_VOLUME>  (1) 
244.1

>  <PUBCHEM_COORDINATE_TYPE>  (1) 
2
5
10

$$$$
