43662
     RDKit          3D

 22 25  0  0  0  0  0  0  0  0999 V2000
    0.9206   -0.7368   -0.4505 N   0  0  0  0  0  0  0  0  0  0  0  0
    3.9625   -1.5204    0.6191 N   0  0  0  0  0  0  0  0  0  0  0  0
    2.9156   -1.4001   -0.3898 C   0  0  0  0  0  0  0  0  0  0  0  0
    2.2210   -0.0323   -0.3342 C   0  0  0  0  0  0  0  0  0  0  0  0
    1.5710   -1.9457    0.1115 C   0  0  0  0  0  0  0  0  0  0  0  0
   -0.0577   -0.1838    0.4945 C   0  0  0  0  0  0  0  0  0  0  0  0
    3.3951   -1.8755   -1.7325 C   0  0  0  0  0  0  0  0  0  0  0  0
   -1.3987   -0.9008    0.3837 C   0  0  0  0  0  0  0  0  0  0  0  0
   -0.1197    1.3326    0.4344 C   0  0  0  0  0  0  0  0  0  0  0  0
   -2.4278   -0.5937   -0.5312 C   0  0  0  0  0  0  0  0  0  0  0  0
   -0.5990    2.0136   -0.6982 C   0  0  0  0  0  0  0  0  0  0  0  0
   -2.4418    0.5427   -1.5327 C   0  0  0  0  0  0  0  0  0  0  0  0
   -1.1375    1.2516   -1.8775 C   0  0  0  0  0  0  0  0  0  0  0  0
    4.9800   -0.4957    0.4354 C   0  0  0  0  0  0  0  0  0  0  0  0
   -1.5839   -2.0001    1.2576 C   0  0  0  0  0  0  0  0  0  0  0  0
    0.3442    2.0835    1.5300 C   0  0  0  0  0  0  0  0  0  0  0  0
   -3.6077   -1.3747   -0.5083 C   0  0  0  0  0  0  0  0  0  0  0  0
   -0.6057    3.4179   -0.7150 C   0  0  0  0  0  0  0  0  0  0  0  0
   -2.7516   -2.7607    1.2529 C   0  0  0  0  0  0  0  0  0  0  0  0
    0.3319    3.4780    1.5028 C   0  0  0  0  0  0  0  0  0  0  0  0
   -3.7690   -2.4448    0.3686 C   0  0  0  0  0  0  0  0  0  0  0  0
   -0.1419    4.1452    0.3793 C   0  0  0  0  0  0  0  0  0  0  0  0
  1  4  1  0
  1  5  1  0
  1  6  1  0
  2  3  1  0
  2 14  1  0
  3  4  1  0
  3  5  1  0
  3  7  1  0
  6  8  1  0
  6  9  1  0
  8 10  2  0
  8 15  1  0
  9 11  2  0
  9 16  1  0
 10 12  1  0
 10 17  1  0
 11 13  1  0
 11 18  1  0
 12 13  1  0
 15 19  2  0
 16 20  2  0
 17 21  2  0
 18 22  2  0
 19 21  1  0
 20 22  1  0
M  END
>  <PUBCHEM_COMPOUND_CID>  (1) 
43662

>  <PUBCHEM_CONFORMER_RMSD>  (1) 
0.6

>  <PUBCHEM_CONFORMER_DIVERSEORDER>  (1) 
1
2

>  <PUBCHEM_MMFF94_PARTIAL_CHARGES>  (1) 
30
1 -0.69
10 -0.14
11 -0.14
12 0.14
13 0.14
14 0.27
15 -0.15
16 -0.15
17 -0.15
18 -0.15
19 -0.15
2 -0.84
20 -0.15
21 -0.15
22 -0.15
3 0.21
31 0.36
39 0.15
4 0.21
40 0.15
41 0.15
42 0.15
43 0.15
44 0.15
45 0.15
46 0.15
5 0.21
6 0.56
8 -0.14
9 -0.14

>  <PUBCHEM_EFFECTIVE_ROTOR_COUNT>  (1) 
3.4

>  <PUBCHEM_PHARMACOPHORE_FEATURES>  (1) 
7
1 1 cation
1 2 cation
1 2 donor
4 1 3 4 5 rings
6 8 10 15 17 19 21 rings
6 9 11 16 18 20 22 rings
7 6 8 9 10 11 12 13 rings

>  <PUBCHEM_HEAVY_ATOM_COUNT>  (1) 
22

>  <PUBCHEM_ATOM_DEF_STEREO_COUNT>  (1) 
0

>  <PUBCHEM_ATOM_UDEF_STEREO_COUNT>  (1) 
0

>  <PUBCHEM_BOND_DEF_STEREO_COUNT>  (1) 
0

>  <PUBCHEM_BOND_UDEF_STEREO_COUNT>  (1) 
0

>  <PUBCHEM_ISOTOPIC_ATOM_COUNT>  (1) 
0

>  <PUBCHEM_COMPONENT_COUNT>  (1) 
1

>  <PUBCHEM_CACTVS_TAUTO_COUNT>  (1) 
1

>  <PUBCHEM_CONFORMER_ID>  (1) 
0000AA8E00000001

>  <PUBCHEM_MMFF94_ENERGY>  (1) 
84.6934

>  <PUBCHEM_FEATURE_SELFOVERLAP>  (1) 
35.538

>  <PUBCHEM_SHAPE_FINGERPRINT>  (1) 
10670039 82 18339939173422147132
1100329 8 18337957788205790345
11036077 51 17761485890150685794
12160290 23 17973746691407270882
12173636 292 17760650265508375060
12293681 160 17906142102519876245
12532896 13 17620195334492891644
12553582 1 18264511566310056538
12788726 201 18194674865611388995
13027679 85 18410572886040977477
13134695 92 18267866258185685287
13140716 1 18410016524377250530
13149001 5 18190718947713772901
133893 2 17767667713836248775
13533116 47 17979651344660765371
13681431 1 18197230332365843417
14081887 123 18337381631174725314
14787075 74 17982439400615244389
14790565 3 17977664208652030341
14817 1 10679789752028900277
14863182 85 16747634413255858407
16945 1 18189053096902251183
17980427 23 17346051021417552785
1813 80 17987540219365155159
19591789 44 17112419368675039428
20510252 161 18192988227522080362
20600515 1 18261120694014229894
21304303 282 17613682978814286460
21339142 36 18411412899696779078
21524375 3 17045147386033139244
22182313 1 17535454144460081079
22907989 373 18193859071212918606
22956985 138 17395858021967283018
23419403 2 18192126395137217700
23557571 272 18339924818828703118
23558518 356 17979075977244325230
23559900 14 17969211412032559926
2748010 2 17680980001432280039
283562 15 18335989675345467218
3729539 64 17688336863772699004
458136 41 17402064777715952361
495365 180 17838331136294941347
5845 1 13653655198251402797
59755656 520 17759808044217842406
6786 2 13062723056023548565
7364860 26 17979079606517706827
81228 2 18195543505540716634
84936 31 17841714315860911031
9709674 26 18054503613324116326
9981440 41 17626072306307259834

>  <PUBCHEM_SHAPE_MULTIPOLES>  (1) 
442.79
6.1
4.57
1.54
4.03
4.9
-0.23
-7.23
-0.24
-0.51
1.14
-0.19
0.33
1.55

>  <PUBCHEM_SHAPE_SELFOVERLAP>  (1) 
963.111

>  <PUBCHEM_SHAPE_VOLUME>  (1) 
241.7

>  <PUBCHEM_COORDINATE_TYPE>  (1) 
2
5
10

$$$$
