43665
     RDKit          3D

 12 12  0  0  0  0  0  0  0  0999 V2000
   -0.9999    2.4773    0.0004 Cl  0  0  0  0  0  0  0  0  0  0  0  0
    2.1254   -1.9623    0.0001 Cl  0  0  0  0  0  0  0  0  0  0  0  0
   -3.5818    0.5713   -0.0001 Cl  0  0  0  0  0  0  0  0  0  0  0  0
    1.6504    1.0464   -0.0001 C   0  0  0  0  0  0  0  0  0  0  0  0
    0.4293    0.1768    0.0000 C   0  0  0  0  0  0  0  0  0  0  0  0
    2.5088    0.8517   -1.2619 C   0  0  0  0  0  0  0  0  0  0  0  0
    2.5091    0.8518    1.2617 C   0  0  0  0  0  0  0  0  0  0  0  0
   -0.8432    0.7484   -0.0001 C   0  0  0  0  0  0  0  0  0  0  0  0
    0.5704   -1.2109    0.0001 C   0  0  0  0  0  0  0  0  0  0  0  0
   -1.9744   -0.0679   -0.0001 C   0  0  0  0  0  0  0  0  0  0  0  0
   -0.5609   -2.0270    0.0001 C   0  0  0  0  0  0  0  0  0  0  0  0
   -1.8332   -1.4556    0.0001 C   0  0  0  0  0  0  0  0  0  0  0  0
  1  8  1  0
  2  9  1  0
  3 10  1  0
  4  5  1  0
  4  6  1  0
  4  7  1  0
  5  8  2  0
  5  9  1  0
  8 10  1  0
  9 11  2  0
 10 12  2  0
 11 12  1  0
M  END
>  <PUBCHEM_COMPOUND_CID>  (1) 
43665

>  <PUBCHEM_CONFORMER_RMSD>  (1) 
0.4

>  <PUBCHEM_CONFORMER_DIVERSEORDER>  (1) 
1
2

>  <PUBCHEM_MMFF94_PARTIAL_CHARGES>  (1) 
12
1 -0.18
10 0.18
11 -0.15
12 -0.15
2 -0.18
20 0.15
21 0.15
3 -0.18
4 0.14
5 -0.14
8 0.18
9 0.18

>  <PUBCHEM_EFFECTIVE_ROTOR_COUNT>  (1) 
1

>  <PUBCHEM_PHARMACOPHORE_FEATURES>  (1) 
2
3 4 6 7 hydrophobe
6 5 8 9 10 11 12 rings

>  <PUBCHEM_HEAVY_ATOM_COUNT>  (1) 
12

>  <PUBCHEM_ATOM_DEF_STEREO_COUNT>  (1) 
0

>  <PUBCHEM_ATOM_UDEF_STEREO_COUNT>  (1) 
0

>  <PUBCHEM_BOND_DEF_STEREO_COUNT>  (1) 
0

>  <PUBCHEM_BOND_UDEF_STEREO_COUNT>  (1) 
0

>  <PUBCHEM_ISOTOPIC_ATOM_COUNT>  (1) 
0

>  <PUBCHEM_COMPONENT_COUNT>  (1) 
1

>  <PUBCHEM_CACTVS_TAUTO_COUNT>  (1) 
1

>  <PUBCHEM_CONFORMER_ID>  (1) 
0000AA9100000001

>  <PUBCHEM_MMFF94_ENERGY>  (1) 
39.6125

>  <PUBCHEM_FEATURE_SELFOVERLAP>  (1) 
10.148

>  <PUBCHEM_SHAPE_FINGERPRINT>  (1) 
10967382 1 18410575076305259397
11206711 2 18049445838070846847
12382932 28 18338791324971132489
12423570 1 17822837758295733580
12524768 44 18342746208272435775
13380535 21 18337124435421402219
13380535 220 17976266733482419294
13380535 76 18410847789475229499
15775835 57 18342459252780103936
161256 15 18340769226014333319
16945 1 18122343755287447595
193761 8 18050285860575240293
20511035 2 18268142059278495726
20645476 183 17750524055563738518
21040471 1 18410575131913097862
21501502 16 18195253213038617913
22802520 49 18128560286677517750
2334 1 18338517542534510851
23552423 10 18260831500997190302
23559900 14 18271257127104585748
241688 4 18047191843323307144
2748010 2 18411425028969486975
5084963 1 18199467658255818291
5255222 1 18413108355264229992
528886 8 18410295847390722761
53812653 166 18271804678681937129
7364860 26 18200872881640675278

>  <PUBCHEM_SHAPE_MULTIPOLES>  (1) 
252.56
4.22
2.42
0.89
1.45
0.17
0
-0.65
0
-0.13
0
-0.64
-0.25
0

>  <PUBCHEM_SHAPE_SELFOVERLAP>  (1) 
495.326

>  <PUBCHEM_SHAPE_VOLUME>  (1) 
149.3

>  <PUBCHEM_COORDINATE_TYPE>  (1) 
2
5
10

$$$$
