43669
     RDKit          3D

 16 17  0  0  0  0  0  0  0  0999 V2000
    0.0377    1.2198    0.5652 N   0  0  0  0  0  0  0  0  0  0  0  0
   -4.4385    0.3909   -0.1483 N   0  0  0  0  0  0  0  0  0  0  0  0
   -0.7162    0.0770    0.5472 C   0  0  0  0  0  0  0  0  0  0  0  0
   -2.1657    0.1173    0.8210 C   0  0  0  0  0  0  0  0  0  0  0  0
    0.1174   -0.9755    0.2470 C   0  0  0  0  0  0  0  0  0  0  0  0
    1.4299   -0.4533    0.0755 C   0  0  0  0  0  0  0  0  0  0  0  0
    1.3522    0.9260    0.2805 C   0  0  0  0  0  0  0  0  0  0  0  0
   -3.0124    0.3255   -0.4486 C   0  0  0  0  0  0  0  0  0  0  0  0
    2.6804   -1.0231   -0.2354 C   0  0  0  0  0  0  0  0  0  0  0  0
   -0.2817   -2.3933    0.1259 C   0  0  0  0  0  0  0  0  0  0  0  0
    2.4669    1.7670    0.1897 C   0  0  0  0  0  0  0  0  0  0  0  0
    3.8041   -0.1942   -0.3294 C   0  0  0  0  0  0  0  0  0  0  0  0
    3.6967    1.1792   -0.1197 C   0  0  0  0  0  0  0  0  0  0  0  0
   -4.8978   -0.8661    0.4443 C   0  0  0  0  0  0  0  0  0  0  0  0
   -5.2059    0.6930   -1.3575 C   0  0  0  0  0  0  0  0  0  0  0  0
    5.1329   -0.7903   -0.6574 C   0  0  0  0  0  0  0  0  0  0  0  0
  1  3  1  0
  1  7  1  0
  2  8  1  0
  2 14  1  0
  2 15  1  0
  3  4  1  0
  3  5  2  0
  4  8  1  0
  5  6  1  0
  5 10  1  0
  6  7  2  0
  6  9  1  0
  7 11  1  0
  9 12  2  0
 11 13  2  0
 12 13  1  0
 12 16  1  0
M  END
>  <PUBCHEM_COMPOUND_CID>  (1) 
43669

>  <PUBCHEM_CONFORMER_RMSD>  (1) 
0.6

>  <PUBCHEM_CONFORMER_DIVERSEORDER>  (1) 
2
3
8
6
5
4
7
1

>  <PUBCHEM_MMFF94_PARTIAL_CHARGES>  (1) 
19
1 0.03
10 0.18
11 -0.15
12 -0.14
13 -0.15
14 0.27
15 0.27
16 0.14
19 0.27
2 -0.81
22 0.15
26 0.15
27 0.15
3 -0.33
4 0.18
5 -0.18
7 -0.15
8 0.27
9 -0.15

>  <PUBCHEM_EFFECTIVE_ROTOR_COUNT>  (1) 
3

>  <PUBCHEM_PHARMACOPHORE_FEATURES>  (1) 
5
1 1 cation
1 1 donor
1 2 cation
5 1 3 5 6 7 rings
6 6 7 9 11 12 13 rings

>  <PUBCHEM_HEAVY_ATOM_COUNT>  (1) 
16

>  <PUBCHEM_ATOM_DEF_STEREO_COUNT>  (1) 
0

>  <PUBCHEM_ATOM_UDEF_STEREO_COUNT>  (1) 
0

>  <PUBCHEM_BOND_DEF_STEREO_COUNT>  (1) 
0

>  <PUBCHEM_BOND_UDEF_STEREO_COUNT>  (1) 
0

>  <PUBCHEM_ISOTOPIC_ATOM_COUNT>  (1) 
0

>  <PUBCHEM_COMPONENT_COUNT>  (1) 
1

>  <PUBCHEM_CACTVS_TAUTO_COUNT>  (1) 
1

>  <PUBCHEM_CONFORMER_ID>  (1) 
0000AA9500000002

>  <PUBCHEM_MMFF94_ENERGY>  (1) 
28.2705

>  <PUBCHEM_FEATURE_SELFOVERLAP>  (1) 
25.463

>  <PUBCHEM_SHAPE_FINGERPRINT>  (1) 
10693767 8 18058443201687963534
10922049 32 18333733537334939155
11089746 13 13912608289753300438
11401426 45 18343298171788931304
11471102 20 18412546518071263712
11796584 16 14620800370855908109
12236239 1 17489873735005193193
12403259 415 18260830423245151169
12555020 224 18342463616752233230
12670543 26 18335986350707827670
12715332 25 17989207074729694007
12730499 353 18187646865350423659
13571099 22 18342463659828071208
13690532 89 18342179942830933290
13760787 5 17989490740466422233
13862211 1 18341895147939831530
14115302 16 18262249901573086438
14911166 2 18411423899524632102
14993402 34 18412548695498279082
15048467 5 13695874731229528646
15099037 51 18410296900042981590
16945 1 18341630204465784010
17834072 8 18411138030369084030
18186145 218 18410849975629043661
200 152 17846501417494455121
20645477 56 18263077889236517640
20645477 70 18342745108718713878
21029758 11 18201721743430305944
21267235 1 18271538532612434054
21637258 2 15697428932501063614
221357 26 18340196415497158333
221490 88 18268152152599561763
22218785 32 18409166614578936382
22713019 99 18272656723063471486
231179 274 17894906326159718941
23402539 116 17775007855868483065
23402655 69 18413668002683173901
23557571 272 17458350715378225175
23559900 14 18201720708580375984
25 1 18408600344821503979
2748010 2 18125733528572221962
2871803 45 18412259502454963437
29717793 49 17489308559821232981
3060560 45 18410569570109934358
34934 24 18339919428950526216
3759504 43 17603874437309502066
4072396 5 18263066770030146058
42 15 10375872987233806153
4990 188 18272093789904739191
542803 24 15285358418603459005
69090 78 18342458170496012898

>  <PUBCHEM_SHAPE_MULTIPOLES>  (1) 
319.31
10.4
1.67
0.88
7.23
0.42
-0.13
-0.55
-3.27
-0.7
0.07
0.62
-0.08
0.76

>  <PUBCHEM_SHAPE_SELFOVERLAP>  (1) 
670.935

>  <PUBCHEM_SHAPE_VOLUME>  (1) 
184.4

>  <PUBCHEM_COORDINATE_TYPE>  (1) 
2
5
10

$$$$
