43674
     RDKit          3D

 24 28  0  0  1  0  0  0  0  0999 V2000
   -2.4022   -2.1763   -1.1711 O   0  0  0  0  0  0  0  0  0  0  0  0
   -3.9600   -0.7677    1.7968 O   0  0  0  0  0  0  0  0  0  0  0  0
   -4.2061   -0.0372   -1.7705 O   0  0  0  0  0  0  0  0  0  0  0  0
   -3.4472    1.9704    1.1668 O   0  0  0  0  0  0  0  0  0  0  0  0
   -1.3420   -0.4242    0.0351 C   0  0  0  0  0  0  0  0  0  0  0  0
   -2.4051   -1.5116    0.0926 C   0  0  0  0  0  0  0  0  0  0  0  0
   -3.8258   -1.0158    0.3995 C   0  0  0  0  0  0  0  0  0  0  0  0
   -4.1731    0.2535   -0.3758 C   0  0  0  0  0  0  0  0  0  0  0  0
   -3.1696    1.3773   -0.1016 C   0  0  0  0  0  0  0  0  0  0  0  0
   -1.7251    0.9282   -0.0817 C   0  0  0  0  0  0  0  0  0  0  0  0
    0.0485   -0.7683    0.0600 C   0  0  0  0  0  0  0  0  0  0  0  0
    1.0227    0.2617   -0.0141 C   0  0  0  0  0  0  0  0  0  0  0  0
    0.6219    1.6109   -0.1183 C   0  0  0  0  0  0  0  0  0  0  0  0
   -0.7389    1.9241   -0.1510 C   0  0  0  0  0  0  0  0  0  0  0  0
    2.4128   -0.0422    0.0133 C   0  0  0  0  0  0  0  0  0  0  0  0
    0.5263   -2.0949    0.1536 C   0  0  0  0  0  0  0  0  0  0  0  0
    2.8447   -1.3825    0.1124 C   0  0  0  0  0  0  0  0  0  0  0  0
    3.3760    0.9935   -0.0588 C   0  0  0  0  0  0  0  0  0  0  0  0
    1.5875    2.6243   -0.1889 C   0  0  0  0  0  0  0  0  0  0  0  0
    1.8901   -2.3971    0.1801 C   0  0  0  0  0  0  0  0  0  0  0  0
    2.9472    2.3203   -0.1592 C   0  0  0  0  0  0  0  0  0  0  0  0
    4.2170   -1.6727    0.1398 C   0  0  0  0  0  0  0  0  0  0  0  0
    4.7419    0.6757   -0.0290 C   0  0  0  0  0  0  0  0  0  0  0  0
    5.1587   -0.6494    0.0699 C   0  0  0  0  0  0  0  0  0  0  0  0
  1  6  1  0
  2  7  1  0
  3  8  1  0
  4  9  1  0
  5  6  1  0
  5 10  2  0
  5 11  1  0
  6  7  1  0
  7  8  1  0
  8  9  1  0
  9 10  1  0
 10 14  1  0
 11 12  2  0
 11 16  1  0
 12 13  1  0
 12 15  1  0
 13 14  2  0
 13 19  1  0
 15 17  2  0
 15 18  1  0
 16 20  2  0
 17 20  1  0
 17 22  1  0
 18 21  1  0
 18 23  2  0
 19 21  2  0
 22 24  2  0
 23 24  1  0
M  END
>  <PUBCHEM_COMPOUND_CID>  (1) 
43674

>  <PUBCHEM_CONFORMER_RMSD>  (1) 
0.6

>  <PUBCHEM_CONFORMER_DIVERSEORDER>  (1) 
2
1

>  <PUBCHEM_MMFF94_PARTIAL_CHARGES>  (1) 
30
1 -0.68
10 -0.14
14 -0.15
16 -0.15
19 -0.15
2 -0.68
20 -0.15
21 -0.15
22 -0.15
23 -0.15
24 -0.15
29 0.15
3 -0.68
30 0.15
31 0.15
32 0.15
33 0.4
34 0.4
35 0.4
36 0.4
37 0.15
38 0.15
39 0.15
4 -0.68
40 0.15
5 -0.14
6 0.42
7 0.28
8 0.28
9 0.42

>  <PUBCHEM_EFFECTIVE_ROTOR_COUNT>  (1) 
0.8

>  <PUBCHEM_PHARMACOPHORE_FEATURES>  (1) 
13
1 1 acceptor
1 1 donor
1 2 acceptor
1 2 donor
1 3 acceptor
1 3 donor
1 4 acceptor
1 4 donor
6 11 12 15 16 17 20 rings
6 12 13 15 18 19 21 rings
6 15 17 18 22 23 24 rings
6 5 10 11 12 13 14 rings
6 5 6 7 8 9 10 rings

>  <PUBCHEM_HEAVY_ATOM_COUNT>  (1) 
24

>  <PUBCHEM_ATOM_DEF_STEREO_COUNT>  (1) 
4

>  <PUBCHEM_ATOM_UDEF_STEREO_COUNT>  (1) 
0

>  <PUBCHEM_BOND_DEF_STEREO_COUNT>  (1) 
0

>  <PUBCHEM_BOND_UDEF_STEREO_COUNT>  (1) 
0

>  <PUBCHEM_ISOTOPIC_ATOM_COUNT>  (1) 
0

>  <PUBCHEM_COMPONENT_COUNT>  (1) 
1

>  <PUBCHEM_CACTVS_TAUTO_COUNT>  (1) 
1

>  <PUBCHEM_CONFORMER_ID>  (1) 
0000AA9A00000002

>  <PUBCHEM_MMFF94_ENERGY>  (1) 
83.7668

>  <PUBCHEM_FEATURE_SELFOVERLAP>  (1) 
66.13

>  <PUBCHEM_SHAPE_FINGERPRINT>  (1) 
10062212 137 18410288116602720218
10616163 171 18412546526239309207
10967382 1 18409728431156597278
11471102 20 18408880737677231916
11578080 2 16734940134547617814
12236239 1 17846498145241052335
12553582 1 18264204712508120232
13140716 1 18410016541457256688
13224815 77 18333449850154386027
13583140 156 17821725027128080627
13862211 1 18409724033258143010
13944108 23 16458509550215101165
14790565 3 18336557118003582524
15196674 1 18409730651628380512
15209289 33 18334579053049425962
15442244 35 18411700959000759776
15536298 74 18341893004687457560
15788980 27 18040151825079072706
1601671 61 18411421683479691386
16945 1 18337389327297092565
17349148 13 18060135440160462732
17492 89 18339360871968888310
1813 80 17385446518482269652
19591789 44 18409450323218124770
200 152 18273489083372323301
20028762 73 18200874096768982063
20261772 1 18341897411007606602
20645477 70 18335975449859264671
20739085 24 18188508946147836940
21033648 29 17531234046511596517
21267235 1 18410582781281747394
221490 88 18334582390307528194
2334 1 18337673138899581508
23402539 116 18341041978619633558
23559900 14 18339636845651148840
2748010 2 18335700610628333092
2871803 45 18335134259419353630
335352 9 18337953368198613700
34934 24 18263639571994874843
350125 39 18410298021071721865
3680242 22 18189332377731052674
4214541 1 18410856542565597329
474 4 18260266382269491572
5104073 3 18409730634369566368
9709674 26 18339645525215551678
9981440 41 17473254857059304416

>  <PUBCHEM_SHAPE_MULTIPOLES>  (1) 
470.43
9.25
2.74
0.91
0.59
0.33
0.01
-0.85
0.16
0.88
0
-1.11
-0.1
-0.3

>  <PUBCHEM_SHAPE_SELFOVERLAP>  (1) 
1086.261

>  <PUBCHEM_SHAPE_VOLUME>  (1) 
241.1

>  <PUBCHEM_COORDINATE_TYPE>  (1) 
2
5
10

$$$$
