43677
     RDKit          3D

 11 10  0  0  1  0  0  0  0  0999 V2000
    3.1398    1.0989    0.7289 O   0  0  0  0  0  0  0  0  0  0  0  0
   -1.4190    1.2787   -0.9608 O   0  0  0  0  0  0  0  0  0  0  0  0
   -0.1764   -2.5488   -0.8759 O   0  0  0  0  0  0  0  0  0  0  0  0
   -0.0344   -0.7366    0.1948 N   0  0  0  0  0  0  0  0  0  0  0  0
    0.2013   -2.0371    0.1850 N   0  0  0  0  0  0  0  0  0  0  0  0
    0.9781    0.0572    0.8775 C   0  0  0  0  0  0  0  0  0  0  0  0
    2.1870    0.3420   -0.0171 C   0  0  0  0  0  0  0  0  0  0  0  0
   -1.3634   -0.4365    0.7475 C   0  0  0  0  0  0  0  0  0  0  0  0
    1.8334    1.1453   -1.2622 C   0  0  0  0  0  0  0  0  0  0  0  0
   -1.9833    0.7081   -0.0280 C   0  0  0  0  0  0  0  0  0  0  0  0
   -3.3630    1.1286    0.4104 C   0  0  0  0  0  0  0  0  0  0  0  0
  1  7  1  0
  2 10  2  0
  3  5  2  0
  4  5  1  0
  4  6  1  0
  4  8  1  0
  6  7  1  0
  7  9  1  0
  8 10  1  0
 10 11  1  0
M  END
>  <PUBCHEM_COMPOUND_CID>  (1) 
43677

>  <PUBCHEM_CONFORMER_RMSD>  (1) 
0.6

>  <PUBCHEM_CONFORMER_DIVERSEORDER>  (1) 
1
166
114
276
187
45
193
108
245
41
334
8
148
15
244
215
70
77
265
123
250
289
261
340
179
136
22
183
34
298
220
270
29
35
310
275
202
81
206
317
284
28
9
212
66
57
62
288
184
259
167
263
272
79
247
144
299
271
27
33
208
177
20
52
248
335
83
225
16
72
157
121
128
226
49
343
238
138
92
303
176
210
269
99
113
274
199
279
229
140
281
5
165
309
65
338
171
135
198
127
132
234
326
145
160
336
37
102
348
58
178
134
256
337
329
86
130
246
21
318
13
280
319
227
67
74
24
308
213
23
323
126
11
82
230
40
332
169
325
124
196
211
153
53
297
312
109
133
19
7
3
282
56
231
94
252
31
100
158
181
170
316
175
327
93
233
161
290
17
223
63
101
222
168
182
278
38
14
80
25
257
192
149
116
43
266
115
293
90
46
71
87
203
320
137
4
242
207
346
205
301
6
18
347
189
119
190
333
68
64
76
174
214
120
304
249
209
143
296
221
10
292
239
12
164
216
235
260
344
150
219
291
84
125
305
236
151
107
2
277
311
228
159
201
122
162
104
285
262
75
156
204
131
331
283
105
95
341
241
173
73
129
306
307
294
191
154
117
103
60
112
50
328
195
147
217
96
155
287
302
163
98
152
85
321
54
106
224
91
345
69
44
251
110
111
88
324
243
295
55
264
218
42
89
255
240
59
232
47
26
330
286
339
342
253
313
61
254
273
200
39
322
97
237
194
142
315
300
180
139
141
30
268
146
118
186
32
314
48
51
78
172
258
197
185
267
36
188

>  <PUBCHEM_MMFF94_PARTIAL_CHARGES>  (1) 
11
1 -0.68
10 0.45
11 0.06
2 -0.57
20 0.4
3 -0.16
4 -0.36
5 -0.01
6 0.27
7 0.28
8 0.33

>  <PUBCHEM_EFFECTIVE_ROTOR_COUNT>  (1) 
5

>  <PUBCHEM_PHARMACOPHORE_FEATURES>  (1) 
3
1 1 acceptor
1 1 donor
1 2 acceptor

>  <PUBCHEM_HEAVY_ATOM_COUNT>  (1) 
11

>  <PUBCHEM_ATOM_DEF_STEREO_COUNT>  (1) 
0

>  <PUBCHEM_ATOM_UDEF_STEREO_COUNT>  (1) 
1

>  <PUBCHEM_BOND_DEF_STEREO_COUNT>  (1) 
0

>  <PUBCHEM_BOND_UDEF_STEREO_COUNT>  (1) 
0

>  <PUBCHEM_ISOTOPIC_ATOM_COUNT>  (1) 
0

>  <PUBCHEM_COMPONENT_COUNT>  (1) 
1

>  <PUBCHEM_CACTVS_TAUTO_COUNT>  (1) 
3

>  <PUBCHEM_CONFORMER_ID>  (1) 
0000AA9D00000001

>  <PUBCHEM_MMFF94_ENERGY>  (1) 
20.41

>  <PUBCHEM_FEATURE_SELFOVERLAP>  (1) 
15.223

>  <PUBCHEM_SHAPE_FINGERPRINT>  (1) 
1 1 18340486643057730422
100427 49 16896531381188899106
10857977 72 17096390366375258753
11031198 65 18200318714953188953
12138202 97 17773879868876300068
15775835 57 18408040727657339456
16945 1 17603866693324789153
20711985 344 17910096246785773634
21028194 46 18335703810394831969
21040471 1 18411421743203110242
21524375 3 18407755941244720537
23211744 41 17968936375533462409
23235685 24 18335981991168692641
5084963 1 18187086135061625152
81228 2 17979633768599132883

>  <PUBCHEM_SHAPE_MULTIPOLES>  (1) 
198.8
4.17
1.98
1.06
0.86
1.48
-0.13
-2.8
0.64
-0.02
-0.62
-0.31
-0.11
0.01

>  <PUBCHEM_SHAPE_SELFOVERLAP>  (1) 
371.696

>  <PUBCHEM_SHAPE_VOLUME>  (1) 
125.4

>  <PUBCHEM_COORDINATE_TYPE>  (1) 
2
5
10

$$$$
