43671
     RDKit          3D

 19 19  0  0  1  0  0  0  0  0999 V2000
   -4.8223    1.4189    0.0842 F   0  0  0  0  0  0  0  0  0  0  0  0
   -3.0069    2.6051    0.1162 F   0  0  0  0  0  0  0  0  0  0  0  0
   -3.5408    1.4875   -1.6712 F   0  0  0  0  0  0  0  0  0  0  0  0
    0.8816   -1.3226   -1.4475 O   0  0  0  0  0  0  0  0  0  0  0  0
    6.0355    1.8104    0.5337 O   0  0  0  0  0  0  0  0  0  0  0  0
    5.6316   -0.2064   -0.4318 O   0  0  0  0  0  0  0  0  0  0  0  0
    3.0091   -0.1374    0.0915 N   0  0  0  0  0  0  0  0  0  0  0  0
    0.7560   -1.1753   -0.0268 C   0  0  0  0  0  0  0  0  0  0  0  0
    1.5999    0.0266    0.4416 C   0  0  0  0  0  0  0  0  0  0  0  0
   -0.6864   -1.0214    0.3203 C   0  0  0  0  0  0  0  0  0  0  0  0
   -1.4006    0.0848   -0.1401 C   0  0  0  0  0  0  0  0  0  0  0  0
   -1.3214   -1.9843    1.1047 C   0  0  0  0  0  0  0  0  0  0  0  0
   -2.7498    0.2281    0.1840 C   0  0  0  0  0  0  0  0  0  0  0  0
   -2.6703   -1.8411    1.4288 C   0  0  0  0  0  0  0  0  0  0  0  0
   -3.3846   -0.7350    0.9683 C   0  0  0  0  0  0  0  0  0  0  0  0
    3.7849    1.0168    0.5190 C   0  0  0  0  0  0  0  0  0  0  0  0
   -3.5142    1.4103   -0.3088 C   0  0  0  0  0  0  0  0  0  0  0  0
    0.1752   -2.4618   -1.9058 C   0  0  0  0  0  0  0  0  0  0  0  0
    5.2233    0.7967    0.1397 C   0  0  0  0  0  0  0  0  0  0  0  0
  1 17  1  0
  2 17  1  0
  3 17  1  0
  4  8  1  0
  4 18  1  0
  5 19  1  0
  6 19  2  0
  7  9  1  0
  7 16  1  0
  8  9  1  0
  8 10  1  0
 10 11  2  0
 10 12  1  0
 11 13  1  0
 12 14  2  0
 13 15  2  0
 13 17  1  0
 14 15  1  0
 16 19  1  0
M  END
>  <PUBCHEM_COMPOUND_CID>  (1) 
43671

>  <PUBCHEM_CONFORMER_RMSD>  (1) 
0.8

>  <PUBCHEM_CONFORMER_DIVERSEORDER>  (1) 
3
19
34
37
38
52
29
16
33
2
17
21
50
40
47
45
13
44
54
28
51
18
23
46
7
49
4
25
24
35
27
8
41
14
9
15
39
53
26
11
42
22
30
48
20
36
5
32
10
43
1
12
31
6

>  <PUBCHEM_MMFF94_PARTIAL_CHARGES>  (1) 
25
1 -0.34
10 -0.14
11 -0.15
12 -0.15
13 -0.14
14 -0.15
15 -0.15
16 0.33
17 1.16
18 0.28
19 0.66
2 -0.34
23 0.15
24 0.36
25 0.15
26 0.15
27 0.15
3 -0.34
33 0.5
4 -0.56
5 -0.65
6 -0.57
7 -0.9
8 0.42
9 0.27

>  <PUBCHEM_EFFECTIVE_ROTOR_COUNT>  (1) 
7

>  <PUBCHEM_PHARMACOPHORE_FEATURES>  (1) 
7
1 4 acceptor
1 5 acceptor
1 6 acceptor
1 7 cation
1 7 donor
3 5 6 19 anion
6 10 11 12 13 14 15 rings

>  <PUBCHEM_HEAVY_ATOM_COUNT>  (1) 
19

>  <PUBCHEM_ATOM_DEF_STEREO_COUNT>  (1) 
0

>  <PUBCHEM_ATOM_UDEF_STEREO_COUNT>  (1) 
1

>  <PUBCHEM_BOND_DEF_STEREO_COUNT>  (1) 
0

>  <PUBCHEM_BOND_UDEF_STEREO_COUNT>  (1) 
0

>  <PUBCHEM_ISOTOPIC_ATOM_COUNT>  (1) 
0

>  <PUBCHEM_COMPONENT_COUNT>  (1) 
1

>  <PUBCHEM_CACTVS_TAUTO_COUNT>  (1) 
1

>  <PUBCHEM_CONFORMER_ID>  (1) 
0000AA9700000003

>  <PUBCHEM_MMFF94_ENERGY>  (1) 
36.9695

>  <PUBCHEM_FEATURE_SELFOVERLAP>  (1) 
35.579

>  <PUBCHEM_SHAPE_FINGERPRINT>  (1) 
10014705 185 17845367920623876768
12119455 92 18202281399001236774
12507560 40 18408046217005468746
12596602 18 16009037214950819784
12930653 34 18114186349456142674
12969540 114 17846208977840745056
13103583 49 13335023742230178749
13296909 8 17603865632726459903
13583140 156 18338517546998225194
13675066 3 18339364179836504410
13994607 96 18408598193079819005
14123255 352 18410572881656326280
14178342 30 17022913362333364203
14251764 30 12822714125157320765
15042514 8 17898864705654709635
15061688 2 18188765042552516671
15209294 21 17530679905361570930
15279308 16 18411706465238607987
15527383 91 13623534553865466390
167882 2 18059577919674016702
17844677 252 18188218714397071424
17980427 23 18187368770069792501
1813 80 14490475253542606150
18915476 22 17845387565140241719
20374829 77 10663813070798958465
20645477 56 18260271832556623203
20645477 70 17632308848076718230
21033648 29 18130779105733087344
23402539 116 18261953072173272955
23557571 272 18336560381845969755
23559900 14 18193838142117639122
26918003 58 7997702978100991330
2838139 119 18340477881435359396
5104073 3 18040151795293864578
81228 2 17970095347232310195
90127 26 18336835290249902936
9981440 41 18260269629328467971

>  <PUBCHEM_SHAPE_MULTIPOLES>  (1) 
346.6
10.83
2.39
1.3
16.73
0.11
-0.47
7.57
1.26
-1.83
-0.44
-0.7
-0.75
1.68

>  <PUBCHEM_SHAPE_SELFOVERLAP>  (1) 
712.233

>  <PUBCHEM_SHAPE_VOLUME>  (1) 
200.7

>  <PUBCHEM_COORDINATE_TYPE>  (1) 
2
5
10

$$$$
