43679
     RDKit          3D

 27 29  0  0  1  0  0  0  0  0999 V2000
    0.1120   -2.5273   -0.2688 O   0  0  0  0  0  0  0  0  0  0  0  0
   -1.3618   -0.3430   -1.5803 O   0  0  0  0  0  0  0  0  0  0  0  0
    2.2065   -2.0504   -1.0626 O   0  0  0  0  0  0  0  0  0  0  0  0
   -6.0060    1.3393   -1.2019 O   0  0  0  0  0  0  0  0  0  0  0  0
    6.1757   -0.8905    0.4920 O   0  0  0  0  0  0  0  0  0  0  0  0
   -7.0701   -0.2419    0.8206 O   0  0  0  0  0  0  0  0  0  0  0  0
    6.7810    1.7018   -0.3057 O   0  0  0  0  0  0  0  0  0  0  0  0
   -0.7972   -0.3733   -0.2631 C   0  0  0  0  0  0  0  0  0  0  0  0
    0.7204   -0.2479   -0.3861 C   0  0  0  0  0  0  0  0  0  0  0  0
   -0.9806   -1.7763    0.2792 C   0  0  0  0  0  0  0  0  0  0  0  0
   -1.5081    0.6793    0.5746 C   0  0  0  0  0  0  0  0  0  0  0  0
    1.4473    0.2656    0.8491 C   0  0  0  0  0  0  0  0  0  0  0  0
    1.1240   -1.6829   -0.6307 C   0  0  0  0  0  0  0  0  0  0  0  0
   -2.9927    0.4353    0.6375 C   0  0  0  0  0  0  0  0  0  0  0  0
    2.8713    0.6458    0.5416 C   0  0  0  0  0  0  0  0  0  0  0  0
   -3.8195    1.0057   -0.3199 C   0  0  0  0  0  0  0  0  0  0  0  0
   -3.5124   -0.3558    1.6523 C   0  0  0  0  0  0  0  0  0  0  0  0
    3.8733   -0.3070    0.6604 C   0  0  0  0  0  0  0  0  0  0  0  0
    3.1615    1.9434    0.1444 C   0  0  0  0  0  0  0  0  0  0  0  0
   -5.1948    0.7801   -0.2615 C   0  0  0  0  0  0  0  0  0  0  0  0
   -4.8876   -0.5813    1.7108 C   0  0  0  0  0  0  0  0  0  0  0  0
    5.1928    0.0452    0.3761 C   0  0  0  0  0  0  0  0  0  0  0  0
    4.4808    2.2956   -0.1399 C   0  0  0  0  0  0  0  0  0  0  0  0
   -5.7288   -0.0135    0.7540 C   0  0  0  0  0  0  0  0  0  0  0  0
    5.4965    1.3465   -0.0241 C   0  0  0  0  0  0  0  0  0  0  0  0
   -6.2534    0.5761   -2.3812 C   0  0  0  0  0  0  0  0  0  0  0  0
    6.4699   -1.6687   -0.6667 C   0  0  0  0  0  0  0  0  0  0  0  0
  1 10  1  0
  1 13  1  0
  2  8  1  0
  3 13  2  0
  4 20  1  0
  4 26  1  0
  5 22  1  0
  5 27  1  0
  6 24  1  0
  7 25  1  0
  8  9  1  0
  8 10  1  0
  8 11  1  0
  9 12  1  0
  9 13  1  0
 11 14  1  0
 12 15  1  0
 14 16  2  0
 14 17  1  0
 15 18  2  0
 15 19  1  0
 16 20  1  0
 17 21  2  0
 18 22  1  0
 19 23  2  0
 20 24  2  0
 21 24  1  0
 22 25  2  0
 23 25  1  0
M  END
>  <PUBCHEM_COMPOUND_CID>  (1) 
43679

>  <PUBCHEM_CONFORMER_RMSD>  (1) 
0.8

>  <PUBCHEM_CONFORMER_DIVERSEORDER>  (1) 
1
21
36
13
44
46
31
37
5
49
23
30
34
6
15
10
12
27
40
25
8
33
24
4
43
50
9
38
29
35
18
20
2
39
32
22
7
26
42
11
17
28
14
41
3
19
45
48
16
47

>  <PUBCHEM_MMFF94_PARTIAL_CHARGES>  (1) 
36
1 -0.43
10 0.28
11 0.14
12 0.14
13 0.66
14 -0.14
15 -0.14
16 -0.15
17 -0.15
18 -0.15
19 -0.15
2 -0.68
20 0.08
21 -0.15
22 0.08
23 -0.15
24 0.08
25 0.08
26 0.28
27 0.28
3 -0.57
35 0.4
36 0.15
37 0.15
38 0.15
39 0.15
4 -0.36
40 0.15
41 0.15
42 0.45
43 0.45
5 -0.36
6 -0.53
7 -0.53
8 0.28
9 0.06

>  <PUBCHEM_EFFECTIVE_ROTOR_COUNT>  (1) 
6.8

>  <PUBCHEM_PHARMACOPHORE_FEATURES>  (1) 
10
1 2 acceptor
1 2 donor
1 3 acceptor
1 4 acceptor
1 5 acceptor
1 6 donor
1 7 donor
5 1 8 9 10 13 rings
6 14 16 17 20 21 24 rings
6 15 18 19 22 23 25 rings

>  <PUBCHEM_HEAVY_ATOM_COUNT>  (1) 
27

>  <PUBCHEM_ATOM_DEF_STEREO_COUNT>  (1) 
2

>  <PUBCHEM_ATOM_UDEF_STEREO_COUNT>  (1) 
0

>  <PUBCHEM_BOND_DEF_STEREO_COUNT>  (1) 
0

>  <PUBCHEM_BOND_UDEF_STEREO_COUNT>  (1) 
0

>  <PUBCHEM_ISOTOPIC_ATOM_COUNT>  (1) 
0

>  <PUBCHEM_COMPONENT_COUNT>  (1) 
1

>  <PUBCHEM_CACTVS_TAUTO_COUNT>  (1) 
16

>  <PUBCHEM_CONFORMER_ID>  (1) 
0000AA9F00000001

>  <PUBCHEM_MMFF94_ENERGY>  (1) 
95.3969

>  <PUBCHEM_FEATURE_SELFOVERLAP>  (1) 
50.748

>  <PUBCHEM_SHAPE_FINGERPRINT>  (1) 
10 15 18186799227705951552
10763959 59 18186519916876046724
11045977 3 17894634776673140240
11991303 11 18341893051658558607
12236239 1 17060335206313943841
12516196 113 14707208833281985197
13533116 47 17704075063032748522
13631057 29 17773585204709788271
13911987 19 18342171185630285973
14251764 18 17561361778004495130
14341114 176 18187089468225447640
14856354 85 15841550808632478445
14933364 13 18040718073409472728
15142383 8 17894904127954290384
15183329 4 16272212989664968052
15461852 350 17022902368287567911
1577012 14 17632582651529655560
15849732 13 18259705614201843484
1813 80 12252178533246082387
19489759 90 17095524002920821497
20567600 254 18409163324623197693
21033648 29 18041544936229147012
21236236 1 18270962478861888463
21315759 40 17346595257533910966
23198884 109 15769782368033763281
23559900 14 17532101492566700287
23569917 315 17988927772901590439
23569943 247 17129312952883864590
2838139 119 17775567537573364513
335352 9 18342459228065458750
4073 2 17022911198107079968
4325135 7 18202001062755141103
474 4 18343864411566183314
5104073 3 18267296711753413090
59755656 215 18338516339922341862
59755656 520 18411415142044695847
9996256 80 18272933868365332503

>  <PUBCHEM_SHAPE_MULTIPOLES>  (1) 
514.56
18.4
1.99
1.39
1.27
0.28
-0.35
-4.62
-1.36
-2.71
-0.41
2.6
0.06
1.35

>  <PUBCHEM_SHAPE_SELFOVERLAP>  (1) 
1113.207

>  <PUBCHEM_SHAPE_VOLUME>  (1) 
283.5

>  <PUBCHEM_COORDINATE_TYPE>  (1) 
2
5
10

$$$$
