43673
     RDKit          3D

 13 14  0  0  0  0  0  0  0  0999 V2000
    2.1679    0.0000    0.0000 P   0  0  0  0  0  0  0  0  0  0  0  0
    1.4551    1.4524    0.1006 O   0  0  0  0  0  0  0  0  0  0  0  0
    1.4552   -0.8134    1.2075 O   0  0  0  0  0  0  0  0  0  0  0  0
    1.4552   -0.6390   -1.3082 O   0  0  0  0  0  0  0  0  0  0  0  0
    3.6660    0.0001    0.0000 O   0  0  0  0  0  0  0  0  0  0  0  0
   -0.5209   -0.0001    0.0000 C   0  0  0  0  0  0  0  0  0  0  0  0
   -2.0491    0.0000    0.0000 C   0  0  0  0  0  0  0  0  0  0  0  0
    0.0249    1.4464    0.1003 C   0  0  0  0  0  0  0  0  0  0  0  0
    0.0250   -0.8101    1.2026 C   0  0  0  0  0  0  0  0  0  0  0  0
    0.0250   -0.6365   -1.3027 C   0  0  0  0  0  0  0  0  0  0  0  0
   -2.5680    0.8087   -1.2006 C   0  0  0  0  0  0  0  0  0  0  0  0
   -2.5682   -1.4441   -0.1001 C   0  0  0  0  0  0  0  0  0  0  0  0
   -2.5680    0.6355    1.3006 C   0  0  0  0  0  0  0  0  0  0  0  0
  1  2  1  0
  1  3  1  0
  1  4  1  0
  1  5  2  0
  2  8  1  0
  3  9  1  0
  4 10  1  0
  6  7  1  0
  6  8  1  0
  6  9  1  0
  6 10  1  0
  7 11  1  0
  7 12  1  0
  7 13  1  0
M  END
>  <PUBCHEM_COMPOUND_CID>  (1) 
43673

>  <PUBCHEM_CONFORMER_RMSD>  (1) 
0.6

>  <PUBCHEM_CONFORMER_DIVERSEORDER>  (1) 
1

>  <PUBCHEM_MMFF94_PARTIAL_CHARGES>  (1) 
8
1 1.51
10 0.28
2 -0.55
3 -0.55
4 -0.55
5 -0.7
8 0.28
9 0.28

>  <PUBCHEM_EFFECTIVE_ROTOR_COUNT>  (1) 
2.2

>  <PUBCHEM_PHARMACOPHORE_FEATURES>  (1) 
3
1 5 acceptor
4 7 11 12 13 hydrophobe
8 1 2 3 4 6 8 9 10 rings

>  <PUBCHEM_HEAVY_ATOM_COUNT>  (1) 
13

>  <PUBCHEM_ATOM_DEF_STEREO_COUNT>  (1) 
0

>  <PUBCHEM_ATOM_UDEF_STEREO_COUNT>  (1) 
0

>  <PUBCHEM_BOND_DEF_STEREO_COUNT>  (1) 
0

>  <PUBCHEM_BOND_UDEF_STEREO_COUNT>  (1) 
0

>  <PUBCHEM_ISOTOPIC_ATOM_COUNT>  (1) 
0

>  <PUBCHEM_COMPONENT_COUNT>  (1) 
1

>  <PUBCHEM_CACTVS_TAUTO_COUNT>  (1) 
1

>  <PUBCHEM_CONFORMER_ID>  (1) 
0000AA9900000001

>  <PUBCHEM_MMFF94_ENERGY>  (1) 
51.3968

>  <PUBCHEM_FEATURE_SELFOVERLAP>  (1) 
15.223

>  <PUBCHEM_SHAPE_FINGERPRINT>  (1) 
10219947 1 18060700589374457924
12423570 1 17989207087603526566
12491281 212 17988379112382580520
12932764 1 18186522102865998817
13024252 1 16877661266565022471
14993402 34 18060411435006901628
15775835 57 18113334193895301543
16945 1 18411700945973387568
22344851 262 17561094565933913489
23235685 24 17989487398839311161
23402539 116 18200864111623288853
23559900 14 18333447622153023394
29004967 10 18060427910237581302
3248919 1 17917709084817677523
369184 2 18260265248276780161
5084963 1 18264486359320627765
528886 8 17989213615943292781
68250623 7 18051416463423786374
8030462 33 16917344814533546949

>  <PUBCHEM_SHAPE_MULTIPOLES>  (1) 
247.91
4.22
1.31
1.31
1.1
0.11
0.08
0
0
-0.32
-0.08
-0.32
-0.11
0

>  <PUBCHEM_SHAPE_SELFOVERLAP>  (1) 
502.442

>  <PUBCHEM_SHAPE_VOLUME>  (1) 
149.4

>  <PUBCHEM_COORDINATE_TYPE>  (1) 
2
5
10

$$$$
