43672
     RDKit          3D

 36 39  0  0  1  0  0  0  0  0999 V2000
   -3.4365   -0.4241   -1.2130 S   0  0  0  0  0  0  0  0  0  0  0  0
   -3.9227    2.3296    2.1918 O   0  0  0  0  0  0  0  0  0  0  0  0
   -7.7231    0.5873    0.9740 O   0  0  0  0  0  0  0  0  0  0  0  0
   -7.1242    2.2062   -0.5147 O   0  0  0  0  0  0  0  0  0  0  0  0
   -0.0858    1.0010   -1.2188 O   0  0  0  0  0  0  0  0  0  0  0  0
    2.8090   -0.6899    2.3564 O   0  0  0  0  0  0  0  0  0  0  0  0
    3.7074    0.7396   -1.5127 O   0  0  0  0  0  0  0  0  0  0  0  0
    6.2015    0.5452   -2.2873 O   0  0  0  0  0  0  0  0  0  0  0  0
   -4.5112    1.5817    0.0320 N   0  0  0  0  0  0  0  0  0  0  0  0
   -1.4387    0.9922    0.6641 N   0  0  0  0  0  0  0  0  0  0  0  0
    1.9311   -0.1236    0.3070 N   0  0  0  0  0  0  0  0  0  0  0  0
    4.2728   -0.0111    0.6545 N   0  0  0  0  0  0  0  0  0  0  0  0
    6.9155    0.7194   -0.0726 N   0  0  0  0  0  0  0  0  0  0  0  0
   -3.4256    1.3843   -0.9333 C   0  0  0  0  0  0  0  0  0  0  0  0
   -5.2761   -0.4957   -0.9301 C   0  0  0  0  0  0  0  0  0  0  0  0
   -5.5147    0.5475    0.1827 C   0  0  0  0  0  0  0  0  0  0  0  0
   -2.4631    1.9122    0.1394 C   0  0  0  0  0  0  0  0  0  0  0  0
   -3.7117    2.0542    1.0324 C   0  0  0  0  0  0  0  0  0  0  0  0
   -5.6533   -1.9035   -0.4650 C   0  0  0  0  0  0  0  0  0  0  0  0
   -5.9711   -0.1777   -2.2609 C   0  0  0  0  0  0  0  0  0  0  0  0
   -6.8499    1.2202    0.1529 C   0  0  0  0  0  0  0  0  0  0  0  0
   -0.3246    0.6144   -0.0762 C   0  0  0  0  0  0  0  0  0  0  0  0
    0.5559   -0.3816    0.6674 C   0  0  0  0  0  0  0  0  0  0  0  0
    0.1558   -1.8096    0.3789 C   0  0  0  0  0  0  0  0  0  0  0  0
    2.9843   -0.3003    1.1981 C   0  0  0  0  0  0  0  0  0  0  0  0
   -0.7921   -2.4441    1.1818 C   0  0  0  0  0  0  0  0  0  0  0  0
    0.7339   -2.4936   -0.6907 C   0  0  0  0  0  0  0  0  0  0  0  0
    5.4186   -0.3283    1.5043 C   0  0  0  0  0  0  0  0  0  0  0  0
    6.5119    0.7006    1.3194 C   0  0  0  0  0  0  0  0  0  0  0  0
    4.5336    0.4358   -0.6583 C   0  0  0  0  0  0  0  0  0  0  0  0
   -1.1619   -3.7624    0.9155 C   0  0  0  0  0  0  0  0  0  0  0  0
    0.3640   -3.8119   -0.9570 C   0  0  0  0  0  0  0  0  0  0  0  0
    5.9789    0.5656   -1.0819 C   0  0  0  0  0  0  0  0  0  0  0  0
    8.3119    0.9894   -0.3717 C   0  0  0  0  0  0  0  0  0  0  0  0
   -0.5839   -4.4462   -0.1539 C   0  0  0  0  0  0  0  0  0  0  0  0
    8.5839    2.4772   -0.4546 C   0  0  0  0  0  0  0  0  0  0  0  0
  1 14  1  0
  1 15  1  0
  2 18  2  0
  3 21  1  0
  4 21  2  0
  5 22  2  0
  6 25  2  0
  7 30  2  0
  8 33  2  0
  9 14  1  0
  9 16  1  0
  9 18  1  0
 10 17  1  0
 10 22  1  0
 11 23  1  0
 11 25  1  0
 12 25  1  0
 12 28  1  0
 12 30  1  0
 13 29  1  0
 13 33  1  0
 13 34  1  0
 14 17  1  0
 15 16  1  0
 15 19  1  0
 15 20  1  0
 16 21  1  0
 17 18  1  0
 22 23  1  0
 23 24  1  0
 24 26  2  0
 24 27  1  0
 26 31  1  0
 27 32  2  0
 28 29  1  0
 30 33  1  0
 31 35  2  0
 32 35  1  0
 34 36  1  0
M  END
>  <PUBCHEM_COMPOUND_CID>  (1) 
43672

>  <PUBCHEM_CONFORMER_RMSD>  (1) 
1

>  <PUBCHEM_CONFORMER_DIVERSEORDER>  (1) 
1
55
112
32
99
78
5
107
92
47
41
91
110
82
50
68
20
59
101
94
73
97
17
58
69
109
116
40
3
46
6
113
119
102
115
100
57
14
9
89
83
33
56
8
86
21
18
71
90
38
19
34
62
52
54
45
10
118
15
48
60
44
72
75
117
12
104
93
39
2
95
30
106
51
11
23
77
87
35
114
81
22
29
88
80
43
37
67
85
53
24
31
111
42
63
27
65
26
76
13
28
66
64
108
79
70
49
61
103
36
74
7
25
98
120
16
4
105
96
84

>  <PUBCHEM_MMFF94_PARTIAL_CHARGES>  (1) 
41
1 -0.45
10 -0.65
11 -0.73
12 -0.42
13 -0.66
14 0.44
15 0.23
16 0.36
17 0.28
18 0.58
2 -0.57
21 0.66
22 0.57
23 0.5
24 -0.14
25 0.69
26 -0.15
27 -0.15
28 0.3
29 0.3
3 -0.65
30 0.63
31 -0.15
32 -0.15
33 0.63
34 0.3
35 -0.15
4 -0.57
46 0.37
48 0.5
49 0.37
5 -0.57
50 0.15
51 0.15
56 0.15
57 0.15
6 -0.57
60 0.15
7 -0.57
8 -0.57
9 -0.59

>  <PUBCHEM_EFFECTIVE_ROTOR_COUNT>  (1) 
10.6

>  <PUBCHEM_PHARMACOPHORE_FEATURES>  (1) 
15
1 10 donor
1 11 donor
1 2 acceptor
1 3 acceptor
1 4 acceptor
1 5 acceptor
1 6 acceptor
1 7 acceptor
1 8 acceptor
3 15 19 20 hydrophobe
3 3 4 21 anion
4 9 14 17 18 rings
6 12 13 28 29 30 33 rings
6 24 26 27 31 32 35 rings
7 1 9 14 15 16 17 18 rings

>  <PUBCHEM_HEAVY_ATOM_COUNT>  (1) 
36

>  <PUBCHEM_ATOM_DEF_STEREO_COUNT>  (1) 
4

>  <PUBCHEM_ATOM_UDEF_STEREO_COUNT>  (1) 
0

>  <PUBCHEM_BOND_DEF_STEREO_COUNT>  (1) 
0

>  <PUBCHEM_BOND_UDEF_STEREO_COUNT>  (1) 
0

>  <PUBCHEM_ISOTOPIC_ATOM_COUNT>  (1) 
0

>  <PUBCHEM_COMPONENT_COUNT>  (1) 
1

>  <PUBCHEM_CACTVS_TAUTO_COUNT>  (1) 
4

>  <PUBCHEM_CONFORMER_ID>  (1) 
0000AA9800000001

>  <PUBCHEM_MMFF94_ENERGY>  (1) 
89.9738

>  <PUBCHEM_FEATURE_SELFOVERLAP>  (1) 
79.926

>  <PUBCHEM_SHAPE_FINGERPRINT>  (1) 
10369192 42 18334855004803631021
10906281 52 18260272902436061539
11135609 187 18409730629916362065
11135926 11 18336256861192382767
11991303 11 18113339747030422894
12516196 113 9151168753342216948
12760667 363 10519987058750176800
13631057 29 18272362097519158775
13692115 46 18126582325537378694
13911987 19 18187916271089283333
14190465 44 18189898802556070164
14294032 229 18187072950155806276
14840074 17 17967532363461713125
14856354 85 18339920519746119567
15131766 46 13986667060391387878
15183329 4 13183019622749726924
15297060 5 18342458157727344435
15328829 1 17749666393966633678
15538507 32 18339361980381745616
1577012 14 18333725814941172508
16992610 120 18335994125421546908
18681886 176 18337946891451539985
21365058 27 18272089392212221239
3383291 50 18269555099224587975
4258327 124 18041850626980299188
5265222 85 18339922735231338280
5486654 2 18412542102770965609
5758199 1 18413671292538426025
6009941 240 14117525367671661287
6691757 9 18411426133097621346
6703917 75 18271815635254168426

>  <PUBCHEM_SHAPE_MULTIPOLES>  (1) 
678.72
21.95
3.63
1.71
20.75
4.71
0.02
-17.49
3.79
-2.45
-0.26
0.42
-0.14
-1.63

>  <PUBCHEM_SHAPE_SELFOVERLAP>  (1) 
1431.729

>  <PUBCHEM_SHAPE_VOLUME>  (1) 
382.8

>  <PUBCHEM_COORDINATE_TYPE>  (1) 
2
5
10

$$$$
