43685
     RDKit          3D

 21 20  0  0  0  0  0  0  0  0999 V2000
   -5.0772    0.7029    0.0795 S   0  0  0  0  0  0  0  0  0  0  0  0
    5.0722    0.7109   -0.0793 S   0  0  0  0  0  0  0  0  0  0  0  0
   -3.5889    0.0262    0.0719 O   0  0  0  0  0  0  0  0  0  0  0  0
    3.5911    0.0240   -0.0720 O   0  0  0  0  0  0  0  0  0  0  0  0
   -5.3089    1.3586   -1.1951 O   0  0  0  0  0  0  0  0  0  0  0  0
   -5.2791    1.3966    1.3390 O   0  0  0  0  0  0  0  0  0  0  0  0
    5.3092    1.3580    1.1951 O   0  0  0  0  0  0  0  0  0  0  0  0
    5.2795    1.3959   -1.3390 O   0  0  0  0  0  0  0  0  0  0  0  0
   -0.0005    0.8262    0.0000 N   0  0  0  0  0  0  0  0  0  0  0  0
   -6.0003   -0.8005    0.1128 C   0  0  0  0  0  0  0  0  0  0  0  0
    6.0008   -0.8012   -0.1128 C   0  0  0  0  0  0  0  0  0  0  0  0
   -7.4901   -0.5396   -0.0464 C   0  0  0  0  0  0  0  0  0  0  0  0
    7.4905   -0.5401    0.0463 C   0  0  0  0  0  0  0  0  0  0  0  0
   -8.2894   -1.8402    0.0027 C   0  0  0  0  0  0  0  0  0  0  0  0
    8.2898   -1.8407   -0.0028 C   0  0  0  0  0  0  0  0  0  0  0  0
   -1.1990    0.0019    0.0440 C   0  0  0  0  0  0  0  0  0  0  0  0
    1.1995    0.0009   -0.0440 C   0  0  0  0  0  0  0  0  0  0  0  0
   -2.4476    0.8694    0.0459 C   0  0  0  0  0  0  0  0  0  0  0  0
    2.4479    0.8685   -0.0458 C   0  0  0  0  0  0  0  0  0  0  0  0
   -9.7758   -1.5887   -0.1947 C   0  0  0  0  0  0  0  0  0  0  0  0
    9.7762   -1.5891    0.1946 C   0  0  0  0  0  0  0  0  0  0  0  0
  1  3  1  0
  1  5  2  0
  1  6  2  0
  1 10  1  0
  2  4  1  0
  2  7  2  0
  2  8  2  0
  2 11  1  0
  3 18  1  0
  4 19  1  0
  9 16  1  0
  9 17  1  0
 10 12  1  0
 11 13  1  0
 12 14  1  0
 13 15  1  0
 14 20  1  0
 15 21  1  0
 16 18  1  0
 17 19  1  0
M  END
>  <PUBCHEM_COMPOUND_CID>  (1) 
43685

>  <PUBCHEM_CONFORMER_RMSD>  (1) 
1

>  <PUBCHEM_CONFORMER_DIVERSEORDER>  (1) 
1
15
72
113
102
77
121
96
52
62
136
6
12
73
56
101
66
26
88
48
135
55
21
74
38
18
67
114
94
122
91
115
25
111
87
116
60
36
90
22
16
4
104
53
43
69
82
20
78
65
93
134
110
14
131
81
40
92
84
106
85
124
44
51
97
112
133
127
8
10
3
99
123
130
107
45
75
32
103
71
70
58
132
33
105
28
47
49
37
129
119
126
76
118
9
98
19
68
27
109
57
80
100
89
117
128
79
125
7
86
13
61
46
95
50
35
120
59
30
54
42
83
31
108
23
63
24
34
29
39
64
17
5
41
11
2

>  <PUBCHEM_MMFF94_PARTIAL_CHARGES>  (1) 
16
1 1.38
10 0.11
11 0.11
16 0.27
17 0.27
18 0.28
19 0.28
2 1.38
3 -0.46
4 -0.46
42 0.36
5 -0.65
6 -0.65
7 -0.65
8 -0.65
9 -0.9

>  <PUBCHEM_EFFECTIVE_ROTOR_COUNT>  (1) 
14

>  <PUBCHEM_PHARMACOPHORE_FEATURES>  (1) 
8
1 20 hydrophobe
1 21 hydrophobe
1 5 acceptor
1 6 acceptor
1 7 acceptor
1 8 acceptor
1 9 cation
1 9 donor

>  <PUBCHEM_HEAVY_ATOM_COUNT>  (1) 
21

>  <PUBCHEM_ATOM_DEF_STEREO_COUNT>  (1) 
0

>  <PUBCHEM_ATOM_UDEF_STEREO_COUNT>  (1) 
0

>  <PUBCHEM_BOND_DEF_STEREO_COUNT>  (1) 
0

>  <PUBCHEM_BOND_UDEF_STEREO_COUNT>  (1) 
0

>  <PUBCHEM_ISOTOPIC_ATOM_COUNT>  (1) 
0

>  <PUBCHEM_COMPONENT_COUNT>  (1) 
1

>  <PUBCHEM_CACTVS_TAUTO_COUNT>  (1) 
1

>  <PUBCHEM_CONFORMER_ID>  (1) 
0000AAA500000001

>  <PUBCHEM_MMFF94_ENERGY>  (1) 
-3.4977

>  <PUBCHEM_FEATURE_SELFOVERLAP>  (1) 
40.629

>  <PUBCHEM_SHAPE_FINGERPRINT>  (1) 
11463208 3 18410858758669515147
11638347 137 18201720652429348258
12091667 2 17530967960587141241
12498461 61 17989199356753019942
12592606 108 18334858307981770522
13533116 47 15285627765057289192
14202775 3 18410579482710811282
14251757 52 9511461117689511070
14251764 46 18412545413816282215
14428016 248 11887665204854747114
15183329 4 17313103046730390216
15461852 350 17457780094613375855
15510794 2 18410853261104912736
15690457 1 18411135836052537874
15716309 27 18131069364091594725
16120349 18 18187650233132655436
17093844 174 11671779378243233765
1754911 235 12251906997208848762
195137 175 11602537607144777647
21095086 128 18335420166428007618
21150785 3 17458622350584925429
21315763 28 18410575088958507436
232437 2 18410857659151820099
246663 6 18410576188469920839
33532 11 18335419024774055938
335352 9 18040440988902058390
5758199 1 11959732667994044781
59682541 35 17489582364666718010
636775 72 9727642704940659635
67123 10 18410012144117211284

>  <PUBCHEM_SHAPE_MULTIPOLES>  (1) 
399.67
35.99
1.74
0.84
0.01
0.41
0
23.53
0
0.01
0
0
-0.32
-0.39

>  <PUBCHEM_SHAPE_SELFOVERLAP>  (1) 
721.294

>  <PUBCHEM_SHAPE_VOLUME>  (1) 
256.1

>  <PUBCHEM_COORDINATE_TYPE>  (1) 
2
5
10

$$$$
