43699
     RDKit          3D

 22 21  0  0  0  0  0  0  0  0999 V2000
    8.2465   -0.3855    0.0135 S   0  0  0  0  0  0  0  0  0  0  0  0
   -8.2363    0.3223    0.0146 S   0  0  0  0  0  0  0  0  0  0  0  0
    6.7771    0.3265    0.0370 O   0  0  0  0  0  0  0  0  0  0  0  0
   -6.7463   -0.3453    0.0423 O   0  0  0  0  0  0  0  0  0  0  0  0
    8.4654   -0.9951   -1.2825 O   0  0  0  0  0  0  0  0  0  0  0  0
    8.4484   -1.1145    1.2492 O   0  0  0  0  0  0  0  0  0  0  0  0
   -8.4670    0.9313   -1.2795 O   0  0  0  0  0  0  0  0  0  0  0  0
   -8.4660    1.0389    1.2527 O   0  0  0  0  0  0  0  0  0  0  0  0
   -1.9044   -0.3153    0.0018 N   0  0  0  0  0  0  0  0  0  0  0  0
    1.8600    0.4675   -0.0177 C   0  0  0  0  0  0  0  0  0  0  0  0
    0.5718   -0.3613   -0.0156 C   0  0  0  0  0  0  0  0  0  0  0  0
    3.0976   -0.4324   -0.0080 C   0  0  0  0  0  0  0  0  0  0  0  0
   -0.6943    0.4968   -0.0400 C   0  0  0  0  0  0  0  0  0  0  0  0
    4.3834    0.3909    0.0238 C   0  0  0  0  0  0  0  0  0  0  0  0
   -3.0941    0.5242   -0.0122 C   0  0  0  0  0  0  0  0  0  0  0  0
    5.6197   -0.4964   -0.0096 C   0  0  0  0  0  0  0  0  0  0  0  0
   -4.3512   -0.3381    0.0407 C   0  0  0  0  0  0  0  0  0  0  0  0
   -5.6139    0.5122    0.0053 C   0  0  0  0  0  0  0  0  0  0  0  0
    9.2017    1.1082    0.0904 C   0  0  0  0  0  0  0  0  0  0  0  0
   -9.1465   -1.1998    0.0796 C   0  0  0  0  0  0  0  0  0  0  0  0
   10.6783    0.8320   -0.0846 C   0  0  0  0  0  0  0  0  0  0  0  0
  -10.6298   -0.9671   -0.1014 C   0  0  0  0  0  0  0  0  0  0  0  0
  1  3  1  0
  1  5  2  0
  1  6  2  0
  1 19  1  0
  2  4  1  0
  2  7  2  0
  2  8  2  0
  2 20  1  0
  3 16  1  0
  4 18  1  0
  9 13  1  0
  9 15  1  0
 10 11  1  0
 10 12  1  0
 11 13  1  0
 12 14  1  0
 14 16  1  0
 15 17  1  0
 17 18  1  0
 19 21  1  0
 20 22  1  0
M  END
>  <PUBCHEM_COMPOUND_CID>  (1) 
43699

>  <PUBCHEM_CONFORMER_RMSD>  (1) 
1.2

>  <PUBCHEM_CONFORMER_DIVERSEORDER>  (1) 
1
69
23
58
100
18
16
115
47
5
31
112
39
90
126
70
118
9
14
52
42
107
129
78
10
128
95
59
7
34
74
53
73
65
28
43
11
2
62
91
121
114
101
51
37
35
80
75
111
85
88
66
25
19
48
3
92
20
61
79
8
127
30
108
109
40
110
113
89
86
116
122
29
87
76
77
99
98
71
46
41
106
54
83
60
84
49
22
12
50
44
81
117
130
15
124
38
24
72
33
32
120
94
45
123
27
102
56
96
36
63
119
93
68
103
13
17
67
21
57
104
64
26
125
55
97
4
6
82
105

>  <PUBCHEM_MMFF94_PARTIAL_CHARGES>  (1) 
16
1 1.38
13 0.27
15 0.27
16 0.28
18 0.28
19 0.11
2 1.38
20 0.11
3 -0.46
35 0.36
4 -0.46
5 -0.65
6 -0.65
7 -0.65
8 -0.65
9 -0.9

>  <PUBCHEM_EFFECTIVE_ROTOR_COUNT>  (1) 
15

>  <PUBCHEM_PHARMACOPHORE_FEATURES>  (1) 
7
1 5 acceptor
1 6 acceptor
1 7 acceptor
1 8 acceptor
1 9 cation
1 9 donor
4 10 11 12 14 hydrophobe

>  <PUBCHEM_HEAVY_ATOM_COUNT>  (1) 
22

>  <PUBCHEM_ATOM_DEF_STEREO_COUNT>  (1) 
0

>  <PUBCHEM_ATOM_UDEF_STEREO_COUNT>  (1) 
0

>  <PUBCHEM_BOND_DEF_STEREO_COUNT>  (1) 
0

>  <PUBCHEM_BOND_UDEF_STEREO_COUNT>  (1) 
0

>  <PUBCHEM_ISOTOPIC_ATOM_COUNT>  (1) 
0

>  <PUBCHEM_COMPONENT_COUNT>  (1) 
1

>  <PUBCHEM_CACTVS_TAUTO_COUNT>  (1) 
1

>  <PUBCHEM_CONFORMER_ID>  (1) 
0000AAB300000001

>  <PUBCHEM_MMFF94_ENERGY>  (1) 
-3.3103

>  <PUBCHEM_FEATURE_SELFOVERLAP>  (1) 
35.553

>  <PUBCHEM_SHAPE_FINGERPRINT>  (1) 
14251764 46 18060420222604746110
14251920 1 18410856563934769867
15061470 23 18408882932058036013
15510794 2 18273219698649949510
21362267 2 17895745318484815340
21362267 20 18260546753689048227
21362267 313 18268429036514410434
232437 2 18412544318942578059
23521765 1 18341894086539116264
23581129 1 18409448093834543109
33684 2 8214145153305998728
59521270 166 18187076249772039927
67123 10 18410573993751961220
8209 1 18409730660102238060

>  <PUBCHEM_SHAPE_MULTIPOLES>  (1) 
420.25
47.32
1.07
0.82
1.38
0.04
-0.01
1.74
-0.22
0.09
0.02
0
0.01
-0.06

>  <PUBCHEM_SHAPE_SELFOVERLAP>  (1) 
758.482

>  <PUBCHEM_SHAPE_VOLUME>  (1) 
269

>  <PUBCHEM_COORDINATE_TYPE>  (1) 
2
5
10

$$$$
