43691
     RDKit          3D

 21 20  0  0  0  0  0  0  0  0999 V2000
   -7.6241    0.3084    0.0517 S   0  0  0  0  0  0  0  0  0  0  0  0
    7.5978    0.3105    0.0310 S   0  0  0  0  0  0  0  0  0  0  0  0
   -6.1428   -0.3788    0.0415 O   0  0  0  0  0  0  0  0  0  0  0  0
    6.1201   -0.3784   -0.0569 O   0  0  0  0  0  0  0  0  0  0  0  0
   -7.8676    0.9462   -1.2261 O   0  0  0  0  0  0  0  0  0  0  0  0
   -7.8242    1.0029    1.3074 O   0  0  0  0  0  0  0  0  0  0  0  0
    7.7850    0.8820    1.3490 O   0  0  0  0  0  0  0  0  0  0  0  0
    7.8485    1.0688   -1.1778 O   0  0  0  0  0  0  0  0  0  0  0  0
    2.5259    0.4109   -0.0711 N   0  0  0  0  0  0  0  0  0  0  0  0
   -1.2249   -0.4349   -0.0697 C   0  0  0  0  0  0  0  0  0  0  0  0
   -2.4772    0.4433   -0.0241 C   0  0  0  0  0  0  0  0  0  0  0  0
    0.0492    0.4153   -0.0607 C   0  0  0  0  0  0  0  0  0  0  0  0
   -3.7486   -0.4022    0.0009 C   0  0  0  0  0  0  0  0  0  0  0  0
    1.3291   -0.4202   -0.1202 C   0  0  0  0  0  0  0  0  0  0  0  0
   -4.9999    0.4645    0.0031 C   0  0  0  0  0  0  0  0  0  0  0  0
    3.7292   -0.4076   -0.1190 C   0  0  0  0  0  0  0  0  0  0  0  0
    4.9734    0.4610   -0.0237 C   0  0  0  0  0  0  0  0  0  0  0  0
   -8.5532   -1.2028    0.1014 C   0  0  0  0  0  0  0  0  0  0  0  0
    8.5330   -1.1952   -0.0568 C   0  0  0  0  0  0  0  0  0  0  0  0
  -10.0361   -0.9473   -0.0507 C   0  0  0  0  0  0  0  0  0  0  0  0
   10.0073   -0.9464    0.1707 C   0  0  0  0  0  0  0  0  0  0  0  0
  1  3  1  0
  1  5  2  0
  1  6  2  0
  1 18  1  0
  2  4  1  0
  2  7  2  0
  2  8  2  0
  2 19  1  0
  3 15  1  0
  4 17  1  0
  9 14  1  0
  9 16  1  0
 10 11  1  0
 10 12  1  0
 11 13  1  0
 12 14  1  0
 13 15  1  0
 16 17  1  0
 18 20  1  0
 19 21  1  0
M  END
>  <PUBCHEM_COMPOUND_CID>  (1) 
43691

>  <PUBCHEM_CONFORMER_RMSD>  (1) 
1

>  <PUBCHEM_CONFORMER_DIVERSEORDER>  (1) 
1
85
191
14
157
118
24
190
185
83
17
180
58
55
73
176
188
107
91
153
137
166
209
178
167
63
163
84
49
69
113
22
111
94
38
197
202
90
45
72
132
177
80
136
156
183
133
109
189
207
126
75
92
203
35
192
206
134
181
135
164
42
41
12
51
152
33
34
68
96
82
162
172
211
129
139
199
103
87
53
140
196
175
117
147
9
102
143
104
187
168
148
67
194
214
44
39
186
160
128
131
108
32
210
174
195
71
119
66
110
98
29
10
182
77
27
76
213
64
184
122
155
115
20
31
100
200
170
46
28
88
62
215
201
74
204
93
161
15
61
52
81
43
149
8
138
208
19
114
146
112
6
116
47
60
165
86
56
54
173
169
78
59
121
11
179
101
151
48
40
205
65
3
97
25
21
130
70
212
193
120
4
158
171
198
5
50
26
30
23
144
95
159
123
57
145
105
106
16
37
142
125
13
89
150
99
154
124
18
7
79
36
141
127
2

>  <PUBCHEM_MMFF94_PARTIAL_CHARGES>  (1) 
16
1 1.38
14 0.27
15 0.28
16 0.27
17 0.28
18 0.11
19 0.11
2 1.38
3 -0.46
34 0.36
4 -0.46
5 -0.65
6 -0.65
7 -0.65
8 -0.65
9 -0.9

>  <PUBCHEM_EFFECTIVE_ROTOR_COUNT>  (1) 
14

>  <PUBCHEM_PHARMACOPHORE_FEATURES>  (1) 
7
1 5 acceptor
1 6 acceptor
1 7 acceptor
1 8 acceptor
1 9 cation
1 9 donor
4 10 11 12 13 hydrophobe

>  <PUBCHEM_HEAVY_ATOM_COUNT>  (1) 
21

>  <PUBCHEM_ATOM_DEF_STEREO_COUNT>  (1) 
0

>  <PUBCHEM_ATOM_UDEF_STEREO_COUNT>  (1) 
0

>  <PUBCHEM_BOND_DEF_STEREO_COUNT>  (1) 
0

>  <PUBCHEM_BOND_UDEF_STEREO_COUNT>  (1) 
0

>  <PUBCHEM_ISOTOPIC_ATOM_COUNT>  (1) 
0

>  <PUBCHEM_COMPONENT_COUNT>  (1) 
1

>  <PUBCHEM_CACTVS_TAUTO_COUNT>  (1) 
1

>  <PUBCHEM_CONFORMER_ID>  (1) 
0000AAAB00000001

>  <PUBCHEM_MMFF94_ENERGY>  (1) 
-3.0746

>  <PUBCHEM_FEATURE_SELFOVERLAP>  (1) 
35.553

>  <PUBCHEM_SHAPE_FINGERPRINT>  (1) 
11315181 36 18342459241182306673
11638347 137 18341613690533276278
14202775 3 18410016532762632275
14251764 18 18273216382697378257
14251764 46 18411982459557337614
15510794 2 18410015433261073251
155225 1 10087633807243637226
16120349 18 17603870044011392252
21095086 128 18259984864512140466
21362267 20 18271804666204672567
21362267 313 17750787766481970528
22224240 67 18409729568859122834
232437 2 18408323284855045202
23521765 1 18341895190345685365
23581129 1 18409449184756346751
246663 6 17167864158124212318
33684 2 18342457040893103862
59521270 166 18114175321657101431
59682541 35 18272369797762569955
67123 10 18334013899835725959
8209 1 18410575088958052732

>  <PUBCHEM_SHAPE_MULTIPOLES>  (1) 
399.67
42.06
1.08
0.84
2.06
0.1
-0.05
6.22
-1.45
-0.02
0
0
-0.22
-0.08

>  <PUBCHEM_SHAPE_SELFOVERLAP>  (1) 
720.555

>  <PUBCHEM_SHAPE_VOLUME>  (1) 
256.2

>  <PUBCHEM_COORDINATE_TYPE>  (1) 
2
5
10

$$$$
