437
     RDKit          3D

 13 13  0  0  0  0  0  0  0  0999 V2000
    0.1426    2.0485    0.0008 O   0  0  0  0  0  0  0  0  0  0  0  0
    4.8608    0.2362    0.0154 O   0  0  0  0  0  0  0  0  0  0  0  0
    3.5157   -1.5961   -0.0147 O   0  0  0  0  0  0  0  0  0  0  0  0
   -2.7982   -1.6574    0.0060 N   0  0  0  0  0  0  0  0  0  0  0  0
    1.1674   -0.1324    0.0127 C   0  0  0  0  0  0  0  0  0  0  0  0
    2.5058    0.5971   -0.0107 C   0  0  0  0  0  0  0  0  0  0  0  0
   -0.0106    0.8292    0.0042 C   0  0  0  0  0  0  0  0  0  0  0  0
   -1.3940    0.2684    0.0019 C   0  0  0  0  0  0  0  0  0  0  0  0
   -2.4687    1.1184   -0.0059 C   0  0  0  0  0  0  0  0  0  0  0  0
    3.6527   -0.3797   -0.0080 C   0  0  0  0  0  0  0  0  0  0  0  0
   -1.5734   -1.0850    0.0076 C   0  0  0  0  0  0  0  0  0  0  0  0
   -3.7452    0.5669   -0.0077 C   0  0  0  0  0  0  0  0  0  0  0  0
   -3.8549   -0.8142   -0.0016 C   0  0  0  0  0  0  0  0  0  0  0  0
  1  7  2  0
  2 10  1  0
  3 10  2  0
  4 11  2  0
  4 13  1  0
  5  6  1  0
  5  7  1  0
  6 10  1  0
  7  8  1  0
  8  9  2  0
  8 11  1  0
  9 12  1  0
 12 13  2  0
M  END
>  <PUBCHEM_COMPOUND_CID>  (1) 
437

>  <PUBCHEM_CONFORMER_RMSD>  (1) 
0.6

>  <PUBCHEM_CONFORMER_DIVERSEORDER>  (1) 
1
71
9
76
48
17
70
50
77
10
13
4
72
43
75
28
47
38
73
45
22
78
55
69
2
8
53
52
46
67
16
56
7
68
44
3
54
59
37
33
20
62
32
64
79
12
49
74
40
66
51
6
15
58
24
30
65
21
41
11
63
57
35
29
60
23
31
25
36
42
5
19
61
14
39
27
18
34
26

>  <PUBCHEM_MMFF94_PARTIAL_CHARGES>  (1) 
18
1 -0.57
10 0.66
11 0.16
12 -0.15
13 0.16
18 0.15
19 0.15
2 -0.65
20 0.15
21 0.15
22 0.5
3 -0.57
4 -0.62
5 0.06
6 0.06
7 0.42
8 0.09
9 -0.15

>  <PUBCHEM_EFFECTIVE_ROTOR_COUNT>  (1) 
4

>  <PUBCHEM_PHARMACOPHORE_FEATURES>  (1) 
6
1 1 acceptor
1 2 acceptor
1 3 acceptor
1 4 acceptor
3 2 3 10 anion
6 4 8 9 11 12 13 rings

>  <PUBCHEM_HEAVY_ATOM_COUNT>  (1) 
13

>  <PUBCHEM_ATOM_DEF_STEREO_COUNT>  (1) 
0

>  <PUBCHEM_ATOM_UDEF_STEREO_COUNT>  (1) 
0

>  <PUBCHEM_BOND_DEF_STEREO_COUNT>  (1) 
0

>  <PUBCHEM_BOND_UDEF_STEREO_COUNT>  (1) 
0

>  <PUBCHEM_ISOTOPIC_ATOM_COUNT>  (1) 
0

>  <PUBCHEM_COMPONENT_COUNT>  (1) 
1

>  <PUBCHEM_CACTVS_TAUTO_COUNT>  (1) 
2

>  <PUBCHEM_CONFORMER_ID>  (1) 
000001B500000001

>  <PUBCHEM_MMFF94_ENERGY>  (1) 
27.2531

>  <PUBCHEM_FEATURE_SELFOVERLAP>  (1) 
30.506

>  <PUBCHEM_SHAPE_FINGERPRINT>  (1) 
10465860 250 18201434770536584808
12032990 46 18411140237961116347
12932764 1 17313372431326780364
13296908 3 18411697707620716008
13690532 89 18411135853385076103
14252887 29 17846508028024175590
14325111 11 18410575089042539684
14577589 140 17989203754914678879
14911166 2 18336255791645214709
15196674 1 18410573955324466146
15242433 33 18408043996280179022
17804303 29 18342178890490157657
18186145 218 16081089307161657756
19107657 46 18412263934761142142
19422 9 18335145309958801501
200 152 17774994705258624669
20201158 50 18341896276977952431
20279233 1 17917999368804052086
20281407 28 18413390929973952232
20645477 70 18270399387158651014
21267235 1 18410020947982886810
22485316 2 18410571782097017882
23402539 116 18060413604635467957
23463225 33 18410294696434576014
23559900 14 18340482271392556514
3312278 4 18410857642008478128
7364860 26 18196371652497953952
77779 3 18410857659510139460
8809292 202 18261677081415859035
9709674 26 18411143532475988662

>  <PUBCHEM_SHAPE_MULTIPOLES>  (1) 
244.94
8.3
1.56
0.59
5.87
0
0
1.89
0.01
-0.42
0
-0.05
-0.01
0.01

>  <PUBCHEM_SHAPE_SELFOVERLAP>  (1) 
506.257

>  <PUBCHEM_SHAPE_VOLUME>  (1) 
138.7

>  <PUBCHEM_COORDINATE_TYPE>  (1) 
2
5
10

$$$$
