43702
     RDKit          3D

 21 23  0  0  1  0  0  0  0  0999 V2000
    4.0611    1.5315   -0.5073 O   0  0  0  0  0  0  0  0  0  0  0  0
    3.4337   -1.7301    0.4171 O   0  0  0  0  0  0  0  0  0  0  0  0
    5.6754   -0.0850   -0.1382 O   0  0  0  0  0  0  0  0  0  0  0  0
   -1.3989   -0.3143    0.0003 N   0  0  0  0  0  0  0  0  0  0  0  0
   -0.2808    0.4575   -0.0601 N   0  0  0  0  0  0  0  0  0  0  0  0
   -0.9636   -1.7365    0.1038 C   0  0  0  0  0  0  0  0  0  0  0  0
    0.5564   -1.6119    0.5020 C   0  0  0  0  0  0  0  0  0  0  0  0
    0.9017   -0.2005    0.1129 C   0  0  0  0  0  0  0  0  0  0  0  0
   -1.0679   -2.4385   -1.2581 C   0  0  0  0  0  0  0  0  0  0  0  0
   -1.6793   -2.5199    1.2083 C   0  0  0  0  0  0  0  0  0  0  0  0
    2.1440    0.2593   -0.0624 C   0  0  0  0  0  0  0  0  0  0  0  0
   -2.6960    0.1994   -0.0290 C   0  0  0  0  0  0  0  0  0  0  0  0
    2.6153    1.6173   -0.4441 C   0  0  0  0  0  0  0  0  0  0  0  0
    3.3397   -0.5649    0.1049 C   0  0  0  0  0  0  0  0  0  0  0  0
    2.2477    2.6997    0.5600 C   0  0  0  0  0  0  0  0  0  0  0  0
   -3.7651   -0.5464   -0.5715 C   0  0  0  0  0  0  0  0  0  0  0  0
   -2.9859    1.4827    0.4832 C   0  0  0  0  0  0  0  0  0  0  0  0
    4.5279    0.3011   -0.1889 C   0  0  0  0  0  0  0  0  0  0  0  0
   -5.0619   -0.0334   -0.6002 C   0  0  0  0  0  0  0  0  0  0  0  0
   -4.2826    1.9957    0.4546 C   0  0  0  0  0  0  0  0  0  0  0  0
   -5.3207    1.2375   -0.0872 C   0  0  0  0  0  0  0  0  0  0  0  0
  1 13  1  0
  1 18  1  0
  2 14  2  0
  3 18  2  0
  4  5  1  0
  4  6  1  0
  4 12  1  0
  5  8  1  0
  6  7  1  0
  6  9  1  0
  6 10  1  0
  7  8  1  0
  8 11  2  0
 11 13  1  0
 11 14  1  0
 12 16  2  0
 12 17  1  0
 13 15  1  0
 14 18  1  0
 16 19  1  0
 17 20  2  0
 19 21  2  0
 20 21  1  0
M  END
>  <PUBCHEM_COMPOUND_CID>  (1) 
43702

>  <PUBCHEM_CONFORMER_RMSD>  (1) 
0.6

>  <PUBCHEM_CONFORMER_DIVERSEORDER>  (1) 
2
1

>  <PUBCHEM_MMFF94_PARTIAL_CHARGES>  (1) 
24
1 -0.43
11 -0.12
12 0.1
13 0.42
14 0.56
16 -0.15
17 -0.15
18 0.72
19 -0.15
2 -0.57
20 -0.15
21 -0.15
24 0.4
3 -0.57
35 0.15
36 0.15
37 0.15
38 0.15
39 0.15
4 -0.47
5 -0.5
6 0.37
7 0.14
8 -0.04

>  <PUBCHEM_EFFECTIVE_ROTOR_COUNT>  (1) 
2.2

>  <PUBCHEM_PHARMACOPHORE_FEATURES>  (1) 
7
1 2 acceptor
1 3 acceptor
1 5 donor
3 6 9 10 hydrophobe
5 1 11 13 14 18 rings
5 4 5 6 7 8 rings
6 12 16 17 19 20 21 rings

>  <PUBCHEM_HEAVY_ATOM_COUNT>  (1) 
21

>  <PUBCHEM_ATOM_DEF_STEREO_COUNT>  (1) 
0

>  <PUBCHEM_ATOM_UDEF_STEREO_COUNT>  (1) 
1

>  <PUBCHEM_BOND_DEF_STEREO_COUNT>  (1) 
0

>  <PUBCHEM_BOND_UDEF_STEREO_COUNT>  (1) 
1

>  <PUBCHEM_ISOTOPIC_ATOM_COUNT>  (1) 
0

>  <PUBCHEM_COMPONENT_COUNT>  (1) 
1

>  <PUBCHEM_CACTVS_TAUTO_COUNT>  (1) 
5

>  <PUBCHEM_CONFORMER_ID>  (1) 
0000AAB600000002

>  <PUBCHEM_MMFF94_ENERGY>  (1) 
71.6257

>  <PUBCHEM_FEATURE_SELFOVERLAP>  (1) 
35.524

>  <PUBCHEM_SHAPE_FINGERPRINT>  (1) 
10411042 1 17399230854931156195
11405975 8 18261672687901360848
11578080 2 17130130147176974914
12107183 9 17618504285677963993
12236239 1 18342173345312702236
12596602 18 14129351684332539605
12633257 1 18114732798666646138
12644460 14 17749946661640601922
12788726 201 17988088777173506512
12916748 109 18413114944002329973
13140716 1 18335133245838662072
13544653 18 10447926191820393355
13583140 156 17022624195475790881
15099037 51 18411702071497366926
15196674 1 18410012147832157205
15420108 30 16328803436002414776
17349148 13 12607405494504919630
18186145 218 18409159996250585173
20602899 9 16845578646896328383
21033648 144 18263070162474236780
21033648 29 17531512235775028765
21033650 10 16987185788803789184
21267235 1 18411708698378820399
21524375 3 18410012113678049727
23402539 116 18202839950691862845
23402655 69 18413386540258847956
23558518 356 17826234283179699322
23559900 14 18271239534222046432
298252 57 18201717345194059323
3004659 81 18262242119530598622
335352 9 18408887330847644446
345986 75 17753589266812682488
34934 24 18410570700240097498
350125 39 18263935495473762411
351380 180 18413669110605518045
3545911 37 18334859432645789678
404807 14 16119962261790051254
4214541 1 18410012160637762469
474 4 18337392639275884699
474229 33 18410578414170425987
495365 180 17703217520855743904
5104073 3 18261109707434782600
543358 83 18408886226851326762
59755656 520 18040432200824211315
6138700 20 18196939859976785430
6328613 192 18334584581369181564
633830 44 18337952286331260559
69090 78 18411416224017238503
7832392 63 18337951289856415656
9709674 26 18341620338340992374
9981440 41 17617930778932845264

>  <PUBCHEM_SHAPE_MULTIPOLES>  (1) 
404.6
10.82
2.65
0.87
0.48
0.22
0
-4.66
1.11
-0.35
-0.36
-0.3
0.32
-0.42

>  <PUBCHEM_SHAPE_SELFOVERLAP>  (1) 
871.666

>  <PUBCHEM_SHAPE_VOLUME>  (1) 
224.9

>  <PUBCHEM_COORDINATE_TYPE>  (1) 
2
5
10

$$$$
