43708
     RDKit          3D

 34 37  0  0  1  0  0  0  0  0999 V2000
    2.0077    0.4809   -1.4868 S   0  0  0  0  0  0  0  0  0  0  0  0
   -2.7171    0.0541   -0.7280 S   0  0  0  0  0  0  0  0  0  0  0  0
    5.5279   -3.7037   -1.5555 S   0  0  0  0  0  0  0  0  0  0  0  0
    1.9557    3.0070    2.4157 O   0  0  0  0  0  0  0  0  0  0  0  0
   -1.2789    4.0361    0.7842 O   0  0  0  0  0  0  0  0  0  0  0  0
   -1.3504    2.1151    2.0229 O   0  0  0  0  0  0  0  0  0  0  0  0
    5.9903    1.2501   -0.1570 O   0  0  0  0  0  0  0  0  0  0  0  0
    1.2707    2.3393    0.2603 N   0  0  0  0  0  0  0  0  0  0  0  0
    3.9303    0.9303    0.8614 N   0  0  0  0  0  0  0  0  0  0  0  0
   -5.3149   -0.7118   -0.9968 N   0  0  0  0  0  0  0  0  0  0  0  0
   -5.5146   -2.9318    1.9924 N   0  0  0  0  0  0  0  0  0  0  0  0
    4.1322   -2.5141    0.2665 N   0  0  0  0  0  0  0  0  0  0  0  0
   -4.8556    1.1424   -2.0232 N   0  0  0  0  0  0  0  0  0  0  0  0
   -6.4665   -0.3293   -1.5659 N   0  0  0  0  0  0  0  0  0  0  0  0
   -6.1797    0.8055   -2.1919 N   0  0  0  0  0  0  0  0  0  0  0  0
    3.0355   -4.2935   -0.8385 N   0  0  0  0  0  0  0  0  0  0  0  0
    2.2861    2.1079   -0.7508 C   0  0  0  0  0  0  0  0  0  0  0  0
    3.3119    2.1734    0.4019 C   0  0  0  0  0  0  0  0  0  0  0  0
    2.1104    2.6308    1.2774 C   0  0  0  0  0  0  0  0  0  0  0  0
   -0.0632    2.2352    0.0282 C   0  0  0  0  0  0  0  0  0  0  0  0
   -0.5423    1.6249   -1.0818 C   0  0  0  0  0  0  0  0  0  0  0  0
    0.3476    0.9209   -2.1039 C   0  0  0  0  0  0  0  0  0  0  0  0
   -2.0041    1.5410   -1.4505 C   0  0  0  0  0  0  0  0  0  0  0  0
   -0.9637    2.7568    1.0671 C   0  0  0  0  0  0  0  0  0  0  0  0
    5.2390    0.5693    0.5368 C   0  0  0  0  0  0  0  0  0  0  0  0
    5.6258   -0.7711    1.1357 C   0  0  0  0  0  0  0  0  0  0  0  0
    5.3632   -1.9114    0.2034 C   0  0  0  0  0  0  0  0  0  0  0  0
   -4.3864    0.1942   -1.2964 C   0  0  0  0  0  0  0  0  0  0  0  0
   -5.2531   -1.9255   -0.2223 C   0  0  0  0  0  0  0  0  0  0  0  0
   -5.5624   -1.6777    1.2513 C   0  0  0  0  0  0  0  0  0  0  0  0
    6.2561   -2.4018   -0.7092 C   0  0  0  0  0  0  0  0  0  0  0  0
    4.1044   -3.4813   -0.6233 C   0  0  0  0  0  0  0  0  0  0  0  0
   -5.8489   -2.7119    3.4008 C   0  0  0  0  0  0  0  0  0  0  0  0
   -4.1926   -3.5502    1.8758 C   0  0  0  0  0  0  0  0  0  0  0  0
  1 17  1  0
  1 22  1  0
  2 23  1  0
  2 28  1  0
  3 31  1  0
  3 32  1  0
  4 19  2  0
  5 24  1  0
  6 24  2  0
  7 25  2  0
  8 17  1  0
  8 19  1  0
  8 20  1  0
  9 18  1  0
  9 25  1  0
 10 14  1  0
 10 28  1  0
 10 29  1  0
 11 30  1  0
 11 33  1  0
 11 34  1  0
 12 27  1  0
 12 32  2  0
 13 15  1  0
 13 28  2  0
 14 15  2  0
 16 32  1  0
 17 18  1  0
 18 19  1  0
 20 21  2  0
 20 24  1  0
 21 22  1  0
 21 23  1  0
 25 26  1  0
 26 27  1  0
 27 31  2  0
 29 30  1  0
M  END
>  <PUBCHEM_COMPOUND_CID>  (1) 
43708

>  <PUBCHEM_CONFORMER_RMSD>  (1) 
1.2

>  <PUBCHEM_CONFORMER_DIVERSEORDER>  (1) 
2
47
42
128
57
101
129
151
27
56
6
110
113
83
169
90
87
171
61
183
106
54
20
105
49
132
156
143
76
118
114
145
126
131
53
153
107
141
3
137
24
67
149
7
150
182
33
92
163
123
59
63
97
31
5
44
161
122
108
99
178
154
142
81
181
103
80
170
37
82
84
96
138
30
119
124
159
18
39
158
127
167
14
104
160
175
23
9
40
135
1
112
93
95
86
28
146
34
13
152
50
147
176
130
94
121
75
148
125
134
21
16
144
46
187
98
71
164
25
78
120
64
26
29
22
36
196
117
62
162
139
52
100
133
172
74
41
155
38
69
32
51
140
116
65
157
55
58
70
35
11
60
72
89
190
10
66
4
166
115
165
8
174
77
136
102
88
173
68
73
168
180
193
43
191
188
12
177
192
15
109
79
195
111
179
91
184
45
19
85
17
186
48
185
189
194

>  <PUBCHEM_MMFF94_PARTIAL_CHARGES>  (1) 
38
1 -0.45
10 0.31
11 -0.81
12 -0.57
13 -0.34
14 -0.42
16 -0.88
17 0.44
18 0.28
19 0.58
2 -0.29
20 0.12
21 -0.28
22 0.37
23 0.37
24 0.71
25 0.57
26 0.24
27 0.05
28 0.24
29 0.26
3 -0.08
30 0.27
31 -0.11
32 0.46
33 0.27
34 0.27
39 0.37
4 -0.57
44 0.5
49 0.15
5 -0.65
56 0.4
57 0.4
6 -0.57
7 -0.57
8 -0.39
9 -0.65

>  <PUBCHEM_EFFECTIVE_ROTOR_COUNT>  (1) 
11.6

>  <PUBCHEM_PHARMACOPHORE_FEATURES>  (1) 
14
1 11 cation
1 16 donor
1 4 acceptor
1 5 acceptor
1 6 acceptor
1 7 acceptor
1 9 donor
3 10 13 28 cation
3 12 16 32 cation
3 5 6 24 anion
4 8 17 18 19 rings
5 10 13 14 15 28 rings
5 3 12 27 31 32 rings
6 1 8 17 20 21 22 rings

>  <PUBCHEM_HEAVY_ATOM_COUNT>  (1) 
34

>  <PUBCHEM_ATOM_DEF_STEREO_COUNT>  (1) 
2

>  <PUBCHEM_ATOM_UDEF_STEREO_COUNT>  (1) 
0

>  <PUBCHEM_BOND_DEF_STEREO_COUNT>  (1) 
0

>  <PUBCHEM_BOND_UDEF_STEREO_COUNT>  (1) 
0

>  <PUBCHEM_ISOTOPIC_ATOM_COUNT>  (1) 
0

>  <PUBCHEM_COMPONENT_COUNT>  (1) 
1

>  <PUBCHEM_CACTVS_TAUTO_COUNT>  (1) 
4

>  <PUBCHEM_CONFORMER_ID>  (1) 
0000AABC00000002

>  <PUBCHEM_MMFF94_ENERGY>  (1) 
72.5649

>  <PUBCHEM_FEATURE_SELFOVERLAP>  (1) 
71.361

>  <PUBCHEM_SHAPE_FINGERPRINT>  (1) 
10049733 57 18408892845275455243
10864689 126 18116989992443349455
117089 54 18056482747424280782
11796584 16 17895181208414592109
12422481 6 16845302596262650693
12758862 65 18197471027462068890
13383661 66 18187659027843745171
13533116 47 18201988924808557460
1361 87 18333735693445678723
13782708 43 18261108608134196135
13947930 73 18335695066126864614
14211702 104 18113339738603531559
14739800 52 12319473060250304309
15510800 12 18408885110271009218
17852330 28 17049675234783009222
20587220 46 17102590753047268475
23559900 14 18261099795030597477
25122255 55 18113619001835309607
25269216 80 16371021731750792867
2835820 90 18259992578020755371
3886686 26 17195734359858884380
437795 96 18335420222490293459
4435113 14 18260834812427765643
6201320 77 18337126617739406387
86090 222 18334569132007756114

>  <PUBCHEM_SHAPE_MULTIPOLES>  (1) 
642.95
17.74
5.53
2.48
7.41
3.13
0.9
18.33
-0.03
-2.72
2.03
3.95
0.45
6.15

>  <PUBCHEM_SHAPE_SELFOVERLAP>  (1) 
1321.019

>  <PUBCHEM_SHAPE_VOLUME>  (1) 
374.5

>  <PUBCHEM_COORDINATE_TYPE>  (1) 
2
5
10

$$$$
