43712
     RDKit          3D

 19 21  0  0  1  0  0  0  0  0999 V2000
   -2.6137    2.2305   -0.4766 O   0  0  0  0  0  0  0  0  0  0  0  0
    4.2505   -0.7993    1.3564 O   0  0  0  0  0  0  0  0  0  0  0  0
    3.3897   -0.1170   -0.7296 N   0  0  0  0  0  0  0  0  0  0  0  0
   -1.6385    2.1707    0.5722 C   0  0  0  0  0  0  0  0  0  0  0  0
   -2.8614    1.3093    0.5871 C   0  0  0  0  0  0  0  0  0  0  0  0
   -0.3274    1.5743    0.2328 C   0  0  0  0  0  0  0  0  0  0  0  0
   -2.7512   -0.1397    0.2573 C   0  0  0  0  0  0  0  0  0  0  0  0
    0.4931    1.0496    1.2385 C   0  0  0  0  0  0  0  0  0  0  0  0
    0.1062    1.5284   -1.0978 C   0  0  0  0  0  0  0  0  0  0  0  0
   -2.8927   -0.5673   -1.0629 C   0  0  0  0  0  0  0  0  0  0  0  0
   -2.5086   -1.0688    1.2691 C   0  0  0  0  0  0  0  0  0  0  0  0
    1.7291    0.4877    0.9186 C   0  0  0  0  0  0  0  0  0  0  0  0
    1.3421    0.9662   -1.4177 C   0  0  0  0  0  0  0  0  0  0  0  0
    2.1535    0.4458   -0.4096 C   0  0  0  0  0  0  0  0  0  0  0  0
   -2.7921   -1.9239   -1.3713 C   0  0  0  0  0  0  0  0  0  0  0  0
   -2.4078   -2.4255    0.9605 C   0  0  0  0  0  0  0  0  0  0  0  0
   -2.5495   -2.8529   -0.3597 C   0  0  0  0  0  0  0  0  0  0  0  0
    4.3325   -0.6843    0.1378 C   0  0  0  0  0  0  0  0  0  0  0  0
    5.5462   -1.1836   -0.6050 C   0  0  0  0  0  0  0  0  0  0  0  0
  1  4  1  0
  1  5  1  0
  2 18  2  0
  3 14  1  0
  3 18  1  0
  4  5  1  0
  4  6  1  0
  5  7  1  0
  6  8  2  0
  6  9  1  0
  7 10  2  0
  7 11  1  0
  8 12  1  0
  9 13  2  0
 10 15  1  0
 11 16  2  0
 12 14  2  0
 13 14  1  0
 15 17  2  0
 16 17  1  0
 18 19  1  0
M  END
>  <PUBCHEM_COMPOUND_CID>  (1) 
43712

>  <PUBCHEM_CONFORMER_RMSD>  (1) 
0.6

>  <PUBCHEM_CONFORMER_DIVERSEORDER>  (1) 
2
6
7
3
8
4
5
1

>  <PUBCHEM_MMFF94_PARTIAL_CHARGES>  (1) 
31
1 -0.3
10 -0.15
11 -0.15
12 -0.15
13 -0.15
14 0.12
15 -0.15
16 -0.15
17 -0.15
18 0.57
19 0.06
2 -0.57
20 0.1
21 0.1
22 0.15
23 0.15
24 0.15
25 0.15
26 0.15
27 0.15
28 0.15
29 0.15
3 -0.55
30 0.15
31 0.37
4 0.08
5 0.08
6 -0.03
7 -0.03
8 -0.15
9 -0.15

>  <PUBCHEM_EFFECTIVE_ROTOR_COUNT>  (1) 
4.6

>  <PUBCHEM_PHARMACOPHORE_FEATURES>  (1) 
5
1 1 acceptor
1 2 acceptor
1 3 donor
6 6 8 9 12 13 14 rings
6 7 10 11 15 16 17 rings

>  <PUBCHEM_HEAVY_ATOM_COUNT>  (1) 
19

>  <PUBCHEM_ATOM_DEF_STEREO_COUNT>  (1) 
2

>  <PUBCHEM_ATOM_UDEF_STEREO_COUNT>  (1) 
0

>  <PUBCHEM_BOND_DEF_STEREO_COUNT>  (1) 
0

>  <PUBCHEM_BOND_UDEF_STEREO_COUNT>  (1) 
0

>  <PUBCHEM_ISOTOPIC_ATOM_COUNT>  (1) 
0

>  <PUBCHEM_COMPONENT_COUNT>  (1) 
1

>  <PUBCHEM_CACTVS_TAUTO_COUNT>  (1) 
2

>  <PUBCHEM_CONFORMER_ID>  (1) 
0000AAC000000002

>  <PUBCHEM_MMFF94_ENERGY>  (1) 
51.2271

>  <PUBCHEM_FEATURE_SELFOVERLAP>  (1) 
25.371

>  <PUBCHEM_SHAPE_FINGERPRINT>  (1) 
10366900 7 17560229207612716576
10616163 171 18410578357819081278
107951 10 17823708464684865291
11045977 3 17988916744078733416
11046707 91 18411138030733015630
11370993 144 16916520146564012618
11552529 35 17561080341097343278
12346177 29 18411131411814009092
12363563 72 18199464548894928279
12500047 106 18267862787562388252
12553582 1 18197230332450518959
12633257 1 16988296368382685547
128993 33 7924264453150934631
13583140 156 17489010626967434144
14123260 362 10087640407684782882
14251764 30 17097510936296681971
15209294 21 11671783741560585146
15342168 16 8645678195811010951
16752209 62 18262784212769149121
167882 2 17469594110593490957
17349148 13 17386854005251646468
18186145 218 15430323563643609060
18981168 100 8573618415486542577
20291156 8 18262805201651871483
20645476 183 17821729386799389425
20775530 9 17903918108061110682
21452121 199 18195242454013672689
21452121 71 18335145323292427756
21634736 98 18041568056385663412
21731516 1 18124888012546251965
232386 152 18411425024389507732
23402539 116 17386009417275728716
23559900 14 18341606032263845848
23598288 3 18116176448738921625
23728640 28 18411705348757990891
27216 239 10375601420831329511
465052 167 17825699831115022369
559249 180 18190176785175288306
568465 68 16917353649065087868
574716 61 17386874822857455886
602551 16 18342173350378153546

>  <PUBCHEM_SHAPE_MULTIPOLES>  (1) 
374.29
8.25
2.73
1.4
12.18
0.66
0.03
5.13
0.2
-2.78
0.06
-0.12
0.14
-0.28

>  <PUBCHEM_SHAPE_SELFOVERLAP>  (1) 
806.133

>  <PUBCHEM_SHAPE_VOLUME>  (1) 
205.8

>  <PUBCHEM_COORDINATE_TYPE>  (1) 
2
5
10

$$$$
