43711
     RDKit          3D

 19 20  0  0  0  0  0  0  0  0999 V2000
    1.7309    2.8757    1.2940 Cl  0  0  0  0  0  0  0  0  0  0  0  0
   -2.9827    1.6974   -2.3924 Cl  0  0  0  0  0  0  0  0  0  0  0  0
    2.9501   -2.7534   -1.1150 Cl  0  0  0  0  0  0  0  0  0  0  0  0
   -5.0314   -0.5915   -1.3751 Cl  0  0  0  0  0  0  0  0  0  0  0  0
    5.0253   -0.2986   -1.4975 Cl  0  0  0  0  0  0  0  0  0  0  0  0
    0.0064    0.4211    1.4830 O   0  0  0  0  0  0  0  0  0  0  0  0
   -1.7535   -1.5445    2.3567 O   0  0  0  0  0  0  0  0  0  0  0  0
   -1.1594    0.1904    0.8173 C   0  0  0  0  0  0  0  0  0  0  0  0
    1.1893    0.2590    0.7825 C   0  0  0  0  0  0  0  0  0  0  0  0
   -2.0426   -0.7964    1.2556 C   0  0  0  0  0  0  0  0  0  0  0  0
   -1.4669    0.9503   -0.3114 C   0  0  0  0  0  0  0  0  0  0  0  0
    2.0656    1.3195    0.6284 C   0  0  0  0  0  0  0  0  0  0  0  0
    1.4621   -0.9886    0.2471 C   0  0  0  0  0  0  0  0  0  0  0  0
   -3.2333   -1.0233    0.5655 C   0  0  0  0  0  0  0  0  0  0  0  0
   -2.6577    0.7233   -1.0016 C   0  0  0  0  0  0  0  0  0  0  0  0
    2.6469   -1.1810   -0.4634 C   0  0  0  0  0  0  0  0  0  0  0  0
    3.2505    1.1272   -0.0822 C   0  0  0  0  0  0  0  0  0  0  0  0
   -3.5408   -0.2635   -0.5631 C   0  0  0  0  0  0  0  0  0  0  0  0
    3.5412   -0.1231   -0.6282 C   0  0  0  0  0  0  0  0  0  0  0  0
  1 12  1  0
  2 15  1  0
  3 16  1  0
  4 18  1  0
  5 19  1  0
  6  8  1  0
  6  9  1  0
  7 10  1  0
  8 10  2  0
  8 11  1  0
  9 12  2  0
  9 13  1  0
 10 14  1  0
 11 15  2  0
 12 17  1  0
 13 16  2  0
 14 18  2  0
 15 18  1  0
 16 19  1  0
 17 19  2  0
M  END
>  <PUBCHEM_COMPOUND_CID>  (1) 
43711

>  <PUBCHEM_CONFORMER_RMSD>  (1) 
0.6

>  <PUBCHEM_CONFORMER_DIVERSEORDER>  (1) 
1
12
10
5
8
14
2
9
4
3
7
6
11
13

>  <PUBCHEM_MMFF94_PARTIAL_CHARGES>  (1) 
24
1 -0.18
10 0.08
11 -0.15
12 0.18
13 -0.15
14 -0.15
15 0.18
16 0.18
17 -0.15
18 0.18
19 0.18
2 -0.18
20 0.15
21 0.15
22 0.15
23 0.15
24 0.45
3 -0.18
4 -0.18
5 -0.18
6 -0.17
7 -0.53
8 0.08
9 0.08

>  <PUBCHEM_EFFECTIVE_ROTOR_COUNT>  (1) 
2

>  <PUBCHEM_PHARMACOPHORE_FEATURES>  (1) 
4
1 6 acceptor
1 7 donor
6 8 10 11 14 15 18 rings
6 9 12 13 16 17 19 rings

>  <PUBCHEM_HEAVY_ATOM_COUNT>  (1) 
19

>  <PUBCHEM_ATOM_DEF_STEREO_COUNT>  (1) 
0

>  <PUBCHEM_ATOM_UDEF_STEREO_COUNT>  (1) 
0

>  <PUBCHEM_BOND_DEF_STEREO_COUNT>  (1) 
0

>  <PUBCHEM_BOND_UDEF_STEREO_COUNT>  (1) 
0

>  <PUBCHEM_ISOTOPIC_ATOM_COUNT>  (1) 
0

>  <PUBCHEM_COMPONENT_COUNT>  (1) 
1

>  <PUBCHEM_CACTVS_TAUTO_COUNT>  (1) 
3

>  <PUBCHEM_CONFORMER_ID>  (1) 
0000AABF00000001

>  <PUBCHEM_MMFF94_ENERGY>  (1) 
54.195

>  <PUBCHEM_FEATURE_SELFOVERLAP>  (1) 
20.297

>  <PUBCHEM_SHAPE_FINGERPRINT>  (1) 
10366900 7 18334858333113115118
10498660 4 17095518504930042549
11640471 11 14779264206821918572
12173636 292 17313371298040821127
12236239 1 16558756727648107064
12553582 1 17988652848176396050
12670546 177 18333732441817390775
13911987 19 18197795482224047348
14576447 43 17989489606700681350
14739800 52 16516807160216566556
16752209 62 15051738569148403161
16945 1 18201727283863881504
1813 80 17131571469936170700
18186145 218 18260818264303480033
19422 9 16630255791290910609
19433438 38 18333736801578545446
19784866 240 17132120142953634621
200 152 17918277549430057202
20361792 2 17203886353372546545
20645477 70 18130783486330488972
20671657 53 18059855021914453340
20871999 31 18040998419157756005
21713013 43 18343013428379188047
21756936 100 12253629927708667366
22112679 90 15984835855863541416
2255824 54 17846500395793534992
22646028 28 16630527331981911350
23114952 82 18335425685624597924
232386 152 14979954787174569712
23503958 8 14907913630208767854
23526113 38 18408885101005562090
23557571 272 17749678505642390291
23559900 14 17894343393523297602
23596394 208 18410286999937675246
23598291 2 17131009657742797048
238 59 18342162384630289022
2838139 119 16445340012490739484
3323516 105 18411972577211947663
33382 64 17845367925009197167
3472631 163 16298389088672917559
4028521 119 17240478109330277999
46194498 28 18261678159394583164
465052 167 16199585939415233951
474 4 16484706952133503352
5161694 15 18262234396124027847
6049 1 18261960742414885393
77492 1 16558481875484710336
7970288 3 17131558262568955422
9981440 41 14784094542566981788

>  <PUBCHEM_SHAPE_MULTIPOLES>  (1) 
388.62
8.85
2.29
1.93
0.91
0.37
0.15
-2.85
5
-2.28
-0.09
1.73
0.08
1.5

>  <PUBCHEM_SHAPE_SELFOVERLAP>  (1) 
795.543

>  <PUBCHEM_SHAPE_VOLUME>  (1) 
229.9

>  <PUBCHEM_COORDINATE_TYPE>  (1) 
2
5
10

$$$$
