43715
     RDKit          3D

 15 15  0  0  1  0  0  0  0  0999 V2000
   -2.3318    0.5010    0.4250 O   0  0  0  0  0  0  0  0  0  0  0  0
    3.9036   -0.0096   -0.1841 O   0  0  0  0  0  0  0  0  0  0  0  0
   -1.4193    1.7487   -1.2918 O   0  0  0  0  0  0  0  0  0  0  0  0
   -1.6977   -0.6790   -0.0924 C   0  0  0  0  0  0  0  0  0  0  0  0
   -0.2174   -0.5018   -0.1166 C   0  0  0  0  0  0  0  0  0  0  0  0
    0.5374   -1.0795   -1.1374 C   0  0  0  0  0  0  0  0  0  0  0  0
    0.4125    0.2414    0.8817 C   0  0  0  0  0  0  0  0  0  0  0  0
    2.5523   -0.1707   -0.1617 C   0  0  0  0  0  0  0  0  0  0  0  0
    1.9222   -0.9139   -1.1599 C   0  0  0  0  0  0  0  0  0  0  0  0
    1.7974    0.4071    0.8592 C   0  0  0  0  0  0  0  0  0  0  0  0
   -2.1373   -1.8603    0.7424 C   0  0  0  0  0  0  0  0  0  0  0  0
   -2.1010    1.6416   -0.2814 C   0  0  0  0  0  0  0  0  0  0  0  0
   -2.8831   -2.8703    0.2799 C   0  0  0  0  0  0  0  0  0  0  0  0
   -2.8209    2.7833    0.3702 C   0  0  0  0  0  0  0  0  0  0  0  0
    4.4831    0.7620    0.8669 C   0  0  0  0  0  0  0  0  0  0  0  0
  1  4  1  0
  1 12  1  0
  2  8  1  0
  2 15  1  0
  3 12  2  0
  4  5  1  0
  4 11  1  0
  5  6  2  0
  5  7  1  0
  6  9  1  0
  7 10  2  0
  8  9  2  0
  8 10  1  0
 11 13  2  0
 12 14  1  0
M  END
>  <PUBCHEM_COMPOUND_CID>  (1) 
43715

>  <PUBCHEM_CONFORMER_RMSD>  (1) 
0.6

>  <PUBCHEM_CONFORMER_DIVERSEORDER>  (1) 
1
9
37
34
8
5
32
15
33
25
14
21
7
36
6
17
22
27
38
29
10
30
20
18
28
23
35
26
16
39
3
19
24
12
4
40
2
11
13
31

>  <PUBCHEM_MMFF94_PARTIAL_CHARGES>  (1) 
22
1 -0.43
10 -0.15
11 -0.29
12 0.66
13 -0.3
14 0.06
15 0.28
17 0.15
18 0.15
19 0.15
2 -0.36
20 0.15
21 0.15
22 0.15
23 0.15
3 -0.57
4 0.56
5 -0.14
6 -0.15
7 -0.15
8 0.08
9 -0.15

>  <PUBCHEM_EFFECTIVE_ROTOR_COUNT>  (1) 
5

>  <PUBCHEM_PHARMACOPHORE_FEATURES>  (1) 
4
1 13 hydrophobe
1 2 acceptor
1 3 acceptor
6 5 6 7 8 9 10 rings

>  <PUBCHEM_HEAVY_ATOM_COUNT>  (1) 
15

>  <PUBCHEM_ATOM_DEF_STEREO_COUNT>  (1) 
0

>  <PUBCHEM_ATOM_UDEF_STEREO_COUNT>  (1) 
1

>  <PUBCHEM_BOND_DEF_STEREO_COUNT>  (1) 
0

>  <PUBCHEM_BOND_UDEF_STEREO_COUNT>  (1) 
0

>  <PUBCHEM_ISOTOPIC_ATOM_COUNT>  (1) 
0

>  <PUBCHEM_COMPONENT_COUNT>  (1) 
1

>  <PUBCHEM_CACTVS_TAUTO_COUNT>  (1) 
1

>  <PUBCHEM_CONFORMER_ID>  (1) 
0000AAC300000001

>  <PUBCHEM_MMFF94_ENERGY>  (1) 
41.7549

>  <PUBCHEM_FEATURE_SELFOVERLAP>  (1) 
20.297

>  <PUBCHEM_SHAPE_FINGERPRINT>  (1) 
1 1 17542508237042553743
10608611 8 18272088275478097232
12138202 97 18338513041239622527
12403814 3 18128532867474606350
12500047 106 18264492784718439710
12532896 13 18266742368571339901
13296909 8 18040710381249224006
13583140 156 18196060388276230330
13764800 53 18340773645662593449
13839132 238 18339080359053425613
14289901 80 18260550065175955858
15219456 202 18201162053093032118
15279308 16 18272369758933738722
15775835 57 17969504805549083945
16945 1 18337684061090982127
1741750 31 18339641118520875960
17844478 74 18200035173728041042
18186145 218 17981049608910614885
18380122 1 18130519624788124254
18534176 82 18411693283946754501
19026448 5 17894631470313089442
19049666 15 18200040529605162550
200 152 16443613718362127146
20645477 56 18337678511745549720
20645477 70 16845017797445126350
20711985 344 18408599288581471763
21061003 4 17345760818402664754
21501502 16 18338790100832008975
21524375 3 17981315704015516413
21930827 45 18338234860576589859
21947302 44 17913486839828786276
22112679 90 17531544138448685861
22943178 12 18201726137192314630
23402539 116 18337380630531845255
23419403 2 14832702804326258639
23493267 7 18341047420121430898
23557571 272 18341344339589599700
23559900 14 18126849297010591590
25 1 17771064886980921537
27216 239 18271796964941954312
2748010 2 17917441890923945398
6049 1 17987539081493986790
633830 44 17697879168649637429
6442390 28 18123768460933739825
7615 1 17531256096878501142
77492 1 17022910064024768342
81228 2 18261968413664182827
88987 49 18262253130898012710

>  <PUBCHEM_SHAPE_MULTIPOLES>  (1) 
291.09
6.14
2.58
1.1
5.82
0.34
-0.16
0.78
1.29
-4.06
0.1
0.27
-0.02
0.92

>  <PUBCHEM_SHAPE_SELFOVERLAP>  (1) 
597.511

>  <PUBCHEM_SHAPE_VOLUME>  (1) 
167.5

>  <PUBCHEM_COORDINATE_TYPE>  (1) 
2
5
10

$$$$
