43720
     RDKit          3D

 17 20  0  0  1  0  0  0  0  0999 V2000
   -0.7702   -3.0319    0.4538 O   0  0  0  0  0  0  0  0  0  0  0  0
   -0.0068   -2.2643   -0.4667 C   0  0  0  0  0  0  0  0  0  0  0  0
    0.0014   -0.7748   -0.2433 C   0  0  0  0  0  0  0  0  0  0  0  0
    0.6563   -3.1523    0.5253 C   0  0  0  0  0  0  0  0  0  0  0  0
    1.2301   -0.1012   -0.1414 C   0  0  0  0  0  0  0  0  0  0  0  0
   -1.2201   -0.0884   -0.1412 C   0  0  0  0  0  0  0  0  0  0  0  0
    1.2373    1.2954    0.0680 C   0  0  0  0  0  0  0  0  0  0  0  0
   -1.2128    1.3081    0.0681 C   0  0  0  0  0  0  0  0  0  0  0  0
    0.0158    1.9818    0.1700 C   0  0  0  0  0  0  0  0  0  0  0  0
    2.4520   -0.7868   -0.2434 C   0  0  0  0  0  0  0  0  0  0  0  0
   -2.4491   -0.7614   -0.2428 C   0  0  0  0  0  0  0  0  0  0  0  0
    2.4663    1.9683    0.1699 C   0  0  0  0  0  0  0  0  0  0  0  0
   -2.4347    1.9938    0.1700 C   0  0  0  0  0  0  0  0  0  0  0  0
    3.6638   -0.1034   -0.1401 C   0  0  0  0  0  0  0  0  0  0  0  0
   -3.6536   -0.0655   -0.1393 C   0  0  0  0  0  0  0  0  0  0  0  0
    3.6709    1.2724    0.0665 C   0  0  0  0  0  0  0  0  0  0  0  0
   -3.6465    1.3104    0.0668 C   0  0  0  0  0  0  0  0  0  0  0  0
  1  2  1  0
  1  4  1  0
  2  3  1  0
  2  4  1  0
  3  5  2  0
  3  6  1  0
  5  7  1  0
  5 10  1  0
  6  8  2  0
  6 11  1  0
  7  9  2  0
  7 12  1  0
  8  9  1  0
  8 13  1  0
 10 14  2  0
 11 15  2  0
 12 16  2  0
 13 17  2  0
 14 16  1  0
 15 17  1  0
M  END
>  <PUBCHEM_COMPOUND_CID>  (1) 
43720

>  <PUBCHEM_CONFORMER_RMSD>  (1) 
0.6

>  <PUBCHEM_CONFORMER_DIVERSEORDER>  (1) 
1

>  <PUBCHEM_MMFF94_PARTIAL_CHARGES>  (1) 
25
1 -0.3
10 -0.15
11 -0.15
12 -0.15
13 -0.15
14 -0.15
15 -0.15
16 -0.15
17 -0.15
18 0.1
19 0.1
2 0.08
20 0.1
21 0.15
22 0.15
23 0.15
24 0.15
25 0.15
26 0.15
27 0.15
28 0.15
29 0.15
3 -0.03
4 -0.05
9 -0.15

>  <PUBCHEM_EFFECTIVE_ROTOR_COUNT>  (1) 
1.6

>  <PUBCHEM_PHARMACOPHORE_FEATURES>  (1) 
4
1 1 acceptor
6 3 5 6 7 8 9 rings
6 5 7 10 12 14 16 rings
6 6 8 11 13 15 17 rings

>  <PUBCHEM_HEAVY_ATOM_COUNT>  (1) 
17

>  <PUBCHEM_ATOM_DEF_STEREO_COUNT>  (1) 
0

>  <PUBCHEM_ATOM_UDEF_STEREO_COUNT>  (1) 
1

>  <PUBCHEM_BOND_DEF_STEREO_COUNT>  (1) 
0

>  <PUBCHEM_BOND_UDEF_STEREO_COUNT>  (1) 
0

>  <PUBCHEM_ISOTOPIC_ATOM_COUNT>  (1) 
0

>  <PUBCHEM_COMPONENT_COUNT>  (1) 
1

>  <PUBCHEM_CACTVS_TAUTO_COUNT>  (1) 
1

>  <PUBCHEM_CONFORMER_ID>  (1) 
0000AAC800000001

>  <PUBCHEM_MMFF94_ENERGY>  (1) 
59.2912

>  <PUBCHEM_FEATURE_SELFOVERLAP>  (1) 
20.349

>  <PUBCHEM_SHAPE_FINGERPRINT>  (1) 
10411042 1 17041761466220317782
10608611 8 18270115867576891200
108231 29 18201720712268980721
10967382 1 18411138000277886892
11132069 177 18343014488977763696
11458722 379 18339933593309758302
12035759 4 18057010632915894959
12553582 1 17114386940406614543
12592029 89 18337113367248223107
12644460 14 18121229675399506097
12730499 353 18262510383087660789
13140716 1 18340206297541439360
13380535 76 18342175604797854918
13583140 156 16806431664738701073
138480 1 17762055436962941794
14178342 30 17981035315586625152
14787075 74 18201154476981711933
14790565 3 18338251404607004588
15196674 1 18412825784970716524
15230672 131 13437192141676538603
15309172 13 18410300211230749337
15536298 74 18201719527074031228
16945 1 18409450310053498636
18186145 218 18412546479094954332
193761 8 17690561205221526437
19591789 44 18410577275112613894
20028762 73 17913215548895982751
20510252 161 18272091638226708137
20511035 2 17912925268918894516
20645476 183 18042422381125768404
20645477 70 18127405662409370189
20905425 154 17910114612049594054
21267235 1 18341059561508569237
21501502 16 18051971425059822905
21524375 3 18342455945586740287
22344851 341 18198065785104012867
2334 1 18412262865082105229
23402539 116 18270952531416431244
23419403 2 14362502128311505965
23463225 33 18337107861100240008
23559900 14 18343586274739261556
25 1 18411418371463839877
2748010 2 18410579499958245493
2871803 45 18412535523165794549
3091708 16 9193532923523192139
335352 9 18051976913548142148
33824 294 18337673014656538969
352729 6 18338803440978922086
43471831 8 18336543824367203139
5104073 3 18412826884492888185
54173680 148 18049442848568159386
58807428 26 18410569552919340544
589210 1 17762618799233022152
6138700 20 18124038932267950902
633830 44 18272654506533565885
69090 78 18341046410350441756
7364860 26 18124314900320699055
81228 2 17833818748573691603
8809292 202 18267305507392519878
9709674 26 18199753707789424318

>  <PUBCHEM_SHAPE_MULTIPOLES>  (1) 
343.98
5.66
3.12
0.67
0.18
2.25
0
-2.61
-0.15
-0.16
0.5
-0.01
0.1
-0.03

>  <PUBCHEM_SHAPE_SELFOVERLAP>  (1) 
781.38

>  <PUBCHEM_SHAPE_VOLUME>  (1) 
181.1

>  <PUBCHEM_COORDINATE_TYPE>  (1) 
2
5
10

$$$$
