43724
     RDKit          3D

 19 20  0  0  1  0  0  0  0  0999 V2000
   -0.3010    2.5623    1.4134 O   0  0  0  0  0  0  0  0  0  0  0  0
    1.9212    2.0506    1.3957 N   0  0  0  0  0  0  0  0  0  0  0  0
   -4.6291   -1.7202    0.1119 N   0  0  0  0  0  0  0  0  0  0  0  0
    0.4426    0.8441   -0.1957 C   0  0  0  0  0  0  0  0  0  0  0  0
    0.5459    1.7243   -1.5029 C   0  0  0  0  0  0  0  0  0  0  0  0
   -0.9451    0.1415   -0.1114 C   0  0  0  0  0  0  0  0  0  0  0  0
    1.5187   -0.2762   -0.1220 C   0  0  0  0  0  0  0  0  0  0  0  0
    0.6203    1.8824    0.9611 C   0  0  0  0  0  0  0  0  0  0  0  0
   -0.4474    2.8858   -1.5980 C   0  0  0  0  0  0  0  0  0  0  0  0
   -1.4850   -0.0426    1.1261 C   0  0  0  0  0  0  0  0  0  0  0  0
   -1.5300   -0.2426   -1.2810 C   0  0  0  0  0  0  0  0  0  0  0  0
    1.5404   -1.0617    0.9932 C   0  0  0  0  0  0  0  0  0  0  0  0
    2.3737   -0.4044   -1.1773 C   0  0  0  0  0  0  0  0  0  0  0  0
   -2.7281   -0.6708    1.2016 C   0  0  0  0  0  0  0  0  0  0  0  0
   -2.7732   -0.8707   -1.2057 C   0  0  0  0  0  0  0  0  0  0  0  0
   -3.3723   -1.0849    0.0356 C   0  0  0  0  0  0  0  0  0  0  0  0
    2.5055   -2.0666    1.0594 C   0  0  0  0  0  0  0  0  0  0  0  0
    3.3386   -1.4096   -1.1111 C   0  0  0  0  0  0  0  0  0  0  0  0
    3.4045   -2.2407    0.0073 C   0  0  0  0  0  0  0  0  0  0  0  0
  1  8  2  0
  2  8  1  0
  3 16  1  0
  4  5  1  0
  4  6  1  0
  4  7  1  0
  4  8  1  0
  5  9  1  0
  6 10  2  0
  6 11  1  0
  7 12  2  0
  7 13  1  0
 10 14  1  0
 11 15  2  0
 12 17  1  0
 13 18  2  0
 14 16  2  0
 15 16  1  0
 17 19  2  0
 18 19  1  0
M  END
>  <PUBCHEM_COMPOUND_CID>  (1) 
43724

>  <PUBCHEM_CONFORMER_RMSD>  (1) 
0.6

>  <PUBCHEM_CONFORMER_DIVERSEORDER>  (1) 
1
14
28
20
21
9
12
18
22
5
16
17
24
25
27
3
13
23
15
10
7
19
11
6
4
26
2
8

>  <PUBCHEM_MMFF94_PARTIAL_CHARGES>  (1) 
30
1 -0.57
10 -0.15
11 -0.15
12 -0.15
13 -0.15
14 -0.15
15 -0.15
16 0.1
17 -0.15
18 -0.15
19 -0.15
2 -0.8
25 0.15
26 0.15
27 0.15
28 0.15
29 0.15
3 -0.9
30 0.15
31 0.15
32 0.15
33 0.37
34 0.37
35 0.15
36 0.4
37 0.4
4 0.35
6 -0.14
7 -0.14
8 0.57

>  <PUBCHEM_EFFECTIVE_ROTOR_COUNT>  (1) 
4

>  <PUBCHEM_PHARMACOPHORE_FEATURES>  (1) 
7
1 1 acceptor
1 2 donor
1 3 cation
1 3 donor
1 9 hydrophobe
6 6 10 11 14 15 16 rings
6 7 12 13 17 18 19 rings

>  <PUBCHEM_HEAVY_ATOM_COUNT>  (1) 
19

>  <PUBCHEM_ATOM_DEF_STEREO_COUNT>  (1) 
0

>  <PUBCHEM_ATOM_UDEF_STEREO_COUNT>  (1) 
1

>  <PUBCHEM_BOND_DEF_STEREO_COUNT>  (1) 
0

>  <PUBCHEM_BOND_UDEF_STEREO_COUNT>  (1) 
0

>  <PUBCHEM_ISOTOPIC_ATOM_COUNT>  (1) 
0

>  <PUBCHEM_COMPONENT_COUNT>  (1) 
1

>  <PUBCHEM_CACTVS_TAUTO_COUNT>  (1) 
2

>  <PUBCHEM_CONFORMER_ID>  (1) 
0000AACC00000001

>  <PUBCHEM_MMFF94_ENERGY>  (1) 
87.5896

>  <PUBCHEM_FEATURE_SELFOVERLAP>  (1) 
35.52

>  <PUBCHEM_SHAPE_FINGERPRINT>  (1) 
11578080 2 18410567353981396428
12553582 1 18202562865077153590
12633257 1 14764347106877803559
12714826 92 18267584598419885942
13533116 47 18196659712635592555
13911987 19 17171557512461343950
14178342 30 17836076054809977683
14787075 74 18410574028977012434
14817 1 13018258642656277044
15906896 17 17765154964546983865
16945 1 17985532584141901072
17980427 23 15769768053361596313
1813 80 18267325182205518094
18186145 218 11963677664306902354
200 152 17676497094704270398
20361792 2 18410854343521418487
20559304 39 17631744884046479083
20602899 9 17255954577062319500
20645477 70 18199737206641585415
21296965 67 18342458114571604843
21452121 199 17822278090029583698
21731228 192 11383823849047555982
21731516 1 18340769247653018378
22112679 90 17915767351641471617
2255824 54 18191876836215392831
23419403 2 18197188439482204732
23526113 38 17603305981302608387
23557571 272 17677032595294583276
23559900 14 18115870883570137963
25222932 49 16335528629345556343
2748010 2 18189591943710275581
3250762 1 18193247764107263940
5845 1 14451361703172852724
7364860 26 18058451087104551427
81228 2 17840862980281219552

>  <PUBCHEM_SHAPE_MULTIPOLES>  (1) 
375.18
5.63
2.84
1.65
2.12
1.73
-0.03
-5.72
0.59
-0.52
-0.11
-0.1
0.67
0.22

>  <PUBCHEM_SHAPE_SELFOVERLAP>  (1) 
809.817

>  <PUBCHEM_SHAPE_VOLUME>  (1) 
205.4

>  <PUBCHEM_COORDINATE_TYPE>  (1) 
2
5
10

$$$$
