43731
     RDKit          3D

 17 17  0  0  0  0  0  0  0  0999 V2000
    3.8363    2.5063    0.6628 Cl  0  0  0  0  0  0  0  0  0  0  0  0
   -0.6826    0.6301    0.0990 O   0  0  0  0  0  0  0  0  0  0  0  0
   -4.2767   -0.1399   -0.1750 N   0  0  0  0  0  0  0  0  0  0  0  0
    0.4596   -0.1586   -0.0916 N   0  0  0  0  0  0  0  0  0  0  0  0
   -3.0742    0.6555    0.0703 C   0  0  0  0  0  0  0  0  0  0  0  0
   -5.4749    0.6839   -0.0197 C   0  0  0  0  0  0  0  0  0  0  0  0
   -4.3243   -1.2872    0.7307 C   0  0  0  0  0  0  0  0  0  0  0  0
   -1.8238   -0.1853   -0.1324 C   0  0  0  0  0  0  0  0  0  0  0  0
   -5.4425    1.8815   -0.9539 C   0  0  0  0  0  0  0  0  0  0  0  0
   -5.5360   -2.1592    0.4490 C   0  0  0  0  0  0  0  0  0  0  0  0
    2.8724    0.0420   -0.0035 C   0  0  0  0  0  0  0  0  0  0  0  0
    1.5049    0.5736    0.1164 C   0  0  0  0  0  0  0  0  0  0  0  0
    3.9828    0.8418    0.2260 C   0  0  0  0  0  0  0  0  0  0  0  0
    3.0135   -1.2939   -0.3541 C   0  0  0  0  0  0  0  0  0  0  0  0
    5.2603    0.2953    0.1026 C   0  0  0  0  0  0  0  0  0  0  0  0
    4.2910   -1.8402   -0.4776 C   0  0  0  0  0  0  0  0  0  0  0  0
    5.4143   -1.0456   -0.2493 C   0  0  0  0  0  0  0  0  0  0  0  0
  1 13  1  0
  2  4  1  0
  2  8  1  0
  3  5  1  0
  3  6  1  0
  3  7  1  0
  4 12  2  0
  5  8  1  0
  6  9  1  0
  7 10  1  0
 11 12  1  0
 11 13  2  0
 11 14  1  0
 13 15  1  0
 14 16  2  0
 15 17  2  0
 16 17  1  0
M  END
>  <PUBCHEM_COMPOUND_CID>  (1) 
43731

>  <PUBCHEM_CONFORMER_RMSD>  (1) 
0.8

>  <PUBCHEM_CONFORMER_DIVERSEORDER>  (1) 
1
82
60
88
93
33
72
26
76
35
15
67
83
40
71
87
85
43
23
74
36
79
92
4
47
37
91
41
34
2
68
7
51
46
75
63
27
5
56
80
94
9
81
39
90
84
31
21
64
86
62
14
53
66
95
19
52
17
48
3
42
73
55
97
50
70
45
65
69
77
54
18
16
32
78
49
96
11
57
13
38
24
61
28
89
6
59
25
8
10
29
12
30
44
58
20
22

>  <PUBCHEM_MMFF94_PARTIAL_CHARGES>  (1) 
20
1 -0.18
11 0.09
12 0.3
13 0.18
14 -0.15
15 -0.15
16 -0.15
17 -0.15
2 -0.22
3 -0.81
32 0.06
33 0.15
34 0.15
35 0.15
36 0.15
4 -0.51
5 0.27
6 0.27
7 0.27
8 0.28

>  <PUBCHEM_EFFECTIVE_ROTOR_COUNT>  (1) 
7

>  <PUBCHEM_PHARMACOPHORE_FEATURES>  (1) 
3
1 3 cation
1 4 acceptor
6 11 13 14 15 16 17 rings

>  <PUBCHEM_HEAVY_ATOM_COUNT>  (1) 
17

>  <PUBCHEM_ATOM_DEF_STEREO_COUNT>  (1) 
0

>  <PUBCHEM_ATOM_UDEF_STEREO_COUNT>  (1) 
0

>  <PUBCHEM_BOND_DEF_STEREO_COUNT>  (1) 
0

>  <PUBCHEM_BOND_UDEF_STEREO_COUNT>  (1) 
1

>  <PUBCHEM_ISOTOPIC_ATOM_COUNT>  (1) 
0

>  <PUBCHEM_COMPONENT_COUNT>  (1) 
1

>  <PUBCHEM_CACTVS_TAUTO_COUNT>  (1) 
1

>  <PUBCHEM_CONFORMER_ID>  (1) 
0000AAD300000001

>  <PUBCHEM_MMFF94_ENERGY>  (1) 
31.8999

>  <PUBCHEM_FEATURE_SELFOVERLAP>  (1) 
15.223

>  <PUBCHEM_SHAPE_FINGERPRINT>  (1) 
10680689 15 17967256386575923321
10835480 77 18411974780472908177
10912923 1 15195282040804710587
11287383 113 18409730685587146938
11858739 19 18201720596388954406
12107183 9 17479747017547891898
12616971 3 17418091044085019284
13167823 11 18341892995760192207
13533116 47 15123234278443159934
13955234 65 18202279247681239578
1420 363 18409735079497245051
15242439 84 18335983090790810797
15880784 105 18341900722675338083
17834072 33 18271806856035138134
17844677 252 18411144649235765025
18222031 100 17022901284884625798
19489759 90 17967532376821212225
20645477 70 18343587313567504822
21267235 1 18202009798755667902
21623969 137 18060426819495827687
220451 1 17676489415043879803
23081809 10 16805322188754805522
23402539 116 18113334211127905511
23557571 272 17749670688348283381
23559900 14 18411133636665305233
239999 70 18412829084223135006
26918003 58 18342457023744792339
29717793 49 17417813903073266612
300161 21 17774993596745618494
3545911 37 18334295336643131509
4073 2 18186807997227264810
4214541 1 18409167701696136141
42788 4 18410292501838117477
465052 167 18130794438998416398
5104073 3 18412826876087323009
5283173 99 18334854987808845241
542803 24 14996286898649776165
57483677 66 18409729564601072371
7495541 125 17632572786015799760
77779 3 18411419518399520777
90127 26 18186525427308115745

>  <PUBCHEM_SHAPE_MULTIPOLES>  (1) 
335.89
16.71
2.15
0.77
10.87
0.21
0.01
-1.5
0.41
0.13
-0.11
0.29
0.07
2.05

>  <PUBCHEM_SHAPE_SELFOVERLAP>  (1) 
659.937

>  <PUBCHEM_SHAPE_VOLUME>  (1) 
203.3

>  <PUBCHEM_COORDINATE_TYPE>  (1) 
2
5
10

$$$$
