43733
     RDKit          3D

 17 17  0  0  0  0  0  0  0  0999 V2000
    6.4353    1.4002    0.5076 Cl  0  0  0  0  0  0  0  0  0  0  0  0
   -0.8482    0.6741    0.1545 O   0  0  0  0  0  0  0  0  0  0  0  0
   -4.4449   -0.0671   -0.1614 N   0  0  0  0  0  0  0  0  0  0  0  0
    0.2914   -0.1038   -0.0887 N   0  0  0  0  0  0  0  0  0  0  0  0
   -3.2398    0.7077    0.1321 C   0  0  0  0  0  0  0  0  0  0  0  0
   -5.6406    0.7483    0.0488 C   0  0  0  0  0  0  0  0  0  0  0  0
   -4.4941   -1.2700    0.6687 C   0  0  0  0  0  0  0  0  0  0  0  0
   -1.9921   -0.1217   -0.1266 C   0  0  0  0  0  0  0  0  0  0  0  0
   -5.6065    2.0034   -0.8066 C   0  0  0  0  0  0  0  0  0  0  0  0
   -5.7088   -2.1188    0.3340 C   0  0  0  0  0  0  0  0  0  0  0  0
    2.7049    0.0842    0.0074 C   0  0  0  0  0  0  0  0  0  0  0  0
    1.3391    0.6107    0.1639 C   0  0  0  0  0  0  0  0  0  0  0  0
    3.7861    0.9014    0.2977 C   0  0  0  0  0  0  0  0  0  0  0  0
    2.8843   -1.2201   -0.4257 C   0  0  0  0  0  0  0  0  0  0  0  0
    5.0800    0.4014    0.1509 C   0  0  0  0  0  0  0  0  0  0  0  0
    4.1779   -1.7202   -0.5726 C   0  0  0  0  0  0  0  0  0  0  0  0
    5.2759   -0.9095   -0.2842 C   0  0  0  0  0  0  0  0  0  0  0  0
  1 15  1  0
  2  4  1  0
  2  8  1  0
  3  5  1  0
  3  6  1  0
  3  7  1  0
  4 12  2  0
  5  8  1  0
  6  9  1  0
  7 10  1  0
 11 12  1  0
 11 13  2  0
 11 14  1  0
 13 15  1  0
 14 16  2  0
 15 17  2  0
 16 17  1  0
M  END
>  <PUBCHEM_COMPOUND_CID>  (1) 
43733

>  <PUBCHEM_CONFORMER_RMSD>  (1) 
0.8

>  <PUBCHEM_CONFORMER_DIVERSEORDER>  (1) 
1
100
44
95
42
102
6
69
18
2
91
22
71
83
86
72
41
94
3
28
19
84
90
63
59
74
81
11
78
92
76
24
98
5
85
12
99
75
101
67
47
21
66
103
7
50
96
23
15
80
93
16
89
57
29
49
88
17
65
46
70
73
54
64
30
48
13
61
51
82
43
36
39
79
77
20
97
55
68
60
34
53
38
62
52
35
25
58
37
4
56
40
31
14
33
87
9
27
45
8
32
10
26

>  <PUBCHEM_MMFF94_PARTIAL_CHARGES>  (1) 
20
1 -0.18
11 0.09
12 0.3
13 -0.15
14 -0.15
15 0.18
16 -0.15
17 -0.15
2 -0.22
3 -0.81
32 0.06
33 0.15
34 0.15
35 0.15
36 0.15
4 -0.51
5 0.27
6 0.27
7 0.27
8 0.28

>  <PUBCHEM_EFFECTIVE_ROTOR_COUNT>  (1) 
7

>  <PUBCHEM_PHARMACOPHORE_FEATURES>  (1) 
3
1 3 cation
1 4 acceptor
6 11 13 14 15 16 17 rings

>  <PUBCHEM_HEAVY_ATOM_COUNT>  (1) 
17

>  <PUBCHEM_ATOM_DEF_STEREO_COUNT>  (1) 
0

>  <PUBCHEM_ATOM_UDEF_STEREO_COUNT>  (1) 
0

>  <PUBCHEM_BOND_DEF_STEREO_COUNT>  (1) 
0

>  <PUBCHEM_BOND_UDEF_STEREO_COUNT>  (1) 
1

>  <PUBCHEM_ISOTOPIC_ATOM_COUNT>  (1) 
0

>  <PUBCHEM_COMPONENT_COUNT>  (1) 
1

>  <PUBCHEM_CACTVS_TAUTO_COUNT>  (1) 
1

>  <PUBCHEM_CONFORMER_ID>  (1) 
0000AAD500000001

>  <PUBCHEM_MMFF94_ENERGY>  (1) 
28.8071

>  <PUBCHEM_FEATURE_SELFOVERLAP>  (1) 
15.223

>  <PUBCHEM_SHAPE_FINGERPRINT>  (1) 
10366900 7 15339115736581945111
10835480 77 18412821378482327665
11287383 113 18408887351795005408
11315181 36 18060420231827911049
12091667 2 17822012016990323409
12730499 353 18202286931446621602
13073987 5 18271812302037787051
13167823 11 18412262835281123719
13533116 47 16558753365348448342
1420 363 18413395349194807699
14251718 22 18408886260620143682
14251732 16 18340206388036029928
14251764 18 17775288262189445905
14461889 52 18339076107695419946
16079462 125 18338222812988102860
17834072 33 18201719574165502246
17844677 252 18409175428279277477
19489759 90 18040152925097024801
20281389 69 18187081707462526477
20645477 70 18201159845881048158
21054139 6 17531524398916741227
21150785 3 17775273985428296237
21267235 1 18131359579622385798
21623969 137 18059863877979327599
220451 1 17676771989474202475
22224240 67 18334570296513066128
22896161 15 18339924929991424418
23081809 10 16805042917101527392
23402539 116 18113334215454605725
23536379 177 18335701624272179145
23559900 14 18412819205555787449
239999 70 18342462517720588326
29717793 49 17346601820824168756
300161 21 18060411426527574284
33824 294 18412263913924699862
3545911 37 18272370897574845344
4073 2 18260272957569412875
4214541 1 18408887326373484573
42788 4 18411138026137478365
5104073 3 18201721695984900802
542803 24 15647058148611407901
57483677 66 18409729560358846099

>  <PUBCHEM_SHAPE_MULTIPOLES>  (1) 
335.89
18.61
1.85
0.74
5.88
0.36
-0.01
-1.32
0.5
1.41
-0.12
0.1
-0.01
1.82

>  <PUBCHEM_SHAPE_SELFOVERLAP>  (1) 
659.154

>  <PUBCHEM_SHAPE_VOLUME>  (1) 
203.7

>  <PUBCHEM_COORDINATE_TYPE>  (1) 
2
5
10

$$$$
