43739
     RDKit          3D

 17 17  0  0  0  0  0  0  0  0999 V2000
    7.0844    0.9029    0.3067 Br  0  0  0  0  0  0  0  0  0  0  0  0
   -0.9452   -0.7779   -0.2201 O   0  0  0  0  0  0  0  0  0  0  0  0
   -4.4733    0.1992    0.2084 N   0  0  0  0  0  0  0  0  0  0  0  0
    0.2512   -0.0895    0.0200 N   0  0  0  0  0  0  0  0  0  0  0  0
   -3.3322   -0.6467   -0.1398 C   0  0  0  0  0  0  0  0  0  0  0  0
   -5.7275   -0.5238    0.0014 C   0  0  0  0  0  0  0  0  0  0  0  0
   -4.4567    1.4303   -0.5808 C   0  0  0  0  0  0  0  0  0  0  0  0
   -2.0241    0.0851    0.1149 C   0  0  0  0  0  0  0  0  0  0  0  0
   -5.7622   -1.8066    0.8144 C   0  0  0  0  0  0  0  0  0  0  0  0
   -5.6012    2.3493   -0.1889 C   0  0  0  0  0  0  0  0  0  0  0  0
    2.6429   -0.4407   -0.1417 C   0  0  0  0  0  0  0  0  0  0  0  0
    1.2404   -0.8658   -0.2814 C   0  0  0  0  0  0  0  0  0  0  0  0
    3.6573   -1.3213   -0.4832 C   0  0  0  0  0  0  0  0  0  0  0  0
    2.9236    0.8319    0.3305 C   0  0  0  0  0  0  0  0  0  0  0  0
    4.9861   -0.9191   -0.3493 C   0  0  0  0  0  0  0  0  0  0  0  0
    4.2525    1.2342    0.4645 C   0  0  0  0  0  0  0  0  0  0  0  0
    5.2838    0.3586    0.1245 C   0  0  0  0  0  0  0  0  0  0  0  0
  1 17  1  0
  2  4  1  0
  2  8  1  0
  3  5  1  0
  3  6  1  0
  3  7  1  0
  4 12  2  0
  5  8  1  0
  6  9  1  0
  7 10  1  0
 11 12  1  0
 11 13  2  0
 11 14  1  0
 13 15  1  0
 14 16  2  0
 15 17  2  0
 16 17  1  0
M  END
>  <PUBCHEM_COMPOUND_CID>  (1) 
43739

>  <PUBCHEM_CONFORMER_RMSD>  (1) 
0.8

>  <PUBCHEM_CONFORMER_DIVERSEORDER>  (1) 
1
26
30
2
9
31
4
39
16
33
29
34
37
32
12
11
8
41
38
17
10
13
24
7
28
35
18
20
3
23
22
25
21
40
36
14
5
19
27
6
15

>  <PUBCHEM_MMFF94_PARTIAL_CHARGES>  (1) 
20
1 -0.11
11 0.09
12 0.3
13 -0.15
14 -0.15
15 -0.15
16 -0.15
17 0.11
2 -0.22
3 -0.81
32 0.06
33 0.15
34 0.15
35 0.15
36 0.15
4 -0.51
5 0.27
6 0.27
7 0.27
8 0.28

>  <PUBCHEM_EFFECTIVE_ROTOR_COUNT>  (1) 
7

>  <PUBCHEM_PHARMACOPHORE_FEATURES>  (1) 
4
1 1 hydrophobe
1 3 cation
1 4 acceptor
6 11 13 14 15 16 17 rings

>  <PUBCHEM_HEAVY_ATOM_COUNT>  (1) 
17

>  <PUBCHEM_ATOM_DEF_STEREO_COUNT>  (1) 
0

>  <PUBCHEM_ATOM_UDEF_STEREO_COUNT>  (1) 
0

>  <PUBCHEM_BOND_DEF_STEREO_COUNT>  (1) 
0

>  <PUBCHEM_BOND_UDEF_STEREO_COUNT>  (1) 
1

>  <PUBCHEM_ISOTOPIC_ATOM_COUNT>  (1) 
0

>  <PUBCHEM_COMPONENT_COUNT>  (1) 
1

>  <PUBCHEM_CACTVS_TAUTO_COUNT>  (1) 
1

>  <PUBCHEM_CONFORMER_ID>  (1) 
0000AADB00000001

>  <PUBCHEM_MMFF94_ENERGY>  (1) 
28.991

>  <PUBCHEM_FEATURE_SELFOVERLAP>  (1) 
20.297

>  <PUBCHEM_SHAPE_FINGERPRINT>  (1) 
10354089 29 18343865541722629498
10912923 1 16877665668980399423
11287383 113 18411702105677958563
11315181 36 17531248387739141441
12091667 2 18342173384468652367
12596602 18 18259982660908886688
12730499 353 18272093807844607750
13073987 5 18261110747102100507
13167372 99 18340205198520356792
13533116 47 15410903916723635526
1420 363 18408609184101751483
14251718 22 18410012147684418795
14251732 16 18336547204464072074
14251764 18 18040712589474304680
14251764 46 18040995167477089970
14933364 13 18412266133615326105
15778101 99 18338519634753231305
17834072 33 18131348626416596319
17834076 25 17749388182906254242
17844677 252 18410018749386795241
19433438 28 18409729573596818633
19489759 90 17749107799172905827
20281389 69 18411134753741807024
20645477 70 17988368079007547950
21033648 29 18272357685949761137
21150785 3 16702009903208988509
21315763 129 18335138712984363669
22224240 67 15647048314001528688
22289505 5 18202561753229015832
23081809 10 17240486896575032414
23402539 116 18187362121486778463
23402655 69 18131347505946869446
23536379 177 18408885118164241170
2916195 48 18410007753869500065
29717793 49 16773519876390249780
300161 21 17774995796011681558
3545911 37 18273216426058462226
4073 2 18186807984427005811
4214541 1 18409730647486361557
42788 4 18411700984628106270
4325135 7 18202279243207138463
441001 317 18410011001661503609
5104073 3 18261114011488125595
542803 24 17240769470973498822
90127 26 18333741208082947113

>  <PUBCHEM_SHAPE_MULTIPOLES>  (1) 
339.96
19.6
1.75
0.73
2.46
0.52
-0.03
3.89
-1.68
2.23
0.01
0.07
-0.04
1.46

>  <PUBCHEM_SHAPE_SELFOVERLAP>  (1) 
661.633

>  <PUBCHEM_SHAPE_VOLUME>  (1) 
210.4

>  <PUBCHEM_COORDINATE_TYPE>  (1) 
2
5
10

$$$$
