43749
     RDKit          3D

 18 19  0  0  0  0  0  0  0  0999 V2000
   -6.5107    0.8847   -0.3666 O   0  0  0  0  0  0  0  0  0  0  0  0
   -0.4056   -1.0101   -0.0804 O   0  0  0  0  0  0  0  0  0  0  0  0
   -3.9843   -0.2299    0.3236 N   0  0  0  0  0  0  0  0  0  0  0  0
    0.7457   -0.2285    0.0820 N   0  0  0  0  0  0  0  0  0  0  0  0
   -4.0964    0.9041   -0.6041 C   0  0  0  0  0  0  0  0  0  0  0  0
   -5.1966   -1.0576    0.2558 C   0  0  0  0  0  0  0  0  0  0  0  0
   -2.7951   -1.0263    0.0281 C   0  0  0  0  0  0  0  0  0  0  0  0
   -5.3502    1.7129   -0.2836 C   0  0  0  0  0  0  0  0  0  0  0  0
   -6.4249   -0.2028    0.5550 C   0  0  0  0  0  0  0  0  0  0  0  0
   -1.5349   -0.1933    0.1996 C   0  0  0  0  0  0  0  0  0  0  0  0
    3.1533   -0.4376   -0.0895 C   0  0  0  0  0  0  0  0  0  0  0  0
    1.7802   -0.9620   -0.1704 C   0  0  0  0  0  0  0  0  0  0  0  0
    5.7388    0.5507    0.0622 C   0  0  0  0  0  0  0  0  0  0  0  0
    4.2192   -1.2765   -0.3736 C   0  0  0  0  0  0  0  0  0  0  0  0
    3.3551    0.8861    0.2691 C   0  0  0  0  0  0  0  0  0  0  0  0
    5.5203   -0.7794   -0.2973 C   0  0  0  0  0  0  0  0  0  0  0  0
    4.6561    1.3834    0.3455 C   0  0  0  0  0  0  0  0  0  0  0  0
    7.1301    1.0820    0.1446 C   0  0  0  0  0  0  0  0  0  0  0  0
  1  8  1  0
  1  9  1  0
  2  4  1  0
  2 10  1  0
  3  5  1  0
  3  6  1  0
  3  7  1  0
  4 12  2  0
  5  8  1  0
  6  9  1  0
  7 10  1  0
 11 12  1  0
 11 14  2  0
 11 15  1  0
 13 16  2  0
 13 17  1  0
 13 18  1  0
 14 16  1  0
 15 17  2  0
M  END
>  <PUBCHEM_COMPOUND_CID>  (1) 
43749

>  <PUBCHEM_CONFORMER_RMSD>  (1) 
0.8

>  <PUBCHEM_CONFORMER_DIVERSEORDER>  (1) 
1
22
16
10
11
14
17
13
15
21
3
18
19
2
20
4
9
12
5
6
7
8

>  <PUBCHEM_MMFF94_PARTIAL_CHARGES>  (1) 
23
1 -0.56
10 0.28
11 0.09
12 0.3
13 -0.14
14 -0.15
15 -0.15
16 -0.15
17 -0.15
18 0.14
2 -0.22
3 -0.81
31 0.06
32 0.15
33 0.15
34 0.15
35 0.15
4 -0.51
5 0.27
6 0.27
7 0.27
8 0.28
9 0.28

>  <PUBCHEM_EFFECTIVE_ROTOR_COUNT>  (1) 
6.2

>  <PUBCHEM_PHARMACOPHORE_FEATURES>  (1) 
5
1 1 acceptor
1 3 cation
1 4 acceptor
6 1 3 5 6 8 9 rings
6 11 13 14 15 16 17 rings

>  <PUBCHEM_HEAVY_ATOM_COUNT>  (1) 
18

>  <PUBCHEM_ATOM_DEF_STEREO_COUNT>  (1) 
0

>  <PUBCHEM_ATOM_UDEF_STEREO_COUNT>  (1) 
0

>  <PUBCHEM_BOND_DEF_STEREO_COUNT>  (1) 
0

>  <PUBCHEM_BOND_UDEF_STEREO_COUNT>  (1) 
1

>  <PUBCHEM_ISOTOPIC_ATOM_COUNT>  (1) 
0

>  <PUBCHEM_COMPONENT_COUNT>  (1) 
1

>  <PUBCHEM_CACTVS_TAUTO_COUNT>  (1) 
1

>  <PUBCHEM_CONFORMER_ID>  (1) 
0000AAE500000001

>  <PUBCHEM_MMFF94_ENERGY>  (1) 
34.3664

>  <PUBCHEM_FEATURE_SELFOVERLAP>  (1) 
25.371

>  <PUBCHEM_SHAPE_FINGERPRINT>  (1) 
10354089 29 17676205775651415604
11315181 36 18273779355270140401
117890 112 18407760335259956278
12091667 2 18408604781981728195
125118 31 18186523198183549180
13073987 5 18040997294013454987
13167372 99 18270965648162319528
13403585 85 18260830389112175381
13533116 47 15984830285940051806
13668630 136 11095882670424303925
14123256 10 17418094321366566704
14251732 16 18408604794697779555
14251764 18 17603868931361329820
14251764 46 17167863071381552403
14729087 3 18408881836809356729
14933364 13 18410295813009878861
15048467 5 18411699889384961572
15183329 4 17775005673898346929
15716309 27 11241973681037431809
17844677 252 18410581677728249497
19489759 90 17603868905881572345
20157964 124 18273498962103247622
20281389 69 18187081732783606005
20645477 70 18059299768965037166
21150785 3 16415473878654433189
220451 1 14764631897763886903
22224240 67 14923943483782531000
23035841 295 11167943558812625535
23081809 10 16056605317678190851
23402539 116 18412539925180446111
23536379 177 18408603647498374051
23559900 14 18060412555761108201
246663 6 13045935786633853936
2916195 48 18335137600766701377
29717793 49 16773804675719029268
300161 21 17989201568982300094
3014965 18 18341612556250629086
3545911 37 18413672426451911946
4073 2 18041284361074956754
42788 4 18410293609760429163
4325135 7 18272647983226972199
5104073 3 17968661502206465843
59682541 35 18187938292051020923
59755656 520 17894344509925372042

>  <PUBCHEM_SHAPE_MULTIPOLES>  (1) 
348.73
20.92
1.48
0.69
5.4
0.25
0
5.83
-0.4
0.01
0.08
0.16
0.03
1

>  <PUBCHEM_SHAPE_SELFOVERLAP>  (1) 
711.449

>  <PUBCHEM_SHAPE_VOLUME>  (1) 
202.5

>  <PUBCHEM_COORDINATE_TYPE>  (1) 
2
5
10

$$$$
