43755
     RDKit          3D

 18 19  0  0  0  0  0  0  0  0999 V2000
    7.4864    1.1843    0.1589 Br  0  0  0  0  0  0  0  0  0  0  0  0
   -6.5281    0.9023   -0.3669 O   0  0  0  0  0  0  0  0  0  0  0  0
   -0.4306   -1.0162   -0.0779 O   0  0  0  0  0  0  0  0  0  0  0  0
   -4.0057   -0.2197    0.3258 N   0  0  0  0  0  0  0  0  0  0  0  0
    0.7241   -0.2387    0.0802 N   0  0  0  0  0  0  0  0  0  0  0  0
   -4.1140    0.9108   -0.6066 C   0  0  0  0  0  0  0  0  0  0  0  0
   -5.2214   -1.0428    0.2627 C   0  0  0  0  0  0  0  0  0  0  0  0
   -2.8200   -1.0222    0.0328 C   0  0  0  0  0  0  0  0  0  0  0  0
   -5.3642    1.7260   -0.2885 C   0  0  0  0  0  0  0  0  0  0  0  0
   -6.4460   -0.1817    0.5592 C   0  0  0  0  0  0  0  0  0  0  0  0
   -1.5562   -0.1936    0.1996 C   0  0  0  0  0  0  0  0  0  0  0  0
    3.1306   -0.4583   -0.0925 C   0  0  0  0  0  0  0  0  0  0  0  0
    1.7554   -0.9775   -0.1700 C   0  0  0  0  0  0  0  0  0  0  0  0
    4.1930   -1.3028   -0.3741 C   0  0  0  0  0  0  0  0  0  0  0  0
    3.3384    0.8655    0.2622 C   0  0  0  0  0  0  0  0  0  0  0  0
    5.4962   -0.8113   -0.2989 C   0  0  0  0  0  0  0  0  0  0  0  0
    4.6416    1.3572    0.3373 C   0  0  0  0  0  0  0  0  0  0  0  0
    5.7206    0.5188    0.0566 C   0  0  0  0  0  0  0  0  0  0  0  0
  1 18  1  0
  2  9  1  0
  2 10  1  0
  3  5  1  0
  3 11  1  0
  4  6  1  0
  4  7  1  0
  4  8  1  0
  5 13  2  0
  6  9  1  0
  7 10  1  0
  8 11  1  0
 12 13  1  0
 12 14  2  0
 12 15  1  0
 14 16  1  0
 15 17  2  0
 16 18  2  0
 17 18  1  0
M  END
>  <PUBCHEM_COMPOUND_CID>  (1) 
43755

>  <PUBCHEM_CONFORMER_RMSD>  (1) 
0.8

>  <PUBCHEM_CONFORMER_DIVERSEORDER>  (1) 
1
17
14
3
15
10
22
13
20
19
18
7
5
21
8
11
2
6
16
12
9
4

>  <PUBCHEM_MMFF94_PARTIAL_CHARGES>  (1) 
23
1 -0.11
10 0.28
11 0.28
12 0.09
13 0.3
14 -0.15
15 -0.15
16 -0.15
17 -0.15
18 0.11
2 -0.56
3 -0.22
31 0.06
32 0.15
33 0.15
34 0.15
35 0.15
4 -0.81
5 -0.51
6 0.27
7 0.27
8 0.27
9 0.28

>  <PUBCHEM_EFFECTIVE_ROTOR_COUNT>  (1) 
6.2

>  <PUBCHEM_PHARMACOPHORE_FEATURES>  (1) 
6
1 1 hydrophobe
1 2 acceptor
1 4 cation
1 5 acceptor
6 12 14 15 16 17 18 rings
6 2 4 6 7 9 10 rings

>  <PUBCHEM_HEAVY_ATOM_COUNT>  (1) 
18

>  <PUBCHEM_ATOM_DEF_STEREO_COUNT>  (1) 
0

>  <PUBCHEM_ATOM_UDEF_STEREO_COUNT>  (1) 
0

>  <PUBCHEM_BOND_DEF_STEREO_COUNT>  (1) 
0

>  <PUBCHEM_BOND_UDEF_STEREO_COUNT>  (1) 
1

>  <PUBCHEM_ISOTOPIC_ATOM_COUNT>  (1) 
0

>  <PUBCHEM_COMPONENT_COUNT>  (1) 
1

>  <PUBCHEM_CACTVS_TAUTO_COUNT>  (1) 
1

>  <PUBCHEM_CONFORMER_ID>  (1) 
0000AAEB00000001

>  <PUBCHEM_MMFF94_ENERGY>  (1) 
32.7537

>  <PUBCHEM_FEATURE_SELFOVERLAP>  (1) 
30.446

>  <PUBCHEM_SHAPE_FINGERPRINT>  (1) 
11315181 36 18201721756916133177
12091667 2 18408604786239765723
125118 31 18187086148216085244
13073987 5 18040997293960700963
13167372 99 18271247123107375168
13403585 85 18260830389096364117
13533116 47 15913335641887180710
13668630 136 11239996758941020301
14251764 18 18040432213756053148
14251764 46 17530683221107978243
14729087 3 18408318886861203661
14933364 13 18410577287986583021
15048467 5 18410855464433691596
15183329 4 17703792504779994937
15716309 27 11241973681011064537
17834076 25 17167581591914663178
17844677 252 18410581673406895441
19489759 90 17675926499935305049
20157964 124 18273498962161256878
20281389 69 18187644682652624765
20645477 70 18059299768917577390
21150785 3 16559027211935505973
220451 1 14692574303673211447
22224240 67 15140678116332820632
23035841 295 10879994657584876911
23081809 10 15984830298133876090
23402539 116 18412259545499536703
23536379 177 18408604742751983771
246663 6 12757142460528740328
2916195 48 18334856125826913985
29717793 49 16773804675687361292
300161 21 18060696213072087958
3014965 18 18341612556213718822
3545911 37 18341896311738402994
4073 2 18041284361090794002
42788 4 18410293605597337163
4325135 7 18272366508218600039
5104073 3 17968661502227558363
542803 24 17022625277506966134
59682541 35 18187938296298521937
59755656 520 17822005440963474490

>  <PUBCHEM_SHAPE_MULTIPOLES>  (1) 
354.67
21.78
1.51
0.7
4.12
0.25
0
6.98
-0.55
-0.11
0.09
0.11
0.04
1.01

>  <PUBCHEM_SHAPE_SELFOVERLAP>  (1) 
710.878

>  <PUBCHEM_SHAPE_VOLUME>  (1) 
213.3

>  <PUBCHEM_COORDINATE_TYPE>  (1) 
2
5
10

$$$$
