43751
     RDKit          3D

 18 19  0  0  0  0  0  0  0  0999 V2000
    6.9944    1.0414    0.1395 F   0  0  0  0  0  0  0  0  0  0  0  0
   -6.5041    0.8781   -0.3665 O   0  0  0  0  0  0  0  0  0  0  0  0
   -0.3962   -1.0076   -0.0812 O   0  0  0  0  0  0  0  0  0  0  0  0
   -3.9761   -0.2334    0.3229 N   0  0  0  0  0  0  0  0  0  0  0  0
    0.7539   -0.2244    0.0823 N   0  0  0  0  0  0  0  0  0  0  0  0
   -4.0898    0.9015   -0.6035 C   0  0  0  0  0  0  0  0  0  0  0  0
   -5.1872   -1.0630    0.2540 C   0  0  0  0  0  0  0  0  0  0  0  0
   -2.7856   -1.0276    0.0268 C   0  0  0  0  0  0  0  0  0  0  0  0
   -5.3450    1.7080   -0.2824 C   0  0  0  0  0  0  0  0  0  0  0  0
   -6.4168   -0.2104    0.5539 C   0  0  0  0  0  0  0  0  0  0  0  0
   -1.5267   -0.1928    0.1994 C   0  0  0  0  0  0  0  0  0  0  0  0
    3.1618   -0.4295   -0.0890 C   0  0  0  0  0  0  0  0  0  0  0  0
    1.7896   -0.9560   -0.1707 C   0  0  0  0  0  0  0  0  0  0  0  0
    4.2292   -1.2664   -0.3739 C   0  0  0  0  0  0  0  0  0  0  0  0
    3.3616    0.8940    0.2714 C   0  0  0  0  0  0  0  0  0  0  0  0
    5.5294   -0.7674   -0.2964 C   0  0  0  0  0  0  0  0  0  0  0  0
    4.6618    1.3932    0.3488 C   0  0  0  0  0  0  0  0  0  0  0  0
    5.7458    0.5625    0.0648 C   0  0  0  0  0  0  0  0  0  0  0  0
  1 18  1  0
  2  9  1  0
  2 10  1  0
  3  5  1  0
  3 11  1  0
  4  6  1  0
  4  7  1  0
  4  8  1  0
  5 13  2  0
  6  9  1  0
  7 10  1  0
  8 11  1  0
 12 13  1  0
 12 14  2  0
 12 15  1  0
 14 16  1  0
 15 17  2  0
 16 18  2  0
 17 18  1  0
M  END
>  <PUBCHEM_COMPOUND_CID>  (1) 
43751

>  <PUBCHEM_CONFORMER_RMSD>  (1) 
0.8

>  <PUBCHEM_CONFORMER_DIVERSEORDER>  (1) 
1
16
13
10
11
17
21
14
15
18
3
19
20
2
9
4
12
6
5
7
8

>  <PUBCHEM_MMFF94_PARTIAL_CHARGES>  (1) 
23
1 -0.19
10 0.28
11 0.28
12 0.09
13 0.3
14 -0.15
15 -0.15
16 -0.15
17 -0.15
18 0.19
2 -0.56
3 -0.22
31 0.06
32 0.15
33 0.15
34 0.15
35 0.15
4 -0.81
5 -0.51
6 0.27
7 0.27
8 0.27
9 0.28

>  <PUBCHEM_EFFECTIVE_ROTOR_COUNT>  (1) 
6.2

>  <PUBCHEM_PHARMACOPHORE_FEATURES>  (1) 
5
1 2 acceptor
1 4 cation
1 5 acceptor
6 12 14 15 16 17 18 rings
6 2 4 6 7 9 10 rings

>  <PUBCHEM_HEAVY_ATOM_COUNT>  (1) 
18

>  <PUBCHEM_ATOM_DEF_STEREO_COUNT>  (1) 
0

>  <PUBCHEM_ATOM_UDEF_STEREO_COUNT>  (1) 
0

>  <PUBCHEM_BOND_DEF_STEREO_COUNT>  (1) 
0

>  <PUBCHEM_BOND_UDEF_STEREO_COUNT>  (1) 
1

>  <PUBCHEM_ISOTOPIC_ATOM_COUNT>  (1) 
0

>  <PUBCHEM_COMPONENT_COUNT>  (1) 
1

>  <PUBCHEM_CACTVS_TAUTO_COUNT>  (1) 
1

>  <PUBCHEM_CONFORMER_ID>  (1) 
0000AAE700000001

>  <PUBCHEM_MMFF94_ENERGY>  (1) 
31.8402

>  <PUBCHEM_FEATURE_SELFOVERLAP>  (1) 
25.371

>  <PUBCHEM_SHAPE_FINGERPRINT>  (1) 
10354089 29 17603586331124214876
11287383 113 18411983576333354115
11315181 36 18273497880303953265
117890 112 18407760330885867702
12091667 2 18408604782008108443
13073987 5 18040997294060934267
13167372 99 18271247123107381680
13533116 47 15913335641818628438
14251732 16 18408887369217785995
14251764 18 17385726928164406092
14251764 46 17095242527406040395
14729087 3 18409163311780792657
14933364 13 18409451383805885117
15048467 5 18410855464428416844
15183329 4 18060139821064047745
15501527 16 18410856555909376659
15716309 27 11314312750162833697
16079462 125 18411691093286801064
17834076 25 17167863066828089794
17844677 252 18410581673412183185
19489759 90 17675926499930043281
20157964 124 18201722842973478070
20281389 69 18187081728604663757
20645477 56 18408321086459361839
20645477 70 18059299773249454950
21150785 3 16343697759614314893
21315763 28 18410291410784704835
220451 1 14764631897821915671
22224240 67 14851604414778435392
23035841 295 11024108746249351295
23081809 10 16056886792755108779
23402539 116 18412822495437120767
23536379 177 18408603647524747811
23559900 14 18060132180317111329
2916195 48 18335136501281460361
29717793 49 16773804675682086524
300161 21 17917705825365066678
3014965 18 18341894031206240750
3545911 37 18413109476429931834
4073 2 18041003985583500122
42788 4 18410293609786809419
4325135 7 18272929453950887599
441001 317 18408886205518947713
5104073 3 17968661502227558363
542803 24 18409446990101982975
59682541 35 18187376441646170161
59755656 520 17894625980622952643

>  <PUBCHEM_SHAPE_MULTIPOLES>  (1) 
341.46
20.21
1.46
0.68
4.74
0.27
0.01
5.07
-0.29
0.04
0.06
0.18
0.02
1

>  <PUBCHEM_SHAPE_SELFOVERLAP>  (1) 
700.327

>  <PUBCHEM_SHAPE_VOLUME>  (1) 
198.1

>  <PUBCHEM_COORDINATE_TYPE>  (1) 
2
5
10

$$$$
