43761
     RDKit          3D

 26 28  0  0  0  0  0  0  0  0999 V2000
  -10.4259    1.9405   -0.2167 Cl  0  0  0  0  0  0  0  0  0  0  0  0
   -3.0582   -1.2932    0.0882 O   0  0  0  0  0  0  0  0  0  0  0  0
    3.2725   -0.1912    0.4380 N   0  0  0  0  0  0  0  0  0  0  0  0
    0.5978   -1.0192   -0.2825 N   0  0  0  0  0  0  0  0  0  0  0  0
   -4.0878   -0.3587   -0.0832 N   0  0  0  0  0  0  0  0  0  0  0  0
    2.1822    0.7831    0.3066 C   0  0  0  0  0  0  0  0  0  0  0  0
    3.0421   -1.3410   -0.4453 C   0  0  0  0  0  0  0  0  0  0  0  0
    0.8276    0.1301    0.6015 C   0  0  0  0  0  0  0  0  0  0  0  0
    1.6875   -1.9939   -0.1490 C   0  0  0  0  0  0  0  0  0  0  0  0
    4.5632    0.4322    0.1524 C   0  0  0  0  0  0  0  0  0  0  0  0
   -0.6935   -1.6423    0.0011 C   0  0  0  0  0  0  0  0  0  0  0  0
    5.7115   -0.5455    0.4046 C   0  0  0  0  0  0  0  0  0  0  0  0
   -1.8236   -0.6416   -0.1804 C   0  0  0  0  0  0  0  0  0  0  0  0
    7.0509    0.0927    0.1351 C   0  0  0  0  0  0  0  0  0  0  0  0
    7.5983    0.0162   -1.1368 C   0  0  0  0  0  0  0  0  0  0  0  0
    7.7137    0.7454    1.1636 C   0  0  0  0  0  0  0  0  0  0  0  0
    8.8376    0.6061   -1.3860 C   0  0  0  0  0  0  0  0  0  0  0  0
    8.9528    1.3355    0.9144 C   0  0  0  0  0  0  0  0  0  0  0  0
    9.5147    1.2657   -0.3603 C   0  0  0  0  0  0  0  0  0  0  0  0
   -5.2168   -0.9408    0.1588 C   0  0  0  0  0  0  0  0  0  0  0  0
   -6.5025   -0.2301    0.0664 C   0  0  0  0  0  0  0  0  0  0  0  0
   -7.6778   -0.9121    0.3397 C   0  0  0  0  0  0  0  0  0  0  0  0
   -6.5145    1.1087   -0.2927 C   0  0  0  0  0  0  0  0  0  0  0  0
   -8.8959   -0.2383    0.2516 C   0  0  0  0  0  0  0  0  0  0  0  0
   -7.7326    1.7825   -0.3806 C   0  0  0  0  0  0  0  0  0  0  0  0
   -8.9234    1.1090   -0.1085 C   0  0  0  0  0  0  0  0  0  0  0  0
  1 26  1  0
  2  5  1  0
  2 13  1  0
  3  6  1  0
  3  7  1  0
  3 10  1  0
  4  8  1  0
  4  9  1  0
  4 11  1  0
  5 20  2  0
  6  8  1  0
  7  9  1  0
 10 12  1  0
 11 13  1  0
 12 14  1  0
 14 15  2  0
 14 16  1  0
 15 17  1  0
 16 18  2  0
 17 19  2  0
 18 19  1  0
 20 21  1  0
 21 22  2  0
 21 23  1  0
 22 24  1  0
 23 25  2  0
 24 26  2  0
 25 26  1  0
M  END
>  <PUBCHEM_COMPOUND_CID>  (1) 
43761

>  <PUBCHEM_CONFORMER_RMSD>  (1) 
1

>  <PUBCHEM_CONFORMER_DIVERSEORDER>  (1) 
1
50
58
41
107
55
106
84
2
94
87
14
78
17
93
108
60
31
104
4
76
101
53
74
63
64
88
102
38
100
105
103
52
110
59
24
70
111
89
85
12
37
91
99
8
96
33
56
44
54
66
83
42
46
65
6
75
51
10
11
27
95
49
86
16
21
34
28
97
69
90
82
29
112
30
109
20
32
48
43
13
40
61
72
22
45
113
18
7
9
35
81
73
23
47
19
62
98
15
92
3
77
57
67
39
80
36
26
25
71
68
5
79

>  <PUBCHEM_MMFF94_PARTIAL_CHARGES>  (1) 
36
1 -0.18
10 0.27
11 0.27
12 0.14
13 0.28
14 -0.14
15 -0.15
16 -0.15
17 -0.15
18 -0.15
19 -0.15
2 -0.22
20 0.3
21 0.09
22 -0.15
23 -0.15
24 -0.15
25 -0.15
26 0.18
3 -0.81
4 -0.81
43 0.15
44 0.15
45 0.15
46 0.15
47 0.15
48 0.06
49 0.15
5 -0.51
50 0.15
51 0.15
52 0.15
6 0.27
7 0.27
8 0.27
9 0.27

>  <PUBCHEM_EFFECTIVE_ROTOR_COUNT>  (1) 
9.2

>  <PUBCHEM_PHARMACOPHORE_FEATURES>  (1) 
6
1 3 cation
1 4 cation
1 5 acceptor
6 14 15 16 17 18 19 rings
6 21 22 23 24 25 26 rings
6 3 4 6 7 8 9 rings

>  <PUBCHEM_HEAVY_ATOM_COUNT>  (1) 
26

>  <PUBCHEM_ATOM_DEF_STEREO_COUNT>  (1) 
0

>  <PUBCHEM_ATOM_UDEF_STEREO_COUNT>  (1) 
0

>  <PUBCHEM_BOND_DEF_STEREO_COUNT>  (1) 
0

>  <PUBCHEM_BOND_UDEF_STEREO_COUNT>  (1) 
1

>  <PUBCHEM_ISOTOPIC_ATOM_COUNT>  (1) 
0

>  <PUBCHEM_COMPONENT_COUNT>  (1) 
1

>  <PUBCHEM_CACTVS_TAUTO_COUNT>  (1) 
1

>  <PUBCHEM_CONFORMER_ID>  (1) 
0000AAF100000001

>  <PUBCHEM_MMFF94_ENERGY>  (1) 
55.4398

>  <PUBCHEM_FEATURE_SELFOVERLAP>  (1) 
30.448

>  <PUBCHEM_SHAPE_FINGERPRINT>  (1) 
10 15 18187081745963881091
10625338 86 17312813871156932085
106641 1 12901546853989617918
11061554 47 18131063827542115192
11135609 99 8790591620579929121
11211813 74 17988921215609544544
11315181 36 17988927761260632971
11409948 35 18271249310586224318
11409948 41 15410626826881907580
11463208 3 9079113375851045705
11607047 141 18336255762424852866
11638347 137 12757142477460669896
12089408 11 18114177544851955995
12498461 61 11891339772799430521
12522641 33 16988848267358920070
12539745 222 11314297343883937911
12664476 115 18186796977296186229
13530399 1 17967820496208218348
14118638 360 16988289672723836659
14150022 121 17603579687148114373
14251764 18 18186798084432124258
14251764 46 18410575097547993802
14251920 17 18411416199735161701
14344974 52 17917424367937120031
14428016 248 17822016427726622884
15061470 23 18334574655599325476
15461852 350 17704067434944192319
155225 1 18409729544022950149
15690457 1 10735880565042186084
1577012 14 18271516559169981535
15840311 113 17967537896271238076
16087824 20 18411981330661992481
1754911 235 17418372497956047861
1818759 1 9151174259448033908
18335252 114 16630524055639224680
20505436 4 18341604923682943686
21095086 128 12103845652756718400
21362267 2 17703212014872182528
21362267 313 18115301173068953610
21792934 111 18130499783336526794
21895431 317 12823028478462370140
22224240 67 14851604392675728186
23524908 199 17489312954258222214
23576562 1 16772935051867819889
246663 6 8430319043321014874
24771293 8 18186801370889182247
249057 3 16271922748617632662
3092352 35 17676486168064844386
3178227 256 13839986616660221282
335352 9 18343863342251052655
3711267 37 18411992368047604304
4073 2 18186245026654212067
44280117 145 18341330081543473335
4760202 170 17275096276213418640
54039377 194 9367343743528036259
5719381 82 9943802301404053101
5758199 1 17894347782711310218
59682541 35 17822013120680815337
636775 72 18335701595236718669
636775 8 14405173007826025117
67123 10 18407760352381998083
9663363 56 17275385414212877696

>  <PUBCHEM_SHAPE_MULTIPOLES>  (1) 
516.13
41.53
1.72
0.89
18.8
0.01
0.06
24.06
2.37
1.83
0.08
-1.78
0.14
0.97

>  <PUBCHEM_SHAPE_SELFOVERLAP>  (1) 
1065.858

>  <PUBCHEM_SHAPE_VOLUME>  (1) 
296.4

>  <PUBCHEM_COORDINATE_TYPE>  (1) 
2
5
10

$$$$
