43766
     RDKit          3D

 13 12  0  0  0  0  0  0  0  0999 V2000
    5.3990    1.8507    0.0027 O   0  0  0  0  0  0  0  0  0  0  0  0
    0.0996   -3.1287    0.7455 O   0  0  0  0  0  0  0  0  0  0  0  0
    0.0085   -1.1910   -0.0935 N   0  0  0  0  0  0  0  0  0  0  0  0
   -0.3326   -2.4607   -0.2016 N   0  0  0  0  0  0  0  0  0  0  0  0
   -2.1444   -0.0712    0.2508 C   0  0  0  0  0  0  0  0  0  0  0  0
   -0.9727   -0.3005   -0.7024 C   0  0  0  0  0  0  0  0  0  0  0  0
    1.3487   -0.8909   -0.6239 C   0  0  0  0  0  0  0  0  0  0  0  0
   -3.1974    0.8444   -0.3773 C   0  0  0  0  0  0  0  0  0  0  0  0
    2.0270    0.1832    0.2246 C   0  0  0  0  0  0  0  0  0  0  0  0
    3.4173    0.5164   -0.3144 C   0  0  0  0  0  0  0  0  0  0  0  0
   -4.3545    1.1049    0.5868 C   0  0  0  0  0  0  0  0  0  0  0  0
    4.1201    1.5562    0.5486 C   0  0  0  0  0  0  0  0  0  0  0  0
   -5.4187    1.9873   -0.0459 C   0  0  0  0  0  0  0  0  0  0  0  0
  1 12  1  0
  2  4  2  0
  3  4  1  0
  3  6  1  0
  3  7  1  0
  5  6  1  0
  5  8  1  0
  7  9  1  0
  8 11  1  0
  9 10  1  0
 10 12  1  0
 11 13  1  0
M  END
>  <PUBCHEM_COMPOUND_CID>  (1) 
43766

>  <PUBCHEM_CONFORMER_RMSD>  (1) 
1

>  <PUBCHEM_CONFORMER_DIVERSEORDER>  (1) 
1
21
442
373
209
226
7
271
110
76
582
333
381
363
8
86
224
348
307
262
170
380
445
151
4
56
219
10
148
159
72
586
33
320
330
298
444
408
64
11
471
368
28
5
13
573
520
522
31
119
611
19
3
587
115
606
287
173
454
60
273
66
51
9
25
169
463
475
116
352
614
164
49
205
192
513
397
32

>  <PUBCHEM_MMFF94_PARTIAL_CHARGES>  (1) 
8
1 -0.68
12 0.28
2 -0.16
3 -0.36
33 0.4
4 -0.01
6 0.27
7 0.27

>  <PUBCHEM_EFFECTIVE_ROTOR_COUNT>  (1) 
9

>  <PUBCHEM_PHARMACOPHORE_FEATURES>  (1) 
3
1 1 acceptor
1 1 donor
1 13 hydrophobe

>  <PUBCHEM_HEAVY_ATOM_COUNT>  (1) 
13

>  <PUBCHEM_ATOM_DEF_STEREO_COUNT>  (1) 
0

>  <PUBCHEM_ATOM_UDEF_STEREO_COUNT>  (1) 
0

>  <PUBCHEM_BOND_DEF_STEREO_COUNT>  (1) 
0

>  <PUBCHEM_BOND_UDEF_STEREO_COUNT>  (1) 
0

>  <PUBCHEM_ISOTOPIC_ATOM_COUNT>  (1) 
0

>  <PUBCHEM_COMPONENT_COUNT>  (1) 
1

>  <PUBCHEM_CACTVS_TAUTO_COUNT>  (1) 
1

>  <PUBCHEM_CONFORMER_ID>  (1) 
0000AAF600000001

>  <PUBCHEM_MMFF94_ENERGY>  (1) 
9.4904

>  <PUBCHEM_FEATURE_SELFOVERLAP>  (1) 
15.223

>  <PUBCHEM_SHAPE_FINGERPRINT>  (1) 
100836 57 18412830196155564444
122479 349 18340769350916525092
12532896 13 18410295830274813382
13955234 65 18120098278024585099
14123255 352 18413108372402180465
14123255 52 18411417306333237713
1420 369 10737281333797163272
14252887 29 8718530693177887758
14455015 7 10159683721473897237
15501527 16 18340771541434729360
170605 34 18200596895589815231
1741750 31 18340204193460826386
17834072 32 18339361975996704564
19784866 34 18413106130808774313
20112054 13 18408042926627691540
20374829 77 9439412315017218669
204376 136 18409166610563335983
20605781 2 18342459235885441525
20621476 21 13038032574289816421
20621476 66 18339645637676271284
20645477 56 18337392746602763204
20767249 142 9079117760774966228
20871998 22 8862935061381015151
21499 59 18413102840821504311
21524375 3 18343016683690110846
21618674 25 18261396598992961361
23402655 69 17632578240466347604
23403322 49 9439413423071451093
23500284 214 18411138082177664632
23532345 1 18265617581219432025
23590187 49 18412543227662273268
270888 7 18412824698465862096
2916195 48 18201995581591290808
293599 30 18411983572196863156
449060 50 18337958883738416181
449060 62 18270963428059814097
59345606 38 18413669106511069277
633830 44 18343017757426654047
77188 2 17329145771826059307
81539 233 18336828581009969359

>  <PUBCHEM_SHAPE_MULTIPOLES>  (1) 
245.83
10.59
2.63
0.78
1.81
1.9
0
-12.06
0.81
-0.65
0.5
0.05
0.07
0.18

>  <PUBCHEM_SHAPE_SELFOVERLAP>  (1) 
445.494

>  <PUBCHEM_SHAPE_VOLUME>  (1) 
158.8

>  <PUBCHEM_COORDINATE_TYPE>  (1) 
2
5
10

$$$$
