43772
     RDKit          3D

 22 24  0  0  0  0  0  0  0  0999 V2000
   -3.9715   -0.8323   -0.0373 S   0  0  0  0  0  0  0  0  0  0  0  0
    3.9715    0.8324   -0.0375 S   0  0  0  0  0  0  0  0  0  0  0  0
   -3.8580   -1.5054    1.4450 O   0  0  0  0  0  0  0  0  0  0  0  0
    3.8586    1.5055    1.4448 O   0  0  0  0  0  0  0  0  0  0  0  0
   -5.2842   -0.2190   -0.1333 O   0  0  0  0  0  0  0  0  0  0  0  0
   -3.5240   -1.8045   -1.0176 O   0  0  0  0  0  0  0  0  0  0  0  0
    5.2841    0.2190   -0.1340 O   0  0  0  0  0  0  0  0  0  0  0  0
    3.5235    1.8044   -1.0176 O   0  0  0  0  0  0  0  0  0  0  0  0
   -1.3963    0.2228   -0.0368 C   0  0  0  0  0  0  0  0  0  0  0  0
    1.3963   -0.2228   -0.0364 C   0  0  0  0  0  0  0  0  0  0  0  0
   -0.5072    1.3199   -0.0366 C   0  0  0  0  0  0  0  0  0  0  0  0
    0.5072   -1.3199   -0.0368 C   0  0  0  0  0  0  0  0  0  0  0  0
   -0.8775   -1.0828   -0.0369 C   0  0  0  0  0  0  0  0  0  0  0  0
    0.8775    1.0828   -0.0365 C   0  0  0  0  0  0  0  0  0  0  0  0
   -2.7808    0.4608   -0.0367 C   0  0  0  0  0  0  0  0  0  0  0  0
    2.7808   -0.4607   -0.0362 C   0  0  0  0  0  0  0  0  0  0  0  0
   -1.0268    2.6251   -0.0366 C   0  0  0  0  0  0  0  0  0  0  0  0
    1.0268   -2.6251   -0.0369 C   0  0  0  0  0  0  0  0  0  0  0  0
   -3.2804    1.7633   -0.0366 C   0  0  0  0  0  0  0  0  0  0  0  0
    3.2803   -1.7632   -0.0362 C   0  0  0  0  0  0  0  0  0  0  0  0
   -2.4045    2.8441   -0.0366 C   0  0  0  0  0  0  0  0  0  0  0  0
    2.4044   -2.8441   -0.0366 C   0  0  0  0  0  0  0  0  0  0  0  0
  1  3  1  0
  1  5  2  0
  1  6  2  0
  1 15  1  0
  2  4  1  0
  2  7  2  0
  2  8  2  0
  2 16  1  0
  9 11  1  0
  9 13  2  0
  9 15  1  0
 10 12  2  0
 10 14  1  0
 10 16  1  0
 11 14  2  0
 11 17  1  0
 12 13  1  0
 12 18  1  0
 15 19  2  0
 16 20  2  0
 17 21  2  0
 18 22  2  0
 19 21  1  0
 20 22  1  0
M  END
>  <PUBCHEM_COMPOUND_CID>  (1) 
43772

>  <PUBCHEM_CONFORMER_RMSD>  (1) 
0.6

>  <PUBCHEM_CONFORMER_DIVERSEORDER>  (1) 
1
2

>  <PUBCHEM_MMFF94_PARTIAL_CHARGES>  (1) 
28
1 1.49
13 -0.15
14 -0.15
15 -0.01
16 -0.01
17 -0.15
18 -0.15
19 -0.15
2 1.49
20 -0.15
21 -0.15
22 -0.15
23 0.15
24 0.15
25 0.15
26 0.15
27 0.15
28 0.15
29 0.15
3 -0.68
30 0.15
31 0.5
32 0.5
4 -0.68
5 -0.65
6 -0.65
7 -0.65
8 -0.65

>  <PUBCHEM_EFFECTIVE_ROTOR_COUNT>  (1) 
2

>  <PUBCHEM_PHARMACOPHORE_FEATURES>  (1) 
11
1 3 acceptor
1 4 acceptor
1 5 acceptor
1 6 acceptor
1 7 acceptor
1 8 acceptor
4 1 3 5 6 anion
4 2 4 7 8 anion
6 10 12 16 18 20 22 rings
6 9 10 11 12 13 14 rings
6 9 11 15 17 19 21 rings

>  <PUBCHEM_HEAVY_ATOM_COUNT>  (1) 
22

>  <PUBCHEM_ATOM_DEF_STEREO_COUNT>  (1) 
0

>  <PUBCHEM_ATOM_UDEF_STEREO_COUNT>  (1) 
0

>  <PUBCHEM_BOND_DEF_STEREO_COUNT>  (1) 
0

>  <PUBCHEM_BOND_UDEF_STEREO_COUNT>  (1) 
0

>  <PUBCHEM_ISOTOPIC_ATOM_COUNT>  (1) 
0

>  <PUBCHEM_COMPONENT_COUNT>  (1) 
1

>  <PUBCHEM_CACTVS_TAUTO_COUNT>  (1) 
1

>  <PUBCHEM_CONFORMER_ID>  (1) 
0000AAFC00000001

>  <PUBCHEM_MMFF94_ENERGY>  (1) 
58.5262

>  <PUBCHEM_FEATURE_SELFOVERLAP>  (1) 
55.988

>  <PUBCHEM_SHAPE_FINGERPRINT>  (1) 
10074138 170 17691371498795722426
10090160 65 18260544558542832262
10608611 8 18266457598927581644
10616163 171 18411703145139120055
10670039 82 18261690216058938020
10906281 52 18338814346824111149
10967382 1 18410575127623307926
1100329 8 18122344854540255340
12403259 226 18339074870618217912
12403259 415 18273491291355162088
12403260 363 18408879651293241908
12553582 1 18340198704593050271
12839892 36 18337935823721524186
13140716 1 17978228588427608401
13224815 77 18410575054598307843
13544653 18 18408046221305203967
14178342 30 18120922924413469336
14223421 5 18339079259494227518
14289901 80 18410855434358358251
14787075 74 18115590498982344651
14790565 3 18122075453002385757
15196674 1 18338517426200641605
15375462 6 18410856533880600366
15442244 35 18049722923464659274
15536298 74 18341332180626764374
15927050 60 17331127607080162669
16945 1 18338799025731403798
17349148 13 18040714792238723996
17492 89 18265896865283527171
19591789 44 17905614654575615199
20510252 161 18342176635405565217
20691752 17 17386859313445498016
21267235 1 18339088094358539103
21501502 16 18266740186152960016
221490 88 18266748982642166754
22393880 68 18268154150101895366
2334 1 18410575054598307878
23366157 5 17969790670494112866
23402539 116 18341044215595812551
23557571 272 18272095976101329516
23558518 356 18115599144608768569
23559900 14 18266454300624696490
2748010 2 18338517426200641741
2871803 45 18410291393583639391
335352 9 17906453220985668068
34934 24 18411132524896282471
350125 39 18411419475850696458
474 4 18113341899166935484
474229 33 18409449228127960882
5104073 3 18338516322394047384
5283173 99 18042111069412581893
5312544 6 18261678194044601340
5486654 2 18338239365876074694
58051976 378 18411138034859301558
59755656 215 18409450271631226678
7097593 13 17394440308496158891
7364860 26 18125720089646023950
9709674 26 18265620887679916815

>  <PUBCHEM_SHAPE_MULTIPOLES>  (1) 
425.23
8.99
3.11
0.82
0
0
0.13
0
0.24
0
-0.04
0
0
0.18

>  <PUBCHEM_SHAPE_SELFOVERLAP>  (1) 
925.193

>  <PUBCHEM_SHAPE_VOLUME>  (1) 
231.3

>  <PUBCHEM_COORDINATE_TYPE>  (1) 
2
5
10

$$$$
