43776
     RDKit          3D

  8  7  0  0  1  0  0  0  0  0999 V2000
    1.4311    0.4572   -0.5424 O   0  0  0  0  0  0  0  0  0  0  0  0
   -2.5607   -0.6243   -0.3642 O   0  0  0  0  0  0  0  0  0  0  0  0
   -0.8023    0.2552    0.3983 N   0  0  0  0  0  0  0  0  0  0  0  0
   -1.3970   -0.3061   -0.6365 N   0  0  0  0  0  0  0  0  0  0  0  0
    0.6362   -0.0935    0.5200 C   0  0  0  0  0  0  0  0  0  0  0  0
    0.8357   -1.6151    0.5662 C   0  0  0  0  0  0  0  0  0  0  0  0
   -0.9653    1.7171    0.4476 C   0  0  0  0  0  0  0  0  0  0  0  0
    2.8222    0.2094   -0.3890 C   0  0  0  0  0  0  0  0  0  0  0  0
  1  5  1  0
  1  8  1  0
  2  4  2  0
  3  4  1  0
  3  5  1  0
  3  7  1  0
  5  6  1  0
M  END
>  <PUBCHEM_COMPOUND_CID>  (1) 
43776

>  <PUBCHEM_CONFORMER_RMSD>  (1) 
0.6

>  <PUBCHEM_CONFORMER_DIVERSEORDER>  (1) 
5
25
21
31
20
22
24
16
2
13
7
3
29
12
11
6
28
23
9
1
26
19
30
18
8
15
14
27
17
4
10

>  <PUBCHEM_MMFF94_PARTIAL_CHARGES>  (1) 
7
1 -0.56
2 -0.16
3 -0.36
4 -0.01
5 0.55
7 0.27
8 0.28

>  <PUBCHEM_EFFECTIVE_ROTOR_COUNT>  (1) 
3

>  <PUBCHEM_PHARMACOPHORE_FEATURES>  (1) 
1
1 1 acceptor

>  <PUBCHEM_HEAVY_ATOM_COUNT>  (1) 
8

>  <PUBCHEM_ATOM_DEF_STEREO_COUNT>  (1) 
0

>  <PUBCHEM_ATOM_UDEF_STEREO_COUNT>  (1) 
1

>  <PUBCHEM_BOND_DEF_STEREO_COUNT>  (1) 
0

>  <PUBCHEM_BOND_UDEF_STEREO_COUNT>  (1) 
0

>  <PUBCHEM_ISOTOPIC_ATOM_COUNT>  (1) 
0

>  <PUBCHEM_COMPONENT_COUNT>  (1) 
1

>  <PUBCHEM_CACTVS_TAUTO_COUNT>  (1) 
1

>  <PUBCHEM_CONFORMER_ID>  (1) 
0000AB0000000005

>  <PUBCHEM_MMFF94_ENERGY>  (1) 
20.6477

>  <PUBCHEM_FEATURE_SELFOVERLAP>  (1) 
5.074

>  <PUBCHEM_SHAPE_FINGERPRINT>  (1) 
12897270 3 18410290324083866270
16714656 1 17988927790164685479
18185500 45 18338229362759929643
20096714 4 18120104883272452512
21040471 1 18261403243122771242
23552423 10 18192148192054169955
24536 1 17895478007633882328
29004967 10 18200594825225544459
5084963 1 17168434851829847752

>  <PUBCHEM_SHAPE_MULTIPOLES>  (1) 
142.94
3.17
1.45
0.81
0.66
0.04
0.02
0.03
-0.8
-0.23
0.3
0.01
-0.02
-0.46

>  <PUBCHEM_SHAPE_SELFOVERLAP>  (1) 
257.32

>  <PUBCHEM_SHAPE_VOLUME>  (1) 
93.4

>  <PUBCHEM_COORDINATE_TYPE>  (1) 
2
5
10

$$$$
