43771
     RDKit          3D

 26 31  0  0  0  0  0  0  0  0999 V2000
    6.0203   -2.5165    0.0010 F   0  0  0  0  0  0  0  0  0  0  0  0
   -6.9949   -0.6999    0.0010 F   0  0  0  0  0  0  0  0  0  0  0  0
   -0.6951    0.5396   -0.0002 C   0  0  0  0  0  0  0  0  0  0  0  0
    0.7338    0.6088   -0.0004 C   0  0  0  0  0  0  0  0  0  0  0  0
   -1.3709   -0.7067   -0.0004 C   0  0  0  0  0  0  0  0  0  0  0  0
    1.5267   -0.5665   -0.0004 C   0  0  0  0  0  0  0  0  0  0  0  0
   -1.4468    1.7367    0.0002 C   0  0  0  0  0  0  0  0  0  0  0  0
    1.3662    1.8729   -0.0004 C   0  0  0  0  0  0  0  0  0  0  0  0
   -2.8098   -0.7470   -0.0003 C   0  0  0  0  0  0  0  0  0  0  0  0
    2.9628   -0.4675   -0.0002 C   0  0  0  0  0  0  0  0  0  0  0  0
   -3.5314    0.4707    0.0004 C   0  0  0  0  0  0  0  0  0  0  0  0
    3.5635    0.8141   -0.0004 C   0  0  0  0  0  0  0  0  0  0  0  0
   -0.5631   -1.8578   -0.0008 C   0  0  0  0  0  0  0  0  0  0  0  0
    0.8339   -1.7902   -0.0007 C   0  0  0  0  0  0  0  0  0  0  0  0
   -2.8436    1.6871    0.0007 C   0  0  0  0  0  0  0  0  0  0  0  0
    2.7614    1.9583   -0.0006 C   0  0  0  0  0  0  0  0  0  0  0  0
   -0.7929    2.9720    0.0002 C   0  0  0  0  0  0  0  0  0  0  0  0
    0.5960    3.0393   -0.0002 C   0  0  0  0  0  0  0  0  0  0  0  0
   -3.5782   -1.9399   -0.0009 C   0  0  0  0  0  0  0  0  0  0  0  0
    3.8428   -1.5806    0.0005 C   0  0  0  0  0  0  0  0  0  0  0  0
   -4.9376    0.4706    0.0009 C   0  0  0  0  0  0  0  0  0  0  0  0
    4.9631    0.9500   -0.0002 C   0  0  0  0  0  0  0  0  0  0  0  0
   -4.9756   -1.9274   -0.0007 C   0  0  0  0  0  0  0  0  0  0  0  0
    5.2325   -1.4332    0.0009 C   0  0  0  0  0  0  0  0  0  0  0  0
   -5.6561   -0.7205    0.0003 C   0  0  0  0  0  0  0  0  0  0  0  0
    5.7931   -0.1663    0.0006 C   0  0  0  0  0  0  0  0  0  0  0  0
  1 24  1  0
  2 25  1  0
  3  4  2  0
  3  5  1  0
  3  7  1  0
  4  6  1  0
  4  8  1  0
  5  9  1  0
  5 13  2  0
  6 10  1  0
  6 14  2  0
  7 15  2  0
  7 17  1  0
  8 16  2  0
  8 18  1  0
  9 11  2  0
  9 19  1  0
 10 12  2  0
 10 20  1  0
 11 15  1  0
 11 21  1  0
 12 16  1  0
 12 22  1  0
 13 14  1  0
 17 18  2  0
 19 23  2  0
 20 24  2  0
 21 25  2  0
 22 26  2  0
 23 25  1  0
 24 26  1  0
M  END
>  <PUBCHEM_COMPOUND_CID>  (1) 
43771

>  <PUBCHEM_CONFORMER_RMSD>  (1) 
0.6

>  <PUBCHEM_CONFORMER_DIVERSEORDER>  (1) 
1

>  <PUBCHEM_MMFF94_PARTIAL_CHARGES>  (1) 
28
1 -0.19
13 -0.15
14 -0.15
15 -0.15
16 -0.15
17 -0.15
18 -0.15
19 -0.15
2 -0.19
20 -0.15
21 -0.15
22 -0.15
23 -0.15
24 0.19
25 0.19
26 -0.15
27 0.15
28 0.15
29 0.15
30 0.15
31 0.15
32 0.15
33 0.15
34 0.15
35 0.15
36 0.15
37 0.15
38 0.15

>  <PUBCHEM_EFFECTIVE_ROTOR_COUNT>  (1) 
0

>  <PUBCHEM_PHARMACOPHORE_FEATURES>  (1) 
6
6 10 12 20 22 24 26 rings
6 3 4 5 6 13 14 rings
6 3 4 7 8 17 18 rings
6 3 5 7 9 11 15 rings
6 4 6 8 10 12 16 rings
6 9 11 19 21 23 25 rings

>  <PUBCHEM_HEAVY_ATOM_COUNT>  (1) 
26

>  <PUBCHEM_ATOM_DEF_STEREO_COUNT>  (1) 
0

>  <PUBCHEM_ATOM_UDEF_STEREO_COUNT>  (1) 
0

>  <PUBCHEM_BOND_DEF_STEREO_COUNT>  (1) 
0

>  <PUBCHEM_BOND_UDEF_STEREO_COUNT>  (1) 
0

>  <PUBCHEM_ISOTOPIC_ATOM_COUNT>  (1) 
0

>  <PUBCHEM_COMPONENT_COUNT>  (1) 
1

>  <PUBCHEM_CACTVS_TAUTO_COUNT>  (1) 
1

>  <PUBCHEM_CONFORMER_ID>  (1) 
0000AAFB00000001

>  <PUBCHEM_MMFF94_ENERGY>  (1) 
93.6673

>  <PUBCHEM_FEATURE_SELFOVERLAP>  (1) 
30.622

>  <PUBCHEM_SHAPE_FINGERPRINT>  (1) 
10 15 18339631348636199640
10411042 1 18410575071783458278
10622 236 17485064621554462799
10693767 8 18127673032782663455
10906281 52 18266199329527146563
10967382 1 18338517555055195012
1100329 8 18338234997947341827
11578080 2 16735218307095456415
11607047 403 15904846608803746195
11963148 33 18411695504488376590
12107183 9 17688305686129635410
12166972 35 17894353276163905396
12236239 1 17989208166025413619
12403259 226 18410851079267502701
12516196 113 18342737433575057248
12838862 33 18267003094002368017
13140716 1 18341333309844928481
13402501 40 18410292523070211375
138480 1 14952091620718551112
13862211 1 18410855447254010787
14117953 113 18272089366843006703
14341114 176 18409171030074263987
14347332 77 18263077709217084898
14790565 3 18410862070130894249
14866123 147 18268997475579025881
15042514 8 18339643313518358156
15131766 46 14762907945610569962
15196674 1 18410573980946401476
15352361 1 18410575093300674656
15927050 60 17621882410769247260
16087824 20 18265614274670510469
17492 89 18050567640933180435
1813 80 17530962493077995212
18681886 176 18271236231371031899
19591789 44 18410573993778341486
200 152 18202281416154595705
20028762 73 18273493485487793343
21130935 74 18272933829684370163
21236236 1 18341050722967313265
21267235 1 18410581681732917047
21279426 13 18336824195684921085
21682296 61 18271252612191968198
21792934 111 18340756079135615777
221357 26 18408882940615705077
221490 88 18191310587927379283
22182313 1 18265026167832593924
22393880 68 18114452366908292845
23402539 116 18342452651415532575
23522609 53 18122940643835838121
23559900 14 18338509854774867521
3004659 81 18186802478900793958
3178227 256 18335996345608805395
335352 9 18410573994638184949
350125 39 18411138047570402629
3886686 26 17038072059274456266
4073 2 18041564766166778906
4093350 32 16773524369100712048
4214541 1 18410856529664936133
46194498 28 17386004034943560660
465052 167 18342181089260270838
5104073 3 18271801277484629080
59755656 215 18408323263454276351
6138700 20 18409167688347283506
8863177 126 17824838964728834587
9709674 26 18191307289471851091

>  <PUBCHEM_SHAPE_MULTIPOLES>  (1) 
520.52
13.19
2.94
0.61
1.99
1.08
0
-7.2
0
-0.73
0
0
0.01
0

>  <PUBCHEM_SHAPE_SELFOVERLAP>  (1) 
1232.679

>  <PUBCHEM_SHAPE_VOLUME>  (1) 
262.6

>  <PUBCHEM_COORDINATE_TYPE>  (1) 
2
5
10

$$$$
