43787
     RDKit          3D

 17 18  0  0  0  0  0  0  0  0999 V2000
    1.1716    1.5454   -0.8337 O   0  0  0  0  0  0  0  0  0  0  0  0
   -3.9336   -1.2976    0.4517 O   0  0  0  0  0  0  0  0  0  0  0  0
   -1.4472   -3.3192   -0.5744 N   0  0  0  0  0  0  0  0  0  0  0  0
   -0.1262    1.4639   -0.4320 C   0  0  0  0  0  0  0  0  0  0  0  0
   -0.7626    0.2240   -0.3760 C   0  0  0  0  0  0  0  0  0  0  0  0
   -2.0928    0.1406    0.0355 C   0  0  0  0  0  0  0  0  0  0  0  0
    2.0665    0.6276   -0.3100 C   0  0  0  0  0  0  0  0  0  0  0  0
   -0.8199    2.6205   -0.0764 C   0  0  0  0  0  0  0  0  0  0  0  0
   -2.7865    1.2974    0.3912 C   0  0  0  0  0  0  0  0  0  0  0  0
   -2.1501    2.5373    0.3354 C   0  0  0  0  0  0  0  0  0  0  0  0
    2.0387    0.3579    1.0464 C   0  0  0  0  0  0  0  0  0  0  0  0
    2.9658    0.0048   -1.1564 C   0  0  0  0  0  0  0  0  0  0  0  0
    2.9408   -0.5659    1.5742 C   0  0  0  0  0  0  0  0  0  0  0  0
    3.8678   -0.9190   -0.6287 C   0  0  0  0  0  0  0  0  0  0  0  0
    3.8553   -1.2043    0.7365 C   0  0  0  0  0  0  0  0  0  0  0  0
   -2.7565   -1.1520    0.0943 C   0  0  0  0  0  0  0  0  0  0  0  0
   -2.0311   -2.3612   -0.2776 C   0  0  0  0  0  0  0  0  0  0  0  0
  1  4  1  0
  1  7  1  0
  2 16  2  0
  3 17  3  0
  4  5  2  0
  4  8  1  0
  5  6  1  0
  6  9  2  0
  6 16  1  0
  7 11  2  0
  7 12  1  0
  8 10  2  0
  9 10  1  0
 11 13  1  0
 12 14  2  0
 13 15  2  0
 14 15  1  0
 16 17  1  0
M  END
>  <PUBCHEM_COMPOUND_CID>  (1) 
43787

>  <PUBCHEM_CONFORMER_RMSD>  (1) 
0.6

>  <PUBCHEM_CONFORMER_DIVERSEORDER>  (1) 
1
12
6
15
32
21
26
10
23
28
33
11
22
20
16
2
9
25
31
27
24
7
29
4
17
8
30
3
5
19
18
13
14
34
35

>  <PUBCHEM_MMFF94_PARTIAL_CHARGES>  (1) 
26
1 -0.17
10 -0.15
11 -0.15
12 -0.15
13 -0.15
14 -0.15
15 -0.15
16 0.59
17 0.45
18 0.15
19 0.15
2 -0.57
20 0.15
21 0.15
22 0.15
23 0.15
24 0.15
25 0.15
26 0.15
3 -0.56
4 0.08
5 -0.15
6 0.09
7 0.08
8 -0.15
9 -0.15

>  <PUBCHEM_EFFECTIVE_ROTOR_COUNT>  (1) 
3

>  <PUBCHEM_PHARMACOPHORE_FEATURES>  (1) 
5
1 1 acceptor
1 2 acceptor
1 3 acceptor
6 4 5 6 8 9 10 rings
6 7 11 12 13 14 15 rings

>  <PUBCHEM_HEAVY_ATOM_COUNT>  (1) 
17

>  <PUBCHEM_ATOM_DEF_STEREO_COUNT>  (1) 
0

>  <PUBCHEM_ATOM_UDEF_STEREO_COUNT>  (1) 
0

>  <PUBCHEM_BOND_DEF_STEREO_COUNT>  (1) 
0

>  <PUBCHEM_BOND_UDEF_STEREO_COUNT>  (1) 
0

>  <PUBCHEM_ISOTOPIC_ATOM_COUNT>  (1) 
0

>  <PUBCHEM_COMPONENT_COUNT>  (1) 
1

>  <PUBCHEM_CACTVS_TAUTO_COUNT>  (1) 
1

>  <PUBCHEM_CONFORMER_ID>  (1) 
0000AB0B00000001

>  <PUBCHEM_MMFF94_ENERGY>  (1) 
54.3257

>  <PUBCHEM_FEATURE_SELFOVERLAP>  (1) 
25.372

>  <PUBCHEM_SHAPE_FINGERPRINT>  (1) 
10366900 7 17703781501443105764
10616163 171 18337114475519005742
11578080 2 17750210621862707156
12346177 29 18341038619512096565
12500047 106 18196646303024481560
12553582 1 18267306610883026287
12633257 1 17989211412551165664
13538477 17 18260830345751227580
13931106 250 18190153755413077837
14081887 123 18198045070877879280
14178342 30 18263911160447338008
15006816 218 17763745386324303654
15375462 189 18045507666603680547
15653759 3 17775000150908118104
15669948 3 18335425638358702692
16752209 62 18336252471376875935
16945 1 18338233735063575885
17804303 29 18343305842463495212
18186145 218 11963387401937685540
19049666 15 17415567501975339532
19422 9 18114752546789239916
20291156 8 18262801894548204539
20361792 2 17240482472964595460
20442098 301 18411135865927203514
20510252 161 18273217478046128625
20645477 70 17186714460534204727
21452121 199 17980467177132913425
21634736 98 18187936131007347668
21650355 55 18340196419153763536
21731516 1 18186798093206545240
23184049 29 18339637970293880556
23557571 272 18343865528811542504
23559900 14 18343018874582724932
23598291 2 17749969777260148988
23598294 1 18409737235428357473
23728640 28 18338795615817729283
257057 1 18124303072249505439
34934 24 18051978309697401685
465052 167 17896908546093942257
568465 68 17275101709140721046
58807428 26 18125171428922222233
602551 16 18341328895335712962
6338986 31 18124301968390331799
74978 22 18408318861223541708
77492 1 17749399109319113412
81228 2 18342165696318936833
90525 40 18189899712276169025

>  <PUBCHEM_SHAPE_MULTIPOLES>  (1) 
333.13
6.73
2.97
1.06
3.45
0.99
-0.17
2.51
-0.91
-3.06
0.35
0.97
0.04
-0.46

>  <PUBCHEM_SHAPE_SELFOVERLAP>  (1) 
722.816

>  <PUBCHEM_SHAPE_VOLUME>  (1) 
179.6

>  <PUBCHEM_COORDINATE_TYPE>  (1) 
2
5
10

$$$$
