43789
     RDKit          3D

 22 24  0  0  0  0  0  0  0  0999 V2000
    2.1229   -2.6608   -0.1129 O   0  0  0  0  0  0  0  0  0  0  0  0
   -7.3465   -0.2583    0.5843 O   0  0  0  0  0  0  0  0  0  0  0  0
   -0.1384   -2.5198   -0.2457 O   0  0  0  0  0  0  0  0  0  0  0  0
    5.3416    1.8981    0.2847 O   0  0  0  0  0  0  0  0  0  0  0  0
    5.4763   -0.2912    0.1985 O   0  0  0  0  0  0  0  0  0  0  0  0
   -0.9999    0.4517   -0.1669 N   0  0  0  0  0  0  0  0  0  0  0  0
   -3.8524    0.5890   -0.2273 N   0  0  0  0  0  0  0  0  0  0  0  0
    0.9327   -1.8797   -0.1514 N   0  0  0  0  0  0  0  0  0  0  0  0
    3.1986   -1.7942   -0.0081 N   0  0  0  0  0  0  0  0  0  0  0  0
    4.7949    0.7672    0.2025 N   0  0  0  0  0  0  0  0  0  0  0  0
   -1.7673    0.3719    1.0824 C   0  0  0  0  0  0  0  0  0  0  0  0
   -1.6800    1.1069   -1.2884 C   0  0  0  0  0  0  0  0  0  0  0  0
   -3.1684   -0.1838    0.8170 C   0  0  0  0  0  0  0  0  0  0  0  0
   -3.0846    0.5285   -1.4769 C   0  0  0  0  0  0  0  0  0  0  0  0
    0.3960    0.4975   -0.0793 C   0  0  0  0  0  0  0  0  0  0  0  0
   -5.2091    0.0836   -0.4336 C   0  0  0  0  0  0  0  0  0  0  0  0
    1.2707   -0.5954   -0.0738 C   0  0  0  0  0  0  0  0  0  0  0  0
   -6.0345    0.2279    0.8351 C   0  0  0  0  0  0  0  0  0  0  0  0
    1.1132    1.7157    0.0187 C   0  0  0  0  0  0  0  0  0  0  0  0
    2.7115   -0.5454    0.0172 C   0  0  0  0  0  0  0  0  0  0  0  0
    2.5342    1.8064    0.1102 C   0  0  0  0  0  0  0  0  0  0  0  0
    3.3885    0.6842    0.1135 C   0  0  0  0  0  0  0  0  0  0  0  0
  1  8  1  0
  1  9  1  0
  2 18  1  0
  3  8  1  0
  4 10  1  0
  5 10  2  0
  6 11  1  0
  6 12  1  0
  6 15  1  0
  7 13  1  0
  7 14  1  0
  7 16  1  0
  8 17  2  0
  9 20  2  0
 10 22  1  0
 11 13  1  0
 12 14  1  0
 15 17  1  0
 15 19  2  0
 16 18  1  0
 17 20  1  0
 19 21  1  0
 20 22  1  0
 21 22  2  0
M  CHG  4   3  -1   4  -1   8   1  10   1
M  END
>  <PUBCHEM_COMPOUND_CID>  (1) 
43789

>  <PUBCHEM_CONFORMER_RMSD>  (1) 
0.8

>  <PUBCHEM_CONFORMER_DIVERSEORDER>  (1) 
1
3
2
5
7
8
4
9
6
10

>  <PUBCHEM_MMFF94_PARTIAL_CHARGES>  (1) 
25
1 -0.12
10 0.91
11 0.37
12 0.37
13 0.27
14 0.27
15 0.1
16 0.27
17 -0.08
18 0.28
19 -0.15
2 -0.68
20 0.29
21 -0.15
22 0.13
3 -0.63
33 0.15
36 0.15
37 0.4
4 -0.52
5 -0.52
6 -0.84
7 -0.81
8 0.95
9 -0.41

>  <PUBCHEM_EFFECTIVE_ROTOR_COUNT>  (1) 
5.2

>  <PUBCHEM_PHARMACOPHORE_FEATURES>  (1) 
12
1 2 acceptor
1 2 donor
1 3 anion
1 4 acceptor
1 4 anion
1 5 acceptor
1 6 cation
1 7 cation
1 9 acceptor
5 1 8 9 17 20 rings
6 15 17 19 20 21 22 rings
6 6 7 11 12 13 14 rings

>  <PUBCHEM_HEAVY_ATOM_COUNT>  (1) 
22

>  <PUBCHEM_ATOM_DEF_STEREO_COUNT>  (1) 
0

>  <PUBCHEM_ATOM_UDEF_STEREO_COUNT>  (1) 
0

>  <PUBCHEM_BOND_DEF_STEREO_COUNT>  (1) 
0

>  <PUBCHEM_BOND_UDEF_STEREO_COUNT>  (1) 
0

>  <PUBCHEM_ISOTOPIC_ATOM_COUNT>  (1) 
0

>  <PUBCHEM_COMPONENT_COUNT>  (1) 
1

>  <PUBCHEM_CACTVS_TAUTO_COUNT>  (1) 
1

>  <PUBCHEM_CONFORMER_ID>  (1) 
0000AB0D00000001

>  <PUBCHEM_MMFF94_ENERGY>  (1) 
72.2029

>  <PUBCHEM_FEATURE_SELFOVERLAP>  (1) 
61.11

>  <PUBCHEM_SHAPE_FINGERPRINT>  (1) 
10 15 18041273379154739064
10411042 1 17979638940605342542
12011746 2 18408610253611541422
12107183 9 17551806819984993561
12236239 1 17561082514361208173
12596602 18 17346597521514250731
12730499 353 18408324388719331378
12788726 201 17060064701327214843
13140716 1 18195518410711710816
13402501 40 18186803586722885595
13533116 47 18131351873855061795
13583140 156 16517342540442007260
13836976 161 18336269019675033492
14341114 176 18341618092552650549
14341114 328 17918276437719349107
14386348 63 17967254191467813889
19141452 34 18260834834762068315
200 152 18272366464920909929
20279233 1 17967257481154247921
204376 136 18410572929190915564
20567600 347 16588302752691507339
20645477 70 18337671914659952242
20681677 155 16128649777974757221
21197605 99 18193847157306740835
21267235 1 18340208488765803934
21521721 280 18341613771589139544
21623969 137 18335426772609825107
22079108 93 18202278147352206736
22224240 67 18410570733903516777
23557571 272 17313101912991081461
23559900 14 17168709605204300530
335352 9 18412266151776176094
33824 294 18408603634703240282
350125 39 18050288364672977752
3545911 37 18410293618281584113
42630746 31 18342178860351436198
4340502 62 18341614840872036823
465052 167 17894345575530246904
5104073 3 18263074414618525273
542803 24 17275103938102354889
59755656 215 18408327670069207118
8272917 22 18343306929327474717
9999458 23 17968095365434886972

>  <PUBCHEM_SHAPE_MULTIPOLES>  (1) 
398.5
12.89
1.99
0.94
12.8
1.1
-0.14
-1.8
2.57
-2.49
-0.16
1.02
-0.17
0.51

>  <PUBCHEM_SHAPE_SELFOVERLAP>  (1) 
846.371

>  <PUBCHEM_SHAPE_VOLUME>  (1) 
223.3

>  <PUBCHEM_COORDINATE_TYPE>  (1) 
2
5
10

$$$$
