43785
     RDKit          3D

 18 17  0  0  0  0  0  0  0  0999 V2000
   -0.2424    1.9466   -1.3349 S   0  0  0  0  0  0  0  0  0  0  0  0
   -0.6100   -0.5694   -1.9293 O   0  0  0  0  0  0  0  0  0  0  0  0
    2.5046    1.8097    0.1123 O   0  0  0  0  0  0  0  0  0  0  0  0
    1.5046   -1.5766    0.8131 O   0  0  0  0  0  0  0  0  0  0  0  0
    3.3829   -2.2479    1.8945 O   0  0  0  0  0  0  0  0  0  0  0  0
   -1.9052    0.1757   -0.1471 N   0  0  0  0  0  0  0  0  0  0  0  0
    2.7607   -0.2035   -1.0204 N   0  0  0  0  0  0  0  0  0  0  0  0
   -2.3008    1.2753    0.7345 C   0  0  0  0  0  0  0  0  0  0  0  0
   -2.5646   -1.0968    0.1210 C   0  0  0  0  0  0  0  0  0  0  0  0
   -1.4257    1.3651    1.9789 C   0  0  0  0  0  0  0  0  0  0  0  0
   -3.8591   -1.2572   -0.6671 C   0  0  0  0  0  0  0  0  0  0  0  0
   -0.9613    0.3346   -1.1743 C   0  0  0  0  0  0  0  0  0  0  0  0
   -1.8439    2.4926    2.9122 C   0  0  0  0  0  0  0  0  0  0  0  0
   -4.5653   -2.5739   -0.3767 C   0  0  0  0  0  0  0  0  0  0  0  0
    1.3882    1.5304   -1.9909 C   0  0  0  0  0  0  0  0  0  0  0  0
    2.2747    1.0826   -0.8527 C   0  0  0  0  0  0  0  0  0  0  0  0
    3.6164   -0.8573   -0.0565 C   0  0  0  0  0  0  0  0  0  0  0  0
    2.8461   -1.6298    0.9833 C   0  0  0  0  0  0  0  0  0  0  0  0
  1 12  1  0
  1 15  1  0
  2 12  2  0
  3 16  2  0
  4 18  1  0
  5 18  2  0
  6  8  1  0
  6  9  1  0
  6 12  1  0
  7 16  1  0
  7 17  1  0
  8 10  1  0
  9 11  1  0
 10 13  1  0
 11 14  1  0
 15 16  1  0
 17 18  1  0
M  END
>  <PUBCHEM_COMPOUND_CID>  (1) 
43785

>  <PUBCHEM_CONFORMER_RMSD>  (1) 
1

>  <PUBCHEM_CONFORMER_DIVERSEORDER>  (1) 
1
34
55
50
95
48
69
40
12
86
38
9
103
52
26
7
59
71
5
57
63
46
93
102
39
3
4
8
53
76
106
98
73
30
80
82
104
91
28
65
87
101
49
70
84
54
20
83
79
81
88
100
24
29
97
62
35
6
78
31
110
43
107
105
108
68
23
18
41
61
13
22
67
11
19
10
99
2
45
33
44
15
92
74
51
109
25
16
56
96
72
21
27
66
94
89
14
17
75
47
60
36
90
42
64
85
32
58
77
37

>  <PUBCHEM_MMFF94_PARTIAL_CHARGES>  (1) 
16
1 -0.37
12 0.77
15 0.29
16 0.57
17 0.36
18 0.66
2 -0.57
3 -0.57
35 0.37
38 0.5
4 -0.65
5 -0.57
6 -0.66
7 -0.73
8 0.3
9 0.3

>  <PUBCHEM_EFFECTIVE_ROTOR_COUNT>  (1) 
11

>  <PUBCHEM_PHARMACOPHORE_FEATURES>  (1) 
7
1 13 hydrophobe
1 14 hydrophobe
1 3 acceptor
1 4 acceptor
1 5 acceptor
1 7 donor
3 4 5 18 anion

>  <PUBCHEM_HEAVY_ATOM_COUNT>  (1) 
18

>  <PUBCHEM_ATOM_DEF_STEREO_COUNT>  (1) 
0

>  <PUBCHEM_ATOM_UDEF_STEREO_COUNT>  (1) 
0

>  <PUBCHEM_BOND_DEF_STEREO_COUNT>  (1) 
0

>  <PUBCHEM_BOND_UDEF_STEREO_COUNT>  (1) 
0

>  <PUBCHEM_ISOTOPIC_ATOM_COUNT>  (1) 
0

>  <PUBCHEM_COMPONENT_COUNT>  (1) 
1

>  <PUBCHEM_CACTVS_TAUTO_COUNT>  (1) 
2

>  <PUBCHEM_CONFORMER_ID>  (1) 
0000AB0900000001

>  <PUBCHEM_MMFF94_ENERGY>  (1) 
18.8195

>  <PUBCHEM_FEATURE_SELFOVERLAP>  (1) 
35.58

>  <PUBCHEM_SHAPE_FINGERPRINT>  (1) 
11578080 2 18268122384366447021
12596599 1 18267307530106377722
12824470 246 18410291441107717889
14251717 144 17895751945096326663
14251757 17 17168402944750415055
14787075 74 17623571260376251461
14844126 61 16813175794660229090
15207287 21 16299497460686329796
15295992 7 15409501961249759833
20645477 70 17096367426485146773
20671657 53 18113611305285882471
23503958 8 17916317047479071126
23557571 272 17418105273828381941
23598294 1 17631473274514955133
23728640 28 17250308623608375144
238 59 17241051031934107218
33382 64 17752215135203541467
3797600 57 18059016206264299086
621550 5 14689525409427161909

>  <PUBCHEM_SHAPE_MULTIPOLES>  (1) 
340.84
6.94
2.92
2.35
1.43
0.1
-0.9
-5.66
-0.87
1.27
-1.48
-0.27
1.32
-2.94

>  <PUBCHEM_SHAPE_SELFOVERLAP>  (1) 
635.092

>  <PUBCHEM_SHAPE_VOLUME>  (1) 
213.7

>  <PUBCHEM_COORDINATE_TYPE>  (1) 
2
5
10

$$$$
