43781
     RDKit          3D

 18 17  0  0  1  0  0  0  0  0999 V2000
   -0.7656   -0.8255    0.3787 S   0  0  0  0  0  0  0  0  0  0  0  0
    0.5977   -1.1853   -1.8191 O   0  0  0  0  0  0  0  0  0  0  0  0
   -3.9751   -0.0657    2.0343 O   0  0  0  0  0  0  0  0  0  0  0  0
   -3.7048    1.3947    0.3196 O   0  0  0  0  0  0  0  0  0  0  0  0
    1.7378    0.0378   -0.1694 N   0  0  0  0  0  0  0  0  0  0  0  0
   -4.5397   -1.0123   -1.1551 N   0  0  0  0  0  0  0  0  0  0  0  0
    3.0921   -0.2384   -0.5657 C   0  0  0  0  0  0  0  0  0  0  0  0
    1.5635    1.1149    0.8145 C   0  0  0  0  0  0  0  0  0  0  0  0
    3.7572   -1.2929    0.3259 C   0  0  0  0  0  0  0  0  0  0  0  0
    1.3784    2.4850    0.1526 C   0  0  0  0  0  0  0  0  0  0  0  0
    2.9903   -2.6129    0.2379 C   0  0  0  0  0  0  0  0  0  0  0  0
    3.8366   -0.8316    1.7829 C   0  0  0  0  0  0  0  0  0  0  0  0
    2.5994    2.8783   -0.6819 C   0  0  0  0  0  0  0  0  0  0  0  0
    0.1267    2.4782   -0.7255 C   0  0  0  0  0  0  0  0  0  0  0  0
    0.6364   -0.6861   -0.6965 C   0  0  0  0  0  0  0  0  0  0  0  0
   -2.1113   -0.9117   -0.8229 C   0  0  0  0  0  0  0  0  0  0  0  0
   -3.4813   -0.9684   -0.1443 C   0  0  0  0  0  0  0  0  0  0  0  0
   -3.7382    0.2418    0.7340 C   0  0  0  0  0  0  0  0  0  0  0  0
  1 15  1  0
  1 16  1  0
  2 15  2  0
  3 18  1  0
  4 18  2  0
  5  7  1  0
  5  8  1  0
  5 15  1  0
  6 17  1  0
  7  9  1  0
  8 10  1  0
  9 11  1  0
  9 12  1  0
 10 13  1  0
 10 14  1  0
 16 17  1  0
 17 18  1  0
M  END
>  <PUBCHEM_COMPOUND_CID>  (1) 
43781

>  <PUBCHEM_CONFORMER_RMSD>  (1) 
0.8

>  <PUBCHEM_CONFORMER_DIVERSEORDER>  (1) 
1
6
32
16
19
21
23
34
25
33
9
11
4
8
15
17
30
31
3
22
29
12
5
26
7
18
13
28
20
2
10
14
27
24

>  <PUBCHEM_MMFF94_PARTIAL_CHARGES>  (1) 
15
1 -0.37
15 0.77
16 0.23
17 0.33
18 0.66
2 -0.57
3 -0.65
4 -0.57
40 0.36
41 0.36
42 0.5
5 -0.66
6 -0.99
7 0.3
8 0.3

>  <PUBCHEM_EFFECTIVE_ROTOR_COUNT>  (1) 
9

>  <PUBCHEM_PHARMACOPHORE_FEATURES>  (1) 
7
1 3 acceptor
1 4 acceptor
1 6 cation
1 6 donor
3 10 13 14 hydrophobe
3 3 4 18 anion
3 9 11 12 hydrophobe

>  <PUBCHEM_HEAVY_ATOM_COUNT>  (1) 
18

>  <PUBCHEM_ATOM_DEF_STEREO_COUNT>  (1) 
1

>  <PUBCHEM_ATOM_UDEF_STEREO_COUNT>  (1) 
0

>  <PUBCHEM_BOND_DEF_STEREO_COUNT>  (1) 
0

>  <PUBCHEM_BOND_UDEF_STEREO_COUNT>  (1) 
0

>  <PUBCHEM_ISOTOPIC_ATOM_COUNT>  (1) 
0

>  <PUBCHEM_COMPONENT_COUNT>  (1) 
1

>  <PUBCHEM_CACTVS_TAUTO_COUNT>  (1) 
1

>  <PUBCHEM_CONFORMER_ID>  (1) 
0000AB0500000001

>  <PUBCHEM_MMFF94_ENERGY>  (1) 
36.2435

>  <PUBCHEM_FEATURE_SELFOVERLAP>  (1) 
35.579

>  <PUBCHEM_SHAPE_FINGERPRINT>  (1) 
10382601 240 18263643042882812068
10980938 120 18338517568261921892
11086676 242 18412543189445209592
12162725 195 18201721794937991911
12507557 5 18340476829442256111
12553582 1 18408324358966075870
12633257 1 18409168818192655875
12644460 14 18335140951084077760
12824470 246 16807275905565365202
13134695 92 18407755941271276372
13533116 47 18339641265304254659
14251739 40 18342168986021480855
14790565 3 18120658200195328620
15442244 35 18412263926054961425
15848700 24 18411411787653599350
1601671 61 18202010906413956348
17041 49 18411422791069622287
19078846 21 18411422773942533212
192875 21 18201424922556155733
20645477 70 18188478189960396263
20671657 1 18269273641464078668
21524375 3 17839750596478305765
2255824 54 18337954605491988574
23402539 116 18341605958705809855
23598291 2 18129371773456283158
312423 11 18200319943424826143
3286 77 18261387879903635791
4175511 71 18408041788519380212
4990 188 13045943465281199842
6786 2 16234824294173004060
7615 1 18059005206942913447
81228 2 18050862022095847850
9971528 1 18273493451412234910

>  <PUBCHEM_SHAPE_MULTIPOLES>  (1) 
346.71
8.25
2.82
1.4
7
1.93
-0.29
-2.78
-2.04
-2.73
0.41
0.36
-0.29
-0.92

>  <PUBCHEM_SHAPE_SELFOVERLAP>  (1) 
648.878

>  <PUBCHEM_SHAPE_VOLUME>  (1) 
218.3

>  <PUBCHEM_COORDINATE_TYPE>  (1) 
2
5
10

$$$$
