43784
     RDKit          3D

 17 16  0  0  1  0  0  0  0  0999 V2000
    0.2467    0.0162   -0.4132 S   0  0  0  0  0  0  0  0  0  0  0  0
   -2.6860    2.2195   -1.2289 O   0  0  0  0  0  0  0  0  0  0  0  0
    1.5994   -0.9945    1.6129 O   0  0  0  0  0  0  0  0  0  0  0  0
   -1.8145    2.9258    0.7414 O   0  0  0  0  0  0  0  0  0  0  0  0
   -4.1144   -1.6751    0.9754 O   0  0  0  0  0  0  0  0  0  0  0  0
    2.7232   -0.7300   -0.4098 N   0  0  0  0  0  0  0  0  0  0  0  0
   -3.0028   -0.2518   -0.4945 N   0  0  0  0  0  0  0  0  0  0  0  0
    5.1202   -0.1897   -0.1728 C   0  0  0  0  0  0  0  0  0  0  0  0
    4.0105   -1.2353   -0.0161 C   0  0  0  0  0  0  0  0  0  0  0  0
    5.2757    0.2546   -1.6290 C   0  0  0  0  0  0  0  0  0  0  0  0
    4.8281    1.0215    0.7135 C   0  0  0  0  0  0  0  0  0  0  0  0
   -2.3440    0.5733    0.4870 C   0  0  0  0  0  0  0  0  0  0  0  0
   -0.9889   -0.0039    0.9038 C   0  0  0  0  0  0  0  0  0  0  0  0
    1.6354   -0.6548    0.4374 C   0  0  0  0  0  0  0  0  0  0  0  0
   -2.2418    2.0206    0.0350 C   0  0  0  0  0  0  0  0  0  0  0  0
   -3.8352   -1.3099   -0.1637 C   0  0  0  0  0  0  0  0  0  0  0  0
   -4.4117   -1.9866   -1.3783 C   0  0  0  0  0  0  0  0  0  0  0  0
  1 13  1  0
  1 14  1  0
  2 15  1  0
  3 14  2  0
  4 15  2  0
  5 16  2  0
  6  9  1  0
  6 14  1  0
  7 12  1  0
  7 16  1  0
  8  9  1  0
  8 10  1  0
  8 11  1  0
 12 13  1  0
 12 15  1  0
 16 17  1  0
M  END
>  <PUBCHEM_COMPOUND_CID>  (1) 
43784

>  <PUBCHEM_CONFORMER_RMSD>  (1) 
0.8

>  <PUBCHEM_CONFORMER_DIVERSEORDER>  (1) 
1
17
116
90
147
114
40
121
149
41
128
150
130
92
59
105
9
94
57
31
129
85
14
154
109
161
124
64
117
106
33
77
89
55
13
8
132
144
108
136
95
119
6
100
5
103
37
140
134
26
112
80
56
16
46
70
81
45
159
139
84
160
156
151
66
91
113
71
43
97
126
32
143
49
99
53
60
12
24
165
48
86
104
35
102
75
47
63
148
78
82
4
93
73
29
123
2
110
25
68
122
52
79
42
54
118
163
36
69
7
28
138
141
19
120
88
34
111
152
67
11
58
107
22
44
127
76
115
15
155
164
135
3
50
142
65
51
72
30
125
146
39
145
133
87
101
21
27
62
96
61
23
38
158
153
162
157
137
10
74
98
18
131
83
20

>  <PUBCHEM_MMFF94_PARTIAL_CHARGES>  (1) 
17
1 -0.37
12 0.36
13 0.23
14 0.77
15 0.66
16 0.57
17 0.06
2 -0.65
3 -0.57
30 0.37
31 0.37
35 0.5
4 -0.57
5 -0.57
6 -0.73
7 -0.73
9 0.3

>  <PUBCHEM_EFFECTIVE_ROTOR_COUNT>  (1) 
9

>  <PUBCHEM_PHARMACOPHORE_FEATURES>  (1) 
7
1 2 acceptor
1 4 acceptor
1 5 acceptor
1 6 donor
1 7 donor
3 2 4 15 anion
3 8 10 11 hydrophobe

>  <PUBCHEM_HEAVY_ATOM_COUNT>  (1) 
17

>  <PUBCHEM_ATOM_DEF_STEREO_COUNT>  (1) 
1

>  <PUBCHEM_ATOM_UDEF_STEREO_COUNT>  (1) 
0

>  <PUBCHEM_BOND_DEF_STEREO_COUNT>  (1) 
0

>  <PUBCHEM_BOND_UDEF_STEREO_COUNT>  (1) 
0

>  <PUBCHEM_ISOTOPIC_ATOM_COUNT>  (1) 
0

>  <PUBCHEM_COMPONENT_COUNT>  (1) 
1

>  <PUBCHEM_CACTVS_TAUTO_COUNT>  (1) 
4

>  <PUBCHEM_CONFORMER_ID>  (1) 
0000AB0800000001

>  <PUBCHEM_MMFF94_ENERGY>  (1) 
17.1248

>  <PUBCHEM_FEATURE_SELFOVERLAP>  (1) 
35.581

>  <PUBCHEM_SHAPE_FINGERPRINT>  (1) 
10014705 185 17895757283619434197
10680689 15 18341621386396966714
11056379 131 18343309145240605207
11405975 8 18195530281774535018
11543360 7 18342739594328657594
13675066 3 11891340854871874602
14251758 9 9078847289862585920
14251764 18 18113332008828008722
15375358 24 12468633924281412568
17093844 174 8574425401460971222
17349148 13 17385729105802469558
17834072 33 18408604764585321454
18186145 218 17632019663564755866
200 152 18186518826043582215
20300324 65 18408325475330297856
20645477 56 18195535800564988481
20871999 31 18412537691881640071
21426921 1 18340769252169479777
22959321 105 18342458106229525176
23402539 116 18333450949898278223
235170 7 17775010051082107316
23557571 272 18271815596262151436
238078 22 18187369886877827259
3268164 11 18334293154119120485
5281201 14 17917998265678023092
603831 33 18187916270820608443
6049 1 17631997694021086321
633830 44 17459485359659381010
7495541 125 17704067426290850090

>  <PUBCHEM_SHAPE_MULTIPOLES>  (1) 
320.26
11.87
2.26
1.28
9.88
1.43
-0.15
-3.33
-2.9
-3.21
-0.15
0.2
-0.13
-0.19

>  <PUBCHEM_SHAPE_SELFOVERLAP>  (1) 
601.302

>  <PUBCHEM_SHAPE_VOLUME>  (1) 
199.7

>  <PUBCHEM_COORDINATE_TYPE>  (1) 
2
5
10

$$$$
