43783
     RDKit          3D

 21 20  0  0  1  0  0  0  0  0999 V2000
    0.4945   -0.5858    1.8908 S   0  0  0  0  0  0  0  0  0  0  0  0
   -0.5995    1.6088    0.9934 O   0  0  0  0  0  0  0  0  0  0  0  0
    2.8108   -1.5548   -0.9053 O   0  0  0  0  0  0  0  0  0  0  0  0
    3.9915   -1.6239    1.0291 O   0  0  0  0  0  0  0  0  0  0  0  0
    2.6387    3.1178   -0.4534 O   0  0  0  0  0  0  0  0  0  0  0  0
   -1.6716   -0.3585    0.2880 N   0  0  0  0  0  0  0  0  0  0  0  0
    1.9824    0.8893   -0.6091 N   0  0  0  0  0  0  0  0  0  0  0  0
   -2.6855    0.2815   -0.5054 C   0  0  0  0  0  0  0  0  0  0  0  0
   -1.7182   -1.8266    0.3274 C   0  0  0  0  0  0  0  0  0  0  0  0
   -3.5652    1.2248    0.3228 C   0  0  0  0  0  0  0  0  0  0  0  0
   -0.8865   -2.4665   -0.7897 C   0  0  0  0  0  0  0  0  0  0  0  0
   -4.6004    1.9409   -0.5475 C   0  0  0  0  0  0  0  0  0  0  0  0
   -4.2684    0.4449    1.4343 C   0  0  0  0  0  0  0  0  0  0  0  0
   -0.8990   -3.9941   -0.6986 C   0  0  0  0  0  0  0  0  0  0  0  0
   -1.4116   -2.0212   -2.1550 C   0  0  0  0  0  0  0  0  0  0  0  0
   -0.6857    0.3827    0.9907 C   0  0  0  0  0  0  0  0  0  0  0  0
    1.9437    0.4901    1.8223 C   0  0  0  0  0  0  0  0  0  0  0  0
    2.7308    0.3822    0.5138 C   0  0  0  0  0  0  0  0  0  0  0  0
    3.2458   -1.0254    0.2631 C   0  0  0  0  0  0  0  0  0  0  0  0
    2.0012    2.2200   -0.9974 C   0  0  0  0  0  0  0  0  0  0  0  0
    1.1523    2.4737   -2.2143 C   0  0  0  0  0  0  0  0  0  0  0  0
  1 16  1  0
  1 17  1  0
  2 16  2  0
  3 19  1  0
  4 19  2  0
  5 20  2  0
  6  8  1  0
  6  9  1  0
  6 16  1  0
  7 18  1  0
  7 20  1  0
  8 10  1  0
  9 11  1  0
 10 12  1  0
 10 13  1  0
 11 14  1  0
 11 15  1  0
 17 18  1  0
 18 19  1  0
 20 21  1  0
M  END
>  <PUBCHEM_COMPOUND_CID>  (1) 
43783

>  <PUBCHEM_CONFORMER_RMSD>  (1) 
1.2

>  <PUBCHEM_CONFORMER_DIVERSEORDER>  (1) 
1
41
26
21
29
36
45
13
2
39
9
15
25
19
11
46
34
5
8
33
28
40
48
12
47
16
17
44
10
31
4
14
38
30
7
42
22
24
6
35
3
32
20
27
23
43
18
37

>  <PUBCHEM_MMFF94_PARTIAL_CHARGES>  (1) 
17
1 -0.37
16 0.77
17 0.23
18 0.36
19 0.66
2 -0.57
20 0.57
21 0.06
3 -0.65
4 -0.57
43 0.37
47 0.5
5 -0.57
6 -0.66
7 -0.73
8 0.3
9 0.3

>  <PUBCHEM_EFFECTIVE_ROTOR_COUNT>  (1) 
11

>  <PUBCHEM_PHARMACOPHORE_FEATURES>  (1) 
7
1 3 acceptor
1 4 acceptor
1 5 acceptor
1 7 donor
3 10 12 13 hydrophobe
3 11 14 15 hydrophobe
3 3 4 19 anion

>  <PUBCHEM_HEAVY_ATOM_COUNT>  (1) 
21

>  <PUBCHEM_ATOM_DEF_STEREO_COUNT>  (1) 
1

>  <PUBCHEM_ATOM_UDEF_STEREO_COUNT>  (1) 
0

>  <PUBCHEM_BOND_DEF_STEREO_COUNT>  (1) 
0

>  <PUBCHEM_BOND_UDEF_STEREO_COUNT>  (1) 
0

>  <PUBCHEM_ISOTOPIC_ATOM_COUNT>  (1) 
0

>  <PUBCHEM_COMPONENT_COUNT>  (1) 
1

>  <PUBCHEM_CACTVS_TAUTO_COUNT>  (1) 
2

>  <PUBCHEM_CONFORMER_ID>  (1) 
0000AB0700000001

>  <PUBCHEM_MMFF94_ENERGY>  (1) 
36.8229

>  <PUBCHEM_FEATURE_SELFOVERLAP>  (1) 
35.581

>  <PUBCHEM_SHAPE_FINGERPRINT>  (1) 
12422481 6 17402887826203767922
12500047 106 18201146745755593402
12592029 89 18268157470075146571
12633257 1 17842524463068933458
12654903 92 18408039589675284330
12788726 201 17980192303906604215
13583140 156 17458621190796225139
14115302 16 18202568384262472986
14787075 74 9654132676630215097
15207287 21 16056587738376678056
1601671 61 17899130521043111937
17980427 23 18048007934897987584
18981168 100 15865168317584664797
20645476 183 18337397127084458523
23419403 2 16183501892023439275
23557571 272 17772749605187927888
23558518 356 18265040513091863067
23559900 14 17775279474744478442
23598288 3 18266464385092175115
23598291 2 18187641444278717717
3060560 45 18265605490263975443
3084891 8 17760930641147368622
3286 77 16588024627736533025
340366 18 18408891723961150910
7832392 63 18261674873802701196
81228 2 17769067366896416651
9999458 23 17458635492799762113

>  <PUBCHEM_SHAPE_MULTIPOLES>  (1) 
402.58
6.77
3.72
1.92
2.86
1.73
-0.24
-2.7
1.05
-0.15
-2.22
-0.24
-0.16
-1.28

>  <PUBCHEM_SHAPE_SELFOVERLAP>  (1) 
761.144

>  <PUBCHEM_SHAPE_VOLUME>  (1) 
250.1

>  <PUBCHEM_COORDINATE_TYPE>  (1) 
2
5
10

$$$$
