43791
     RDKit          3D

 25 28  0  0  0  0  0  0  0  0999 V2000
   -3.0500    2.6335   -0.1357 O   0  0  0  0  0  0  0  0  0  0  0  0
   -0.7818    2.5458   -0.1309 O   0  0  0  0  0  0  0  0  0  0  0  0
   -6.1722   -2.0013    0.1001 O   0  0  0  0  0  0  0  0  0  0  0  0
   -6.3538    0.1879   -0.0103 O   0  0  0  0  0  0  0  0  0  0  0  0
    0.1467   -0.4025    0.0211 N   0  0  0  0  0  0  0  0  0  0  0  0
    3.0203   -0.2415    0.0127 N   0  0  0  0  0  0  0  0  0  0  0  0
   -1.8415    1.8812   -0.0971 N   0  0  0  0  0  0  0  0  0  0  0  0
   -4.1092    1.7418   -0.0900 N   0  0  0  0  0  0  0  0  0  0  0  0
   -5.6541   -0.8564    0.0425 N   0  0  0  0  0  0  0  0  0  0  0  0
    0.9342   -0.9286    1.1358 C   0  0  0  0  0  0  0  0  0  0  0  0
    0.8640    0.2082   -1.0981 C   0  0  0  0  0  0  0  0  0  0  0  0
    2.2659   -0.1839    1.2647 C   0  0  0  0  0  0  0  0  0  0  0  0
    2.2698   -0.3830   -1.2349 C   0  0  0  0  0  0  0  0  0  0  0  0
   -1.2434   -0.4813    0.0246 C   0  0  0  0  0  0  0  0  0  0  0  0
    4.4105   -0.1645    0.0087 C   0  0  0  0  0  0  0  0  0  0  0  0
   -2.1528    0.5895   -0.0307 C   0  0  0  0  0  0  0  0  0  0  0  0
   -1.9463   -1.7165    0.0881 C   0  0  0  0  0  0  0  0  0  0  0  0
   -3.5949    0.5052   -0.0264 C   0  0  0  0  0  0  0  0  0  0  0  0
    5.1107    0.5602    1.0018 C   0  0  0  0  0  0  0  0  0  0  0  0
    5.1809   -0.8084   -0.9878 C   0  0  0  0  0  0  0  0  0  0  0  0
   -4.2470   -0.7397    0.0379 C   0  0  0  0  0  0  0  0  0  0  0  0
   -3.3677   -1.8410    0.0945 C   0  0  0  0  0  0  0  0  0  0  0  0
    6.5034    0.6367    0.9984 C   0  0  0  0  0  0  0  0  0  0  0  0
    6.5737   -0.7320   -0.9913 C   0  0  0  0  0  0  0  0  0  0  0  0
    7.2349   -0.0094    0.0020 C   0  0  0  0  0  0  0  0  0  0  0  0
  1  7  1  0
  1  8  1  0
  2  7  1  0
  3  9  1  0
  4  9  2  0
  5 10  1  0
  5 11  1  0
  5 14  1  0
  6 12  1  0
  6 13  1  0
  6 15  1  0
  7 16  2  0
  8 18  2  0
  9 21  1  0
 10 12  1  0
 11 13  1  0
 14 16  1  0
 14 17  2  0
 15 19  2  0
 15 20  1  0
 16 18  1  0
 17 22  1  0
 18 21  1  0
 19 23  1  0
 20 24  2  0
 21 22  2  0
 23 25  2  0
 24 25  1  0
M  CHG  4   2  -1   3  -1   7   1   9   1
M  END
>  <PUBCHEM_COMPOUND_CID>  (1) 
43791

>  <PUBCHEM_CONFORMER_RMSD>  (1) 
0.8

>  <PUBCHEM_CONFORMER_DIVERSEORDER>  (1) 
1
7
2
6
3
8
5
4

>  <PUBCHEM_MMFF94_PARTIAL_CHARGES>  (1) 
32
1 -0.12
10 0.37
11 0.37
12 0.37
13 0.37
14 0.1
15 0.1
16 -0.08
17 -0.15
18 0.29
19 -0.15
2 -0.63
20 -0.15
21 0.13
22 -0.15
23 -0.15
24 -0.15
25 -0.15
3 -0.52
34 0.15
35 0.15
36 0.15
37 0.15
38 0.15
39 0.15
4 -0.52
40 0.15
5 -0.84
6 -0.84
7 0.95
8 -0.41
9 0.91

>  <PUBCHEM_EFFECTIVE_ROTOR_COUNT>  (1) 
4.2

>  <PUBCHEM_PHARMACOPHORE_FEATURES>  (1) 
11
1 2 anion
1 3 acceptor
1 3 anion
1 4 acceptor
1 5 cation
1 6 cation
1 8 acceptor
5 1 7 8 16 18 rings
6 14 16 17 18 21 22 rings
6 15 19 20 23 24 25 rings
6 5 6 10 11 12 13 rings

>  <PUBCHEM_HEAVY_ATOM_COUNT>  (1) 
25

>  <PUBCHEM_ATOM_DEF_STEREO_COUNT>  (1) 
0

>  <PUBCHEM_ATOM_UDEF_STEREO_COUNT>  (1) 
0

>  <PUBCHEM_BOND_DEF_STEREO_COUNT>  (1) 
0

>  <PUBCHEM_BOND_UDEF_STEREO_COUNT>  (1) 
0

>  <PUBCHEM_ISOTOPIC_ATOM_COUNT>  (1) 
0

>  <PUBCHEM_COMPONENT_COUNT>  (1) 
1

>  <PUBCHEM_CACTVS_TAUTO_COUNT>  (1) 
1

>  <PUBCHEM_CONFORMER_ID>  (1) 
0000AB0F00000001

>  <PUBCHEM_MMFF94_ENERGY>  (1) 
103.7693

>  <PUBCHEM_FEATURE_SELFOVERLAP>  (1) 
56.034

>  <PUBCHEM_SHAPE_FINGERPRINT>  (1) 
10 15 18201146746678779184
10411042 1 18121501513092583371
10595046 47 18334014978452798378
10730089 173 18408322172600615651
11315181 36 17748832937807585902
11524674 6 16343703252883164967
12107183 9 17541088776210506018
12166972 35 17458064901931054348
12236239 1 17676204662822531714
12390115 104 18270967817484917961
12403259 415 17774995787400544192
12516196 113 18342739641166946968
12730499 353 17846780694429300086
12916748 109 18410011035931285490
13073987 5 18337669720532979466
13288520 33 18411139143335293143
13402501 40 18202845456918842930
13403585 85 18411979178613806128
13533116 47 17531236237276941338
13631057 29 16950853621281033611
13782708 43 17846776312708421254
13914758 101 16081359727082329597
14251764 18 17748829631563645276
14341114 176 18273216409089615680
14573314 32 18341334414421331942
14933364 13 18273216400483811392
15183329 4 18408889508396550602
15419008 47 18060135445015178096
16087824 20 18335980850058319861
17844677 252 18341899597731490312
18681886 176 18261390095837520618
18927931 339 18410578405079377151
19489759 90 18407761430445000738
21033648 29 17703494537788296320
21065198 48 18041272163045510962
21236236 1 18341896264509710457
21267235 1 18335426798395478987
21315759 40 17313097549947717954
21623969 137 16917074356375018702
21792934 111 18411420644467196017
21792961 116 17846787278819678614
22061861 79 17418097586105980358
2297311 6 18413394232487259077
23035841 295 18334012800203045314
23402539 116 18410852187368649671
23536379 177 18411700963923526546
23557571 272 18343308050182154516
23559900 14 18340199786365490353
23569917 315 17313106333040606738
23569943 247 17461151055583744210
335352 9 18408881846596374605
3383291 50 18188214320477515803
34797466 226 18202289130385331852
3545911 37 18413671297002139614
4073 2 18260833748104038482
5104073 3 18266744588610860458
59755656 215 18409731746613627670
67856867 119 18115312314066790172

>  <PUBCHEM_SHAPE_MULTIPOLES>  (1) 
466.11
17.46
1.86
1.01
11.52
0.88
0.02
-2.45
0.11
-2.98
-0.05
1.37
-0.09
0.92

>  <PUBCHEM_SHAPE_SELFOVERLAP>  (1) 
1016.651

>  <PUBCHEM_SHAPE_VOLUME>  (1) 
252.9

>  <PUBCHEM_COORDINATE_TYPE>  (1) 
2
5
10

$$$$
