4379
     RDKit          3D

 15 15  0  0  1  0  0  0  0  0999 V2000
    0.0664    1.3793    0.5035 S   0  0  0  0  0  0  0  0  0  0  0  0
   -0.1831    1.3609    1.9330 O   0  0  0  0  0  0  0  0  0  0  0  0
    0.3503    2.6410   -0.1551 O   0  0  0  0  0  0  0  0  0  0  0  0
   -3.7388   -2.0296    0.0393 O   0  0  0  0  0  0  0  0  0  0  0  0
   -4.0405    0.1899   -0.3217 O   0  0  0  0  0  0  0  0  0  0  0  0
   -1.2253    0.5819   -0.3149 N   0  0  0  0  0  0  0  0  0  0  0  0
    1.4405    0.3053    0.1957 C   0  0  0  0  0  0  0  0  0  0  0  0
   -1.8632   -0.5764    0.3612 C   0  0  0  0  0  0  0  0  0  0  0  0
   -1.0908    0.3661   -1.7780 C   0  0  0  0  0  0  0  0  0  0  0  0
    2.2189    0.5144   -0.9275 C   0  0  0  0  0  0  0  0  0  0  0  0
    1.7054   -0.7194    1.0852 C   0  0  0  0  0  0  0  0  0  0  0  0
    3.3012   -0.3315   -1.1699 C   0  0  0  0  0  0  0  0  0  0  0  0
    2.7878   -1.5653    0.8428 C   0  0  0  0  0  0  0  0  0  0  0  0
   -3.3143   -0.7455   -0.0087 C   0  0  0  0  0  0  0  0  0  0  0  0
    3.5856   -1.3713   -0.2848 C   0  0  0  0  0  0  0  0  0  0  0  0
  1  2  2  0
  1  3  2  0
  1  6  1  0
  1  7  1  0
  4 14  1  0
  5 14  2  0
  6  8  1  0
  6  9  1  0
  7 10  2  0
  7 11  1  0
  8 14  1  0
 10 12  1  0
 11 13  2  0
 12 15  2  0
 13 15  1  0
M  END
>  <PUBCHEM_COMPOUND_CID>  (1) 
4379

>  <PUBCHEM_CONFORMER_RMSD>  (1) 
0.6

>  <PUBCHEM_CONFORMER_DIVERSEORDER>  (1) 
2
35
37
17
44
28
51
36
19
29
22
20
33
27
5
34
11
43
39
8
18
9
50
10
16
41
25
40
30
45
48
32
14
38
12
24
46
15
49
23
31
26
4
47
3
13
21
6
1
7
42

>  <PUBCHEM_MMFF94_PARTIAL_CHARGES>  (1) 
21
1 1.45
10 -0.15
11 -0.15
12 -0.15
13 -0.15
14 0.66
15 -0.15
2 -0.65
21 0.15
22 0.15
23 0.15
24 0.15
25 0.15
26 0.5
3 -0.65
4 -0.65
5 -0.57
6 -0.85
7 -0.01
8 0.42
9 0.36

>  <PUBCHEM_EFFECTIVE_ROTOR_COUNT>  (1) 
4

>  <PUBCHEM_PHARMACOPHORE_FEATURES>  (1) 
6
1 2 acceptor
1 3 acceptor
1 4 acceptor
1 5 acceptor
3 4 5 14 anion
6 7 10 11 12 13 15 rings

>  <PUBCHEM_HEAVY_ATOM_COUNT>  (1) 
15

>  <PUBCHEM_ATOM_DEF_STEREO_COUNT>  (1) 
0

>  <PUBCHEM_ATOM_UDEF_STEREO_COUNT>  (1) 
0

>  <PUBCHEM_BOND_DEF_STEREO_COUNT>  (1) 
0

>  <PUBCHEM_BOND_UDEF_STEREO_COUNT>  (1) 
0

>  <PUBCHEM_ISOTOPIC_ATOM_COUNT>  (1) 
0

>  <PUBCHEM_COMPONENT_COUNT>  (1) 
1

>  <PUBCHEM_CACTVS_TAUTO_COUNT>  (1) 
1

>  <PUBCHEM_CONFORMER_ID>  (1) 
0000111B00000002

>  <PUBCHEM_MMFF94_ENERGY>  (1) 
23.2124

>  <PUBCHEM_FEATURE_SELFOVERLAP>  (1) 
30.525

>  <PUBCHEM_SHAPE_FINGERPRINT>  (1) 
10618630 7 18131069294908186662
12251169 10 14189566434247945094
12892183 10 13686295772753623071
13299463 15 17458065924175104364
13571099 52 8862949376685970897
14252887 29 17917715729385525922
15906896 17 17767114315737573845
16945 1 16877947143798951936
17844478 74 16343421696538867016
18186145 218 14129059209791277815
18522851 268 17531520984470332294
19422 9 18410302410169368391
200 152 18040442057805375250
20231682 184 8718834184320364219
20281407 28 18408884040306700363
20281475 54 18260827098919313155
20361792 2 18272641350979808972
20645477 70 18195803192723717959
20671657 53 18409172116426741788
21524375 3 7925909283463964560
22485316 2 18410572898593453079
23402655 69 17168142278457256198
23419403 2 14326015831391756277
465052 167 18271533099790405151
59915604 170 15357986676171416876
7364860 26 18127410283187765721
81228 2 17701825379725726873
83771 10 18343586243645569414
94968 8 18262801890248131363

>  <PUBCHEM_SHAPE_MULTIPOLES>  (1) 
284.08
6.36
1.9
1.36
3.09
0.41
-0.02
-4.07
1.26
0.19
-0.33
-0.33
0.3
-0.24

>  <PUBCHEM_SHAPE_SELFOVERLAP>  (1) 
567.226

>  <PUBCHEM_SHAPE_VOLUME>  (1) 
167.5

>  <PUBCHEM_COORDINATE_TYPE>  (1) 
2
5
10

$$$$
