43792
     RDKit          3D

 27 30  0  0  0  0  0  0  0  0999 V2000
   -3.6743    2.6487   -0.1877 O   0  0  0  0  0  0  0  0  0  0  0  0
   -1.4080    2.5291   -0.2151 O   0  0  0  0  0  0  0  0  0  0  0  0
    7.9329   -0.0836   -0.1657 O   0  0  0  0  0  0  0  0  0  0  0  0
   -6.8625   -1.9305    0.2215 O   0  0  0  0  0  0  0  0  0  0  0  0
   -7.0148    0.2531    0.0550 O   0  0  0  0  0  0  0  0  0  0  0  0
   -0.5184   -0.4281    0.0030 N   0  0  0  0  0  0  0  0  0  0  0  0
    2.3567   -0.3096   -0.0538 N   0  0  0  0  0  0  0  0  0  0  0  0
   -2.4760    1.8804   -0.1467 N   0  0  0  0  0  0  0  0  0  0  0  0
   -4.7450    1.7741   -0.1013 N   0  0  0  0  0  0  0  0  0  0  0  0
   -6.3238   -0.7968    0.1253 N   0  0  0  0  0  0  0  0  0  0  0  0
    0.2789   -0.9357    1.1192 C   0  0  0  0  0  0  0  0  0  0  0  0
    0.1898    0.1418   -1.1432 C   0  0  0  0  0  0  0  0  0  0  0  0
    1.6229   -0.2075    1.2076 C   0  0  0  0  0  0  0  0  0  0  0  0
    1.5847   -0.4734   -1.2855 C   0  0  0  0  0  0  0  0  0  0  0  0
   -1.9093   -0.4863    0.0300 C   0  0  0  0  0  0  0  0  0  0  0  0
    3.7476   -0.2532   -0.0813 C   0  0  0  0  0  0  0  0  0  0  0  0
   -2.8044    0.5956   -0.0404 C   0  0  0  0  0  0  0  0  0  0  0  0
   -2.6284   -1.7090    0.1376 C   0  0  0  0  0  0  0  0  0  0  0  0
   -4.2472    0.5324   -0.0118 C   0  0  0  0  0  0  0  0  0  0  0  0
    4.4740    0.4872    0.8807 C   0  0  0  0  0  0  0  0  0  0  0  0
    4.4924   -0.9336   -1.0733 C   0  0  0  0  0  0  0  0  0  0  0  0
   -4.0512   -1.8128    0.1689 C   0  0  0  0  0  0  0  0  0  0  0  0
   -4.9157   -0.7009    0.0960 C   0  0  0  0  0  0  0  0  0  0  0  0
    5.8674    0.5442    0.8523 C   0  0  0  0  0  0  0  0  0  0  0  0
    5.8858   -0.8768   -1.1017 C   0  0  0  0  0  0  0  0  0  0  0  0
    6.5734   -0.1378   -0.1388 C   0  0  0  0  0  0  0  0  0  0  0  0
    8.5724    0.6888    0.8494 C   0  0  0  0  0  0  0  0  0  0  0  0
  1  8  1  0
  1  9  1  0
  2  8  1  0
  3 26  1  0
  3 27  1  0
  4 10  1  0
  5 10  2  0
  6 11  1  0
  6 12  1  0
  6 15  1  0
  7 13  1  0
  7 14  1  0
  7 16  1  0
  8 17  2  0
  9 19  2  0
 10 23  1  0
 11 13  1  0
 12 14  1  0
 15 17  1  0
 15 18  2  0
 16 20  2  0
 16 21  1  0
 17 19  1  0
 18 22  1  0
 19 23  1  0
 20 24  1  0
 21 25  2  0
 22 23  2  0
 24 26  2  0
 25 26  1  0
M  CHG  4   2  -1   4  -1   8   1  10   1
M  END
>  <PUBCHEM_COMPOUND_CID>  (1) 
43792

>  <PUBCHEM_CONFORMER_RMSD>  (1) 
0.8

>  <PUBCHEM_CONFORMER_DIVERSEORDER>  (1) 
1
9
11
3
7
2
12
8
10
4
6
5

>  <PUBCHEM_MMFF94_PARTIAL_CHARGES>  (1) 
33
1 -0.12
10 0.91
11 0.37
12 0.37
13 0.37
14 0.37
15 0.1
16 0.1
17 -0.08
18 -0.15
19 0.29
2 -0.63
20 -0.15
21 -0.15
22 -0.15
23 0.13
24 -0.15
25 -0.15
26 0.08
27 0.28
3 -0.36
36 0.15
37 0.15
38 0.15
39 0.15
4 -0.52
40 0.15
41 0.15
5 -0.52
6 -0.84
7 -0.84
8 0.95
9 -0.41

>  <PUBCHEM_EFFECTIVE_ROTOR_COUNT>  (1) 
5.2

>  <PUBCHEM_PHARMACOPHORE_FEATURES>  (1) 
12
1 2 anion
1 3 acceptor
1 4 acceptor
1 4 anion
1 5 acceptor
1 6 cation
1 7 cation
1 9 acceptor
5 1 8 9 17 19 rings
6 15 17 18 19 22 23 rings
6 16 20 21 24 25 26 rings
6 6 7 11 12 13 14 rings

>  <PUBCHEM_HEAVY_ATOM_COUNT>  (1) 
27

>  <PUBCHEM_ATOM_DEF_STEREO_COUNT>  (1) 
0

>  <PUBCHEM_ATOM_UDEF_STEREO_COUNT>  (1) 
0

>  <PUBCHEM_BOND_DEF_STEREO_COUNT>  (1) 
0

>  <PUBCHEM_BOND_UDEF_STEREO_COUNT>  (1) 
0

>  <PUBCHEM_ISOTOPIC_ATOM_COUNT>  (1) 
0

>  <PUBCHEM_COMPONENT_COUNT>  (1) 
1

>  <PUBCHEM_CACTVS_TAUTO_COUNT>  (1) 
1

>  <PUBCHEM_CONFORMER_ID>  (1) 
0000AB1000000001

>  <PUBCHEM_MMFF94_ENERGY>  (1) 
118.315

>  <PUBCHEM_FEATURE_SELFOVERLAP>  (1) 
61.111

>  <PUBCHEM_SHAPE_FINGERPRINT>  (1) 
10 15 18272645775840466146
10299344 5 17894628146203717842
10411042 1 18120938571776666939
10730089 173 18407759227131994265
11315181 36 17603872225311075755
11524674 6 16487255491253538815
11719270 70 17918273118211419830
12166972 35 17385726936664949629
12236239 1 17603584114963470083
13073987 5 18337108965223482698
13403585 85 18411981360309467052
13533116 47 17530954757889225322
13947920 75 18040151833479266186
14251764 18 17676206875469121994
14251764 46 17275387611827988563
14849402 71 17968384571633020452
14933364 13 18272089396722894416
15183329 4 18408886222540665634
15419008 47 18060134345334790776
17844677 252 18412832395463442312
18335252 98 18272654549952580862
18336668 15 17894634755441507765
18608769 82 18343300400819377258
18681886 176 18260827141736857569
19489759 90 18335140886195221170
20721686 56 18262800803721846993
21033648 29 17774707706690389896
21267235 1 18335144228428896243
21315759 40 17167578293902168922
21315763 28 18408322190423959006
21623969 137 17060346214526438990
21792961 116 17775007852406880874
22224240 67 17458341957892617890
2297311 6 18412831278681949657
23402539 116 18407476669538876958
23536379 177 18410012114010515074
23557571 272 18342746190997452141
23559900 14 18412539942096506121
23569917 315 17095246908495028906
335352 9 18408317788673292181
3383291 50 18187653556767878203
34797466 226 18202007650913148436
3545911 37 18131069333815891898
4073 2 18260834838962447602
4325135 7 18408041818547104684
5104073 3 18266746787581407395
59755656 215 18408606945975741630
59755656 520 16588305020640461403
9663363 56 18409447012769056411

>  <PUBCHEM_SHAPE_MULTIPOLES>  (1) 
501.4
21.19
1.79
1.01
18.69
0.86
-0.04
-0.76
1.91
-3.15
-0.09
1.19
-0.12
1.27

>  <PUBCHEM_SHAPE_SELFOVERLAP>  (1) 
1089.114

>  <PUBCHEM_SHAPE_VOLUME>  (1) 
273.9

>  <PUBCHEM_COORDINATE_TYPE>  (1) 
2
5
10

$$$$
