43800
     RDKit          3D

 10  9  0  0  0  0  0  0  0  0999 V2000
    1.5152   -0.9495    1.4924 N   0  0  0  0  0  0  0  0  0  0  0  0
    0.9113   -0.1540    0.4012 C   0  0  0  0  0  0  0  0  0  0  0  0
    1.3895   -0.7311   -0.9632 C   0  0  0  0  0  0  0  0  0  0  0  0
    1.3697    1.3167    0.6158 C   0  0  0  0  0  0  0  0  0  0  0  0
   -0.6015   -0.2203    0.5977 C   0  0  0  0  0  0  0  0  0  0  0  0
    2.8989   -0.7409   -1.1938 C   0  0  0  0  0  0  0  0  0  0  0  0
    0.6982    2.3423   -0.2938 C   0  0  0  0  0  0  0  0  0  0  0  0
   -1.5222   -0.7055   -0.2512 C   0  0  0  0  0  0  0  0  0  0  0  0
   -2.9948   -0.7169    0.0405 C   0  0  0  0  0  0  0  0  0  0  0  0
   -3.6643    0.5593   -0.4455 C   0  0  0  0  0  0  0  0  0  0  0  0
  1  2  1  0
  2  3  1  0
  2  4  1  0
  2  5  1  0
  3  6  1  0
  4  7  1  0
  5  8  2  0
  8  9  1  0
  9 10  1  0
M  END
>  <PUBCHEM_COMPOUND_CID>  (1) 
43800

>  <PUBCHEM_CONFORMER_RMSD>  (1) 
0.6

>  <PUBCHEM_CONFORMER_DIVERSEORDER>  (1) 
1
18
5
10
20
19
8
24
27
4
9
12
23
26
16
21
17
15
2
22
6
7
25
11
13
3
14

>  <PUBCHEM_MMFF94_PARTIAL_CHARGES>  (1) 
9
1 -0.99
15 0.15
16 0.36
17 0.36
2 0.41
24 0.15
5 -0.29
8 -0.29
9 0.14

>  <PUBCHEM_EFFECTIVE_ROTOR_COUNT>  (1) 
4

>  <PUBCHEM_PHARMACOPHORE_FEATURES>  (1) 
5
1 1 cation
1 1 donor
1 10 hydrophobe
1 6 hydrophobe
1 7 hydrophobe

>  <PUBCHEM_HEAVY_ATOM_COUNT>  (1) 
10

>  <PUBCHEM_ATOM_DEF_STEREO_COUNT>  (1) 
0

>  <PUBCHEM_ATOM_UDEF_STEREO_COUNT>  (1) 
0

>  <PUBCHEM_BOND_DEF_STEREO_COUNT>  (1) 
0

>  <PUBCHEM_BOND_UDEF_STEREO_COUNT>  (1) 
1

>  <PUBCHEM_ISOTOPIC_ATOM_COUNT>  (1) 
0

>  <PUBCHEM_COMPONENT_COUNT>  (1) 
1

>  <PUBCHEM_CACTVS_TAUTO_COUNT>  (1) 
1

>  <PUBCHEM_CONFORMER_ID>  (1) 
0000AB1800000001

>  <PUBCHEM_MMFF94_ENERGY>  (1) 
6.0961

>  <PUBCHEM_FEATURE_SELFOVERLAP>  (1) 
25.373

>  <PUBCHEM_SHAPE_FINGERPRINT>  (1) 
12932741 1 18261961859401677283
12932764 1 18113614608321285587
14120999 15 18264512636020410580
14128692 85 17274560779268374614
17041 50 18412546487874656661
170605 34 18193552504836855905
18186145 218 18410005542763007335
19973954 147 18338799022032756297
20233049 118 18187925015305139597
20339313 130 18130520685776466731
20653085 51 18412550912102252681
20711985 344 18053672369136496928
20820808 20 17095537200790735164
212847 35 17677884640113981189
21524375 3 17545595016589265345
230 275 18189043356222554225
23211744 41 17687184600685841953
23552423 10 18201438129401626127
3248919 1 17988635337784536955
5084963 1 17704078391052225531
8030462 33 17749101223462281739

>  <PUBCHEM_SHAPE_MULTIPOLES>  (1) 
200.81
4.74
1.67
1.15
4.29
1.24
-0.15
-0.79
1.32
-0.74
0.19
-0.69
-0.25
0.35

>  <PUBCHEM_SHAPE_SELFOVERLAP>  (1) 
364.444

>  <PUBCHEM_SHAPE_VOLUME>  (1) 
129.8

>  <PUBCHEM_COORDINATE_TYPE>  (1) 
2
5
10

$$$$
