43813
     RDKit          3D

 11 10  0  0  0  0  0  0  0  0999 V2000
    3.2940    1.4980    0.2830 O   0  0  0  0  0  0  0  0  0  0  0  0
    1.4996    1.3881   -1.1064 O   0  0  0  0  0  0  0  0  0  0  0  0
    0.8042   -2.5267   -0.7932 O   0  0  0  0  0  0  0  0  0  0  0  0
    0.3915   -0.6951    0.1681 N   0  0  0  0  0  0  0  0  0  0  0  0
    0.3384   -2.0136    0.2313 N   0  0  0  0  0  0  0  0  0  0  0  0
   -1.9252    0.0327   -0.1648 C   0  0  0  0  0  0  0  0  0  0  0  0
   -0.7358   -0.0132    0.7929 C   0  0  0  0  0  0  0  0  0  0  0  0
   -3.1267    0.7256    0.4791 C   0  0  0  0  0  0  0  0  0  0  0  0
    1.6538   -0.1801    0.7176 C   0  0  0  0  0  0  0  0  0  0  0  0
   -4.3034    0.8069   -0.4803 C   0  0  0  0  0  0  0  0  0  0  0  0
    2.1096    0.9772   -0.1274 C   0  0  0  0  0  0  0  0  0  0  0  0
  1 11  1  0
  2 11  2  0
  3  5  2  0
  4  5  1  0
  4  7  1  0
  4  9  1  0
  6  7  1  0
  6  8  1  0
  8 10  1  0
  9 11  1  0
M  END
>  <PUBCHEM_COMPOUND_CID>  (1) 
43813

>  <PUBCHEM_CONFORMER_RMSD>  (1) 
0.6

>  <PUBCHEM_CONFORMER_DIVERSEORDER>  (1) 
1
297
267
100
411
252
330
355
318
61
367
164
166
65
388
380
326
295
353
370
72
191
397
344
332
378
137
141
21
144
97
250
197
384
349
329
240
152
379
101
199
305
269
365
124
143
368
19
276
17
203
40
274
114
231
286
129
247
76
104
158
188
30
95
232
125
407
307
115
48
245
18
6
402
80
3
391
157
202
161
328
237
212
312
220
155
382
28
255
13
87
193
57
408
383
66
32
287
139
401
185
234
343
313
394
321
303
386
243
293
123
16
334
187
387
336
228
393
215
170
130
177
340
351
5
256
352
147
412
11
102
175
31
254
73
79
236
292
239
93
168
270
196
53
211
277
163
372
363
225
127
259
284
323
298
106
300
171
150
60
335
249
390
337
342
282
96
55
403
311
396
404
406
180
108
227
376
221
38
186
179
122
160
374
395
230
148
281
2
392
56
27
308
83
134
138
242
107
309
47
325
369
218
385
339
54
377
400
324
409
244
238
25
178
209
112
9
153
362
348
105
140
116
15
223
136
182
327
184
333
131
192
174
375
361
278
207
126
149
264
42
398
302
34
109
71
322
360
283
229
366
117
8
198
154
68
92
67
128
350
224
213
291
176
20
44
331
113
90
75
81
70
173
49
208
206
280
84
261
94
272
62
64
4
14
99
373
219
389
50
346
172
88
253
10
91
200
77
135
183
12
142
159
316
151
301
26
265
216
279
37
52
345
78
103
165
120
356
258
46
39
189
98
201
58
347
273
381
133
275
190
310
59
23
121
146
74
69
111
7
359
204
22
43
51
338
266
63
33
214
262
118
29
241
235
181
110
371
132
205
315
162
145
289
119
410
257
24
319
314
233
222
271
82
89
41
285
85
405
217
357
194
288
251
354
263
296
36
358
304
306
290
399
156
35
248
320
268
195
45
299
86
260
364
169
317
226
294
246
341
210
167

>  <PUBCHEM_MMFF94_PARTIAL_CHARGES>  (1) 
9
1 -0.65
11 0.66
2 -0.57
23 0.5
3 -0.16
4 -0.36
5 -0.01
7 0.27
9 0.33

>  <PUBCHEM_EFFECTIVE_ROTOR_COUNT>  (1) 
6

>  <PUBCHEM_PHARMACOPHORE_FEATURES>  (1) 
4
1 1 acceptor
1 10 hydrophobe
1 2 acceptor
3 1 2 11 anion

>  <PUBCHEM_HEAVY_ATOM_COUNT>  (1) 
11

>  <PUBCHEM_ATOM_DEF_STEREO_COUNT>  (1) 
0

>  <PUBCHEM_ATOM_UDEF_STEREO_COUNT>  (1) 
0

>  <PUBCHEM_BOND_DEF_STEREO_COUNT>  (1) 
0

>  <PUBCHEM_BOND_UDEF_STEREO_COUNT>  (1) 
0

>  <PUBCHEM_ISOTOPIC_ATOM_COUNT>  (1) 
0

>  <PUBCHEM_COMPONENT_COUNT>  (1) 
1

>  <PUBCHEM_CACTVS_TAUTO_COUNT>  (1) 
1

>  <PUBCHEM_CONFORMER_ID>  (1) 
0000AB2500000001

>  <PUBCHEM_MMFF94_ENERGY>  (1) 
14.3543

>  <PUBCHEM_FEATURE_SELFOVERLAP>  (1) 
20.355

>  <PUBCHEM_SHAPE_FINGERPRINT>  (1) 
1 1 18411700963306361070
11031198 65 18342742905716651401
12932764 1 17313956182603037707
13380535 76 18335420183950703443
15775835 57 18411415150302002513
170605 34 18333448725263234361
20606313 2 18259981548697336573
20645477 70 18269267955745049903
21028194 46 18335990860244237721
21040471 1 18267589181276487218
21499 59 18411976996654355781
21524375 3 18335699498173618817
23402539 116 18059285569565577996
23552423 10 18126567808742245011
3248919 1 18339357458112446625
7364860 26 18199188395166289383
81539 233 18260828185292656071

>  <PUBCHEM_SHAPE_MULTIPOLES>  (1) 
198.8
5.69
1.93
0.89
5.52
1.26
-0.04
-3.43
-0.38
-1.46
-0.49
-0.05
-0.03
0.03

>  <PUBCHEM_SHAPE_SELFOVERLAP>  (1) 
369.972

>  <PUBCHEM_SHAPE_VOLUME>  (1) 
125.5

>  <PUBCHEM_COORDINATE_TYPE>  (1) 
2
5
10

$$$$
