43829
     RDKit          3D

 22 25  0  0  1  0  0  0  0  0999 V2000
   -1.3891    2.0202   -1.2986 O   0  0  0  0  0  0  0  0  0  0  0  0
   -6.1652   -1.6014    0.3244 O   0  0  0  0  0  0  0  0  0  0  0  0
   -0.4380    0.8973    0.4942 N   0  0  0  0  0  0  0  0  0  0  0  0
   -5.0792   -0.9573    0.1572 N   0  0  0  0  0  0  0  0  0  0  0  0
    1.9539    0.5463    0.1691 C   0  0  0  0  0  0  0  0  0  0  0  0
    3.1641   -1.5032    1.0406 C   0  0  0  0  0  0  0  0  0  0  0  0
    2.7878   -1.2293   -1.4362 C   0  0  0  0  0  0  0  0  0  0  0  0
    4.4381    0.2534   -0.2409 C   0  0  0  0  0  0  0  0  0  0  0  0
    2.0460   -0.4837    1.3198 C   0  0  0  0  0  0  0  0  0  0  0  0
    1.6706   -0.2106   -1.1502 C   0  0  0  0  0  0  0  0  0  0  0  0
    3.3164    1.2681    0.0416 C   0  0  0  0  0  0  0  0  0  0  0  0
    2.8629   -2.2368   -0.2769 C   0  0  0  0  0  0  0  0  0  0  0  0
    4.5050   -0.7614    0.9124 C   0  0  0  0  0  0  0  0  0  0  0  0
    4.1305   -0.4889   -1.5519 C   0  0  0  0  0  0  0  0  0  0  0  0
    0.8405    1.5588    0.4502 C   0  0  0  0  0  0  0  0  0  0  0  0
    1.0986    2.3055    1.7493 C   0  0  0  0  0  0  0  0  0  0  0  0
   -1.4615    1.1882   -0.3980 C   0  0  0  0  0  0  0  0  0  0  0  0
   -2.7285    0.4373   -0.2037 C   0  0  0  0  0  0  0  0  0  0  0  0
   -3.9097    1.0074   -0.6169 C   0  0  0  0  0  0  0  0  0  0  0  0
   -2.6808   -0.8052    0.3835 C   0  0  0  0  0  0  0  0  0  0  0  0
   -5.0888    0.2937   -0.4292 C   0  0  0  0  0  0  0  0  0  0  0  0
   -3.8736   -1.4986    0.5599 C   0  0  0  0  0  0  0  0  0  0  0  0
  1 17  2  0
  2  4  1  0
  3 15  1  0
  3 17  1  0
  4 21  2  0
  4 22  1  0
  5  9  1  0
  5 10  1  0
  5 11  1  0
  5 15  1  0
  6  9  1  0
  6 12  1  0
  6 13  1  0
  7 10  1  0
  7 12  1  0
  7 14  1  0
  8 11  1  0
  8 13  1  0
  8 14  1  0
 15 16  1  0
 17 18  1  0
 18 19  2  0
 18 20  1  0
 19 21  1  0
 20 22  2  0
M  CHG  2   2  -1   4   1
M  END
>  <PUBCHEM_COMPOUND_CID>  (1) 
43829

>  <PUBCHEM_CONFORMER_RMSD>  (1) 
0.8

>  <PUBCHEM_CONFORMER_DIVERSEORDER>  (1) 
2
1

>  <PUBCHEM_MMFF94_PARTIAL_CHARGES>  (1) 
16
1 -0.57
15 0.3
17 0.54
18 0.09
19 -0.15
2 -0.75
20 -0.15
21 -0.06
22 -0.06
3 -0.73
4 0.57
42 0.37
43 0.15
44 0.15
45 0.15
46 0.15

>  <PUBCHEM_EFFECTIVE_ROTOR_COUNT>  (1) 
5.2

>  <PUBCHEM_PHARMACOPHORE_FEATURES>  (1) 
8
1 1 acceptor
1 2 anion
1 3 donor
6 4 18 19 20 21 22 rings
6 5 6 7 9 10 12 rings
6 5 6 8 9 11 13 rings
6 5 7 8 10 11 14 rings
6 6 7 8 12 13 14 rings

>  <PUBCHEM_HEAVY_ATOM_COUNT>  (1) 
22

>  <PUBCHEM_ATOM_DEF_STEREO_COUNT>  (1) 
0

>  <PUBCHEM_ATOM_UDEF_STEREO_COUNT>  (1) 
1

>  <PUBCHEM_BOND_DEF_STEREO_COUNT>  (1) 
0

>  <PUBCHEM_BOND_UDEF_STEREO_COUNT>  (1) 
0

>  <PUBCHEM_ISOTOPIC_ATOM_COUNT>  (1) 
0

>  <PUBCHEM_COMPONENT_COUNT>  (1) 
1

>  <PUBCHEM_CACTVS_TAUTO_COUNT>  (1) 
2

>  <PUBCHEM_CONFORMER_ID>  (1) 
0000AB3500000002

>  <PUBCHEM_MMFF94_ENERGY>  (1) 
62.4113

>  <PUBCHEM_FEATURE_SELFOVERLAP>  (1) 
53.113

>  <PUBCHEM_SHAPE_FINGERPRINT>  (1) 
10064457 181 15338829893876475358
11128504 68 16225769622907977245
11796584 16 18189046508591327923
12236239 1 16370722626006821245
12363563 72 18272376338691793497
12506688 2 18342460343654408896
12553582 1 17847053385311680044
12596602 18 15267054878674814447
12633257 1 17703507796188847327
12707595 3 18201716253966079824
12714826 92 18339640044974458133
128620 24 16805609161426805021
13224815 77 18410014320858586775
13402501 40 18410577301246609415
13464513 79 18060138756376349102
13533116 47 17988083421855092587
13544653 18 18131632257588267205
13685833 64 18336270132715212731
14251751 18 18187919543384903074
14252887 29 17489587840364670972
14386348 63 18343021086152895487
14617045 38 18334864935016354427
14863182 85 17846223250317822190
15183329 4 18410854327264520153
15196674 1 18333447625746507083
15537594 2 18060701701570924383
15635459 17 18412548720972950186
15664445 248 17894915190783003005
15788980 27 17313104124825131905
17349148 13 15195278747008289757
17804303 29 18410855469451553281
17844677 252 18334861623638916517
1813 80 18187090567948254069
18785283 64 18057314196640857400
19862831 5 15574717980132789577
20261772 1 17917988395094286094
20281475 54 18336829697511750673
20374829 77 18333446543593908049
20403669 9 18410013251939536559
20626108 58 17823686495958431072
20645477 70 18271806864625235057
21033648 29 15482099458715644243
21033650 10 17606134878739499780
21250096 35 18272650121403163089
21503847 285 13039182624211454066
21521721 280 17418092174610821704
2215653 11 18341041957329186221
23557571 272 17968089798440178100
23559900 14 18336820987729862177
239999 70 18342461465257928228
25222932 49 18341604966589983463
2871803 45 18259985972223280226
3004659 81 17895189957357984874
3060560 45 13479131289886035256
314173 41 18342178894410617577
3737641 26 16342036277575838326
38570 142 14978536525255771448
4340502 62 18336539521574889656
439807 62 17676207996519351603
465052 167 18272374208699465599
4921388 177 15719686428334632683
5104073 3 18059010575345981376
54040823 5 18343019987105387570
542803 24 12031786968018623739
7495541 125 18408881858431951288
960060 61 17821730546145049711
9709674 26 18260270732850180363

>  <PUBCHEM_SHAPE_MULTIPOLES>  (1) 
431.05
11.46
2.09
1.34
13.44
0.22
0.04
-5.06
0.35
-0.1
-0.37
-1.07
0.1
0.97

>  <PUBCHEM_SHAPE_SELFOVERLAP>  (1) 
940.434

>  <PUBCHEM_SHAPE_VOLUME>  (1) 
227.1

>  <PUBCHEM_COORDINATE_TYPE>  (1) 
2
5
10

$$$$
