43827
     RDKit          3D

 26 30  0  0  0  0  0  0  0  0999 V2000
   -2.9397    1.8951    0.2800 O   0  0  0  0  0  0  0  0  0  0  0  0
   -8.5203   -0.7460   -0.0658 O   0  0  0  0  0  0  0  0  0  0  0  0
   -2.2876   -0.3348   -0.0813 N   0  0  0  0  0  0  0  0  0  0  0  0
   -7.2925   -0.4090   -0.0313 N   0  0  0  0  0  0  0  0  0  0  0  0
    3.3821   -0.0693   -0.0137 C   0  0  0  0  0  0  0  0  0  0  0  0
    5.5555   -1.4118   -0.2249 C   0  0  0  0  0  0  0  0  0  0  0  0
    5.4563    0.9339   -1.1188 C   0  0  0  0  0  0  0  0  0  0  0  0
    5.4468    0.5276    1.3684 C   0  0  0  0  0  0  0  0  0  0  0  0
    4.0187   -1.4756   -0.2409 C   0  0  0  0  0  0  0  0  0  0  0  0
    3.9190    0.8634   -1.1399 C   0  0  0  0  0  0  0  0  0  0  0  0
    3.9095    0.4560    1.3545 C   0  0  0  0  0  0  0  0  0  0  0  0
    6.0338   -0.4711   -1.3397 C   0  0  0  0  0  0  0  0  0  0  0  0
    6.0242   -0.8752    1.1347 C   0  0  0  0  0  0  0  0  0  0  0  0
    5.9207    1.4661    0.2467 C   0  0  0  0  0  0  0  0  0  0  0  0
    1.8928   -0.1391   -0.0312 C   0  0  0  0  0  0  0  0  0  0  0  0
    1.2539   -1.3625   -0.2335 C   0  0  0  0  0  0  0  0  0  0  0  0
    1.1378    1.0192    0.1546 C   0  0  0  0  0  0  0  0  0  0  0  0
   -0.1393   -1.4277   -0.2505 C   0  0  0  0  0  0  0  0  0  0  0  0
   -0.2555    0.9542    0.1379 C   0  0  0  0  0  0  0  0  0  0  0  0
   -0.8941   -0.2694   -0.0645 C   0  0  0  0  0  0  0  0  0  0  0  0
   -3.2026    0.7132    0.0858 C   0  0  0  0  0  0  0  0  0  0  0  0
   -4.6357    0.3204    0.0447 C   0  0  0  0  0  0  0  0  0  0  0  0
   -5.5673    1.2474   -0.3585 C   0  0  0  0  0  0  0  0  0  0  0  0
   -4.9838   -0.9580    0.4113 C   0  0  0  0  0  0  0  0  0  0  0  0
   -6.9048    0.8669   -0.3925 C   0  0  0  0  0  0  0  0  0  0  0  0
   -6.3279   -1.3137    0.3686 C   0  0  0  0  0  0  0  0  0  0  0  0
  1 21  2  0
  2  4  1  0
  3 20  1  0
  3 21  1  0
  4 25  2  0
  4 26  1  0
  5  9  1  0
  5 10  1  0
  5 11  1  0
  5 15  1  0
  6  9  1  0
  6 12  1  0
  6 13  1  0
  7 10  1  0
  7 12  1  0
  7 14  1  0
  8 11  1  0
  8 13  1  0
  8 14  1  0
 15 16  2  0
 15 17  1  0
 16 18  1  0
 17 19  2  0
 18 20  2  0
 19 20  1  0
 21 22  1  0
 22 23  2  0
 22 24  1  0
 23 25  1  0
 24 26  2  0
M  CHG  2   2  -1   4   1
M  END
>  <PUBCHEM_COMPOUND_CID>  (1) 
43827

>  <PUBCHEM_CONFORMER_RMSD>  (1) 
0.8

>  <PUBCHEM_CONFORMER_DIVERSEORDER>  (1) 
1

>  <PUBCHEM_MMFF94_PARTIAL_CHARGES>  (1) 
26
1 -0.57
15 -0.14
16 -0.15
17 -0.15
18 -0.15
19 -0.15
2 -0.75
20 0.12
21 0.54
22 0.09
23 -0.15
24 -0.15
25 -0.06
26 -0.06
3 -0.55
4 0.57
42 0.15
43 0.15
44 0.15
45 0.15
46 0.37
47 0.15
48 0.15
49 0.15
5 0.14
50 0.15

>  <PUBCHEM_EFFECTIVE_ROTOR_COUNT>  (1) 
5.2

>  <PUBCHEM_PHARMACOPHORE_FEATURES>  (1) 
9
1 1 acceptor
1 2 anion
1 3 donor
6 15 16 17 18 19 20 rings
6 4 22 23 24 25 26 rings
6 5 6 7 9 10 12 rings
6 5 6 8 9 11 13 rings
6 5 7 8 10 11 14 rings
6 6 7 8 12 13 14 rings

>  <PUBCHEM_HEAVY_ATOM_COUNT>  (1) 
26

>  <PUBCHEM_ATOM_DEF_STEREO_COUNT>  (1) 
0

>  <PUBCHEM_ATOM_UDEF_STEREO_COUNT>  (1) 
0

>  <PUBCHEM_BOND_DEF_STEREO_COUNT>  (1) 
0

>  <PUBCHEM_BOND_UDEF_STEREO_COUNT>  (1) 
0

>  <PUBCHEM_ISOTOPIC_ATOM_COUNT>  (1) 
0

>  <PUBCHEM_COMPONENT_COUNT>  (1) 
1

>  <PUBCHEM_CACTVS_TAUTO_COUNT>  (1) 
2

>  <PUBCHEM_CONFORMER_ID>  (1) 
0000AB3300000001

>  <PUBCHEM_MMFF94_ENERGY>  (1) 
88.7108

>  <PUBCHEM_FEATURE_SELFOVERLAP>  (1) 
58.144

>  <PUBCHEM_SHAPE_FINGERPRINT>  (1) 
10 15 18411974797652128168
10050765 1 18051131393801951077
10299344 5 17967251996992700739
11315181 36 18342741824107761313
11524674 6 16773797013692968599
11578080 2 16485264361768847490
11646440 116 17775569749291618009
11719270 70 18411135818545978407
11724838 91 18186800322795595444
11963148 33 18410851083953425535
12166972 35 18409171017000094652
12236239 1 17967533475663030900
12516196 113 18272369772040596073
12730499 353 17775007877760187534
12916748 109 17846781793318266672
13533116 47 12895083890350592396
13914758 101 16153420632967356101
14170010 4 18272368693576478472
1420 363 18131633383085677763
14251764 18 17967533480622623437
14251764 46 17918275355244977334
14933364 13 18412827980036400485
15131766 46 16734970075302481660
15183329 4 17095523985376870833
15419008 47 18059850658418482049
15716309 27 18060699494616804863
15849732 13 18411420626348141949
18681886 176 18410008871099106241
20157964 124 16343699946311616898
20281389 69 18260546723332930525
21130935 74 18271527511911410819
21150785 3 18187372042861290812
21267235 1 18272375252001712092
21521721 280 17346597508059844562
21792934 111 18342446020307937048
220451 1 15791734100518195051
221357 26 17275385391546304864
22149856 69 18201733820851540097
22956985 138 17903632987174299466
23035841 295 18334013887499333371
23081809 10 16950283987978417709
23522609 53 18193587551807784917
23559900 14 18335699511934597393
23569917 315 18341337699460501110
24771293 8 17986655168967455552
3004659 81 18259707787797971940
3178227 256 18271252702865835867
335352 9 18409737245105105702
34797466 226 16630811023610425240
3545911 37 18343301461981942767
397830 11 16915927664331276171
4073 2 17749397008737409803
4325135 7 18334860524058165111
4340502 62 16877940534076600498
5104073 3 18200315386237464531
59755656 215 18341897368110843743
59755656 520 17313100882821766883
6441014 3 17114664013217128534

>  <PUBCHEM_SHAPE_MULTIPOLES>  (1) 
513.37
22.25
1.57
1.02
30.38
0.03
0.05
1.14
-0.23
-0.16
-0.03
-1.8
-0.08
0.32

>  <PUBCHEM_SHAPE_SELFOVERLAP>  (1) 
1143.242

>  <PUBCHEM_SHAPE_VOLUME>  (1) 
265.8

>  <PUBCHEM_COORDINATE_TYPE>  (1) 
2
5
10

$$$$
