43837
     RDKit          3D

 22 23  0  0  0  0  0  0  0  0999 V2000
    1.7976   -1.1555    0.9902 O   0  0  0  0  0  0  0  0  0  0  0  0
   -0.1230    5.2529   -0.3453 O   0  0  0  0  0  0  0  0  0  0  0  0
    0.1468    3.3421   -1.5414 O   0  0  0  0  0  0  0  0  0  0  0  0
    4.0286   -1.6009    0.2431 C   0  0  0  0  0  0  0  0  0  0  0  0
    5.3758   -0.9952   -0.1446 C   0  0  0  0  0  0  0  0  0  0  0  0
    3.0293   -0.5301    0.6573 C   0  0  0  0  0  0  0  0  0  0  0  0
    6.3597   -2.0727   -0.5994 C   0  0  0  0  0  0  0  0  0  0  0  0
    0.6573   -0.4215    0.7907 C   0  0  0  0  0  0  0  0  0  0  0  0
   -1.6934   -0.3223    0.2790 C   0  0  0  0  0  0  0  0  0  0  0  0
   -0.4580    1.7104    0.7019 C   0  0  0  0  0  0  0  0  0  0  0  0
   -0.5328   -1.0695    0.4801 C   0  0  0  0  0  0  0  0  0  0  0  0
    0.7025    0.9633    0.9028 C   0  0  0  0  0  0  0  0  0  0  0  0
   -1.6561    1.0675    0.3899 C   0  0  0  0  0  0  0  0  0  0  0  0
    7.6913   -1.4702   -1.0185 C   0  0  0  0  0  0  0  0  0  0  0  0
   -2.9360   -0.9895   -0.0435 C   0  0  0  0  0  0  0  0  0  0  0  0
   -0.4181    3.1963    0.8230 C   0  0  0  0  0  0  0  0  0  0  0  0
   -3.7941   -1.3979    0.9776 C   0  0  0  0  0  0  0  0  0  0  0  0
   -3.2764   -1.2241   -1.3757 C   0  0  0  0  0  0  0  0  0  0  0  0
   -0.1018    3.9007   -0.4818 C   0  0  0  0  0  0  0  0  0  0  0  0
   -4.9922   -2.0410    0.6668 C   0  0  0  0  0  0  0  0  0  0  0  0
   -4.4745   -1.8671   -1.6867 C   0  0  0  0  0  0  0  0  0  0  0  0
   -5.3324   -2.2756   -0.6655 C   0  0  0  0  0  0  0  0  0  0  0  0
  1  6  1  0
  1  8  1  0
  2 19  1  0
  3 19  2  0
  4  5  1  0
  4  6  1  0
  5  7  1  0
  7 14  1  0
  8 11  2  0
  8 12  1  0
  9 11  1  0
  9 13  2  0
  9 15  1  0
 10 12  2  0
 10 13  1  0
 10 16  1  0
 15 17  2  0
 15 18  1  0
 16 19  1  0
 17 20  1  0
 18 21  2  0
 20 22  2  0
 21 22  1  0
M  END
>  <PUBCHEM_COMPOUND_CID>  (1) 
43837

>  <PUBCHEM_CONFORMER_RMSD>  (1) 
0.8

>  <PUBCHEM_CONFORMER_DIVERSEORDER>  (1) 
1
214
162
88
236
182
170
52
206
159
210
18
189
70
20
204
220
205
215
95
209
119
195
197
68
231
141
2
125
57
208
144
192
226
97
84
180
38
218
29
53
201
50
133
160
62
183
153
199
106
12
121
137
117
211
115
56
216
168
207
27
35
140
81
41
4
202
235
94
123
173
219
67
5
40
178
232
19
196
63
98
36
61
157
130
203
39
76
234
101
143
90
152
10
80
237
43
112
233
167
151
114
200
166
60
102
103
66
134
86
127
17
164
48
31
147
126
34
175
158
24
240
73
85
14
138
155
51
176
228
58
26
32
221
6
99
71
93
87
154
69
72
7
165
229
33
54
131
148
122
104
118
172
59
161
28
149
187
113
150
25
82
185
37
190
8
169
89
135
217
92
46
146
64
212
163
116
227
9
30
145
191
75
45
156
194
11
174
129
15
241
179
74
223
107
49
128
23
78
142
171
16
44
91
83
79
22
65
225
188
21
13
96
100
42
230
136
110
224
120
177
105
238
198
55
47
3
77
184
132
239
213
222
111
186
124
181
139
193
108
109

>  <PUBCHEM_MMFF94_PARTIAL_CHARGES>  (1) 
25
1 -0.36
10 -0.14
11 -0.15
12 -0.15
13 -0.15
16 0.2
17 -0.15
18 -0.15
19 0.66
2 -0.65
20 -0.15
21 -0.15
22 -0.15
3 -0.57
31 0.15
32 0.15
33 0.15
39 0.15
40 0.15
41 0.15
42 0.15
43 0.15
44 0.5
6 0.28
8 0.08

>  <PUBCHEM_EFFECTIVE_ROTOR_COUNT>  (1) 
8

>  <PUBCHEM_PHARMACOPHORE_FEATURES>  (1) 
7
1 1 acceptor
1 14 hydrophobe
1 2 acceptor
1 3 acceptor
3 2 3 19 anion
6 15 17 18 20 21 22 rings
6 8 9 10 11 12 13 rings

>  <PUBCHEM_HEAVY_ATOM_COUNT>  (1) 
22

>  <PUBCHEM_ATOM_DEF_STEREO_COUNT>  (1) 
0

>  <PUBCHEM_ATOM_UDEF_STEREO_COUNT>  (1) 
0

>  <PUBCHEM_BOND_DEF_STEREO_COUNT>  (1) 
0

>  <PUBCHEM_BOND_UDEF_STEREO_COUNT>  (1) 
0

>  <PUBCHEM_ISOTOPIC_ATOM_COUNT>  (1) 
0

>  <PUBCHEM_COMPONENT_COUNT>  (1) 
1

>  <PUBCHEM_CACTVS_TAUTO_COUNT>  (1) 
1

>  <PUBCHEM_CONFORMER_ID>  (1) 
0000AB3D00000001

>  <PUBCHEM_MMFF94_ENERGY>  (1) 
55.5406

>  <PUBCHEM_FEATURE_SELFOVERLAP>  (1) 
35.579

>  <PUBCHEM_SHAPE_FINGERPRINT>  (1) 
10411042 1 18410577309551246499
11045515 52 18333446547403832157
11101153 10 18336275600403960836
11809386 21 18194116322928137410
12166972 35 17749115521376690782
12553582 1 18339629110072495531
12788726 201 18046050576245045273
13009979 54 18059865012477980507
13673619 4 17846780702771444882
13690498 29 18271526386888169302
13757389 114 18124601885973254053
14347332 77 18339075974604472994
14508225 48 18410570691180904820
14556957 393 18115324314511046004
15198563 99 18337671914887079300
15842332 3 17462273635221708722
15876981 60 18261684662370773236
15878777 1 11710490956962757209
16087824 20 18193839237835537281
17539 30 18266731394387066789
1813 80 18272661176817963559
18222031 100 18271512191383179971
19427546 20 18264491689612483964
20101258 96 18336837415420418897
20554085 129 11603094049964172358
20771845 65 18059014003209976961
21120745 212 18338240362425005984
21267235 1 18342741844944846467
21304303 172 18130792218542593921
21344244 246 18122341556469582844
21365058 113 18262518207984875941
21426921 1 18266180526788169792
22182313 1 18122875807172451161
23175994 123 18334572486461356563
23402539 116 18411139108543434410
23522609 53 17701288964771045240
23559900 14 18192422190183889067
23566358 27 17978225294800180495
24771750 20 17322964807318234940
255183 451 18268142240247780463
283562 15 18262800657935344322
3057174 1 16968844573057734973
458136 41 17687186804716247265
497634 4 17703516498077341570
531348 171 17977954484554449746
57262259 84 18338789027058478196
5969126 39 18411698760425799750
621550 5 17988636394077421840
6669772 16 17689723377683298260

>  <PUBCHEM_SHAPE_MULTIPOLES>  (1) 
435.14
13.4
4.76
1.28
23.24
9.43
-0.35
-19.08
-4.73
-1.05
-1.46
-0.66
-0.08
-0.07

>  <PUBCHEM_SHAPE_SELFOVERLAP>  (1) 
909.278

>  <PUBCHEM_SHAPE_VOLUME>  (1) 
248.5

>  <PUBCHEM_COORDINATE_TYPE>  (1) 
2
5
10

$$$$
