43835
     RDKit          3D

 20 21  0  0  0  0  0  0  0  0999 V2000
    2.0044    2.1226    0.5618 O   0  0  0  0  0  0  0  0  0  0  0  0
    2.2204   -4.6262   -0.1145 O   0  0  0  0  0  0  0  0  0  0  0  0
    1.6119   -2.9187   -1.4813 O   0  0  0  0  0  0  0  0  0  0  0  0
   -1.0823    0.1821    0.2589 C   0  0  0  0  0  0  0  0  0  0  0  0
    0.7609   -1.3154    0.7018 C   0  0  0  0  0  0  0  0  0  0  0  0
    1.1514    1.0625    0.5285 C   0  0  0  0  0  0  0  0  0  0  0  0
   -0.5982   -1.1096    0.4643 C   0  0  0  0  0  0  0  0  0  0  0  0
   -0.2077    1.2682    0.2908 C   0  0  0  0  0  0  0  0  0  0  0  0
    1.6357   -0.2295    0.7340 C   0  0  0  0  0  0  0  0  0  0  0  0
   -2.4923    0.3959    0.0140 C   0  0  0  0  0  0  0  0  0  0  0  0
    1.2796   -2.6965    0.9209 C   0  0  0  0  0  0  0  0  0  0  0  0
    3.3510    1.8855    0.1542 C   0  0  0  0  0  0  0  0  0  0  0  0
    3.9215    3.1691   -0.4289 C   0  0  0  0  0  0  0  0  0  0  0  0
   -2.9835    0.3801   -1.2914 C   0  0  0  0  0  0  0  0  0  0  0  0
   -3.3604    0.6172    1.0832 C   0  0  0  0  0  0  0  0  0  0  0  0
    5.3533    2.9879   -0.9001 C   0  0  0  0  0  0  0  0  0  0  0  0
   -4.3427    0.5859   -1.5277 C   0  0  0  0  0  0  0  0  0  0  0  0
   -4.7197    0.8228    0.8469 C   0  0  0  0  0  0  0  0  0  0  0  0
    1.7075   -3.3910   -0.3569 C   0  0  0  0  0  0  0  0  0  0  0  0
   -5.2108    0.8072   -0.4587 C   0  0  0  0  0  0  0  0  0  0  0  0
  1  6  1  0
  1 12  1  0
  2 19  1  0
  3 19  2  0
  4  7  1  0
  4  8  2  0
  4 10  1  0
  5  7  2  0
  5  9  1  0
  5 11  1  0
  6  8  1  0
  6  9  2  0
 10 14  2  0
 10 15  1  0
 11 19  1  0
 12 13  1  0
 13 16  1  0
 14 17  1  0
 15 18  2  0
 17 20  2  0
 18 20  1  0
M  END
>  <PUBCHEM_COMPOUND_CID>  (1) 
43835

>  <PUBCHEM_CONFORMER_RMSD>  (1) 
0.8

>  <PUBCHEM_CONFORMER_DIVERSEORDER>  (1) 
1
37
17
3
32
34
2
28
5
25
21
10
22
38
11
12
16
26
23
33
27
24
7
39
14
15
6
19
40
35
29
9
13
18
4
8
36
31
30
20

>  <PUBCHEM_MMFF94_PARTIAL_CHARGES>  (1) 
25
1 -0.36
11 0.2
12 0.28
14 -0.15
15 -0.15
17 -0.15
18 -0.15
19 0.66
2 -0.65
20 -0.15
21 0.15
22 0.15
23 0.15
3 -0.57
30 0.15
31 0.15
35 0.15
36 0.15
37 0.15
38 0.5
5 -0.14
6 0.08
7 -0.15
8 -0.15
9 -0.15

>  <PUBCHEM_EFFECTIVE_ROTOR_COUNT>  (1) 
6

>  <PUBCHEM_PHARMACOPHORE_FEATURES>  (1) 
7
1 1 acceptor
1 16 hydrophobe
1 2 acceptor
1 3 acceptor
3 2 3 19 anion
6 10 14 15 17 18 20 rings
6 4 5 6 7 8 9 rings

>  <PUBCHEM_HEAVY_ATOM_COUNT>  (1) 
20

>  <PUBCHEM_ATOM_DEF_STEREO_COUNT>  (1) 
0

>  <PUBCHEM_ATOM_UDEF_STEREO_COUNT>  (1) 
0

>  <PUBCHEM_BOND_DEF_STEREO_COUNT>  (1) 
0

>  <PUBCHEM_BOND_UDEF_STEREO_COUNT>  (1) 
0

>  <PUBCHEM_ISOTOPIC_ATOM_COUNT>  (1) 
0

>  <PUBCHEM_COMPONENT_COUNT>  (1) 
1

>  <PUBCHEM_CACTVS_TAUTO_COUNT>  (1) 
1

>  <PUBCHEM_CONFORMER_ID>  (1) 
0000AB3B00000001

>  <PUBCHEM_MMFF94_ENERGY>  (1) 
55.8525

>  <PUBCHEM_FEATURE_SELFOVERLAP>  (1) 
35.579

>  <PUBCHEM_SHAPE_FINGERPRINT>  (1) 
10369192 42 18115597078761817245
105312 117 18190749832881997356
12160290 23 17542762644686816578
12293681 160 17988651855997247304
12363563 72 17906448827604123235
12553582 1 17835234550611120731
12707595 3 18046061554366479267
13009979 54 17487618511976245763
13257819 101 17241586446947231109
13257819 37 18119257404778712166
13533116 47 18272360950879013283
14508225 48 17690553092381712918
15502722 9 18409445860704782817
15664445 248 17769113253905118198
15842332 3 17846492592075140065
167882 2 18409167701780506194
17539 30 17476355480028330678
17818456 19 17128456398891637865
1813 80 17770220453466279319
18785283 64 18334013878545577362
18915476 22 18337403685684025987
19784866 34 18339922722420854705
204376 136 18261953062997652641
20645477 70 18337657617425727103
20671657 53 17979630139731562827
20693207 138 17896333432787999939
21065201 7 14620790501532822529
2255824 54 18269832026057506067
23114952 82 18262789666876598429
23366157 5 18263645069579361642
23419403 2 17828810266914163378
23557571 272 16660648401996969381
23559900 14 18341317899649775347
23566358 27 18341612581967444935
23598288 3 17392773866033697812
3057174 1 18339644546337379718
312423 11 18058732386815895169
350125 39 17902236942313427865
3759504 43 18190743244138167432
458136 41 18410857672157866153
46194498 28 18190442893101866997
474 4 18410852178789264505
559249 180 18190738834024672472
58779409 8 18050566541214966932
60123966 16 17973700529594990829
6025842 7 18410846655946332621
6049 1 17823138913540581717
633830 44 18271537462780806421
6669772 16 18340775926975900302
6898599 12 17687477067312863564
7364860 26 18341327795196194874
77188 2 17905607701303469138
81228 2 17115778926184573736
81539 233 18408036325241767496
8272917 22 18411132507389482501
9841814 1 18044366124220478099

>  <PUBCHEM_SHAPE_MULTIPOLES>  (1) 
393.98
9.42
4.46
1.2
3.56
5.52
-0.28
-10.04
-2.47
-8.35
-0.98
0.65
0.09
-0.28

>  <PUBCHEM_SHAPE_SELFOVERLAP>  (1) 
833.08

>  <PUBCHEM_SHAPE_VOLUME>  (1) 
222.2

>  <PUBCHEM_COORDINATE_TYPE>  (1) 
2
5
10

$$$$
