43833
     RDKit          3D

 22 25  0  0  0  0  0  0  0  0999 V2000
   -1.7265    1.7780   -0.2940 O   0  0  0  0  0  0  0  0  0  0  0  0
   -7.4069   -0.7276   -0.1673 O   0  0  0  0  0  0  0  0  0  0  0  0
   -1.2217   -0.2820    0.6457 N   0  0  0  0  0  0  0  0  0  0  0  0
   -6.1764   -0.4049   -0.1058 N   0  0  0  0  0  0  0  0  0  0  0  0
    2.4932   -0.2778   -0.2299 C   0  0  0  0  0  0  0  0  0  0  0  0
    4.3040    1.4396    0.2128 C   0  0  0  0  0  0  0  0  0  0  0  0
    4.5252   -0.8862    1.1577 C   0  0  0  0  0  0  0  0  0  0  0  0
    4.7697   -0.5048   -1.3214 C   0  0  0  0  0  0  0  0  0  0  0  0
    2.7925    1.2178    0.0296 C   0  0  0  0  0  0  0  0  0  0  0  0
    3.0130   -1.1016    0.9719 C   0  0  0  0  0  0  0  0  0  0  0  0
    3.2568   -0.7215   -1.5002 C   0  0  0  0  0  0  0  0  0  0  0  0
    4.7968    0.6066    1.4078 C   0  0  0  0  0  0  0  0  0  0  0  0
    5.0400    0.9861   -1.0589 C   0  0  0  0  0  0  0  0  0  0  0  0
    5.2600   -1.3280   -0.1188 C   0  0  0  0  0  0  0  0  0  0  0  0
    0.9886   -0.4947   -0.4116 C   0  0  0  0  0  0  0  0  0  0  0  0
    0.1883   -0.0574    0.8050 C   0  0  0  0  0  0  0  0  0  0  0  0
   -2.0771    0.6691    0.1006 C   0  0  0  0  0  0  0  0  0  0  0  0
   -3.5126    0.2935    0.0283 C   0  0  0  0  0  0  0  0  0  0  0  0
   -4.4623    1.2877    0.0502 C   0  0  0  0  0  0  0  0  0  0  0  0
   -3.8473   -1.0375   -0.0582 C   0  0  0  0  0  0  0  0  0  0  0  0
   -5.8027    0.9224   -0.0181 C   0  0  0  0  0  0  0  0  0  0  0  0
   -5.1946   -1.3767   -0.1254 C   0  0  0  0  0  0  0  0  0  0  0  0
  1 17  2  0
  2  4  1  0
  3 16  1  0
  3 17  1  0
  4 21  2  0
  4 22  1  0
  5  9  1  0
  5 10  1  0
  5 11  1  0
  5 15  1  0
  6  9  1  0
  6 12  1  0
  6 13  1  0
  7 10  1  0
  7 12  1  0
  7 14  1  0
  8 11  1  0
  8 13  1  0
  8 14  1  0
 15 16  1  0
 17 18  1  0
 18 19  2  0
 18 20  1  0
 19 21  1  0
 20 22  2  0
M  CHG  2   2  -1   4   1
M  END
>  <PUBCHEM_COMPOUND_CID>  (1) 
43833

>  <PUBCHEM_CONFORMER_RMSD>  (1) 
0.8

>  <PUBCHEM_CONFORMER_DIVERSEORDER>  (1) 
1
3
4
2
5

>  <PUBCHEM_MMFF94_PARTIAL_CHARGES>  (1) 
16
1 -0.57
16 0.3
17 0.54
18 0.09
19 -0.15
2 -0.75
20 -0.15
21 -0.06
22 -0.06
3 -0.73
4 0.57
42 0.37
43 0.15
44 0.15
45 0.15
46 0.15

>  <PUBCHEM_EFFECTIVE_ROTOR_COUNT>  (1) 
6.2

>  <PUBCHEM_PHARMACOPHORE_FEATURES>  (1) 
8
1 1 acceptor
1 2 anion
1 3 donor
6 4 18 19 20 21 22 rings
6 5 6 7 9 10 12 rings
6 5 6 8 9 11 13 rings
6 5 7 8 10 11 14 rings
6 6 7 8 12 13 14 rings

>  <PUBCHEM_HEAVY_ATOM_COUNT>  (1) 
22

>  <PUBCHEM_ATOM_DEF_STEREO_COUNT>  (1) 
0

>  <PUBCHEM_ATOM_UDEF_STEREO_COUNT>  (1) 
0

>  <PUBCHEM_BOND_DEF_STEREO_COUNT>  (1) 
0

>  <PUBCHEM_BOND_UDEF_STEREO_COUNT>  (1) 
0

>  <PUBCHEM_ISOTOPIC_ATOM_COUNT>  (1) 
0

>  <PUBCHEM_COMPONENT_COUNT>  (1) 
1

>  <PUBCHEM_CACTVS_TAUTO_COUNT>  (1) 
2

>  <PUBCHEM_CONFORMER_ID>  (1) 
0000AB3900000001

>  <PUBCHEM_MMFF94_ENERGY>  (1) 
57.0922

>  <PUBCHEM_FEATURE_SELFOVERLAP>  (1) 
53.113

>  <PUBCHEM_SHAPE_FINGERPRINT>  (1) 
10595046 47 18334294258221198913
11287383 113 18273214209507067577
11524674 6 16559031610794622143
11724838 91 18342167921222798476
12107183 9 17469031173081678465
12166972 35 17603307042128103188
12236239 1 17821446846580910443
12516196 113 17346880061748488777
12616971 3 14333119750491729336
12730499 353 17418379099394817134
128620 24 17703789210687739136
13167823 11 18408038502758759026
13533116 47 17676482800952662306
13685833 64 18272654576112592923
1420 363 17489590060804831599
14251764 18 17967531268841053736
14528608 73 18333733532744221809
15142383 8 12319463151507810850
15183329 4 18335421253587236691
15788980 27 18411983559158623275
17349148 13 16950566558092518172
17844677 252 17988929954886621505
18222031 100 17530967977481992436
20157964 124 15574434327486139218
21623969 137 16702025279244604015
220451 1 18187369809462563395
22061861 79 16988566775339281749
221357 26 18410295796226116420
23035841 295 18411700985408795651
23081809 10 17748828488659485993
23402539 116 18333446530566588013
23522609 53 18192743118361545453
23536379 177 18410011022756220355
23557571 272 18272659995559837645
23559900 14 18187365479734628424
239999 70 18202848747227957654
29717793 49 18186806846777422326
300161 21 14851892486328864800
3004659 81 18410014329786196476
34797466 226 18131077064266732845
4073 2 17967819400199844395
4325135 7 18411419539695054892
4340502 62 17275381002142378278
542803 24 17167864153612999689
7495541 125 18201432610004478808

>  <PUBCHEM_SHAPE_MULTIPOLES>  (1) 
431.05
17.55
1.49
1.11
22.04
0.21
0.03
-1.75
1.02
-0.08
0.02
-1.85
-0.11
-0.03

>  <PUBCHEM_SHAPE_SELFOVERLAP>  (1) 
935.62

>  <PUBCHEM_SHAPE_VOLUME>  (1) 
228.1

>  <PUBCHEM_COORDINATE_TYPE>  (1) 
2
5
10

$$$$
