43846
     RDKit          3D

 21 22  0  0  0  0  0  0  0  0999 V2000
    6.3096    2.2707    0.1856 Cl  0  0  0  0  0  0  0  0  0  0  0  0
   -0.3395   -3.8647    0.4287 O   0  0  0  0  0  0  0  0  0  0  0  0
   -4.4012    1.4965   -0.4031 O   0  0  0  0  0  0  0  0  0  0  0  0
   -2.9313    0.8566    1.2554 O   0  0  0  0  0  0  0  0  0  0  0  0
   -1.3020   -0.4970   -0.6290 C   0  0  0  0  0  0  0  0  0  0  0  0
    1.0649   -0.5357   -0.1466 C   0  0  0  0  0  0  0  0  0  0  0  0
   -0.0738    0.1600   -0.5523 C   0  0  0  0  0  0  0  0  0  0  0  0
   -2.5201    0.2460   -1.0635 C   0  0  0  0  0  0  0  0  0  0  0  0
    2.3386    0.1460   -0.0654 C   0  0  0  0  0  0  0  0  0  0  0  0
   -1.3913   -1.8496   -0.3000 C   0  0  0  0  0  0  0  0  0  0  0  0
    0.9759   -1.8882    0.1822 C   0  0  0  0  0  0  0  0  0  0  0  0
   -0.2522   -2.5453    0.1057 C   0  0  0  0  0  0  0  0  0  0  0  0
    2.3828    1.5082    0.2306 C   0  0  0  0  0  0  0  0  0  0  0  0
    3.5222   -0.5590   -0.2840 C   0  0  0  0  0  0  0  0  0  0  0  0
   -3.2789    0.8863    0.0826 C   0  0  0  0  0  0  0  0  0  0  0  0
    3.6106    2.1656    0.3081 C   0  0  0  0  0  0  0  0  0  0  0  0
    4.7501    0.0982   -0.2066 C   0  0  0  0  0  0  0  0  0  0  0  0
    4.7943    1.4606    0.0896 C   0  0  0  0  0  0  0  0  0  0  0  0
   -5.2198    2.1486    0.5733 C   0  0  0  0  0  0  0  0  0  0  0  0
   -1.6257   -4.4740    0.3282 C   0  0  0  0  0  0  0  0  0  0  0  0
   -6.4135    2.7701   -0.1197 C   0  0  0  0  0  0  0  0  0  0  0  0
  1 18  1  0
  2 12  1  0
  2 20  1  0
  3 15  1  0
  3 19  1  0
  4 15  2  0
  5  7  2  0
  5  8  1  0
  5 10  1  0
  6  7  1  0
  6  9  1  0
  6 11  2  0
  8 15  1  0
  9 13  2  0
  9 14  1  0
 10 12  2  0
 11 12  1  0
 13 16  1  0
 14 17  2  0
 16 18  2  0
 17 18  1  0
 19 21  1  0
M  END
>  <PUBCHEM_COMPOUND_CID>  (1) 
43846

>  <PUBCHEM_CONFORMER_RMSD>  (1) 
0.8

>  <PUBCHEM_CONFORMER_DIVERSEORDER>  (1) 
1
20
23
41
10
6
8
43
24
21
39
44
9
37
14
32
13
42
25
45
19
22
36
4
31
46
7
5
38
12
2
28
17
26
11
29
15
3
40
35
18
27
34
30
33
16

>  <PUBCHEM_MMFF94_PARTIAL_CHARGES>  (1) 
25
1 -0.18
10 -0.15
11 -0.15
12 0.08
13 -0.15
14 -0.15
15 0.66
16 -0.15
17 -0.15
18 0.18
19 0.28
2 -0.36
20 0.28
22 0.15
25 0.15
26 0.15
27 0.15
28 0.15
29 0.15
3 -0.43
30 0.15
4 -0.57
5 -0.14
7 -0.15
8 0.2

>  <PUBCHEM_EFFECTIVE_ROTOR_COUNT>  (1) 
6

>  <PUBCHEM_PHARMACOPHORE_FEATURES>  (1) 
4
1 2 acceptor
1 4 acceptor
6 5 6 7 10 11 12 rings
6 9 13 14 16 17 18 rings

>  <PUBCHEM_HEAVY_ATOM_COUNT>  (1) 
21

>  <PUBCHEM_ATOM_DEF_STEREO_COUNT>  (1) 
0

>  <PUBCHEM_ATOM_UDEF_STEREO_COUNT>  (1) 
0

>  <PUBCHEM_BOND_DEF_STEREO_COUNT>  (1) 
0

>  <PUBCHEM_BOND_UDEF_STEREO_COUNT>  (1) 
0

>  <PUBCHEM_ISOTOPIC_ATOM_COUNT>  (1) 
0

>  <PUBCHEM_COMPONENT_COUNT>  (1) 
1

>  <PUBCHEM_CACTVS_TAUTO_COUNT>  (1) 
1

>  <PUBCHEM_CONFORMER_ID>  (1) 
0000AB4600000001

>  <PUBCHEM_MMFF94_ENERGY>  (1) 
61.7432

>  <PUBCHEM_FEATURE_SELFOVERLAP>  (1) 
20.297

>  <PUBCHEM_SHAPE_FINGERPRINT>  (1) 
10411042 1 17473262553308629127
10493431 412 18409167722907261197
1100329 8 18264482897978687194
11823591 26 18339912749670044157
12107183 9 18335126554744014282
12293681 160 17918274229547315537
12390115 104 18340781411068719149
12403259 118 17822301218465785869
12532896 13 18410857663510292623
12730499 353 18264217915833622257
12769317 202 18269262470528889953
12788726 201 17684664502955739542
13140716 1 18262515892787221027
13955234 65 18047758088165796539
14790565 3 18339083696264912444
15475509 35 16154833397359828226
15778101 99 18337956809295865420
15927050 60 18410855460429927102
17980427 26 18268136570384599999
18222031 100 9439394727210420908
19784866 34 18411697647834201621
20157964 124 18193554468470717341
20238998 120 17546443844467822887
204376 136 18409449163608499447
20510252 161 18050565445756213690
21033648 29 18411694409076011225
21049683 118 18264746870693719667
21618674 25 18261397685667276929
21756936 100 18341888640557573308
22182937 141 18340208612670957114
22224240 67 18335423452853358153
23557571 272 18126293167111094070
23558518 356 17900261098300630578
23559900 14 18341612642882665254
23845131 108 18334295332422420323
270888 7 18412260627399291464
283562 15 18046899660999240306
293599 30 18410293605750500020
3004659 81 11527944547709176004
335352 9 18339924823440136262
3380486 145 17190371431338161871
350125 39 17977671132286030008
474 4 18341331076930997593
5104073 3 18262787606078117872
56616090 46 18411987962011662014
59124914 9 18342175514319185929
59682541 52 16844739625198559476
59755656 520 18408317795960557903
621550 34 18043249029608391821
633830 44 18271519806391331471
76465 3 9007063465482535060
77188 2 17112975721606796975
7808743 9 18336825402797883072
81228 2 17753609349547611690
8272917 22 18195809557754110415
9709674 26 18270121348366747886
9999458 23 18193559969469210087

>  <PUBCHEM_SHAPE_MULTIPOLES>  (1) 
416.43
12.43
4.31
0.81
0.4
4.85
0
-17.04
0.76
3.98
0.88
0.38
-0.06
0.18

>  <PUBCHEM_SHAPE_SELFOVERLAP>  (1) 
873.422

>  <PUBCHEM_SHAPE_VOLUME>  (1) 
237.6

>  <PUBCHEM_COORDINATE_TYPE>  (1) 
2
5
10

$$$$
