43848
     RDKit          3D

 18 19  0  0  0  0  0  0  0  0999 V2000
    5.9032    0.5330    0.0138 Cl  0  0  0  0  0  0  0  0  0  0  0  0
   -2.5035   -2.8146   -0.1365 O   0  0  0  0  0  0  0  0  0  0  0  0
   -4.4173    1.6680    0.0904 O   0  0  0  0  0  0  0  0  0  0  0  0
   -2.7128    3.1700    0.1653 O   0  0  0  0  0  0  0  0  0  0  0  0
   -0.0169   -0.1340   -0.0063 C   0  0  0  0  0  0  0  0  0  0  0  0
    1.4208    0.0284   -0.0005 C   0  0  0  0  0  0  0  0  0  0  0  0
   -0.8455    0.9863    0.0509 C   0  0  0  0  0  0  0  0  0  0  0  0
   -0.5738   -1.4113   -0.0691 C   0  0  0  0  0  0  0  0  0  0  0  0
   -2.2316    0.8294    0.0452 C   0  0  0  0  0  0  0  0  0  0  0  0
   -1.9598   -1.5682   -0.0747 C   0  0  0  0  0  0  0  0  0  0  0  0
   -2.7887   -0.4478   -0.0174 C   0  0  0  0  0  0  0  0  0  0  0  0
    1.9952    1.1750   -0.5489 C   0  0  0  0  0  0  0  0  0  0  0  0
    2.2325   -0.9621    0.5528 C   0  0  0  0  0  0  0  0  0  0  0  0
    3.3814    1.3312   -0.5442 C   0  0  0  0  0  0  0  0  0  0  0  0
    3.6185   -0.8057    0.5576 C   0  0  0  0  0  0  0  0  0  0  0  0
    4.1930    0.3409    0.0090 C   0  0  0  0  0  0  0  0  0  0  0  0
   -3.0965    1.9972    0.1062 C   0  0  0  0  0  0  0  0  0  0  0  0
   -1.5982   -3.9157   -0.1936 C   0  0  0  0  0  0  0  0  0  0  0  0
  1 16  1  0
  2 10  1  0
  2 18  1  0
  3 17  1  0
  4 17  2  0
  5  6  1  0
  5  7  2  0
  5  8  1  0
  6 12  2  0
  6 13  1  0
  7  9  1  0
  8 10  2  0
  9 11  2  0
  9 17  1  0
 10 11  1  0
 12 14  1  0
 13 15  2  0
 14 16  2  0
 15 16  1  0
M  END
>  <PUBCHEM_COMPOUND_CID>  (1) 
43848

>  <PUBCHEM_CONFORMER_RMSD>  (1) 
0.6

>  <PUBCHEM_CONFORMER_DIVERSEORDER>  (1) 
2
4
1
3

>  <PUBCHEM_MMFF94_PARTIAL_CHARGES>  (1) 
24
1 -0.18
10 0.08
11 -0.15
12 -0.15
13 -0.15
14 -0.15
15 -0.15
16 0.18
17 0.63
18 0.28
19 0.15
2 -0.36
20 0.15
21 0.15
22 0.15
23 0.15
24 0.15
25 0.15
29 0.5
3 -0.65
4 -0.57
7 -0.15
8 -0.15
9 0.09

>  <PUBCHEM_EFFECTIVE_ROTOR_COUNT>  (1) 
3

>  <PUBCHEM_PHARMACOPHORE_FEATURES>  (1) 
6
1 2 acceptor
1 3 acceptor
1 4 acceptor
3 3 4 17 anion
6 5 7 8 9 10 11 rings
6 6 12 13 14 15 16 rings

>  <PUBCHEM_HEAVY_ATOM_COUNT>  (1) 
18

>  <PUBCHEM_ATOM_DEF_STEREO_COUNT>  (1) 
0

>  <PUBCHEM_ATOM_UDEF_STEREO_COUNT>  (1) 
0

>  <PUBCHEM_BOND_DEF_STEREO_COUNT>  (1) 
0

>  <PUBCHEM_BOND_UDEF_STEREO_COUNT>  (1) 
0

>  <PUBCHEM_ISOTOPIC_ATOM_COUNT>  (1) 
0

>  <PUBCHEM_COMPONENT_COUNT>  (1) 
1

>  <PUBCHEM_CACTVS_TAUTO_COUNT>  (1) 
1

>  <PUBCHEM_CONFORMER_ID>  (1) 
0000AB4800000002

>  <PUBCHEM_MMFF94_ENERGY>  (1) 
66.9671

>  <PUBCHEM_FEATURE_SELFOVERLAP>  (1) 
30.504

>  <PUBCHEM_SHAPE_FINGERPRINT>  (1) 
10062212 137 18187639232866445674
10319926 262 18198883947438031640
10411042 1 17834676371939265967
10616163 171 18339080496867529454
12107183 9 18047181961210168970
12173636 292 18339356375369608085
12236239 1 18040715870560416872
12251169 10 18334296444164594628
12390115 104 18128833957778351033
12500047 106 18412820274828109320
12553582 1 17978789343901518491
13140716 1 18123758814099413971
13544592 145 18127421055625081974
13583140 156 17703501190745319826
13760787 19 18334576841573707082
138480 1 17185877186460570735
14178342 30 18336809979765249010
14508225 48 18125425660979201919
15042514 8 18337679736375816011
15196674 1 18409166598021416418
15442244 35 18335416829707741706
15669948 3 18411132571423679779
16087824 20 18411135862792980719
16752209 62 18341880931281648655
16945 1 18340204193307890947
1741750 31 18342177730506044545
17539 30 18199177576650378751
204376 136 18339364037865434161
20510252 161 18272093773162674561
20602899 9 15267053748871166791
20645477 56 18412266116382891361
20645477 70 16558477375118483868
21065198 57 18412543232737747976
21267235 1 18335710489317033322
212916 134 18126544765720385072
21426921 1 18339643450883315702
21501502 16 18334011735356753574
21524375 3 18261114002750497241
22224240 67 18272099267074894377
2306618 200 18201731690241916547
23402539 116 18343013433064499879
23402655 69 18334013900315767420
23557571 272 18202006564064869772
23558518 356 18044942508979267592
23559900 14 18201439143641278482
2748010 2 18194701271524180823
3071541 12 17548138823192761195
3091708 16 9054760288522328771
335352 9 18265614273968111206
34934 24 18260824869894460184
352729 6 18411141303698711087
3545911 37 18412829062547669544
4214541 1 18410574002864278180
474 4 17458914841926371460
474229 33 18410014317502531961
5104073 3 18334571365654065744
532947 4 17837777729047514078
559249 180 18336261263407500658
573450 72 18334846243508118794
633830 44 17841712907265073805
69090 78 18335980878951296601
6992083 37 18113902658259924157
7097593 13 18188478074302507522
7364860 26 17619909453354430419
77188 2 17762900270568958287
7832392 63 18408884036317895996
9709674 26 18343587343426612702

>  <PUBCHEM_SHAPE_MULTIPOLES>  (1) 
354.69
8.96
3.25
0.68
9.89
1.93
0
-3.21
-0.23
-4.91
0.14
0.23
0.01
-0.68

>  <PUBCHEM_SHAPE_SELFOVERLAP>  (1) 
761.034

>  <PUBCHEM_SHAPE_VOLUME>  (1) 
198

>  <PUBCHEM_COORDINATE_TYPE>  (1) 
2
5
10

$$$$
