43844
     RDKit          3D

 18 19  0  0  0  0  0  0  0  0999 V2000
    5.9720    0.2107   -0.1273 Cl  0  0  0  0  0  0  0  0  0  0  0  0
   -2.5647   -2.7792   -0.4279 O   0  0  0  0  0  0  0  0  0  0  0  0
   -2.2112    3.2718   -0.9035 O   0  0  0  0  0  0  0  0  0  0  0  0
   -2.1244    0.7192    0.5480 C   0  0  0  0  0  0  0  0  0  0  0  0
    0.0392   -0.2692    0.1257 C   0  0  0  0  0  0  0  0  0  0  0  0
   -2.9531    1.8968    0.9362 C   0  0  0  0  0  0  0  0  0  0  0  0
   -0.7352    0.8317    0.4909 C   0  0  0  0  0  0  0  0  0  0  0  0
    1.4801   -0.1525    0.0652 C   0  0  0  0  0  0  0  0  0  0  0  0
   -2.7389   -0.4945    0.2399 C   0  0  0  0  0  0  0  0  0  0  0  0
   -0.5754   -1.4829   -0.1825 C   0  0  0  0  0  0  0  0  0  0  0  0
   -1.9645   -1.5955   -0.1254 C   0  0  0  0  0  0  0  0  0  0  0  0
   -3.3701    2.7554   -0.2617 C   0  0  0  0  0  0  0  0  0  0  0  0
    2.0676    1.0720   -0.2523 C   0  0  0  0  0  0  0  0  0  0  0  0
    2.2815   -1.2646    0.3237 C   0  0  0  0  0  0  0  0  0  0  0  0
    3.4568    1.1844   -0.3115 C   0  0  0  0  0  0  0  0  0  0  0  0
    3.6705   -1.1521    0.2646 C   0  0  0  0  0  0  0  0  0  0  0  0
    4.2583    0.0724   -0.0531 C   0  0  0  0  0  0  0  0  0  0  0  0
   -3.9885   -2.8240   -0.3490 C   0  0  0  0  0  0  0  0  0  0  0  0
  1 17  1  0
  2 11  1  0
  2 18  1  0
  3 12  1  0
  4  6  1  0
  4  7  2  0
  4  9  1  0
  5  7  1  0
  5  8  1  0
  5 10  2  0
  6 12  1  0
  8 13  2  0
  8 14  1  0
  9 11  2  0
 10 11  1  0
 13 15  1  0
 14 16  2  0
 15 17  2  0
 16 17  1  0
M  END
>  <PUBCHEM_COMPOUND_CID>  (1) 
43844

>  <PUBCHEM_CONFORMER_RMSD>  (1) 
0.6

>  <PUBCHEM_CONFORMER_DIVERSEORDER>  (1) 
1
12
7
10
4
8
9
5
11
2
3
6

>  <PUBCHEM_MMFF94_PARTIAL_CHARGES>  (1) 
24
1 -0.18
10 -0.15
11 0.08
12 0.28
13 -0.15
14 -0.15
15 -0.15
16 -0.15
17 0.18
18 0.28
2 -0.36
21 0.15
22 0.15
23 0.15
26 0.15
27 0.15
28 0.15
29 0.15
3 -0.68
30 0.4
4 -0.14
6 0.14
7 -0.15
9 -0.15

>  <PUBCHEM_EFFECTIVE_ROTOR_COUNT>  (1) 
4

>  <PUBCHEM_PHARMACOPHORE_FEATURES>  (1) 
5
1 2 acceptor
1 3 acceptor
1 3 donor
6 4 5 7 9 10 11 rings
6 8 13 14 15 16 17 rings

>  <PUBCHEM_HEAVY_ATOM_COUNT>  (1) 
18

>  <PUBCHEM_ATOM_DEF_STEREO_COUNT>  (1) 
0

>  <PUBCHEM_ATOM_UDEF_STEREO_COUNT>  (1) 
0

>  <PUBCHEM_BOND_DEF_STEREO_COUNT>  (1) 
0

>  <PUBCHEM_BOND_UDEF_STEREO_COUNT>  (1) 
0

>  <PUBCHEM_ISOTOPIC_ATOM_COUNT>  (1) 
0

>  <PUBCHEM_COMPONENT_COUNT>  (1) 
1

>  <PUBCHEM_CACTVS_TAUTO_COUNT>  (1) 
1

>  <PUBCHEM_CONFORMER_ID>  (1) 
0000AB4400000001

>  <PUBCHEM_MMFF94_ENERGY>  (1) 
60.2685

>  <PUBCHEM_FEATURE_SELFOVERLAP>  (1) 
25.371

>  <PUBCHEM_SHAPE_FINGERPRINT>  (1) 
10411042 1 18123469646963441519
10608611 8 18412824694455244328
10616163 171 18342179985617634630
11045515 52 18044650030733980503
12107183 9 17975970965218947602
12403259 226 18199181970027207064
12403814 3 18336838532744769049
12500047 106 18341045220897818904
12553582 1 18054780947667854575
12788726 201 18337101354409962227
13583140 156 17632284688621621866
14178342 30 18337371782878162226
14508225 48 18268980063796983933
15042514 8 18411145766307063859
15196674 1 18411702076309480674
15442244 35 18337108960923188746
16087824 20 18411136923670767821
16752209 62 18272355486694662831
17492 89 18411983559439133458
17539 30 18342164614398531375
18186145 218 18055925302906093632
200 152 18337949120550154910
20101258 96 18263095468590115825
20510252 161 18201725088761391211
20645477 56 18341336604137345145
20645477 70 16773242769437542662
21065201 7 18342175570876141898
21267235 1 18339933726501567718
21307412 95 17483695411702724998
21426921 1 18412263951819282595
21501502 16 18409450297511624578
21524375 3 18190465944101874665
21618674 54 18412263913618699290
2306618 200 18202293506408283337
23227448 37 18411138008947319837
23402539 116 18342454902390047215
23402655 69 18335423431230711684
23557571 272 18131077038786786876
23558518 356 18333739008807126994
23559900 14 18271516615199183080
2748010 2 17908161897074528243
34934 24 18261955129256431376
350125 39 18340491157031344456
3545911 37 18343306929433067152
4214541 1 18412829079674609376
5104073 3 18413106152610743746
559249 180 18338796707219788466
573450 72 18336255782997342490
58051976 100 18413672417566578348
6327066 14 18190175685616961261
633830 44 17412752709279990205
68521 5 18340204197840358551
69090 78 18337108943564016945
7164475 11 18410291453649904102
7832392 63 18409449146602839984
81228 2 18337950220578195673
9709674 26 18201162061572567446

>  <PUBCHEM_SHAPE_MULTIPOLES>  (1) 
360.56
9.45
3.13
0.77
10.87
0.49
0.02
0.05
-0.49
-5.47
-0.68
-0.25
0.2
-0.5

>  <PUBCHEM_SHAPE_SELFOVERLAP>  (1) 
760.736

>  <PUBCHEM_SHAPE_VOLUME>  (1) 
205.1

>  <PUBCHEM_COORDINATE_TYPE>  (1) 
2
5
10

$$$$
