43845
     RDKit          3D

 20 21  0  0  0  0  0  0  0  0999 V2000
    6.2672    1.8725    0.1240 Cl  0  0  0  0  0  0  0  0  0  0  0  0
   -0.8206   -3.7502    0.3697 O   0  0  0  0  0  0  0  0  0  0  0  0
   -5.1876    2.6630    1.1621 O   0  0  0  0  0  0  0  0  0  0  0  0
   -5.0107    2.1930   -1.0531 O   0  0  0  0  0  0  0  0  0  0  0  0
   -1.5684   -0.2604   -0.4356 C   0  0  0  0  0  0  0  0  0  0  0  0
   -2.7449    0.5975   -0.7589 C   0  0  0  0  0  0  0  0  0  0  0  0
    0.8093   -0.5066   -0.0857 C   0  0  0  0  0  0  0  0  0  0  0  0
   -0.2904    0.2965   -0.3875 C   0  0  0  0  0  0  0  0  0  0  0  0
   -1.7466   -1.6204   -0.1818 C   0  0  0  0  0  0  0  0  0  0  0  0
   -3.4045    1.2297    0.4723 C   0  0  0  0  0  0  0  0  0  0  0  0
    2.1348    0.0713   -0.0343 C   0  0  0  0  0  0  0  0  0  0  0  0
    0.6313   -1.8665    0.1679 C   0  0  0  0  0  0  0  0  0  0  0  0
   -0.6467   -2.4235    0.1200 C   0  0  0  0  0  0  0  0  0  0  0  0
    2.3000    1.4053    0.3380 C   0  0  0  0  0  0  0  0  0  0  0  0
    3.2473   -0.7054   -0.3578 C   0  0  0  0  0  0  0  0  0  0  0  0
   -4.6091    2.0578    0.0957 C   0  0  0  0  0  0  0  0  0  0  0  0
    3.5777    1.9626    0.3868 C   0  0  0  0  0  0  0  0  0  0  0  0
    4.5252   -0.1482   -0.3090 C   0  0  0  0  0  0  0  0  0  0  0  0
    4.6904    1.1859    0.0634 C   0  0  0  0  0  0  0  0  0  0  0  0
   -2.1538   -4.2540    0.3038 C   0  0  0  0  0  0  0  0  0  0  0  0
  1 19  1  0
  2 13  1  0
  2 20  1  0
  3 16  1  0
  4 16  2  0
  5  6  1  0
  5  8  2  0
  5  9  1  0
  6 10  1  0
  7  8  1  0
  7 11  1  0
  7 12  2  0
  9 13  2  0
 10 16  1  0
 11 14  2  0
 11 15  1  0
 12 13  1  0
 14 17  1  0
 15 18  2  0
 17 19  2  0
 18 19  1  0
M  END
>  <PUBCHEM_COMPOUND_CID>  (1) 
43845

>  <PUBCHEM_CONFORMER_RMSD>  (1) 
0.8

>  <PUBCHEM_CONFORMER_DIVERSEORDER>  (1) 
1
9
15
14
12
3
5
8
7
13
10
6
2
4
11

>  <PUBCHEM_MMFF94_PARTIAL_CHARGES>  (1) 
26
1 -0.18
10 0.06
12 -0.15
13 0.08
14 -0.15
15 -0.15
16 0.66
17 -0.15
18 -0.15
19 0.18
2 -0.36
20 0.28
23 0.15
24 0.15
27 0.15
28 0.15
29 0.15
3 -0.65
30 0.15
31 0.15
35 0.5
4 -0.57
5 -0.14
6 0.14
8 -0.15
9 -0.15

>  <PUBCHEM_EFFECTIVE_ROTOR_COUNT>  (1) 
5

>  <PUBCHEM_PHARMACOPHORE_FEATURES>  (1) 
6
1 2 acceptor
1 3 acceptor
1 4 acceptor
3 3 4 16 anion
6 11 14 15 17 18 19 rings
6 5 7 8 9 12 13 rings

>  <PUBCHEM_HEAVY_ATOM_COUNT>  (1) 
20

>  <PUBCHEM_ATOM_DEF_STEREO_COUNT>  (1) 
0

>  <PUBCHEM_ATOM_UDEF_STEREO_COUNT>  (1) 
0

>  <PUBCHEM_BOND_DEF_STEREO_COUNT>  (1) 
0

>  <PUBCHEM_BOND_UDEF_STEREO_COUNT>  (1) 
0

>  <PUBCHEM_ISOTOPIC_ATOM_COUNT>  (1) 
0

>  <PUBCHEM_COMPONENT_COUNT>  (1) 
1

>  <PUBCHEM_CACTVS_TAUTO_COUNT>  (1) 
1

>  <PUBCHEM_CONFORMER_ID>  (1) 
0000AB4500000001

>  <PUBCHEM_MMFF94_ENERGY>  (1) 
62.437

>  <PUBCHEM_FEATURE_SELFOVERLAP>  (1) 
30.504

>  <PUBCHEM_SHAPE_FINGERPRINT>  (1) 
10411042 1 17617097348913573755
10493431 412 18409169904824558965
10608611 8 18196649816660936616
1100329 8 18264764355564525610
12107183 9 18262787477118394074
12293681 160 17846498089006019553
12390115 104 18340782493484984145
12403259 118 17530973488078332317
12500047 106 18411416254408927180
12532896 13 18410293596997197639
12769317 202 18196640805487779437
12788726 201 18195229238890400483
13140716 1 18262516975261339531
138480 1 17401484845325108051
13955234 65 17975702680271458091
14123255 52 18410291372330374829
14178342 30 18190731128309699618
14790565 3 18338803295056354044
15778101 99 18338239366567385372
15927050 60 18410575067721703918
16087824 20 18266738168896295263
17834072 32 18411420600536321401
17980427 26 18196361529476147087
18222031 100 8934703471128754549
19784866 34 18339922606894288593
204376 136 18337110073287868429
20510252 161 18195808702528526746
20645477 56 18408885165641035372
21033648 29 18338223895478584929
21049683 118 18191561169278164241
21307412 95 17914640292901140134
21426921 1 18193838369301992894
22182937 141 18340208591222390481
22224240 67 18409737236319862169
23402655 69 18131628985192595916
23557571 272 18198913685200783708
23558518 356 17972318679385091384
23559900 14 18341895195827699366
23845131 108 18334860460034874675
283562 15 18119522382649739443
293599 30 18410013217379416188
3091708 16 9339617328687991931
335352 9 18339079290408539334
3759504 43 18409730660133938539
4214541 1 18265330784778033596
474 4 18268426846123423425
5104073 3 18261662779823370024
56616090 46 18411423895340441414
59124914 9 18198626540503823721
59755656 520 18407754837411901207
633830 44 18200308806410792453
77188 2 17329149586168312455
7808743 9 18335980964972358120
81228 2 17825666922084244971
9709674 26 18342741870777759086

>  <PUBCHEM_SHAPE_MULTIPOLES>  (1) 
395.85
11.41
4.05
0.8
6.28
3.76
0.01
-12.27
-0.48
-5.86
-0.83
-0.49
-0.25
0.26

>  <PUBCHEM_SHAPE_SELFOVERLAP>  (1) 
835.351

>  <PUBCHEM_SHAPE_VOLUME>  (1) 
224.2

>  <PUBCHEM_COORDINATE_TYPE>  (1) 
2
5
10

$$$$
