43857
     RDKit          3D

 17 17  0  0  0  0  0  0  0  0999 V2000
    2.0495   -1.7447    1.0421 O   0  0  0  0  0  0  0  0  0  0  0  0
    3.6554   -0.7477   -0.9950 O   0  0  0  0  0  0  0  0  0  0  0  0
   -2.3495    0.6557    0.3646 N   0  0  0  0  0  0  0  0  0  0  0  0
   -4.1002   -0.8526   -0.3096 N   0  0  0  0  0  0  0  0  0  0  0  0
   -0.6581    2.3157    0.9681 C   0  0  0  0  0  0  0  0  0  0  0  0
    0.4946    1.4941    0.4453 C   0  0  0  0  0  0  0  0  0  0  0  0
   -1.9624    2.0561    0.2195 C   0  0  0  0  0  0  0  0  0  0  0  0
    0.7405    0.2439    0.9910 C   0  0  0  0  0  0  0  0  0  0  0  0
    1.2872    2.0043   -0.5709 C   0  0  0  0  0  0  0  0  0  0  0  0
    1.8064   -0.5155    0.5080 C   0  0  0  0  0  0  0  0  0  0  0  0
    2.6125   -0.0148   -0.5145 C   0  0  0  0  0  0  0  0  0  0  0  0
    2.3530    1.2451   -1.0538 C   0  0  0  0  0  0  0  0  0  0  0  0
   -3.4523    0.3678   -0.2411 C   0  0  0  0  0  0  0  0  0  0  0  0
   -5.3499   -1.0001   -1.0424 C   0  0  0  0  0  0  0  0  0  0  0  0
   -3.4436   -2.0807    0.1160 C   0  0  0  0  0  0  0  0  0  0  0  0
    1.3969   -2.8569    0.4326 C   0  0  0  0  0  0  0  0  0  0  0  0
    4.9200   -0.5695   -0.3600 C   0  0  0  0  0  0  0  0  0  0  0  0
  1 10  1  0
  1 16  1  0
  2 11  1  0
  2 17  1  0
  3  7  1  0
  3 13  2  0
  4 13  1  0
  4 14  1  0
  4 15  1  0
  5  6  1  0
  5  7  1  0
  6  8  2  0
  6  9  1  0
  8 10  1  0
  9 12  2  0
 10 11  2  0
 11 12  1  0
M  END
>  <PUBCHEM_COMPOUND_CID>  (1) 
43857

>  <PUBCHEM_CONFORMER_RMSD>  (1) 
0.8

>  <PUBCHEM_CONFORMER_DIVERSEORDER>  (1) 
1
35
25
34
24
40
14
6
32
16
23
11
33
27
22
9
21
13
37
4
29
7
15
18
20
26
38
3
8
12
39
10
17
31
30
19
5
28
2
36

>  <PUBCHEM_MMFF94_PARTIAL_CHARGES>  (1) 
21
1 -0.36
10 0.08
11 0.08
12 -0.15
13 0.44
14 0.37
15 0.37
16 0.28
17 0.28
2 -0.36
22 0.15
23 0.15
24 0.15
25 0.06
3 -0.7
4 -0.79
5 0.14
6 -0.14
7 0.25
8 -0.15
9 -0.15

>  <PUBCHEM_EFFECTIVE_ROTOR_COUNT>  (1) 
6

>  <PUBCHEM_PHARMACOPHORE_FEATURES>  (1) 
4
1 1 acceptor
1 2 acceptor
3 3 4 13 cation
6 6 8 9 10 11 12 rings

>  <PUBCHEM_HEAVY_ATOM_COUNT>  (1) 
17

>  <PUBCHEM_ATOM_DEF_STEREO_COUNT>  (1) 
0

>  <PUBCHEM_ATOM_UDEF_STEREO_COUNT>  (1) 
0

>  <PUBCHEM_BOND_DEF_STEREO_COUNT>  (1) 
0

>  <PUBCHEM_BOND_UDEF_STEREO_COUNT>  (1) 
0

>  <PUBCHEM_ISOTOPIC_ATOM_COUNT>  (1) 
0

>  <PUBCHEM_COMPONENT_COUNT>  (1) 
1

>  <PUBCHEM_CACTVS_TAUTO_COUNT>  (1) 
1

>  <PUBCHEM_CONFORMER_ID>  (1) 
0000AB5100000001

>  <PUBCHEM_MMFF94_ENERGY>  (1) 
62.208

>  <PUBCHEM_FEATURE_SELFOVERLAP>  (1) 
20.301

>  <PUBCHEM_SHAPE_FINGERPRINT>  (1) 
10616163 171 18412548678445198823
11806522 49 18411984659108347684
12553582 1 18410854352622685825
13083527 12 17460857524517132418
13464513 79 18059853999633330255
14576447 43 18408322168374284998
14787075 74 18201154455691901456
14931854 50 18334572421878916847
15757776 16 18260549983323689472
16945 1 17608403188861287568
18915474 69 18411986896501173725
20291156 8 18341892987454814933
20645477 70 18200023096960337557
20871999 31 18335698300426694261
21634736 98 18337676415875037532
21713013 43 18041554849640784007
221490 88 18191876823266992411
23379529 103 18200328721868890526
23402539 116 18337956697425774964
2748010 2 17754213974175192200
2871803 45 18409445908002183661
3060560 45 18040714818055948860
314173 41 18340207505123139661
94968 8 18270679891398483669
960060 61 18337379565685592981

>  <PUBCHEM_SHAPE_MULTIPOLES>  (1) 
328.15
8.77
2.79
1.05
6.57
0.46
-0.03
4.77
-3.39
0.27
0.53
-0.21
-0.06
-0.81

>  <PUBCHEM_SHAPE_SELFOVERLAP>  (1) 
657.052

>  <PUBCHEM_SHAPE_VOLUME>  (1) 
194.8

>  <PUBCHEM_COORDINATE_TYPE>  (1) 
2
5
10

$$$$
