43853
     RDKit          3D

 19 20  0  0  0  0  0  0  0  0999 V2000
   -3.8444   -1.1058    0.0872 S   0  0  0  0  0  0  0  0  0  0  0  0
    4.0404   -0.8581   -0.0849 S   0  0  0  0  0  0  0  0  0  0  0  0
   -1.3119    3.3037    0.0171 O   0  0  0  0  0  0  0  0  0  0  0  0
   -4.2433   -1.3371   -1.4814 O   0  0  0  0  0  0  0  0  0  0  0  0
    4.4529   -1.0554    1.4848 O   0  0  0  0  0  0  0  0  0  0  0  0
   -3.5478   -2.4162    0.6474 O   0  0  0  0  0  0  0  0  0  0  0  0
   -4.8573   -0.2534    0.6899 O   0  0  0  0  0  0  0  0  0  0  0  0
    3.8272   -2.1875   -0.6380 O   0  0  0  0  0  0  0  0  0  0  0  0
    4.9976    0.0533   -0.6922 O   0  0  0  0  0  0  0  0  0  0  0  0
    0.0709   -0.1216   -0.0011 C   0  0  0  0  0  0  0  0  0  0  0  0
    0.0264    1.2930   -0.0049 C   0  0  0  0  0  0  0  0  0  0  0  0
   -2.3604   -0.1862    0.0520 C   0  0  0  0  0  0  0  0  0  0  0  0
   -1.1316   -0.8465    0.0275 C   0  0  0  0  0  0  0  0  0  0  0  0
    1.3166   -0.7697   -0.0260 C   0  0  0  0  0  0  0  0  0  0  0  0
    2.5014   -0.0336   -0.0542 C   0  0  0  0  0  0  0  0  0  0  0  0
   -1.2193    1.9409    0.0200 C   0  0  0  0  0  0  0  0  0  0  0  0
    1.2290    2.0177   -0.0335 C   0  0  0  0  0  0  0  0  0  0  0  0
   -2.4041    1.2049    0.0483 C   0  0  0  0  0  0  0  0  0  0  0  0
    2.4577    1.3574   -0.0579 C   0  0  0  0  0  0  0  0  0  0  0  0
  1  4  1  0
  1  6  2  0
  1  7  2  0
  1 12  1  0
  2  5  1  0
  2  8  2  0
  2  9  2  0
  2 15  1  0
  3 16  1  0
 10 11  2  0
 10 13  1  0
 10 14  1  0
 11 16  1  0
 11 17  1  0
 12 13  2  0
 12 18  1  0
 14 15  2  0
 15 19  1  0
 16 18  2  0
 17 19  2  0
M  END
>  <PUBCHEM_COMPOUND_CID>  (1) 
43853

>  <PUBCHEM_CONFORMER_RMSD>  (1) 
0.6

>  <PUBCHEM_CONFORMER_DIVERSEORDER>  (1) 
1
2

>  <PUBCHEM_MMFF94_PARTIAL_CHARGES>  (1) 
25
1 1.49
12 -0.01
13 -0.15
14 -0.15
15 -0.01
16 0.08
17 -0.15
18 -0.15
19 -0.15
2 1.49
20 0.15
21 0.15
22 0.15
23 0.15
24 0.15
25 0.45
26 0.5
27 0.5
3 -0.53
4 -0.68
5 -0.68
6 -0.65
7 -0.65
8 -0.65
9 -0.65

>  <PUBCHEM_EFFECTIVE_ROTOR_COUNT>  (1) 
2

>  <PUBCHEM_PHARMACOPHORE_FEATURES>  (1) 
11
1 3 donor
1 4 acceptor
1 5 acceptor
1 6 acceptor
1 7 acceptor
1 8 acceptor
1 9 acceptor
4 1 4 6 7 anion
4 2 5 8 9 anion
6 10 11 12 13 16 18 rings
6 10 11 14 15 17 19 rings

>  <PUBCHEM_HEAVY_ATOM_COUNT>  (1) 
19

>  <PUBCHEM_ATOM_DEF_STEREO_COUNT>  (1) 
0

>  <PUBCHEM_ATOM_UDEF_STEREO_COUNT>  (1) 
0

>  <PUBCHEM_BOND_DEF_STEREO_COUNT>  (1) 
0

>  <PUBCHEM_BOND_UDEF_STEREO_COUNT>  (1) 
0

>  <PUBCHEM_ISOTOPIC_ATOM_COUNT>  (1) 
0

>  <PUBCHEM_COMPONENT_COUNT>  (1) 
1

>  <PUBCHEM_CACTVS_TAUTO_COUNT>  (1) 
3

>  <PUBCHEM_CONFORMER_ID>  (1) 
0000AB4D00000001

>  <PUBCHEM_MMFF94_ENERGY>  (1) 
37.255

>  <PUBCHEM_FEATURE_SELFOVERLAP>  (1) 
55.962

>  <PUBCHEM_SHAPE_FINGERPRINT>  (1) 
10967382 1 18194685001686897004
11543360 7 15575003913127343402
11578080 2 17488721459535888137
11806522 49 18407761447767307748
12032990 46 18337394941109290897
12553582 1 18410855477361207235
12596602 18 15554161557863665182
13140716 1 18338796844020269867
13288520 33 18411986840698117398
13862211 1 18410568500531474859
14115302 16 17677062329142222519
14178342 30 18120079594942779466
15042514 8 18194122910748131472
15196674 1 18410576188480613252
15536298 74 18342458196313367488
15885798 251 18409733971511577905
16945 1 18338235938355275528
17357779 13 18335688460392687101
17804303 29 18341616992524356920
1813 80 17822302270357909044
18186145 218 17676762180138085315
18222031 100 18272927262663114998
19141452 34 18131635586752365703
200 152 18201433701432450423
20510252 161 18271244920021241536
20645477 70 18335982085631573375
21267235 1 18410023147111565939
21501502 16 18410302405938230656
21501925 9 18411693301327096776
221490 88 18118692242816945195
23402539 116 18341889693162229511
23557571 272 18130236938793900172
23559900 14 18336825406981963608
2748010 2 18339347660844235909
2871803 45 18333728017980002390
3091708 16 8920196570546907625
335352 9 18410295787999906069
5104073 3 18412545422385300648
58779409 54 18265319634763982277
7364860 26 18268994357453900032
76465 3 18411692197104043070
8809292 202 18260554462943145371
8863177 126 17679601192497902955
9709674 26 18339086990879004654

>  <PUBCHEM_SHAPE_MULTIPOLES>  (1) 
357.62
9.17
2.55
0.85
1.74
1.19
0
-5.82
0.01
-0.8
0
0.03
-0.3
-0.16

>  <PUBCHEM_SHAPE_SELFOVERLAP>  (1) 
754.942

>  <PUBCHEM_SHAPE_VOLUME>  (1) 
201.5

>  <PUBCHEM_COORDINATE_TYPE>  (1) 
2
5
10

$$$$
