43850
     RDKit          3D

 21 22  0  0  0  0  0  0  0  0999 V2000
    6.6151   -0.7330   -0.5145 Cl  0  0  0  0  0  0  0  0  0  0  0  0
   -2.2489   -2.1499    0.6408 O   0  0  0  0  0  0  0  0  0  0  0  0
   -2.7580    4.5429   -0.3588 O   0  0  0  0  0  0  0  0  0  0  0  0
   -2.0370    2.8046   -1.6289 O   0  0  0  0  0  0  0  0  0  0  0  0
    0.7519   -0.0821    0.3181 C   0  0  0  0  0  0  0  0  0  0  0  0
   -1.1689    1.3458    0.6469 C   0  0  0  0  0  0  0  0  0  0  0  0
   -1.4449   -1.0534    0.5772 C   0  0  0  0  0  0  0  0  0  0  0  0
    0.2038    1.1935    0.4509 C   0  0  0  0  0  0  0  0  0  0  0  0
   -0.0722   -1.2055    0.3810 C   0  0  0  0  0  0  0  0  0  0  0  0
   -1.9933    0.2224    0.7100 C   0  0  0  0  0  0  0  0  0  0  0  0
    2.1760   -0.2402    0.1164 C   0  0  0  0  0  0  0  0  0  0  0  0
   -1.7560    2.7095    0.7882 C   0  0  0  0  0  0  0  0  0  0  0  0
   -3.5942   -1.9956    0.1914 C   0  0  0  0  0  0  0  0  0  0  0  0
   -4.0902   -3.3302   -0.3436 C   0  0  0  0  0  0  0  0  0  0  0  0
    3.0636    0.6952    0.6478 C   0  0  0  0  0  0  0  0  0  0  0  0
    2.6609   -1.3277   -0.6101 C   0  0  0  0  0  0  0  0  0  0  0  0
   -5.5164   -3.2386   -0.8558 C   0  0  0  0  0  0  0  0  0  0  0  0
    4.4364    0.5432    0.4526 C   0  0  0  0  0  0  0  0  0  0  0  0
    4.0337   -1.4799   -0.8053 C   0  0  0  0  0  0  0  0  0  0  0  0
   -2.1829    3.3234   -0.5305 C   0  0  0  0  0  0  0  0  0  0  0  0
    4.9215   -0.5444   -0.2738 C   0  0  0  0  0  0  0  0  0  0  0  0
  1 21  1  0
  2  7  1  0
  2 13  1  0
  3 20  1  0
  4 20  2  0
  5  8  1  0
  5  9  2  0
  5 11  1  0
  6  8  2  0
  6 10  1  0
  6 12  1  0
  7  9  1  0
  7 10  2  0
 11 15  2  0
 11 16  1  0
 12 20  1  0
 13 14  1  0
 14 17  1  0
 15 18  1  0
 16 19  2  0
 18 21  2  0
 19 21  1  0
M  END
>  <PUBCHEM_COMPOUND_CID>  (1) 
43850

>  <PUBCHEM_CONFORMER_RMSD>  (1) 
0.8

>  <PUBCHEM_CONFORMER_DIVERSEORDER>  (1) 
1
9
24
19
20
17
5
31
8
22
14
13
10
33
7
2
27
3
29
21
26
12
15
4
30
28
11
23
32
25
18
16
6

>  <PUBCHEM_MMFF94_PARTIAL_CHARGES>  (1) 
25
1 -0.18
10 -0.15
12 0.2
13 0.28
15 -0.15
16 -0.15
18 -0.15
19 -0.15
2 -0.36
20 0.66
21 0.18
22 0.15
23 0.15
24 0.15
3 -0.65
31 0.15
32 0.15
36 0.15
37 0.15
38 0.5
4 -0.57
6 -0.14
7 0.08
8 -0.15
9 -0.15

>  <PUBCHEM_EFFECTIVE_ROTOR_COUNT>  (1) 
6

>  <PUBCHEM_PHARMACOPHORE_FEATURES>  (1) 
7
1 17 hydrophobe
1 2 acceptor
1 3 acceptor
1 4 acceptor
3 3 4 20 anion
6 11 15 16 18 19 21 rings
6 5 6 7 8 9 10 rings

>  <PUBCHEM_HEAVY_ATOM_COUNT>  (1) 
21

>  <PUBCHEM_ATOM_DEF_STEREO_COUNT>  (1) 
0

>  <PUBCHEM_ATOM_UDEF_STEREO_COUNT>  (1) 
0

>  <PUBCHEM_BOND_DEF_STEREO_COUNT>  (1) 
0

>  <PUBCHEM_BOND_UDEF_STEREO_COUNT>  (1) 
0

>  <PUBCHEM_ISOTOPIC_ATOM_COUNT>  (1) 
0

>  <PUBCHEM_COMPONENT_COUNT>  (1) 
1

>  <PUBCHEM_CACTVS_TAUTO_COUNT>  (1) 
1

>  <PUBCHEM_CONFORMER_ID>  (1) 
0000AB4A00000001

>  <PUBCHEM_MMFF94_ENERGY>  (1) 
58.512

>  <PUBCHEM_FEATURE_SELFOVERLAP>  (1) 
35.579

>  <PUBCHEM_SHAPE_FINGERPRINT>  (1) 
10411042 1 18266743661214539027
11045515 52 18337106899391536623
11101153 10 18190754209728166980
11265709 11 18339367490861047067
11386260 185 17905583835067128583
11809386 21 18335137558165915954
12403259 226 18343300409577877016
12500047 106 18264774247047514768
12730499 353 17614853907475459945
12788726 201 18261103084690742147
13540713 4 18130779054509886712
13590594 115 18337115687448343841
13899415 180 18196073668125731247
14347332 77 18409726253550805690
14508225 48 18337388357009010749
14556957 393 18115604758215551316
15878777 1 14717991723005737929
16087824 20 18410294667657208193
17357779 13 18269260404622649447
17539 30 18410852153536249861
17980427 26 16477998436724118969
1813 80 18126864895856777871
19427546 20 18408611344375096156
20238998 120 18270115855114073681
20645477 56 18265343815350588040
21285901 2 18272657886672996679
21307412 95 17482006531946598862
21426921 1 18410014312500786808
21478907 32 18411699894049596939
21641784 216 18189069727195249372
23402539 116 18342176704204533151
23419403 2 17559656508094193929
23557571 272 18408603690448033974
23559900 14 18343016684191245040
266924 87 18409725123832157343
283562 15 18407758148768616915
2871803 45 18338516443049497426
5104073 3 18131352973889066098
57262259 84 18410006659185570165
58779409 54 18410569553088158009
58779409 8 18193556666770916061
5969126 39 18341044202879852118
59755656 520 18117838802513160173
68521 5 18409165532531845547
7164475 11 18408610283470707788
7399639 24 18129087004613981656
77188 2 18194966472885728473
81228 2 18334867138070515249
9709674 26 18129388090290267238

>  <PUBCHEM_SHAPE_MULTIPOLES>  (1) 
416.43
11.32
4.51
0.99
10.44
3.88
-0.17
-9.8
-2.83
-9.51
-1.41
-0.3
0.29
0.57

>  <PUBCHEM_SHAPE_SELFOVERLAP>  (1) 
873.21

>  <PUBCHEM_SHAPE_VOLUME>  (1) 
237.4

>  <PUBCHEM_COORDINATE_TYPE>  (1) 
2
5
10

$$$$
