43851
     RDKit          3D

 15 14  0  0  1  0  0  0  0  0999 V2000
   -2.0348   -0.5305   -0.9308 O   0  0  0  0  0  0  0  0  0  0  0  0
   -1.7082   -1.4115    1.1824 O   0  0  0  0  0  0  0  0  0  0  0  0
   -1.8429    0.7915   -0.4217 C   0  0  0  0  0  0  0  0  0  0  0  0
   -0.4065    0.9068    0.1382 C   0  0  0  0  0  0  0  0  0  0  0  0
    0.6921    0.6739   -0.9091 C   0  0  0  0  0  0  0  0  0  0  0  0
   -2.0249    1.7643   -1.5934 C   0  0  0  0  0  0  0  0  0  0  0  0
    2.0576    0.8809   -0.3140 C   0  0  0  0  0  0  0  0  0  0  0  0
   -2.8745    1.1075    0.6407 C   0  0  0  0  0  0  0  0  0  0  0  0
    2.8644   -0.0579    0.2174 C   0  0  0  0  0  0  0  0  0  0  0  0
    4.2451    0.2188    0.7655 C   0  0  0  0  0  0  0  0  0  0  0  0
    2.4295   -1.4990    0.2611 C   0  0  0  0  0  0  0  0  0  0  0  0
   -1.9385   -1.5313   -0.0124 C   0  0  0  0  0  0  0  0  0  0  0  0
   -2.6314    1.4695    1.9066 C   0  0  0  0  0  0  0  0  0  0  0  0
    5.3256    0.0803   -0.2970 C   0  0  0  0  0  0  0  0  0  0  0  0
   -2.1525   -2.8634   -0.6335 C   0  0  0  0  0  0  0  0  0  0  0  0
  1  3  1  0
  1 12  1  0
  2 12  2  0
  3  4  1  0
  3  6  1  0
  3  8  1  0
  4  5  1  0
  5  7  1  0
  7  9  2  0
  8 13  2  0
  9 10  1  0
  9 11  1  0
 10 14  1  0
 12 15  1  0
M  END
>  <PUBCHEM_COMPOUND_CID>  (1) 
43851

>  <PUBCHEM_CONFORMER_RMSD>  (1) 
0.8

>  <PUBCHEM_CONFORMER_DIVERSEORDER>  (1) 
1
72
55
43
52
42
66
18
68
60
23
74
57
8
69
44
30
12
63
38
65
4
27
51
10
70
37
49
16
26
61
45
17
35
50
53
28
77
76
64
14
21
36
40
47
56
58
20
41
75
46
19
9
71
7
13
34
24
11
5
48
25
29
15
31
39
67
6
62
33
73
54
3
32
22
59
2

>  <PUBCHEM_MMFF94_PARTIAL_CHARGES>  (1) 
16
1 -0.43
10 0.14
11 0.14
12 0.66
13 -0.3
15 0.06
2 -0.57
23 0.15
24 0.15
3 0.42
30 0.15
31 0.15
5 0.14
7 -0.29
8 -0.29
9 -0.28

>  <PUBCHEM_EFFECTIVE_ROTOR_COUNT>  (1) 
7

>  <PUBCHEM_PHARMACOPHORE_FEATURES>  (1) 
4
1 11 hydrophobe
1 13 hydrophobe
1 14 hydrophobe
1 2 acceptor

>  <PUBCHEM_HEAVY_ATOM_COUNT>  (1) 
15

>  <PUBCHEM_ATOM_DEF_STEREO_COUNT>  (1) 
0

>  <PUBCHEM_ATOM_UDEF_STEREO_COUNT>  (1) 
0

>  <PUBCHEM_BOND_DEF_STEREO_COUNT>  (1) 
0

>  <PUBCHEM_BOND_UDEF_STEREO_COUNT>  (1) 
1

>  <PUBCHEM_ISOTOPIC_ATOM_COUNT>  (1) 
0

>  <PUBCHEM_COMPONENT_COUNT>  (1) 
1

>  <PUBCHEM_CACTVS_TAUTO_COUNT>  (1) 
1

>  <PUBCHEM_CONFORMER_ID>  (1) 
0000AB4B00000001

>  <PUBCHEM_MMFF94_ENERGY>  (1) 
26.9561

>  <PUBCHEM_FEATURE_SELFOVERLAP>  (1) 
20.297

>  <PUBCHEM_SHAPE_FINGERPRINT>  (1) 
10366900 7 17846203441796881096
10680689 15 18040435473789484556
11132069 177 18261664918537728024
12251169 10 18412552006628199776
12382932 28 18410572855902100040
12500047 106 18264193751926024540
12932764 1 18186519895548597628
13024252 1 15574712491591859757
13032168 30 18265048209904989490
13214271 11 16805325453004056972
14445660 50 18412548695603969056
14577589 140 17749667381175992172
19433438 48 18334853931198924154
20281475 54 18335135385048873198
20645477 56 18187358779649379140
21339142 149 17846208947702159905
23402539 116 17989199352958465149
23419403 2 17555141986591718917
23557571 272 18129946792146694150
23559900 14 18267005336218006604
2748010 2 17755583737328235453
3086196 2 18200591530932984715
57265010 4 18202282502686389280
69090 78 18335414634784183653

>  <PUBCHEM_SHAPE_MULTIPOLES>  (1) 
296.95
7.63
2.24
1.33
11.73
1.67
-0.18
-0.47
-1.01
-2.47
0.21
-1.12
-0.56
-0.45

>  <PUBCHEM_SHAPE_SELFOVERLAP>  (1) 
568.096

>  <PUBCHEM_SHAPE_VOLUME>  (1) 
181.8

>  <PUBCHEM_COORDINATE_TYPE>  (1) 
2
5
10

$$$$
