43867
     RDKit          3D

 11 10  0  0  1  0  0  0  0  0999 V2000
    1.9031   -0.7375   -0.3419 C   0  0  0  0  0  0  0  0  0  0  0  0
    0.4989   -1.1394    0.1674 C   0  0  0  0  0  0  0  0  0  0  0  0
    2.2195    0.7790   -0.1985 C   0  0  0  0  0  0  0  0  0  0  0  0
   -0.6413   -0.3006   -0.4203 C   0  0  0  0  0  0  0  0  0  0  0  0
   -1.9974   -0.7437    0.1404 C   0  0  0  0  0  0  0  0  0  0  0  0
   -3.1768    0.1104   -0.3605 C   0  0  0  0  0  0  0  0  0  0  0  0
    2.9461   -1.6397    0.3334 C   0  0  0  0  0  0  0  0  0  0  0  0
    3.6006    1.1327   -0.7633 C   0  0  0  0  0  0  0  0  0  0  0  0
    2.1027    1.3052    1.2345 C   0  0  0  0  0  0  0  0  0  0  0  0
   -2.9385    1.5809   -0.0085 C   0  0  0  0  0  0  0  0  0  0  0  0
   -4.5168   -0.3473    0.2172 C   0  0  0  0  0  0  0  0  0  0  0  0
  1  2  1  0
  1  3  1  0
  1  7  1  0
  2  4  1  0
  3  8  1  0
  3  9  1  0
  4  5  1  0
  5  6  1  0
  6 10  1  0
  6 11  1  0
M  END
>  <PUBCHEM_COMPOUND_CID>  (1) 
43867

>  <PUBCHEM_CONFORMER_RMSD>  (1) 
0.6

>  <PUBCHEM_CONFORMER_DIVERSEORDER>  (1) 
1
29
31
5
35
22
8
7
32
24
14
13
30
19
12
23
27
3
28
33
34
21
17
2
25
10
20
9
16
18
4
6
26
11
15

>  <PUBCHEM_MMFF94_PARTIAL_CHARGES>  (1) 
0

>  <PUBCHEM_EFFECTIVE_ROTOR_COUNT>  (1) 
5

>  <PUBCHEM_PHARMACOPHORE_FEATURES>  (1) 
5
1 7 hydrophobe
3 1 2 3 hydrophobe
3 3 8 9 hydrophobe
3 4 5 6 hydrophobe
3 6 10 11 hydrophobe

>  <PUBCHEM_HEAVY_ATOM_COUNT>  (1) 
11

>  <PUBCHEM_ATOM_DEF_STEREO_COUNT>  (1) 
0

>  <PUBCHEM_ATOM_UDEF_STEREO_COUNT>  (1) 
1

>  <PUBCHEM_BOND_DEF_STEREO_COUNT>  (1) 
0

>  <PUBCHEM_BOND_UDEF_STEREO_COUNT>  (1) 
0

>  <PUBCHEM_ISOTOPIC_ATOM_COUNT>  (1) 
0

>  <PUBCHEM_COMPONENT_COUNT>  (1) 
1

>  <PUBCHEM_CACTVS_TAUTO_COUNT>  (1) 
1

>  <PUBCHEM_CONFORMER_ID>  (1) 
0000AB5B00000001

>  <PUBCHEM_MMFF94_ENERGY>  (1) 
13.5382

>  <PUBCHEM_FEATURE_SELFOVERLAP>  (1) 
26.392

>  <PUBCHEM_SHAPE_FINGERPRINT>  (1) 
10980938 120 18413388735061060486
11031198 65 18411986892301119430
11715629 250 18130213947733815553
12162725 195 18411981317407117335
12932764 1 18060133271397118087
13922767 16 18341322293522508098
14325111 11 18408323272270524959
14390081 3 18413103970339809173
15775835 57 18343304798617552949
170605 34 18114181960204527298
17802600 8 18341041930973949561
18186145 218 18260829246302623975
20233049 118 18272653454799282384
20279233 1 8358261445056658865
20559304 39 18201718414571980594
20645477 70 18409446955879882095
20671657 1 18408604786065393668
20711983 171 18202004283374133573
21119208 17 15841561785629896309
212847 35 18341050727098750297
22485316 2 10015578394093813335
23402655 69 18271805701074135509
3060560 45 17418098736687853980
3248919 1 18040989678624930199
449060 50 18041284360741951981
449060 62 18410296929801641717
6333272 397 18040720315608838699

>  <PUBCHEM_SHAPE_MULTIPOLES>  (1) 
226.37
7.74
1.65
0.87
5.3
0.12
-0.12
1.06
0.24
-0.91
-0.18
-0.47
0.21
-0.06

>  <PUBCHEM_SHAPE_SELFOVERLAP>  (1) 
405.633

>  <PUBCHEM_SHAPE_VOLUME>  (1) 
149.7

>  <PUBCHEM_COORDINATE_TYPE>  (1) 
2
5
10

$$$$
