43868
     RDKit          3D

 18 17  0  0  0  0  0  0  0  0999 V2000
   -8.9824    1.8727   -0.8770 Cl  0  0  0  0  0  0  0  0  0  0  0  0
    0.4651   -0.4177   -0.4050 C   0  0  0  0  0  0  0  0  0  0  0  0
   -0.8173   -0.0446    0.3414 C   0  0  0  0  0  0  0  0  0  0  0  0
    1.7405    0.0524    0.3012 C   0  0  0  0  0  0  0  0  0  0  0  0
   -2.0568   -0.5666   -0.3904 C   0  0  0  0  0  0  0  0  0  0  0  0
    3.0584   -0.3144   -0.3899 C   0  0  0  0  0  0  0  0  0  0  0  0
   -3.3363   -0.2200    0.3739 C   0  0  0  0  0  0  0  0  0  0  0  0
    4.2925    0.2354    0.3297 C   0  0  0  0  0  0  0  0  0  0  0  0
   -4.6103   -0.7248   -0.3101 C   0  0  0  0  0  0  0  0  0  0  0  0
    5.6118   -0.1233   -0.3639 C   0  0  0  0  0  0  0  0  0  0  0  0
   -5.9261   -0.3648    0.3873 C   0  0  0  0  0  0  0  0  0  0  0  0
    6.8477    0.3605    0.3996 C   0  0  0  0  0  0  0  0  0  0  0  0
   -7.2018   -0.8063   -0.3369 C   0  0  0  0  0  0  0  0  0  0  0  0
    8.1669    0.0036   -0.2932 C   0  0  0  0  0  0  0  0  0  0  0  0
   -8.5159   -0.5135    0.3973 C   0  0  0  0  0  0  0  0  0  0  0  0
    9.4047    0.4605    0.4800 C   0  0  0  0  0  0  0  0  0  0  0  0
   -8.8228    0.9611    0.6412 C   0  0  0  0  0  0  0  0  0  0  0  0
   10.6822    0.1497   -0.2853 C   0  0  0  0  0  0  0  0  0  0  0  0
  1 17  1  0
  2  3  1  0
  2  4  1  0
  3  5  1  0
  4  6  1  0
  5  7  1  0
  6  8  1  0
  7  9  1  0
  8 10  1  0
  9 11  1  0
 10 12  1  0
 11 13  1  0
 12 14  1  0
 13 15  1  0
 14 16  1  0
 15 17  1  0
 16 18  1  0
M  END
>  <PUBCHEM_COMPOUND_CID>  (1) 
43868

>  <PUBCHEM_CONFORMER_RMSD>  (1) 
1.4

>  <PUBCHEM_CONFORMER_DIVERSEORDER>  (1) 
1
17
52
46
3
22
55
41
77
81
85
16
87
40
29
45
47
84
64
13
5
7
71
58
54
69
32
6
26
14
19
82
31
86
67
48
51
11
88
20
35
57
65
4
68
25
73
8
72
83
38
89
49
27
10
76
74
42
63
18
12
61
15
50
78
53
60
37
56
36
39
33
44
66
59
70
75
24
80
43
23
2
34
28
21
62
9
79
30

>  <PUBCHEM_MMFF94_PARTIAL_CHARGES>  (1) 
2
1 -0.29
17 0.29

>  <PUBCHEM_EFFECTIVE_ROTOR_COUNT>  (1) 
15

>  <PUBCHEM_PHARMACOPHORE_FEATURES>  (1) 
1
1 18 hydrophobe

>  <PUBCHEM_HEAVY_ATOM_COUNT>  (1) 
18

>  <PUBCHEM_ATOM_DEF_STEREO_COUNT>  (1) 
0

>  <PUBCHEM_ATOM_UDEF_STEREO_COUNT>  (1) 
0

>  <PUBCHEM_BOND_DEF_STEREO_COUNT>  (1) 
0

>  <PUBCHEM_BOND_UDEF_STEREO_COUNT>  (1) 
0

>  <PUBCHEM_ISOTOPIC_ATOM_COUNT>  (1) 
0

>  <PUBCHEM_COMPONENT_COUNT>  (1) 
1

>  <PUBCHEM_CACTVS_TAUTO_COUNT>  (1) 
1

>  <PUBCHEM_CONFORMER_ID>  (1) 
0000AB5C00000001

>  <PUBCHEM_MMFF94_ENERGY>  (1) 
-2.0451

>  <PUBCHEM_FEATURE_SELFOVERLAP>  (1) 
5.074

>  <PUBCHEM_SHAPE_FINGERPRINT>  (1) 
14123256 10 17988926678021473674
14251764 18 17095240311582561329
14251764 46 18333732425101718842
14344974 52 11239987967881443598
14428016 248 17530972388265842412
15510794 2 18272938232252773374
155225 1 18342176644823856537
16120349 18 13830125114514980298
18335252 98 13479126887612966050
20621476 8 18272932726204198839
21095086 128 11024110945309685844
21362267 20 13984666979272478961
21362267 313 18188202088488718904
232437 2 17989488541153282751
23521765 1 18341895208011013618
23528940 14 15068917395425926625
23581129 1 18409449197646588370
246663 6 12035448333307425827
28498 318 17989490705864012894
33684 2 13901911111821350190
59567204 34 18131072585903461289
67123 10 16128657461882291250
8209 1 17132116853230303114

>  <PUBCHEM_SHAPE_MULTIPOLES>  (1) 
372.3
41.59
1.03
0.81
26.72
0.38
-0.01
10.73
0.25
-2.75
-0.16
-0.45
0.08
0.67

>  <PUBCHEM_SHAPE_SELFOVERLAP>  (1) 
655.757

>  <PUBCHEM_SHAPE_VOLUME>  (1) 
241.9

>  <PUBCHEM_COORDINATE_TYPE>  (1) 
2
5
10

$$$$
