43864
     RDKit          3D

  8  7  0  0  1  0  0  0  0  0999 V2000
   -1.3265   -0.4382   -0.5836 O   0  0  0  0  0  0  0  0  0  0  0  0
   -0.7800    0.9791    1.2304 O   0  0  0  0  0  0  0  0  0  0  0  0
    1.5948   -0.1800    1.2104 O   0  0  0  0  0  0  0  0  0  0  0  0
   -0.3765    0.4714   -0.0394 C   0  0  0  0  0  0  0  0  0  0  0  0
   -0.2828    1.6410   -1.0246 C   0  0  0  0  0  0  0  0  0  0  0  0
    1.0182   -0.1519    0.1216 C   0  0  0  0  0  0  0  0  0  0  0  0
    1.6858   -0.7124   -1.1109 C   0  0  0  0  0  0  0  0  0  0  0  0
   -1.5329   -1.6092    0.1961 C   0  0  0  0  0  0  0  0  0  0  0  0
  1  4  1  0
  1  8  1  0
  2  4  1  0
  3  6  2  0
  4  5  1  0
  4  6  1  0
  6  7  1  0
M  END
>  <PUBCHEM_COMPOUND_CID>  (1) 
43864

>  <PUBCHEM_CONFORMER_RMSD>  (1) 
0.4

>  <PUBCHEM_CONFORMER_DIVERSEORDER>  (1) 
1
20
7
16
21
23
6
15
18
10
19
3
4
13
9
5
11
8
2
14
17
12
22

>  <PUBCHEM_MMFF94_PARTIAL_CHARGES>  (1) 
8
1 -0.56
15 0.4
2 -0.68
3 -0.57
4 0.62
6 0.45
7 0.06
8 0.28

>  <PUBCHEM_EFFECTIVE_ROTOR_COUNT>  (1) 
2

>  <PUBCHEM_PHARMACOPHORE_FEATURES>  (1) 
4
1 1 acceptor
1 2 acceptor
1 2 donor
1 3 acceptor

>  <PUBCHEM_HEAVY_ATOM_COUNT>  (1) 
8

>  <PUBCHEM_ATOM_DEF_STEREO_COUNT>  (1) 
0

>  <PUBCHEM_ATOM_UDEF_STEREO_COUNT>  (1) 
1

>  <PUBCHEM_BOND_DEF_STEREO_COUNT>  (1) 
0

>  <PUBCHEM_BOND_UDEF_STEREO_COUNT>  (1) 
0

>  <PUBCHEM_ISOTOPIC_ATOM_COUNT>  (1) 
0

>  <PUBCHEM_COMPONENT_COUNT>  (1) 
1

>  <PUBCHEM_CACTVS_TAUTO_COUNT>  (1) 
2

>  <PUBCHEM_CONFORMER_ID>  (1) 
0000AB5800000001

>  <PUBCHEM_MMFF94_ENERGY>  (1) 
12.1437

>  <PUBCHEM_FEATURE_SELFOVERLAP>  (1) 
20.344

>  <PUBCHEM_SHAPE_FINGERPRINT>  (1) 
12423570 1 15317352179520525053
137420 1 13076053023997602241
16714656 1 17975724729926271012
21040471 1 17758383089611283308
24536 1 17773864321005095600
29004967 10 17845648295297928563
5943 1 12089308103393482225

>  <PUBCHEM_SHAPE_MULTIPOLES>  (1) 
147.03
1.98
1.55
1.22
0.22
0.35
0.22
-0.94
-0.17
-0.52
-0.31
0.29
0.09
-0.08

>  <PUBCHEM_SHAPE_SELFOVERLAP>  (1) 
272.893

>  <PUBCHEM_SHAPE_VOLUME>  (1) 
93.3

>  <PUBCHEM_COORDINATE_TYPE>  (1) 
2
5
10

$$$$
