43860
     RDKit          3D

 27 30  0  0  1  0  0  0  0  0999 V2000
    3.8997    2.3484    0.1410 P   0  0  0  0  0  0  0  0  0  0  0  0
    1.6159   -1.1905    1.0840 O   0  0  0  0  0  0  0  0  0  0  0  0
    0.6471   -3.7099   -1.2896 O   0  0  0  0  0  0  0  0  0  0  0  0
    2.8990   -3.8207    0.2276 O   0  0  0  0  0  0  0  0  0  0  0  0
    3.4589    0.8807    0.6637 O   0  0  0  0  0  0  0  0  0  0  0  0
    2.8160    2.6871   -1.0105 O   0  0  0  0  0  0  0  0  0  0  0  0
    5.2491    2.0437   -0.6964 O   0  0  0  0  0  0  0  0  0  0  0  0
    4.0409    3.3874    1.2147 O   0  0  0  0  0  0  0  0  0  0  0  0
   -0.6332   -1.2923    0.3349 N   0  0  0  0  0  0  0  0  0  0  0  0
    0.2051    0.9965   -0.0411 N   0  0  0  0  0  0  0  0  0  0  0  0
   -4.0023    1.6174   -0.1834 N   0  0  0  0  0  0  0  0  0  0  0  0
   -4.8011    0.4759    0.0011 N   0  0  0  0  0  0  0  0  0  0  0  0
   -1.6958    2.5639   -0.3213 N   0  0  0  0  0  0  0  0  0  0  0  0
   -4.9460   -1.8776    0.3948 N   0  0  0  0  0  0  0  0  0  0  0  0
    0.6204   -2.0307    0.4691 C   0  0  0  0  0  0  0  0  0  0  0  0
    1.2135   -2.4909   -0.8539 C   0  0  0  0  0  0  0  0  0  0  0  0
    2.6826   -2.6117   -0.5001 C   0  0  0  0  0  0  0  0  0  0  0  0
    2.8891   -1.4282    0.4400 C   0  0  0  0  0  0  0  0  0  0  0  0
    3.3034   -0.1572   -0.2882 C   0  0  0  0  0  0  0  0  0  0  0  0
   -0.7470    0.0599    0.1076 C   0  0  0  0  0  0  0  0  0  0  0  0
   -1.9020   -1.8614    0.4189 C   0  0  0  0  0  0  0  0  0  0  0  0
   -2.0900    0.3056    0.0544 C   0  0  0  0  0  0  0  0  0  0  0  0
   -2.8243   -0.8555    0.2425 C   0  0  0  0  0  0  0  0  0  0  0  0
   -2.6026    1.5656   -0.1619 C   0  0  0  0  0  0  0  0  0  0  0  0
   -4.2636   -0.7089    0.2046 C   0  0  0  0  0  0  0  0  0  0  0  0
   -0.3728    2.2173   -0.2513 C   0  0  0  0  0  0  0  0  0  0  0  0
   -4.6598    2.8863   -0.4013 C   0  0  0  0  0  0  0  0  0  0  0  0
  1  5  1  0
  1  6  1  0
  1  7  1  0
  1  8  2  0
  2 15  1  0
  2 18  1  0
  3 16  1  0
  4 17  1  0
  5 19  1  0
  9 15  1  0
  9 20  1  0
  9 21  1  0
 10 20  2  0
 10 26  1  0
 11 12  1  0
 11 24  1  0
 11 27  1  0
 12 25  2  0
 13 24  1  0
 13 26  2  0
 14 25  1  0
 15 16  1  0
 16 17  1  0
 17 18  1  0
 18 19  1  0
 20 22  1  0
 21 23  2  0
 22 23  1  0
 22 24  2  0
 23 25  1  0
M  END
>  <PUBCHEM_COMPOUND_CID>  (1) 
43860

>  <PUBCHEM_CONFORMER_RMSD>  (1) 
0.8

>  <PUBCHEM_CONFORMER_DIVERSEORDER>  (1) 
12
37
51
1
42
44
52
21
11
26
36
10
6
49
30
38
17
48
46
27
9
54
7
18
23
2
40
22
43
20
31
28
45
15
16
41
32
35
14
39
5
34
29
13
50
24
8
53
3
47
25
4
33
19

>  <PUBCHEM_MMFF94_PARTIAL_CHARGES>  (1) 
34
1 1.51
10 -0.57
11 -0.43
12 -0.49
13 -0.62
14 -0.85
15 0.54
16 0.28
17 0.28
18 0.28
19 0.28
2 -0.56
20 0.11
21 -0.3
23 -0.09
24 0.41
25 0.59
26 0.47
27 0.37
3 -0.68
34 0.15
35 0.4
36 0.4
37 0.15
4 -0.68
41 0.4
42 0.4
43 0.5
44 0.5
5 -0.55
6 -0.77
7 -0.77
8 -0.7
9 0.05

>  <PUBCHEM_EFFECTIVE_ROTOR_COUNT>  (1) 
5.2

>  <PUBCHEM_PHARMACOPHORE_FEATURES>  (1) 
18
1 14 donor
1 2 acceptor
1 3 acceptor
1 3 donor
1 4 acceptor
1 4 donor
1 6 acceptor
1 7 acceptor
1 8 acceptor
1 9 cation
3 10 13 26 cation
3 11 13 24 cation
3 12 14 25 cation
4 1 6 7 8 anion
5 2 15 16 17 18 rings
5 9 20 21 22 23 rings
6 10 13 20 22 24 26 rings
6 11 12 22 23 24 25 rings

>  <PUBCHEM_HEAVY_ATOM_COUNT>  (1) 
27

>  <PUBCHEM_ATOM_DEF_STEREO_COUNT>  (1) 
4

>  <PUBCHEM_ATOM_UDEF_STEREO_COUNT>  (1) 
0

>  <PUBCHEM_BOND_DEF_STEREO_COUNT>  (1) 
0

>  <PUBCHEM_BOND_UDEF_STEREO_COUNT>  (1) 
0

>  <PUBCHEM_ISOTOPIC_ATOM_COUNT>  (1) 
0

>  <PUBCHEM_COMPONENT_COUNT>  (1) 
1

>  <PUBCHEM_CACTVS_TAUTO_COUNT>  (1) 
2

>  <PUBCHEM_CONFORMER_ID>  (1) 
0000AB540000000C

>  <PUBCHEM_MMFF94_ENERGY>  (1) 
56.0565

>  <PUBCHEM_FEATURE_SELFOVERLAP>  (1) 
91.773

>  <PUBCHEM_SHAPE_FINGERPRINT>  (1) 
10616163 171 18336830895686183385
10871710 139 17835801176908393126
10906281 52 18189350107429721283
1100329 8 17764030164220854201
11112241 14 16483584372036167296
11578080 2 16879046582285710143
12403259 226 17974003947158344990
12422481 6 18262497240065709656
13140716 1 18264497187444708873
138480 1 18122906434974193518
14223421 5 18336265652162034844
14790565 3 18194126441127268369
15196674 1 18408322176837638593
15927050 60 16752980255832701125
15961568 22 18187083978972595421
17492 89 18408886200839540635
17980427 23 18051658141618907810
18681886 176 18270956822543206874
19591789 44 17544764885700210259
19930381 70 18410291414974333104
20691752 17 17023188184668801073
20715895 44 17973430015285388309
22113638 7 17975693110562232500
23227448 37 18411135848610217055
23366157 5 18113902615584466466
23559900 14 18196367031123277218
3298306 158 18342175609045739164
335352 9 17976820883343360743
350125 39 18409448068813897104
5104073 3 18334297526870686065
5265222 85 18121792892274486996
59755656 215 18264204876249685935
7364860 26 18339924797295733716
7808743 9 17907854356057908312
9709674 26 18338235938740293431
9981440 41 18263080075701796266

>  <PUBCHEM_SHAPE_MULTIPOLES>  (1) 
488.53
9.59
4.63
0.86
2.94
0.3
-0.02
-5.23
0.15
-3.64
-0.56
-0.5
0.07
0.91

>  <PUBCHEM_SHAPE_SELFOVERLAP>  (1) 
1056.678

>  <PUBCHEM_SHAPE_VOLUME>  (1) 
270.8

>  <PUBCHEM_COORDINATE_TYPE>  (1) 
2
5
10

$$$$
