43873
     RDKit          3D

 12 11  0  0  0  0  0  0  0  0999 V2000
    4.3738   -0.1257   -0.8364 O   0  0  0  0  0  0  0  0  0  0  0  0
    3.5605    1.4007    0.6429 O   0  0  0  0  0  0  0  0  0  0  0  0
    0.0274   -2.3260    0.0575 O   0  0  0  0  0  0  0  0  0  0  0  0
   -0.3571   -0.2480    0.0521 N   0  0  0  0  0  0  0  0  0  0  0  0
   -0.4512   -1.3958    0.7175 N   0  0  0  0  0  0  0  0  0  0  0  0
   -1.4642    0.6527    0.2173 C   0  0  0  0  0  0  0  0  0  0  0  0
   -2.7952    0.0156   -0.1681 C   0  0  0  0  0  0  0  0  0  0  0  0
   -3.9737    0.9805   -0.0197 C   0  0  0  0  0  0  0  0  0  0  0  0
    0.9174    0.4300    0.3653 C   0  0  0  0  0  0  0  0  0  0  0  0
    2.0590   -0.1910   -0.4341 C   0  0  0  0  0  0  0  0  0  0  0  0
   -5.2772    0.3379   -0.4675 C   0  0  0  0  0  0  0  0  0  0  0  0
    3.3806    0.4689   -0.1267 C   0  0  0  0  0  0  0  0  0  0  0  0
  1 12  1  0
  2 12  2  0
  3  5  2  0
  4  5  1  0
  4  6  1  0
  4  9  1  0
  6  7  1  0
  7  8  1  0
  8 11  1  0
  9 10  1  0
 10 12  1  0
M  END
>  <PUBCHEM_COMPOUND_CID>  (1) 
43873

>  <PUBCHEM_CONFORMER_RMSD>  (1) 
0.8

>  <PUBCHEM_CONFORMER_DIVERSEORDER>  (1) 
1
45
33
16
111
93
15
123
79
121
63
41
32
26
51
78
10
43
24
75
62
100
101
5
114
25
28
19
72
22
66
39
52
67
122
40
69
117
103
64
12
105
94
108
9
109
7
112
55
23
106
27
81
4
56
76
95
104
18
49
8
126
3
87
77
60
99
29
54
48
135
70
30
119
2
88
71
118
131
133
110
86
120
130
61
50
84
6
13
53
129
68
36
74
47
11
90
34
57
115
17
46
96
89
58
116
80
31
42
132
35
14
127
59
82
97
139
102
37
134
92
107
138
137
38
136
128
44
113
124
65
73
21
125
85
91
83
98
20

>  <PUBCHEM_MMFF94_PARTIAL_CHARGES>  (1) 
10
1 -0.65
10 0.06
12 0.66
2 -0.57
26 0.5
3 -0.16
4 -0.36
5 -0.01
6 0.27
9 0.27

>  <PUBCHEM_EFFECTIVE_ROTOR_COUNT>  (1) 
7

>  <PUBCHEM_PHARMACOPHORE_FEATURES>  (1) 
4
1 1 acceptor
1 11 hydrophobe
1 2 acceptor
3 1 2 12 anion

>  <PUBCHEM_HEAVY_ATOM_COUNT>  (1) 
12

>  <PUBCHEM_ATOM_DEF_STEREO_COUNT>  (1) 
0

>  <PUBCHEM_ATOM_UDEF_STEREO_COUNT>  (1) 
0

>  <PUBCHEM_BOND_DEF_STEREO_COUNT>  (1) 
0

>  <PUBCHEM_BOND_UDEF_STEREO_COUNT>  (1) 
0

>  <PUBCHEM_ISOTOPIC_ATOM_COUNT>  (1) 
0

>  <PUBCHEM_COMPONENT_COUNT>  (1) 
1

>  <PUBCHEM_CACTVS_TAUTO_COUNT>  (1) 
1

>  <PUBCHEM_CONFORMER_ID>  (1) 
0000AB6100000001

>  <PUBCHEM_MMFF94_ENERGY>  (1) 
12.3957

>  <PUBCHEM_FEATURE_SELFOVERLAP>  (1) 
20.354

>  <PUBCHEM_SHAPE_FINGERPRINT>  (1) 
10922049 32 18411140238230408063
114248 4 17132111359930292757
12251169 10 12035736422206750632
12346645 44 18410573942761109913
14325111 11 18410012134767686457
14993402 34 18187368735261861940
15048467 5 13118290277958096182
18186145 218 18413384332651237708
187816 3 18202849846175089440
20645477 56 18336545031685711752
20645477 70 17846222103050058982
20671657 53 14117801318782060450
21119208 17 17132114632473845877
21293036 1 18343301466023728417
22218785 32 18412830174553861286
22485316 2 9511462208305456797
23402539 116 18341606036078388476
23402655 69 18060138738695599356
23559900 14 18272652377004811376
3071541 37 18261112915807448586
366044 4 18408041814188996299
4047638 21 18410574002779927712
42 15 11169910572166796997
449060 50 12612761232744428108
4990 188 17988646272206621005
81539 233 17822287942574154851

>  <PUBCHEM_SHAPE_MULTIPOLES>  (1) 
219.38
9.27
1.39
0.75
4.17
0.8
-0.02
-3.28
-1.99
-0.26
0.22
-0.2
-0.01
0.3

>  <PUBCHEM_SHAPE_SELFOVERLAP>  (1) 
408.155

>  <PUBCHEM_SHAPE_VOLUME>  (1) 
138.4

>  <PUBCHEM_COORDINATE_TYPE>  (1) 
2
5
10

$$$$
