43874
     RDKit          3D

 13 12  0  0  0  0  0  0  0  0999 V2000
    0.9235   -2.4623    0.0757 O   0  0  0  0  0  0  0  0  0  0  0  0
   -3.4589    1.3993   -0.6513 O   0  0  0  0  0  0  0  0  0  0  0  0
   -3.2555   -0.8559   -0.8302 O   0  0  0  0  0  0  0  0  0  0  0  0
    1.1989   -0.3722    0.2187 N   0  0  0  0  0  0  0  0  0  0  0  0
    1.2505   -1.4448   -0.5470 N   0  0  0  0  0  0  0  0  0  0  0  0
    2.2480    0.6174   -0.0763 C   0  0  0  0  0  0  0  0  0  0  0  0
   -0.1095    0.2718    0.1812 C   0  0  0  0  0  0  0  0  0  0  0  0
    2.1848    1.7260    0.9798 C   0  0  0  0  0  0  0  0  0  0  0  0
    3.6095   -0.0837   -0.0218 C   0  0  0  0  0  0  0  0  0  0  0  0
    2.0139    1.2061   -1.4726 C   0  0  0  0  0  0  0  0  0  0  0  0
   -1.0621   -0.4079    1.1656 C   0  0  0  0  0  0  0  0  0  0  0  0
   -2.4482    0.2295    1.1700 C   0  0  0  0  0  0  0  0  0  0  0  0
   -3.0950    0.1768   -0.1919 C   0  0  0  0  0  0  0  0  0  0  0  0
  1  5  2  0
  2 13  1  0
  3 13  2  0
  4  5  1  0
  4  6  1  0
  4  7  1  0
  6  8  1  0
  6  9  1  0
  6 10  1  0
  7 11  1  0
 11 12  1  0
 12 13  1  0
M  END
>  <PUBCHEM_COMPOUND_CID>  (1) 
43874

>  <PUBCHEM_CONFORMER_RMSD>  (1) 
0.6

>  <PUBCHEM_CONFORMER_DIVERSEORDER>  (1) 
7
67
1
42
57
24
10
31
54
21
28
69
63
61
59
45
53
60
35
3
62
30
22
27
38
43
4
58
19
6
2
8
47
14
70
41
29
13
49
15
17
71
72
44
55
46
26
68
23
66
25
65
73
52
12
50
16
9
51
18
5
33
48
37
56
32
36
11
20
40
64
34
39

>  <PUBCHEM_MMFF94_PARTIAL_CHARGES>  (1) 
10
1 -0.16
12 0.06
13 0.66
2 -0.65
29 0.5
3 -0.57
4 -0.36
5 -0.01
6 0.27
7 0.27

>  <PUBCHEM_EFFECTIVE_ROTOR_COUNT>  (1) 
6

>  <PUBCHEM_PHARMACOPHORE_FEATURES>  (1) 
4
1 2 acceptor
1 3 acceptor
3 2 3 13 anion
4 6 8 9 10 hydrophobe

>  <PUBCHEM_HEAVY_ATOM_COUNT>  (1) 
13

>  <PUBCHEM_ATOM_DEF_STEREO_COUNT>  (1) 
0

>  <PUBCHEM_ATOM_UDEF_STEREO_COUNT>  (1) 
0

>  <PUBCHEM_BOND_DEF_STEREO_COUNT>  (1) 
0

>  <PUBCHEM_BOND_UDEF_STEREO_COUNT>  (1) 
0

>  <PUBCHEM_ISOTOPIC_ATOM_COUNT>  (1) 
0

>  <PUBCHEM_COMPONENT_COUNT>  (1) 
1

>  <PUBCHEM_CACTVS_TAUTO_COUNT>  (1) 
1

>  <PUBCHEM_CONFORMER_ID>  (1) 
0000AB6200000007

>  <PUBCHEM_MMFF94_ENERGY>  (1) 
27.9813

>  <PUBCHEM_FEATURE_SELFOVERLAP>  (1) 
20.355

>  <PUBCHEM_SHAPE_FINGERPRINT>  (1) 
10219947 1 18333453140558218636
12162725 195 17822010938737338685
124424 183 16950559986940293888
12897270 3 18201719565644249985
12932764 1 18272942617556203089
13705890 14 15410907249169720812
15775835 57 18272091608172135509
16945 1 17631472162139173770
17834069 15 13479395172349465137
18186145 218 18059865003360641512
20201158 50 18261394412311372977
20645464 45 17313110739475538697
20653085 51 18117562825838425729
21028194 46 18336831990855241354
21947302 44 17967253070375828691
22485316 2 12823300082954880281
230 275 17821728329715084657
23402539 116 17749382719992872211
23557571 272 17604160306549011051
2748010 2 18054802942241960346
3248919 1 17894632573676663825
8030462 33 18129955498219054377
81228 2 17402904808694710706

>  <PUBCHEM_SHAPE_MULTIPOLES>  (1) 
239.96
5.95
1.69
1.18
2.84
0.64
-0.01
-1.38
-0.89
-0.61
-0.11
0.11
-0.31
0.16

>  <PUBCHEM_SHAPE_SELFOVERLAP>  (1) 
458.456

>  <PUBCHEM_SHAPE_VOLUME>  (1) 
149.5

>  <PUBCHEM_COORDINATE_TYPE>  (1) 
2
5
10

$$$$
