43877
     RDKit          3D

 27 29  0  0  0  0  0  0  0  0999 V2000
   -4.9565   -2.7105    1.0224 F   0  0  0  0  0  0  0  0  0  0  0  0
   -5.9972   -1.1162   -0.0165 F   0  0  0  0  0  0  0  0  0  0  0  0
   -4.9499   -2.6473   -1.1512 F   0  0  0  0  0  0  0  0  0  0  0  0
    4.9605   -2.6595   -1.2145 F   0  0  0  0  0  0  0  0  0  0  0  0
    6.0023   -1.1203   -0.0966 F   0  0  0  0  0  0  0  0  0  0  0  0
    4.9539   -2.7059    0.9595 F   0  0  0  0  0  0  0  0  0  0  0  0
   -0.1822    2.0439    2.3630 O   0  0  0  0  0  0  0  0  0  0  0  0
    0.1094    4.6238   -1.4019 O   0  0  0  0  0  0  0  0  0  0  0  0
    0.0704    2.3097   -1.0903 N   0  0  0  0  0  0  0  0  0  0  0  0
   -0.0257    3.6284    0.6915 N   0  0  0  0  0  0  0  0  0  0  0  0
    0.0018    1.3425    0.0054 C   0  0  0  0  0  0  0  0  0  0  0  0
   -1.2784    0.4986   -0.0064 C   0  0  0  0  0  0  0  0  0  0  0  0
    1.2802    0.4990   -0.0253 C   0  0  0  0  0  0  0  0  0  0  0  0
   -0.0777    2.3460    1.1801 C   0  0  0  0  0  0  0  0  0  0  0  0
    0.0579    3.6394   -0.6777 C   0  0  0  0  0  0  0  0  0  0  0  0
   -1.5204   -0.4156    1.0188 C   0  0  0  0  0  0  0  0  0  0  0  0
    1.5259   -0.3654   -1.0953 C   0  0  0  0  0  0  0  0  0  0  0  0
   -2.2005    0.6444   -1.0428 C   0  0  0  0  0  0  0  0  0  0  0  0
    2.2066    0.5890    1.0171 C   0  0  0  0  0  0  0  0  0  0  0  0
   -2.6845   -1.1840    1.0076 C   0  0  0  0  0  0  0  0  0  0  0  0
    2.6894   -1.1342   -1.1229 C   0  0  0  0  0  0  0  0  0  0  0  0
   -3.3646   -0.1239   -1.0541 C   0  0  0  0  0  0  0  0  0  0  0  0
    3.3703   -0.1796    0.9896 C   0  0  0  0  0  0  0  0  0  0  0  0
   -3.6067   -1.0382   -0.0287 C   0  0  0  0  0  0  0  0  0  0  0  0
    3.6117   -1.0414   -0.0805 C   0  0  0  0  0  0  0  0  0  0  0  0
   -4.8516   -1.8595   -0.0410 C   0  0  0  0  0  0  0  0  0  0  0  0
    4.8560   -1.8631   -0.1096 C   0  0  0  0  0  0  0  0  0  0  0  0
  1 26  1  0
  2 26  1  0
  3 26  1  0
  4 27  1  0
  5 27  1  0
  6 27  1  0
  7 14  2  0
  8 15  2  0
  9 11  1  0
  9 15  1  0
 10 14  1  0
 10 15  1  0
 11 12  1  0
 11 13  1  0
 11 14  1  0
 12 16  2  0
 12 18  1  0
 13 17  2  0
 13 19  1  0
 16 20  1  0
 17 21  1  0
 18 22  2  0
 19 23  2  0
 20 24  2  0
 21 25  2  0
 22 24  1  0
 23 25  1  0
 24 26  1  0
 25 27  1  0
M  END
>  <PUBCHEM_COMPOUND_CID>  (1) 
43877

>  <PUBCHEM_CONFORMER_RMSD>  (1) 
0.8

>  <PUBCHEM_CONFORMER_DIVERSEORDER>  (1) 
1
2

>  <PUBCHEM_MMFF94_PARTIAL_CHARGES>  (1) 
37
1 -0.34
10 -0.49
11 0.65
12 -0.14
13 -0.14
14 0.57
15 0.69
16 -0.15
17 -0.15
18 -0.15
19 -0.15
2 -0.34
20 -0.15
21 -0.15
22 -0.15
23 -0.15
24 -0.14
25 -0.14
26 1.16
27 1.16
28 0.37
29 0.37
3 -0.34
30 0.15
31 0.15
32 0.15
33 0.15
34 0.15
35 0.15
36 0.15
37 0.15
4 -0.34
5 -0.34
6 -0.34
7 -0.57
8 -0.57
9 -0.73

>  <PUBCHEM_EFFECTIVE_ROTOR_COUNT>  (1) 
4.6

>  <PUBCHEM_PHARMACOPHORE_FEATURES>  (1) 
7
1 10 donor
1 7 acceptor
1 8 acceptor
1 9 donor
5 9 10 11 14 15 rings
6 12 16 18 20 22 24 rings
6 13 17 19 21 23 25 rings

>  <PUBCHEM_HEAVY_ATOM_COUNT>  (1) 
27

>  <PUBCHEM_ATOM_DEF_STEREO_COUNT>  (1) 
0

>  <PUBCHEM_ATOM_UDEF_STEREO_COUNT>  (1) 
0

>  <PUBCHEM_BOND_DEF_STEREO_COUNT>  (1) 
0

>  <PUBCHEM_BOND_UDEF_STEREO_COUNT>  (1) 
0

>  <PUBCHEM_ISOTOPIC_ATOM_COUNT>  (1) 
0

>  <PUBCHEM_COMPONENT_COUNT>  (1) 
1

>  <PUBCHEM_CACTVS_TAUTO_COUNT>  (1) 
5

>  <PUBCHEM_CONFORMER_ID>  (1) 
0000AB6500000001

>  <PUBCHEM_MMFF94_ENERGY>  (1) 
61.4286

>  <PUBCHEM_FEATURE_SELFOVERLAP>  (1) 
35.596

>  <PUBCHEM_SHAPE_FINGERPRINT>  (1) 
10721379 63 18119549849002358629
11045515 52 18260550000224536308
11101153 10 18335151886725292364
11265709 11 18411144627481028913
11405975 8 18268433611261365227
11488393 25 17826246369091524416
11578080 2 15073065855821458500
11763715 3 18117301197911073140
11809386 21 18120089473468377914
12107183 9 18342470218786328259
12363563 72 18409736161591646230
12516196 113 18409166636254323750
12633257 1 15267337448477788859
12788726 201 17971184824924919593
13004483 165 18411695470058877238
13103583 49 17704084988122220011
13134695 92 18059568165650202321
13533116 47 18052821631559722147
13544653 18 18342175583069862720
13631057 29 18338235960684803906
13681431 1 18337115686320176436
13899415 180 18338221739430421415
13911987 19 17537749924517540012
13955234 65 17978517764845501553
14341114 328 14979953713438390842
14866123 147 18267022744226457145
15878777 1 12011600668709294992
17492 89 18122345942075030991
17539 30 18263922133588236325
1813 80 18341907297869224500
19784866 34 8862951575841329319
20775438 99 17541087006500578203
20832881 197 18335424582355904291
21120745 212 18269295498996435276
21304303 282 17396952709761158236
23419403 2 18057862758369414921
23526113 38 18042124413390348857
23559900 14 18190172572318636663
255183 313 17907311957064251073
283562 15 18264209123740486658
3027735 51 18123466073001849891
314194 84 18340770467429206679
3380486 145 17701222980587433580
3421961 26 18341330110188848633
463206 1 18334294296808327027
5104073 3 17988073384316315674
59755656 520 17478893788204548776
633830 44 8142096350665219081
6442390 28 10087639329685278573
6669772 16 17762350506287066332
70251023 43 18408888404304703394
77188 2 18410575110481193580
7970288 3 18411136935111284062
81228 2 18195819469985332753
9709674 26 18118121613921233355

>  <PUBCHEM_SHAPE_MULTIPOLES>  (1) 
490.3
10.57
4.2
1.43
0.07
4.36
0.26
-15.25
-0.63
0.05
-0.7
0
0.48
0.47

>  <PUBCHEM_SHAPE_SELFOVERLAP>  (1) 
1085.492

>  <PUBCHEM_SHAPE_VOLUME>  (1) 
263.8

>  <PUBCHEM_COORDINATE_TYPE>  (1) 
2
5
10

$$$$
