43880
     RDKit          3D

 14 14  0  0  0  0  0  0  0  0999 V2000
    1.4830    2.8852    0.0002 Cl  0  0  0  0  0  0  0  0  0  0  0  0
    4.9469   -1.2324   -0.0028 Cl  0  0  0  0  0  0  0  0  0  0  0  0
   -4.0132   -1.5808   -0.0001 O   0  0  0  0  0  0  0  0  0  0  0  0
   -1.6743   -0.1293    0.0003 N   0  0  0  0  0  0  0  0  0  0  0  0
   -2.8946    0.4529   -0.0001 N   0  0  0  0  0  0  0  0  0  0  0  0
   -5.1890    0.3920   -0.0013 N   0  0  0  0  0  0  0  0  0  0  0  0
    0.6949    0.2740    0.0007 C   0  0  0  0  0  0  0  0  0  0  0  0
    1.7557    1.1798   -0.0001 C   0  0  0  0  0  0  0  0  0  0  0  0
    0.9490   -1.0975    0.0016 C   0  0  0  0  0  0  0  0  0  0  0  0
    3.0705    0.7140   -0.0001 C   0  0  0  0  0  0  0  0  0  0  0  0
    2.2639   -1.5634    0.0013 C   0  0  0  0  0  0  0  0  0  0  0  0
    3.3247   -0.6575    0.0005 C   0  0  0  0  0  0  0  0  0  0  0  0
   -0.6951    0.7135    0.0004 C   0  0  0  0  0  0  0  0  0  0  0  0
   -4.0226   -0.3507   -0.0003 C   0  0  0  0  0  0  0  0  0  0  0  0
  1  8  1  0
  2 12  1  0
  3 14  2  0
  4  5  1  0
  4 13  2  0
  5 14  1  0
  6 14  1  0
  7  8  2  0
  7  9  1  0
  7 13  1  0
  8 10  1  0
  9 11  2  0
 10 12  2  0
 11 12  1  0
M  END
>  <PUBCHEM_COMPOUND_CID>  (1) 
43880

>  <PUBCHEM_CONFORMER_RMSD>  (1) 
0.6

>  <PUBCHEM_CONFORMER_DIVERSEORDER>  (1) 
1
4
3
2

>  <PUBCHEM_MMFF94_PARTIAL_CHARGES>  (1) 
21
1 -0.18
10 -0.15
11 -0.15
12 0.18
13 0.3
14 0.69
15 0.15
16 0.15
17 0.15
18 0.06
19 0.37
2 -0.18
20 0.37
21 0.37
3 -0.57
4 -0.51
5 -0.37
6 -0.8
7 0.09
8 0.18
9 -0.15

>  <PUBCHEM_EFFECTIVE_ROTOR_COUNT>  (1) 
3

>  <PUBCHEM_PHARMACOPHORE_FEATURES>  (1) 
5
1 3 acceptor
1 4 acceptor
1 5 donor
1 6 donor
6 7 8 9 10 11 12 rings

>  <PUBCHEM_HEAVY_ATOM_COUNT>  (1) 
14

>  <PUBCHEM_ATOM_DEF_STEREO_COUNT>  (1) 
0

>  <PUBCHEM_ATOM_UDEF_STEREO_COUNT>  (1) 
0

>  <PUBCHEM_BOND_DEF_STEREO_COUNT>  (1) 
0

>  <PUBCHEM_BOND_UDEF_STEREO_COUNT>  (1) 
1

>  <PUBCHEM_ISOTOPIC_ATOM_COUNT>  (1) 
0

>  <PUBCHEM_COMPONENT_COUNT>  (1) 
1

>  <PUBCHEM_CACTVS_TAUTO_COUNT>  (1) 
3

>  <PUBCHEM_CONFORMER_ID>  (1) 
0000AB6800000001

>  <PUBCHEM_MMFF94_ENERGY>  (1) 
31.5435

>  <PUBCHEM_FEATURE_SELFOVERLAP>  (1) 
25.429

>  <PUBCHEM_SHAPE_FINGERPRINT>  (1) 
11471102 20 18410291427948639412
11806522 49 18410012130826198922
12032990 46 18339925918377169502
13690532 89 18411138013584976802
13862211 1 18409726227997221170
14251717 144 18410293622618879358
14252887 29 17989211400220489006
15196674 1 18410855503268102595
15242439 84 18113334202754281055
15477762 27 18411419514178341566
15501101 241 18260266369094835980
18186145 218 17676479579916749419
200 152 18201717349588746787
20606313 2 18409449206500331980
20645477 70 18412261740270159343
20671657 1 18267870660332309524
20871998 22 18128261090882164518
21267235 1 18411991234170391503
221490 88 18263651829805449811
22485316 2 18410008840913022127
22959321 4 18339361980359587563
23402539 116 18341887459552479638
23402655 69 18410573981167785357
23559900 14 18411132571502684441
26918003 58 18342455928791992979
4214541 1 18410856543298833313
5104073 3 18411983602445874723
7364860 26 18341331209985670160
77779 3 18410294744180187617
9709674 26 18190745426118983331

>  <PUBCHEM_SHAPE_MULTIPOLES>  (1) 
271.04
9.33
2.08
0.6
9.19
1.35
0
-3.78
0.01
-1.41
0
-0.11
0.01
0

>  <PUBCHEM_SHAPE_SELFOVERLAP>  (1) 
544.508

>  <PUBCHEM_SHAPE_VOLUME>  (1) 
160.6

>  <PUBCHEM_COORDINATE_TYPE>  (1) 
2
5
10

$$$$
