43884
     RDKit          3D

 24 24  0  0  0  0  0  0  0  0999 V2000
   -0.6526    1.5190   -1.8204 O   0  0  0  0  0  0  0  0  0  0  0  0
   -1.6609   -1.7197    1.6697 O   0  0  0  0  0  0  0  0  0  0  0  0
    3.2604    3.0396    0.2363 N   0  0  0  0  0  0  0  0  0  0  0  0
    2.1617   -3.5247   -0.1213 N   0  0  0  0  0  0  0  0  0  0  0  0
   -0.0206    1.1733    0.3846 N   0  0  0  0  0  0  0  0  0  0  0  0
   -1.1290   -1.7885   -0.5862 N   0  0  0  0  0  0  0  0  0  0  0  0
    1.7566    2.8653    0.3931 C   0  0  0  0  0  0  0  0  0  0  0  0
    1.2376   -2.3713   -0.2513 C   0  0  0  0  0  0  0  0  0  0  0  0
    3.6828    2.5778   -1.1510 C   0  0  0  0  0  0  0  0  0  0  0  0
    3.6221    4.5071    0.4147 C   0  0  0  0  0  0  0  0  0  0  0  0
    3.9800    2.2082    1.2885 C   0  0  0  0  0  0  0  0  0  0  0  0
    1.7573   -4.4174    1.0603 C   0  0  0  0  0  0  0  0  0  0  0  0
    2.1457   -4.3825   -1.3942 C   0  0  0  0  0  0  0  0  0  0  0  0
    3.6015   -3.0467    0.1134 C   0  0  0  0  0  0  0  0  0  0  0  0
    1.3855    1.4069    0.1985 C   0  0  0  0  0  0  0  0  0  0  0  0
   -0.1738   -2.8696   -0.5004 C   0  0  0  0  0  0  0  0  0  0  0  0
   -0.9383    1.2497   -0.6566 C   0  0  0  0  0  0  0  0  0  0  0  0
   -1.8180   -1.2787    0.5189 C   0  0  0  0  0  0  0  0  0  0  0  0
   -2.3587    1.0073   -0.2955 C   0  0  0  0  0  0  0  0  0  0  0  0
   -2.7675   -0.2030    0.2650 C   0  0  0  0  0  0  0  0  0  0  0  0
   -3.2909    2.0188   -0.5266 C   0  0  0  0  0  0  0  0  0  0  0  0
   -4.1084   -0.4013    0.5945 C   0  0  0  0  0  0  0  0  0  0  0  0
   -4.6318    1.8203   -0.1972 C   0  0  0  0  0  0  0  0  0  0  0  0
   -5.0405    0.6103    0.3632 C   0  0  0  0  0  0  0  0  0  0  0  0
  1 17  2  0
  2 18  2  0
  3  7  1  0
  3  9  1  0
  3 10  1  0
  3 11  1  0
  4  8  1  0
  4 12  1  0
  4 13  1  0
  4 14  1  0
  5 15  1  0
  5 17  1  0
  6 16  1  0
  6 18  1  0
  7 15  1  0
  8 16  1  0
 17 19  1  0
 18 20  1  0
 19 20  2  0
 19 21  1  0
 20 22  1  0
 21 23  2  0
 22 24  2  0
 23 24  1  0
M  CHG  2   3   1   4   1
M  END
>  <PUBCHEM_COMPOUND_CID>  (1) 
43884

>  <PUBCHEM_CONFORMER_RMSD>  (1) 
1

>  <PUBCHEM_CONFORMER_DIVERSEORDER>  (1) 
1
17
4
2
18
5
9
13
12
3
10
15
16
8
11
14
7
6

>  <PUBCHEM_MMFF94_PARTIAL_CHARGES>  (1) 
30
1 -0.57
10 0.5
11 0.5
12 0.5
13 0.5
14 0.5
15 0.3
16 0.3
17 0.54
18 0.54
19 0.09
2 -0.57
20 0.09
21 -0.15
22 -0.15
23 -0.15
24 -0.15
3 -1.01
4 -1.01
5 -0.73
51 0.37
52 0.37
53 0.15
54 0.15
55 0.15
56 0.15
6 -0.73
7 0.5
8 0.5
9 0.5

>  <PUBCHEM_EFFECTIVE_ROTOR_COUNT>  (1) 
10

>  <PUBCHEM_PHARMACOPHORE_FEATURES>  (1) 
7
1 1 acceptor
1 2 acceptor
1 3 cation
1 4 cation
1 5 donor
1 6 donor
6 19 20 21 22 23 24 rings

>  <PUBCHEM_HEAVY_ATOM_COUNT>  (1) 
24

>  <PUBCHEM_ATOM_DEF_STEREO_COUNT>  (1) 
0

>  <PUBCHEM_ATOM_UDEF_STEREO_COUNT>  (1) 
0

>  <PUBCHEM_BOND_DEF_STEREO_COUNT>  (1) 
0

>  <PUBCHEM_BOND_UDEF_STEREO_COUNT>  (1) 
0

>  <PUBCHEM_ISOTOPIC_ATOM_COUNT>  (1) 
0

>  <PUBCHEM_COMPONENT_COUNT>  (1) 
1

>  <PUBCHEM_CACTVS_TAUTO_COUNT>  (1) 
3

>  <PUBCHEM_CONFORMER_ID>  (1) 
0000AB6C00000001

>  <PUBCHEM_MMFF94_ENERGY>  (1) 
79.9391

>  <PUBCHEM_FEATURE_SELFOVERLAP>  (1) 
35.52

>  <PUBCHEM_SHAPE_FINGERPRINT>  (1) 
10050765 1 18411136893469009025
107951 10 18125170569717727812
12173636 292 18194958775798263509
12293681 160 16674981390811436109
12788726 201 17255413621636771770
13402501 40 18264767671510873370
13540713 4 18186805739245448625
138480 1 18195246616047764658
14251757 5 17617399697757968804
14844126 61 17472128956882812832
14955137 171 17475543593939284073
15230672 131 18263929998976349076
15927050 60 18341897454216028519
15961568 22 18052820248311454918
167882 2 18410854348079850229
17859628 97 18338514248420786328
18785283 64 18410011000843585993
20028762 73 17693669521158709735
21304253 13 17765156068912897649
22182313 1 17822286839426819653
23366157 5 18261111833665314695
23419403 2 18043799901812817383
23559900 14 18338511941564724248
23728640 28 17904482161920308297
3027735 51 17982718976878495055
3298306 158 18411422825556058916
5265222 85 18120106223904168596
532947 4 18411697651680574636
5385378 56 18341061756880929777
9981440 41 18266174118438482313

>  <PUBCHEM_SHAPE_MULTIPOLES>  (1) 
462.25
8.46
6.81
1.18
5.31
2.85
-0.09
-5.02
0.92
-11.73
-0.03
-0.4
0.22
1.19

>  <PUBCHEM_SHAPE_SELFOVERLAP>  (1) 
921.325

>  <PUBCHEM_SHAPE_VOLUME>  (1) 
277.4

>  <PUBCHEM_COORDINATE_TYPE>  (1) 
2
5
10

$$$$
