43888
     RDKit          3D

 24 23  0  0  0  0  0  0  0  0999 V2000
    1.3331    2.6495    0.6846 O   0  0  0  0  0  0  0  0  0  0  0  0
   -1.3427    2.7148   -0.3031 O   0  0  0  0  0  0  0  0  0  0  0  0
    4.7424   -0.5490   -0.0836 N   0  0  0  0  0  0  0  0  0  0  0  0
   -4.7767   -0.5778    0.0089 N   0  0  0  0  0  0  0  0  0  0  0  0
    1.2590    0.7170   -0.6462 N   0  0  0  0  0  0  0  0  0  0  0  0
   -1.2663    0.6115    0.7387 N   0  0  0  0  0  0  0  0  0  0  0  0
    3.3029   -0.3469    0.2138 C   0  0  0  0  0  0  0  0  0  0  0  0
   -3.3010   -0.3244   -0.2641 C   0  0  0  0  0  0  0  0  0  0  0  0
    4.9274   -1.2331   -1.4452 C   0  0  0  0  0  0  0  0  0  0  0  0
    5.4854    0.7937   -0.1195 C   0  0  0  0  0  0  0  0  0  0  0  0
    5.4019   -1.4304    0.9862 C   0  0  0  0  0  0  0  0  0  0  0  0
   -5.4871    0.7498    0.2297 C   0  0  0  0  0  0  0  0  0  0  0  0
   -5.3971   -1.2932   -1.1825 C   0  0  0  0  0  0  0  0  0  0  0  0
   -4.9213   -1.4435    1.2522 C   0  0  0  0  0  0  0  0  0  0  0  0
    2.6751    0.5262   -0.8567 C   0  0  0  0  0  0  0  0  0  0  0  0
   -2.6749    0.3892    0.9197 C   0  0  0  0  0  0  0  0  0  0  0  0
    6.4030   -1.4570   -1.6939 C   0  0  0  0  0  0  0  0  0  0  0  0
    5.3194    1.4909    1.2131 C   0  0  0  0  0  0  0  0  0  0  0  0
    4.7397   -2.7909    0.9886 C   0  0  0  0  0  0  0  0  0  0  0  0
   -5.3399    1.6059   -1.0092 C   0  0  0  0  0  0  0  0  0  0  0  0
   -6.8635   -1.5425   -0.9056 C   0  0  0  0  0  0  0  0  0  0  0  0
   -4.2133   -2.7615    1.0268 C   0  0  0  0  0  0  0  0  0  0  0  0
    0.7459    1.7542    0.0988 C   0  0  0  0  0  0  0  0  0  0  0  0
   -0.7513    1.7472    0.1483 C   0  0  0  0  0  0  0  0  0  0  0  0
  1 23  2  0
  2 24  2  0
  3  7  1  0
  3  9  1  0
  3 10  1  0
  3 11  1  0
  4  8  1  0
  4 12  1  0
  4 13  1  0
  4 14  1  0
  5 15  1  0
  5 23  1  0
  6 16  1  0
  6 24  1  0
  7 15  1  0
  8 16  1  0
  9 17  1  0
 10 18  1  0
 11 19  1  0
 12 20  1  0
 13 21  1  0
 14 22  1  0
 23 24  1  0
M  CHG  2   3   1   4   1
M  END
>  <PUBCHEM_COMPOUND_CID>  (1) 
43888

>  <PUBCHEM_CONFORMER_RMSD>  (1) 
1.2

>  <PUBCHEM_CONFORMER_DIVERSEORDER>  (1) 
1
8
5
23
31
20
33
2
12
3
6
16
22
25
17
15
24
7
13
14
4
32
19
29
18
26
30
10
9
28
11
27
21

>  <PUBCHEM_MMFF94_PARTIAL_CHARGES>  (1) 
20
1 -0.57
10 0.5
11 0.5
12 0.5
13 0.5
14 0.5
15 0.3
16 0.3
2 -0.57
23 0.63
24 0.63
3 -1.01
4 -1.01
5 -0.73
6 -0.73
63 0.37
64 0.37
7 0.5
8 0.5
9 0.5

>  <PUBCHEM_EFFECTIVE_ROTOR_COUNT>  (1) 
15

>  <PUBCHEM_PHARMACOPHORE_FEATURES>  (1) 
6
1 1 acceptor
1 2 acceptor
1 3 cation
1 4 cation
1 5 donor
1 6 donor

>  <PUBCHEM_HEAVY_ATOM_COUNT>  (1) 
24

>  <PUBCHEM_ATOM_DEF_STEREO_COUNT>  (1) 
0

>  <PUBCHEM_ATOM_UDEF_STEREO_COUNT>  (1) 
0

>  <PUBCHEM_BOND_DEF_STEREO_COUNT>  (1) 
0

>  <PUBCHEM_BOND_UDEF_STEREO_COUNT>  (1) 
0

>  <PUBCHEM_ISOTOPIC_ATOM_COUNT>  (1) 
0

>  <PUBCHEM_COMPONENT_COUNT>  (1) 
1

>  <PUBCHEM_CACTVS_TAUTO_COUNT>  (1) 
3

>  <PUBCHEM_CONFORMER_ID>  (1) 
0000AB7000000001

>  <PUBCHEM_MMFF94_ENERGY>  (1) 
81.2343

>  <PUBCHEM_FEATURE_SELFOVERLAP>  (1) 
30.451

>  <PUBCHEM_SHAPE_FINGERPRINT>  (1) 
10 15 12391514213396301479
10447042 23 18335417967910978982
11796584 16 18260264161465503249
12516196 113 18343299283879928169
12596602 18 17203613695984878211
12760667 363 18413111654231493537
13533116 47 18059293274642039936
13685833 64 18341333374917770931
14123256 34 18340218448051307839
14251751 18 18114748234600013083
14251752 14 18041275461818056717
14461889 52 18341039796923934216
14848160 23 18272932721582287949
15183329 4 16008744697528281615
15880784 105 17918000460026328242
17857418 61 18408603630518815482
18222031 100 18273217486973523556
19958102 18 17603858979864394343
20028762 73 17989207044844557366
21315764 119 17458057162816808959
23559900 14 18337383937678138985
25122255 55 18202011996829422983
3004659 81 18259708904188834212
3014063 24 17917989499354477439
314194 84 18342740753579326922
44062 13 18334016125124930243
465052 167 17775288253420280380
5104073 3 18201716194501449480
543368 44 12252181888211528815
559249 180 18412823569748422855
59682541 35 18200020868094169256
59682541 52 17022621991867547758
7808743 9 9583511006329341013

>  <PUBCHEM_SHAPE_MULTIPOLES>  (1) 
462.25
19.68
2.88
1.36
1.45
0.16
-0.19
10.39
-3.28
0.03
0.59
-0.7
0.54
1.01

>  <PUBCHEM_SHAPE_SELFOVERLAP>  (1) 
877.987

>  <PUBCHEM_SHAPE_VOLUME>  (1) 
288

>  <PUBCHEM_COORDINATE_TYPE>  (1) 
2
5
10

$$$$
