439
     RDKit          3D

 12 12  0  0  0  0  0  0  0  0999 V2000
    4.7967   -0.1720   -0.1012 O   0  0  0  0  0  0  0  0  0  0  0  0
    3.1537    1.3241   -0.5645 O   0  0  0  0  0  0  0  0  0  0  0  0
   -2.7749    1.4535    0.2703 N   0  0  0  0  0  0  0  0  0  0  0  0
   -1.2695   -0.3940   -0.0554 C   0  0  0  0  0  0  0  0  0  0  0  0
    0.1084   -0.8940   -0.0786 C   0  0  0  0  0  0  0  0  0  0  0  0
    2.5905   -0.7964    0.5058 C   0  0  0  0  0  0  0  0  0  0  0  0
    1.1698   -0.3171    0.5067 C   0  0  0  0  0  0  0  0  0  0  0  0
   -2.3292   -1.2418   -0.3217 C   0  0  0  0  0  0  0  0  0  0  0  0
   -1.5296    0.9286    0.2323 C   0  0  0  0  0  0  0  0  0  0  0  0
   -3.6251   -0.7386   -0.2922 C   0  0  0  0  0  0  0  0  0  0  0  0
    3.5022    0.2440   -0.1079 C   0  0  0  0  0  0  0  0  0  0  0  0
   -3.7930    0.6039    0.0064 C   0  0  0  0  0  0  0  0  0  0  0  0
  1 11  1  0
  2 11  2  0
  3  9  2  0
  3 12  1  0
  4  5  1  0
  4  8  2  0
  4  9  1  0
  5  7  2  0
  6  7  1  0
  6 11  1  0
  8 10  1  0
 10 12  2  0
M  END
>  <PUBCHEM_COMPOUND_CID>  (1) 
439

>  <PUBCHEM_CONFORMER_RMSD>  (1) 
0.6

>  <PUBCHEM_CONFORMER_DIVERSEORDER>  (1) 
1
6
9
4
8
3
10
5
7
2

>  <PUBCHEM_MMFF94_PARTIAL_CHARGES>  (1) 
19
1 -0.65
10 -0.15
11 0.66
12 0.16
15 0.15
16 0.15
17 0.15
18 0.15
19 0.15
2 -0.57
20 0.15
21 0.5
3 -0.62
4 0.03
5 -0.18
6 0.2
7 -0.29
8 -0.15
9 0.16

>  <PUBCHEM_EFFECTIVE_ROTOR_COUNT>  (1) 
3

>  <PUBCHEM_PHARMACOPHORE_FEATURES>  (1) 
5
1 1 acceptor
1 2 acceptor
1 3 acceptor
3 1 2 11 anion
6 3 4 8 9 10 12 rings

>  <PUBCHEM_HEAVY_ATOM_COUNT>  (1) 
12

>  <PUBCHEM_ATOM_DEF_STEREO_COUNT>  (1) 
0

>  <PUBCHEM_ATOM_UDEF_STEREO_COUNT>  (1) 
0

>  <PUBCHEM_BOND_DEF_STEREO_COUNT>  (1) 
0

>  <PUBCHEM_BOND_UDEF_STEREO_COUNT>  (1) 
1

>  <PUBCHEM_ISOTOPIC_ATOM_COUNT>  (1) 
0

>  <PUBCHEM_COMPONENT_COUNT>  (1) 
1

>  <PUBCHEM_CACTVS_TAUTO_COUNT>  (1) 
1

>  <PUBCHEM_CONFORMER_ID>  (1) 
000001B700000001

>  <PUBCHEM_MMFF94_ENERGY>  (1) 
23.8529

>  <PUBCHEM_FEATURE_SELFOVERLAP>  (1) 
25.43

>  <PUBCHEM_SHAPE_FINGERPRINT>  (1) 
11062470 55 15574428812922366855
12162725 195 18408042922580462068
12932764 1 17274809264327250707
14144814 61 18335417950230001874
14325111 11 18411417289121687562
15669948 3 18271232898344729543
15775835 57 18335422344002644584
17802600 8 18408316696718130548
18186145 218 17967810535672006018
190213 19 18410008844975763906
1986462 14 17775566450804070431
20279233 1 16271926021519946926
20300324 65 18272930552850539711
20645477 70 16200160854915465902
20711983 171 18342175544415046692
21119208 17 18412545409885142934
23402539 116 18272362079389821558
23402655 69 18409165485313702484
474 4 17532376550899025372
77779 3 18411420605121289606

>  <PUBCHEM_SHAPE_MULTIPOLES>  (1) 
230.23
8.32
1.3
0.69
5.52
0.19
0.02
0.97
-0.7
-0.57
-0.04
0.08
-0.01
-0.52

>  <PUBCHEM_SHAPE_SELFOVERLAP>  (1) 
472.074

>  <PUBCHEM_SHAPE_VOLUME>  (1) 
131.6

>  <PUBCHEM_COORDINATE_TYPE>  (1) 
2
5
10

$$$$
