4390
     RDKit          3D

 13 13  0  0  0  0  0  0  0  0999 V2000
   -1.0733   -1.4200   -0.6078 O   0  0  0  0  0  0  0  0  0  0  0  0
   -1.3008   -0.2659   -0.1128 N   0  0  0  0  0  0  0  0  0  0  0  0
   -2.7036    0.1442    0.0430 C   0  0  0  0  0  0  0  0  0  0  0  0
   -3.5619   -1.0064   -0.4671 C   0  0  0  0  0  0  0  0  0  0  0  0
   -2.9109    0.4019    1.5293 C   0  0  0  0  0  0  0  0  0  0  0  0
   -2.8829    1.4050   -0.7925 C   0  0  0  0  0  0  0  0  0  0  0  0
   -0.3336    0.5634    0.2204 C   0  0  0  0  0  0  0  0  0  0  0  0
    1.1063    0.2886    0.1231 C   0  0  0  0  0  0  0  0  0  0  0  0
    1.9828    1.3283   -0.1518 C   0  0  0  0  0  0  0  0  0  0  0  0
    1.5675   -1.0069    0.3073 C   0  0  0  0  0  0  0  0  0  0  0  0
    3.3499    1.0671   -0.2445 C   0  0  0  0  0  0  0  0  0  0  0  0
    2.9346   -1.2682    0.2147 C   0  0  0  0  0  0  0  0  0  0  0  0
    3.8258   -0.2311   -0.0612 C   0  0  0  0  0  0  0  0  0  0  0  0
  1  2  1  0
  2  3  1  0
  2  7  2  0
  3  4  1  0
  3  5  1  0
  3  6  1  0
  7  8  1  0
  8  9  2  0
  8 10  1  0
  9 11  1  0
 10 12  2  0
 11 13  2  0
 12 13  1  0
M  CHG  2   1  -1   2   1
M  END
>  <PUBCHEM_COMPOUND_CID>  (1) 
4390

>  <PUBCHEM_CONFORMER_RMSD>  (1) 
0.6

>  <PUBCHEM_CONFORMER_DIVERSEORDER>  (1) 
1
2

>  <PUBCHEM_MMFF94_PARTIAL_CHARGES>  (1) 
16
1 -0.63
10 -0.15
11 -0.15
12 -0.15
13 -0.15
2 0.53
23 0.06
24 0.15
25 0.15
26 0.15
27 0.15
28 0.15
3 0.1
7 -0.14
8 0.09
9 -0.15

>  <PUBCHEM_EFFECTIVE_ROTOR_COUNT>  (1) 
2

>  <PUBCHEM_PHARMACOPHORE_FEATURES>  (1) 
3
1 1 anion
4 3 4 5 6 hydrophobe
6 8 9 10 11 12 13 rings

>  <PUBCHEM_HEAVY_ATOM_COUNT>  (1) 
13

>  <PUBCHEM_ATOM_DEF_STEREO_COUNT>  (1) 
0

>  <PUBCHEM_ATOM_UDEF_STEREO_COUNT>  (1) 
0

>  <PUBCHEM_BOND_DEF_STEREO_COUNT>  (1) 
0

>  <PUBCHEM_BOND_UDEF_STEREO_COUNT>  (1) 
1

>  <PUBCHEM_ISOTOPIC_ATOM_COUNT>  (1) 
0

>  <PUBCHEM_COMPONENT_COUNT>  (1) 
1

>  <PUBCHEM_CACTVS_TAUTO_COUNT>  (1) 
1

>  <PUBCHEM_CONFORMER_ID>  (1) 
0000112600000001

>  <PUBCHEM_MMFF94_ENERGY>  (1) 
46.4639

>  <PUBCHEM_FEATURE_SELFOVERLAP>  (1) 
15.223

>  <PUBCHEM_SHAPE_FINGERPRINT>  (1) 
10608611 8 18260824899595565748
10922523 26 18260265205300935164
10980938 120 18409166615063992578
11471102 20 18335136492855069052
12916754 54 18412263960641423207
12932764 1 18410577292350303980
13296908 3 18186520981853206320
13571099 22 18341325583250977652
13581323 91 17346595296172766479
14144814 61 18343582936499607112
14325111 11 18409728460709788885
15309172 13 18341900671014313339
15442244 35 18193835934155386144
15775835 57 18412267237574837001
16945 1 18342739572621543506
17844478 74 17821736021969973541
18186145 218 18343026575252877544
190213 19 18060136535545811192
19422 9 18272375273513679650
200 152 18131060559340111751
20279233 1 17022620892266092923
20645477 70 18262792969522027326
2306618 200 18271525304287476385
23402539 116 16917347013335477232
23402655 69 18409444765261548628
23463225 33 18413107230093594270
3248919 1 17561084683013529757
57096353 35 18339923839143487324
581208 293 18335135423434612008
74978 22 17989201585645055216
77492 1 18202849846196052056
93112 12 18408317774501448077

>  <PUBCHEM_SHAPE_MULTIPOLES>  (1) 
256.68
7.1
1.46
0.9
0.34
0
0.23
0
-0.2
0.19
-0.22
-0.75
0.07
-0.24

>  <PUBCHEM_SHAPE_SELFOVERLAP>  (1) 
527.18

>  <PUBCHEM_SHAPE_VOLUME>  (1) 
149.8

>  <PUBCHEM_COORDINATE_TYPE>  (1) 
2
5
10

$$$$
