43905
     RDKit          3D

 20 20  0  0  1  0  0  0  0  0999 V2000
   -5.3547    0.7419    0.4767 F   0  0  0  0  0  0  0  0  0  0  0  0
   -3.8055    2.2397    0.7229 F   0  0  0  0  0  0  0  0  0  0  0  0
   -4.2538    1.4584   -1.2563 F   0  0  0  0  0  0  0  0  0  0  0  0
    0.6193   -0.3615   -1.8279 O   0  0  0  0  0  0  0  0  0  0  0  0
    4.8142    0.6725   -0.0726 O   0  0  0  0  0  0  0  0  0  0  0  0
    3.5922   -0.4400    1.5224 O   0  0  0  0  0  0  0  0  0  0  0  0
    2.5777    0.8589   -0.1102 N   0  0  0  0  0  0  0  0  0  0  0  0
    0.5932   -0.5565   -0.4138 C   0  0  0  0  0  0  0  0  0  0  0  0
   -0.8387   -0.7870    0.0108 C   0  0  0  0  0  0  0  0  0  0  0  0
    1.2033    0.6575    0.2872 C   0  0  0  0  0  0  0  0  0  0  0  0
   -1.7685    0.2246   -0.1630 C   0  0  0  0  0  0  0  0  0  0  0  0
   -1.1927   -2.0058    0.5653 C   0  0  0  0  0  0  0  0  0  0  0  0
   -3.0901    0.0115    0.2289 C   0  0  0  0  0  0  0  0  0  0  0  0
   -2.5142   -2.2191    0.9573 C   0  0  0  0  0  0  0  0  0  0  0  0
   -3.4629   -1.2104    0.7889 C   0  0  0  0  0  0  0  0  0  0  0  0
   -4.1046    1.0896    0.0495 C   0  0  0  0  0  0  0  0  0  0  0  0
    0.1086   -1.4937   -2.5137 C   0  0  0  0  0  0  0  0  0  0  0  0
    3.6536    0.2933    0.5411 C   0  0  0  0  0  0  0  0  0  0  0  0
    6.0209    0.1563    0.5004 C   0  0  0  0  0  0  0  0  0  0  0  0
    7.2028    0.6697   -0.2939 C   0  0  0  0  0  0  0  0  0  0  0  0
  1 16  1  0
  2 16  1  0
  3 16  1  0
  4  8  1  0
  4 17  1  0
  5 18  1  0
  5 19  1  0
  6 18  2  0
  7 10  1  0
  7 18  1  0
  8  9  1  0
  8 10  1  0
  9 11  2  0
  9 12  1  0
 11 13  1  0
 12 14  2  0
 13 15  2  0
 13 16  1  0
 14 15  1  0
 19 20  1  0
M  END
>  <PUBCHEM_COMPOUND_CID>  (1) 
43905

>  <PUBCHEM_CONFORMER_RMSD>  (1) 
0.8

>  <PUBCHEM_CONFORMER_DIVERSEORDER>  (1) 
1
79
163
32
6
183
174
30
95
70
110
87
113
142
75
137
66
102
78
61
143
124
9
178
99
130
5
157
140
100
122
49
56
37
85
133
106
97
125
153
18
170
141
179
19
120
12
21
96
54
55
149
132
154
172
7
103
25
186
8
53
94
145
129
92
10
175
45
42
128
91
121
152
184
165
51
57
116
62
11
148
35
86
136
48
161
74
111
89
73
147
90
50
47
83
107
15
23
160
108
155
119
171
182
181
187
13
185
65
166
52
76
88
36
81
68
131
40
28
150
22
134
93
98
67
60
16
123
180
164
177
115
167
151
126
58
101
41
2
173
117
72
159
158
139
14
63
114
4
26
176
17
162
169
33
144
44
146
64
46
39
80
82
43
135
105
20
168
112
138
127
38
118
29
69
27
31
34
24
59
77
3
84
104
109
71
156

>  <PUBCHEM_MMFF94_PARTIAL_CHARGES>  (1) 
24
1 -0.34
10 0.3
11 -0.15
12 -0.15
13 -0.14
14 -0.15
15 -0.15
16 1.16
17 0.28
18 0.78
19 0.28
2 -0.34
24 0.15
25 0.15
26 0.37
27 0.15
28 0.15
3 -0.34
4 -0.56
5 -0.43
6 -0.57
7 -0.73
8 0.42
9 -0.14

>  <PUBCHEM_EFFECTIVE_ROTOR_COUNT>  (1) 
8

>  <PUBCHEM_PHARMACOPHORE_FEATURES>  (1) 
4
1 4 acceptor
1 6 acceptor
1 7 donor
6 9 11 12 13 14 15 rings

>  <PUBCHEM_HEAVY_ATOM_COUNT>  (1) 
20

>  <PUBCHEM_ATOM_DEF_STEREO_COUNT>  (1) 
0

>  <PUBCHEM_ATOM_UDEF_STEREO_COUNT>  (1) 
1

>  <PUBCHEM_BOND_DEF_STEREO_COUNT>  (1) 
0

>  <PUBCHEM_BOND_UDEF_STEREO_COUNT>  (1) 
0

>  <PUBCHEM_ISOTOPIC_ATOM_COUNT>  (1) 
0

>  <PUBCHEM_COMPONENT_COUNT>  (1) 
1

>  <PUBCHEM_CACTVS_TAUTO_COUNT>  (1) 
2

>  <PUBCHEM_CONFORMER_ID>  (1) 
0000AB8100000001

>  <PUBCHEM_MMFF94_ENERGY>  (1) 
35.7308

>  <PUBCHEM_FEATURE_SELFOVERLAP>  (1) 
20.297

>  <PUBCHEM_SHAPE_FINGERPRINT>  (1) 
11089746 13 17846769729145645832
11315181 36 17895193367624950946
12077114 3 18271807951410203535
12119455 92 17846777407882331366
121448 382 15769488815857053503
12236239 1 17240486939524516954
12633257 1 18114180847766014156
13583140 156 18201437029694930050
13740256 8 12179854908791297964
14251732 17 18272654523939807324
14251764 18 18113898277414290146
15042514 8 18046071729292151563
15048467 5 17894629258252126548
15527383 91 15574716906327526108
167882 2 17559963121419847950
17093844 174 18409442622795359680
17844677 252 18264497346327174944
17980427 23 18335987566415843909
1813 80 15502378885575499654
18915476 22 17274277049492278471
19489759 90 18341891909148926939
200 152 11959731581709917584
20567600 75 18059584564051077390
20681677 155 18186800309995193962
21033648 29 17417800760599792568
23402539 116 18412820318067854751
23557571 272 18200605790810112815
23559900 14 18193298333358072094
23622692 88 17675925408512601551
266924 87 16915956062765625320
2838139 119 18060695078720966328
314173 85 15140675865326858638
3545911 37 18409731759297361520
3633792 109 17096354215525135351
4214541 1 18261392286397578608
4325135 7 18202560705589077911
5104073 3 18041275586598988216

>  <PUBCHEM_SHAPE_MULTIPOLES>  (1) 
367.18
13.13
1.79
1.4
20.85
0.24
0.95
-5.76
-2.36
-2.6
-0.13
-0.04
0.62
0.44

>  <PUBCHEM_SHAPE_SELFOVERLAP>  (1) 
751.473

>  <PUBCHEM_SHAPE_VOLUME>  (1) 
213.6

>  <PUBCHEM_COORDINATE_TYPE>  (1) 
2
5
10

$$$$
