43913
     RDKit          3D

 20 19  0  0  0  0  0  0  0  0999 V2000
   -2.1087    0.6716   -1.3717 O   0  0  0  0  0  0  0  0  0  0  0  0
    2.1093    0.6615    1.3750 O   0  0  0  0  0  0  0  0  0  0  0  0
   -6.3754   -0.6599   -0.0359 N   0  0  0  0  0  0  0  0  0  0  0  0
    6.3746   -0.6608    0.0321 N   0  0  0  0  0  0  0  0  0  0  0  0
   -2.9620    0.6537    0.7886 N   0  0  0  0  0  0  0  0  0  0  0  0
    2.9632    0.6624   -0.7849 N   0  0  0  0  0  0  0  0  0  0  0  0
   -4.9270   -0.7347    0.2771 C   0  0  0  0  0  0  0  0  0  0  0  0
    4.9265   -0.7319   -0.2834 C   0  0  0  0  0  0  0  0  0  0  0  0
   -4.3623    0.6650    0.4331 C   0  0  0  0  0  0  0  0  0  0  0  0
    4.3629    0.6695   -0.4275 C   0  0  0  0  0  0  0  0  0  0  0  0
   -6.9678   -2.0644   -0.2169 C   0  0  0  0  0  0  0  0  0  0  0  0
   -6.6132    0.1285   -1.3313 C   0  0  0  0  0  0  0  0  0  0  0  0
   -7.1425    0.0388    1.0953 C   0  0  0  0  0  0  0  0  0  0  0  0
    7.1437    0.0475   -1.0918 C   0  0  0  0  0  0  0  0  0  0  0  0
    6.6113    0.1157    1.3348 C   0  0  0  0  0  0  0  0  0  0  0  0
    6.9658   -2.0673    0.2012 C   0  0  0  0  0  0  0  0  0  0  0  0
   -0.5740    0.6419    0.5031 C   0  0  0  0  0  0  0  0  0  0  0  0
    0.5749    0.6460   -0.5002 C   0  0  0  0  0  0  0  0  0  0  0  0
   -1.9447    0.6580   -0.1548 C   0  0  0  0  0  0  0  0  0  0  0  0
    1.9454    0.6589    0.1581 C   0  0  0  0  0  0  0  0  0  0  0  0
  1 19  2  0
  2 20  2  0
  3  7  1  0
  3 11  1  0
  3 12  1  0
  3 13  1  0
  4  8  1  0
  4 14  1  0
  4 15  1  0
  4 16  1  0
  5  9  1  0
  5 19  1  0
  6 10  1  0
  6 20  1  0
  7  9  1  0
  8 10  1  0
 17 18  1  0
 17 19  1  0
 18 20  1  0
M  CHG  2   3   1   4   1
M  END
>  <PUBCHEM_COMPOUND_CID>  (1) 
43913

>  <PUBCHEM_CONFORMER_RMSD>  (1) 
1.2

>  <PUBCHEM_CONFORMER_DIVERSEORDER>  (1) 
1
2
29
17
22
26
31
19
13
6
25
11
16
21
20
12
8
27
15
28
3
5
24
9
30
14
18
10
4
7
23

>  <PUBCHEM_MMFF94_PARTIAL_CHARGES>  (1) 
22
1 -0.57
10 0.3
11 0.5
12 0.5
13 0.5
14 0.5
15 0.5
16 0.5
17 0.06
18 0.06
19 0.57
2 -0.57
20 0.57
3 -1.01
4 -1.01
47 0.37
48 0.37
5 -0.73
6 -0.73
7 0.5
8 0.5
9 0.3

>  <PUBCHEM_EFFECTIVE_ROTOR_COUNT>  (1) 
11

>  <PUBCHEM_PHARMACOPHORE_FEATURES>  (1) 
6
1 1 acceptor
1 2 acceptor
1 3 cation
1 4 cation
1 5 donor
1 6 donor

>  <PUBCHEM_HEAVY_ATOM_COUNT>  (1) 
20

>  <PUBCHEM_ATOM_DEF_STEREO_COUNT>  (1) 
0

>  <PUBCHEM_ATOM_UDEF_STEREO_COUNT>  (1) 
0

>  <PUBCHEM_BOND_DEF_STEREO_COUNT>  (1) 
0

>  <PUBCHEM_BOND_UDEF_STEREO_COUNT>  (1) 
0

>  <PUBCHEM_ISOTOPIC_ATOM_COUNT>  (1) 
0

>  <PUBCHEM_COMPONENT_COUNT>  (1) 
1

>  <PUBCHEM_CACTVS_TAUTO_COUNT>  (1) 
3

>  <PUBCHEM_CONFORMER_ID>  (1) 
0000AB8900000001

>  <PUBCHEM_MMFF94_ENERGY>  (1) 
52.351

>  <PUBCHEM_FEATURE_SELFOVERLAP>  (1) 
30.446

>  <PUBCHEM_SHAPE_FINGERPRINT>  (1) 
10 15 16343702149176308632
10066227 49 18041558032101482162
10087517 78 9583530802235048171
10299344 5 18410860961981423879
106641 1 16200145521491847826
10968037 39 14634869756452891409
11315181 36 18411985771831866721
11524674 6 17703791435892892551
11646440 116 15339122342447212682
12091667 2 17458346338938691897
125118 31 14189582922479871138
12596602 18 15625950806618664423
13073987 5 15769508516555288152
13668630 136 18259984868358831706
13685833 64 18202002127237084976
13885169 127 18336264544535752397
13964095 4 16515400759989005613
14123256 10 15647053767649878797
14251752 14 17167857569586429443
14251757 52 8934707887057001830
14251764 18 16415476077614515048
14729087 3 9079121042456618719
14849402 71 14476665473159482474
15048467 5 8935001460222764319
15183329 4 17530683199532824378
15690457 1 18342172280192903159
15716309 27 17775003492181515277
17093844 174 15985106298145096849
20281389 69 12247682651901678866
20621476 38 18411139113228687714
20735858 18 16917350329002516926
21095123 145 9799397971724255805
21095123 293 11819266716926768631
21130983 4 10592042462111976298
21150785 3 17458064876303317516
21637258 2 18410853261105062144
221357 26 16660645155112658604
22224240 67 14405182858956455517
23035841 295 18333170583365839603
23081809 10 18336840739751700100
23559900 14 17677900209159724529
246663 6 18410580586516353990
28498 318 18333730196018817709
29717793 49 17167866361569016612
33532 11 18410011014235448514
445580 37 13334729116411721959
5104073 3 15625361567196492710
5758199 1 12535628275552377140
59682541 35 16128650877470859090
59682541 52 13623523521028263784
59755656 215 16732982007565346162

>  <PUBCHEM_SHAPE_MULTIPOLES>  (1) 
379.93
25.65
1.36
1.17
0.02
0.86
0
11.3
-0.02
0
0
0
-0.18
-0.28

>  <PUBCHEM_SHAPE_SELFOVERLAP>  (1) 
710.384

>  <PUBCHEM_SHAPE_VOLUME>  (1) 
240

>  <PUBCHEM_COORDINATE_TYPE>  (1) 
2
5
10

$$$$
