43926
     RDKit          3D

  8  7  0  0  0  0  0  0  0  0999 V2000
   -1.5979   -0.0481   -0.0001 Si  0  0  0  0  0  4  0  0  0  0  0  0
   -1.9993   -1.7182    0.7544 C   0  0  0  0  0  0  0  0  0  0  0  0
   -2.4295    1.2998    1.0055 C   0  0  0  0  0  0  0  0  0  0  0  0
   -2.2444    0.0063   -1.7604 C   0  0  0  0  0  0  0  0  0  0  0  0
    0.2631    0.2169    0.0004 C   0  0  0  0  0  0  0  0  0  0  0  0
    2.9052    0.5915   -0.0002 C   0  0  0  0  0  0  0  0  0  0  0  0
    1.4519    0.3842    0.0005 C   0  0  0  0  0  0  0  0  0  0  0  0
    3.6507   -0.7322   -0.0001 C   0  0  0  0  0  0  0  0  0  0  0  0
  1  2  1  0
  1  3  1  0
  1  4  1  0
  1  5  1  0
  5  7  3  0
  6  7  1  0
  6  8  1  0
M  END
>  <PUBCHEM_COMPOUND_CID>  (1) 
43926

>  <PUBCHEM_CONFORMER_RMSD>  (1) 
0.4

>  <PUBCHEM_CONFORMER_DIVERSEORDER>  (1) 
1

>  <PUBCHEM_MMFF94_PARTIAL_CHARGES>  (1) 
7
1 0.54
2 -0.08
3 -0.08
4 -0.08
5 -0.29
6 0.2
7 -0.2

>  <PUBCHEM_EFFECTIVE_ROTOR_COUNT>  (1) 
0

>  <PUBCHEM_PHARMACOPHORE_FEATURES>  (1) 
1
1 8 hydrophobe

>  <PUBCHEM_HEAVY_ATOM_COUNT>  (1) 
8

>  <PUBCHEM_ATOM_DEF_STEREO_COUNT>  (1) 
0

>  <PUBCHEM_ATOM_UDEF_STEREO_COUNT>  (1) 
0

>  <PUBCHEM_BOND_DEF_STEREO_COUNT>  (1) 
0

>  <PUBCHEM_BOND_UDEF_STEREO_COUNT>  (1) 
0

>  <PUBCHEM_ISOTOPIC_ATOM_COUNT>  (1) 
0

>  <PUBCHEM_COMPONENT_COUNT>  (1) 
1

>  <PUBCHEM_CACTVS_TAUTO_COUNT>  (1) 
1

>  <PUBCHEM_CONFORMER_ID>  (1) 
0000AB9600000001

>  <PUBCHEM_MMFF94_ENERGY>  (1) 
-2.1006

>  <PUBCHEM_FEATURE_SELFOVERLAP>  (1) 
5.074

>  <PUBCHEM_SHAPE_FINGERPRINT>  (1) 
12932741 1 18189321519610603076
12932764 1 17240481416434074632
13024252 1 13767923529469742089
14325111 11 18411705400244727328
14577589 140 17846504690407169310
20653085 51 17385995174652556957
21524375 3 17699860527146696177
23402539 116 16486683659444911537
3248919 1 18411695504624285464
5084963 1 17823136885630124729

>  <PUBCHEM_SHAPE_MULTIPOLES>  (1) 
182.85
5.58
1.33
1.21
5.97
0.33
0.45
0.37
-0.01
-0.76
-0.44
-1.2
-0.04
-0.06

>  <PUBCHEM_SHAPE_SELFOVERLAP>  (1) 
309.225

>  <PUBCHEM_SHAPE_VOLUME>  (1) 
123.2

>  <PUBCHEM_COORDINATE_TYPE>  (1) 
2
5
10

$$$$
