4392
     RDKit          3D

 23 25  0  0  1  0  0  0  0  0999 V2000
    4.6307    1.5557    0.0493 P   0  0  0  0  0  0  0  0  0  0  0  0
    1.0837   -0.6862    1.0598 O   0  0  0  0  0  0  0  0  0  0  0  0
   -0.7174   -2.8216   -1.2022 O   0  0  0  0  0  0  0  0  0  0  0  0
    1.2381   -3.6760    0.4805 O   0  0  0  0  0  0  0  0  0  0  0  0
    3.6177    0.4374    0.6366 O   0  0  0  0  0  0  0  0  0  0  0  0
    3.8210    2.1891   -1.1991 O   0  0  0  0  0  0  0  0  0  0  0  0
    5.7773    0.6661   -0.6639 O   0  0  0  0  0  0  0  0  0  0  0  0
    5.1332    2.5473    1.0575 O   0  0  0  0  0  0  0  0  0  0  0  0
   -0.9854    0.0431    0.1559 N   0  0  0  0  0  0  0  0  0  0  0  0
   -1.5336    2.1372   -0.3610 N   0  0  0  0  0  0  0  0  0  0  0  0
    0.2721   -1.8924   -0.8098 C   0  0  0  0  0  0  0  0  0  0  0  0
   -0.1394   -1.1159    0.4317 C   0  0  0  0  0  0  0  0  0  0  0  0
    1.5541   -2.5524   -0.3415 C   0  0  0  0  0  0  0  0  0  0  0  0
    2.1796   -1.4668    0.5287 C   0  0  0  0  0  0  0  0  0  0  0  0
    3.0977   -0.5364   -0.2515 C   0  0  0  0  0  0  0  0  0  0  0  0
   -2.3578    0.0806    0.1724 C   0  0  0  0  0  0  0  0  0  0  0  0
   -0.5416    1.2969   -0.1683 C   0  0  0  0  0  0  0  0  0  0  0  0
   -2.6744    1.3966   -0.1532 C   0  0  0  0  0  0  0  0  0  0  0  0
   -3.3187   -0.8961    0.4366 C   0  0  0  0  0  0  0  0  0  0  0  0
   -4.0248    1.7787   -0.2243 C   0  0  0  0  0  0  0  0  0  0  0  0
   -5.0066    0.8148    0.0370 C   0  0  0  0  0  0  0  0  0  0  0  0
   -4.6577   -0.4983    0.3615 C   0  0  0  0  0  0  0  0  0  0  0  0
   -6.4479    1.1987   -0.0326 C   0  0  0  0  0  0  0  0  0  0  0  0
  1  5  1  0
  1  6  1  0
  1  7  1  0
  1  8  2  0
  2 12  1  0
  2 14  1  0
  3 11  1  0
  4 13  1  0
  5 15  1  0
  9 12  1  0
  9 16  1  0
  9 17  1  0
 10 17  2  0
 10 18  1  0
 11 12  1  0
 11 13  1  0
 13 14  1  0
 14 15  1  0
 16 18  2  0
 16 19  1  0
 18 20  1  0
 19 22  2  0
 20 21  2  0
 21 22  1  0
 21 23  1  0
M  END
>  <PUBCHEM_COMPOUND_CID>  (1) 
4392

>  <PUBCHEM_CONFORMER_RMSD>  (1) 
0.8

>  <PUBCHEM_CONFORMER_DIVERSEORDER>  (1) 
4
134
59
44
22
84
171
61
174
89
63
62
96
110
103
182
114
146
60
70
183
168
2
92
45
193
165
138
150
30
93
172
152
124
104
101
87
131
109
83
155
180
65
18
144
164
20
99
46
170
167
126
154
136
8
21
196
127
97
139
115
184
145
5
192
191
54
187
74
111
195
40
175
24
52
148
28
81
29
188
142
66
6
189
112
47
13
100
143
132
120
43
149
166
159
86
72
35
11
36
95
9
179
181
19
140
37
130
27
80
122
90
68
51
178
75
116
57
107
151
38
157
135
163
71
129
10
39
106
12
85
161
190
160
15
67
26
113
23
177
41
3
69
16
105
49
98
77
94
197
7
186
137
88
32
58
173
64
31
118
55
176
34
141
162
1
121
79
117
125
194
56
128
153
73
158
48
147
14
53
82
25
76
33
102
156
17
42
123
185
133
169
50
91
108
78
119

>  <PUBCHEM_MMFF94_PARTIAL_CHARGES>  (1) 
31
1 1.51
10 -0.57
11 0.28
12 0.54
13 0.28
14 0.28
15 0.28
16 -0.15
17 0.04
18 0.23
19 -0.15
2 -0.56
20 -0.15
21 -0.14
22 -0.15
23 0.14
3 -0.68
30 0.4
31 0.4
32 0.15
33 0.15
34 0.15
35 0.15
39 0.5
4 -0.68
40 0.5
5 -0.55
6 -0.77
7 -0.77
8 -0.7
9 0.05

>  <PUBCHEM_EFFECTIVE_ROTOR_COUNT>  (1) 
5

>  <PUBCHEM_PHARMACOPHORE_FEATURES>  (1) 
13
1 2 acceptor
1 3 acceptor
1 3 donor
1 4 acceptor
1 4 donor
1 6 acceptor
1 7 acceptor
1 8 acceptor
3 9 10 17 cation
4 1 6 7 8 anion
5 2 11 12 13 14 rings
5 9 10 16 17 18 rings
6 16 18 19 20 21 22 rings

>  <PUBCHEM_HEAVY_ATOM_COUNT>  (1) 
23

>  <PUBCHEM_ATOM_DEF_STEREO_COUNT>  (1) 
0

>  <PUBCHEM_ATOM_UDEF_STEREO_COUNT>  (1) 
4

>  <PUBCHEM_BOND_DEF_STEREO_COUNT>  (1) 
0

>  <PUBCHEM_BOND_UDEF_STEREO_COUNT>  (1) 
0

>  <PUBCHEM_ISOTOPIC_ATOM_COUNT>  (1) 
0

>  <PUBCHEM_COMPONENT_COUNT>  (1) 
1

>  <PUBCHEM_CACTVS_TAUTO_COUNT>  (1) 
1

>  <PUBCHEM_CONFORMER_ID>  (1) 
0000112800000004

>  <PUBCHEM_MMFF94_ENERGY>  (1) 
17.6351

>  <PUBCHEM_FEATURE_SELFOVERLAP>  (1) 
66.128

>  <PUBCHEM_SHAPE_FINGERPRINT>  (1) 
10090160 65 18260543433282363239
10493431 412 18340202007127449720
10835480 77 18261668157181011637
10906281 52 18262816102969926321
11578080 2 16372393793370592677
12730499 353 18410581660316265658
12788726 201 17320997764231757170
13583140 156 17170088392606151058
13955234 65 18265335006019496186
14341114 328 17748821929896304896
14528608 73 18342174466536660341
1454969 45 18340203107203645103
146900 427 18343306942196786609
14787075 74 18412541041982738643
14790565 3 18339928207236581345
15196674 1 18409167701194865819
15375358 24 18334577889672535891
15961568 22 18113340777748572285
17980427 23 17386013930711617167
19591789 44 18122908891447735961
19784866 170 18408045113040247875
22620623 9 16915933170241973366
23227448 37 18198902711464578684
23558518 356 17764030168884677625
23559900 14 18049435942482527427
239999 70 18199752435989247823
34797466 226 17917716781889949029
34934 24 18408882924063797611
350125 39 18337108973987477514
44154327 71 18412261722736582806
474 4 18186807980347926116
5104073 3 18116719517547063417
621550 34 18188767241306825109
6442390 28 18411136974176790346
67856867 119 18263074435987866426
7808743 9 18267297832550128624
9709674 26 17979920415465774871
9981440 41 18260832634805377194
9999458 23 18335984160612805262

>  <PUBCHEM_SHAPE_MULTIPOLES>  (1) 
426.13
12.05
3.2
0.89
1.62
1.62
-0.04
-9.3
0.3
-2.75
-0.31
-0.52
0.06
0.24

>  <PUBCHEM_SHAPE_SELFOVERLAP>  (1) 
900.384

>  <PUBCHEM_SHAPE_VOLUME>  (1) 
243.2

>  <PUBCHEM_COORDINATE_TYPE>  (1) 
2
5
10

$$$$
