43925
     RDKit          3D

 13 12  0  0  0  0  0  0  0  0999 V2000
    0.0089   -0.7279    0.1216 C   0  0  0  0  0  0  0  0  0  0  0  0
   -0.7781    0.4903   -0.4559 C   0  0  0  0  0  0  0  0  0  0  0  0
    1.4796   -0.7014   -0.3867 C   0  0  0  0  0  0  0  0  0  0  0  0
   -2.2505    0.6699    0.0123 C   0  0  0  0  0  0  0  0  0  0  0  0
    2.3723    0.5204   -0.0035 C   0  0  0  0  0  0  0  0  0  0  0  0
   -0.6961   -2.0344   -0.3251 C   0  0  0  0  0  0  0  0  0  0  0  0
   -3.2249   -0.0018   -0.9718 C   0  0  0  0  0  0  0  0  0  0  0  0
   -2.4847    0.1075    1.4197 C   0  0  0  0  0  0  0  0  0  0  0  0
   -2.5611    2.1813    0.0387 C   0  0  0  0  0  0  0  0  0  0  0  0
    2.3208    1.6072   -1.0913 C   0  0  0  0  0  0  0  0  0  0  0  0
    3.8302    0.0224    0.1012 C   0  0  0  0  0  0  0  0  0  0  0  0
    1.9892    1.1543    1.3398 C   0  0  0  0  0  0  0  0  0  0  0  0
   -0.0055   -3.2878    0.2010 C   0  0  0  0  0  0  0  0  0  0  0  0
  1  2  1  0
  1  3  1  0
  1  6  1  0
  2  4  1  0
  3  5  1  0
  4  7  1  0
  4  8  1  0
  4  9  1  0
  5 10  1  0
  5 11  1  0
  5 12  1  0
  6 13  1  0
M  END
>  <PUBCHEM_COMPOUND_CID>  (1) 
43925

>  <PUBCHEM_CONFORMER_RMSD>  (1) 
0.6

>  <PUBCHEM_CONFORMER_DIVERSEORDER>  (1) 
1
2

>  <PUBCHEM_MMFF94_PARTIAL_CHARGES>  (1) 
0

>  <PUBCHEM_EFFECTIVE_ROTOR_COUNT>  (1) 
5

>  <PUBCHEM_PHARMACOPHORE_FEATURES>  (1) 
6
1 13 hydrophobe
4 1 2 4 6 hydrophobe
4 1 3 5 6 hydrophobe
4 4 7 8 9 hydrophobe
4 5 10 11 12 hydrophobe
5 1 2 3 4 5 hydrophobe

>  <PUBCHEM_HEAVY_ATOM_COUNT>  (1) 
13

>  <PUBCHEM_ATOM_DEF_STEREO_COUNT>  (1) 
0

>  <PUBCHEM_ATOM_UDEF_STEREO_COUNT>  (1) 
0

>  <PUBCHEM_BOND_DEF_STEREO_COUNT>  (1) 
0

>  <PUBCHEM_BOND_UDEF_STEREO_COUNT>  (1) 
0

>  <PUBCHEM_ISOTOPIC_ATOM_COUNT>  (1) 
0

>  <PUBCHEM_COMPONENT_COUNT>  (1) 
1

>  <PUBCHEM_CACTVS_TAUTO_COUNT>  (1) 
1

>  <PUBCHEM_CONFORMER_ID>  (1) 
0000AB9500000001

>  <PUBCHEM_MMFF94_ENERGY>  (1) 
45.4655

>  <PUBCHEM_FEATURE_SELFOVERLAP>  (1) 
37.307

>  <PUBCHEM_SHAPE_FINGERPRINT>  (1) 
1 1 18267020557370853830
12932764 1 18060703870676971293
13380535 76 18342453755533623830
13538477 17 18115866489369921998
14648413 74 17903362502759273521
15309172 13 18335425664028136637
15775835 57 18130507444366224673
16945 1 18339366369520881956
18186145 218 17917718959116354564
18511873 20 18335417955142069658
20510252 161 18197496440050016875
21028194 46 18273494580645619004
21501502 16 18195250142521791926
21524375 3 18343864407197434647
23402539 116 18271228508623909101
23526113 38 17632305592322358038
23526114 1 18123748647442540183
23552423 10 18196368113876866679
23557571 272 17696190683681582820
23598294 1 17974584789908793042
2748010 2 18336272219235647959
305870 269 18266737982887569170
5084963 1 18201998828470183957
63268167 104 17988083270682079968
6333449 129 18270118049161691263
6992083 37 18114174276755941892
7364860 26 17981602667733681935
74978 22 18337107994523768708
81228 2 17908702078842266035

>  <PUBCHEM_SHAPE_MULTIPOLES>  (1) 
267.53
5.32
2.59
1.11
1.17
2.16
-0.22
-2.51
0.11
-0.49
0.02
-0.13
-0.3
-0.11

>  <PUBCHEM_SHAPE_SELFOVERLAP>  (1) 
493.349

>  <PUBCHEM_SHAPE_VOLUME>  (1) 
174.9

>  <PUBCHEM_COORDINATE_TYPE>  (1) 
2
5
10

$$$$
