43937
     RDKit          3D

 16 16  0  0  0  0  0  0  0  0999 V2000
    4.2879    1.6107   -0.1181 O   0  0  0  0  0  0  0  0  0  0  0  0
   -4.9161    0.6451    0.6163 O   0  0  0  0  0  0  0  0  0  0  0  0
   -4.3989   -1.2018   -0.4605 O   0  0  0  0  0  0  0  0  0  0  0  0
   -1.6526   -0.5182   -0.0591 N   0  0  0  0  0  0  0  0  0  0  0  0
   -2.3637    1.5856   -0.0804 N   0  0  0  0  0  0  0  0  0  0  0  0
    4.3101    0.3365   -0.0215 N   0  0  0  0  0  0  0  0  0  0  0  0
   -4.0633   -0.0928    0.0452 N   0  0  0  0  0  0  0  0  0  0  0  0
   -0.5571    0.2686   -0.1336 C   0  0  0  0  0  0  0  0  0  0  0  0
   -2.7293    0.3239   -0.0290 C   0  0  0  0  0  0  0  0  0  0  0  0
    0.7460   -0.3274   -0.1814 C   0  0  0  0  0  0  0  0  0  0  0  0
   -0.9933    1.5501   -0.1468 C   0  0  0  0  0  0  0  0  0  0  0  0
   -1.7099   -1.9642   -0.0173 C   0  0  0  0  0  0  0  0  0  0  0  0
    1.8545    0.2905    0.2529 C   0  0  0  0  0  0  0  0  0  0  0  0
    3.1940   -0.3524    0.1623 C   0  0  0  0  0  0  0  0  0  0  0  0
    3.3528   -1.8525    0.2822 C   0  0  0  0  0  0  0  0  0  0  0  0
    5.6390   -0.3016   -0.1114 C   0  0  0  0  0  0  0  0  0  0  0  0
  1  6  1  0
  2  7  1  0
  3  7  2  0
  4  8  1  0
  4  9  1  0
  4 12  1  0
  5  9  2  0
  5 11  1  0
  6 14  2  0
  6 16  1  0
  7  9  1  0
  8 10  1  0
  8 11  2  0
 10 13  2  0
 13 14  1  0
 14 15  1  0
M  CHG  4   1  -1   2  -1   6   1   7   1
M  END
>  <PUBCHEM_COMPOUND_CID>  (1) 
43937

>  <PUBCHEM_CONFORMER_RMSD>  (1) 
0.6

>  <PUBCHEM_CONFORMER_DIVERSEORDER>  (1) 
1
10
4
9
6
2
3
8
7
5

>  <PUBCHEM_MMFF94_PARTIAL_CHARGES>  (1) 
19
1 -0.63
10 -0.11
11 0.08
12 0.26
13 -0.14
14 -0.07
15 0.06
16 0.1
17 0.15
18 0.15
2 -0.52
22 0.15
3 -0.52
4 0.05
5 -0.57
6 0.53
7 0.96
8 -0.2
9 0.27

>  <PUBCHEM_EFFECTIVE_ROTOR_COUNT>  (1) 
3

>  <PUBCHEM_PHARMACOPHORE_FEATURES>  (1) 
5
1 1 anion
1 2 acceptor
1 3 acceptor
4 4 5 7 9 cation
5 4 5 8 9 11 rings

>  <PUBCHEM_HEAVY_ATOM_COUNT>  (1) 
16

>  <PUBCHEM_ATOM_DEF_STEREO_COUNT>  (1) 
0

>  <PUBCHEM_ATOM_UDEF_STEREO_COUNT>  (1) 
0

>  <PUBCHEM_BOND_DEF_STEREO_COUNT>  (1) 
0

>  <PUBCHEM_BOND_UDEF_STEREO_COUNT>  (1) 
2

>  <PUBCHEM_ISOTOPIC_ATOM_COUNT>  (1) 
0

>  <PUBCHEM_COMPONENT_COUNT>  (1) 
1

>  <PUBCHEM_CACTVS_TAUTO_COUNT>  (1) 
1

>  <PUBCHEM_CONFORMER_ID>  (1) 
0000ABA100000001

>  <PUBCHEM_MMFF94_ENERGY>  (1) 
45.0778

>  <PUBCHEM_FEATURE_SELFOVERLAP>  (1) 
25.452

>  <PUBCHEM_SHAPE_FINGERPRINT>  (1) 
10616163 171 18412263969263656054
12107183 9 17618221707052712530
12251169 10 18409167714385794412
13167823 11 18411697664745246830
13533116 47 17313375682901776522
13897977 58 18411421725822982292
14123238 8 18186521003486259350
15196674 1 18410572847006535019
15242433 33 18409730655760005870
17834072 33 18410572907473440566
19050596 39 18408881863159149410
200 152 18411134748977068296
20510252 161 18270681956977326353
20645477 56 18334856104151838332
20645477 70 18340769226727094142
21267235 1 18409456868980398926
21652331 79 18408603677985417444
22485316 2 18410290302725184591
2297311 6 18272662229322334404
23402539 116 18341888589392479885
23557571 272 18271251534497847532
23559900 14 18411976992575692384
3545911 37 18410013226332912326
42 15 18408041784345634758
4214541 1 18410292467615574588
42788 4 18412826888792921433
4463277 17 18408886235615432121
449060 50 18334857221128067996
474 4 17386575798845034636
5104073 3 18337389336082083456
5374978 207 18335415760150128448
542803 24 17489590060657125696
69090 78 18411134736134754195
77779 3 18410856534270886440
9709674 26 18410860923680711310

>  <PUBCHEM_SHAPE_MULTIPOLES>  (1) 
291.74
10.85
1.68
0.62
4.74
0.28
-0.01
0.14
-0.26
-0.07
0.03
-0.06
0.02
-0.34

>  <PUBCHEM_SHAPE_SELFOVERLAP>  (1) 
599.649

>  <PUBCHEM_SHAPE_VOLUME>  (1) 
170.8

>  <PUBCHEM_COORDINATE_TYPE>  (1) 
2
5
10

$$$$
