43944
     RDKit          3D

 23 25  0  0  1  0  0  0  0  0999 V2000
   -3.7841    2.1106    0.0396 S   0  0  0  0  0  0  0  0  0  0  0  0
    0.6992   -2.0544    1.2592 O   0  0  0  0  0  0  0  0  0  0  0  0
   -1.3777   -3.2748    0.0536 O   0  0  0  0  0  0  0  0  0  0  0  0
   -5.2164    1.9687    0.2609 O   0  0  0  0  0  0  0  0  0  0  0  0
   -2.9999    2.9752    0.9103 O   0  0  0  0  0  0  0  0  0  0  0  0
    4.2758    1.7763    0.1881 N   0  0  0  0  0  0  0  0  0  0  0  0
    1.1128    0.0338    0.3689 N   0  0  0  0  0  0  0  0  0  0  0  0
   -3.5207    2.5809   -1.5818 N   0  0  0  0  0  0  0  0  0  0  0  0
    3.3573   -0.5644   -0.4812 C   0  0  0  0  0  0  0  0  0  0  0  0
    2.5248    0.0552    0.6590 C   0  0  0  0  0  0  0  0  0  0  0  0
    3.3623    0.3970   -1.6830 C   0  0  0  0  0  0  0  0  0  0  0  0
    4.8068   -0.6624    0.0241 C   0  0  0  0  0  0  0  0  0  0  0  0
    3.0324    1.4843    0.9390 C   0  0  0  0  0  0  0  0  0  0  0  0
    3.9658    1.7453   -1.2579 C   0  0  0  0  0  0  0  0  0  0  0  0
    5.2779    0.7282    0.4829 C   0  0  0  0  0  0  0  0  0  0  0  0
    0.2687   -1.0482    0.6964 C   0  0  0  0  0  0  0  0  0  0  0  0
   -1.1545   -0.9065    0.3615 C   0  0  0  0  0  0  0  0  0  0  0  0
   -1.7155    0.3640    0.3598 C   0  0  0  0  0  0  0  0  0  0  0  0
   -1.9191   -2.0240    0.0543 C   0  0  0  0  0  0  0  0  0  0  0  0
   -3.0657    0.5192    0.0453 C   0  0  0  0  0  0  0  0  0  0  0  0
   -3.2690   -1.8688   -0.2602 C   0  0  0  0  0  0  0  0  0  0  0  0
   -3.8423   -0.5973   -0.2648 C   0  0  0  0  0  0  0  0  0  0  0  0
   -0.8191   -3.7379   -1.1738 C   0  0  0  0  0  0  0  0  0  0  0  0
  1  4  2  0
  1  5  2  0
  1  8  1  0
  1 20  1  0
  2 16  2  0
  3 19  1  0
  3 23  1  0
  6 13  1  0
  6 14  1  0
  6 15  1  0
  7 10  1  0
  7 16  1  0
  9 10  1  0
  9 11  1  0
  9 12  1  0
 10 13  1  0
 11 14  1  0
 12 15  1  0
 16 17  1  0
 17 18  2  0
 17 19  1  0
 18 20  1  0
 19 21  2  0
 20 22  2  0
 21 22  1  0
M  END
>  <PUBCHEM_COMPOUND_CID>  (1) 
43944

>  <PUBCHEM_CONFORMER_RMSD>  (1) 
0.8

>  <PUBCHEM_CONFORMER_DIVERSEORDER>  (1) 
6
18
12
4
21
13
5
23
25
24
11
10
19
20
17
2
7
22
3
14
15
16
9
8
1

>  <PUBCHEM_MMFF94_PARTIAL_CHARGES>  (1) 
26
1 1.45
10 0.3
13 0.27
14 0.27
15 0.27
16 0.54
17 0.09
18 -0.15
19 0.08
2 -0.57
20 -0.01
21 -0.15
22 -0.15
23 0.28
3 -0.36
36 0.37
37 0.15
38 0.15
39 0.15
4 -0.65
43 0.42
44 0.42
5 -0.65
6 -0.81
7 -0.73
8 -0.98

>  <PUBCHEM_EFFECTIVE_ROTOR_COUNT>  (1) 
6.2

>  <PUBCHEM_PHARMACOPHORE_FEATURES>  (1) 
9
1 2 acceptor
1 3 acceptor
1 4 acceptor
1 5 acceptor
1 6 cation
1 7 donor
1 8 donor
6 17 18 19 20 21 22 rings
8 6 9 10 11 12 13 14 15 rings

>  <PUBCHEM_HEAVY_ATOM_COUNT>  (1) 
23

>  <PUBCHEM_ATOM_DEF_STEREO_COUNT>  (1) 
0

>  <PUBCHEM_ATOM_UDEF_STEREO_COUNT>  (1) 
1

>  <PUBCHEM_BOND_DEF_STEREO_COUNT>  (1) 
0

>  <PUBCHEM_BOND_UDEF_STEREO_COUNT>  (1) 
0

>  <PUBCHEM_ISOTOPIC_ATOM_COUNT>  (1) 
0

>  <PUBCHEM_COMPONENT_COUNT>  (1) 
1

>  <PUBCHEM_CACTVS_TAUTO_COUNT>  (1) 
2

>  <PUBCHEM_CONFORMER_ID>  (1) 
0000ABA800000006

>  <PUBCHEM_MMFF94_ENERGY>  (1) 
56.942

>  <PUBCHEM_FEATURE_SELFOVERLAP>  (1) 
45.696

>  <PUBCHEM_SHAPE_FINGERPRINT>  (1) 
10411042 1 17690559006647449883
10498660 4 18410007719737102145
10646746 165 18411136957065096648
10670039 82 18260274066034816364
11370993 70 18272371970937348878
12107183 9 18191859034093110874
12173636 292 18412541028929148863
12390115 104 18271821094611457993
12788726 201 17973733767803769666
12916748 109 18335424615966614834
13544653 18 9799395737781650705
13583140 156 17702660103036613754
14251751 93 18343861113136892887
14251757 17 18131348643807670600
14508225 48 17695892711962965759
14739800 52 17903069277396600256
14767858 380 18268972273185303669
14790565 3 18270407066792583825
15042514 8 18193560197561782643
15163728 17 18269011816141861709
15961568 22 17618211149981900864
16752209 62 18341601646827936427
16988056 13 16823325291827944965
1741750 31 18410856542660478155
17818456 19 18338789001921274778
18186145 218 18059868276320763642
18785283 64 18049448041590107563
20645477 56 18412831308382802019
20645477 70 16701754799705775110
21033650 10 18192457318779009468
21524375 3 18261957353680219123
21864079 5 17823434840750161676
22122407 14 15864068776066192093
22393880 68 18272662281152086086
23366157 5 18047189644875772523
235170 7 17275112742548097772
23557571 272 18200879586142510248
23559900 14 18201721705023474250
2838139 119 16589958630689389143
3298306 158 18131357379776678630
38570 142 16517406316685342276
4214541 1 18411418423240986584
469060 322 17970085502976974297
474 4 17748829604876073626
5104073 3 18333446547641034450
559249 180 18410570653006513634
5895379 119 18336276720926416028
6328613 192 18114190770127093700
633830 44 17530968016468961810
7399639 24 17267491130050072904
9709674 26 18201727296775637758
9981440 41 18409449172304592283

>  <PUBCHEM_SHAPE_MULTIPOLES>  (1) 
438.76
10.78
3.56
1.17
5.42
1.37
0.35
-6.85
0.95
-4.18
0.6
0.55
-0.19
-0.22

>  <PUBCHEM_SHAPE_SELFOVERLAP>  (1) 
922.632

>  <PUBCHEM_SHAPE_VOLUME>  (1) 
250

>  <PUBCHEM_COORDINATE_TYPE>  (1) 
2
5
10

$$$$
