43947
     RDKit          3D

 23 25  0  0  0  0  0  0  0  0999 V2000
    3.8534   -2.1001    0.0772 S   0  0  0  0  0  0  0  0  0  0  0  0
   -0.9508    1.7473   -0.8133 O   0  0  0  0  0  0  0  0  0  0  0  0
    1.1369    3.1357    0.0450 O   0  0  0  0  0  0  0  0  0  0  0  0
    5.1117   -1.9546    0.7956 O   0  0  0  0  0  0  0  0  0  0  0  0
    2.8987   -3.1194    0.4897 O   0  0  0  0  0  0  0  0  0  0  0  0
   -5.1573   -0.6391   -0.0339 N   0  0  0  0  0  0  0  0  0  0  0  0
   -1.1340   -0.3067    0.2480 N   0  0  0  0  0  0  0  0  0  0  0  0
    4.1884   -2.3035   -1.5858 N   0  0  0  0  0  0  0  0  0  0  0  0
   -2.5664   -0.4231    0.1464 C   0  0  0  0  0  0  0  0  0  0  0  0
   -3.2776    0.7405    0.8640 C   0  0  0  0  0  0  0  0  0  0  0  0
   -3.0281   -0.4150   -1.3228 C   0  0  0  0  0  0  0  0  0  0  0  0
   -3.0660   -1.7340    0.7841 C   0  0  0  0  0  0  0  0  0  0  0  0
   -4.7998    0.5732    0.7336 C   0  0  0  0  0  0  0  0  0  0  0  0
   -4.5587   -0.5431   -1.3825 C   0  0  0  0  0  0  0  0  0  0  0  0
   -4.5949   -1.8208    0.6540 C   0  0  0  0  0  0  0  0  0  0  0  0
   -0.4361    0.7859   -0.2483 C   0  0  0  0  0  0  0  0  0  0  0  0
    1.0403    0.7431   -0.0884 C   0  0  0  0  0  0  0  0  0  0  0  0
    1.6578   -0.4921   -0.0832 C   0  0  0  0  0  0  0  0  0  0  0  0
    1.7501    1.9185    0.0502 C   0  0  0  0  0  0  0  0  0  0  0  0
    3.0433   -0.5534    0.0667 C   0  0  0  0  0  0  0  0  0  0  0  0
    3.1354    1.8573    0.2000 C   0  0  0  0  0  0  0  0  0  0  0  0
    3.7820    0.6214    0.2081 C   0  0  0  0  0  0  0  0  0  0  0  0
    1.9716    4.2819    0.1958 C   0  0  0  0  0  0  0  0  0  0  0  0
  1  4  2  0
  1  5  2  0
  1  8  1  0
  1 20  1  0
  2 16  2  0
  3 19  1  0
  3 23  1  0
  6 13  1  0
  6 14  1  0
  6 15  1  0
  7  9  1  0
  7 16  1  0
  9 10  1  0
  9 11  1  0
  9 12  1  0
 10 13  1  0
 11 14  1  0
 12 15  1  0
 16 17  1  0
 17 18  2  0
 17 19  1  0
 18 20  1  0
 19 21  2  0
 20 22  2  0
 21 22  1  0
M  END
>  <PUBCHEM_COMPOUND_CID>  (1) 
43947

>  <PUBCHEM_CONFORMER_RMSD>  (1) 
0.8

>  <PUBCHEM_CONFORMER_DIVERSEORDER>  (1) 
10
9
2
7
4
3
5
6
8
1

>  <PUBCHEM_MMFF94_PARTIAL_CHARGES>  (1) 
26
1 1.45
13 0.27
14 0.27
15 0.27
16 0.54
17 0.09
18 -0.15
19 0.08
2 -0.57
20 -0.01
21 -0.15
22 -0.15
23 0.28
3 -0.36
36 0.37
37 0.15
38 0.15
39 0.15
4 -0.65
43 0.42
44 0.42
5 -0.65
6 -0.81
7 -0.73
8 -0.98
9 0.3

>  <PUBCHEM_EFFECTIVE_ROTOR_COUNT>  (1) 
6.2

>  <PUBCHEM_PHARMACOPHORE_FEATURES>  (1) 
9
1 2 acceptor
1 3 acceptor
1 4 acceptor
1 5 acceptor
1 6 cation
1 7 donor
1 8 donor
6 17 18 19 20 21 22 rings
8 6 9 10 11 12 13 14 15 rings

>  <PUBCHEM_HEAVY_ATOM_COUNT>  (1) 
23

>  <PUBCHEM_ATOM_DEF_STEREO_COUNT>  (1) 
0

>  <PUBCHEM_ATOM_UDEF_STEREO_COUNT>  (1) 
0

>  <PUBCHEM_BOND_DEF_STEREO_COUNT>  (1) 
0

>  <PUBCHEM_BOND_UDEF_STEREO_COUNT>  (1) 
0

>  <PUBCHEM_ISOTOPIC_ATOM_COUNT>  (1) 
0

>  <PUBCHEM_COMPONENT_COUNT>  (1) 
1

>  <PUBCHEM_CACTVS_TAUTO_COUNT>  (1) 
2

>  <PUBCHEM_CONFORMER_ID>  (1) 
0000ABAB0000000A

>  <PUBCHEM_MMFF94_ENERGY>  (1) 
61.5426

>  <PUBCHEM_FEATURE_SELFOVERLAP>  (1) 
45.698

>  <PUBCHEM_SHAPE_FINGERPRINT>  (1) 
10622 236 17772442781420595999
11370993 144 18334859433395155241
11405975 8 18412549821122628361
114674 6 18261108603966239034
12107183 9 18197788695906545289
12236239 1 17703792560672682645
12363563 72 18337959991354850806
12516196 113 18411417281069914082
12553582 1 18337955558880152898
12596602 18 16415468372707261690
12760667 363 18191019011177584586
12788726 201 17972038033490336074
13009979 54 17845669057359774560
13134695 92 18410570699813096116
13140716 1 17907009930921716520
13167823 11 18272933838674893343
13533116 47 18340207505165454723
13544592 145 18113330912730353967
13544653 18 18408322168242442356
13583140 156 18336823212395892735
138480 1 18410012152296234968
13955234 65 18267868469872582784
14739800 52 17131261501698188624
14790565 3 17903925805170000036
14866123 147 17546727049719339298
15042514 8 17978793402766464832
15352361 1 18336826394803388242
15442244 35 18340773658669016041
15475509 84 17845376557265871232
15848702 151 18410855473371785849
15927050 60 17836084855862657484
17349148 13 17632860832535228735
17492 89 18266462186354178235
17818456 19 17631745841792895529
1813 80 18272097037258685334
18186145 218 17822286916356149673
18222031 100 18201719522821340134
200 152 18129940195725215293
20281475 54 18334299768326642588
20403669 9 18338237068037331958
20645477 70 18334853960841818818
20681651 13 17772198771706857947
20693207 138 18040434412616051575
20832881 197 18260830341408385099
21033650 10 16081359705602354805
21065198 57 18337674217337143665
21065201 7 17022892493592985883
21250096 35 18336825290938816330
21279426 13 18262791849163181021
21478907 32 18121780526371810962
221490 88 18335140907838765232
2215653 11 18334006186517840679
2255824 54 18268711778438199964
23559900 14 18409443721673971641
3004659 81 17967817103078168562
3091708 16 9140858646121049608
312423 11 18270977798724942025
314173 41 18410581660675071886
314173 85 18341332176358359126
33824 294 18337669819264239314
3421961 26 18411134745193869160
46194498 28 17458347497709229719
463206 1 18261394399438014986
474 4 18123466347821948905
5104073 3 18343025501669219107
5281201 14 17967249810358631333
573450 72 17418373589078240067
6443956 14 18408888421331662724
7097593 13 18271805769445361589
7970288 3 18266457607792842714
8863177 126 17969521448932751387
9709674 26 18262804102430654155
9841814 1 18261385651026489016
9971528 1 18342172263329285264
9981440 41 17690834987875160448

>  <PUBCHEM_SHAPE_MULTIPOLES>  (1) 
438.76
11.08
3.59
1.03
5.91
2.19
0.28
-6.24
-0.47
-5.38
-0.27
0.58
-0.34
0.29

>  <PUBCHEM_SHAPE_SELFOVERLAP>  (1) 
928.784

>  <PUBCHEM_SHAPE_VOLUME>  (1) 
247.5

>  <PUBCHEM_COORDINATE_TYPE>  (1) 
2
5
10

$$$$
