43950
     RDKit          3D

 30 34  0  0  1  0  0  0  0  0999 V2000
   -1.9205    4.8612    0.7425 Cl  0  0  0  0  0  0  0  0  0  0  0  0
   -4.2539   -0.6477   -2.2258 O   0  0  0  0  0  0  0  0  0  0  0  0
   -5.3878   -1.9038   -0.0223 O   0  0  0  0  0  0  0  0  0  0  0  0
    0.7807   -0.6164    1.3063 N   0  0  0  0  0  0  0  0  0  0  0  0
    2.4796    1.1442   -0.6734 N   0  0  0  0  0  0  0  0  0  0  0  0
   -0.0129   -0.0309    0.1910 C   0  0  0  0  0  0  0  0  0  0  0  0
    0.0381   -0.5742    2.5736 C   0  0  0  0  0  0  0  0  0  0  0  0
   -1.4514   -0.5404    0.1424 C   0  0  0  0  0  0  0  0  0  0  0  0
   -1.2153   -1.4434    2.4894 C   0  0  0  0  0  0  0  0  0  0  0  0
   -2.0291   -1.1778    1.2532 C   0  0  0  0  0  0  0  0  0  0  0  0
    2.1153   -0.0206    1.4937 C   0  0  0  0  0  0  0  0  0  0  0  0
    0.1494    1.4885    0.0763 C   0  0  0  0  0  0  0  0  0  0  0  0
   -2.2156   -0.3756   -1.0262 C   0  0  0  0  0  0  0  0  0  0  0  0
    2.8075    0.1870    0.1488 C   0  0  0  0  0  0  0  0  0  0  0  0
    1.3998    1.9955   -0.3565 C   0  0  0  0  0  0  0  0  0  0  0  0
   -3.3524   -1.6356    1.1819 C   0  0  0  0  0  0  0  0  0  0  0  0
   -0.8628    2.3930    0.4334 C   0  0  0  0  0  0  0  0  0  0  0  0
   -3.5342   -0.8260   -1.0832 C   0  0  0  0  0  0  0  0  0  0  0  0
   -4.1027   -1.4540    0.0210 C   0  0  0  0  0  0  0  0  0  0  0  0
    3.9152   -0.7331   -0.2323 C   0  0  0  0  0  0  0  0  0  0  0  0
    1.5810    3.3778   -0.4857 C   0  0  0  0  0  0  0  0  0  0  0  0
   -0.6614    3.7686    0.3123 C   0  0  0  0  0  0  0  0  0  0  0  0
    0.5544    4.2599   -0.1542 C   0  0  0  0  0  0  0  0  0  0  0  0
    3.9142   -2.0447    0.2326 C   0  0  0  0  0  0  0  0  0  0  0  0
    4.9429   -0.2750   -1.0509 C   0  0  0  0  0  0  0  0  0  0  0  0
    4.9511   -2.9065   -0.1244 C   0  0  0  0  0  0  0  0  0  0  0  0
    5.9799   -1.1370   -1.4078 C   0  0  0  0  0  0  0  0  0  0  0  0
   -5.0017    0.5615   -2.3390 C   0  0  0  0  0  0  0  0  0  0  0  0
   -5.5914   -3.2419   -0.4721 C   0  0  0  0  0  0  0  0  0  0  0  0
    5.9840   -2.4527   -0.9446 C   0  0  0  0  0  0  0  0  0  0  0  0
  1 22  1  0
  2 18  1  0
  2 28  1  0
  3 19  1  0
  3 29  1  0
  4  6  1  0
  4  7  1  0
  4 11  1  0
  5 14  2  0
  5 15  1  0
  6  8  1  0
  6 12  1  0
  7  9  1  0
  8 10  2  0
  8 13  1  0
  9 10  1  0
 10 16  1  0
 11 14  1  0
 12 15  2  0
 12 17  1  0
 13 18  2  0
 14 20  1  0
 15 21  1  0
 16 19  2  0
 17 22  2  0
 18 19  1  0
 20 24  2  0
 20 25  1  0
 21 23  2  0
 22 23  1  0
 24 26  1  0
 25 27  2  0
 26 30  2  0
 27 30  1  0
M  END
>  <PUBCHEM_COMPOUND_CID>  (1) 
43950

>  <PUBCHEM_CONFORMER_RMSD>  (1) 
0.8

>  <PUBCHEM_CONFORMER_DIVERSEORDER>  (1) 
1
7
2
4
8
6
5
3

>  <PUBCHEM_MMFF94_PARTIAL_CHARGES>  (1) 
40
1 -0.18
10 -0.14
11 0.33
12 -0.14
13 -0.15
14 0.3
15 0.18
16 -0.15
17 -0.15
18 0.08
19 0.08
2 -0.36
20 0.09
21 -0.15
22 0.18
23 -0.15
24 -0.15
25 -0.15
26 -0.15
27 -0.15
28 0.28
29 0.28
3 -0.36
30 -0.15
38 0.15
39 0.15
4 -0.81
40 0.15
41 0.15
42 0.15
43 0.15
44 0.15
45 0.15
46 0.15
5 -0.63
53 0.15
6 0.56
7 0.27
8 -0.14
9 0.14

>  <PUBCHEM_EFFECTIVE_ROTOR_COUNT>  (1) 
3.6

>  <PUBCHEM_PHARMACOPHORE_FEATURES>  (1) 
9
1 2 acceptor
1 3 acceptor
1 4 cation
1 5 acceptor
6 12 15 17 21 22 23 rings
6 20 24 25 26 27 30 rings
6 4 6 7 8 9 10 rings
6 8 10 13 16 18 19 rings
7 4 5 6 11 12 14 15 rings

>  <PUBCHEM_HEAVY_ATOM_COUNT>  (1) 
30

>  <PUBCHEM_ATOM_DEF_STEREO_COUNT>  (1) 
0

>  <PUBCHEM_ATOM_UDEF_STEREO_COUNT>  (1) 
1

>  <PUBCHEM_BOND_DEF_STEREO_COUNT>  (1) 
0

>  <PUBCHEM_BOND_UDEF_STEREO_COUNT>  (1) 
0

>  <PUBCHEM_ISOTOPIC_ATOM_COUNT>  (1) 
0

>  <PUBCHEM_COMPONENT_COUNT>  (1) 
1

>  <PUBCHEM_CACTVS_TAUTO_COUNT>  (1) 
2

>  <PUBCHEM_CONFORMER_ID>  (1) 
0000ABAE00000001

>  <PUBCHEM_MMFF94_ENERGY>  (1) 
123.2996

>  <PUBCHEM_FEATURE_SELFOVERLAP>  (1) 
45.725

>  <PUBCHEM_SHAPE_FINGERPRINT>  (1) 
10254770 206 16172851971011382314
10622 236 17557974324092531575
11115154 58 18410857672790927337
11578080 2 17845923032267713176
11720765 8 18270391806399221245
11991303 11 17902524691752373548
12107183 9 18271261469131288579
12166972 35 18059579151860040651
12553582 1 18334864900598236906
12788726 201 18190457169282982226
13009979 54 17917443054902014521
13165053 182 17604451664093328140
13757389 114 17908161879932427292
13782708 43 17823422780725042699
13911987 19 17613464524346930236
140371 6 18189626102071035800
14508225 48 18408886209624400948
14713325 29 18126568920611091622
14790565 3 17399246253037602648
14866123 147 18050851018025800969
15444296 8 18342183245729363045
15629462 23 18337678516715380347
15775530 1 17248099038944093882
16992727 255 17824816737698116949
17349148 13 17489595600980808743
17909252 39 18340767130461079212
1813 80 18130522893468849910
18393751 57 17911495900331037896
19301676 85 16468977965762932142
19311894 1 18411416173285142181
20775438 99 17763164140016494879
21703447 108 18341040866513118048
221357 26 18188204403344482055
22393880 68 17895458320147667935
23175994 123 18335988648531180963
23536364 44 18187362095469074285
23559900 14 18336541719774939376
2838139 119 14201114600943915934
3027735 51 18127694824919104526
3610482 184 17682152918646481158
44062 13 17909558259894420286
4461854 278 17909854045882062113
46194498 28 17970063559403717063
463206 1 18336271253185452594
513202 73 18126862503539194078
5171179 24 18272650139338043360
5309563 4 18411986870663389294
57527295 17 17967807249927384779
5969126 39 18412267203900719196
6004065 56 18194119848842540642
613672 6 18339344345155642722
6438754 60 18410007741042886866
70251023 43 18412268362988053264
7970288 3 18412828005648858486
9658208 31 17838604570898423288

>  <PUBCHEM_SHAPE_MULTIPOLES>  (1) 
597.55
11.69
4.97
1.86
5.9
6.98
0.37
-14.08
-7.14
-2.02
0.32
-1.43
-0.71
0.15

>  <PUBCHEM_SHAPE_SELFOVERLAP>  (1) 
1310.073

>  <PUBCHEM_SHAPE_VOLUME>  (1) 
322.9

>  <PUBCHEM_COORDINATE_TYPE>  (1) 
2
5
10

$$$$
