43952
     RDKit          3D

 36 41  0  0  1  0  0  0  0  0999 V2000
    2.6657   -6.0534   -0.7539 Cl  0  0  0  0  0  0  0  0  0  0  0  0
    5.1686    1.9492   -2.3276 O   0  0  0  0  0  0  0  0  0  0  0  0
    6.0777    3.3283   -0.0939 O   0  0  0  0  0  0  0  0  0  0  0  0
    0.7946    0.0310    1.5466 N   0  0  0  0  0  0  0  0  0  0  0  0
   -0.4667   -2.0226   -0.4776 N   0  0  0  0  0  0  0  0  0  0  0  0
    1.6101   -0.1806    0.3191 C   0  0  0  0  0  0  0  0  0  0  0  0
    1.6415    0.1312    2.7433 C   0  0  0  0  0  0  0  0  0  0  0  0
    2.8041    0.7656    0.2181 C   0  0  0  0  0  0  0  0  0  0  0  0
    2.5447    1.3604    2.6591 C   0  0  0  0  0  0  0  0  0  0  0  0
    3.2668    1.4665    1.3444 C   0  0  0  0  0  0  0  0  0  0  0  0
   -0.2598   -0.9741    1.7683 C   0  0  0  0  0  0  0  0  0  0  0  0
    1.9194   -1.6580    0.0554 C   0  0  0  0  0  0  0  0  0  0  0  0
   -0.9893   -1.2879    0.4643 C   0  0  0  0  0  0  0  0  0  0  0  0
    3.4549    0.9459   -1.0150 C   0  0  0  0  0  0  0  0  0  0  0  0
    0.8519   -2.5042   -0.3347 C   0  0  0  0  0  0  0  0  0  0  0  0
    4.3657    2.3288    1.2240 C   0  0  0  0  0  0  0  0  0  0  0  0
    3.1950   -2.2147    0.2374 C   0  0  0  0  0  0  0  0  0  0  0  0
    4.5533    1.7985   -1.1218 C   0  0  0  0  0  0  0  0  0  0  0  0
    5.0094    2.4881   -0.0023 C   0  0  0  0  0  0  0  0  0  0  0  0
   -2.3624   -0.7452    0.2672 C   0  0  0  0  0  0  0  0  0  0  0  0
    1.0990   -3.8572   -0.5968 C   0  0  0  0  0  0  0  0  0  0  0  0
    3.4218   -3.5685   -0.0145 C   0  0  0  0  0  0  0  0  0  0  0  0
    2.3785   -4.3862   -0.4389 C   0  0  0  0  0  0  0  0  0  0  0  0
   -2.7233    0.4571    0.8677 C   0  0  0  0  0  0  0  0  0  0  0  0
   -3.2751   -1.4448   -0.5164 C   0  0  0  0  0  0  0  0  0  0  0  0
   -4.0094    0.9647    0.6830 C   0  0  0  0  0  0  0  0  0  0  0  0
   -4.5611   -0.9370   -0.7011 C   0  0  0  0  0  0  0  0  0  0  0  0
   -4.9281    0.2677   -0.1015 C   0  0  0  0  0  0  0  0  0  0  0  0
    6.2404    1.0561   -2.6246 C   0  0  0  0  0  0  0  0  0  0  0  0
    5.8048    4.6915   -0.4125 C   0  0  0  0  0  0  0  0  0  0  0  0
   -6.2625    0.7935   -0.2931 C   0  0  0  0  0  0  0  0  0  0  0  0
   -7.2829    0.4454    0.5919 C   0  0  0  0  0  0  0  0  0  0  0  0
   -6.5284    1.6489   -1.3625 C   0  0  0  0  0  0  0  0  0  0  0  0
   -8.5693    0.9524    0.4075 C   0  0  0  0  0  0  0  0  0  0  0  0
   -7.8148    2.1559   -1.5468 C   0  0  0  0  0  0  0  0  0  0  0  0
   -8.8352    1.8076   -0.6616 C   0  0  0  0  0  0  0  0  0  0  0  0
  1 23  1  0
  2 18  1  0
  2 29  1  0
  3 19  1  0
  3 30  1  0
  4  6  1  0
  4  7  1  0
  4 11  1  0
  5 13  2  0
  5 15  1  0
  6  8  1  0
  6 12  1  0
  7  9  1  0
  8 10  2  0
  8 14  1  0
  9 10  1  0
 10 16  1  0
 11 13  1  0
 12 15  2  0
 12 17  1  0
 13 20  1  0
 14 18  2  0
 15 21  1  0
 16 19  2  0
 17 22  2  0
 18 19  1  0
 20 24  2  0
 20 25  1  0
 21 23  2  0
 22 23  1  0
 24 26  1  0
 25 27  2  0
 26 28  2  0
 27 28  1  0
 28 31  1  0
 31 32  2  0
 31 33  1  0
 32 34  1  0
 33 35  2  0
 34 36  2  0
 35 36  1  0
M  END
>  <PUBCHEM_COMPOUND_CID>  (1) 
43952

>  <PUBCHEM_CONFORMER_RMSD>  (1) 
0.8

>  <PUBCHEM_CONFORMER_DIVERSEORDER>  (1) 
1
5
6
8
4
7
2
9
3

>  <PUBCHEM_MMFF94_PARTIAL_CHARGES>  (1) 
48
1 -0.18
10 -0.14
11 0.33
12 -0.14
13 0.3
14 -0.15
15 0.18
16 -0.15
17 -0.15
18 0.08
19 0.08
2 -0.36
20 0.09
21 -0.15
22 -0.15
23 0.18
24 -0.15
25 -0.15
26 -0.15
27 -0.15
29 0.28
3 -0.36
30 0.28
32 -0.15
33 -0.15
34 -0.15
35 -0.15
36 -0.15
4 -0.81
44 0.15
45 0.15
46 0.15
47 0.15
48 0.15
49 0.15
5 -0.63
50 0.15
51 0.15
52 0.15
59 0.15
6 0.56
60 0.15
61 0.15
62 0.15
63 0.15
7 0.27
8 -0.14
9 0.14

>  <PUBCHEM_EFFECTIVE_ROTOR_COUNT>  (1) 
4.6

>  <PUBCHEM_PHARMACOPHORE_FEATURES>  (1) 
10
1 2 acceptor
1 3 acceptor
1 4 cation
1 5 acceptor
6 12 15 17 21 22 23 rings
6 20 24 25 26 27 28 rings
6 31 32 33 34 35 36 rings
6 4 6 7 8 9 10 rings
6 8 10 14 16 18 19 rings
7 4 5 6 11 12 13 15 rings

>  <PUBCHEM_HEAVY_ATOM_COUNT>  (1) 
36

>  <PUBCHEM_ATOM_DEF_STEREO_COUNT>  (1) 
0

>  <PUBCHEM_ATOM_UDEF_STEREO_COUNT>  (1) 
1

>  <PUBCHEM_BOND_DEF_STEREO_COUNT>  (1) 
0

>  <PUBCHEM_BOND_UDEF_STEREO_COUNT>  (1) 
0

>  <PUBCHEM_ISOTOPIC_ATOM_COUNT>  (1) 
0

>  <PUBCHEM_COMPONENT_COUNT>  (1) 
1

>  <PUBCHEM_CACTVS_TAUTO_COUNT>  (1) 
2

>  <PUBCHEM_CONFORMER_ID>  (1) 
0000ABB000000001

>  <PUBCHEM_MMFF94_ENERGY>  (1) 
148.4122

>  <PUBCHEM_FEATURE_SELFOVERLAP>  (1) 
50.801

>  <PUBCHEM_SHAPE_FINGERPRINT>  (1) 
10411042 1 17765434245260578286
10554248 39 18269818841156423183
10673678 19 18410863178358868950
10675989 125 18272093803512633304
10721379 63 18269845233240274982
11135609 127 18410566271875555997
11621639 179 18186799202195000788
1200032 147 18260833712947123896
12124843 1 17917436487459994261
12166972 35 17985544438568571635
12440610 7 18114188570524141363
12717326 69 10374709677909115213
12741549 16 17900814947720421302
13383665 225 18188782763999803575
13540713 4 18188788196927893267
13540713 5 17701552697053083969
13782708 43 10592043575162750865
13878862 14 18194942099003950343
13944108 23 18410006615762130841
14068700 675 17843407276796837274
14118638 360 18271232916437287295
14294032 229 18195810889278842315
14747281 78 18341909454491589071
14931854 50 17775291573008429305
15082195 135 18340487746864156635
15183329 4 17132110226786875033
15198563 99 17405423794108191070
15439362 3 18409166615122463126
15484559 13 17989771094546677718
17899979 129 18411421717249060272
19053607 189 18339347652375679553
19304144 158 18260260889423454197
21033648 29 18127123302458724872
21133410 127 18259978267005486269
21583282 1 18342173367236030021
22393880 68 17774438407555832703
22899556 56 17170403076385630936
23516275 100 18040705966530715077
23522609 53 17631749166851878977
23523766 6 17981890735485874262
23559900 14 18199456676721567315
23569914 2 17244381345871868589
24180151 248 18264212409148050629
249057 25 17702943605485691659
25025965 108 16121955797494450798
27425 322 17821726152557471891
3534868 343 17701261326282220979
3633792 109 18343026610382866240
3918712 181 18341890856930601160
397830 11 18186811284053535563
4073 2 18408040733002411371
4093350 32 18261110751254259501
44317340 157 18340762651384981759
44802255 64 17901979614212256262
45377200 153 15769202995444260303
46194498 28 18189897513532891463
5109719 28 17967823747688065929
513532 50 15913314810841880642
5718773 13 10231768794332847945
6201460 15 11956689172533268317
6376802 90 17837220634278612212
9849439 229 18268701869842854528
9962374 69 18199169708550419215

>  <PUBCHEM_SHAPE_MULTIPOLES>  (1) 
721.03
20.59
5.67
1.9
48.18
6.51
0.35
-22.5
-8.74
-13.03
-1.96
-2.22
-1.13
0.47

>  <PUBCHEM_SHAPE_SELFOVERLAP>  (1) 
1594.724

>  <PUBCHEM_SHAPE_VOLUME>  (1) 
386.4

>  <PUBCHEM_COORDINATE_TYPE>  (1) 
2
5
10

$$$$
