43954
     RDKit          3D

 31 35  0  0  0  0  0  0  0  0999 V2000
   -7.5371   -2.5023   -1.2172 Br  0  0  0  0  0  0  0  0  0  0  0  0
    2.7023    4.9527    0.6132 Cl  0  0  0  0  0  0  0  0  0  0  0  0
    4.4846   -0.5852   -1.9865 O   0  0  0  0  0  0  0  0  0  0  0  0
    5.1407   -2.7346   -0.3565 O   0  0  0  0  0  0  0  0  0  0  0  0
   -0.4816   -0.3049    1.4009 N   0  0  0  0  0  0  0  0  0  0  0  0
   -1.9389    1.4426   -0.5829 N   0  0  0  0  0  0  0  0  0  0  0  0
   -0.3459   -1.7161    1.9023 C   0  0  0  0  0  0  0  0  0  0  0  0
    0.4795    0.2733    0.7382 C   0  0  0  0  0  0  0  0  0  0  0  0
    1.0941   -1.9836    2.3198 C   0  0  0  0  0  0  0  0  0  0  0  0
    1.7171   -0.5026    0.4044 C   0  0  0  0  0  0  0  0  0  0  0  0
    2.0196   -1.6229    1.1943 C   0  0  0  0  0  0  0  0  0  0  0  0
   -1.7956    0.3713    1.6449 C   0  0  0  0  0  0  0  0  0  0  0  0
    0.3666    1.7049    0.3259 C   0  0  0  0  0  0  0  0  0  0  0  0
   -2.4276    0.6050    0.2836 C   0  0  0  0  0  0  0  0  0  0  0  0
    2.5405   -0.1698   -0.6765 C   0  0  0  0  0  0  0  0  0  0  0  0
    3.1785   -2.3621    0.9384 C   0  0  0  0  0  0  0  0  0  0  0  0
   -0.7984    2.2101   -0.2824 C   0  0  0  0  0  0  0  0  0  0  0  0
    3.6868   -0.9233   -0.9345 C   0  0  0  0  0  0  0  0  0  0  0  0
    4.0096   -2.0113   -0.1247 C   0  0  0  0  0  0  0  0  0  0  0  0
    1.4384    2.5639    0.6190 C   0  0  0  0  0  0  0  0  0  0  0  0
   -3.6650   -0.1469   -0.0786 C   0  0  0  0  0  0  0  0  0  0  0  0
   -0.8297    3.5658   -0.6428 C   0  0  0  0  0  0  0  0  0  0  0  0
    1.3789    3.9101    0.2638 C   0  0  0  0  0  0  0  0  0  0  0  0
    0.2486    4.4095   -0.3739 C   0  0  0  0  0  0  0  0  0  0  0  0
   -3.8834   -1.4147    0.4519 C   0  0  0  0  0  0  0  0  0  0  0  0
   -4.5915    0.4246   -0.9455 C   0  0  0  0  0  0  0  0  0  0  0  0
   -5.0394   -2.1177    0.1121 C   0  0  0  0  0  0  0  0  0  0  0  0
   -5.7474   -0.2784   -1.2851 C   0  0  0  0  0  0  0  0  0  0  0  0
   -5.9714   -1.5494   -0.7563 C   0  0  0  0  0  0  0  0  0  0  0  0
    5.5388    0.3397   -1.7285 C   0  0  0  0  0  0  0  0  0  0  0  0
    5.0282   -3.8477   -1.2408 C   0  0  0  0  0  0  0  0  0  0  0  0
  1 29  1  0
  2 23  1  0
  3 18  1  0
  3 30  1  0
  4 19  1  0
  4 31  1  0
  5  7  1  0
  5  8  2  0
  5 12  1  0
  6 14  2  0
  6 17  1  0
  7  9  1  0
  8 10  1  0
  8 13  1  0
  9 11  1  0
 10 11  2  0
 10 15  1  0
 11 16  1  0
 12 14  1  0
 13 17  2  0
 13 20  1  0
 14 21  1  0
 15 18  2  0
 16 19  2  0
 17 22  1  0
 18 19  1  0
 20 23  2  0
 21 25  2  0
 21 26  1  0
 22 24  2  0
 23 24  1  0
 25 27  1  0
 26 28  2  0
 27 29  2  0
 28 29  1  0
M  CHG  1   5   1
M  END
>  <PUBCHEM_COMPOUND_CID>  (1) 
43954

>  <PUBCHEM_CONFORMER_RMSD>  (1) 
0.8

>  <PUBCHEM_CONFORMER_DIVERSEORDER>  (1) 
1
2

>  <PUBCHEM_MMFF94_PARTIAL_CHARGES>  (1) 
40
1 -0.11
10 0.09
11 -0.14
12 0.41
13 0.09
14 0.3
15 -0.15
16 -0.15
17 0.18
18 0.08
19 0.08
2 -0.18
20 -0.15
21 0.09
22 -0.15
23 0.18
24 -0.15
25 -0.15
26 -0.15
27 -0.15
28 -0.15
29 0.11
3 -0.36
30 0.28
31 0.28
38 0.15
39 0.15
4 -0.36
40 0.15
41 0.15
42 0.15
43 0.15
44 0.15
45 0.15
46 0.15
5 -0.09
6 -0.63
7 0.35
8 0.23
9 0.14

>  <PUBCHEM_EFFECTIVE_ROTOR_COUNT>  (1) 
3.6

>  <PUBCHEM_PHARMACOPHORE_FEATURES>  (1) 
9
1 1 hydrophobe
1 3 acceptor
1 4 acceptor
1 6 acceptor
6 10 11 15 16 18 19 rings
6 13 17 20 22 23 24 rings
6 21 25 26 27 28 29 rings
6 5 7 8 9 10 11 rings
7 5 6 8 12 13 14 17 rings

>  <PUBCHEM_HEAVY_ATOM_COUNT>  (1) 
31

>  <PUBCHEM_ATOM_DEF_STEREO_COUNT>  (1) 
0

>  <PUBCHEM_ATOM_UDEF_STEREO_COUNT>  (1) 
0

>  <PUBCHEM_BOND_DEF_STEREO_COUNT>  (1) 
0

>  <PUBCHEM_BOND_UDEF_STEREO_COUNT>  (1) 
0

>  <PUBCHEM_ISOTOPIC_ATOM_COUNT>  (1) 
0

>  <PUBCHEM_COMPONENT_COUNT>  (1) 
1

>  <PUBCHEM_CACTVS_TAUTO_COUNT>  (1) 
2

>  <PUBCHEM_CONFORMER_ID>  (1) 
0000ABB200000001

>  <PUBCHEM_MMFF94_ENERGY>  (1) 
131.6694

>  <PUBCHEM_FEATURE_SELFOVERLAP>  (1) 
45.727

>  <PUBCHEM_SHAPE_FINGERPRINT>  (1) 
10169797 241 17824827982244244851
10693767 8 18412258463025743063
11227688 84 18189067412635859419
11445158 3 16701435902868911776
11621639 208 17614562970681099779
11961588 58 16298385807592046987
12107183 9 18270405989187886953
12522641 33 18051970617295430116
12553582 1 18262795151913533641
12597179 24 17903919207698897320
12788726 201 17901101923895311689
13009979 54 18059858351157926985
131258 43 17988650717793652008
13533116 47 18199462354957560371
13690498 29 18334571335810866575
13692114 37 17331663061058532755
13757389 114 17910116811601130073
13782708 43 17416961730075439206
14068700 675 18060139830123513099
14739800 52 12252168702429874063
14790565 3 17545037100686278585
14931854 50 18113625577188004590
15775530 1 17537458578998295698
15968369 26 17827357996716320125
16989378 47 18201153356027092071
17492 54 18187653525985161898
17909252 39 18411984697351622729
1813 80 18202847638683069341
19319366 153 17676480640474031363
20028762 73 17401761321239123343
20775438 99 18050270759629275847
21133410 32 16372730355419182642
2132832 1 17461425946063755514
21344244 246 18267582596822778840
22393880 68 18187354472477305615
23559900 14 18339913905606869641
24771750 20 17755880953328827516
255183 451 18413102888451312167
2838139 119 14345793872448920359
3388396 114 18115613482069907772
3886686 26 11877352768722647420
4017518 198 17908425002798685884
4280585 95 18410282593201152131
4353968 344 18263936432752871982
44280117 145 17398929606484672314
46194498 28 18337662144374193199
463206 1 18334582308687923123
532947 4 18192150610178994417
6004065 56 18339076099004952720
6669772 16 18123470750458527708
6700243 42 17913495640713323910
70251023 43 18412544319053302665
7970288 3 18343016662574776447

>  <PUBCHEM_SHAPE_MULTIPOLES>  (1) 
624.08
13.36
5.5
1.67
19.21
5.87
-0.27
-14.34
8.78
-6.85
0.24
-0.84
-0.99
0.62

>  <PUBCHEM_SHAPE_SELFOVERLAP>  (1) 
1357.771

>  <PUBCHEM_SHAPE_VOLUME>  (1) 
350.4

>  <PUBCHEM_COORDINATE_TYPE>  (1) 
2
5
10

$$$$
