43970
     RDKit          3D

  9  8  0  0  0  0  0  0  0  0999 V2000
   -1.4179   -0.4602    0.0004 O   0  0  0  0  0  0  0  0  0  0  0  0
   -0.2058    1.4827    0.0001 O   0  0  0  0  0  0  0  0  0  0  0  0
    2.9584   -1.1391   -0.0003 O   0  0  0  0  0  0  0  0  0  0  0  0
    2.3822    1.0101   -0.0004 O   0  0  0  0  0  0  0  0  0  0  0  0
    0.8138   -0.6197    0.0004 N   0  0  0  0  0  0  0  0  0  0  0  0
    2.1594   -0.2014   -0.0002 N   0  0  0  0  0  0  0  0  0  0  0  0
   -2.6273    0.3073   -0.0003 C   0  0  0  0  0  0  0  0  0  0  0  0
   -3.8104   -0.6371   -0.0004 C   0  0  0  0  0  0  0  0  0  0  0  0
   -0.2523    0.2573    0.0005 C   0  0  0  0  0  0  0  0  0  0  0  0
  1  7  1  0
  1  9  1  0
  2  9  2  0
  3  6  1  0
  4  6  2  0
  5  6  1  0
  5  9  1  0
  7  8  1  0
M  CHG  2   3  -1   6   1
M  END
>  <PUBCHEM_COMPOUND_CID>  (1) 
43970

>  <PUBCHEM_CONFORMER_RMSD>  (1) 
0.6

>  <PUBCHEM_CONFORMER_DIVERSEORDER>  (1) 
1
6
3
4
5
2

>  <PUBCHEM_MMFF94_PARTIAL_CHARGES>  (1) 
9
1 -0.43
15 0.37
2 -0.57
3 -0.52
4 -0.52
5 -0.41
6 1.02
7 0.28
9 0.78

>  <PUBCHEM_EFFECTIVE_ROTOR_COUNT>  (1) 
4

>  <PUBCHEM_PHARMACOPHORE_FEATURES>  (1) 
4
1 2 acceptor
1 3 acceptor
1 4 acceptor
1 5 donor

>  <PUBCHEM_HEAVY_ATOM_COUNT>  (1) 
9

>  <PUBCHEM_ATOM_DEF_STEREO_COUNT>  (1) 
0

>  <PUBCHEM_ATOM_UDEF_STEREO_COUNT>  (1) 
0

>  <PUBCHEM_BOND_DEF_STEREO_COUNT>  (1) 
0

>  <PUBCHEM_BOND_UDEF_STEREO_COUNT>  (1) 
0

>  <PUBCHEM_ISOTOPIC_ATOM_COUNT>  (1) 
0

>  <PUBCHEM_COMPONENT_COUNT>  (1) 
1

>  <PUBCHEM_CACTVS_TAUTO_COUNT>  (1) 
2

>  <PUBCHEM_CONFORMER_ID>  (1) 
0000ABC200000001

>  <PUBCHEM_MMFF94_ENERGY>  (1) 
10.5937

>  <PUBCHEM_FEATURE_SELFOVERLAP>  (1) 
20.379

>  <PUBCHEM_SHAPE_FINGERPRINT>  (1) 
10219947 1 18273217508321603703
11062470 55 18260829310774450189
12932764 1 17203320130938719617
14325111 11 18410575097911938691
23552423 10 18188776041520766894
29004967 10 18334861631769356633
3248919 1 13984657032164194497
5460574 1 9295291642526309219

>  <PUBCHEM_SHAPE_MULTIPOLES>  (1) 
151.78
5.55
1.13
0.55
2.03
0.2
0
-1.5
0
-0.42
0
0.09
0
0

>  <PUBCHEM_SHAPE_SELFOVERLAP>  (1) 
283.764

>  <PUBCHEM_SHAPE_VOLUME>  (1) 
94.7

>  <PUBCHEM_COORDINATE_TYPE>  (1) 
2
5
10

$$$$
