43974
     RDKit          3D

 17 19  0  0  0  0  0  0  0  0999 V2000
   -0.7777   -3.0585    0.1139 Cl  0  0  0  0  0  0  0  0  0  0  0  0
    1.7305   -1.5873    0.0493 S   0  0  0  0  0  0  0  0  0  0  0  0
    2.2356   -2.0953   -1.2087 O   0  0  0  0  0  0  0  0  0  0  0  0
    2.2463   -2.0035    1.3364 O   0  0  0  0  0  0  0  0  0  0  0  0
   -1.8360    0.0181    0.0078 N   0  0  0  0  0  0  0  0  0  0  0  0
   -2.4712    0.8483    1.0254 C   0  0  0  0  0  0  0  0  0  0  0  0
   -2.7900   -0.3887   -1.0181 C   0  0  0  0  0  0  0  0  0  0  0  0
   -3.9637    0.6951    0.7487 C   0  0  0  0  0  0  0  0  0  0  0  0
   -4.0107    0.4883   -0.7562 C   0  0  0  0  0  0  0  0  0  0  0  0
   -0.5231   -0.3308    0.0139 C   0  0  0  0  0  0  0  0  0  0  0  0
    0.5323    0.6994   -0.0277 C   0  0  0  0  0  0  0  0  0  0  0  0
    1.8171    0.1519   -0.0137 C   0  0  0  0  0  0  0  0  0  0  0  0
    0.0071   -1.5614    0.0557 C   0  0  0  0  0  0  0  0  0  0  0  0
    0.4095    2.0821   -0.0770 C   0  0  0  0  0  0  0  0  0  0  0  0
    2.9807    0.8945   -0.0452 C   0  0  0  0  0  0  0  0  0  0  0  0
    1.5692    2.8689   -0.1102 C   0  0  0  0  0  0  0  0  0  0  0  0
    2.8439    2.2789   -0.0944 C   0  0  0  0  0  0  0  0  0  0  0  0
  1 13  1  0
  2  3  2  0
  2  4  2  0
  2 12  1  0
  2 13  1  0
  5  6  1  0
  5  7  1  0
  5 10  1  0
  6  8  1  0
  7  9  1  0
  8  9  1  0
 10 11  1  0
 10 13  2  0
 11 12  2  0
 11 14  1  0
 12 15  1  0
 14 16  2  0
 15 17  2  0
 16 17  1  0
M  END
>  <PUBCHEM_COMPOUND_CID>  (1) 
43974

>  <PUBCHEM_CONFORMER_RMSD>  (1) 
0.6

>  <PUBCHEM_CONFORMER_DIVERSEORDER>  (1) 
1
2

>  <PUBCHEM_MMFF94_PARTIAL_CHARGES>  (1) 
19
1 -0.14
10 0.07
11 0.03
12 -0.01
13 0.12
14 -0.15
15 -0.15
16 -0.15
17 -0.15
2 1.33
26 0.15
27 0.15
28 0.15
29 0.15
3 -0.65
4 -0.65
5 -0.84
6 0.37
7 0.37

>  <PUBCHEM_EFFECTIVE_ROTOR_COUNT>  (1) 
2

>  <PUBCHEM_PHARMACOPHORE_FEATURES>  (1) 
6
1 3 acceptor
1 4 acceptor
1 5 cation
5 2 10 11 12 13 rings
5 5 6 7 8 9 rings
6 11 12 14 15 16 17 rings

>  <PUBCHEM_HEAVY_ATOM_COUNT>  (1) 
17

>  <PUBCHEM_ATOM_DEF_STEREO_COUNT>  (1) 
0

>  <PUBCHEM_ATOM_UDEF_STEREO_COUNT>  (1) 
0

>  <PUBCHEM_BOND_DEF_STEREO_COUNT>  (1) 
0

>  <PUBCHEM_BOND_UDEF_STEREO_COUNT>  (1) 
0

>  <PUBCHEM_ISOTOPIC_ATOM_COUNT>  (1) 
0

>  <PUBCHEM_COMPONENT_COUNT>  (1) 
1

>  <PUBCHEM_CACTVS_TAUTO_COUNT>  (1) 
1

>  <PUBCHEM_CONFORMER_ID>  (1) 
0000ABC600000001

>  <PUBCHEM_MMFF94_ENERGY>  (1) 
40.9809

>  <PUBCHEM_FEATURE_SELFOVERLAP>  (1) 
30.526

>  <PUBCHEM_SHAPE_FINGERPRINT>  (1) 
10382601 240 18334861619090592552
10967382 1 18410575093342950636
10980938 120 18411418414419040797
11471102 20 18409444782515316165
12553582 1 18050010982637037643
13140716 1 18193554699676174080
13380535 76 18339639069921572390
13380536 305 18410862018554188111
13464514 151 18340497741427134444
13583140 156 16951670579684167385
14178342 30 18194671803415927160
14181834 199 18335696139667423126
14251717 144 18411131416446430597
14790565 3 18337969882997271612
15309172 13 18335703879420263641
15442244 35 18198347243165059705
15490181 8 18268993253013815031
16945 1 18409731789573343232
18186145 218 18412547595991867733
18219364 16 18262524822055527145
19049666 15 17749946648982682601
193761 8 18194404613432026690
20510252 161 17475516552097330928
20645477 70 18410568453892937727
20671657 1 18410011069821557768
20739085 24 18120396288076752393
21501502 16 18265326390399222998
21524375 3 18193835079256603052
21639500 275 18337941368366002085
2255824 54 18411139095626734463
2334 1 17761775465451521116
23402539 116 18125998257387640822
23419403 2 17032537375174030960
23558518 356 17757834803124440850
23559900 14 18198355138275396756
23598291 2 18059011675448497781
238 59 17902186197053176397
25 1 18338239365870981708
2748010 2 18120925110546827332
3060560 45 18342459201198545671
350125 39 17760094303377047184
352729 6 18124039189111004320
474 4 18411700980744595769
58051976 378 18267578182071184959
63268167 104 18412261727232211465
7364860 26 18343586230913739316
77492 1 17917989456467918957
81228 2 17401200071533770616
8272917 22 18340774741491008133
84936 182 18130784594327095897

>  <PUBCHEM_SHAPE_MULTIPOLES>  (1) 
338.85
5.66
3.18
0.95
4.42
0.98
0.03
-2.36
-0.2
-2.08
0.07
0.3
0.21
-0.3

>  <PUBCHEM_SHAPE_SELFOVERLAP>  (1) 
719.328

>  <PUBCHEM_SHAPE_VOLUME>  (1) 
192.4

>  <PUBCHEM_COORDINATE_TYPE>  (1) 
2
5
10

$$$$
