43976
     RDKit          3D

 21 23  0  0  0  0  0  0  0  0999 V2000
   -0.2157   -2.5360   -0.2987 Cl  0  0  0  0  0  0  0  0  0  0  0  0
   -2.9969   -1.7147   -0.0772 S   0  0  0  0  0  0  0  0  0  0  0  0
    6.4102   -0.1958    0.5620 O   0  0  0  0  0  0  0  0  0  0  0  0
   -3.4625   -2.2147   -1.3536 O   0  0  0  0  0  0  0  0  0  0  0  0
   -3.3051   -2.3629    1.1801 O   0  0  0  0  0  0  0  0  0  0  0  0
    3.7850    0.3967   -0.3645 N   0  0  0  0  0  0  0  0  0  0  0  0
    0.0782    0.7012   -0.1275 N   0  0  0  0  0  0  0  0  0  0  0  0
    2.4844    1.0517   -0.2412 C   0  0  0  0  0  0  0  0  0  0  0  0
    4.0142   -0.5236    0.7581 C   0  0  0  0  0  0  0  0  0  0  0  0
    4.8655    1.3904   -0.4296 C   0  0  0  0  0  0  0  0  0  0  0  0
    1.3508    0.0373   -0.2791 C   0  0  0  0  0  0  0  0  0  0  0  0
    5.3818   -1.1853    0.6146 C   0  0  0  0  0  0  0  0  0  0  0  0
    6.2127    0.6831   -0.5461 C   0  0  0  0  0  0  0  0  0  0  0  0
   -1.1112    0.0467   -0.0912 C   0  0  0  0  0  0  0  0  0  0  0  0
   -2.3794    0.7908    0.0311 C   0  0  0  0  0  0  0  0  0  0  0  0
   -3.4947   -0.0496    0.0513 C   0  0  0  0  0  0  0  0  0  0  0  0
   -1.3325   -1.2740   -0.1547 C   0  0  0  0  0  0  0  0  0  0  0  0
   -2.5891    2.1608    0.1244 C   0  0  0  0  0  0  0  0  0  0  0  0
   -4.7992    0.3896    0.1576 C   0  0  0  0  0  0  0  0  0  0  0  0
   -3.9005    2.6438    0.2338 C   0  0  0  0  0  0  0  0  0  0  0  0
   -4.9960    1.7647    0.2502 C   0  0  0  0  0  0  0  0  0  0  0  0
  1 17  1  0
  2  4  2  0
  2  5  2  0
  2 16  1  0
  2 17  1  0
  3 12  1  0
  3 13  1  0
  6  8  1  0
  6  9  1  0
  6 10  1  0
  7 11  1  0
  7 14  1  0
  8 11  1  0
  9 12  1  0
 10 13  1  0
 14 15  1  0
 14 17  2  0
 15 16  2  0
 15 18  1  0
 16 19  1  0
 18 20  2  0
 19 21  2  0
 20 21  1  0
M  END
>  <PUBCHEM_COMPOUND_CID>  (1) 
43976

>  <PUBCHEM_CONFORMER_RMSD>  (1) 
0.8

>  <PUBCHEM_CONFORMER_DIVERSEORDER>  (1) 
1
9
13
23
19
11
4
15
22
17
21
6
5
16
12
2
18
20
14
8
10
7
3

>  <PUBCHEM_MMFF94_PARTIAL_CHARGES>  (1) 
26
1 -0.14
10 0.27
11 0.37
12 0.28
13 0.28
14 0.07
15 0.03
16 -0.01
17 0.12
18 -0.15
19 -0.15
2 1.33
20 -0.15
21 -0.15
3 -0.56
34 0.4
35 0.15
36 0.15
37 0.15
38 0.15
4 -0.65
5 -0.65
6 -0.81
7 -0.87
8 0.27
9 0.27

>  <PUBCHEM_EFFECTIVE_ROTOR_COUNT>  (1) 
5.2

>  <PUBCHEM_PHARMACOPHORE_FEATURES>  (1) 
9
1 3 acceptor
1 4 acceptor
1 5 acceptor
1 6 cation
1 7 cation
1 7 donor
5 2 14 15 16 17 rings
6 15 16 18 19 20 21 rings
6 3 6 9 10 12 13 rings

>  <PUBCHEM_HEAVY_ATOM_COUNT>  (1) 
21

>  <PUBCHEM_ATOM_DEF_STEREO_COUNT>  (1) 
0

>  <PUBCHEM_ATOM_UDEF_STEREO_COUNT>  (1) 
0

>  <PUBCHEM_BOND_DEF_STEREO_COUNT>  (1) 
0

>  <PUBCHEM_BOND_UDEF_STEREO_COUNT>  (1) 
0

>  <PUBCHEM_ISOTOPIC_ATOM_COUNT>  (1) 
0

>  <PUBCHEM_COMPONENT_COUNT>  (1) 
1

>  <PUBCHEM_CACTVS_TAUTO_COUNT>  (1) 
1

>  <PUBCHEM_CONFORMER_ID>  (1) 
0000ABC800000001

>  <PUBCHEM_MMFF94_ENERGY>  (1) 
41.5003

>  <PUBCHEM_FEATURE_SELFOVERLAP>  (1) 
45.751

>  <PUBCHEM_SHAPE_FINGERPRINT>  (1) 
10411042 1 17979917434938001431
10595046 47 18335422426224299180
10912923 1 18040432213983036472
11315181 36 18114462366014060100
11405975 8 18411136961223303872
12107183 9 17830729860045492584
12236239 1 18040999540065092104
12390115 104 18058464105815726753
12596602 18 17603590746039742584
12616971 3 17312827082724299452
13073987 5 18335138739323431570
13140716 1 18267877262477629025
13167823 11 18334856139028424370
13533116 47 17417248711532129494
13583140 156 17060329743273994126
14420673 8 18263927631816489442
15042514 8 18266181823937442963
15196674 1 18409449193942581650
15250474 111 18335408089539673434
17093844 174 18342734126808844736
17844677 252 18341055224188121416
1813 80 16660934279336264254
18927931 339 18341899631653359607
19489759 90 18131630075734305353
20645477 56 18342741793251842101
21033648 29 17631998824198897872
21065198 48 18334011714166779686
21236236 1 18412262852650591727
21859007 373 17388814172137402453
220451 1 17967819340829443660
23402539 116 18342452664231823812
23559900 14 18201431515120491416
300161 21 18335134302522189156
3004659 81 18336550422460180606
3545911 37 18342460318011348396
4073 2 18041286547576839546
4214541 1 18409730664429165700
5104073 3 18334853944326627544
5364581 5 18055617654852869456
5385378 56 18128546959431168323
559249 180 18409443657460620890
573450 72 18409161117384521560
5924683 9 18272363222025474887
59755656 215 18199191698513118174
59755656 520 17821442478852780947
6327066 14 18190736428484778109
67856867 119 18263927799288591588
7226269 152 18060138695761959065
9965369 4 18337387141490879562
9981440 41 18410017598541613523

>  <PUBCHEM_SHAPE_MULTIPOLES>  (1) 
410.32
14.31
2.65
0.83
20.89
0.59
0
-3.79
-1.14
-3.39
0.04
0.03
0.28
-0.95

>  <PUBCHEM_SHAPE_SELFOVERLAP>  (1) 
854.146

>  <PUBCHEM_SHAPE_VOLUME>  (1) 
235.8

>  <PUBCHEM_COORDINATE_TYPE>  (1) 
2
5
10

$$$$
