4397
     RDKit          3D

 28 31  0  0  1  0  0  0  0  0999 V2000
    4.9510    0.5826    0.9155 O   0  0  0  0  0  0  0  0  0  0  0  0
    5.4927   -2.3302   -0.3158 O   0  0  0  0  0  0  0  0  0  0  0  0
    6.8295   -0.5770   -1.9193 O   0  0  0  0  0  0  0  0  0  0  0  0
    6.9645    2.5449    1.1818 O   0  0  0  0  0  0  0  0  0  0  0  0
    2.7584   -0.0495    0.2614 N   0  0  0  0  0  0  0  0  0  0  0  0
    1.1040    1.3173   -0.3490 N   0  0  0  0  0  0  0  0  0  0  0  0
    1.4619   -1.9760    0.9758 N   0  0  0  0  0  0  0  0  0  0  0  0
   -1.8101    0.4764   -0.1350 N   0  0  0  0  0  0  0  0  0  0  0  0
   -0.9326   -1.5789    0.7207 N   0  0  0  0  0  0  0  0  0  0  0  0
   -9.5659   -0.4507    0.0611 N   0  0  0  0  0  0  0  0  0  0  0  0
    4.7760   -1.1649   -0.7203 C   0  0  0  0  0  0  0  0  0  0  0  0
    4.1211   -0.5253    0.5053 C   0  0  0  0  0  0  0  0  0  0  0  0
    5.7198   -0.0795   -1.2028 C   0  0  0  0  0  0  0  0  0  0  0  0
    6.1315    0.5911    0.0962 C   0  0  0  0  0  0  0  0  0  0  0  0
    6.6198    2.0170   -0.0869 C   0  0  0  0  0  0  0  0  0  0  0  0
    1.5968   -0.7340    0.4868 C   0  0  0  0  0  0  0  0  0  0  0  0
    2.4088    1.1775   -0.2402 C   0  0  0  0  0  0  0  0  0  0  0  0
    0.5841    0.1301    0.1018 C   0  0  0  0  0  0  0  0  0  0  0  0
   -0.7213   -0.3328    0.2329 C   0  0  0  0  0  0  0  0  0  0  0  0
   -3.1736    0.0510   -0.0213 C   0  0  0  0  0  0  0  0  0  0  0  0
    0.1562   -2.3123    1.0570 C   0  0  0  0  0  0  0  0  0  0  0  0
   -4.1317    1.1618   -0.4530 C   0  0  0  0  0  0  0  0  0  0  0  0
   -5.5715    0.7347   -0.3167 C   0  0  0  0  0  0  0  0  0  0  0  0
   -6.2028    0.1185   -1.3865 C   0  0  0  0  0  0  0  0  0  0  0  0
   -6.2403    0.9652    0.8760 C   0  0  0  0  0  0  0  0  0  0  0  0
   -7.5347   -0.2764   -1.2606 C   0  0  0  0  0  0  0  0  0  0  0  0
   -7.5721    0.5701    1.0017 C   0  0  0  0  0  0  0  0  0  0  0  0
   -8.2194   -0.0506   -0.0665 C   0  0  0  0  0  0  0  0  0  0  0  0
  1 12  1  0
  1 14  1  0
  2 11  1  0
  3 13  1  0
  4 15  1  0
  5 12  1  0
  5 16  1  0
  5 17  1  0
  6 17  2  0
  6 18  1  0
  7 16  1  0
  7 21  2  0
  8 19  1  0
  8 20  1  0
  9 19  2  0
  9 21  1  0
 10 28  1  0
 11 12  1  0
 11 13  1  0
 13 14  1  0
 14 15  1  0
 16 18  2  0
 18 19  1  0
 20 22  1  0
 22 23  1  0
 23 24  2  0
 23 25  1  0
 24 26  1  0
 25 27  2  0
 26 28  2  0
 27 28  1  0
M  END
>  <PUBCHEM_COMPOUND_CID>  (1) 
4397

>  <PUBCHEM_CONFORMER_RMSD>  (1) 
1

>  <PUBCHEM_CONFORMER_DIVERSEORDER>  (1) 
7
278
314
364
377
255
353
11
232
115
148
352
293
261
154
239
31
158
381
326
169
160
146
1
275
199
88
250
72
187
283
17
134
270
38
315
332
176
3
15
294
130
380
8
247
33
121
99
208
246
265
53
145
26
104
219
144
174
207
201
276
43
75
307
48
112
30
303
78
359
373
196
126
133
382
94
171
91
206
214
191
329
41
153
236
374
100
234
83
140
178
286
58
200
67
46
36
213
186
304
225
383
317
333
25
312
218
321
66
345
288
309
20
368
118
156
205
163
98
291
323
243
61
347
102
45
324
241
272
179
167
4
197
24
296
139
143
348
202
229
360
32
85
281
266
44
92
320
350
5
354
69
162
289
358
128
292
372
369
268
137
183
18
302
280
192
120
318
212
299
60
194
252
136
198
180
10
155
231
77
138
56
235
55
305
340
80
327
346
82
50
135
237
68
81
79
330
122
337
89
242
343
260
238
371
267
147
76
190
285
319
301
240
129
51
344
308
290
277
114
282
54
28
101
37
224
124
279
16
165
264
132
362
189
251
64
39
349
127
328
284
177
70
63
361
106
210
103
175
87
57
52
311
73
119
249
159
173
164
157
342
269
244
65
322
331
258
34
125
355
22
6
193
375
339
182
142
109
223
108
378
370
376
2
23
111
306
341
97
161
297
93
271
273
21
152
49
181
123
262
96
47
84
338
172
185
230
131
351
40
356
233
13
316
263
74
217
107
357
168
117
379
86
62
71
335
27
203
29
253
113
298
222
209
35
12
310
151
365
248
367
59
325
363
245
188
116
259
254
334
90
300
204
215
184
313
195
95
42
211
105
9
19
141
216
220
166
366
221
150
110
336
170
257
274
14
287
228
227
149
256
226
295

>  <PUBCHEM_MMFF94_PARTIAL_CHARGES>  (1) 
40
1 -0.56
10 -0.9
11 0.28
12 0.54
13 0.28
14 0.28
15 0.28
16 0.11
17 0.04
18 0.23
19 0.41
2 -0.68
20 0.37
21 0.47
22 0.14
23 -0.14
24 -0.15
25 -0.15
26 -0.15
27 -0.15
28 0.1
3 -0.68
35 0.4
36 0.4
37 0.15
38 0.4
39 0.4
4 -0.68
42 0.15
45 0.15
46 0.15
47 0.15
48 0.15
49 0.4
5 0.05
50 0.4
6 -0.57
7 -0.57
8 -0.87
9 -0.62

>  <PUBCHEM_EFFECTIVE_ROTOR_COUNT>  (1) 
7

>  <PUBCHEM_PHARMACOPHORE_FEATURES>  (1) 
18
1 1 acceptor
1 10 cation
1 10 donor
1 2 acceptor
1 2 donor
1 3 acceptor
1 3 donor
1 4 acceptor
1 4 donor
1 8 cation
1 8 donor
3 5 6 17 cation
3 5 7 16 cation
3 7 9 21 cation
5 1 11 12 13 14 rings
5 5 6 16 17 18 rings
6 23 24 25 26 27 28 rings
6 7 9 16 18 19 21 rings

>  <PUBCHEM_HEAVY_ATOM_COUNT>  (1) 
28

>  <PUBCHEM_ATOM_DEF_STEREO_COUNT>  (1) 
0

>  <PUBCHEM_ATOM_UDEF_STEREO_COUNT>  (1) 
4

>  <PUBCHEM_BOND_DEF_STEREO_COUNT>  (1) 
0

>  <PUBCHEM_BOND_UDEF_STEREO_COUNT>  (1) 
0

>  <PUBCHEM_ISOTOPIC_ATOM_COUNT>  (1) 
0

>  <PUBCHEM_COMPONENT_COUNT>  (1) 
1

>  <PUBCHEM_CACTVS_TAUTO_COUNT>  (1) 
3

>  <PUBCHEM_CONFORMER_ID>  (1) 
0000112D00000007

>  <PUBCHEM_MMFF94_ENERGY>  (1) 
80.6858

>  <PUBCHEM_FEATURE_SELFOVERLAP>  (1) 
91.97

>  <PUBCHEM_SHAPE_FINGERPRINT>  (1) 
10 15 17240481424707602145
10299344 5 17561082501824199839
10666366 153 10807946963167173665
10816530 90 17822300132467048460
11315181 36 18202001037381021673
11719270 70 17167858643101680259
11796584 16 15913321412190810038
12089408 11 17775565330777591457
12166972 35 18131069333689980577
12236239 1 18059573560191948809
13533116 47 18131068191449705786
13617811 41 17894916226434370612
13835254 42 18339359648462527556
14170010 4 18261112980416535588
14216079 64 9943535111056155952
14251752 14 14908181932868590201
14251764 18 17775283872532558749
14251764 46 18343302566062720928
14849402 71 18271243923673985121
14856354 85 17346595293111929013
14933364 13 17346596374821558961
15131766 46 14419852646917640486
15183329 4 17418377978229043447
15849732 13 17458349636729861799
20157964 124 18342738520829374612
20771845 171 16805611322276026698
21150785 3 17846779619811678580
21344244 181 18059862727134210854
21360443 126 17749114417253974059
21521721 280 18412265038388006106
21792934 111 18114170922671599736
22224240 67 17967531285635879195
23516275 137 16486434126235389335
24771293 8 18262793099062285828
28498 318 10663825178469898193
3178227 256 18040440996985616969
335352 9 18261117353521365982
34797466 226 17846781806430262300
4073 2 18339360867636685906
4093350 32 17704355476936493236
4098825 35 16988289677219133945
4325135 7 18333731313380305599
4340502 62 15140676973639288176
5758199 1 18408886235467440617
59682541 35 18040157340645295297
59755656 215 18113336380139475131

>  <PUBCHEM_SHAPE_MULTIPOLES>  (1) 
522.86
26.85
1.85
1.17
33.05
0.31
-0.25
-6.27
-3.72
-3.43
0.5
-0.27
0.07
0.77

>  <PUBCHEM_SHAPE_SELFOVERLAP>  (1) 
1133.113

>  <PUBCHEM_SHAPE_VOLUME>  (1) 
281.8

>  <PUBCHEM_COORDINATE_TYPE>  (1) 
2
5
10

$$$$
