43982
     RDKit          3D

 25 27  0  0  0  0  0  0  0  0999 V2000
   -3.6450    4.2419    0.3068 Cl  0  0  0  0  0  0  0  0  0  0  0  0
   -2.6703   -2.9465    0.7558 O   0  0  0  0  0  0  0  0  0  0  0  0
    6.0364    2.2966    0.6118 O   0  0  0  0  0  0  0  0  0  0  0  0
    0.7032   -1.7021   -0.6002 N   0  0  0  0  0  0  0  0  0  0  0  0
    4.6637    0.0056   -0.3722 N   0  0  0  0  0  0  0  0  0  0  0  0
   -2.0376   -0.7349    0.0661 C   0  0  0  0  0  0  0  0  0  0  0  0
   -0.7360   -0.1473    0.6694 C   0  0  0  0  0  0  0  0  0  0  0  0
   -1.6716   -1.4426   -1.2638 C   0  0  0  0  0  0  0  0  0  0  0  0
    0.4169   -1.1561    0.7297 C   0  0  0  0  0  0  0  0  0  0  0  0
   -0.4716   -2.3899   -1.1427 C   0  0  0  0  0  0  0  0  0  0  0  0
    1.8493   -2.6092   -0.5464 C   0  0  0  0  0  0  0  0  0  0  0  0
   -3.1465    0.3049   -0.1673 C   0  0  0  0  0  0  0  0  0  0  0  0
   -2.5767   -1.7555    1.0487 C   0  0  0  0  0  0  0  0  0  0  0  0
    3.0819   -1.8719   -0.0199 C   0  0  0  0  0  0  0  0  0  0  0  0
    3.4741   -0.6717   -0.8841 C   0  0  0  0  0  0  0  0  0  0  0  0
   -2.9170    1.6434    0.1407 C   0  0  0  0  0  0  0  0  0  0  0  0
   -4.3743   -0.0977   -0.6862 C   0  0  0  0  0  0  0  0  0  0  0  0
   -2.9894   -1.2406    2.4010 C   0  0  0  0  0  0  0  0  0  0  0  0
    5.0628    1.1039   -1.2630 C   0  0  0  0  0  0  0  0  0  0  0  0
    4.4288    0.5180    0.9849 C   0  0  0  0  0  0  0  0  0  0  0  0
    6.2982    1.8023   -0.7022 C   0  0  0  0  0  0  0  0  0  0  0  0
    5.6787    1.2311    1.4930 C   0  0  0  0  0  0  0  0  0  0  0  0
   -3.9230    2.5861   -0.0714 C   0  0  0  0  0  0  0  0  0  0  0  0
   -5.3803    0.8451   -0.8980 C   0  0  0  0  0  0  0  0  0  0  0  0
   -5.1547    2.1870   -0.5906 C   0  0  0  0  0  0  0  0  0  0  0  0
  1 23  1  0
  2 13  2  0
  3 21  1  0
  3 22  1  0
  4  9  1  0
  4 10  1  0
  4 11  1  0
  5 15  1  0
  5 19  1  0
  5 20  1  0
  6  7  1  0
  6  8  1  0
  6 12  1  0
  6 13  1  0
  7  9  1  0
  8 10  1  0
 11 14  1  0
 12 16  2  0
 12 17  1  0
 13 18  1  0
 14 15  1  0
 16 23  1  0
 17 24  2  0
 19 21  1  0
 20 22  1  0
 23 25  2  0
 24 25  1  0
M  END
>  <PUBCHEM_COMPOUND_CID>  (1) 
43982

>  <PUBCHEM_CONFORMER_RMSD>  (1) 
1

>  <PUBCHEM_CONFORMER_DIVERSEORDER>  (1) 
7
107
186
27
122
93
118
113
29
40
82
18
98
91
208
19
146
178
155
165
160
153
21
5
191
22
112
143
81
73
9
159
126
71
141
123
190
76
156
33
209
183
184
65
139
37
61
195
17
111
114
53
175
16
92
140
20
170
145
8
207
50
23
150
144
200
46
169
95
149
194
48
28
47
25
128
105
120
55
152
196
171
79
174
116
2
6
124
75
133
52
39
167
97
88
63
12
182
42
85
84
66
168
74
49
166
185
172
70
109
103
163
64
90
199
192
148
24
131
44
62
45
78
104
202
96
99
176
30
162
89
129
59
54
36
41
130
197
193
80
56
69
177
158
110
138
43
161
203
13
68
26
83
205
106
134
101
3
164
206
32
151
137
57
187
180
157
204
31
173
119
136
94
189
121
86
125
15
135
72
132
10
87
181
77
58
67
201
102
14
38
11
117
51
100
188
154
198
4
35
115
1
127
147
34
179
108
142
60

>  <PUBCHEM_MMFF94_PARTIAL_CHARGES>  (1) 
26
1 -0.18
10 0.27
11 0.27
12 -0.14
13 0.45
15 0.27
16 -0.15
17 -0.15
18 0.06
19 0.27
2 -0.57
20 0.27
21 0.28
22 0.28
23 0.18
24 -0.15
25 -0.15
3 -0.56
4 -0.81
40 0.15
41 0.15
5 -0.81
53 0.15
54 0.15
6 0.2
9 0.27

>  <PUBCHEM_EFFECTIVE_ROTOR_COUNT>  (1) 
8.4

>  <PUBCHEM_PHARMACOPHORE_FEATURES>  (1) 
7
1 2 acceptor
1 3 acceptor
1 4 cation
1 5 cation
6 12 16 17 23 24 25 rings
6 3 5 19 20 21 22 rings
6 4 6 7 8 9 10 rings

>  <PUBCHEM_HEAVY_ATOM_COUNT>  (1) 
25

>  <PUBCHEM_ATOM_DEF_STEREO_COUNT>  (1) 
0

>  <PUBCHEM_ATOM_UDEF_STEREO_COUNT>  (1) 
0

>  <PUBCHEM_BOND_DEF_STEREO_COUNT>  (1) 
0

>  <PUBCHEM_BOND_UDEF_STEREO_COUNT>  (1) 
0

>  <PUBCHEM_ISOTOPIC_ATOM_COUNT>  (1) 
0

>  <PUBCHEM_COMPONENT_COUNT>  (1) 
1

>  <PUBCHEM_CACTVS_TAUTO_COUNT>  (1) 
2

>  <PUBCHEM_CONFORMER_ID>  (1) 
0000ABCE00000007

>  <PUBCHEM_MMFF94_ENERGY>  (1) 
57.0301

>  <PUBCHEM_FEATURE_SELFOVERLAP>  (1) 
35.522

>  <PUBCHEM_SHAPE_FINGERPRINT>  (1) 
10498660 4 18060138765103485786
10764073 3 11025794242220555747
10928967 22 10807932648242117084
11405975 8 18114465552817107690
11961588 58 18410001127183537031
12107183 9 18115856418315640034
12403259 118 18114744957724433366
12403259 415 18339938077561739190
12422481 6 17676482801142618500
12596602 18 17313664975225503952
12633257 1 16515691060933735638
12788726 201 18189607406073492131
13911852 28 8573841573455687585
13911987 19 17418374692663334791
14251764 38 18196373606649707012
14341114 328 17240481442551869092
14429114 114 18269550550770039816
14468879 13 18410296886767871827
14739800 52 18335688421822208608
14790565 3 17836934391324506049
15575132 122 18340210807757941516
17959699 21 18340486642988905274
193927 3 11097847489514105646
21033648 29 18341890844646053016
21388113 180 18200025278683158328
21401589 2 18335710395159932785
21521721 280 18341055100145402755
23559900 14 18053943952814970734
245318 6 17896618334732200508
2748736 6 18409438172729797260
2838139 119 18340763732898939540
34797466 226 17774723065472283061
376196 1 18121781625968205111
4371632 12 15767495491427946442
44249763 50 17559657620743884912
474113 269 11963687638149697489
5104073 3 17822011991104754970
5223283 242 16478551478156210061
633830 44 17977381638864172247
7237137 82 17417519328499259039
7808743 9 18341043094946990542
8863177 126 8646479726770460100
9981440 41 18335703815133145027

>  <PUBCHEM_SHAPE_MULTIPOLES>  (1) 
494.66
14.6
3.84
1.43
17.64
1.97
0.52
13.67
-0.79
-2.49
0.13
0.08
-0.42
1.15

>  <PUBCHEM_SHAPE_SELFOVERLAP>  (1) 
1019.968

>  <PUBCHEM_SHAPE_VOLUME>  (1) 
284.2

>  <PUBCHEM_COORDINATE_TYPE>  (1) 
2
5
10

$$$$
