43990
     RDKit          3D

 15 16  0  0  0  0  0  0  0  0999 V2000
    4.2404    1.0083   -0.0290 S   0  0  0  0  0  0  0  0  0  0  0  0
    2.5220   -1.3763    0.1354 S   0  0  0  0  0  0  0  0  0  0  0  0
   -0.8582    2.3461   -0.1855 O   0  0  0  0  0  0  0  0  0  0  0  0
    0.4144    0.4159   -0.0608 N   0  0  0  0  0  0  0  0  0  0  0  0
    1.5798    1.1048   -0.0940 N   0  0  0  0  0  0  0  0  0  0  0  0
    5.0742   -0.5925   -0.2269 C   0  0  0  0  0  0  0  0  0  0  0  0
    4.2732   -1.6239    0.5457 C   0  0  0  0  0  0  0  0  0  0  0  0
    2.6242    0.3573   -0.0088 C   0  0  0  0  0  0  0  0  0  0  0  0
   -2.0137    0.3078   -0.0514 C   0  0  0  0  0  0  0  0  0  0  0  0
   -0.7993    1.1054   -0.1107 C   0  0  0  0  0  0  0  0  0  0  0  0
   -3.1878    0.8617    0.4588 C   0  0  0  0  0  0  0  0  0  0  0  0
   -2.0043   -1.0114   -0.5044 C   0  0  0  0  0  0  0  0  0  0  0  0
   -4.3527    0.0963    0.5160 C   0  0  0  0  0  0  0  0  0  0  0  0
   -3.1691   -1.7767   -0.4473 C   0  0  0  0  0  0  0  0  0  0  0  0
   -4.3432   -1.2228    0.0629 C   0  0  0  0  0  0  0  0  0  0  0  0
  1  6  1  0
  1  8  1  0
  2  7  1  0
  2  8  1  0
  3 10  2  0
  4  5  1  0
  4 10  1  0
  5  8  2  3
  6  7  1  0
  9 10  1  0
  9 11  2  0
  9 12  1  0
 11 13  1  0
 12 14  2  0
 13 15  2  0
 14 15  1  0
M  END
>  <PUBCHEM_COMPOUND_CID>  (1) 
43990

>  <PUBCHEM_CONFORMER_RMSD>  (1) 
0.6

>  <PUBCHEM_CONFORMER_DIVERSEORDER>  (1) 
1
2

>  <PUBCHEM_MMFF94_PARTIAL_CHARGES>  (1) 
21
1 -0.37
10 0.54
11 -0.15
12 -0.15
13 -0.15
14 -0.15
15 -0.15
2 -0.37
20 0.15
21 0.15
22 0.37
23 0.15
24 0.15
25 0.15
3 -0.57
4 -0.37
5 -0.51
6 0.23
7 0.23
8 0.73
9 0.09

>  <PUBCHEM_EFFECTIVE_ROTOR_COUNT>  (1) 
3.8

>  <PUBCHEM_PHARMACOPHORE_FEATURES>  (1) 
5
1 3 acceptor
1 4 donor
1 5 acceptor
5 1 2 6 7 8 rings
6 9 11 12 13 14 15 rings

>  <PUBCHEM_HEAVY_ATOM_COUNT>  (1) 
15

>  <PUBCHEM_ATOM_DEF_STEREO_COUNT>  (1) 
0

>  <PUBCHEM_ATOM_UDEF_STEREO_COUNT>  (1) 
0

>  <PUBCHEM_BOND_DEF_STEREO_COUNT>  (1) 
0

>  <PUBCHEM_BOND_UDEF_STEREO_COUNT>  (1) 
0

>  <PUBCHEM_ISOTOPIC_ATOM_COUNT>  (1) 
0

>  <PUBCHEM_COMPONENT_COUNT>  (1) 
1

>  <PUBCHEM_CACTVS_TAUTO_COUNT>  (1) 
2

>  <PUBCHEM_CONFORMER_ID>  (1) 
0000ABD600000001

>  <PUBCHEM_MMFF94_ENERGY>  (1) 
34.8038

>  <PUBCHEM_FEATURE_SELFOVERLAP>  (1) 
25.377

>  <PUBCHEM_SHAPE_FINGERPRINT>  (1) 
10616163 171 18413109472035270622
11046707 91 18412261735647806377
11806522 49 18334012792119161956
12107183 9 17764594218127784514
12251169 10 18202284705904346101
12553582 1 18409719669038380002
13167823 11 18411138034943729786
13288520 33 18411703175187910918
13551218 46 18342178821655097663
14251764 18 18343871026575175811
14252887 29 17704080573169756318
15196674 1 18411136943805875650
15242433 33 18409450297216160502
15375462 189 18412261744327418474
15536298 74 18413387652945651258
17804303 29 18202285827122925505
17834072 33 18410014355724759876
1813 80 17603308154313311420
18186145 218 15864353575062921045
19050596 39 18412260623599436362
19141452 34 18342177769714651071
19422 9 18410858775864071777
200 152 18334294270831742208
20261772 1 18060415846028342878
20281475 54 18411698811401112676
20291156 8 18408601465681166304
20645477 70 18408604743232109486
21267235 1 18410583898010187119
22485316 2 18410572894235201609
22646028 1 18407758127689022610
22646028 28 18409165515230838786
2297311 6 18130801031525126796
23402539 116 18040431079742366164
23463225 33 18411703201100133087
23559900 14 18341323470296425368
2871803 45 18260260841793575086
351380 3 18334576832678213738
42 15 18412547604275847010
4214541 1 18411982425192532408
4921388 177 16009322001616042619
5104073 3 18413108363843408080
573450 72 18272369763233968035
77779 3 18412265034330434736
83771 10 18408884048669931012
9709674 26 18408611335838331162

>  <PUBCHEM_SHAPE_MULTIPOLES>  (1) 
300.56
10.81
1.93
0.7
4.33
0.05
0.02
-3.4
0.84
-0.03
-0.06
-0.06
-0.08
-0.57

>  <PUBCHEM_SHAPE_SELFOVERLAP>  (1) 
604.821

>  <PUBCHEM_SHAPE_VOLUME>  (1) 
176.9

>  <PUBCHEM_COORDINATE_TYPE>  (1) 
2
5
10

$$$$
