43992
     RDKit          3D

 13 13  0  0  0  0  0  0  0  0999 V2000
    0.7693    0.1510   -0.6928 N   0  0  0  0  0  0  0  0  0  0  0  0
    3.0278    0.3540    0.1249 N   0  0  0  0  0  0  0  0  0  0  0  0
   -1.3122   -0.6338    0.2852 C   0  0  0  0  0  0  0  0  0  0  0  0
   -0.7049   -1.9624    0.5972 C   0  0  0  0  0  0  0  0  0  0  0  0
   -0.5733    0.3674   -0.3392 C   0  0  0  0  0  0  0  0  0  0  0  0
   -2.6439   -0.4013    0.6293 C   0  0  0  0  0  0  0  0  0  0  0  0
   -0.8800   -2.9605   -0.5433 C   0  0  0  0  0  0  0  0  0  0  0  0
   -1.1566    1.5997   -0.6221 C   0  0  0  0  0  0  0  0  0  0  0  0
   -3.2319    0.8319    0.3475 C   0  0  0  0  0  0  0  0  0  0  0  0
   -2.4882    1.8324   -0.2781 C   0  0  0  0  0  0  0  0  0  0  0  0
    1.6510    0.4626    0.2048 C   0  0  0  0  0  0  0  0  0  0  0  0
    3.8784    0.7512    1.2378 C   0  0  0  0  0  0  0  0  0  0  0  0
    3.6645   -0.3922   -0.9513 C   0  0  0  0  0  0  0  0  0  0  0  0
  1  5  1  0
  1 11  2  0
  2 11  1  0
  2 12  1  0
  2 13  1  0
  3  4  1  0
  3  5  2  0
  3  6  1  0
  4  7  1  0
  5  8  1  0
  6  9  2  0
  8 10  2  0
  9 10  1  0
M  END
>  <PUBCHEM_COMPOUND_CID>  (1) 
43992

>  <PUBCHEM_CONFORMER_RMSD>  (1) 
0.6

>  <PUBCHEM_CONFORMER_DIVERSEORDER>  (1) 
2
8
4
3
7
5
6
1

>  <PUBCHEM_MMFF94_PARTIAL_CHARGES>  (1) 
17
1 -0.63
10 -0.15
11 0.44
12 0.37
13 0.37
16 0.15
2 -0.79
20 0.15
21 0.15
22 0.15
23 0.06
3 -0.14
4 0.14
5 0.18
6 -0.15
8 -0.15
9 -0.15

>  <PUBCHEM_EFFECTIVE_ROTOR_COUNT>  (1) 
3

>  <PUBCHEM_PHARMACOPHORE_FEATURES>  (1) 
3
1 7 hydrophobe
3 1 2 11 cation
6 3 5 6 8 9 10 rings

>  <PUBCHEM_HEAVY_ATOM_COUNT>  (1) 
13

>  <PUBCHEM_ATOM_DEF_STEREO_COUNT>  (1) 
0

>  <PUBCHEM_ATOM_UDEF_STEREO_COUNT>  (1) 
0

>  <PUBCHEM_BOND_DEF_STEREO_COUNT>  (1) 
0

>  <PUBCHEM_BOND_UDEF_STEREO_COUNT>  (1) 
0

>  <PUBCHEM_ISOTOPIC_ATOM_COUNT>  (1) 
0

>  <PUBCHEM_COMPONENT_COUNT>  (1) 
1

>  <PUBCHEM_CACTVS_TAUTO_COUNT>  (1) 
1

>  <PUBCHEM_CONFORMER_ID>  (1) 
0000ABD800000002

>  <PUBCHEM_MMFF94_ENERGY>  (1) 
31.5004

>  <PUBCHEM_FEATURE_SELFOVERLAP>  (1) 
15.223

>  <PUBCHEM_SHAPE_FINGERPRINT>  (1) 
11132069 177 18408604755810978257
11265709 11 17691682707124478303
12500047 106 18412824686054927886
13024252 1 14418128517921212165
13380535 76 18188771631116770689
15309172 13 18337114479634183425
15669948 3 18261397814152233902
16945 1 17822301175542135673
18186145 218 18130229250760268080
19422 9 17095528379022984648
20279233 1 18202001036647629652
20510252 161 18342460330922812833
20524608 308 18341896324222709599
20645464 45 18343861121642249208
20645476 183 17095824186084184638
20645477 56 18411699906955493824
20871998 184 18338245975957525415
21501502 16 18122061176498958120
23388829 49 17115787172527199317
23402539 116 18270669991678377223
23419403 2 16840198882867760795
23559900 14 18341900667404856196
257057 1 17548127192147458887
2748010 2 18191034404271346991
43471831 8 18187645756642661299
4663303 62 17981331088493548583
5706482 22 18336255774074968299
6333449 129 18411132558549035093
6338986 31 17621313971605177959
69090 78 18343298184542211215
7364860 26 17836084472882496407
77492 1 17022910059719225580
81228 2 18193551396624634203

>  <PUBCHEM_SHAPE_MULTIPOLES>  (1) 
257.57
5.94
2.28
0.98
5.92
1.79
-0.07
-2.1
-0.95
-1.59
0.32
0.55
0
0.57

>  <PUBCHEM_SHAPE_SELFOVERLAP>  (1) 
518.496

>  <PUBCHEM_SHAPE_VOLUME>  (1) 
151.7

>  <PUBCHEM_COORDINATE_TYPE>  (1) 
2
5
10

$$$$
