43993
     RDKit          3D

 14 15  0  0  0  0  0  0  0  0999 V2000
    2.8003   -1.6426   -0.2017 O   0  0  0  0  0  0  0  0  0  0  0  0
    3.7364    0.4806    0.4491 O   0  0  0  0  0  0  0  0  0  0  0  0
   -3.8046   -0.1681    0.2561 N   0  0  0  0  0  0  0  0  0  0  0  0
   -1.6368    0.2570   -0.7205 N   0  0  0  0  0  0  0  0  0  0  0  0
    1.8688   -0.6505   -0.1844 C   0  0  0  0  0  0  0  0  0  0  0  0
    2.4034    0.5618    0.1873 C   0  0  0  0  0  0  0  0  0  0  0  0
   -0.2742    0.3484   -0.4166 C   0  0  0  0  0  0  0  0  0  0  0  0
    0.5313   -0.7903   -0.4934 C   0  0  0  0  0  0  0  0  0  0  0  0
    1.6299    1.7013    0.2707 C   0  0  0  0  0  0  0  0  0  0  0  0
    3.9812   -0.9186    0.2001 C   0  0  0  0  0  0  0  0  0  0  0  0
    0.2720    1.5871   -0.0368 C   0  0  0  0  0  0  0  0  0  0  0  0
   -2.4292   -0.0201    0.2707 C   0  0  0  0  0  0  0  0  0  0  0  0
   -4.5634   -0.0170   -0.9774 C   0  0  0  0  0  0  0  0  0  0  0  0
   -4.5151   -0.7291    1.3966 C   0  0  0  0  0  0  0  0  0  0  0  0
  1  5  1  0
  1 10  1  0
  2  6  1  0
  2 10  1  0
  3 12  1  0
  3 13  1  0
  3 14  1  0
  4  7  1  0
  4 12  2  0
  5  6  2  0
  5  8  1  0
  6  9  1  0
  7  8  2  0
  7 11  1  0
  9 11  2  0
M  END
>  <PUBCHEM_COMPOUND_CID>  (1) 
43993

>  <PUBCHEM_CONFORMER_RMSD>  (1) 
0.6

>  <PUBCHEM_CONFORMER_DIVERSEORDER>  (1) 
1
3
4
2

>  <PUBCHEM_MMFF94_PARTIAL_CHARGES>  (1) 
18
1 -0.36
10 0.56
11 -0.15
12 0.44
13 0.37
14 0.37
15 0.15
16 0.15
19 0.15
2 -0.36
20 0.06
3 -0.79
4 -0.63
5 0.08
6 0.08
7 0.18
8 -0.15
9 -0.15

>  <PUBCHEM_EFFECTIVE_ROTOR_COUNT>  (1) 
2.6

>  <PUBCHEM_PHARMACOPHORE_FEATURES>  (1) 
5
1 1 acceptor
1 2 acceptor
3 3 4 12 cation
5 1 2 5 6 10 rings
6 5 6 7 8 9 11 rings

>  <PUBCHEM_HEAVY_ATOM_COUNT>  (1) 
14

>  <PUBCHEM_ATOM_DEF_STEREO_COUNT>  (1) 
0

>  <PUBCHEM_ATOM_UDEF_STEREO_COUNT>  (1) 
0

>  <PUBCHEM_BOND_DEF_STEREO_COUNT>  (1) 
0

>  <PUBCHEM_BOND_UDEF_STEREO_COUNT>  (1) 
0

>  <PUBCHEM_ISOTOPIC_ATOM_COUNT>  (1) 
0

>  <PUBCHEM_COMPONENT_COUNT>  (1) 
1

>  <PUBCHEM_CACTVS_TAUTO_COUNT>  (1) 
1

>  <PUBCHEM_CONFORMER_ID>  (1) 
0000ABD900000001

>  <PUBCHEM_MMFF94_ENERGY>  (1) 
35.6513

>  <PUBCHEM_FEATURE_SELFOVERLAP>  (1) 
25.527

>  <PUBCHEM_SHAPE_FINGERPRINT>  (1) 
10219947 1 18272651242268282087
11471102 20 18412257354876259532
11543360 7 15864364548593423742
11796584 16 17023173877895732258
12032990 46 18337675217811322494
12251169 10 18273496788311543711
124424 183 18260825991018029021
13296908 3 17894914061812413997
14251717 144 18342171172254663327
14252887 29 18272938189397623398
15375462 189 18409161104336505154
15501101 241 18410571807698361124
16945 1 18270947012779146500
17844478 74 18261107456893310228
200 152 18059845169882027309
20279233 1 18114180843877118119
20281407 28 17748829596560393435
20645477 70 18339914940193114335
20871998 22 18129389194028089262
21501925 9 18412540998705946520
22485316 2 17603581928650997739
23402539 116 13110959799586615297
23557571 272 17385994036270121540
23559900 14 17603583006872444274
26918003 58 18410014347329945955
2748010 2 18055058871059350964
42 15 18410017632768917561
4990 188 12612755683435750240

>  <PUBCHEM_SHAPE_MULTIPOLES>  (1) 
266.41
8.62
1.4
0.91
7.25
0.25
-0.1
-2.46
-1.36
-1.13
-0.07
0.98
-0.09
0.54

>  <PUBCHEM_SHAPE_SELFOVERLAP>  (1) 
564.509

>  <PUBCHEM_SHAPE_VOLUME>  (1) 
150

>  <PUBCHEM_COORDINATE_TYPE>  (1) 
2
5
10

$$$$
