43994
     RDKit          3D

 16 16  0  0  0  0  0  0  0  0999 V2000
    2.8321    2.6463    0.4174 Cl  0  0  0  0  0  0  0  0  0  0  0  0
   -0.4361   -2.1682   -0.4087 O   0  0  0  0  0  0  0  0  0  0  0  0
    3.7664    0.0276   -0.7248 O   0  0  0  0  0  0  0  0  0  0  0  0
   -3.8026    0.6376   -0.1678 N   0  0  0  0  0  0  0  0  0  0  0  0
   -1.6038    0.1356    0.6828 N   0  0  0  0  0  0  0  0  0  0  0  0
   -0.2450    0.1058    0.3259 C   0  0  0  0  0  0  0  0  0  0  0  0
    0.3157   -1.0483   -0.2148 C   0  0  0  0  0  0  0  0  0  0  0  0
    2.4502    0.0721   -0.3730 C   0  0  0  0  0  0  0  0  0  0  0  0
    1.6657   -1.0653   -0.5649 C   0  0  0  0  0  0  0  0  0  0  0  0
    0.5346    1.2432    0.5189 C   0  0  0  0  0  0  0  0  0  0  0  0
    1.8847    1.2263    0.1690 C   0  0  0  0  0  0  0  0  0  0  0  0
   -2.4267    0.5167   -0.2435 C   0  0  0  0  0  0  0  0  0  0  0  0
   -4.5818    1.0818   -1.3149 C   0  0  0  0  0  0  0  0  0  0  0  0
   -4.5479    0.0869    0.9556 C   0  0  0  0  0  0  0  0  0  0  0  0
   -0.4953   -3.1028    0.6668 C   0  0  0  0  0  0  0  0  0  0  0  0
    4.6899   -0.3954    0.2759 C   0  0  0  0  0  0  0  0  0  0  0  0
  1 11  1  0
  2  7  1  0
  2 15  1  0
  3  8  1  0
  3 16  1  0
  4 12  1  0
  4 13  1  0
  4 14  1  0
  5  6  1  0
  5 12  2  0
  6  7  2  0
  6 10  1  0
  7  9  1  0
  8  9  2  0
  8 11  1  0
 10 11  2  0
M  END
>  <PUBCHEM_COMPOUND_CID>  (1) 
43994

>  <PUBCHEM_CONFORMER_RMSD>  (1) 
0.6

>  <PUBCHEM_CONFORMER_DIVERSEORDER>  (1) 
1
15
10
11
16
2
17
7
3
6
13
12
9
14
8
5
4

>  <PUBCHEM_MMFF94_PARTIAL_CHARGES>  (1) 
19
1 -0.18
10 -0.15
11 0.18
12 0.44
13 0.37
14 0.37
15 0.28
16 0.28
17 0.15
18 0.15
19 0.06
2 -0.36
3 -0.36
4 -0.79
5 -0.63
6 0.18
7 0.08
8 0.08
9 -0.15

>  <PUBCHEM_EFFECTIVE_ROTOR_COUNT>  (1) 
4

>  <PUBCHEM_PHARMACOPHORE_FEATURES>  (1) 
4
1 2 acceptor
1 3 acceptor
3 4 5 12 cation
6 6 7 8 9 10 11 rings

>  <PUBCHEM_HEAVY_ATOM_COUNT>  (1) 
16

>  <PUBCHEM_ATOM_DEF_STEREO_COUNT>  (1) 
0

>  <PUBCHEM_ATOM_UDEF_STEREO_COUNT>  (1) 
0

>  <PUBCHEM_BOND_DEF_STEREO_COUNT>  (1) 
0

>  <PUBCHEM_BOND_UDEF_STEREO_COUNT>  (1) 
0

>  <PUBCHEM_ISOTOPIC_ATOM_COUNT>  (1) 
0

>  <PUBCHEM_COMPONENT_COUNT>  (1) 
1

>  <PUBCHEM_CACTVS_TAUTO_COUNT>  (1) 
1

>  <PUBCHEM_CONFORMER_ID>  (1) 
0000ABDA00000001

>  <PUBCHEM_MMFF94_ENERGY>  (1) 
62.0899

>  <PUBCHEM_FEATURE_SELFOVERLAP>  (1) 
20.297

>  <PUBCHEM_SHAPE_FINGERPRINT>  (1) 
10922049 32 18333735727736475243
11401426 45 18201714042284600220
11471102 20 18342737407921440932
12119455 92 17968090893735634935
12236239 1 17203612554129991785
12403259 415 18334297586895037597
12730499 353 18262236626187980749
13140716 1 18269557303058937786
13380535 76 18343024384814671782
13583140 156 16879044512333330697
13862211 1 18342735166217589782
13922767 16 18412824681485900816
14115302 16 18334588957750224516
14911166 2 18342466932682776308
14993402 34 18413112736536852428
15099037 51 18411139126012966716
16945 1 18271545134166786264
18186145 218 18343022202965809089
20511035 2 18056198205523538660
20645477 56 18263641938606731624
20645477 70 18201726162418520188
21501502 16 18125720334184716822
21524375 3 18410294700719175695
2334 1 17982737673345420032
23402539 116 18342449331374086316
23402655 69 18200589190698275469
23558518 356 17973442393053801842
23559900 14 18273218625640718116
25 1 18413110533023522263
2748010 2 17984433094458206636
3060560 45 18339354184788262927
366044 4 18409449176214118866
3759504 43 17895203228764867730
4072396 5 18264755580882211346
58051976 378 18342737382288449551
633830 44 18202290190926041557
69090 78 18341611550742478230
81228 2 17758669336681924619
81539 233 18114462249791792007
9981440 41 16479898834581395233
9999458 23 18114183051284482604

>  <PUBCHEM_SHAPE_MULTIPOLES>  (1) 
309.44
8.21
2.45
0.94
4.6
1.17
-0.06
-3.13
-0.74
-0.83
0.4
0.62
-0.06
0.79

>  <PUBCHEM_SHAPE_SELFOVERLAP>  (1) 
619.928

>  <PUBCHEM_SHAPE_VOLUME>  (1) 
186

>  <PUBCHEM_COORDINATE_TYPE>  (1) 
2
5
10

$$$$
