44005
     RDKit          3D

  8  8  0  0  0  0  0  0  0  0999 V2000
    1.1603    1.2907    0.0002 C   0  0  0  0  0  0  0  0  0  0  0  0
   -0.3733    1.2457   -0.0002 C   0  0  0  0  0  0  0  0  0  0  0  0
    1.5680   -0.1511    0.0001 C   0  0  0  0  0  0  0  0  0  0  0  0
   -0.7174   -0.2175    0.0001 C   0  0  0  0  0  0  0  0  0  0  0  0
    0.5098   -0.9678    0.0001 C   0  0  0  0  0  0  0  0  0  0  0  0
    3.0006   -0.5448   -0.0002 C   0  0  0  0  0  0  0  0  0  0  0  0
   -1.9489   -0.7354   -0.0001 C   0  0  0  0  0  0  0  0  0  0  0  0
   -3.1991    0.0803    0.0000 C   0  0  0  0  0  0  0  0  0  0  0  0
  1  2  1  0
  1  3  1  0
  2  4  1  0
  3  5  2  0
  3  6  1  0
  4  5  1  0
  4  7  2  0
  7  8  1  0
M  END
>  <PUBCHEM_COMPOUND_CID>  (1) 
44005

>  <PUBCHEM_CONFORMER_RMSD>  (1) 
0.4

>  <PUBCHEM_CONFORMER_DIVERSEORDER>  (1) 
1

>  <PUBCHEM_MMFF94_PARTIAL_CHARGES>  (1) 
10
1 0.14
13 0.15
17 0.15
2 0.14
3 -0.28
4 -0.14
5 -0.15
6 0.14
7 -0.29
8 0.14

>  <PUBCHEM_EFFECTIVE_ROTOR_COUNT>  (1) 
0.4

>  <PUBCHEM_PHARMACOPHORE_FEATURES>  (1) 
2
1 8 hydrophobe
5 1 2 3 4 5 rings

>  <PUBCHEM_HEAVY_ATOM_COUNT>  (1) 
8

>  <PUBCHEM_ATOM_DEF_STEREO_COUNT>  (1) 
0

>  <PUBCHEM_ATOM_UDEF_STEREO_COUNT>  (1) 
0

>  <PUBCHEM_BOND_DEF_STEREO_COUNT>  (1) 
0

>  <PUBCHEM_BOND_UDEF_STEREO_COUNT>  (1) 
1

>  <PUBCHEM_ISOTOPIC_ATOM_COUNT>  (1) 
0

>  <PUBCHEM_COMPONENT_COUNT>  (1) 
1

>  <PUBCHEM_CACTVS_TAUTO_COUNT>  (1) 
1

>  <PUBCHEM_CONFORMER_ID>  (1) 
0000ABE500000001

>  <PUBCHEM_MMFF94_ENERGY>  (1) 
6.726

>  <PUBCHEM_FEATURE_SELFOVERLAP>  (1) 
10.148

>  <PUBCHEM_SHAPE_FINGERPRINT>  (1) 
10219947 1 18273497866221838406
10857977 72 18340474625876074706
11062470 55 17346597469584343779
12932764 1 16878213247209036027
14325111 11 18338797922183271555
21040471 1 18050286169607163780
23402655 69 18195509421556443053
23552423 10 18189053255858264982
29004967 10 18409733971152836283
5084963 1 18343864428603426489

>  <PUBCHEM_SHAPE_MULTIPOLES>  (1) 
164.64
4.09
1.25
0.62
1
0.33
0
-0.71
0
-0.21
0
0
0
0

>  <PUBCHEM_SHAPE_SELFOVERLAP>  (1) 
327.705

>  <PUBCHEM_SHAPE_VOLUME>  (1) 
98.2

>  <PUBCHEM_COORDINATE_TYPE>  (1) 
2
5
10

$$$$
