44018
     RDKit          3D

 19 21  0  0  1  0  0  0  0  0999 V2000
    3.0076    0.7016   -2.4263 Cl  0  0  0  0  0  0  0  0  0  0  0  0
    4.9693    0.6798    0.1463 Cl  0  0  0  0  0  0  0  0  0  0  0  0
    0.0748   -2.6086    0.4414 N   0  0  0  0  0  0  0  0  0  0  0  0
   -2.9988   -0.5344   -0.5333 C   0  0  0  0  0  0  0  0  0  0  0  0
   -1.7844    1.5581    0.4343 C   0  0  0  0  0  0  0  0  0  0  0  0
   -1.7655   -0.9928    0.2920 C   0  0  0  0  0  0  0  0  0  0  0  0
   -1.0112    0.2639    0.8390 C   0  0  0  0  0  0  0  0  0  0  0  0
   -2.5646    0.4087   -1.6692 C   0  0  0  0  0  0  0  0  0  0  0  0
   -3.9432    0.2492    0.4023 C   0  0  0  0  0  0  0  0  0  0  0  0
   -1.9396    1.6835   -1.0918 C   0  0  0  0  0  0  0  0  0  0  0  0
   -3.2122    1.4530    1.0157 C   0  0  0  0  0  0  0  0  0  0  0  0
   -0.9374   -2.0499   -0.4387 C   0  0  0  0  0  0  0  0  0  0  0  0
    0.4941    0.3697    0.6478 C   0  0  0  0  0  0  0  0  0  0  0  0
    1.0250    0.4748   -0.6359 C   0  0  0  0  0  0  0  0  0  0  0  0
    1.3365    0.3609    1.7573 C   0  0  0  0  0  0  0  0  0  0  0  0
    0.8760   -3.6109   -0.2507 C   0  0  0  0  0  0  0  0  0  0  0  0
    2.4054    0.5718   -0.8108 C   0  0  0  0  0  0  0  0  0  0  0  0
    2.7169    0.4580    1.5823 C   0  0  0  0  0  0  0  0  0  0  0  0
    3.2513    0.5635    0.2983 C   0  0  0  0  0  0  0  0  0  0  0  0
  1 17  1  0
  2 19  1  0
  3 12  1  0
  3 16  1  0
  4  6  1  0
  4  8  1  0
  4  9  1  0
  5  7  1  0
  5 10  1  0
  5 11  1  0
  6  7  1  0
  6 12  1  0
  7 13  1  0
  8 10  1  0
  9 11  1  0
 13 14  2  0
 13 15  1  0
 14 17  1  0
 15 18  2  0
 17 19  2  0
 18 19  1  0
M  END
>  <PUBCHEM_COMPOUND_CID>  (1) 
44018

>  <PUBCHEM_CONFORMER_RMSD>  (1) 
0.6

>  <PUBCHEM_CONFORMER_DIVERSEORDER>  (1) 
3
9
8
6
11
10
4
7
5
12
1
2

>  <PUBCHEM_MMFF94_PARTIAL_CHARGES>  (1) 
16
1 -0.18
12 0.27
13 -0.14
14 -0.15
15 -0.15
16 0.27
17 0.18
18 -0.15
19 0.18
2 -0.18
3 -0.9
34 0.36
35 0.15
36 0.15
40 0.15
7 0.14

>  <PUBCHEM_EFFECTIVE_ROTOR_COUNT>  (1) 
4.2

>  <PUBCHEM_PHARMACOPHORE_FEATURES>  (1) 
4
1 3 cation
1 3 donor
6 13 14 15 17 18 19 rings
8 4 5 6 7 8 9 10 11 rings

>  <PUBCHEM_HEAVY_ATOM_COUNT>  (1) 
19

>  <PUBCHEM_ATOM_DEF_STEREO_COUNT>  (1) 
2

>  <PUBCHEM_ATOM_UDEF_STEREO_COUNT>  (1) 
0

>  <PUBCHEM_BOND_DEF_STEREO_COUNT>  (1) 
0

>  <PUBCHEM_BOND_UDEF_STEREO_COUNT>  (1) 
0

>  <PUBCHEM_ISOTOPIC_ATOM_COUNT>  (1) 
0

>  <PUBCHEM_COMPONENT_COUNT>  (1) 
1

>  <PUBCHEM_CACTVS_TAUTO_COUNT>  (1) 
1

>  <PUBCHEM_CONFORMER_ID>  (1) 
0000ABF200000003

>  <PUBCHEM_MMFF94_ENERGY>  (1) 
57.9284

>  <PUBCHEM_FEATURE_SELFOVERLAP>  (1) 
20.297

>  <PUBCHEM_SHAPE_FINGERPRINT>  (1) 
11370993 70 18411979170271869510
12173636 292 18412268367156965405
12236239 1 17822007635633220448
12592029 89 18114751447140741794
13024252 1 14996277025089856705
133893 2 18046622313580513987
13581323 91 18334849537141555104
14181834 199 18049702045475938458
15309172 13 18408042918285572857
15375462 478 16950279598585196749
15463212 79 18043244846373412234
15775835 57 18272931600753949347
16752209 62 18191575565682102347
16945 1 18411974772193592833
1813 80 17241879892673022210
18186145 218 18202567250243751244
18981168 100 17898571969357326037
200 152 16588018043915781769
20600515 1 18343304803414368736
20645476 183 17749660891475263202
23402539 116 18201714055243764456
23419403 2 17470987204394228510
23526113 38 17561093514009817138
23557571 272 17909835671393971880
23559900 14 18202281438378460320
2748010 2 17900813852101937613
3323516 105 17418106398735384447
350125 39 18051418362195035129
465052 167 17605006986516516795
633830 44 17846206774296052472
7364860 26 18055913195346047395
77492 1 17821725074077185184
81228 2 17762883760182111171
90525 40 18113891667459569374

>  <PUBCHEM_SHAPE_MULTIPOLES>  (1) 
389.77
6.84
2.4
1.7
3.51
3.19
0.55
-2.89
0.34
-0.38
0.12
0.9
-0.57
-0.22

>  <PUBCHEM_SHAPE_SELFOVERLAP>  (1) 
807.97

>  <PUBCHEM_SHAPE_VOLUME>  (1) 
224.9

>  <PUBCHEM_COORDINATE_TYPE>  (1) 
2
5
10

$$$$
