44010
     RDKit          3D

 19 21  0  0  1  0  0  0  0  0999 V2000
   -1.8857   -0.3431   -2.6654 Cl  0  0  0  0  0  0  0  0  0  0  0  0
    1.8985   -2.3784    0.2806 N   0  0  0  0  0  0  0  0  0  0  0  0
    2.4226    0.4439   -0.1832 C   0  0  0  0  0  0  0  0  0  0  0  0
    0.5079    2.1637    0.2078 C   0  0  0  0  0  0  0  0  0  0  0  0
    1.0515   -0.2141   -0.5211 C   0  0  0  0  0  0  0  0  0  0  0  0
   -0.0624    0.8885   -0.4890 C   0  0  0  0  0  0  0  0  0  0  0  0
    2.4337    0.9246    1.2774 C   0  0  0  0  0  0  0  0  0  0  0  0
    2.6214    1.6812   -1.0819 C   0  0  0  0  0  0  0  0  0  0  0  0
    1.2087    1.8087    1.5367 C   0  0  0  0  0  0  0  0  0  0  0  0
    1.5823    2.7576   -0.7324 C   0  0  0  0  0  0  0  0  0  0  0  0
    0.7955   -1.4368    0.3703 C   0  0  0  0  0  0  0  0  0  0  0  0
   -1.4534    0.4248   -0.0865 C   0  0  0  0  0  0  0  0  0  0  0  0
   -2.3323   -0.1397   -1.0106 C   0  0  0  0  0  0  0  0  0  0  0  0
   -1.8424    0.5761    1.2443 C   0  0  0  0  0  0  0  0  0  0  0  0
    2.0726   -2.8463   -1.0975 C   0  0  0  0  0  0  0  0  0  0  0  0
    1.6837   -3.5188    1.1760 C   0  0  0  0  0  0  0  0  0  0  0  0
   -3.6009   -0.5530   -0.6037 C   0  0  0  0  0  0  0  0  0  0  0  0
   -3.1111    0.1628    1.6511 C   0  0  0  0  0  0  0  0  0  0  0  0
   -3.9903   -0.4018    0.7272 C   0  0  0  0  0  0  0  0  0  0  0  0
  1 13  1  0
  2 11  1  0
  2 15  1  0
  2 16  1  0
  3  5  1  0
  3  7  1  0
  3  8  1  0
  4  6  1  0
  4  9  1  0
  4 10  1  0
  5  6  1  0
  5 11  1  0
  6 12  1  0
  7  9  1  0
  8 10  1  0
 12 13  2  0
 12 14  1  0
 13 17  1  0
 14 18  2  0
 17 19  2  0
 18 19  1  0
M  END
>  <PUBCHEM_COMPOUND_CID>  (1) 
44010

>  <PUBCHEM_CONFORMER_RMSD>  (1) 
0.6

>  <PUBCHEM_CONFORMER_DIVERSEORDER>  (1) 
1
2

>  <PUBCHEM_MMFF94_PARTIAL_CHARGES>  (1) 
16
1 -0.18
11 0.27
12 -0.14
13 0.18
14 -0.15
15 0.27
16 0.27
17 -0.15
18 -0.15
19 -0.15
2 -0.81
34 0.15
41 0.15
42 0.15
43 0.15
6 0.14

>  <PUBCHEM_EFFECTIVE_ROTOR_COUNT>  (1) 
4.2

>  <PUBCHEM_PHARMACOPHORE_FEATURES>  (1) 
3
1 2 cation
6 12 13 14 17 18 19 rings
8 3 4 5 6 7 8 9 10 rings

>  <PUBCHEM_HEAVY_ATOM_COUNT>  (1) 
19

>  <PUBCHEM_ATOM_DEF_STEREO_COUNT>  (1) 
2

>  <PUBCHEM_ATOM_UDEF_STEREO_COUNT>  (1) 
0

>  <PUBCHEM_BOND_DEF_STEREO_COUNT>  (1) 
0

>  <PUBCHEM_BOND_UDEF_STEREO_COUNT>  (1) 
0

>  <PUBCHEM_ISOTOPIC_ATOM_COUNT>  (1) 
0

>  <PUBCHEM_COMPONENT_COUNT>  (1) 
1

>  <PUBCHEM_CACTVS_TAUTO_COUNT>  (1) 
1

>  <PUBCHEM_CONFORMER_ID>  (1) 
0000ABEA00000001

>  <PUBCHEM_MMFF94_ENERGY>  (1) 
69.3296

>  <PUBCHEM_FEATURE_SELFOVERLAP>  (1) 
15.223

>  <PUBCHEM_SHAPE_FINGERPRINT>  (1) 
10064457 181 17976283513914441467
11578080 2 17678467354810580028
12202030 40 17749392512201847987
12553582 1 17977112266467420283
13140716 1 18194960974731166240
13533116 47 18412271632191817491
13538477 17 17418088871311440061
13583140 156 18271807969339009857
13681431 1 18266173937918116390
13965767 371 17128491668925696057
14178342 30 18198614613489970731
14787075 74 16476520082746567381
15209289 33 18130510833390638440
15309172 13 18118407473510822941
15664445 248 15792316863609439919
16945 1 18409450314343509484
1813 80 17983310235172510390
20511035 2 17982450399593803685
20645477 70 18187356671215529655
21452121 199 18042962069673561906
21731516 1 18051695442961558242
22112679 90 17703504406995297165
22445834 79 18131073736046522649
2255824 54 18341337798233198820
23419403 2 16753740666928518424
23526113 38 17678438793378125167
23598291 2 18058741191055720555
23728640 28 16243768280083362195
238 59 18043783550724920607
2748010 2 18121204399147625708
3060560 45 18190183566839244668
3729539 64 17825420503500517222
4340502 62 18268705190491286655
458136 41 18189917463428802815
5262128 65 14998005383848362047
5845 1 10810711122730758566
633830 44 18128834112286364709
7097593 13 18200323108746989251
7364860 26 18273496758199540130
77492 1 17917154995746025173
81228 2 17258485652871579658
8272917 22 18337685173835677913
9981440 41 16121322860226760608

>  <PUBCHEM_SHAPE_MULTIPOLES>  (1) 
387.9
5.28
3.17
1.84
4.74
2.47
-0.53
0.35
0.41
-3.89
0.36
0.8
0.06
-0.46

>  <PUBCHEM_SHAPE_SELFOVERLAP>  (1) 
811.243

>  <PUBCHEM_SHAPE_VOLUME>  (1) 
221.5

>  <PUBCHEM_COORDINATE_TYPE>  (1) 
2
5
10

$$$$
