44030
     RDKit          3D

 19 21  0  0  1  0  0  0  0  0999 V2000
   -5.6544   -0.5366    0.3774 Br  0  0  0  0  0  0  0  0  0  0  0  0
    1.8952   -2.5017    0.2380 N   0  0  0  0  0  0  0  0  0  0  0  0
    2.6801    0.2785   -0.0926 C   0  0  0  0  0  0  0  0  0  0  0  0
    0.8737    2.1371    0.1507 C   0  0  0  0  0  0  0  0  0  0  0  0
    1.3043   -0.2617   -0.5849 C   0  0  0  0  0  0  0  0  0  0  0  0
    0.2813    0.9252   -0.6348 C   0  0  0  0  0  0  0  0  0  0  0  0
    2.5783    0.7281    1.3743 C   0  0  0  0  0  0  0  0  0  0  0  0
    3.0648    1.5134   -0.9324 C   0  0  0  0  0  0  0  0  0  0  0  0
    1.4051    1.7016    1.5332 C   0  0  0  0  0  0  0  0  0  0  0  0
    2.0815    2.6620   -0.6597 C   0  0  0  0  0  0  0  0  0  0  0  0
    0.8646   -1.4774    0.2421 C   0  0  0  0  0  0  0  0  0  0  0  0
   -1.1753    0.5658   -0.3874 C   0  0  0  0  0  0  0  0  0  0  0  0
   -1.9299   -0.0146   -1.4043 C   0  0  0  0  0  0  0  0  0  0  0  0
   -1.7492    0.8189    0.8563 C   0  0  0  0  0  0  0  0  0  0  0  0
    2.1731   -2.9549   -1.1279 C   0  0  0  0  0  0  0  0  0  0  0  0
    1.5023   -3.6387    1.0754 C   0  0  0  0  0  0  0  0  0  0  0  0
   -3.2662   -0.3435   -1.1760 C   0  0  0  0  0  0  0  0  0  0  0  0
   -3.0854    0.4898    1.0844 C   0  0  0  0  0  0  0  0  0  0  0  0
   -3.8439   -0.0913    0.0683 C   0  0  0  0  0  0  0  0  0  0  0  0
  1 19  1  0
  2 11  1  0
  2 15  1  0
  2 16  1  0
  3  5  1  0
  3  7  1  0
  3  8  1  0
  4  6  1  0
  4  9  1  0
  4 10  1  0
  5  6  1  0
  5 11  1  0
  6 12  1  0
  7  9  1  0
  8 10  1  0
 12 13  2  0
 12 14  1  0
 13 17  1  0
 14 18  2  0
 17 19  2  0
 18 19  1  0
M  END
>  <PUBCHEM_COMPOUND_CID>  (1) 
44030

>  <PUBCHEM_CONFORMER_RMSD>  (1) 
0.6

>  <PUBCHEM_CONFORMER_DIVERSEORDER>  (1) 
1
2

>  <PUBCHEM_MMFF94_PARTIAL_CHARGES>  (1) 
16
1 -0.11
11 0.27
12 -0.14
13 -0.15
14 -0.15
15 0.27
16 0.27
17 -0.15
18 -0.15
19 0.11
2 -0.81
34 0.15
35 0.15
42 0.15
43 0.15
6 0.14

>  <PUBCHEM_EFFECTIVE_ROTOR_COUNT>  (1) 
4.2

>  <PUBCHEM_PHARMACOPHORE_FEATURES>  (1) 
4
1 1 hydrophobe
1 2 cation
6 12 13 14 17 18 19 rings
8 3 4 5 6 7 8 9 10 rings

>  <PUBCHEM_HEAVY_ATOM_COUNT>  (1) 
19

>  <PUBCHEM_ATOM_DEF_STEREO_COUNT>  (1) 
2

>  <PUBCHEM_ATOM_UDEF_STEREO_COUNT>  (1) 
0

>  <PUBCHEM_BOND_DEF_STEREO_COUNT>  (1) 
0

>  <PUBCHEM_BOND_UDEF_STEREO_COUNT>  (1) 
0

>  <PUBCHEM_ISOTOPIC_ATOM_COUNT>  (1) 
0

>  <PUBCHEM_COMPONENT_COUNT>  (1) 
1

>  <PUBCHEM_CACTVS_TAUTO_COUNT>  (1) 
1

>  <PUBCHEM_CONFORMER_ID>  (1) 
0000ABFE00000001

>  <PUBCHEM_MMFF94_ENERGY>  (1) 
65.6347

>  <PUBCHEM_FEATURE_SELFOVERLAP>  (1) 
20.297

>  <PUBCHEM_SHAPE_FINGERPRINT>  (1) 
10064457 181 18194126441253147927
10366900 7 18339932618568460081
114674 6 18114184107963275083
11578080 2 17970909947244939892
12107183 9 17907869401554686633
12236239 1 17989213680653028717
12403259 327 14548156689791787399
12553582 1 17905331727853180751
12616999 72 18187652435253048173
13140716 1 18195236943543966025
13533116 47 18413111650464313571
13583140 156 18271802454616962153
13836976 161 18261396714334872084
14178342 30 18127113380967803827
14289901 80 18410298034315255057
14787075 74 16907187788082822741
14863182 85 18341894095583036974
15309172 13 18262798613087786373
15375462 189 18202281394690185283
16945 1 18409726274745761980
1813 80 17983589506809853758
18186145 218 18198899391307438741
20559304 39 18059856138532084329
20600515 1 17409378269354926020
20645477 70 18187080672279812873
21421861 104 18338803303824916169
21452121 199 17970902255179778882
21731516 1 17979072678540662758
22445834 79 18201719535674352801
2255824 54 18341333387328218148
22854114 111 18201155550623556081
23419403 2 17401997325307582344
23557571 272 16443059487529518037
23558518 356 17263267931341545101
23559900 14 18335700499512856915
23598291 2 18057340387445574793
238 59 18337682995701943499
2748010 2 18049986810645089308
3060560 45 18262522614468737084
33824 294 18335985341417113923
4409770 3 11034715623164375065
458136 41 18335709393841572367
465052 167 17821441387297650136
474 4 18269556216147959673
5845 1 17267754613408884150
633830 44 18058169612418478573
7097593 13 18200035028094532123
7364860 26 18201436956569521222
81228 2 17116060397029931286
8272917 22 18409737265909775421
9981440 41 16121881399254037240
9999458 23 18337115677830131428

>  <PUBCHEM_SHAPE_MULTIPOLES>  (1) 
391.97
7.27
3.19
1.38
12.12
3.14
0.11
0.21
0.31
-4.2
0.32
-0.17
-0.02
-0.21

>  <PUBCHEM_SHAPE_SELFOVERLAP>  (1) 
812.83

>  <PUBCHEM_SHAPE_VOLUME>  (1) 
232

>  <PUBCHEM_COORDINATE_TYPE>  (1) 
2
5
10

$$$$
