44044
     RDKit          3D

 21 23  0  0  0  0  0  0  0  0999 V2000
   -1.2386    2.5558   -0.0003 O   0  0  0  0  0  0  0  0  0  0  0  0
   -2.0774   -2.7226    0.0010 O   0  0  0  0  0  0  0  0  0  0  0  0
    3.3656    0.5083   -0.0016 N   0  0  0  0  0  0  0  0  0  0  0  0
    5.7492    0.1923    0.0018 N   0  0  0  0  0  0  0  0  0  0  0  0
   -0.2909    0.4063   -0.0013 C   0  0  0  0  0  0  0  0  0  0  0  0
   -0.5101   -0.9728   -0.0011 C   0  0  0  0  0  0  0  0  0  0  0  0
   -2.8054    0.8061    0.0000 C   0  0  0  0  0  0  0  0  0  0  0  0
   -3.0247   -0.5731    0.0002 C   0  0  0  0  0  0  0  0  0  0  0  0
   -1.4305    1.3461   -0.0009 C   0  0  0  0  0  0  0  0  0  0  0  0
   -1.8850   -1.5129   -0.0005 C   0  0  0  0  0  0  0  0  0  0  0  0
    1.0173    0.9054   -0.0019 C   0  0  0  0  0  0  0  0  0  0  0  0
    2.0994    0.0248   -0.0025 C   0  0  0  0  0  0  0  0  0  0  0  0
    0.5788   -1.8529   -0.0017 C   0  0  0  0  0  0  0  0  0  0  0  0
    1.8807   -1.3514   -0.0023 C   0  0  0  0  0  0  0  0  0  0  0  0
   -3.8942    1.6861    0.0008 C   0  0  0  0  0  0  0  0  0  0  0  0
   -4.3326   -1.0722    0.0012 C   0  0  0  0  0  0  0  0  0  0  0  0
   -5.1961    1.1846    0.0018 C   0  0  0  0  0  0  0  0  0  0  0  0
   -5.4148   -0.1916    0.0019 C   0  0  0  0  0  0  0  0  0  0  0  0
    4.4798   -0.2348    0.0005 C   0  0  0  0  0  0  0  0  0  0  0  0
    6.8690   -0.7617    0.0042 C   0  0  0  0  0  0  0  0  0  0  0  0
    6.0605    1.6302    0.0006 C   0  0  0  0  0  0  0  0  0  0  0  0
  1  9  2  0
  2 10  2  0
  3 12  1  0
  3 19  1  0
  4 19  2  3
  4 20  1  0
  4 21  1  0
  5  6  2  0
  5  9  1  0
  5 11  1  0
  6 10  1  0
  6 13  1  0
  7  8  2  0
  7  9  1  0
  7 15  1  0
  8 10  1  0
  8 16  1  0
 11 12  2  0
 12 14  1  0
 13 14  2  0
 15 17  2  0
 16 18  2  0
 17 18  1  0
M  CHG  1   4   1
M  END
>  <PUBCHEM_COMPOUND_CID>  (1) 
44044

>  <PUBCHEM_CONFORMER_RMSD>  (1) 
0.6

>  <PUBCHEM_CONFORMER_DIVERSEORDER>  (1) 
1
2
3

>  <PUBCHEM_MMFF94_PARTIAL_CHARGES>  (1) 
30
1 -0.57
10 0.4
11 -0.15
12 0.35
13 -0.15
14 -0.15
15 -0.15
16 -0.15
17 -0.15
18 -0.15
19 0.56
2 -0.57
20 0.49
21 0.49
22 0.15
23 0.15
24 0.15
25 0.15
26 0.15
27 0.45
28 0.15
29 0.15
3 -0.65
30 0.15
4 -0.83
5 0.09
6 0.09
7 0.09
8 0.09
9 0.4

>  <PUBCHEM_EFFECTIVE_ROTOR_COUNT>  (1) 
2

>  <PUBCHEM_PHARMACOPHORE_FEATURES>  (1) 
7
1 1 acceptor
1 2 acceptor
1 3 donor
3 3 4 19 cation
6 5 6 11 12 13 14 rings
6 5 6 7 8 9 10 rings
6 7 8 15 16 17 18 rings

>  <PUBCHEM_HEAVY_ATOM_COUNT>  (1) 
21

>  <PUBCHEM_ATOM_DEF_STEREO_COUNT>  (1) 
0

>  <PUBCHEM_ATOM_UDEF_STEREO_COUNT>  (1) 
0

>  <PUBCHEM_BOND_DEF_STEREO_COUNT>  (1) 
0

>  <PUBCHEM_BOND_UDEF_STEREO_COUNT>  (1) 
0

>  <PUBCHEM_ISOTOPIC_ATOM_COUNT>  (1) 
0

>  <PUBCHEM_COMPONENT_COUNT>  (1) 
1

>  <PUBCHEM_CACTVS_TAUTO_COUNT>  (1) 
6

>  <PUBCHEM_CONFORMER_ID>  (1) 
0000AC0C00000001

>  <PUBCHEM_MMFF94_ENERGY>  (1) 
65.0741

>  <PUBCHEM_FEATURE_SELFOVERLAP>  (1) 
35.562

>  <PUBCHEM_SHAPE_FINGERPRINT>  (1) 
10 15 18334289912321256088
10411042 1 17906172111757482163
10730089 173 18410856555782665664
10906281 52 18339380611563818189
10967382 1 18338517444140289383
11315181 36 18334579057450011560
11524674 6 17060336323364631686
11578080 2 16880460490083636919
12011746 2 18413101758553081573
12107183 9 17613991899058988056
12236239 1 17894912940752103220
12390115 104 18129394699939266577
12403814 3 17530961372054243837
12788726 201 17774440451944396649
12838862 33 18337935832506734605
13140716 1 18266182918800175585
13288520 33 18412545414006140877
13862211 1 18410853282701321935
14790565 3 18410298020781941672
15042514 8 18265617769903236939
15196674 1 18338798914431727079
16087824 20 18411979184053830183
16945 1 18266741466928965955
19784866 170 18409449172008724915
200 152 17489586757595081969
20281389 69 18333448742522568844
20510252 161 18271808952469971185
21236236 1 18341330075818716543
21267235 1 18409735097078014827
21279426 13 18196938772937985902
2297311 6 18343027683549787764
23402539 116 18341889705672481215
23559900 14 18270392910210792632
2748010 2 17545883089505543911
3004659 81 18408325467863898430
335352 9 18410856572551273525
34797466 226 17774734159752986724
34934 24 18410289203277146171
350125 39 18410012156564945348
3545911 37 18410856542982244318
4073 2 18041283279323161026
4214541 1 18410573990037340068
4463277 17 18410012147905958264
474229 33 18411418405945027334
5104073 3 18264213525892003043
59755656 215 18340492171303262846
59755656 520 17167580501014569834

>  <PUBCHEM_SHAPE_MULTIPOLES>  (1) 
410.47
13.85
2.16
0.6
18.44
0.14
0
-2.63
-0.02
-1.05
0
-0.02
0
0

>  <PUBCHEM_SHAPE_SELFOVERLAP>  (1) 
905.415

>  <PUBCHEM_SHAPE_VOLUME>  (1) 
220.2

>  <PUBCHEM_COORDINATE_TYPE>  (1) 
2
5
10

$$$$
