44052
     RDKit          3D

 28 29  0  0  0  0  0  0  0  0999 V2000
   -1.8128    3.1845    2.3089 Cl  0  0  0  0  0  0  0  0  0  0  0  0
    1.2009    2.8778   -0.2649 F   0  0  0  0  0  0  0  0  0  0  0  0
    3.2992    2.6448    0.2315 F   0  0  0  0  0  0  0  0  0  0  0  0
    2.6040    2.1944   -1.7792 F   0  0  0  0  0  0  0  0  0  0  0  0
   -5.5901   -1.0319   -1.2100 F   0  0  0  0  0  0  0  0  0  0  0  0
   -3.8955   -0.8884   -2.5559 F   0  0  0  0  0  0  0  0  0  0  0  0
   -3.8439   -2.2884   -0.8927 F   0  0  0  0  0  0  0  0  0  0  0  0
    5.1902   -0.8476   -0.8430 O   0  0  0  0  0  0  0  0  0  0  0  0
    4.5261    1.2337   -1.0588 O   0  0  0  0  0  0  0  0  0  0  0  0
    0.1867   -3.6720    1.4811 O   0  0  0  0  0  0  0  0  0  0  0  0
    2.2334   -4.2009    0.8896 O   0  0  0  0  0  0  0  0  0  0  0  0
   -0.2501    1.2200    0.5877 N   0  0  0  0  0  0  0  0  0  0  0  0
    4.3145    0.0423   -0.7314 N   0  0  0  0  0  0  0  0  0  0  0  0
    1.3134   -3.3588    1.0266 N   0  0  0  0  0  0  0  0  0  0  0  0
    0.7790    0.2736    0.4349 C   0  0  0  0  0  0  0  0  0  0  0  0
    2.0286    0.6414   -0.0731 C   0  0  0  0  0  0  0  0  0  0  0  0
    3.0366   -0.3120   -0.2161 C   0  0  0  0  0  0  0  0  0  0  0  0
   -1.6586    1.1171    0.5339 C   0  0  0  0  0  0  0  0  0  0  0  0
    0.5467   -1.0560    0.7984 C   0  0  0  0  0  0  0  0  0  0  0  0
    1.5547   -2.0095    0.6553 C   0  0  0  0  0  0  0  0  0  0  0  0
    2.7997   -1.6374    0.1482 C   0  0  0  0  0  0  0  0  0  0  0  0
    2.2783    2.0661   -0.4624 C   0  0  0  0  0  0  0  0  0  0  0  0
   -2.2281    0.1434   -0.2867 C   0  0  0  0  0  0  0  0  0  0  0  0
   -3.6154    0.0176   -0.3601 C   0  0  0  0  0  0  0  0  0  0  0  0
   -2.4763    1.9650    1.2810 C   0  0  0  0  0  0  0  0  0  0  0  0
   -4.4332    0.8654    0.3869 C   0  0  0  0  0  0  0  0  0  0  0  0
   -3.8636    1.8391    1.2074 C   0  0  0  0  0  0  0  0  0  0  0  0
   -4.2244   -1.0235   -1.2370 C   0  0  0  0  0  0  0  0  0  0  0  0
  1 25  1  0
  2 22  1  0
  3 22  1  0
  4 22  1  0
  5 28  1  0
  6 28  1  0
  7 28  1  0
  8 13  1  0
  9 13  2  0
 10 14  1  0
 11 14  2  0
 12 15  1  0
 12 18  1  0
 13 17  1  0
 14 20  1  0
 15 16  2  0
 15 19  1  0
 16 17  1  0
 16 22  1  0
 17 21  2  0
 18 23  2  0
 18 25  1  0
 19 20  2  0
 20 21  1  0
 23 24  1  0
 24 26  2  0
 24 28  1  0
 25 27  2  0
 26 27  1  0
M  CHG  4   8  -1  10  -1  13   1  14   1
M  END
>  <PUBCHEM_COMPOUND_CID>  (1) 
44052

>  <PUBCHEM_CONFORMER_RMSD>  (1) 
0.8

>  <PUBCHEM_CONFORMER_DIVERSEORDER>  (1) 
1
4
7
2
6
3
5
8

>  <PUBCHEM_MMFF94_PARTIAL_CHARGES>  (1) 
34
1 -0.18
10 -0.52
11 -0.52
12 -0.6
13 0.91
14 0.91
15 0.1
16 -0.14
17 0.13
18 0.1
19 -0.15
2 -0.34
20 0.13
21 -0.15
22 1.16
23 -0.15
24 -0.14
25 0.18
26 -0.15
27 -0.15
28 1.16
29 0.4
3 -0.34
30 0.15
31 0.15
32 0.15
33 0.15
34 0.15
4 -0.34
5 -0.34
6 -0.34
7 -0.34
8 -0.52
9 -0.52

>  <PUBCHEM_EFFECTIVE_ROTOR_COUNT>  (1) 
6

>  <PUBCHEM_PHARMACOPHORE_FEATURES>  (1) 
10
1 10 acceptor
1 10 anion
1 11 acceptor
1 12 cation
1 12 donor
1 8 acceptor
1 8 anion
1 9 acceptor
6 15 16 17 19 20 21 rings
6 18 23 24 25 26 27 rings

>  <PUBCHEM_HEAVY_ATOM_COUNT>  (1) 
28

>  <PUBCHEM_ATOM_DEF_STEREO_COUNT>  (1) 
0

>  <PUBCHEM_ATOM_UDEF_STEREO_COUNT>  (1) 
0

>  <PUBCHEM_BOND_DEF_STEREO_COUNT>  (1) 
0

>  <PUBCHEM_BOND_UDEF_STEREO_COUNT>  (1) 
0

>  <PUBCHEM_ISOTOPIC_ATOM_COUNT>  (1) 
0

>  <PUBCHEM_COMPONENT_COUNT>  (1) 
1

>  <PUBCHEM_CACTVS_TAUTO_COUNT>  (1) 
1

>  <PUBCHEM_CONFORMER_ID>  (1) 
0000AC1400000001

>  <PUBCHEM_MMFF94_ENERGY>  (1) 
99.2873

>  <PUBCHEM_FEATURE_SELFOVERLAP>  (1) 
50.909

>  <PUBCHEM_SHAPE_FINGERPRINT>  (1) 
10616163 171 18131071515670055455
10622 236 18125980721184111375
10693767 8 18197500632445266902
11069576 57 18197189547821469607
11578080 2 17910358776519811001
12236239 1 18343027666164462969
12553582 1 17830453877815612211
12788726 201 17988360352730075889
13009979 54 18057034701569898915
13583140 156 18189069607558786753
13911987 19 17895773875489360860
14117953 113 17476351708952028143
14787075 74 18058718251667431408
14790565 3 18118711880078043636
14931854 50 18410851079668202735
15420108 30 17623301463721723648
15537594 2 18343027649332415963
15842332 3 18198343953309307883
16752209 62 17703497840697157575
17138139 8 18126553742455715295
17349148 13 18334288764826295480
17818456 19 17698445421216404697
17909252 39 17774163534107516166
19319366 153 18266727164292913871
20028762 73 18341609292334083510
20511986 3 18200865189254281213
20642791 105 17111001003124020404
20775438 99 16762227092935883943
21033648 144 17604157033414815916
21033648 29 15791731935775907332
21054139 6 18411696595435533790
21634736 98 18342171219409522279
22393880 68 18340484478357368244
2255824 54 18334021562152431584
235170 7 17531791542199222463
23557571 272 16558194782701839297
23559900 14 17846769715897156545
23598288 3 17987514819524678093
23598291 2 18197215841304728163
238 59 17967810548388064179
25147074 1 18270962315757931473
266924 1 18341613660051553201
3004659 81 18412818101864736637
352729 6 18191599738053157930
4280585 95 17553780455989442510
4409770 3 17686908627868114754
474 4 18261405433197720992
484989 97 18117571840495213026
7097593 13 18052258397383565793
7970288 3 17487888120169710991

>  <PUBCHEM_SHAPE_MULTIPOLES>  (1) 
496.03
9.61
4.08
1.6
2.77
1.83
-0.18
0.89
-3.96
-1.4
1.8
1.11
0.03
-3.67

>  <PUBCHEM_SHAPE_SELFOVERLAP>  (1) 
1078.643

>  <PUBCHEM_SHAPE_VOLUME>  (1) 
272.8

>  <PUBCHEM_COORDINATE_TYPE>  (1) 
2
5
10

$$$$
