4405
     RDKit          3D

 25 28  0  0  1  0  0  0  0  0999 V2000
    3.7300    0.3872    1.0111 O   0  0  0  0  0  0  0  0  0  0  0  0
    4.1819   -2.3262   -0.6403 O   0  0  0  0  0  0  0  0  0  0  0  0
    5.6136   -0.4070   -1.9437 O   0  0  0  0  0  0  0  0  0  0  0  0
    5.8120    2.2035    1.5956 O   0  0  0  0  0  0  0  0  0  0  0  0
    1.5270   -0.0496    0.2425 N   0  0  0  0  0  0  0  0  0  0  0  0
   -0.0626    1.4597   -0.1739 N   0  0  0  0  0  0  0  0  0  0  0  0
    0.1450   -2.0075    0.6414 N   0  0  0  0  0  0  0  0  0  0  0  0
   -3.0101    0.7150   -0.1248 N   0  0  0  0  0  0  0  0  0  0  0  0
   -2.2275   -1.4797    0.4205 N   0  0  0  0  0  0  0  0  0  0  0  0
    3.5178   -1.0852   -0.8723 C   0  0  0  0  0  0  0  0  0  0  0  0
    2.8659   -0.6116    0.4280 C   0  0  0  0  0  0  0  0  0  0  0  0
    4.5110    0.0213   -1.1736 C   0  0  0  0  0  0  0  0  0  0  0  0
    4.9246    0.4712    0.2169 C   0  0  0  0  0  0  0  0  0  0  0  0
    5.4703    1.8873    0.2576 C   0  0  0  0  0  0  0  0  0  0  0  0
    0.3362   -0.7125    0.3477 C   0  0  0  0  0  0  0  0  0  0  0  0
    1.2337    1.2522   -0.0718 C   0  0  0  0  0  0  0  0  0  0  0  0
   -0.6356    0.2401    0.0857 C   0  0  0  0  0  0  0  0  0  0  0  0
   -1.9599   -0.1839    0.1295 C   0  0  0  0  0  0  0  0  0  0  0  0
   -1.1739   -2.2989    0.6549 C   0  0  0  0  0  0  0  0  0  0  0  0
   -4.4139    0.5675   -0.1482 C   0  0  0  0  0  0  0  0  0  0  0  0
   -5.1848    1.3701   -0.9882 C   0  0  0  0  0  0  0  0  0  0  0  0
   -5.0276   -0.3816    0.6683 C   0  0  0  0  0  0  0  0  0  0  0  0
   -6.5717    1.2232   -1.0118 C   0  0  0  0  0  0  0  0  0  0  0  0
   -6.4145   -0.5284    0.6445 C   0  0  0  0  0  0  0  0  0  0  0  0
   -7.1866    0.2738   -0.1955 C   0  0  0  0  0  0  0  0  0  0  0  0
  1 11  1  0
  1 13  1  0
  2 10  1  0
  3 12  1  0
  4 14  1  0
  5 11  1  0
  5 15  1  0
  5 16  1  0
  6 16  2  0
  6 17  1  0
  7 15  1  0
  7 19  2  0
  8 18  1  0
  8 20  1  0
  9 18  2  0
  9 19  1  0
 10 11  1  0
 10 12  1  0
 12 13  1  0
 13 14  1  0
 15 17  2  0
 17 18  1  0
 20 21  2  0
 20 22  1  0
 21 23  1  0
 22 24  2  0
 23 25  2  0
 24 25  1  0
M  END
>  <PUBCHEM_COMPOUND_CID>  (1) 
4405

>  <PUBCHEM_CONFORMER_RMSD>  (1) 
0.8

>  <PUBCHEM_CONFORMER_DIVERSEORDER>  (1) 
1
172
139
217
163
147
51
7
175
48
11
106
93
186
82
171
74
189
36
118
187
63
58
64
57
132
196
50
37
199
6
202
141
178
78
97
54
191
181
77
134
28
218
159
15
43
116
155
194
59
144
103
18
46
216
209
91
100
25
4
101
114
213
9
105
164
88
62
180
130
204
197
99
75
146
34
107
122
72
94
61
17
49
214
90
206
156
174
66
95
40
14
73
56
125
188
98
124
33
169
21
8
154
84
129
211
13
162
183
219
10
185
2
31
166
3
198
55
109
23
200
71
207
152
27
112
142
41
85
53
201
135
177
215
29
39
26
137
60
131
83
168
30
69
86
195
151
128
133
143
67
170
42
110
158
117
123
12
87
165
32
210
92
79
208
119
89
24
167
81
65
205
16
45
70
203
19
120
121
145
76
192
161
182
96
20
153
115
102
52
176
35
68
190
38
138
104
157
22
140
5
108
127
160
173
212
80
148
126
111
149
179
150
44
220
113
47
193
136
184

>  <PUBCHEM_MMFF94_PARTIAL_CHARGES>  (1) 
36
1 -0.56
10 0.28
11 0.54
12 0.28
13 0.28
14 0.28
15 0.11
16 0.04
17 0.23
18 0.41
19 0.47
2 -0.68
20 0.1
21 -0.15
22 -0.15
23 -0.15
24 -0.15
25 -0.15
3 -0.68
32 0.4
33 0.4
34 0.15
35 0.4
36 0.15
37 0.4
38 0.15
39 0.15
4 -0.68
40 0.15
41 0.15
42 0.15
5 0.05
6 -0.57
7 -0.57
8 -0.6
9 -0.62

>  <PUBCHEM_EFFECTIVE_ROTOR_COUNT>  (1) 
5

>  <PUBCHEM_PHARMACOPHORE_FEATURES>  (1) 
16
1 1 acceptor
1 2 acceptor
1 2 donor
1 3 acceptor
1 3 donor
1 4 acceptor
1 4 donor
1 8 cation
1 8 donor
3 5 6 16 cation
3 5 7 15 cation
3 7 9 19 cation
5 1 10 11 12 13 rings
5 5 6 15 16 17 rings
6 20 21 22 23 24 25 rings
6 7 9 15 17 18 19 rings

>  <PUBCHEM_HEAVY_ATOM_COUNT>  (1) 
25

>  <PUBCHEM_ATOM_DEF_STEREO_COUNT>  (1) 
0

>  <PUBCHEM_ATOM_UDEF_STEREO_COUNT>  (1) 
4

>  <PUBCHEM_BOND_DEF_STEREO_COUNT>  (1) 
0

>  <PUBCHEM_BOND_UDEF_STEREO_COUNT>  (1) 
0

>  <PUBCHEM_ISOTOPIC_ATOM_COUNT>  (1) 
0

>  <PUBCHEM_COMPONENT_COUNT>  (1) 
1

>  <PUBCHEM_CACTVS_TAUTO_COUNT>  (1) 
3

>  <PUBCHEM_CONFORMER_ID>  (1) 
0000113500000001

>  <PUBCHEM_MMFF94_ENERGY>  (1) 
70.8071

>  <PUBCHEM_FEATURE_SELFOVERLAP>  (1) 
81.818

>  <PUBCHEM_SHAPE_FINGERPRINT>  (1) 
10 15 17967811695018017560
10638233 991 16917067793401460945
11796584 16 15482664689359990439
12166972 35 13758355595937386107
12236239 1 16805325495858556815
12403259 415 18408319995638044817
12516196 113 18413107264812301493
12730499 353 18342461439319676450
12916748 109 18408886222113332409
13533116 47 17275107197845363046
14170010 4 18411139151598608781
14461889 52 18262518207663415106
15183329 4 17346317072998060503
15348495 7 9078815386734780973
17349148 13 13542467578782034747
173720 79 17240477009575946528
17980427 23 17824536603446995380
18222031 100 12967131627053388850
20281389 69 18040994034006689457
20645477 70 17561089073235036702
21150785 3 17274816991374167685
21279426 13 18265332807401837589
21285901 2 18262523576340561822
21521721 280 18273217508395502491
21792934 111 18262223439762955432
220451 1 15985103020526056245
2215653 11 18272656726957531886
23081809 10 14923948950990795441
23536379 177 16200434650421922907
23559900 14 18130504240283666640
23569914 152 16832051037965492493
24771293 8 18336539533806190028
2916195 48 18409162229681058313
293599 30 18260830397369663979
29717793 49 16702029655974345436
3004659 81 18113902603069219362
335352 9 18408042905949355742
3472631 163 17894923970328320910
34797466 226 17632861936057253332
34934 24 18409724097492696562
4340502 62 18261106374909607146
465052 167 12175618481962703276
495365 180 17846208969599269114
5104073 3 17968938579178934921
59682541 52 17560519499787936783
59755656 215 18335702711489846087
70251023 43 16916238659208562302

>  <PUBCHEM_SHAPE_MULTIPOLES>  (1) 
466.11
17.83
1.97
1.11
12.04
0.45
-0.19
-6.42
-2.01
-1.3
0.23
-1.29
-0.13
2.25

>  <PUBCHEM_SHAPE_SELFOVERLAP>  (1) 
1021.532

>  <PUBCHEM_SHAPE_VOLUME>  (1) 
247.1

>  <PUBCHEM_COORDINATE_TYPE>  (1) 
2
5
10

$$$$
