44051
     RDKit          3D

 16 16  0  0  1  0  0  0  0  0999 V2000
    0.5088   -0.3018   -0.0689 O   0  0  0  0  0  0  0  0  0  0  0  0
   -0.5283   -2.1185    0.8921 O   0  0  0  0  0  0  0  0  0  0  0  0
    3.1386    0.7597    0.2522 N   0  0  0  0  0  0  0  0  0  0  0  0
    2.7474   -0.1266   -0.9215 C   0  0  0  0  0  0  0  0  0  0  0  0
    1.6121   -1.0713   -0.5409 C   0  0  0  0  0  0  0  0  0  0  0  0
    3.5438   -0.1110    1.4327 C   0  0  0  0  0  0  0  0  0  0  0  0
    4.3086    1.6461   -0.1497 C   0  0  0  0  0  0  0  0  0  0  0  0
    1.9546    1.6306    0.6472 C   0  0  0  0  0  0  0  0  0  0  0  0
    1.1524   -1.9797   -1.6736 C   0  0  0  0  0  0  0  0  0  0  0  0
   -0.5619   -1.0108    0.3787 C   0  0  0  0  0  0  0  0  0  0  0  0
   -1.8195   -0.2524    0.1600 C   0  0  0  0  0  0  0  0  0  0  0  0
   -2.8725   -0.4419    1.0314 C   0  0  0  0  0  0  0  0  0  0  0  0
   -1.8961    0.6185   -0.9076 C   0  0  0  0  0  0  0  0  0  0  0  0
   -4.0539    0.2707    0.8262 C   0  0  0  0  0  0  0  0  0  0  0  0
   -3.0776    1.3311   -1.1126 C   0  0  0  0  0  0  0  0  0  0  0  0
   -4.1564    1.1572   -0.2456 C   0  0  0  0  0  0  0  0  0  0  0  0
  1  5  1  0
  1 10  1  0
  2 10  2  0
  3  4  1  0
  3  6  1  0
  3  7  1  0
  3  8  1  0
  4  5  1  0
  5  9  1  0
 10 11  1  0
 11 12  2  0
 11 13  1  0
 12 14  1  0
 13 15  2  0
 14 16  2  0
 15 16  1  0
M  CHG  1   3   1
M  END
>  <PUBCHEM_COMPOUND_CID>  (1) 
44051

>  <PUBCHEM_CONFORMER_RMSD>  (1) 
0.6

>  <PUBCHEM_CONFORMER_DIVERSEORDER>  (1) 
1
18
10
20
15
19
8
23
12
21
22
14
16
13
5
4
7
17
9
6
3
11
2

>  <PUBCHEM_MMFF94_PARTIAL_CHARGES>  (1) 
20
1 -0.43
10 0.63
11 0.09
12 -0.15
13 -0.15
14 -0.15
15 -0.15
16 -0.15
2 -0.57
3 -1.01
32 0.15
33 0.15
34 0.15
35 0.15
36 0.15
4 0.5
5 0.28
6 0.5
7 0.5
8 0.5

>  <PUBCHEM_EFFECTIVE_ROTOR_COUNT>  (1) 
5

>  <PUBCHEM_PHARMACOPHORE_FEATURES>  (1) 
3
1 2 acceptor
1 3 cation
6 11 12 13 14 15 16 rings

>  <PUBCHEM_HEAVY_ATOM_COUNT>  (1) 
16

>  <PUBCHEM_ATOM_DEF_STEREO_COUNT>  (1) 
0

>  <PUBCHEM_ATOM_UDEF_STEREO_COUNT>  (1) 
1

>  <PUBCHEM_BOND_DEF_STEREO_COUNT>  (1) 
0

>  <PUBCHEM_BOND_UDEF_STEREO_COUNT>  (1) 
0

>  <PUBCHEM_ISOTOPIC_ATOM_COUNT>  (1) 
0

>  <PUBCHEM_COMPONENT_COUNT>  (1) 
1

>  <PUBCHEM_CACTVS_TAUTO_COUNT>  (1) 
1

>  <PUBCHEM_CONFORMER_ID>  (1) 
0000AC1300000001

>  <PUBCHEM_MMFF94_ENERGY>  (1) 
61.7181

>  <PUBCHEM_FEATURE_SELFOVERLAP>  (1) 
15.223

>  <PUBCHEM_SHAPE_FINGERPRINT>  (1) 
10465860 71 13542462068423442163
11031198 65 18060424607412966558
11132069 177 17676496021199323189
11543360 7 13614237122401361296
11615756 56 18408035204413909637
12119455 92 18273207599905930878
12251169 10 17603867857556260660
12507560 40 16878213195600837212
12654215 9 18342458102140396676
12670546 56 17385713712228263368
12892183 10 16877938347732394728
13296909 8 16153697718086518119
15219456 202 18410579465582598447
15375462 478 15502372318374870607
15775835 57 18040433304282211680
17846911 113 18040997319783193493
1813 80 16340065879550664870
18186145 218 18201446835025846495
18219364 16 18270693067957176177
19786989 88 18202565042788797503
19862831 5 15123512510007041022
20233049 118 18409168835684027580
20281475 54 9511465545294254485
20559304 39 16081380639035526502
20645464 45 18334295357938418561
20645477 70 17917439674488874702
20871999 31 12751237017133710305
21486144 27 18271817787075163687
21499 59 17918273172995532790
21524375 3 18340480153251337359
21639500 275 17988920063418306004
21947302 44 18342462495638830310
231179 274 18410294731221660144
23382010 3 16128079139755867782
23402539 116 18335410288039929469
23557571 272 18263102001488742743
23559900 14 17822868458790953198
23598291 2 16270823108051271039
25 1 18202005421287025408
3060560 45 17704356541834811670
3082319 5 16343702101905229453
42 15 16805600343822016896
474 4 18131634499492643649
4921388 177 15123508168138237077
633830 44 18270967834464034469
7097593 13 17313095380593458026
7364860 26 17972592191435049907
77492 1 16056603101659442207
81228 2 17900840536639601459
81539 233 18342459227305894294
90316 7 15791728560363902405
94968 8 8286197266870867440

>  <PUBCHEM_SHAPE_MULTIPOLES>  (1) 
312.55
8.03
1.85
1.33
0.54
0.37
-0.07
-4.32
0.76
-0.88
-0.31
-0.07
0.3
0.91

>  <PUBCHEM_SHAPE_SELFOVERLAP>  (1) 
631.681

>  <PUBCHEM_SHAPE_VOLUME>  (1) 
184.9

>  <PUBCHEM_COORDINATE_TYPE>  (1) 
2
5
10

$$$$
