44069
     RDKit          3D

 18 20  0  0  0  0  0  0  0  0999 V2000
    2.4063    2.9500   -0.0022 Cl  0  0  0  0  0  0  0  0  0  0  0  0
   -2.4064    2.9499    0.0005 Cl  0  0  0  0  0  0  0  0  0  0  0  0
    5.0652   -1.7308    0.0009 Cl  0  0  0  0  0  0  0  0  0  0  0  0
   -5.0649   -1.7310   -0.0019 Cl  0  0  0  0  0  0  0  0  0  0  0  0
   -0.0001    1.2528    0.0004 O   0  0  0  0  0  0  0  0  0  0  0  0
   -0.0001   -1.6010   -0.0003 O   0  0  0  0  0  0  0  0  0  0  0  0
    1.1616    0.5229    0.0001 C   0  0  0  0  0  0  0  0  0  0  0  0
   -1.1617    0.5229    0.0004 C   0  0  0  0  0  0  0  0  0  0  0  0
    1.1616   -0.8713   -0.0001 C   0  0  0  0  0  0  0  0  0  0  0  0
   -1.1617   -0.8711    0.0000 C   0  0  0  0  0  0  0  0  0  0  0  0
    2.3668    1.2243    0.0002 C   0  0  0  0  0  0  0  0  0  0  0  0
   -2.3668    1.2243    0.0009 C   0  0  0  0  0  0  0  0  0  0  0  0
    2.3668   -1.5726   -0.0002 C   0  0  0  0  0  0  0  0  0  0  0  0
   -2.3668   -1.5726    0.0000 C   0  0  0  0  0  0  0  0  0  0  0  0
    3.5734    0.5238    0.0001 C   0  0  0  0  0  0  0  0  0  0  0  0
   -3.5734    0.5239    0.0009 C   0  0  0  0  0  0  0  0  0  0  0  0
    3.5734   -0.8722   -0.0001 C   0  0  0  0  0  0  0  0  0  0  0  0
   -3.5734   -0.8722    0.0004 C   0  0  0  0  0  0  0  0  0  0  0  0
  1 11  1  0
  2 12  1  0
  3 17  1  0
  4 18  1  0
  5  7  1  0
  5  8  1  0
  6  9  1  0
  6 10  1  0
  7  9  2  0
  7 11  1  0
  8 10  2  0
  8 12  1  0
  9 13  1  0
 10 14  1  0
 11 15  2  0
 12 16  2  0
 13 17  2  0
 14 18  2  0
 15 17  1  0
 16 18  1  0
M  END
>  <PUBCHEM_COMPOUND_CID>  (1) 
44069

>  <PUBCHEM_CONFORMER_RMSD>  (1) 
0.6

>  <PUBCHEM_CONFORMER_DIVERSEORDER>  (1) 
1

>  <PUBCHEM_MMFF94_PARTIAL_CHARGES>  (1) 
22
1 -0.18
10 0.08
11 0.18
12 0.18
13 -0.15
14 -0.15
15 -0.15
16 -0.15
17 0.18
18 0.18
19 0.15
2 -0.18
20 0.15
21 0.15
22 0.15
3 -0.18
4 -0.18
5 -0.17
6 -0.17
7 0.08
8 0.08
9 0.08

>  <PUBCHEM_EFFECTIVE_ROTOR_COUNT>  (1) 
0.4

>  <PUBCHEM_PHARMACOPHORE_FEATURES>  (1) 
5
1 5 acceptor
1 6 acceptor
6 5 6 7 8 9 10 rings
6 7 9 11 13 15 17 rings
6 8 10 12 14 16 18 rings

>  <PUBCHEM_HEAVY_ATOM_COUNT>  (1) 
18

>  <PUBCHEM_ATOM_DEF_STEREO_COUNT>  (1) 
0

>  <PUBCHEM_ATOM_UDEF_STEREO_COUNT>  (1) 
0

>  <PUBCHEM_BOND_DEF_STEREO_COUNT>  (1) 
0

>  <PUBCHEM_BOND_UDEF_STEREO_COUNT>  (1) 
0

>  <PUBCHEM_ISOTOPIC_ATOM_COUNT>  (1) 
0

>  <PUBCHEM_COMPONENT_COUNT>  (1) 
1

>  <PUBCHEM_CACTVS_TAUTO_COUNT>  (1) 
1

>  <PUBCHEM_CONFORMER_ID>  (1) 
0000AC2500000001

>  <PUBCHEM_MMFF94_ENERGY>  (1) 
47.2534

>  <PUBCHEM_FEATURE_SELFOVERLAP>  (1) 
25.449

>  <PUBCHEM_SHAPE_FINGERPRINT>  (1) 
10366900 7 17821733831584190778
10608611 8 18410571786128565856
10616163 171 18340206289162553031
10967382 1 18194402427235520805
1100329 8 17470444028412540635
11471102 20 18410008870856467518
11806522 49 18408040723335809854
12032990 46 18410857659151618723
12403259 226 18410851066377163653
12403260 363 18410569591399933317
12916754 54 18411702101657128961
13140716 1 18411144636324327297
13288520 33 18339927021951922398
13675066 3 18060410284203572954
14178342 30 18265880385567060472
15196674 1 18410575084663117892
15375462 6 18338237188243434789
15442244 35 18410575046383062592
15536298 74 18341894117046960056
16945 1 18410575084663085413
17492 89 18410855460150033851
17802600 8 18410852165888245763
17804303 29 18410859836884465860
18186145 218 17749101210134203231
200 152 18202278117656713599
20028762 73 18272928362360359871
20510252 161 18342458136399954065
20645477 70 18410291457982008910
21267235 1 18410582785539992803
21501502 16 18410579482715157101
221490 88 18336271231672907002
2306618 200 18201724999025845217
2334 1 18410574006637090469
23366157 5 18041560347336371324
23402539 116 18343576352995536399
23463225 33 18410012143468449292
23558518 356 18334301959050568681
23559900 14 18411973667886026320
2748010 2 18410852157303787460
2871803 45 18261385672338028483
312423 11 18337686281436158269
3286 77 18335137596529789092
335352 9 18338798888530106885
350125 39 18410859858238411689
4214541 1 18338797814550658785
4409770 3 17393028548946699628
474 4 17387416950693549932
5104073 3 18412263930238997473
7364860 26 18341050830452291360
7832392 63 18267020553223560008
8809292 202 18261116282982668123
9709674 26 18409452526267588658
9981440 41 17615685576373510400

>  <PUBCHEM_SHAPE_MULTIPOLES>  (1) 
366.17
8.9
2.89
0.62
0
1.98
0
-4.26
0
0
0
0
0.01
0

>  <PUBCHEM_SHAPE_SELFOVERLAP>  (1) 
780.61

>  <PUBCHEM_SHAPE_VOLUME>  (1) 
207.3

>  <PUBCHEM_COORDINATE_TYPE>  (1) 
2
5
10

$$$$
