44068
     RDKit          3D

 25 28  0  0  1  0  0  0  0  0999 V2000
    2.2506    0.8871    0.0643 N   0  0  0  0  0  0  0  0  0  0  0  0
    6.0605    1.7610   -2.2004 N   0  0  0  0  0  0  0  0  0  0  0  0
    4.7322    0.9474   -0.3011 C   0  0  0  0  0  0  0  0  0  0  0  0
    3.5064    0.1628    0.1802 C   0  0  0  0  0  0  0  0  0  0  0  0
    5.8951    0.1428    0.2875 C   0  0  0  0  0  0  0  0  0  0  0  0
    3.8682   -0.1394    1.6322 C   0  0  0  0  0  0  0  0  0  0  0  0
    5.3621   -0.4593    1.5910 C   0  0  0  0  0  0  0  0  0  0  0  0
    4.8230    1.0973   -1.8122 C   0  0  0  0  0  0  0  0  0  0  0  0
    1.1520    0.1182    0.6402 C   0  0  0  0  0  0  0  0  0  0  0  0
   -0.1420    0.8545    0.5378 C   0  0  0  0  0  0  0  0  0  0  0  0
   -1.3390    0.2483    0.4136 C   0  0  0  0  0  0  0  0  0  0  0  0
   -2.5712    1.0755    0.3191 C   0  0  0  0  0  0  0  0  0  0  0  0
   -1.3223   -1.2231    0.2740 C   0  0  0  0  0  0  0  0  0  0  0  0
   -3.5879   -0.2496   -1.6910 C   0  0  0  0  0  0  0  0  0  0  0  0
   -2.2711   -0.9405   -2.0479 C   0  0  0  0  0  0  0  0  0  0  0  0
   -3.5848    0.8437   -0.6371 C   0  0  0  0  0  0  0  0  0  0  0  0
   -1.7701   -1.8083   -0.9219 C   0  0  0  0  0  0  0  0  0  0  0  0
   -2.7557    2.1075    1.2660 C   0  0  0  0  0  0  0  0  0  0  0  0
   -0.8712   -2.0405    1.3216 C   0  0  0  0  0  0  0  0  0  0  0  0
   -4.7367    1.6616   -0.6125 C   0  0  0  0  0  0  0  0  0  0  0  0
   -1.7528   -3.2041   -1.0540 C   0  0  0  0  0  0  0  0  0  0  0  0
   -3.8977    2.9078    1.2618 C   0  0  0  0  0  0  0  0  0  0  0  0
   -0.8596   -3.4277    1.1779 C   0  0  0  0  0  0  0  0  0  0  0  0
   -4.8895    2.6858    0.3195 C   0  0  0  0  0  0  0  0  0  0  0  0
   -1.2988   -4.0086   -0.0088 C   0  0  0  0  0  0  0  0  0  0  0  0
  1  4  1  0
  1  9  1  0
  2  8  1  0
  3  4  1  0
  3  5  1  0
  3  8  1  0
  4  6  1  0
  5  7  1  0
  6  7  1  0
  9 10  1  0
 10 11  2  3
 11 12  1  0
 11 13  1  0
 12 16  2  0
 12 18  1  0
 13 17  2  0
 13 19  1  0
 14 15  1  0
 14 16  1  0
 15 17  1  0
 16 20  1  0
 17 21  1  0
 18 22  2  0
 19 23  2  0
 20 24  2  0
 21 25  2  0
 22 24  1  0
 23 25  1  0
M  END
>  <PUBCHEM_COMPOUND_CID>  (1) 
44068

>  <PUBCHEM_CONFORMER_RMSD>  (1) 
0.8

>  <PUBCHEM_CONFORMER_DIVERSEORDER>  (1) 
1
10
72
59
77
52
86
23
6
71
7
14
37
80
42
66
75
68
78
50
67
87
81
9
63
3
26
28
73
82
32
39
21
70
11
46
18
38
36
43
53
84
85
5
49
35
20
48
62
17
16
64
25
30
44
29
4
41
83
54
55
33
24
51
47
79
8
58
31
65
60
34
76
45
57
40
27
22
69
2
61
15
13
74
12
19
56

>  <PUBCHEM_MMFF94_PARTIAL_CHARGES>  (1) 
33
1 -0.9
10 -0.29
11 -0.06
12 0.03
13 0.03
14 0.14
15 0.14
16 -0.14
17 -0.14
18 -0.15
19 -0.15
2 -0.99
20 -0.15
21 -0.15
22 -0.15
23 -0.15
24 -0.15
25 -0.15
36 0.36
39 0.36
4 0.27
40 0.36
41 0.15
46 0.15
47 0.15
48 0.15
49 0.15
50 0.15
51 0.15
52 0.15
53 0.15
8 0.27
9 0.41

>  <PUBCHEM_EFFECTIVE_ROTOR_COUNT>  (1) 
5.4

>  <PUBCHEM_PHARMACOPHORE_FEATURES>  (1) 
8
1 1 cation
1 1 donor
1 2 cation
1 2 donor
5 3 4 5 6 7 rings
6 12 16 18 20 22 24 rings
6 13 17 19 21 23 25 rings
7 11 12 13 14 15 16 17 rings

>  <PUBCHEM_HEAVY_ATOM_COUNT>  (1) 
25

>  <PUBCHEM_ATOM_DEF_STEREO_COUNT>  (1) 
0

>  <PUBCHEM_ATOM_UDEF_STEREO_COUNT>  (1) 
2

>  <PUBCHEM_BOND_DEF_STEREO_COUNT>  (1) 
0

>  <PUBCHEM_BOND_UDEF_STEREO_COUNT>  (1) 
0

>  <PUBCHEM_ISOTOPIC_ATOM_COUNT>  (1) 
0

>  <PUBCHEM_COMPONENT_COUNT>  (1) 
1

>  <PUBCHEM_CACTVS_TAUTO_COUNT>  (1) 
1

>  <PUBCHEM_CONFORMER_ID>  (1) 
0000AC2400000001

>  <PUBCHEM_MMFF94_ENERGY>  (1) 
73.6871

>  <PUBCHEM_FEATURE_SELFOVERLAP>  (1) 
40.611

>  <PUBCHEM_SHAPE_FINGERPRINT>  (1) 
107951 10 18342184353588650335
12616971 3 17385719215094316640
12788726 201 18192432085303554019
13135754 10 17605863475271597419
13583140 156 15864342507090156320
13690498 29 17982184601795888902
14251757 5 18342187686641624460
14468879 13 17846784000615270926
14713325 29 18342175613625822351
14790565 3 18339921494102412721
14840074 17 17749679519054387996
15131766 46 16734407095142260468
15463212 79 18334845126136204745
18222031 100 8430015565195406489
19377110 9 10375867473054837654
200 152 12679458690111441976
21033650 10 17774738458746393744
22122407 14 17313665923944544749
22849339 104 18271536397860870142
22907989 373 18122349235428198015
23366157 5 17761496889983755011
23559900 14 17274810368598063536
3411729 13 18051978013867040705
3610482 184 18335712675555478028
3759504 43 18408044000743854139
4015057 19 16200425888451451520
4073 2 18342167904733928898
469060 322 13335302073142876250
474 4 18264765455101734563
497634 4 17241612886665846562
5283173 99 17632284666772661872
59755656 520 18410286974046473883
6034566 193 18114189648132644820
9981440 41 18131348605058415382

>  <PUBCHEM_SHAPE_MULTIPOLES>  (1) 
504.53
12.39
3.82
1.82
19.17
3.54
0.63
-10.17
2.42
-5.02
-0.57
1.13
-0.07
-2.55

>  <PUBCHEM_SHAPE_SELFOVERLAP>  (1) 
1086.441

>  <PUBCHEM_SHAPE_VOLUME>  (1) 
273.7

>  <PUBCHEM_COORDINATE_TYPE>  (1) 
2
5
10

$$$$
