4407
     RDKit          3D

 16 17  0  0  0  0  0  0  0  0999 V2000
    3.4509    1.5935    0.0007 Cl  0  0  0  0  0  0  0  0  0  0  0  0
    3.4510   -1.5934   -0.0007 Cl  0  0  0  0  0  0  0  0  0  0  0  0
    0.7855    2.7631    0.0010 O   0  0  0  0  0  0  0  0  0  0  0  0
    0.7852   -2.7631   -0.0005 O   0  0  0  0  0  0  0  0  0  0  0  0
   -1.7874    2.6710   -0.0006 O   0  0  0  0  0  0  0  0  0  0  0  0
   -1.7868   -2.6711    0.0015 O   0  0  0  0  0  0  0  0  0  0  0  0
   -0.4564    0.6986   -0.0002 C   0  0  0  0  0  0  0  0  0  0  0  0
   -0.4563   -0.6987    0.0000 C   0  0  0  0  0  0  0  0  0  0  0  0
    0.7559    1.3976   -0.0001 C   0  0  0  0  0  0  0  0  0  0  0  0
    0.7559   -1.3976   -0.0002 C   0  0  0  0  0  0  0  0  0  0  0  0
   -1.7286    1.4476   -0.0002 C   0  0  0  0  0  0  0  0  0  0  0  0
   -1.7285   -1.4475    0.0002 C   0  0  0  0  0  0  0  0  0  0  0  0
    1.9625    0.6971   -0.0002 C   0  0  0  0  0  0  0  0  0  0  0  0
    1.9625   -0.6970   -0.0002 C   0  0  0  0  0  0  0  0  0  0  0  0
   -2.9828    0.6669   -0.0004 C   0  0  0  0  0  0  0  0  0  0  0  0
   -2.9827   -0.6670   -0.0002 C   0  0  0  0  0  0  0  0  0  0  0  0
  1 13  1  0
  2 14  1  0
  3  9  1  0
  4 10  1  0
  5 11  2  0
  6 12  2  0
  7  8  1  0
  7  9  2  0
  7 11  1  0
  8 10  2  0
  8 12  1  0
  9 13  1  0
 10 14  1  0
 11 15  1  0
 12 16  1  0
 13 14  2  0
 15 16  2  0
M  END
>  <PUBCHEM_COMPOUND_CID>  (1) 
4407

>  <PUBCHEM_CONFORMER_RMSD>  (1) 
0.4

>  <PUBCHEM_CONFORMER_DIVERSEORDER>  (1) 
1

>  <PUBCHEM_MMFF94_PARTIAL_CHARGES>  (1) 
20
1 -0.18
10 0.08
11 0.47
12 0.47
13 0.18
14 0.18
15 -0.14
16 -0.14
17 0.15
18 0.15
19 0.45
2 -0.18
20 0.45
3 -0.53
4 -0.53
5 -0.57
6 -0.57
7 0.09
8 0.09
9 0.08

>  <PUBCHEM_EFFECTIVE_ROTOR_COUNT>  (1) 
0

>  <PUBCHEM_PHARMACOPHORE_FEATURES>  (1) 
6
1 3 donor
1 4 donor
1 5 acceptor
1 6 acceptor
6 7 8 11 12 15 16 rings
6 7 8 9 10 13 14 rings

>  <PUBCHEM_HEAVY_ATOM_COUNT>  (1) 
16

>  <PUBCHEM_ATOM_DEF_STEREO_COUNT>  (1) 
0

>  <PUBCHEM_ATOM_UDEF_STEREO_COUNT>  (1) 
0

>  <PUBCHEM_BOND_DEF_STEREO_COUNT>  (1) 
0

>  <PUBCHEM_BOND_UDEF_STEREO_COUNT>  (1) 
0

>  <PUBCHEM_ISOTOPIC_ATOM_COUNT>  (1) 
0

>  <PUBCHEM_COMPONENT_COUNT>  (1) 
1

>  <PUBCHEM_CACTVS_TAUTO_COUNT>  (1) 
8

>  <PUBCHEM_CONFORMER_ID>  (1) 
0000113700000001

>  <PUBCHEM_MMFF94_ENERGY>  (1) 
46.4854

>  <PUBCHEM_FEATURE_SELFOVERLAP>  (1) 
30.468

>  <PUBCHEM_SHAPE_FINGERPRINT>  (1) 
10608611 8 18411416185505061448
10967382 1 18338516459832999943
11132069 177 18410285934891183280
11471102 20 18410288121272052093
13140716 1 18410855421858578442
13380535 76 18410288142198431131
14614273 12 18260537935745401685
15196674 1 18410855460513218711
15442244 35 18338233769818478946
15536298 74 18343019995726853510
16945 1 18410575089163761543
193761 8 18410856564029702404
19591789 44 18338524023323571466
20510252 161 18127133206537206256
21267235 1 18338807723088125162
21501502 16 18411981364345795972
2334 1 18410856594368760582
23366157 5 18113618989514715246
23402539 116 18198608956881041247
23463225 33 18408319960982543530
23559900 14 18198907995018515206
2748010 2 18411136939726893974
2897 32 18409450288705366693
335352 9 18266741277127420628
528886 8 18339356499733437147
53812653 166 18271242849857612688
7364860 26 18342175570622654720
8809292 202 18333737909390204443

>  <PUBCHEM_SHAPE_MULTIPOLES>  (1) 
309.53
4.88
3.1
0.6
1.37
0
0
0
0
0.1
0
0.03
0
0

>  <PUBCHEM_SHAPE_SELFOVERLAP>  (1) 
669.131

>  <PUBCHEM_SHAPE_VOLUME>  (1) 
171.4

>  <PUBCHEM_COORDINATE_TYPE>  (1) 
2
5
10

$$$$
