44070
     RDKit          3D

 18 20  0  0  0  0  0  0  0  0999 V2000
    2.3430   -2.6193   -0.0012 Cl  0  0  0  0  0  0  0  0  0  0  0  0
   -2.3432   -2.6193    0.0005 Cl  0  0  0  0  0  0  0  0  0  0  0  0
    5.1080   -0.9821    0.0005 Cl  0  0  0  0  0  0  0  0  0  0  0  0
   -5.1082   -0.9817    0.0001 Cl  0  0  0  0  0  0  0  0  0  0  0  0
    0.0000   -0.9124   -0.0001 O   0  0  0  0  0  0  0  0  0  0  0  0
   -0.0001    1.9414   -0.0003 O   0  0  0  0  0  0  0  0  0  0  0  0
    1.1617   -0.1826    0.0001 C   0  0  0  0  0  0  0  0  0  0  0  0
   -1.1616   -0.1826   -0.0001 C   0  0  0  0  0  0  0  0  0  0  0  0
    1.1617    1.2115   -0.0002 C   0  0  0  0  0  0  0  0  0  0  0  0
   -1.1617    1.2114   -0.0002 C   0  0  0  0  0  0  0  0  0  0  0  0
    2.3669   -0.8840    0.0003 C   0  0  0  0  0  0  0  0  0  0  0  0
   -2.3668   -0.8841    0.0000 C   0  0  0  0  0  0  0  0  0  0  0  0
    2.3668    1.9129   -0.0002 C   0  0  0  0  0  0  0  0  0  0  0  0
   -2.3667    1.9128    0.0000 C   0  0  0  0  0  0  0  0  0  0  0  0
    3.5735   -0.1835    0.0004 C   0  0  0  0  0  0  0  0  0  0  0  0
   -3.5733   -0.1836    0.0000 C   0  0  0  0  0  0  0  0  0  0  0  0
    3.5734    1.2125    0.0001 C   0  0  0  0  0  0  0  0  0  0  0  0
   -3.5734    1.2124    0.0001 C   0  0  0  0  0  0  0  0  0  0  0  0
  1 11  1  0
  2 12  1  0
  3 15  1  0
  4 16  1  0
  5  7  1  0
  5  8  1  0
  6  9  1  0
  6 10  1  0
  7  9  2  0
  7 11  1  0
  8 10  2  0
  8 12  1  0
  9 13  1  0
 10 14  1  0
 11 15  2  0
 12 16  2  0
 13 17  2  0
 14 18  2  0
 15 17  1  0
 16 18  1  0
M  END
>  <PUBCHEM_COMPOUND_CID>  (1) 
44070

>  <PUBCHEM_CONFORMER_RMSD>  (1) 
0.6

>  <PUBCHEM_CONFORMER_DIVERSEORDER>  (1) 
1

>  <PUBCHEM_MMFF94_PARTIAL_CHARGES>  (1) 
22
1 -0.18
10 0.08
11 0.18
12 0.18
13 -0.15
14 -0.15
15 0.18
16 0.18
17 -0.15
18 -0.15
19 0.15
2 -0.18
20 0.15
21 0.15
22 0.15
3 -0.18
4 -0.18
5 -0.17
6 -0.17
7 0.08
8 0.08
9 0.08

>  <PUBCHEM_EFFECTIVE_ROTOR_COUNT>  (1) 
0.4

>  <PUBCHEM_PHARMACOPHORE_FEATURES>  (1) 
5
1 5 acceptor
1 6 acceptor
6 5 6 7 8 9 10 rings
6 7 9 11 13 15 17 rings
6 8 10 12 14 16 18 rings

>  <PUBCHEM_HEAVY_ATOM_COUNT>  (1) 
18

>  <PUBCHEM_ATOM_DEF_STEREO_COUNT>  (1) 
0

>  <PUBCHEM_ATOM_UDEF_STEREO_COUNT>  (1) 
0

>  <PUBCHEM_BOND_DEF_STEREO_COUNT>  (1) 
0

>  <PUBCHEM_BOND_UDEF_STEREO_COUNT>  (1) 
0

>  <PUBCHEM_ISOTOPIC_ATOM_COUNT>  (1) 
0

>  <PUBCHEM_COMPONENT_COUNT>  (1) 
1

>  <PUBCHEM_CACTVS_TAUTO_COUNT>  (1) 
1

>  <PUBCHEM_CONFORMER_ID>  (1) 
0000AC2600000001

>  <PUBCHEM_MMFF94_ENERGY>  (1) 
51.0225

>  <PUBCHEM_FEATURE_SELFOVERLAP>  (1) 
25.449

>  <PUBCHEM_SHAPE_FINGERPRINT>  (1) 
10608611 8 18410571786128669792
10616163 171 18411983584860316534
10967382 1 18410855473034214663
11132069 177 18410004468388453608
11471102 20 18410008866519276220
12032990 46 18410858758663337441
12251169 10 18412263921643722223
12553582 1 18410844465012234823
13140716 1 18267865171242376898
13288520 33 18412547578695921468
13583140 156 14333129633464763055
13862211 1 18410288116428984623
14115302 16 17968385640287825823
14144814 61 18410573959492514745
15196674 1 18410575084663416709
15442244 35 18267304218596402090
15536298 74 18342175583439277208
16945 1 18410855464423369444
17492 89 18339079289918591051
17804303 29 18412829074973726468
17834074 16 18410857663446508070
1813 80 17385726855498115326
18186145 218 17821722844941588212
19141452 34 18271810176667642511
200 152 18202560678880251033
20510252 161 18272090466127826281
20645477 70 18413108359638409758
21267235 1 18410864260516476099
21421861 104 17752482054187595418
21501502 16 18410576192770117420
221490 88 18336553832020603066
2334 1 17978511162947614496
23402539 116 18343576352984636111
23463225 33 18410012121962146188
23557571 272 18202290177850832972
23559900 14 18411693314033066400
2748010 2 17761774370139616329
2871803 45 18335134310605624143
335352 9 18338516343868980845
34934 24 18410848863063851786
350125 39 18410577275181250633
4214541 1 18410856534028403749
474 4 17313955263179934380
5104073 3 18411700984601863336
559249 180 18261948527638580738
69090 78 18412260653690704559
7364860 26 18341612594862623306
8809292 202 18334016133002702066
9709674 26 18411986840456076415
9981440 41 17324927444380254664

>  <PUBCHEM_SHAPE_MULTIPOLES>  (1) 
366.17
8.92
2.59
0.62
0
0.7
0
2.2
0
0
0
0
0.02
0

>  <PUBCHEM_SHAPE_SELFOVERLAP>  (1) 
781.553

>  <PUBCHEM_SHAPE_VOLUME>  (1) 
206.2

>  <PUBCHEM_COORDINATE_TYPE>  (1) 
2
5
10

$$$$
