44075
     RDKit          3D

 25 25  0  0  1  0  0  0  0  0999 V2000
    3.6122    2.7722   -0.2794 O   0  0  0  0  0  0  0  0  0  0  0  0
    3.3935   -3.0958    1.2502 O   0  0  0  0  0  0  0  0  0  0  0  0
   -5.4475   -0.8351   -1.1882 O   0  0  0  0  0  0  0  0  0  0  0  0
   -1.1968    3.0961    0.5038 O   0  0  0  0  0  0  0  0  0  0  0  0
    3.4538    1.0667   -1.8232 O   0  0  0  0  0  0  0  0  0  0  0  0
    2.8440   -2.6348   -0.9414 O   0  0  0  0  0  0  0  0  0  0  0  0
   -4.5510   -0.8148    0.9363 O   0  0  0  0  0  0  0  0  0  0  0  0
   -1.5768    1.3645    1.9787 O   0  0  0  0  0  0  0  0  0  0  0  0
    1.7466   -0.2329   -0.0386 N   0  0  0  0  0  0  0  0  0  0  0  0
   -2.0762   -0.2571   -0.2484 N   0  0  0  0  0  0  0  0  0  0  0  0
    0.3834   -0.6616    0.3674 C   0  0  0  0  0  0  0  0  0  0  0  0
   -0.7285   -0.6769   -0.6402 C   0  0  0  0  0  0  0  0  0  0  0  0
   -0.1670   -1.9687   -0.1229 C   0  0  0  0  0  0  0  0  0  0  0  0
    1.8957    1.2199    0.0416 C   0  0  0  0  0  0  0  0  0  0  0  0
    2.7757   -0.8960    0.7618 C   0  0  0  0  0  0  0  0  0  0  0  0
   -3.1189   -0.9395   -1.0289 C   0  0  0  0  0  0  0  0  0  0  0  0
   -2.2564    1.1983   -0.3535 C   0  0  0  0  0  0  0  0  0  0  0  0
    3.0627    1.6411   -0.8162 C   0  0  0  0  0  0  0  0  0  0  0  0
    2.9962   -2.2871    0.2218 C   0  0  0  0  0  0  0  0  0  0  0  0
   -4.4255   -0.8559   -0.2801 C   0  0  0  0  0  0  0  0  0  0  0  0
   -1.6501    1.8564    0.8608 C   0  0  0  0  0  0  0  0  0  0  0  0
    4.7407    3.3030   -0.9818 C   0  0  0  0  0  0  0  0  0  0  0  0
    3.6444   -4.4608    0.9001 C   0  0  0  0  0  0  0  0  0  0  0  0
   -6.7646   -0.7581   -0.6330 C   0  0  0  0  0  0  0  0  0  0  0  0
   -0.5898    3.8567    1.5534 C   0  0  0  0  0  0  0  0  0  0  0  0
  1 18  1  0
  1 22  1  0
  2 19  1  0
  2 23  1  0
  3 20  1  0
  3 24  1  0
  4 21  1  0
  4 25  1  0
  5 18  2  0
  6 19  2  0
  7 20  2  0
  8 21  2  0
  9 11  1  0
  9 14  1  0
  9 15  1  0
 10 12  1  0
 10 16  1  0
 10 17  1  0
 11 12  1  0
 11 13  1  0
 12 13  1  0
 14 18  1  0
 15 19  1  0
 16 20  1  0
 17 21  1  0
M  END
>  <PUBCHEM_COMPOUND_CID>  (1) 
44075

>  <PUBCHEM_CONFORMER_RMSD>  (1) 
1.2

>  <PUBCHEM_CONFORMER_DIVERSEORDER>  (1) 
1
90
66
93
34
49
48
13
99
39
12
47
57
77
16
38
18
31
45
55
33
91
87
42
2
6
95
51
75
25
84
81
72
60
50
23
94
70
14
68
30
8
35
53
67
83
74
69
106
29
76
56
27
22
28
78
40
82
11
97
86
105
54
20
73
92
64
89
59
96
85
9
101
52
4
65
100
24
46
37
44
58
26
62
43
36
98
21
104
15
103
102
63
10
71
32
17
79
41
88
7
61
3
80
19
5

>  <PUBCHEM_MMFF94_PARTIAL_CHARGES>  (1) 
29
1 -0.43
10 -0.7
11 0.06
12 0.06
13 -0.2
14 0.33
15 0.33
16 0.33
17 0.33
18 0.66
19 0.66
2 -0.43
20 0.66
21 0.66
22 0.28
23 0.28
24 0.28
25 0.28
26 0.1
27 0.1
28 0.1
29 0.1
3 -0.43
4 -0.43
5 -0.57
6 -0.57
7 -0.57
8 -0.57
9 -0.7

>  <PUBCHEM_EFFECTIVE_ROTOR_COUNT>  (1) 
14.6

>  <PUBCHEM_PHARMACOPHORE_FEATURES>  (1) 
6
1 10 cation
1 5 acceptor
1 6 acceptor
1 7 acceptor
1 8 acceptor
1 9 cation

>  <PUBCHEM_HEAVY_ATOM_COUNT>  (1) 
25

>  <PUBCHEM_ATOM_DEF_STEREO_COUNT>  (1) 
1

>  <PUBCHEM_ATOM_UDEF_STEREO_COUNT>  (1) 
1

>  <PUBCHEM_BOND_DEF_STEREO_COUNT>  (1) 
0

>  <PUBCHEM_BOND_UDEF_STEREO_COUNT>  (1) 
0

>  <PUBCHEM_ISOTOPIC_ATOM_COUNT>  (1) 
0

>  <PUBCHEM_COMPONENT_COUNT>  (1) 
1

>  <PUBCHEM_CACTVS_TAUTO_COUNT>  (1) 
1

>  <PUBCHEM_CONFORMER_ID>  (1) 
0000AC2B00000001

>  <PUBCHEM_MMFF94_ENERGY>  (1) 
48.0211

>  <PUBCHEM_FEATURE_SELFOVERLAP>  (1) 
30.449

>  <PUBCHEM_SHAPE_FINGERPRINT>  (1) 
12293681 160 18055081110268641112
12730499 353 18188779464573096910
12788726 201 17846228773392751793
13009979 54 18127970802574592242
13140716 1 18198337360387146705
13533116 47 18260830380343159007
13540713 5 18270130002008365937
13955234 65 18334293184511432874
14114211 68 18116448105262028076
14178342 30 17839457791425639591
17492 89 18339356345120525763
19319366 153 18266175209296982158
20642791 105 17981030930614718337
20642791 35 17844526819603494569
2132832 1 18338787902072075304
229495 10 18190998231856268781
23558518 356 18266463100764812041
23559900 14 18189602870249890891
25147074 1 18270971145572537952
312423 11 18339653234655370155
345986 75 17846781815146596529
59755656 215 18334576863006313382
6992083 37 17907860596249003218
70251023 43 18261952925790658643
7164475 11 18270680861760477197
9981440 41 18190739928798091808

>  <PUBCHEM_SHAPE_MULTIPOLES>  (1) 
457.57
10.73
4.85
1.35
12.92
0.01
0.18
3.14
-3.25
-7.69
1.63
-0.18
-0.5
-2.96

>  <PUBCHEM_SHAPE_SELFOVERLAP>  (1) 
902.469

>  <PUBCHEM_SHAPE_VOLUME>  (1) 
274.7

>  <PUBCHEM_COORDINATE_TYPE>  (1) 
2
5
10

$$$$
