44086
     RDKit          3D

 14 14  0  0  1  0  0  0  0  0999 V2000
    4.2756    1.5059   -0.9339 F   0  0  0  0  0  0  0  0  0  0  0  0
    0.8019   -0.4821    0.1198 O   0  0  0  0  0  0  0  0  0  0  0  0
    3.0817    0.5757    1.3747 O   0  0  0  0  0  0  0  0  0  0  0  0
   -0.4077   -2.4405    0.0895 O   0  0  0  0  0  0  0  0  0  0  0  0
    3.1851   -0.2377    0.2065 C   0  0  0  0  0  0  0  0  0  0  0  0
    2.0194   -1.2180    0.1705 C   0  0  0  0  0  0  0  0  0  0  0  0
    3.1951    0.6813   -1.0033 C   0  0  0  0  0  0  0  0  0  0  0  0
   -1.5339   -0.3398    0.0304 C   0  0  0  0  0  0  0  0  0  0  0  0
   -0.3402   -1.2212    0.0828 C   0  0  0  0  0  0  0  0  0  0  0  0
   -2.6678   -0.7905   -0.6142 C   0  0  0  0  0  0  0  0  0  0  0  0
   -1.4727    0.9023    0.6282 C   0  0  0  0  0  0  0  0  0  0  0  0
   -3.7893    0.0372   -0.6634 C   0  0  0  0  0  0  0  0  0  0  0  0
   -2.5944    1.7300    0.5790 C   0  0  0  0  0  0  0  0  0  0  0  0
   -3.7527    1.2973   -0.0667 C   0  0  0  0  0  0  0  0  0  0  0  0
  1  7  1  0
  2  6  1  0
  2  9  1  0
  3  5  1  0
  4  9  2  0
  5  6  1  0
  5  7  1  0
  8  9  1  0
  8 10  2  0
  8 11  1  0
 10 12  1  0
 11 13  2  0
 12 14  2  0
 13 14  1  0
M  END
>  <PUBCHEM_COMPOUND_CID>  (1) 
44086

>  <PUBCHEM_CONFORMER_RMSD>  (1) 
0.6

>  <PUBCHEM_CONFORMER_DIVERSEORDER>  (1) 
2
109
25
141
38
58
119
142
116
63
124
101
90
53
144
61
108
78
111
60
68
149
134
121
47
71
135
123
21
132
66
120
37
140
129
35
151
76
128
130
20
83
31
122
126
51
148
96
30
43
92
40
102
154
137
67
150
69
131
41
97
28
70
100
139
98
17
93
86
127
133
94
89
87
112
6
65
115
125
34
136
103
12
145
33
77
39
99
138
22
147
118
1
29
152
74
114
10
57
153
146
26
48
55
104
143
42
117
95
62
44
18
84
106
113
82
91
72
105
23
81
4
107
5
59
110
49
79
85
11
54
3
50
13
46
64
56
32
88
80
52
36
19
45
7
73
27
15
24
14
75
16
8
9

>  <PUBCHEM_MMFF94_PARTIAL_CHARGES>  (1) 
20
1 -0.34
10 -0.15
11 -0.15
12 -0.15
13 -0.15
14 -0.15
2 -0.43
20 0.15
21 0.15
22 0.4
23 0.15
24 0.15
25 0.15
3 -0.68
4 -0.57
5 0.28
6 0.28
7 0.34
8 0.09
9 0.63

>  <PUBCHEM_EFFECTIVE_ROTOR_COUNT>  (1) 
5

>  <PUBCHEM_PHARMACOPHORE_FEATURES>  (1) 
4
1 3 acceptor
1 3 donor
1 4 acceptor
6 8 10 11 12 13 14 rings

>  <PUBCHEM_HEAVY_ATOM_COUNT>  (1) 
14

>  <PUBCHEM_ATOM_DEF_STEREO_COUNT>  (1) 
0

>  <PUBCHEM_ATOM_UDEF_STEREO_COUNT>  (1) 
1

>  <PUBCHEM_BOND_DEF_STEREO_COUNT>  (1) 
0

>  <PUBCHEM_BOND_UDEF_STEREO_COUNT>  (1) 
0

>  <PUBCHEM_ISOTOPIC_ATOM_COUNT>  (1) 
0

>  <PUBCHEM_COMPONENT_COUNT>  (1) 
1

>  <PUBCHEM_CACTVS_TAUTO_COUNT>  (1) 
1

>  <PUBCHEM_CONFORMER_ID>  (1) 
0000AC3600000002

>  <PUBCHEM_MMFF94_ENERGY>  (1) 
31.6931

>  <PUBCHEM_FEATURE_SELFOVERLAP>  (1) 
20.297

>  <PUBCHEM_SHAPE_FINGERPRINT>  (1) 
10498660 4 18413107255737148180
11543360 7 15697700602041225561
12162725 195 18409728430798005106
12173636 292 18129371627749037605
13764800 53 18334868250208672875
14123260 362 18410020943714176452
14325111 11 18341609270267948371
14897335 6 18408322198650195590
15239191 94 10375867480790470140
15342168 16 18114189626753001093
15775835 57 18334580131038796372
18186145 218 18337953372467246023
19107657 47 17458900440394125434
19107657 9 18410860927706178976
20281475 54 10519691294068930857
20300324 65 18060137660811529109
20671657 1 18335421236455249434
21499 59 18335420145169423159
21524375 3 18339638945278239810
22485316 2 9943516401803795311
2255824 54 18189617133873451106
23402539 116 18130209506848291014
23557571 272 17273684554110388458
23559900 14 18058160640310905146
474 4 18260832544721306819
5262128 65 16558478555855091040
537710 114 18412262831081108505
57096353 35 18200580450323407015
6333272 397 18333455343496763371
7364860 26 17912922777600843151
8199 26 18262526999830806148

>  <PUBCHEM_SHAPE_MULTIPOLES>  (1) 
263.23
7.64
1.82
0.94
3.08
0.36
0.01
-3.59
1.45
-0.16
-0.06
0.51
-0.25
-0.75

>  <PUBCHEM_SHAPE_SELFOVERLAP>  (1) 
540.71

>  <PUBCHEM_SHAPE_VOLUME>  (1) 
151.6

>  <PUBCHEM_COORDINATE_TYPE>  (1) 
2
5
10

$$$$
