4408
     RDKit          3D

 23 22  0  0  1  0  0  0  0  0999 V2000
    0.0498    1.3205    0.8207 P   0  0  0  0  0  0  0  0  0  0  0  0
    0.9584    1.6914    2.0970 O   0  0  0  0  0  0  0  0  0  0  0  0
   -0.0512    2.3865   -0.2123 O   0  0  0  0  0  0  0  0  0  0  0  0
   -2.4613    0.7968   -1.7117 O   0  0  0  0  0  0  0  0  0  0  0  0
    3.2790    1.8638   -0.6534 O   0  0  0  0  0  0  0  0  0  0  0  0
   -3.3110    2.4117   -0.3643 O   0  0  0  0  0  0  0  0  0  0  0  0
    2.0544    0.8225   -2.2537 O   0  0  0  0  0  0  0  0  0  0  0  0
   -5.1245   -2.1987   -1.3456 O   0  0  0  0  0  0  0  0  0  0  0  0
    6.2693   -0.7364    0.0511 O   0  0  0  0  0  0  0  0  0  0  0  0
   -3.6440   -2.7287    0.3023 O   0  0  0  0  0  0  0  0  0  0  0  0
    4.7355   -1.4081    1.5954 O   0  0  0  0  0  0  0  0  0  0  0  0
   -1.5403    0.9168    1.5829 C   0  0  0  0  0  0  0  0  0  0  0  0
    0.7180   -0.2175    0.2551 C   0  0  0  0  0  0  0  0  0  0  0  0
   -2.5704    0.3104    0.6274 C   0  0  0  0  0  0  0  0  0  0  0  0
    2.2189   -0.1908   -0.0415 C   0  0  0  0  0  0  0  0  0  0  0  0
   -3.8664   -0.0714    1.3675 C   0  0  0  0  0  0  0  0  0  0  0  0
    2.7343   -1.5821   -0.4565 C   0  0  0  0  0  0  0  0  0  0  0  0
   -4.9335   -0.6862    0.4600 C   0  0  0  0  0  0  0  0  0  0  0  0
    4.2325   -1.6154   -0.7633 C   0  0  0  0  0  0  0  0  0  0  0  0
   -2.8353    1.2925   -0.5034 C   0  0  0  0  0  0  0  0  0  0  0  0
    2.4936    0.8545   -1.1116 C   0  0  0  0  0  0  0  0  0  0  0  0
   -4.4823   -1.9759   -0.1728 C   0  0  0  0  0  0  0  0  0  0  0  0
    5.0764   -1.2562    0.4309 C   0  0  0  0  0  0  0  0  0  0  0  0
  1  2  1  0
  1  3  2  0
  1 12  1  0
  1 13  1  0
  4 20  1  0
  5 21  1  0
  6 20  2  0
  7 21  2  0
  8 22  1  0
  9 23  1  0
 10 22  2  0
 11 23  2  0
 12 14  1  0
 13 15  1  0
 14 16  1  0
 14 20  1  0
 15 17  1  0
 15 21  1  0
 16 18  1  0
 17 19  1  0
 18 22  1  0
 19 23  1  0
M  END
>  <PUBCHEM_COMPOUND_CID>  (1) 
4408

>  <PUBCHEM_CONFORMER_RMSD>  (1) 
1

>  <PUBCHEM_CONFORMER_DIVERSEORDER>  (1) 
1
124
2
106
65
17
145
141
11
83
41
159
16
104
4
69
127
96
184
151
91
132
35
131
66
185
111
57
53
92
171
13
85
88
73
94
168
31
152
15
150
7
162
121
45
177
108
97
30
98
156
189
72
118
155
107
133
70
82
14
78
80
126
194
47
23
42
158
109
103
138
55
54
142
170
113
119
174
112
5
129
125
161
180
62
136
93
20
3
188
135
192
39
191
18
128
164
9
29
48
75
120
147
166
77
175
46
183
37
28
160
134
86
79
74
114
36
123
33
10
179
139
116
19
90
102
71
87
167
154
61
137
157
51
32
40
6
148
172
76
117
144
38
44
64
146
26
81
49
60
178
84
100
34
12
193
95
68
59
187
58
27
63
143
149
165
173
99
153
169
25
24
186
8
101
22
110
115
50
122
56
163
182
52
181
67
190
140
130
21
176
43
105
89

>  <PUBCHEM_MMFF94_PARTIAL_CHARGES>  (1) 
24
1 0.97
10 -0.57
11 -0.57
14 0.06
15 0.06
18 0.06
19 0.06
2 -0.77
20 0.66
21 0.66
22 0.66
23 0.66
3 -0.7
38 0.5
39 0.5
4 -0.65
40 0.5
41 0.5
42 0.5
5 -0.65
6 -0.57
7 -0.57
8 -0.65
9 -0.65

>  <PUBCHEM_EFFECTIVE_ROTOR_COUNT>  (1) 
12

>  <PUBCHEM_PHARMACOPHORE_FEATURES>  (1) 
12
1 10 acceptor
1 11 acceptor
1 4 acceptor
1 5 acceptor
1 6 acceptor
1 7 acceptor
1 8 acceptor
1 9 acceptor
3 4 6 20 anion
3 5 7 21 anion
3 8 10 22 anion
3 9 11 23 anion

>  <PUBCHEM_HEAVY_ATOM_COUNT>  (1) 
23

>  <PUBCHEM_ATOM_DEF_STEREO_COUNT>  (1) 
0

>  <PUBCHEM_ATOM_UDEF_STEREO_COUNT>  (1) 
2

>  <PUBCHEM_BOND_DEF_STEREO_COUNT>  (1) 
0

>  <PUBCHEM_BOND_UDEF_STEREO_COUNT>  (1) 
0

>  <PUBCHEM_ISOTOPIC_ATOM_COUNT>  (1) 
0

>  <PUBCHEM_COMPONENT_COUNT>  (1) 
1

>  <PUBCHEM_CACTVS_TAUTO_COUNT>  (1) 
1

>  <PUBCHEM_CONFORMER_ID>  (1) 
0000113800000001

>  <PUBCHEM_MMFF94_ENERGY>  (1) 
18.9619

>  <PUBCHEM_FEATURE_SELFOVERLAP>  (1) 
61.136

>  <PUBCHEM_SHAPE_FINGERPRINT>  (1) 
11089746 13 11025804236219069698
11796584 16 18339642222633218088
12553582 1 16559038185456082561
12596602 18 12535632665668349823
12633257 1 17845392036812769251
12892183 10 13757811321071505207
13899415 180 17313103042788779588
14251751 18 18410011035203590498
14251751 93 18261393304400110883
15163728 17 11530750488772223553
17349148 13 18335426746739788122
17857418 61 18408886243445919383
18186145 218 15213315148012788593
200 152 17968385558762516456
20621476 91 18341595032752244482
20626108 58 18260259733855342026
21756936 100 9006759966018817640
23402539 116 16877947083716811268
23557571 272 18201725002919859402
23559900 14 18410567405604828577
3004659 81 18335707151905898243
463206 1 18334867163898627003
633830 44 16153721915769162109
67856867 119 18337114565808218992
7495541 125 17988644137887521328

>  <PUBCHEM_SHAPE_MULTIPOLES>  (1) 
418.49
12.14
2.58
1.59
4.54
0.33
0.06
8.5
-0.12
-1.72
0.25
0.14
-0.42
-0.75

>  <PUBCHEM_SHAPE_SELFOVERLAP>  (1) 
811.008

>  <PUBCHEM_SHAPE_VOLUME>  (1) 
251.9

>  <PUBCHEM_COORDINATE_TYPE>  (1) 
2
5
10

$$$$
