44081
     RDKit          3D

 17 17  0  0  0  0  0  0  0  0999 V2000
    6.2048   -1.3204   -0.0160 F   0  0  0  0  0  0  0  0  0  0  0  0
    1.7089    0.3281    0.0018 O   0  0  0  0  0  0  0  0  0  0  0  0
    1.0325    2.5284    0.0015 O   0  0  0  0  0  0  0  0  0  0  0  0
    3.5746   -1.6170    0.0153 O   0  0  0  0  0  0  0  0  0  0  0  0
   -5.4609   -0.0106    0.0007 O   0  0  0  0  0  0  0  0  0  0  0  0
   -4.6397   -2.0464   -0.0005 O   0  0  0  0  0  0  0  0  0  0  0  0
   -4.4862   -0.8009   -0.0004 N   0  0  0  0  0  0  0  0  0  0  0  0
   -0.5826    0.7745   -0.0014 C   0  0  0  0  0  0  0  0  0  0  0  0
   -1.6814    1.6336   -0.0020 C   0  0  0  0  0  0  0  0  0  0  0  0
   -0.7772   -0.6068   -0.0012 C   0  0  0  0  0  0  0  0  0  0  0  0
   -3.1695   -0.2697   -0.0018 C   0  0  0  0  0  0  0  0  0  0  0  0
   -2.9749    1.1115   -0.0021 C   0  0  0  0  0  0  0  0  0  0  0  0
   -2.0708   -1.1288   -0.0014 C   0  0  0  0  0  0  0  0  0  0  0  0
    3.0801    0.7397    0.0049 C   0  0  0  0  0  0  0  0  0  0  0  0
    0.7658    1.3193    0.0003 C   0  0  0  0  0  0  0  0  0  0  0  0
    3.9997   -0.4629    0.0062 C   0  0  0  0  0  0  0  0  0  0  0  0
    5.4767   -0.1717   -0.0038 C   0  0  0  0  0  0  0  0  0  0  0  0
  1 17  1  0
  2 14  1  0
  2 15  1  0
  3 15  2  0
  4 16  2  0
  5  7  1  0
  6  7  2  0
  7 11  1  0
  8  9  2  0
  8 10  1  0
  8 15  1  0
  9 12  1  0
 10 13  2  0
 11 12  2  0
 11 13  1  0
 14 16  1  0
 16 17  1  0
M  CHG  2   5  -1   7   1
M  END
>  <PUBCHEM_COMPOUND_CID>  (1) 
44081

>  <PUBCHEM_CONFORMER_RMSD>  (1) 
0.8

>  <PUBCHEM_CONFORMER_DIVERSEORDER>  (1) 
1
10
17
31
29
28
26
30
20
27
8
21
35
16
25
34
11
23
18
5
38
19
2
24
4
12
32
36
15
22
14
7
13
3
9
6
33
37

>  <PUBCHEM_MMFF94_PARTIAL_CHARGES>  (1) 
21
1 -0.34
10 -0.15
11 0.13
12 -0.15
13 -0.15
14 0.34
15 0.63
16 0.45
17 0.4
18 0.15
19 0.15
2 -0.43
20 0.15
21 0.15
3 -0.57
4 -0.57
5 -0.52
6 -0.52
7 0.91
8 0.09
9 -0.15

>  <PUBCHEM_EFFECTIVE_ROTOR_COUNT>  (1) 
6

>  <PUBCHEM_PHARMACOPHORE_FEATURES>  (1) 
6
1 3 acceptor
1 4 acceptor
1 5 acceptor
1 5 anion
1 6 acceptor
6 8 9 10 11 12 13 rings

>  <PUBCHEM_HEAVY_ATOM_COUNT>  (1) 
17

>  <PUBCHEM_ATOM_DEF_STEREO_COUNT>  (1) 
0

>  <PUBCHEM_ATOM_UDEF_STEREO_COUNT>  (1) 
0

>  <PUBCHEM_BOND_DEF_STEREO_COUNT>  (1) 
0

>  <PUBCHEM_BOND_UDEF_STEREO_COUNT>  (1) 
0

>  <PUBCHEM_ISOTOPIC_ATOM_COUNT>  (1) 
0

>  <PUBCHEM_COMPONENT_COUNT>  (1) 
1

>  <PUBCHEM_CACTVS_TAUTO_COUNT>  (1) 
3

>  <PUBCHEM_CONFORMER_ID>  (1) 
0000AC3100000001

>  <PUBCHEM_MMFF94_ENERGY>  (1) 
40.0982

>  <PUBCHEM_FEATURE_SELFOVERLAP>  (1) 
30.53

>  <PUBCHEM_SHAPE_FINGERPRINT>  (1) 
100836 57 9943804504363287250
10968037 39 18335704961825596038
12032990 46 18410856572577731321
12555020 224 18337662109993615799
13288520 33 18411138026248254725
13690532 89 18410293627056316905
13740256 8 18410013264481248290
13862211 1 18413106186564383895
14115302 16 17676777564267899478
14251731 8 18333447629935862477
14251752 14 17458896046616272997
14251764 18 18272096024041990121
14252887 29 17775293742325031590
15048467 5 8718834188911055295
15196674 1 18410574010968961536
15352361 1 18410575080742839874
17804303 29 18413671322408199873
17834072 33 18335423495454884700
17834072 8 18261384547362234157
18186145 218 17532078557646541693
19141452 34 18130786793360562847
19784866 240 18411144635986703812
200 152 18272931626349764168
20374829 77 18335417971646776978
20645477 70 18261951971948994944
20871999 31 18041273279594842764
21267235 1 18410581677817855306
221490 88 18190185778762862323
2297311 6 18201166464530925388
23402539 116 18202558480421537133
23403322 49 18409448076723323658
23559900 14 18338510962317592017
2871803 45 18260547801775864730
3004659 81 18113900451437719046
335352 9 18410573990369714829
351380 3 18411134740698772862
42 15 18413390946868991125
4214541 1 18410573950881799296
4325135 7 18334298691366095964
4463277 17 18409449189183423168
465052 167 18341620377169641439
5104073 3 18343025531486395105
559249 180 18262232210223076738
7364860 26 18268428125844881736
76465 3 18201151178431063207
9709674 26 18118404179360376587

>  <PUBCHEM_SHAPE_MULTIPOLES>  (1) 
308.25
12.05
1.9
0.57
8.13
0.34
0
-6.47
-0.02
-0.34
0
0
0.02
0

>  <PUBCHEM_SHAPE_SELFOVERLAP>  (1) 
641.942

>  <PUBCHEM_SHAPE_VOLUME>  (1) 
175.3

>  <PUBCHEM_COORDINATE_TYPE>  (1) 
2
5
10

$$$$
