44085
     RDKit          3D

  9  8  0  0  0  0  0  0  0  0999 V2000
    3.7334   -0.0525    0.0140 F   0  0  0  0  0  0  0  0  0  0  0  0
   -1.0197    0.3797    0.0008 O   0  0  0  0  0  0  0  0  0  0  0  0
    1.4865    1.3466   -0.0113 O   0  0  0  0  0  0  0  0  0  0  0  0
   -2.5917   -1.3134   -0.0031 O   0  0  0  0  0  0  0  0  0  0  0  0
    0.0264   -0.5684   -0.0059 C   0  0  0  0  0  0  0  0  0  0  0  0
    1.3738    0.1218   -0.0061 C   0  0  0  0  0  0  0  0  0  0  0  0
    2.5820   -0.7764    0.0004 C   0  0  0  0  0  0  0  0  0  0  0  0
   -2.2948   -0.1264    0.0016 C   0  0  0  0  0  0  0  0  0  0  0  0
   -3.2958    0.9891    0.0096 C   0  0  0  0  0  0  0  0  0  0  0  0
  1  7  1  0
  2  5  1  0
  2  8  1  0
  3  6  2  0
  4  8  2  0
  5  6  1  0
  6  7  1  0
  8  9  1  0
M  END
>  <PUBCHEM_COMPOUND_CID>  (1) 
44085

>  <PUBCHEM_CONFORMER_RMSD>  (1) 
0.6

>  <PUBCHEM_CONFORMER_DIVERSEORDER>  (1) 
1
58
21
63
55
8
3
48
60
16
47
9
50
62
6
15
33
4
54
2
53
28
56
25
36
40
45
38
24
19
32
5
57
61
44
11
26
30
35
12
49
37
13
17
29
52
51
43
14
34
18
42
39
7
23
41
20
22
27
46
31
59
10

>  <PUBCHEM_MMFF94_PARTIAL_CHARGES>  (1) 
9
1 -0.34
2 -0.43
3 -0.57
4 -0.57
5 0.34
6 0.45
7 0.4
8 0.66
9 0.06

>  <PUBCHEM_EFFECTIVE_ROTOR_COUNT>  (1) 
4

>  <PUBCHEM_PHARMACOPHORE_FEATURES>  (1) 
2
1 3 acceptor
1 4 acceptor

>  <PUBCHEM_HEAVY_ATOM_COUNT>  (1) 
9

>  <PUBCHEM_ATOM_DEF_STEREO_COUNT>  (1) 
0

>  <PUBCHEM_ATOM_UDEF_STEREO_COUNT>  (1) 
0

>  <PUBCHEM_BOND_DEF_STEREO_COUNT>  (1) 
0

>  <PUBCHEM_BOND_UDEF_STEREO_COUNT>  (1) 
0

>  <PUBCHEM_ISOTOPIC_ATOM_COUNT>  (1) 
0

>  <PUBCHEM_COMPONENT_COUNT>  (1) 
1

>  <PUBCHEM_CACTVS_TAUTO_COUNT>  (1) 
3

>  <PUBCHEM_CONFORMER_ID>  (1) 
0000AC3500000001

>  <PUBCHEM_MMFF94_ENERGY>  (1) 
4.9278

>  <PUBCHEM_FEATURE_SELFOVERLAP>  (1) 
10.149

>  <PUBCHEM_SHAPE_FINGERPRINT>  (1) 
10219947 1 15769775749821384872
11062470 55 17775001263104025168
12932764 1 17313093155557714217
14325111 11 18410855481618835526
14390081 3 18412822495447683009
19973954 147 18337674225668888073
23552423 10 18260547874299535839
5460574 1 9223230749832256610

>  <PUBCHEM_SHAPE_MULTIPOLES>  (1) 
160.33
5.81
1.15
0.57
0.66
0.03
0
0.18
0.03
-0.36
0
-0.03
-0.01
-0.01

>  <PUBCHEM_SHAPE_SELFOVERLAP>  (1) 
300.567

>  <PUBCHEM_SHAPE_VOLUME>  (1) 
99.3

>  <PUBCHEM_COORDINATE_TYPE>  (1) 
2
5
10

$$$$
