44087
     RDKit          3D

 14 14  0  0  1  0  0  0  0  0999 V2000
   -4.7026   -1.9040   -0.2602 Br  0  0  0  0  0  0  0  0  0  0  0  0
   -0.7569    0.5595   -0.0003 O   0  0  0  0  0  0  0  0  0  0  0  0
   -2.9989   -0.0407    1.5430 O   0  0  0  0  0  0  0  0  0  0  0  0
    0.5169    2.3891   -0.5738 O   0  0  0  0  0  0  0  0  0  0  0  0
   -3.1456    0.4466    0.2074 C   0  0  0  0  0  0  0  0  0  0  0  0
   -1.9462    1.3336   -0.1140 C   0  0  0  0  0  0  0  0  0  0  0  0
   -3.2041   -0.7444   -0.7361 C   0  0  0  0  0  0  0  0  0  0  0  0
    1.5681    0.3005   -0.1075 C   0  0  0  0  0  0  0  0  0  0  0  0
    0.4077    1.2144   -0.2585 C   0  0  0  0  0  0  0  0  0  0  0  0
    2.7816    0.8236    0.2897 C   0  0  0  0  0  0  0  0  0  0  0  0
    1.3968   -1.0436   -0.3687 C   0  0  0  0  0  0  0  0  0  0  0  0
    3.8717   -0.0349    0.4318 C   0  0  0  0  0  0  0  0  0  0  0  0
    2.4871   -1.9021   -0.2265 C   0  0  0  0  0  0  0  0  0  0  0  0
    3.7244   -1.3977    0.1737 C   0  0  0  0  0  0  0  0  0  0  0  0
  1  7  1  0
  2  6  1  0
  2  9  1  0
  3  5  1  0
  4  9  2  0
  5  6  1  0
  5  7  1  0
  8  9  1  0
  8 10  2  0
  8 11  1  0
 10 12  1  0
 11 13  2  0
 12 14  2  0
 13 14  1  0
M  END
>  <PUBCHEM_COMPOUND_CID>  (1) 
44087

>  <PUBCHEM_CONFORMER_RMSD>  (1) 
0.6

>  <PUBCHEM_CONFORMER_DIVERSEORDER>  (1) 
4
203
20
29
110
186
94
34
192
70
182
183
174
57
98
75
39
199
153
168
187
89
158
154
69
38
167
123
132
118
171
95
162
201
179
205
63
195
21
148
159
84
139
64
180
13
181
173
71
82
32
87
90
134
80
125
146
51
198
72
177
14
10
109
185
9
165
175
11
103
65
76
56
119
150
115
47
100
54
104
126
78
122
189
41
99
188
112
194
42
73
193
131
197
96
164
40
52
37
151
91
61
83
46
114
176
68
142
128
88
120
135
6
149
81
79
152
62
48
117
74
36
67
190
163
16
172
155
97
113
26
31
169
121
92
85
66
207
156
206
77
44
45
116
111
25
102
147
184
107
160
106
170
178
127
129
35
204
59
23
161
30
18
12
130
24
137
3
49
86
50
33
144
15
196
60
157
108
124
55
202
136
8
101
43
53
58
2
200
19
143
138
191
133
7
140
27
105
22
17
141
166
28
93
5
1
145

>  <PUBCHEM_MMFF94_PARTIAL_CHARGES>  (1) 
20
1 -0.23
10 -0.15
11 -0.15
12 -0.15
13 -0.15
14 -0.15
2 -0.43
20 0.15
21 0.15
22 0.4
23 0.15
24 0.15
25 0.15
3 -0.68
4 -0.57
5 0.28
6 0.28
7 0.23
8 0.09
9 0.63

>  <PUBCHEM_EFFECTIVE_ROTOR_COUNT>  (1) 
5

>  <PUBCHEM_PHARMACOPHORE_FEATURES>  (1) 
5
1 1 hydrophobe
1 3 acceptor
1 3 donor
1 4 acceptor
6 8 10 11 12 13 14 rings

>  <PUBCHEM_HEAVY_ATOM_COUNT>  (1) 
14

>  <PUBCHEM_ATOM_DEF_STEREO_COUNT>  (1) 
0

>  <PUBCHEM_ATOM_UDEF_STEREO_COUNT>  (1) 
1

>  <PUBCHEM_BOND_DEF_STEREO_COUNT>  (1) 
0

>  <PUBCHEM_BOND_UDEF_STEREO_COUNT>  (1) 
0

>  <PUBCHEM_ISOTOPIC_ATOM_COUNT>  (1) 
0

>  <PUBCHEM_COMPONENT_COUNT>  (1) 
1

>  <PUBCHEM_CACTVS_TAUTO_COUNT>  (1) 
1

>  <PUBCHEM_CONFORMER_ID>  (1) 
0000AC3700000004

>  <PUBCHEM_MMFF94_ENERGY>  (1) 
33.4806

>  <PUBCHEM_FEATURE_SELFOVERLAP>  (1) 
25.371

>  <PUBCHEM_SHAPE_FINGERPRINT>  (1) 
11543360 7 14707507900671619578
11806522 49 18409726300378071367
12032990 46 18410013195920020686
13296908 3 18335981965330050788
14123255 52 9367355838119050727
1420 369 18341333383418515495
14251717 144 18409727399895168790
14252887 29 17918000472737351622
14576447 43 18338515347542264462
15375462 189 17917706954719666003
15477762 27 18336263543486170885
15501101 241 18412823573526899616
19107657 9 10951759819889395971
19141452 34 18339645538764909729
19433438 48 18272370854319496827
200 152 18201148932395113423
201361 129 9727370033854952685
20261772 1 17917426583439339879
20281407 28 18339080380686582372
20281475 54 18410578357512697532
20645477 70 18115302427278388383
21501925 9 18410289233146446117
221490 88 18117281565251442123
22485316 2 18410008801989187181
22646028 28 18411135857527309479
23402539 116 18187919543780392314
276578 36 13758070779876999972
2871803 45 18334849520194054223
5104073 3 18272082769092615234
581208 293 18410853265853554240
76465 3 18115577159051384858
81228 2 17825673252855821196

>  <PUBCHEM_SHAPE_MULTIPOLES>  (1) 
276.45
8.57
2.11
0.84
5.02
0.06
0.17
4.92
0.78
0.11
-0.33
0.46
-0.02
-0.23

>  <PUBCHEM_SHAPE_SELFOVERLAP>  (1) 
550.866

>  <PUBCHEM_SHAPE_VOLUME>  (1) 
167.4

>  <PUBCHEM_COORDINATE_TYPE>  (1) 
2
5
10

$$$$
