44094
     RDKit          3D

 18 18  0  0  0  0  0  0  0  0999 V2000
    1.4945   -0.7251    0.0636 O   0  0  0  0  0  0  0  0  0  0  0  0
    1.8319    1.2574   -1.0890 O   0  0  0  0  0  0  0  0  0  0  0  0
    5.1839   -0.5894    1.4647 O   0  0  0  0  0  0  0  0  0  0  0  0
    3.5689    0.3845    0.1796 N   0  0  0  0  0  0  0  0  0  0  0  0
    4.0174   -0.7151    1.0762 N   0  0  0  0  0  0  0  0  0  0  0  0
   -3.2232    0.4578    0.5382 C   0  0  0  0  0  0  0  0  0  0  0  0
   -3.4281   -0.1852    1.9290 C   0  0  0  0  0  0  0  0  0  0  0  0
   -3.0115    1.9812    0.6927 C   0  0  0  0  0  0  0  0  0  0  0  0
   -2.0913   -0.2015   -0.2348 C   0  0  0  0  0  0  0  0  0  0  0  0
   -3.8433   -1.6502    1.8606 C   0  0  0  0  0  0  0  0  0  0  0  0
   -2.9270    2.7161   -0.6401 C   0  0  0  0  0  0  0  0  0  0  0  0
   -0.8126   -0.1534    0.2825 C   0  0  0  0  0  0  0  0  0  0  0  0
   -2.3765   -0.8291   -1.4307 C   0  0  0  0  0  0  0  0  0  0  0  0
    0.2253   -0.7587   -0.4263 C   0  0  0  0  0  0  0  0  0  0  0  0
   -1.3388   -1.4343   -2.1394 C   0  0  0  0  0  0  0  0  0  0  0  0
   -0.0379   -1.3992   -1.6372 C   0  0  0  0  0  0  0  0  0  0  0  0
    2.2746    0.3850   -0.3426 C   0  0  0  0  0  0  0  0  0  0  0  0
    4.4937    1.4590   -0.1468 C   0  0  0  0  0  0  0  0  0  0  0  0
  1 14  1  0
  1 17  1  0
  2 17  2  0
  3  5  2  0
  4  5  1  0
  4 17  1  0
  4 18  1  0
  6  7  1  0
  6  8  1  0
  6  9  1  0
  7 10  1  0
  8 11  1  0
  9 12  2  0
  9 13  1  0
 12 14  1  0
 13 15  2  0
 14 16  2  0
 15 16  1  0
M  END
>  <PUBCHEM_COMPOUND_CID>  (1) 
44094

>  <PUBCHEM_CONFORMER_RMSD>  (1) 
0.8

>  <PUBCHEM_CONFORMER_DIVERSEORDER>  (1) 
1
169
157
177
54
59
39
81
138
222
119
229
187
106
173
213
72
141
226
67
123
41
183
27
139
114
113
97
111
168
210
136
63
166
160
68
151
9
223
55
209
85
107
212
228
126
14
161
2
28
93
174
24
181
207
163
208
110
42
102
148
89
164
120
175
182
118
131
221
217
87
78
115
146
31
205
191
150
153
96
211
189
193
20
125
108
12
57
91
37
199
186
30
65
179
90
135
76
92
200
117
155
60
13
147
34
56
70
219
156
46
227
101
133
26
11
17
25
192
62
100
214
178
8
48
52
128
143
171
18
45
225
88
206
124
66
216
29
145
53
162
95
80
98
190
134
158
75
22
36
188
137
58
64
7
144
215
202
194
154
218
122
185
142
19
196
127
204
6
152
167
149
99
198
16
130
197
103
79
109
184
10
51
224
15
170
94
77
180
33
44
71
165
32
82
172
40
132
116
176
35
21
5
43
49
201
86
74
84
38
23
69
47
112
83
220
104
129
73
203
195
140
3
50
61
159
105
121
4

>  <PUBCHEM_MMFF94_PARTIAL_CHARGES>  (1) 
18
1 -0.23
12 -0.15
13 -0.15
14 0.08
15 -0.15
16 -0.15
17 0.78
18 0.3
2 -0.57
3 -0.16
30 0.15
31 0.15
32 0.15
33 0.15
4 -0.18
5 -0.02
6 0.14
9 -0.14

>  <PUBCHEM_EFFECTIVE_ROTOR_COUNT>  (1) 
7

>  <PUBCHEM_PHARMACOPHORE_FEATURES>  (1) 
4
1 10 hydrophobe
1 11 hydrophobe
1 2 acceptor
6 9 12 13 14 15 16 rings

>  <PUBCHEM_HEAVY_ATOM_COUNT>  (1) 
18

>  <PUBCHEM_ATOM_DEF_STEREO_COUNT>  (1) 
0

>  <PUBCHEM_ATOM_UDEF_STEREO_COUNT>  (1) 
0

>  <PUBCHEM_BOND_DEF_STEREO_COUNT>  (1) 
0

>  <PUBCHEM_BOND_UDEF_STEREO_COUNT>  (1) 
0

>  <PUBCHEM_ISOTOPIC_ATOM_COUNT>  (1) 
0

>  <PUBCHEM_COMPONENT_COUNT>  (1) 
1

>  <PUBCHEM_CACTVS_TAUTO_COUNT>  (1) 
1

>  <PUBCHEM_CONFORMER_ID>  (1) 
0000AC3E00000001

>  <PUBCHEM_MMFF94_ENERGY>  (1) 
44.081

>  <PUBCHEM_FEATURE_SELFOVERLAP>  (1) 
20.297

>  <PUBCHEM_SHAPE_FINGERPRINT>  (1) 
10610426 29 16952263255623195819
11221954 11 17766007103745242701
11543360 7 11887660776183788696
12077114 3 18338796710971151029
121448 382 16988545901935237007
12363563 72 13407083634180753963
12403259 118 18341901787890589377
12403814 3 18271811250361643009
12633257 1 17896055277372765433
12892183 10 18186523228390296504
13583140 156 18408600340320704960
13675066 3 18413107234678562610
14178342 30 17458922426785602475
14251758 9 18200027314602586174
14614273 12 17846494838158445991
15375462 478 18261120698583406357
15534591 1 14979690857767069187
1741750 31 16917352536584409190
18186145 218 16845304816934432812
18219364 16 17703794708567820281
19784866 34 16343711980288104811
200 152 17968653938727138059
20645477 56 17561085829991298316
20645477 70 12319470900198576884
20681677 274 17823427165511540065
21069387 34 15141822767977141915
21524375 3 17917712400722613839
21864079 5 18411983602472754476
23402539 116 18335698360904116599
23402655 69 12247687062875023778
23557571 272 18121816909409170397
23559900 14 17972631842868343919
27216 239 18342461413660636193
2748010 2 17913792538911728573
2838139 119 18118383082803578165
314173 85 14345796058423255950
3268164 11 16916770937930286477
3286 77 17531255001271521576
81228 2 17344338102276160543
9862522 239 18200021842065359893
9981440 41 18057034706254944377

>  <PUBCHEM_SHAPE_MULTIPOLES>  (1) 
342.86
8.79
2.05
1.86
10.74
0.62
0.56
2.9
4.62
-1.73
-1.1
-1.15
-0.51
0.06

>  <PUBCHEM_SHAPE_SELFOVERLAP>  (1) 
690.045

>  <PUBCHEM_SHAPE_VOLUME>  (1) 
200

>  <PUBCHEM_COORDINATE_TYPE>  (1) 
2
5
10

$$$$
