44097
     RDKit          3D

 36 39  0  0  1  0  0  0  0  0999 V2000
   -0.6003   -0.6971   -2.4283 S   0  0  0  0  0  0  0  0  0  0  0  0
    4.2978    2.8109    0.3277 S   0  0  0  0  0  0  0  0  0  0  0  0
    1.0193   -3.3584    1.0247 O   0  0  0  0  0  0  0  0  0  0  0  0
    2.9368    0.8854   -1.5459 O   0  0  0  0  0  0  0  0  0  0  0  0
   -2.2200   -4.4526    0.5310 O   0  0  0  0  0  0  0  0  0  0  0  0
   -2.5372   -2.8627    2.1450 O   0  0  0  0  0  0  0  0  0  0  0  0
    2.7000    3.1322    0.3824 O   0  0  0  0  0  0  0  0  0  0  0  0
    4.7885    3.1020   -1.0059 O   0  0  0  0  0  0  0  0  0  0  0  0
    4.9274    3.3687    1.5096 O   0  0  0  0  0  0  0  0  0  0  0  0
   -7.1509    3.2635    1.7485 O   0  0  0  0  0  0  0  0  0  0  0  0
   -0.4744   -1.9010   -0.0684 N   0  0  0  0  0  0  0  0  0  0  0  0
    2.4834   -0.6314    0.1491 N   0  0  0  0  0  0  0  0  0  0  0  0
   -4.9030   -0.5914   -0.3892 N   0  0  0  0  0  0  0  0  0  0  0  0
   -7.3165    3.7713   -0.4816 N   0  0  0  0  0  0  0  0  0  0  0  0
    0.0561   -0.7335   -0.7450 C   0  0  0  0  0  0  0  0  0  0  0  0
    1.4474   -1.3807   -0.5605 C   0  0  0  0  0  0  0  0  0  0  0  0
    0.7056   -2.4206    0.3298 C   0  0  0  0  0  0  0  0  0  0  0  0
   -1.7951   -2.2018    0.0185 C   0  0  0  0  0  0  0  0  0  0  0  0
   -2.7054   -1.5841   -0.7691 C   0  0  0  0  0  0  0  0  0  0  0  0
   -2.3349   -0.5911   -1.8680 C   0  0  0  0  0  0  0  0  0  0  0  0
   -4.1946   -1.8358   -0.7258 C   0  0  0  0  0  0  0  0  0  0  0  0
    3.1517    0.4572   -0.4141 C   0  0  0  0  0  0  0  0  0  0  0  0
    4.1829    1.0570    0.5223 C   0  0  0  0  0  0  0  0  0  0  0  0
   -2.2292   -3.2847    0.9999 C   0  0  0  0  0  0  0  0  0  0  0  0
    5.5693    0.4950    0.3236 C   0  0  0  0  0  0  0  0  0  0  0  0
   -5.2920    0.2193   -1.3826 C   0  0  0  0  0  0  0  0  0  0  0  0
   -5.1372   -0.3099    0.8998 C   0  0  0  0  0  0  0  0  0  0  0  0
    6.4531    0.4214    1.4004 C   0  0  0  0  0  0  0  0  0  0  0  0
    5.9671    0.0485   -0.9368 C   0  0  0  0  0  0  0  0  0  0  0  0
   -5.9635    1.3991   -1.0949 C   0  0  0  0  0  0  0  0  0  0  0  0
   -5.8046    0.8561    1.2468 C   0  0  0  0  0  0  0  0  0  0  0  0
   -6.2204    1.7170    0.2354 C   0  0  0  0  0  0  0  0  0  0  0  0
    7.7344   -0.0982    1.2169 C   0  0  0  0  0  0  0  0  0  0  0  0
    7.2486   -0.4711   -1.1201 C   0  0  0  0  0  0  0  0  0  0  0  0
    8.1322   -0.5445   -0.0432 C   0  0  0  0  0  0  0  0  0  0  0  0
   -6.9223    2.9461    0.5679 C   0  0  0  0  0  0  0  0  0  0  0  0
  1 15  1  0
  1 20  1  0
  2  7  1  0
  2  8  2  0
  2  9  2  0
  2 23  1  0
  3 17  2  0
  4 22  2  0
  5 24  1  0
  6 24  2  0
 10 36  2  0
 11 15  1  0
 11 17  1  0
 11 18  1  0
 12 16  1  0
 12 22  1  0
 13 21  1  0
 13 26  2  0
 13 27  1  0
 14 36  1  0
 15 16  1  0
 16 17  1  0
 18 19  2  0
 18 24  1  0
 19 20  1  0
 19 21  1  0
 22 23  1  0
 23 25  1  0
 25 28  2  0
 25 29  1  0
 26 30  1  0
 27 31  2  0
 28 33  1  0
 29 34  2  0
 30 32  2  0
 31 32  1  0
 32 36  1  0
 33 35  2  0
 34 35  1  0
M  CHG  2   5  -1  13   1
M  END
>  <PUBCHEM_COMPOUND_CID>  (1) 
44097

>  <PUBCHEM_CONFORMER_RMSD>  (1) 
1

>  <PUBCHEM_CONFORMER_DIVERSEORDER>  (1) 
5
321
99
152
126
267
251
185
228
318
186
269
237
181
210
307
242
47
288
365
9
335
112
58
74
167
63
95
352
264
362
25
291
247
219
98
299
196
89
256
141
266
359
270
279
245
105
330
303
43
350
21
65
371
333
1
49
110
297
239
262
324
61
174
108
341
180
305
337
182
364
261
301
278
155
173
312
368
150
51
178
156
356
311
78
292
154
203
290
315
137
260
258
346
227
106
250
345
257
87
207
302
209
179
222
134
272
57
199
317
234
34
158
255
344
338
145
68
332
111
322
282
340
165
176
306
24
142
119
259
15
90
214
231
296
354
360
31
286
101
16
172
162
230
293
114
277
109
273
27
136
323
97
39
19
243
280
244
246
349
223
17
130
50
46
265
314
13
226
177
66
91
204
84
157
36
298
131
363
67
343
328
70
252
129
18
144
113
53
121
92
201
166
263
342
116
357
241
44
175
107
149
310
249
319
276
122
20
148
11
159
35
304
120
366
143
211
370
313
102
289
135
124
285
28
29
248
54
169
329
127
274
320
82
151
325
32
195
221
71
213
373
45
233
10
193
41
184
235
86
240
236
80
372
64
281
161
208
123
171
348
212
88
60
146
206
6
238
347
125
197
147
138
194
187
295
190
76
198
355
115
224
160
300
358
164
23
183
128
62
103
283
79
309
327
81
225
40
38
326
85
96
275
30
216
367
331
42
294
163
254
284
77
170
2
189
22
133
191
7
369
217
117
56
253
232
287
334
202
268
37
118
336
72
353
12
220
168
188
100
83
93
104
316
215
218
271
139
3
73
8
361
69
339
200
351
55
59
75
229
192
4
140
14
308
33
52
205
94
26
132
48
153

>  <PUBCHEM_MMFF94_PARTIAL_CHARGES>  (1) 
49
1 -0.45
10 -0.57
11 -0.39
12 -0.65
13 -0.21
14 -0.8
15 0.44
16 0.28
17 0.58
18 -0.14
19 -0.28
2 1.38
20 0.37
21 0.63
22 0.57
23 0.31
24 1.05
25 -0.14
26 0.21
27 0.21
28 -0.15
29 -0.15
3 -0.57
30 -0.15
31 -0.15
32 0.09
33 -0.15
34 -0.15
35 -0.15
36 0.54
4 -0.57
41 0.37
45 0.15
46 0.15
47 0.15
48 0.15
49 0.15
5 -0.9
50 0.15
51 0.5
52 0.15
53 0.15
54 0.15
55 0.37
56 0.37
6 -0.9
7 -0.68
8 -0.65
9 -0.65

>  <PUBCHEM_EFFECTIVE_ROTOR_COUNT>  (1) 
9.6

>  <PUBCHEM_PHARMACOPHORE_FEATURES>  (1) 
16
1 10 acceptor
1 12 donor
1 14 donor
1 3 acceptor
1 4 acceptor
1 5 acceptor
1 6 acceptor
1 7 acceptor
1 8 acceptor
1 9 acceptor
3 5 6 24 anion
4 11 15 16 17 rings
4 2 7 8 9 anion
6 1 11 15 18 19 20 rings
6 13 26 27 30 31 32 rings
6 25 28 29 33 34 35 rings

>  <PUBCHEM_HEAVY_ATOM_COUNT>  (1) 
36

>  <PUBCHEM_ATOM_DEF_STEREO_COUNT>  (1) 
0

>  <PUBCHEM_ATOM_UDEF_STEREO_COUNT>  (1) 
3

>  <PUBCHEM_BOND_DEF_STEREO_COUNT>  (1) 
0

>  <PUBCHEM_BOND_UDEF_STEREO_COUNT>  (1) 
0

>  <PUBCHEM_ISOTOPIC_ATOM_COUNT>  (1) 
0

>  <PUBCHEM_COMPONENT_COUNT>  (1) 
1

>  <PUBCHEM_CACTVS_TAUTO_COUNT>  (1) 
4

>  <PUBCHEM_CONFORMER_ID>  (1) 
0000AC4100000005

>  <PUBCHEM_MMFF94_ENERGY>  (1) 
99.3397

>  <PUBCHEM_FEATURE_SELFOVERLAP>  (1) 
81.576

>  <PUBCHEM_SHAPE_FINGERPRINT>  (1) 
10319926 262 18041837445409182482
10533779 1 18125716795713258521
10674148 151 18261108587640658610
11456790 92 18334573513190539074
12013929 29 18339087098311859340
12107183 9 18260259781200358338
12422481 6 17167855383268955775
12728209 76 17417533647461002404
13914758 101 17988922275891277782
15064981 113 16845586322171723964
15357212 105 17242471640229520668
16112460 7 18267869384747855585
19302320 297 18335146375459565185
19438510 23 18341614785538745627
20511986 3 15984813870748996438
21223535 225 18272084968105541789
21756936 100 18412543219837528639
21774942 28 17774724164815456112
22122407 14 18271809072211895913
23191077 185 17987501766528384839
23522609 53 17386870437764372966
25222932 49 8574717905776846880
2748736 6 18341325652456361641
2838139 119 18131347540190719181
397638 26 18334857208037736841
4093350 32 18059294262859460686
4144715 1 18192716863394685706
5104073 3 17823971441384858818
5385378 56 18260825948037422210
54039377 194 8646474242387646337
6004065 56 9655281645381774790
7970288 3 8862643704644645601
999808 66 14779546777110170271

>  <PUBCHEM_SHAPE_MULTIPOLES>  (1) 
681.68
22.99
4.49
1.69
8.06
0.67
-0.23
19.26
3.84
-5.29
1.89
-0.63
-0.18
-0.02

>  <PUBCHEM_SHAPE_SELFOVERLAP>  (1) 
1453.18

>  <PUBCHEM_SHAPE_VOLUME>  (1) 
379.7

>  <PUBCHEM_COORDINATE_TYPE>  (1) 
2
5
10

$$$$
