4409
     RDKit          3D

 17 18  0  0  0  0  0  0  0  0999 V2000
   -5.0038   -0.1941    0.4359 O   0  0  0  0  0  0  0  0  0  0  0  0
    5.5327    0.2652   -0.8430 O   0  0  0  0  0  0  0  0  0  0  0  0
    1.3169   -0.4498   -0.4672 C   0  0  0  0  0  0  0  0  0  0  0  0
    2.7664   -0.2292   -0.7394 C   0  0  0  0  0  0  0  0  0  0  0  0
   -0.9501    0.4211   -0.3230 C   0  0  0  0  0  0  0  0  0  0  0  0
   -1.4134   -0.8647    0.0443 C   0  0  0  0  0  0  0  0  0  0  0  0
    0.4181    0.6118   -0.5756 C   0  0  0  0  0  0  0  0  0  0  0  0
    3.5392    0.1729    0.5225 C   0  0  0  0  0  0  0  0  0  0  0  0
    0.8612   -1.7143   -0.1060 C   0  0  0  0  0  0  0  0  0  0  0  0
   -0.4947   -1.9218    0.1483 C   0  0  0  0  0  0  0  0  0  0  0  0
   -1.8687    1.4783   -0.4274 C   0  0  0  0  0  0  0  0  0  0  0  0
   -2.7818   -1.0553    0.2967 C   0  0  0  0  0  0  0  0  0  0  0  0
   -3.6804    0.0066    0.1887 C   0  0  0  0  0  0  0  0  0  0  0  0
   -3.2248    1.2710   -0.1729 C   0  0  0  0  0  0  0  0  0  0  0  0
    5.0158    0.4146    0.2630 C   0  0  0  0  0  0  0  0  0  0  0  0
    5.8345    0.8530    1.4495 C   0  0  0  0  0  0  0  0  0  0  0  0
   -5.8670    0.9345    0.3058 C   0  0  0  0  0  0  0  0  0  0  0  0
  1 13  1  0
  1 17  1  0
  2 15  2  0
  3  4  1  0
  3  7  2  0
  3  9  1  0
  4  8  1  0
  5  6  2  0
  5  7  1  0
  5 11  1  0
  6 10  1  0
  6 12  1  0
  8 15  1  0
  9 10  2  0
 11 14  2  0
 12 13  2  0
 13 14  1  0
 15 16  1  0
M  END
>  <PUBCHEM_COMPOUND_CID>  (1) 
4409

>  <PUBCHEM_CONFORMER_RMSD>  (1) 
0.6

>  <PUBCHEM_CONFORMER_DIVERSEORDER>  (1) 
2
21
3
23
5
24
16
7
29
26
33
30
15
22
17
12
13
34
32
11
6
4
28
31
25
8
27
14
18
20
19
10
1
9

>  <PUBCHEM_MMFF94_PARTIAL_CHARGES>  (1) 
21
1 -0.36
10 -0.15
11 -0.15
12 -0.15
13 0.08
14 -0.15
15 0.45
16 0.06
17 0.28
2 -0.57
20 0.15
23 0.15
24 0.15
25 0.15
26 0.15
27 0.15
3 -0.14
4 0.14
7 -0.15
8 0.06
9 -0.15

>  <PUBCHEM_EFFECTIVE_ROTOR_COUNT>  (1) 
4

>  <PUBCHEM_PHARMACOPHORE_FEATURES>  (1) 
4
1 1 acceptor
1 2 acceptor
6 3 5 6 7 9 10 rings
6 5 6 11 12 13 14 rings

>  <PUBCHEM_HEAVY_ATOM_COUNT>  (1) 
17

>  <PUBCHEM_ATOM_DEF_STEREO_COUNT>  (1) 
0

>  <PUBCHEM_ATOM_UDEF_STEREO_COUNT>  (1) 
0

>  <PUBCHEM_BOND_DEF_STEREO_COUNT>  (1) 
0

>  <PUBCHEM_BOND_UDEF_STEREO_COUNT>  (1) 
0

>  <PUBCHEM_ISOTOPIC_ATOM_COUNT>  (1) 
0

>  <PUBCHEM_COMPONENT_COUNT>  (1) 
1

>  <PUBCHEM_CACTVS_TAUTO_COUNT>  (1) 
3

>  <PUBCHEM_CONFORMER_ID>  (1) 
0000113900000002

>  <PUBCHEM_MMFF94_ENERGY>  (1) 
50.2132

>  <PUBCHEM_FEATURE_SELFOVERLAP>  (1) 
20.324

>  <PUBCHEM_SHAPE_FINGERPRINT>  (1) 
11132069 177 18408328782645078495
11401426 45 18409730664571330807
12119455 92 17561363989496096814
12236239 1 17167581600562593948
12251169 10 18113617902254993316
12390115 104 18199481969245714785
12403259 415 18337953377004813060
12596602 18 16732986452872529568
12670543 26 10447658971739879217
13140716 1 18189905399166355265
13214271 11 18410576210509305423
13288520 33 8430316844371488899
13533116 47 18200596891685575678
13685833 64 10953465115532863785
15042514 8 18190468340403988587
15048467 5 15913330182603581705
15196674 1 18263927648668654807
15209294 21 18341897363636145033
15536298 74 18338520720694298030
16945 1 18189070758419753959
1813 80 15647334083814004182
19784866 170 18334861597430834043
19784866 240 11386371413505186895
20510252 161 18341051804845475769
20645477 56 18342738537713870782
20645477 70 16988292976081137222
20735858 18 18334296474630019707
21150785 3 16558739110631678029
21637258 2 14201393928025151345
22079108 93 18272646865833815792
22224240 67 18412262848614223899
23402539 116 18409162242650375951
23536379 177 15626227896554598028
23559900 14 18340783563470119686
26918003 58 16515408473528775129
2916195 48 18131345323760864672
34934 24 18409163282428165135
351380 180 18343580763462563040
3545911 37 18413110546240740102
4072396 5 18040712550065445803
465052 167 12901550126591154560
474229 33 18408041818716104599
5104073 3 18190467052282273065
59682541 35 18338243756171233443

>  <PUBCHEM_SHAPE_MULTIPOLES>  (1) 
338.11
12.45
1.52
0.89
6.91
0.43
-0.09
-5.01
-3.3
-0.68
-0.03
0.9
-0.13
0.57

>  <PUBCHEM_SHAPE_SELFOVERLAP>  (1) 
718.436

>  <PUBCHEM_SHAPE_VOLUME>  (1) 
189.8

>  <PUBCHEM_COORDINATE_TYPE>  (1) 
2
5
10

$$$$
