44095
     RDKit          3D

 15 17  0  0  0  0  0  0  0  0999 V2000
    4.5556    0.0221   -0.0514 F   0  0  0  0  0  0  0  0  0  0  0  0
   -1.5988   -0.2213    1.3623 O   0  0  0  0  0  0  0  0  0  0  0  0
   -1.6195   -1.1427   -0.8172 C   0  0  0  0  0  0  0  0  0  0  0  0
   -1.6641    1.3307   -0.4285 C   0  0  0  0  0  0  0  0  0  0  0  0
   -1.0643   -0.0009    0.0337 C   0  0  0  0  0  0  0  0  0  0  0  0
   -2.9664   -1.6560   -0.4854 C   0  0  0  0  0  0  0  0  0  0  0  0
   -1.7448   -2.4740   -0.1850 C   0  0  0  0  0  0  0  0  0  0  0  0
   -1.8104    2.4018    0.5785 C   0  0  0  0  0  0  0  0  0  0  0  0
   -3.0163    1.6774    0.0560 C   0  0  0  0  0  0  0  0  0  0  0  0
    0.4268    0.0048    0.0104 C   0  0  0  0  0  0  0  0  0  0  0  0
    1.1066    0.7347   -0.9646 C   0  0  0  0  0  0  0  0  0  0  0  0
    1.1417   -0.7194    0.9645 C   0  0  0  0  0  0  0  0  0  0  0  0
    2.5014    0.7403   -0.9855 C   0  0  0  0  0  0  0  0  0  0  0  0
    2.5364   -0.7137    0.9436 C   0  0  0  0  0  0  0  0  0  0  0  0
    3.2162    0.0161   -0.0314 C   0  0  0  0  0  0  0  0  0  0  0  0
  1 15  1  0
  2  5  1  0
  3  5  1  0
  3  6  1  0
  3  7  1  0
  4  5  1  0
  4  8  1  0
  4  9  1  0
  5 10  1  0
  6  7  1  0
  8  9  1  0
 10 11  2  0
 10 12  1  0
 11 13  1  0
 12 14  2  0
 13 15  2  0
 14 15  1  0
M  END
>  <PUBCHEM_COMPOUND_CID>  (1) 
44095

>  <PUBCHEM_CONFORMER_RMSD>  (1) 
0.6

>  <PUBCHEM_CONFORMER_DIVERSEORDER>  (1) 
3
5
2
4
6
1

>  <PUBCHEM_MMFF94_PARTIAL_CHARGES>  (1) 
30
1 -0.19
10 -0.14
11 -0.15
12 -0.15
13 -0.15
14 -0.15
15 0.19
16 0.1
17 0.1
18 0.1
19 0.1
2 -0.68
20 0.1
21 0.1
22 0.1
23 0.1
24 0.1
25 0.1
26 0.4
27 0.15
28 0.15
29 0.15
3 -0.19
30 0.15
4 -0.19
5 0.61
6 -0.2
7 -0.2
8 -0.2
9 -0.2

>  <PUBCHEM_EFFECTIVE_ROTOR_COUNT>  (1) 
4.2

>  <PUBCHEM_PHARMACOPHORE_FEATURES>  (1) 
3
1 2 acceptor
1 2 donor
6 10 11 12 13 14 15 rings

>  <PUBCHEM_HEAVY_ATOM_COUNT>  (1) 
15

>  <PUBCHEM_ATOM_DEF_STEREO_COUNT>  (1) 
0

>  <PUBCHEM_ATOM_UDEF_STEREO_COUNT>  (1) 
0

>  <PUBCHEM_BOND_DEF_STEREO_COUNT>  (1) 
0

>  <PUBCHEM_BOND_UDEF_STEREO_COUNT>  (1) 
0

>  <PUBCHEM_ISOTOPIC_ATOM_COUNT>  (1) 
0

>  <PUBCHEM_COMPONENT_COUNT>  (1) 
1

>  <PUBCHEM_CACTVS_TAUTO_COUNT>  (1) 
1

>  <PUBCHEM_CONFORMER_ID>  (1) 
0000AC3F00000003

>  <PUBCHEM_MMFF94_ENERGY>  (1) 
55.5281

>  <PUBCHEM_FEATURE_SELFOVERLAP>  (1) 
15.223

>  <PUBCHEM_SHAPE_FINGERPRINT>  (1) 
1 1 17692251837899036445
11578080 2 17681231677319678316
12138202 97 17917423177476909285
12202030 40 17131292214982343958
12423570 1 11921192002533497593
124424 183 17059771114389845202
12491281 212 18335702689524353752
12500047 106 18271800169140206398
12716758 59 18201442419741236046
12932764 1 18341341054087207272
13024252 1 17676207987596548339
13296909 8 18341041986776901876
13538477 17 18335976497910535877
13581323 91 18342173341181239241
13583140 156 17345167001310844146
15279307 12 18261952942706815906
15309172 13 18194691367108128129
15490181 8 17981043012336388847
15669948 3 18411695487027710918
15775835 57 18261958440222789040
15852999 172 17845089571634336583
15906896 17 18334022666201639467
16752209 62 18339626907001744039
16945 1 18413666920261581983
18534176 82 17989202629364325517
19026448 4 17918273156532932164
19868273 325 18411981398816609493
200 152 18115018731297534311
20361792 2 17912918671896750263
20510252 161 18272933829852499563
20525323 117 18334577962069560898
20645477 56 18342460305205652304
20711985 344 18272364308857811851
20871998 184 18273216413078693127
21296965 67 18195806503969247767
21524375 3 18117843188081321257
228727 97 18117006682695849821
23236772 104 18113334210816727681
23402539 116 18272359850734662501
23419403 2 16895327257196026037
23557571 272 18131355249731043760
23559900 14 18131347459240422642
23598291 2 18042954385903528138
23598294 1 18411695487296762651
2748010 2 17978808813219659021
305870 269 17765153865330878585
5706482 22 18269269076214328403
6049 1 17560510802753410456
69090 78 18337106757420284533
6992083 37 18188489047616667092
74978 22 18412261714357859076
77492 1 18113897156490986212
7832392 63 18335139744092882900
8030462 33 18041282157492307230
81228 2 18343024427959088299
90525 40 18409730638332385895

>  <PUBCHEM_SHAPE_MULTIPOLES>  (1) 
295.55
5.59
2.18
1.06
4.71
0.05
-0.08
-0.11
0.21
-2.62
0
0.16
0.01
-0.77

>  <PUBCHEM_SHAPE_SELFOVERLAP>  (1) 
635.172

>  <PUBCHEM_SHAPE_VOLUME>  (1) 
167.4

>  <PUBCHEM_COORDINATE_TYPE>  (1) 
2
5
10

$$$$
