4410
     RDKit          3D

 26 29  0  0  1  0  0  0  0  0999 V2000
    1.7089    2.8973    0.3434 F   0  0  0  0  0  0  0  0  0  0  0  0
    6.7862   -0.6324   -0.2047 O   0  0  0  0  0  0  0  0  0  0  0  0
   -3.2953    2.4223    0.2117 O   0  0  0  0  0  0  0  0  0  0  0  0
   -5.5873    1.4101   -0.5860 O   0  0  0  0  0  0  0  0  0  0  0  0
   -5.9717   -0.6486    0.3330 O   0  0  0  0  0  0  0  0  0  0  0  0
    2.7411    0.3786    0.0432 N   0  0  0  0  0  0  0  0  0  0  0  0
   -1.8448   -1.3681   -0.1965 N   0  0  0  0  0  0  0  0  0  0  0  0
    0.4733   -0.5128   -0.1133 C   0  0  0  0  0  0  0  0  0  0  0  0
   -1.3311   -2.7495   -0.2213 C   0  0  0  0  0  0  0  0  0  0  0  0
    1.0453   -1.8939   -0.2910 C   0  0  0  0  0  0  0  0  0  0  0  0
    0.0225   -2.8210   -0.9329 C   0  0  0  0  0  0  0  0  0  0  0  0
   -0.9209   -0.3040   -0.0749 C   0  0  0  0  0  0  0  0  0  0  0  0
    1.3538    0.5695    0.0407 C   0  0  0  0  0  0  0  0  0  0  0  0
    3.5212    1.0697   -0.9938 C   0  0  0  0  0  0  0  0  0  0  0  0
    3.4300    0.1149    1.3122 C   0  0  0  0  0  0  0  0  0  0  0  0
    4.8403    0.3447   -1.2441 C   0  0  0  0  0  0  0  0  0  0  0  0
    4.7525   -0.6065    1.0641 C   0  0  0  0  0  0  0  0  0  0  0  0
    5.6172    0.1366    0.0521 C   0  0  0  0  0  0  0  0  0  0  0  0
   -1.3913    1.0197    0.0746 C   0  0  0  0  0  0  0  0  0  0  0  0
    0.8664    1.8641    0.2011 C   0  0  0  0  0  0  0  0  0  0  0  0
   -1.2828   -3.3174    1.2002 C   0  0  0  0  0  0  0  0  0  0  0  0
   -3.2009   -1.0919   -0.1848 C   0  0  0  0  0  0  0  0  0  0  0  0
   -0.5053    2.0943    0.2124 C   0  0  0  0  0  0  0  0  0  0  0  0
   -2.8538    1.2869    0.0860 C   0  0  0  0  0  0  0  0  0  0  0  0
   -3.7569    0.1186   -0.0620 C   0  0  0  0  0  0  0  0  0  0  0  0
   -5.2165    0.2192   -0.0694 C   0  0  0  0  0  0  0  0  0  0  0  0
  1 20  1  0
  2 18  1  0
  3 24  2  0
  4 26  1  0
  5 26  2  0
  6 13  1  0
  6 14  1  0
  6 15  1  0
  7  9  1  0
  7 12  1  0
  7 22  1  0
  8 10  1  0
  8 12  2  0
  8 13  1  0
  9 11  1  0
  9 21  1  0
 10 11  1  0
 12 19  1  0
 13 20  2  0
 14 16  1  0
 15 17  1  0
 16 18  1  0
 17 18  1  0
 19 23  2  0
 19 24  1  0
 20 23  1  0
 22 25  2  0
 24 25  1  0
 25 26  1  0
M  END
>  <PUBCHEM_COMPOUND_CID>  (1) 
4410

>  <PUBCHEM_CONFORMER_RMSD>  (1) 
0.8

>  <PUBCHEM_CONFORMER_DIVERSEORDER>  (1) 
1
4
2
3

>  <PUBCHEM_MMFF94_PARTIAL_CHARGES>  (1) 
26
1 -0.19
10 0.14
12 0.1
13 0.1
14 0.37
15 0.37
18 0.28
19 0.09
2 -0.68
20 0.19
22 -0.05
23 -0.15
24 0.47
25 0.03
26 0.71
3 -0.57
4 -0.65
44 0.15
45 0.15
46 0.4
47 0.5
5 -0.57
6 -0.84
7 -0.57
8 -0.14
9 0.37

>  <PUBCHEM_EFFECTIVE_ROTOR_COUNT>  (1) 
3.8

>  <PUBCHEM_PHARMACOPHORE_FEATURES>  (1) 
13
1 2 acceptor
1 2 donor
1 25 anion
1 3 acceptor
1 4 acceptor
1 5 acceptor
1 6 cation
1 7 cation
3 4 5 26 anion
6 6 14 15 16 17 18 rings
6 7 12 19 22 24 25 rings
6 7 8 9 10 11 12 rings
6 8 12 13 19 20 23 rings

>  <PUBCHEM_HEAVY_ATOM_COUNT>  (1) 
26

>  <PUBCHEM_ATOM_DEF_STEREO_COUNT>  (1) 
0

>  <PUBCHEM_ATOM_UDEF_STEREO_COUNT>  (1) 
1

>  <PUBCHEM_BOND_DEF_STEREO_COUNT>  (1) 
0

>  <PUBCHEM_BOND_UDEF_STEREO_COUNT>  (1) 
0

>  <PUBCHEM_ISOTOPIC_ATOM_COUNT>  (1) 
0

>  <PUBCHEM_COMPONENT_COUNT>  (1) 
1

>  <PUBCHEM_CACTVS_TAUTO_COUNT>  (1) 
1

>  <PUBCHEM_CONFORMER_ID>  (1) 
0000113A00000001

>  <PUBCHEM_MMFF94_ENERGY>  (1) 
82.6437

>  <PUBCHEM_FEATURE_SELFOVERLAP>  (1) 
66.439

>  <PUBCHEM_SHAPE_FINGERPRINT>  (1) 
10411042 1 17835238226908271951
10906281 52 18340786878387968113
10967382 1 18412544289004219199
1100329 8 18339921631704357145
11578080 2 13253701659016419849
11607047 403 15473629165287087747
11646440 116 17989214767347911185
11963148 33 18409724093203991251
12011746 2 18412824676868855373
12035758 1 18342744051993047251
12236239 1 17967533476148386116
12403814 3 17676202459541226052
12553582 1 18336813265246210640
12592029 89 18409731742286609331
12788726 201 18272090448599843184
12838862 33 18268127838552335076
13140716 1 18195806495110080155
13402501 40 18272935999143598830
13583140 156 17022913375212548985
13726171 33 17905929042061470892
13862211 1 18413103983240587407
14178342 30 18127128576451860321
14466204 15 18340483361913986025
14790565 3 18410863152431218725
15042514 8 18266459991683788691
15099037 51 18413109489098491143
15131766 46 16155415284346089374
15196674 1 18340204223172221445
15209289 33 18343301470360919661
1601671 61 18411135827003323084
16752209 62 18340199782513757906
16945 1 18340769333662887255
17349148 13 18343579650818178524
17804303 29 18340768246872754568
18681886 176 18410852179222099448
19319366 153 17821722845606532602
19591789 44 18339643317543929895
20028762 73 17988075716336318983
21033648 29 17560785633262805208
21267235 1 18410862065809040097
21279426 13 18198347243259680870
21285901 2 18130239155266089780
21781051 124 18189356687030195907
21859007 373 18042941247425042228
22182313 1 18128562451093862255
2334 1 17763743595602087151
23402539 116 18272363191765245775
23558518 356 17902508525505662886
23559900 14 18272088366157979904
23569943 247 17344367556877527598
283562 15 18271247093048268785
3004659 81 18260832592709862676
3178227 256 18337404802776384657
335352 9 18412262856708221517
3383291 50 18410291449408405723
350125 39 18410011031383675621
352729 6 18269284615395403821
3680242 22 18336831883528726826
3759504 43 18040438819247358667
404807 14 15189420346711957078
4058900 60 17969224439237944321
465052 167 18187088372813315995
474229 33 18411699872474182735
484989 97 18192989542806122063
5104073 3 18269838790778210457
5385378 56 18270973319338056419
559249 180 18336262354423970346
59755656 215 18343019952139338718
6138700 20 18411983520667610366
7226269 152 18202002122673339504
9709674 26 18053660553602474121

>  <PUBCHEM_SHAPE_MULTIPOLES>  (1) 
494.35
11.85
2.98
0.94
4.79
1.32
-0.05
-1.82
0.48
-1.72
-0.22
0.77
0.24
0

>  <PUBCHEM_SHAPE_SELFOVERLAP>  (1) 
1083.224

>  <PUBCHEM_SHAPE_VOLUME>  (1) 
267

>  <PUBCHEM_COORDINATE_TYPE>  (1) 
2
5
10

$$$$
