44109
     RDKit          3D

 24 25  0  0  0  0  0  0  0  0999 V2000
   -1.4627   -2.2894   -0.1123 S   0  0  0  0  0  0  0  0  0  0  0  0
    6.2492    0.8109   -0.0700 S   0  0  0  0  0  0  0  0  0  0  0  0
   -1.2594   -2.8309    1.2252 O   0  0  0  0  0  0  0  0  0  0  0  0
   -1.7572   -3.1978   -1.2124 O   0  0  0  0  0  0  0  0  0  0  0  0
    6.4396    2.1350   -0.6452 O   0  0  0  0  0  0  0  0  0  0  0  0
    6.8692    0.4804    1.2056 O   0  0  0  0  0  0  0  0  0  0  0  0
   -6.4618    1.9554   -1.0933 O   0  0  0  0  0  0  0  0  0  0  0  0
   -6.1697    2.4372    1.1088 O   0  0  0  0  0  0  0  0  0  0  0  0
   -0.1004   -1.3469   -0.5329 N   0  0  0  0  0  0  0  0  0  0  0  0
    6.7094   -0.3626   -1.2236 N   0  0  0  0  0  0  0  0  0  0  0  0
    0.3309   -0.2504    0.3460 C   0  0  0  0  0  0  0  0  0  0  0  0
    1.8066    0.0153    0.2428 C   0  0  0  0  0  0  0  0  0  0  0  0
   -2.7386   -1.0989   -0.0486 C   0  0  0  0  0  0  0  0  0  0  0  0
    4.5346    0.5041    0.0507 C   0  0  0  0  0  0  0  0  0  0  0  0
    2.2752    0.9289   -0.6926 C   0  0  0  0  0  0  0  0  0  0  0  0
    2.6847   -0.6571    1.0834 C   0  0  0  0  0  0  0  0  0  0  0  0
    3.6450    1.1743   -0.7890 C   0  0  0  0  0  0  0  0  0  0  0  0
    4.0544   -0.4116    0.9869 C   0  0  0  0  0  0  0  0  0  0  0  0
   -3.0157   -0.4370    1.1476 C   0  0  0  0  0  0  0  0  0  0  0  0
   -3.4807   -0.8100   -1.1936 C   0  0  0  0  0  0  0  0  0  0  0  0
   -4.0351    0.5137    1.1987 C   0  0  0  0  0  0  0  0  0  0  0  0
   -4.5000    0.1408   -1.1426 C   0  0  0  0  0  0  0  0  0  0  0  0
   -4.7773    0.8026    0.0536 C   0  0  0  0  0  0  0  0  0  0  0  0
   -5.8401    1.7939    0.1070 C   0  0  0  0  0  0  0  0  0  0  0  0
  1  3  2  0
  1  4  2  0
  1  9  1  0
  1 13  1  0
  2  5  2  0
  2  6  2  0
  2 10  1  0
  2 14  1  0
  7 24  1  0
  8 24  2  0
  9 11  1  0
 11 12  1  0
 12 15  2  0
 12 16  1  0
 13 19  2  0
 13 20  1  0
 14 17  2  0
 14 18  1  0
 15 17  1  0
 16 18  2  0
 19 21  1  0
 20 22  2  0
 21 23  2  0
 22 23  1  0
 23 24  1  0
M  END
>  <PUBCHEM_COMPOUND_CID>  (1) 
44109

>  <PUBCHEM_CONFORMER_RMSD>  (1) 
0.8

>  <PUBCHEM_CONFORMER_DIVERSEORDER>  (1) 
1
45
12
8
44
2
42
32
20
25
21
47
17
43
39
23
37
46
11
9
7
33
22
31
26
30
24
18
29
38
36
27
34
19
14
35
6
16
5
4
15
40
48
13
28
10
41
3

>  <PUBCHEM_MMFF94_PARTIAL_CHARGES>  (1) 
36
1 1.45
10 -0.98
11 0.5
12 -0.14
13 -0.01
14 -0.01
15 -0.15
16 -0.15
17 -0.15
18 -0.15
19 -0.15
2 1.45
20 -0.15
21 -0.15
22 -0.15
23 0.09
24 0.63
27 0.42
28 0.15
29 0.15
3 -0.65
30 0.15
31 0.15
32 0.15
33 0.15
34 0.15
35 0.15
36 0.42
37 0.42
38 0.5
4 -0.65
5 -0.65
6 -0.65
7 -0.65
8 -0.57
9 -0.91

>  <PUBCHEM_EFFECTIVE_ROTOR_COUNT>  (1) 
6

>  <PUBCHEM_PHARMACOPHORE_FEATURES>  (1) 
11
1 10 donor
1 3 acceptor
1 4 acceptor
1 5 acceptor
1 6 acceptor
1 7 acceptor
1 8 acceptor
1 9 donor
3 7 8 24 anion
6 12 14 15 16 17 18 rings
6 13 19 20 21 22 23 rings

>  <PUBCHEM_HEAVY_ATOM_COUNT>  (1) 
24

>  <PUBCHEM_ATOM_DEF_STEREO_COUNT>  (1) 
0

>  <PUBCHEM_ATOM_UDEF_STEREO_COUNT>  (1) 
0

>  <PUBCHEM_BOND_DEF_STEREO_COUNT>  (1) 
0

>  <PUBCHEM_BOND_UDEF_STEREO_COUNT>  (1) 
0

>  <PUBCHEM_ISOTOPIC_ATOM_COUNT>  (1) 
0

>  <PUBCHEM_COMPONENT_COUNT>  (1) 
1

>  <PUBCHEM_CACTVS_TAUTO_COUNT>  (1) 
1

>  <PUBCHEM_CONFORMER_ID>  (1) 
0000AC4D00000001

>  <PUBCHEM_MMFF94_ENERGY>  (1) 
31.3781

>  <PUBCHEM_FEATURE_SELFOVERLAP>  (1) 
55.917

>  <PUBCHEM_SHAPE_FINGERPRINT>  (1) 
105312 117 18272934938091654047
11089746 13 18342731957829403960
11796584 16 18131636712398151606
11823591 26 18409159988071983623
12236239 1 18333730251974776802
12788726 201 17988084387321213408
14251764 18 17822008722628925555
14251764 30 11241973680842538781
14931854 50 17560794369754357673
15183329 4 18272374148875781086
15238133 3 17604160280520595140
15439362 3 18057328292797278447
16110190 28 17748831846881066844
167882 2 18058736792667182655
17093844 174 18272086158481213706
17349148 13 12679189340376001606
17780758 139 12540692618289878261
1813 80 8718538467681045475
18222031 100 14117524255575623562
18927931 339 7997980084652922003
19489759 90 17346600793931365362
20281389 69 18335984254837958288
20621476 66 18411421712959172844
20681677 155 18335420205510013962
21054139 6 11095890363016829252
21298829 104 18271246015496897401
21315759 148 13623518031590333154
21756936 100 18334575776253409171
23081809 10 18040991912830811454
23198884 109 18201718483154268423
23559900 14 16773786039154500883
24771293 8 17970626523376885196
270888 7 18339361856217479913
2838139 119 18344142596861838769
300161 21 18343861126227295538
312425 54 15430038717323546769
4015057 19 15123221191081878931
474 4 18337670803086342547
5104073 3 17604704620718521712
5385378 56 18263364702736297227
59682541 52 16630249086962974062
59755656 520 18413102858107206511
6327066 14 18410007707342408181
6328613 192 18337392738087149276
7226269 152 18272373074474853601
9862886 166 13182730464055529197

>  <PUBCHEM_SHAPE_MULTIPOLES>  (1) 
456.43
18.4
2.45
1.29
12.19
1.06
-0.04
-13.57
0.9
-3.09
0.22
-0.35
0.13
-0.92

>  <PUBCHEM_SHAPE_SELFOVERLAP>  (1) 
945.823

>  <PUBCHEM_SHAPE_VOLUME>  (1) 
259.3

>  <PUBCHEM_COORDINATE_TYPE>  (1) 
2
5
10

$$$$
