44107
     RDKit          3D

 21 24  0  0  1  0  0  0  0  0999 V2000
    4.5933   -1.3577    0.1302 O   0  0  0  0  0  0  0  0  0  0  0  0
    4.3317    0.9895    1.5123 O   0  0  0  0  0  0  0  0  0  0  0  0
    2.3098   -0.6058   -0.2841 C   0  0  0  0  0  0  0  0  0  0  0  0
    1.3905    0.4737   -0.3017 C   0  0  0  0  0  0  0  0  0  0  0  0
    3.7944   -0.3397   -0.4664 C   0  0  0  0  0  0  0  0  0  0  0  0
   -0.0140    0.2275   -0.1817 C   0  0  0  0  0  0  0  0  0  0  0  0
   -0.4581   -1.1127   -0.0670 C   0  0  0  0  0  0  0  0  0  0  0  0
    4.2213    1.0275    0.0902 C   0  0  0  0  0  0  0  0  0  0  0  0
   -1.8284   -1.4031    0.0521 C   0  0  0  0  0  0  0  0  0  0  0  0
    1.8325   -1.9152   -0.1868 C   0  0  0  0  0  0  0  0  0  0  0  0
    1.9393    1.8380   -0.4642 C   0  0  0  0  0  0  0  0  0  0  0  0
   -2.7982   -0.3913    0.0667 C   0  0  0  0  0  0  0  0  0  0  0  0
   -1.0119    1.2364   -0.1594 C   0  0  0  0  0  0  0  0  0  0  0  0
    0.4682   -2.1621   -0.0742 C   0  0  0  0  0  0  0  0  0  0  0  0
   -2.3849    0.9492   -0.0394 C   0  0  0  0  0  0  0  0  0  0  0  0
    3.2380    2.0977   -0.2588 C   0  0  0  0  0  0  0  0  0  0  0  0
   -2.2780   -2.8366    0.1692 C   0  0  0  0  0  0  0  0  0  0  0  0
   -4.1673   -0.6846    0.1865 C   0  0  0  0  0  0  0  0  0  0  0  0
   -3.3530    1.9682   -0.0219 C   0  0  0  0  0  0  0  0  0  0  0  0
   -5.1161    0.3376    0.2010 C   0  0  0  0  0  0  0  0  0  0  0  0
   -4.7091    1.6634    0.0972 C   0  0  0  0  0  0  0  0  0  0  0  0
  1  5  1  0
  2  8  1  0
  3  4  2  0
  3  5  1  0
  3 10  1  0
  4  6  1  0
  4 11  1  0
  5  8  1  0
  6  7  2  0
  6 13  1  0
  7  9  1  0
  7 14  1  0
  8 16  1  0
  9 12  2  0
  9 17  1  0
 10 14  2  0
 11 16  2  0
 12 15  1  0
 12 18  1  0
 13 15  2  0
 15 19  1  0
 18 20  2  0
 19 21  2  0
 20 21  1  0
M  END
>  <PUBCHEM_COMPOUND_CID>  (1) 
44107

>  <PUBCHEM_CONFORMER_RMSD>  (1) 
0.6

>  <PUBCHEM_CONFORMER_DIVERSEORDER>  (1) 
3
1
2

>  <PUBCHEM_MMFF94_PARTIAL_CHARGES>  (1) 
28
1 -0.68
10 -0.15
11 -0.18
13 -0.15
14 -0.15
16 -0.29
17 0.14
18 -0.15
19 -0.15
2 -0.68
20 -0.15
21 -0.15
24 0.15
25 0.15
26 0.15
27 0.15
28 0.15
3 -0.14
32 0.15
33 0.15
34 0.4
35 0.4
36 0.15
37 0.15
4 0.03
5 0.42
8 0.42
9 -0.14

>  <PUBCHEM_EFFECTIVE_ROTOR_COUNT>  (1) 
0.4

>  <PUBCHEM_PHARMACOPHORE_FEATURES>  (1) 
8
1 1 acceptor
1 1 donor
1 2 acceptor
1 2 donor
6 12 15 18 19 20 21 rings
6 3 4 5 8 11 16 rings
6 3 4 6 7 10 14 rings
6 6 7 9 12 13 15 rings

>  <PUBCHEM_HEAVY_ATOM_COUNT>  (1) 
21

>  <PUBCHEM_ATOM_DEF_STEREO_COUNT>  (1) 
0

>  <PUBCHEM_ATOM_UDEF_STEREO_COUNT>  (1) 
2

>  <PUBCHEM_BOND_DEF_STEREO_COUNT>  (1) 
0

>  <PUBCHEM_BOND_UDEF_STEREO_COUNT>  (1) 
0

>  <PUBCHEM_ISOTOPIC_ATOM_COUNT>  (1) 
0

>  <PUBCHEM_COMPONENT_COUNT>  (1) 
1

>  <PUBCHEM_CACTVS_TAUTO_COUNT>  (1) 
1

>  <PUBCHEM_CONFORMER_ID>  (1) 
0000AC4B00000003

>  <PUBCHEM_MMFF94_ENERGY>  (1) 
77.673

>  <PUBCHEM_FEATURE_SELFOVERLAP>  (1) 
40.676

>  <PUBCHEM_SHAPE_FINGERPRINT>  (1) 
10319926 262 18340472457540336298
10411042 1 17040918664846144759
10608611 8 18410857667799491277
10616163 171 18338521966171360911
10646746 165 18411704296264013494
10967382 1 18410014308005314047
11132069 177 18410011069563049449
11370993 70 18410854356580042575
11578080 2 13541641738375840360
12403259 415 18336543833157825316
12403814 3 17821723949312634149
12592029 89 18334014969034721770
12633257 1 18186791496353017536
13140716 1 18409164441652330866
13675066 3 18341896315637685954
138480 1 17689437083695408143
15042514 8 18263933309900229435
15196674 1 18410294717814317479
15256400 18 18410293579785406860
15375358 24 18411983563611846111
15442244 35 18409166597810374382
15536298 74 18341898467421589126
16945 1 18409737235386204879
17349148 13 18341325634758949597
17492 89 18336549442517424234
1813 80 16805042917339099852
18186145 218 18200888300251313260
19591789 44 18192151482215240686
200 152 18131631179941658197
21065198 57 18410294739463220682
21267235 1 18337684043795328231
21421861 104 17750504105904775322
21859007 373 17751335327547069245
23227448 37 18412545444250344807
23402539 116 18342451539583310533
23557571 272 18199483227449294335
23558518 356 17899136301820588035
23559900 14 18342741806416052654
3004659 81 18188502255633295238
335352 9 18337955589008000630
34934 24 18410570695349232583
350125 39 18409172077856581668
351380 180 18410573989657583933
3545911 37 18413112761853131476
3680242 22 18335702685144860992
4214541 1 18410295808989387093
474 4 17894918476506284940
495365 180 17489299807178666682
5104073 3 18410294713503559195
58807428 26 18261100877277778042
59755656 215 18341056229241825286
633830 44 17603870043800122170
69090 78 18411136939769182927
7364860 26 18269559351368382942
7808743 9 18123187076843871616
9709674 26 18412553110572133551

>  <PUBCHEM_SHAPE_MULTIPOLES>  (1) 
420.43
9.7
2.62
0.73
0.8
0.72
0.11
-3.17
1.24
0.33
-0.04
-0.42
-0.1
0.2

>  <PUBCHEM_SHAPE_SELFOVERLAP>  (1) 
952.097

>  <PUBCHEM_SHAPE_VOLUME>  (1) 
220.8

>  <PUBCHEM_COORDINATE_TYPE>  (1) 
2
5
10

$$$$
