44116
     RDKit          3D

 15 15  0  0  1  0  0  0  0  0999 V2000
    1.3259   -2.6718    0.1005 Cl  0  0  0  0  0  0  0  0  0  0  0  0
    4.2333   -1.3501   -0.8593 Cl  0  0  0  0  0  0  0  0  0  0  0  0
    4.1562    2.0637   -0.5728 Cl  0  0  0  0  0  0  0  0  0  0  0  0
    1.4076    1.5532    0.3903 S   0  0  0  0  0  0  0  0  0  0  0  0
   -0.8810    0.8231    1.9714 O   0  0  0  0  0  0  0  0  0  0  0  0
   -3.0025   -0.2637    0.3569 N   0  0  0  0  0  0  0  0  0  0  0  0
   -1.6463   -0.0992   -0.1427 C   0  0  0  0  0  0  0  0  0  0  0  0
   -0.6287   -0.1922    1.0008 C   0  0  0  0  0  0  0  0  0  0  0  0
   -3.9712   -0.1724   -0.7347 C   0  0  0  0  0  0  0  0  0  0  0  0
    0.7878   -0.0232    0.4971 C   0  0  0  0  0  0  0  0  0  0  0  0
   -3.8638    1.1844   -1.4250 C   0  0  0  0  0  0  0  0  0  0  0  0
   -5.3766   -0.3987   -0.1866 C   0  0  0  0  0  0  0  0  0  0  0  0
    1.6595   -0.9877    0.1064 C   0  0  0  0  0  0  0  0  0  0  0  0
    2.9003   -0.4196   -0.3031 C   0  0  0  0  0  0  0  0  0  0  0  0
    2.8996    0.9541   -0.1992 C   0  0  0  0  0  0  0  0  0  0  0  0
  1 13  1  0
  2 14  1  0
  3 15  1  0
  4 10  1  0
  4 15  1  0
  5  8  1  0
  6  7  1  0
  6  9  1  0
  7  8  1  0
  8 10  1  0
  9 11  1  0
  9 12  1  0
 10 13  2  0
 13 14  1  0
 14 15  2  0
M  END
>  <PUBCHEM_COMPOUND_CID>  (1) 
44116

>  <PUBCHEM_CONFORMER_RMSD>  (1) 
0.6

>  <PUBCHEM_CONFORMER_DIVERSEORDER>  (1) 
1
33
24
45
18
25
23
51
41
40
35
32
44
49
6
15
46
11
36
4
43
19
37
21
38
26
22
47
12
14
13
16
48
34
7
2
42
17
20
31
5
28
9
30
50
27
10
29
39
3
8

>  <PUBCHEM_MMFF94_PARTIAL_CHARGES>  (1) 
15
1 -0.12
10 -0.14
13 0.12
14 0.12
15 0.16
2 -0.12
20 0.36
27 0.4
3 -0.12
4 -0.08
5 -0.68
6 -0.9
7 0.27
8 0.46
9 0.27

>  <PUBCHEM_EFFECTIVE_ROTOR_COUNT>  (1) 
4

>  <PUBCHEM_PHARMACOPHORE_FEATURES>  (1) 
6
1 5 acceptor
1 5 donor
1 6 cation
1 6 donor
3 9 11 12 hydrophobe
5 4 10 13 14 15 rings

>  <PUBCHEM_HEAVY_ATOM_COUNT>  (1) 
15

>  <PUBCHEM_ATOM_DEF_STEREO_COUNT>  (1) 
0

>  <PUBCHEM_ATOM_UDEF_STEREO_COUNT>  (1) 
1

>  <PUBCHEM_BOND_DEF_STEREO_COUNT>  (1) 
0

>  <PUBCHEM_BOND_UDEF_STEREO_COUNT>  (1) 
0

>  <PUBCHEM_ISOTOPIC_ATOM_COUNT>  (1) 
0

>  <PUBCHEM_COMPONENT_COUNT>  (1) 
1

>  <PUBCHEM_CACTVS_TAUTO_COUNT>  (1) 
1

>  <PUBCHEM_CONFORMER_ID>  (1) 
0000AC5400000001

>  <PUBCHEM_MMFF94_ENERGY>  (1) 
10.3408

>  <PUBCHEM_FEATURE_SELFOVERLAP>  (1) 
30.448

>  <PUBCHEM_SHAPE_FINGERPRINT>  (1) 
10498660 4 17168971315073773157
11287383 113 18187648046012690875
11471102 20 18411138047749393420
11543360 7 18335978748837331055
11715629 250 17749659740850951573
12616999 72 18411978078817322259
12730499 353 18187089451261888811
13081056 2 18113898264840644101
13760787 5 18130799957392776211
14251717 144 18413108355522673310
14252887 29 10879993558215790990
14415576 193 18260266347661944140
16752209 62 16916781817604484745
16945 1 18263945258456633186
18186145 218 18407760322311731587
18915474 69 17632289103510476879
200 152 18060419079768964058
20281475 54 17489581286387073639
20645477 70 18343024376129707326
20671657 53 18272373022992930172
221357 26 18408879616875897493
23402539 116 17632018542034953042
23402655 69 18413387644255600389
23557571 272 16805908245964842419
23559900 14 17987798648407074960
23598291 2 17916321462483716960
2748010 2 18121807129726634338
3060560 45 18409727365841554686
4047638 21 17676487263254669272
42 15 10303820895080626477
5281201 14 18334857199463522669
57096353 35 17846225474646877984
603831 33 17846780702074858969
81539 233 18333447664322149854

>  <PUBCHEM_SHAPE_MULTIPOLES>  (1) 
307.3
9.5
2.06
1.17
9.06
0.5
0.23
-1.16
-3.89
-2.49
-0.23
0.49
-0.27
0.44

>  <PUBCHEM_SHAPE_SELFOVERLAP>  (1) 
579.462

>  <PUBCHEM_SHAPE_VOLUME>  (1) 
194.7

>  <PUBCHEM_COORDINATE_TYPE>  (1) 
2
5
10

$$$$
