44119
     RDKit          3D

 23 24  0  0  1  0  0  0  0  0999 V2000
    5.3580    1.7918    0.8527 Cl  0  0  0  0  0  0  0  0  0  0  0  0
    0.7662   -1.6063   -1.7871 S   0  0  0  0  0  0  0  0  0  0  0  0
   -4.0442    0.1056   -0.2788 O   0  0  0  0  0  0  0  0  0  0  0  0
   -1.7832    3.5272    0.8483 N   0  0  0  0  0  0  0  0  0  0  0  0
   -3.1361   -0.6380   -2.2534 N   0  0  0  0  0  0  0  0  0  0  0  0
   -1.6234   -0.0858   -0.4357 C   0  0  0  0  0  0  0  0  0  0  0  0
   -1.4901    1.1133    0.5282 C   0  0  0  0  0  0  0  0  0  0  0  0
   -1.9449    2.4325   -0.1025 C   0  0  0  0  0  0  0  0  0  0  0  0
   -1.1882   -1.4001    0.1897 C   0  0  0  0  0  0  0  0  0  0  0  0
   -3.0592   -0.1907   -0.9510 C   0  0  0  0  0  0  0  0  0  0  0  0
   -0.1443   -2.1347   -0.3412 C   0  0  0  0  0  0  0  0  0  0  0  0
   -1.8810   -1.8257    1.3097 C   0  0  0  0  0  0  0  0  0  0  0  0
   -2.1775    4.7991    0.2407 C   0  0  0  0  0  0  0  0  0  0  0  0
   -0.4001    3.5973    1.3221 C   0  0  0  0  0  0  0  0  0  0  0  0
    0.2205   -3.3357    0.2676 C   0  0  0  0  0  0  0  0  0  0  0  0
   -1.5162   -3.0268    1.9182 C   0  0  0  0  0  0  0  0  0  0  0  0
   -0.4656   -3.7816    1.3972 C   0  0  0  0  0  0  0  0  0  0  0  0
    2.0692   -0.6420   -1.0381 C   0  0  0  0  0  0  0  0  0  0  0  0
    2.9459   -1.2418   -0.1370 C   0  0  0  0  0  0  0  0  0  0  0  0
    2.2052    0.7073   -1.3571 C   0  0  0  0  0  0  0  0  0  0  0  0
    3.9636   -0.4885    0.4485 C   0  0  0  0  0  0  0  0  0  0  0  0
    3.2229    1.4607   -0.7718 C   0  0  0  0  0  0  0  0  0  0  0  0
    4.1023    0.8627    0.1310 C   0  0  0  0  0  0  0  0  0  0  0  0
  1 23  1  0
  2 11  1  0
  2 18  1  0
  3 10  2  0
  4  8  1  0
  4 13  1  0
  4 14  1  0
  5 10  1  0
  6  7  1  0
  6  9  1  0
  6 10  1  0
  7  8  1  0
  9 11  2  0
  9 12  1  0
 11 15  1  0
 12 16  2  0
 15 17  2  0
 16 17  1  0
 18 19  2  0
 18 20  1  0
 19 21  1  0
 20 22  2  0
 21 23  2  0
 22 23  1  0
M  END
>  <PUBCHEM_COMPOUND_CID>  (1) 
44119

>  <PUBCHEM_CONFORMER_RMSD>  (1) 
0.8

>  <PUBCHEM_CONFORMER_DIVERSEORDER>  (1) 
1
193
161
156
96
130
162
56
23
93
94
48
37
26
150
190
49
188
140
191
52
142
31
154
195
173
86
183
91
21
200
51
204
95
210
132
98
174
97
61
39
184
19
169
112
80
76
208
32
44
43
128
67
187
159
106
28
217
181
216
167
33
90
34
85
136
139
72
121
202
99
141
165
158
134
109
20
218
14
11
24
7
125
22
73
137
50
45
41
168
104
83
108
185
46
66
107
189
15
122
82
114
153
198
220
113
152
201
64
38
42
75
110
170
29
16
115
155
4
199
35
88
84
172
13
105
120
149
182
211
144
147
69
157
126
117
207
65
74
87
59
92
197
127
116
102
47
138
192
219
175
163
131
180
186
100
118
27
10
206
81
70
194
60
58
212
133
143
9
171
111
177
129
57
160
205
17
135
203
89
151
12
148
53
196
166
54
5
179
145
40
124
63
55
6
178
176
119
214
3
78
30
68
209
146
103
8
164
71
123
25
77
36
18
215
79
213
221
101
2
62

>  <PUBCHEM_MMFF94_PARTIAL_CHARGES>  (1) 
32
1 -0.18
10 0.57
11 0.1
12 -0.15
13 0.27
14 0.27
15 -0.15
16 -0.15
17 -0.15
18 0.1
19 -0.15
2 -0.2
20 -0.15
21 -0.15
22 -0.15
23 0.18
29 0.15
3 -0.57
36 0.15
37 0.15
38 0.15
39 0.37
4 -0.81
40 0.37
41 0.15
42 0.15
43 0.15
44 0.15
5 -0.8
6 0.2
8 0.27
9 -0.14

>  <PUBCHEM_EFFECTIVE_ROTOR_COUNT>  (1) 
7

>  <PUBCHEM_PHARMACOPHORE_FEATURES>  (1) 
5
1 3 acceptor
1 4 cation
1 5 donor
6 18 19 20 21 22 23 rings
6 9 11 12 15 16 17 rings

>  <PUBCHEM_HEAVY_ATOM_COUNT>  (1) 
23

>  <PUBCHEM_ATOM_DEF_STEREO_COUNT>  (1) 
0

>  <PUBCHEM_ATOM_UDEF_STEREO_COUNT>  (1) 
1

>  <PUBCHEM_BOND_DEF_STEREO_COUNT>  (1) 
0

>  <PUBCHEM_BOND_UDEF_STEREO_COUNT>  (1) 
0

>  <PUBCHEM_ISOTOPIC_ATOM_COUNT>  (1) 
0

>  <PUBCHEM_COMPONENT_COUNT>  (1) 
1

>  <PUBCHEM_CACTVS_TAUTO_COUNT>  (1) 
2

>  <PUBCHEM_CONFORMER_ID>  (1) 
0000AC5700000001

>  <PUBCHEM_MMFF94_ENERGY>  (1) 
64.9138

>  <PUBCHEM_FEATURE_SELFOVERLAP>  (1) 
25.371

>  <PUBCHEM_SHAPE_FINGERPRINT>  (1) 
10006869 2 17981331093332036513
10366900 7 18271800285352522592
11221954 11 18200042715975300132
11370993 70 18114450210935067038
11578080 2 16887211864998119511
12035758 1 18120948449652451987
12107698 1 18055917584913355279
12633257 1 17905069266654186762
12788726 201 18412543210609160696
13140716 1 18049447238367744164
13149001 5 17976239559540822733
14787075 74 18408603695465863311
15420108 30 17261293809832212350
17492 54 17986933314906077703
17780758 139 18043791282446489320
192875 21 18410002222173136660
20510252 161 18334585680131560307
20600515 1 18189063160137142205
23419403 2 17542498788157129703
23557571 272 18192450755700170830
23558518 356 18266467511675151861
352729 6 18261684747753400614
4340502 62 18041288665090797871
474 4 18045220431986181031
57124632 79 17759523266332958816
5895379 119 17050472359490341831
69474 34 17834412484953495939
7832392 63 17547573678099978535
90316 7 18122361326019884794
9981440 41 18412818097406758714

>  <PUBCHEM_SHAPE_MULTIPOLES>  (1) 
463.22
7.03
5.47
1.66
8.75
4.34
-0.26
3.22
0.09
-4.17
2.91
-0.62
-0.76
0.66

>  <PUBCHEM_SHAPE_SELFOVERLAP>  (1) 
946.216

>  <PUBCHEM_SHAPE_VOLUME>  (1) 
270.5

>  <PUBCHEM_COORDINATE_TYPE>  (1) 
2
5
10

$$$$
