4411
     RDKit          2D

 22 23  0  0  1  0  0  0  0  0999 V2000
    0.0000    0.0000    0.0000 O   0  0  0  0  0  0  0  0  0  0  0  0
    0.0000    0.0000    0.0000 O   0  0  0  0  0  0  0  0  0  0  0  0
    0.0000    0.0000    0.0000 O   0  0  0  0  0  0  0  0  0  0  0  0
    0.0000    0.0000    0.0000 O   0  0  0  0  0  0  0  0  0  0  0  0
    0.0000    0.0000    0.0000 N   0  0  0  0  0  0  0  0  0  0  0  0
    0.0000    0.0000    0.0000 C   0  0  0  0  0  0  0  0  0  0  0  0
    0.0000    0.0000    0.0000 C   0  0  0  0  0  0  0  0  0  0  0  0
    0.0000    0.0000    0.0000 C   0  0  0  0  0  0  0  0  0  0  0  0
    0.0000    0.0000    0.0000 C   0  0  0  0  0  0  0  0  0  0  0  0
    0.0000    0.0000    0.0000 C   0  0  0  0  0  0  0  0  0  0  0  0
    0.0000    0.0000    0.0000 C   0  0  0  0  0  0  0  0  0  0  0  0
    0.0000    0.0000    0.0000 C   0  0  0  0  0  0  0  0  0  0  0  0
    0.0000    0.0000    0.0000 C   0  0  0  0  0  0  0  0  0  0  0  0
    0.0000    0.0000    0.0000 C   0  0  0  0  0  0  0  0  0  0  0  0
    0.0000    0.0000    0.0000 C   0  0  0  0  0  0  0  0  0  0  0  0
    0.0000    0.0000    0.0000 C   0  0  0  0  0  0  0  0  0  0  0  0
    0.0000    0.0000    0.0000 C   0  0  0  0  0  0  0  0  0  0  0  0
    0.0000    0.0000    0.0000 C   0  0  0  0  0  0  0  0  0  0  0  0
    0.0000    0.0000    0.0000 C   0  0  0  0  0  0  0  0  0  0  0  0
    0.0000    0.0000    0.0000 C   0  0  0  0  0  0  0  0  0  0  0  0
    0.0000    0.0000    0.0000 C   0  0  0  0  0  0  0  0  0  0  0  0
    0.0000    0.0000    0.0000 C   0  0  0  0  0  0  0  0  0  0  0  0
  1  6  1  0
  2  7  1  0
  3 12  1  0
  3 17  1  0
  4 15  1  0
  5 13  1  0
  5 16  1  0
  6  7  1  0
  6  8  1  0
  7  9  1  0
  8 10  1  0
  9 11  1  0
 10 11  2  0
 10 12  1  0
 11 14  1  0
 12 18  2  0
 13 20  1  0
 13 21  1  0
 13 22  1  0
 14 19  2  0
 15 16  1  0
 15 17  1  0
 18 19  1  0
M  END
>  <PUBCHEM_COMPOUND_CID>  (1) 
4411

>  <PUBCHEM_CONFORMER_RMSD>  (1) 
0.8

>  <PUBCHEM_CONFORMER_DIVERSEORDER>  (1) 
16
125
102
203
243
173
184
183
246
235
200
50
160
3
117
202
233
237
55
249
73
248
54
22
64
90
207
179
106
216
32
212
228
177
257
131
156
140
136
219
91
170
24
56
214
172
42
130
48
41
96
92
169
242
43
85
254
229
186
252
103
23
193
8
5
174
82
113
211
162
152
78
101
236
185
46
144
84
149
147
72
187
166
39
128
188
44
218
100
224
190
115
159
198
178
255
206
245
122
196
189
205
111
176
28
171
155
199
197
146
52
232
89
93
129
239
20
244
256
37
6
47
227
126
148
25
143
153
27
13
158
45
137
86
12
123
201
182
240
217
134
70
97
69
7
251
62
220
167
164
31
181
51
195
135
223
110
80
105
165
209
118
1
120
151
150
208
124
35
60
238
210
30
168
250
71
180
114
98
133
175
59
247
226
138
49
127
231
67
213
81
65
121
33
15
108
4
145
230
53
132
63
77
157
161
141
119
76
68
253
29
38
215
74
163
34
94
88
79
87
104
192
17
19
221
191
107
116
9
58
99
10
66
11
83
142
18
36
95
26
222
112
57
75
139
21
40
2
61
234
225
241
194
14
154
109
204

>  <PUBCHEM_MMFF94_PARTIAL_CHARGES>  (1) 
26
1 -0.68
10 -0.14
11 -0.14
12 0.08
13 0.27
14 -0.15
15 0.28
16 0.27
17 0.28
18 -0.15
19 -0.15
2 -0.68
29 0.15
3 -0.36
33 0.36
36 0.15
37 0.15
38 0.4
39 0.4
4 -0.68
49 0.4
5 -0.9
6 0.28
7 0.28
8 0.14
9 0.14

>  <PUBCHEM_EFFECTIVE_ROTOR_COUNT>  (1) 
6.8

>  <PUBCHEM_PHARMACOPHORE_FEATURES>  (1) 
12
1 1 acceptor
1 1 donor
1 2 acceptor
1 2 donor
1 3 acceptor
1 4 acceptor
1 4 donor
1 5 cation
1 5 donor
4 13 20 21 22 hydrophobe
6 10 11 12 14 18 19 rings
6 6 7 8 9 10 11 rings

>  <PUBCHEM_HEAVY_ATOM_COUNT>  (1) 
22

>  <PUBCHEM_ATOM_DEF_STEREO_COUNT>  (1) 
0

>  <PUBCHEM_ATOM_UDEF_STEREO_COUNT>  (1) 
3

>  <PUBCHEM_BOND_DEF_STEREO_COUNT>  (1) 
0

>  <PUBCHEM_BOND_UDEF_STEREO_COUNT>  (1) 
0

>  <PUBCHEM_ISOTOPIC_ATOM_COUNT>  (1) 
0

>  <PUBCHEM_COMPONENT_COUNT>  (1) 
1

>  <PUBCHEM_CACTVS_TAUTO_COUNT>  (1) 
1

$$$$
