44127
     RDKit          3D

 24 26  0  0  1  0  0  0  0  0999 V2000
   -5.9314   -2.2476    0.8937 Cl  0  0  0  0  0  0  0  0  0  0  0  0
   -1.4793    1.3347   -1.8058 S   0  0  0  0  0  0  0  0  0  0  0  0
   -0.8664   -1.6826    1.6541 O   0  0  0  0  0  0  0  0  0  0  0  0
    5.2907   -1.1902   -0.4582 N   0  0  0  0  0  0  0  0  0  0  0  0
    2.8346   -0.7951   -0.3099 C   0  0  0  0  0  0  0  0  0  0  0  0
    1.5509   -1.2219    0.4221 C   0  0  0  0  0  0  0  0  0  0  0  0
    0.3107   -0.4277   -0.0155 C   0  0  0  0  0  0  0  0  0  0  0  0
    4.0482   -1.6094    0.1824 C   0  0  0  0  0  0  0  0  0  0  0  0
    0.3847    1.0649    0.2483 C   0  0  0  0  0  0  0  0  0  0  0  0
    2.7075   -0.9577   -1.8288 C   0  0  0  0  0  0  0  0  0  0  0  0
   -0.9457   -0.9885    0.6393 C   0  0  0  0  0  0  0  0  0  0  0  0
   -0.4258    1.9380   -0.5011 C   0  0  0  0  0  0  0  0  0  0  0  0
   -2.3073   -0.6915    0.0708 C   0  0  0  0  0  0  0  0  0  0  0  0
    1.1899    1.6094    1.2625 C   0  0  0  0  0  0  0  0  0  0  0  0
   -2.6099    0.2539   -0.9315 C   0  0  0  0  0  0  0  0  0  0  0  0
    6.4084   -2.0186   -0.0038 C   0  0  0  0  0  0  0  0  0  0  0  0
    5.5600    0.2219   -0.1838 C   0  0  0  0  0  0  0  0  0  0  0  0
   -0.3931    3.3187   -0.2585 C   0  0  0  0  0  0  0  0  0  0  0  0
   -3.3593   -1.4537    0.6231 C   0  0  0  0  0  0  0  0  0  0  0  0
    1.2123    2.9845    1.5039 C   0  0  0  0  0  0  0  0  0  0  0  0
    0.4240    3.8389    0.7420 C   0  0  0  0  0  0  0  0  0  0  0  0
   -3.9513    0.3898   -1.3506 C   0  0  0  0  0  0  0  0  0  0  0  0
   -4.6778   -1.2964    0.1972 C   0  0  0  0  0  0  0  0  0  0  0  0
   -4.9745   -0.3737   -0.7920 C   0  0  0  0  0  0  0  0  0  0  0  0
  1 23  1  0
  2 12  1  0
  2 15  1  0
  3 11  2  0
  4  8  1  0
  4 16  1  0
  4 17  1  0
  5  6  1  0
  5  8  1  0
  5 10  1  0
  6  7  1  0
  7  9  1  0
  7 11  1  0
  9 12  2  0
  9 14  1  0
 11 13  1  0
 12 18  1  0
 13 15  2  0
 13 19  1  0
 14 20  2  0
 15 22  1  0
 18 21  2  0
 19 23  2  0
 20 21  1  0
 22 24  2  0
 23 24  1  0
M  END
>  <PUBCHEM_COMPOUND_CID>  (1) 
44127

>  <PUBCHEM_CONFORMER_RMSD>  (1) 
0.8

>  <PUBCHEM_CONFORMER_DIVERSEORDER>  (1) 
1
12
13
10
14
7
2
8
5
17
9
11
6
4
3
16
15

>  <PUBCHEM_MMFF94_PARTIAL_CHARGES>  (1) 
28
1 -0.18
11 0.42
12 0.1
13 0.09
14 -0.15
15 0.1
16 0.27
17 0.27
18 -0.15
19 -0.15
2 -0.2
20 -0.15
21 -0.15
22 -0.15
23 0.18
24 -0.15
3 -0.57
34 0.15
4 -0.81
41 0.15
42 0.15
43 0.15
44 0.15
45 0.15
46 0.15
7 0.2
8 0.27
9 -0.14

>  <PUBCHEM_EFFECTIVE_ROTOR_COUNT>  (1) 
4.4

>  <PUBCHEM_PHARMACOPHORE_FEATURES>  (1) 
6
1 10 hydrophobe
1 3 acceptor
1 4 cation
6 13 15 19 22 23 24 rings
6 9 12 14 18 20 21 rings
7 2 7 9 11 12 13 15 rings

>  <PUBCHEM_HEAVY_ATOM_COUNT>  (1) 
24

>  <PUBCHEM_ATOM_DEF_STEREO_COUNT>  (1) 
0

>  <PUBCHEM_ATOM_UDEF_STEREO_COUNT>  (1) 
2

>  <PUBCHEM_BOND_DEF_STEREO_COUNT>  (1) 
0

>  <PUBCHEM_BOND_UDEF_STEREO_COUNT>  (1) 
0

>  <PUBCHEM_ISOTOPIC_ATOM_COUNT>  (1) 
0

>  <PUBCHEM_COMPONENT_COUNT>  (1) 
1

>  <PUBCHEM_CACTVS_TAUTO_COUNT>  (1) 
2

>  <PUBCHEM_CONFORMER_ID>  (1) 
0000AC5F00000001

>  <PUBCHEM_MMFF94_ENERGY>  (1) 
78.505

>  <PUBCHEM_FEATURE_SELFOVERLAP>  (1) 
30.458

>  <PUBCHEM_SHAPE_FINGERPRINT>  (1) 
10764073 3 13109031187435395100
12035758 1 18267292308794613144
12166972 35 17894355471308957454
12236239 1 15502367920180867446
12516196 113 18413389847595097562
12788726 201 18264201414253221482
13134695 92 18271524294563927813
13540713 4 18116983576726663925
13911987 19 18340499945125289230
14170010 4 18271245048875242851
14347329 18 16662587902207186669
14347332 77 18126008166156897486
14790565 3 17404583277545725633
14840074 17 17561361820717129388
15527383 91 18273216408936660841
15927050 60 17623288686489196004
17357779 13 18272079470737124552
17492 89 18052815038400145183
17980427 23 17274557472275477985
1813 80 17775016673367653380
18785283 64 18121492724608275144
20600515 1 18264793028485826334
20832881 197 18410014338571284089
21041028 32 18202004330692938777
21049683 271 18263935499747903556
21279426 13 18408597050376165149
22182313 1 18192967465777291701
23175994 123 18412826884656196821
23352939 185 18202565081580633984
23402539 116 18338798914252450606
23419403 2 18338216250388916404
23557571 272 18270400469558429182
23558518 356 17903652786867265866
23559900 14 17968373576262696671
23566358 27 18052533567559516455
2748010 2 17897145009728792989
283562 15 18264211314105352826
329604 57 18409168801255204500
5171179 24 18130771365717197376
5283173 99 18187922825067101404
5385378 56 18054793054863995601
59755656 520 17760088411014200900
6669772 16 17981042239496392876
6823239 73 18187919642654369745
7495541 125 18337398252613998291
81228 2 18125458414062495984
84936 31 17845086453625385325

>  <PUBCHEM_SHAPE_MULTIPOLES>  (1) 
488.78
11.52
3.49
1.43
5.26
3.76
-0.24
-11.75
-0.86
0.81
1.21
-0.44
0.31
1.78

>  <PUBCHEM_SHAPE_SELFOVERLAP>  (1) 
1017.168

>  <PUBCHEM_SHAPE_VOLUME>  (1) 
279.6

>  <PUBCHEM_COORDINATE_TYPE>  (1) 
2
5
10

$$$$
