44123
     RDKit          3D

 22 24  0  0  1  0  0  0  0  0999 V2000
    5.4857    2.0455   -0.9414 Cl  0  0  0  0  0  0  0  0  0  0  0  0
    0.9730   -1.4126    1.8186 S   0  0  0  0  0  0  0  0  0  0  0  0
    0.3798    1.7119   -1.5483 O   0  0  0  0  0  0  0  0  0  0  0  0
   -4.3899    1.6999    0.1451 N   0  0  0  0  0  0  0  0  0  0  0  0
   -0.7965    0.4650    0.1279 C   0  0  0  0  0  0  0  0  0  0  0  0
   -2.0156    1.3195   -0.2511 C   0  0  0  0  0  0  0  0  0  0  0  0
   -0.9407   -1.0164   -0.1683 C   0  0  0  0  0  0  0  0  0  0  0  0
   -3.2442    0.8863    0.5340 C   0  0  0  0  0  0  0  0  0  0  0  0
    0.4615    0.9901   -0.5533 C   0  0  0  0  0  0  0  0  0  0  0  0
   -0.1452   -1.9402    0.5352 C   0  0  0  0  0  0  0  0  0  0  0  0
    1.8264    0.6229   -0.0362 C   0  0  0  0  0  0  0  0  0  0  0  0
   -1.7984   -1.5024   -1.1690 C   0  0  0  0  0  0  0  0  0  0  0  0
    2.1204   -0.3590    0.9330 C   0  0  0  0  0  0  0  0  0  0  0  0
   -0.2445   -3.3123    0.2633 C   0  0  0  0  0  0  0  0  0  0  0  0
    2.8919    1.3543   -0.6043 C   0  0  0  0  0  0  0  0  0  0  0  0
   -1.8870   -2.8694   -1.4400 C   0  0  0  0  0  0  0  0  0  0  0  0
   -4.1462    3.1115    0.4476 C   0  0  0  0  0  0  0  0  0  0  0  0
   -5.6035    1.2382    0.8213 C   0  0  0  0  0  0  0  0  0  0  0  0
   -1.1134   -3.7740   -0.7222 C   0  0  0  0  0  0  0  0  0  0  0  0
    3.4673   -0.5616    1.3043 C   0  0  0  0  0  0  0  0  0  0  0  0
    4.2154    1.1309   -0.2265 C   0  0  0  0  0  0  0  0  0  0  0  0
    4.5039    0.1720    0.7303 C   0  0  0  0  0  0  0  0  0  0  0  0
  1 21  1  0
  2 10  1  0
  2 13  1  0
  3  9  2  0
  4  8  1  0
  4 17  1  0
  4 18  1  0
  5  6  1  0
  5  7  1  0
  5  9  1  0
  6  8  1  0
  7 10  2  0
  7 12  1  0
  9 11  1  0
 10 14  1  0
 11 13  2  0
 11 15  1  0
 12 16  2  0
 13 20  1  0
 14 19  2  0
 15 21  2  0
 16 19  1  0
 20 22  2  0
 21 22  1  0
M  END
>  <PUBCHEM_COMPOUND_CID>  (1) 
44123

>  <PUBCHEM_CONFORMER_RMSD>  (1) 
0.6

>  <PUBCHEM_CONFORMER_DIVERSEORDER>  (1) 
1
6
14
2
21
10
9
4
12
11
18
7
16
13
19
5
15
3
17
8
20

>  <PUBCHEM_MMFF94_PARTIAL_CHARGES>  (1) 
28
1 -0.18
10 0.1
11 0.09
12 -0.15
13 0.1
14 -0.15
15 -0.15
16 -0.15
17 0.27
18 0.27
19 -0.15
2 -0.2
20 -0.15
21 0.18
22 -0.15
28 0.15
29 0.15
3 -0.57
30 0.15
31 0.15
38 0.15
39 0.15
4 -0.81
40 0.15
5 0.2
7 -0.14
8 0.27
9 0.42

>  <PUBCHEM_EFFECTIVE_ROTOR_COUNT>  (1) 
3.4

>  <PUBCHEM_PHARMACOPHORE_FEATURES>  (1) 
5
1 3 acceptor
1 4 cation
6 11 13 15 20 21 22 rings
6 7 10 12 14 16 19 rings
7 2 5 7 9 10 11 13 rings

>  <PUBCHEM_HEAVY_ATOM_COUNT>  (1) 
22

>  <PUBCHEM_ATOM_DEF_STEREO_COUNT>  (1) 
0

>  <PUBCHEM_ATOM_UDEF_STEREO_COUNT>  (1) 
1

>  <PUBCHEM_BOND_DEF_STEREO_COUNT>  (1) 
0

>  <PUBCHEM_BOND_UDEF_STEREO_COUNT>  (1) 
0

>  <PUBCHEM_ISOTOPIC_ATOM_COUNT>  (1) 
0

>  <PUBCHEM_COMPONENT_COUNT>  (1) 
1

>  <PUBCHEM_CACTVS_TAUTO_COUNT>  (1) 
2

>  <PUBCHEM_CONFORMER_ID>  (1) 
0000AC5B00000001

>  <PUBCHEM_MMFF94_ENERGY>  (1) 
72.9792

>  <PUBCHEM_FEATURE_SELFOVERLAP>  (1) 
25.384

>  <PUBCHEM_SHAPE_FINGERPRINT>  (1) 
10382601 240 18042407919807222313
10493431 412 18408322194096895376
1100329 8 18339363092472144689
11115154 58 17621582244501677087
12422481 6 17972024843244641825
12553582 1 17977097191364157450
12592029 89 18265055743203572259
12788726 201 18196367241724666655
12839892 36 18410012114078970163
13140716 1 18260821597118909506
1454969 45 18412261753777124417
14790565 3 18338802221309313784
15131766 46 15215295472113664028
16752209 62 18198888366216053943
16945 1 18195515124613453266
17138139 8 17697835403238314607
17980427 23 17824544300181747524
18222031 100 11602836700109036937
18785283 64 18122063104749714411
20261772 1 18333727996542134840
204376 136 18340487777271786601
20681677 155 18411703222939193584
20739085 24 17896890858722544492
21041028 32 17756999174161334995
21756936 100 17968948612185588488
22620623 9 17845652697692304182
23419403 2 17480633383071759987
23557571 272 17773304845965118912
23558518 356 17829617510423423452
23559900 14 17691406309473688633
25147074 1 18187914128132568026
2748010 2 16967984780929653218
298252 57 18411422795443730931
3411729 13 18192999210349808753
3610482 184 17970369190089007564
3729539 64 17767429901903855654
394222 165 18190177888749652289
469060 322 14201955834259614450
5104073 3 18041833039226385784
57527585 103 13109850542493968245
59554788 170 18189619337476043068
59554788 248 18046326566506145421
59755656 520 18411702084197873692
6438718 38 18270959162687946990
81228 2 17975676592038305979
9999458 23 18192155888683128326

>  <PUBCHEM_SHAPE_MULTIPOLES>  (1) 
447.62
9.25
3.86
1.35
1.52
2.72
-0.09
-9.65
-0.87
-3.56
0.85
0.36
0.44
-2.28

>  <PUBCHEM_SHAPE_SELFOVERLAP>  (1) 
937.902

>  <PUBCHEM_SHAPE_VOLUME>  (1) 
254.2

>  <PUBCHEM_COORDINATE_TYPE>  (1) 
2
5
10

$$$$
