44125
     RDKit          3D

 23 25  0  0  1  0  0  0  0  0999 V2000
    2.4718    4.7967   -1.2110 Cl  0  0  0  0  0  0  0  0  0  0  0  0
    2.2235   -0.7414    1.8233 S   0  0  0  0  0  0  0  0  0  0  0  0
   -0.7304    0.7650   -1.4100 O   0  0  0  0  0  0  0  0  0  0  0  0
   -5.1782    0.7142    0.5497 N   0  0  0  0  0  0  0  0  0  0  0  0
   -0.4703   -0.8678    0.3262 C   0  0  0  0  0  0  0  0  0  0  0  0
   -1.9445   -1.2145    0.0674 C   0  0  0  0  0  0  0  0  0  0  0  0
   -2.8524   -0.0529    0.4509 C   0  0  0  0  0  0  0  0  0  0  0  0
    0.5106   -1.9811    0.0079 C   0  0  0  0  0  0  0  0  0  0  0  0
   -0.0694    0.3856   -0.4422 C   0  0  0  0  0  0  0  0  0  0  0  0
   -4.3133   -0.3936    0.1613 C   0  0  0  0  0  0  0  0  0  0  0  0
    1.7768   -1.9802    0.6227 C   0  0  0  0  0  0  0  0  0  0  0  0
    1.1505    1.1731   -0.0461 C   0  0  0  0  0  0  0  0  0  0  0  0
    0.2271   -2.9866   -0.9312 C   0  0  0  0  0  0  0  0  0  0  0  0
    2.1442    0.7754    0.8728 C   0  0  0  0  0  0  0  0  0  0  0  0
    2.7085   -2.9859    0.3275 C   0  0  0  0  0  0  0  0  0  0  0  0
    1.2782    2.4274   -0.6813 C   0  0  0  0  0  0  0  0  0  0  0  0
    1.1621   -3.9808   -1.2262 C   0  0  0  0  0  0  0  0  0  0  0  0
    2.4005   -3.9826   -0.5949 C   0  0  0  0  0  0  0  0  0  0  0  0
   -6.5829    0.3815    0.3056 C   0  0  0  0  0  0  0  0  0  0  0  0
   -4.8121    1.9327   -0.1744 C   0  0  0  0  0  0  0  0  0  0  0  0
    3.2196    1.6536    1.1289 C   0  0  0  0  0  0  0  0  0  0  0  0
    2.3539    3.2745   -0.4172 C   0  0  0  0  0  0  0  0  0  0  0  0
    3.3260    2.8876    0.4902 C   0  0  0  0  0  0  0  0  0  0  0  0
  1 22  1  0
  2 11  1  0
  2 14  1  0
  3  9  2  0
  4 10  1  0
  4 19  1  0
  4 20  1  0
  5  6  1  0
  5  8  1  0
  5  9  1  0
  6  7  1  0
  7 10  1  0
  8 11  2  0
  8 13  1  0
  9 12  1  0
 11 15  1  0
 12 14  2  0
 12 16  1  0
 13 17  2  0
 14 21  1  0
 15 18  2  0
 16 22  2  0
 17 18  1  0
 21 23  2  0
 22 23  1  0
M  END
>  <PUBCHEM_COMPOUND_CID>  (1) 
44125

>  <PUBCHEM_CONFORMER_RMSD>  (1) 
0.8

>  <PUBCHEM_CONFORMER_DIVERSEORDER>  (1) 
5
3
17
6
1
16
20
7
14
12
11
22
21
4
23
18
2
13
19
9
8
10
15

>  <PUBCHEM_MMFF94_PARTIAL_CHARGES>  (1) 
28
1 -0.18
10 0.27
11 0.1
12 0.09
13 -0.15
14 0.1
15 -0.15
16 -0.15
17 -0.15
18 -0.15
19 0.27
2 -0.2
20 0.27
21 -0.15
22 0.18
23 -0.15
3 -0.57
31 0.15
32 0.15
33 0.15
34 0.15
35 0.15
4 -0.81
42 0.15
43 0.15
5 0.2
8 -0.14
9 0.42

>  <PUBCHEM_EFFECTIVE_ROTOR_COUNT>  (1) 
4.4

>  <PUBCHEM_PHARMACOPHORE_FEATURES>  (1) 
5
1 3 acceptor
1 4 cation
6 12 14 16 21 22 23 rings
6 8 11 13 15 17 18 rings
7 2 5 8 9 11 12 14 rings

>  <PUBCHEM_HEAVY_ATOM_COUNT>  (1) 
23

>  <PUBCHEM_ATOM_DEF_STEREO_COUNT>  (1) 
0

>  <PUBCHEM_ATOM_UDEF_STEREO_COUNT>  (1) 
1

>  <PUBCHEM_BOND_DEF_STEREO_COUNT>  (1) 
0

>  <PUBCHEM_BOND_UDEF_STEREO_COUNT>  (1) 
0

>  <PUBCHEM_ISOTOPIC_ATOM_COUNT>  (1) 
0

>  <PUBCHEM_COMPONENT_COUNT>  (1) 
1

>  <PUBCHEM_CACTVS_TAUTO_COUNT>  (1) 
2

>  <PUBCHEM_CONFORMER_ID>  (1) 
0000AC5D00000005

>  <PUBCHEM_MMFF94_ENERGY>  (1) 
74.0988

>  <PUBCHEM_FEATURE_SELFOVERLAP>  (1) 
25.384

>  <PUBCHEM_SHAPE_FINGERPRINT>  (1) 
10411042 1 17978793411014027699
10483366 6 18266198192273586332
10937287 8 18122907804541584681
11582403 64 15479818139502141082
12173636 292 17764582509952119348
12293681 4 17399782809740834517
12788726 201 17325500903649066387
13140716 1 18117832420566181336
13590594 115 17905343827150379641
13757389 114 17686920709458735660
138480 1 18266743476150695261
13955234 65 18411990139454936923
14790565 3 18121502628913635837
15081414 286 18337393716938330921
15420108 30 18268975648291119546
15664445 248 18198924517187711774
1601671 61 18410291372367291722
17492 54 18264796319180101846
1813 80 17912656700145166455
18785283 64 18409166597583592503
20157964 124 18410287013677093229
20739085 24 18338228276465636776
21049683 271 18266751190466243414
23352939 185 18056769732606284618
23419403 2 17896863392332613070
23558518 356 17038098983944710636
23559900 14 18340768131430942139
23929065 36 16829517247431640184
2748010 2 17906701771381546674
3411729 13 18333449854491642561
38695281 34 18339927125067729346
394222 165 18116425032581656808
474 4 18410009974863366985
6443956 14 18194685865054379831
7364860 26 18413109433279928835
7808743 9 17690001553845855696
8272917 22 18411982459894772505
9841814 1 18042122064148830659
9981440 41 18194683889743736939

>  <PUBCHEM_SHAPE_MULTIPOLES>  (1) 
468.2
8.65
5.89
1.23
21.22
0.15
0.09
-5.96
1.99
-8.11
-2.88
-0.85
0.05
-0.34

>  <PUBCHEM_SHAPE_SELFOVERLAP>  (1) 
976.267

>  <PUBCHEM_SHAPE_VOLUME>  (1) 
266.9

>  <PUBCHEM_COORDINATE_TYPE>  (1) 
2
5
10

$$$$
