44129
     RDKit          3D

 22 24  0  0  1  0  0  0  0  0999 V2000
   -5.5429    1.9864    0.9917 Cl  0  0  0  0  0  0  0  0  0  0  0  0
   -1.0357   -1.4457   -1.7968 S   0  0  0  0  0  0  0  0  0  0  0  0
   -0.3319    1.3288    1.6430 O   0  0  0  0  0  0  0  0  0  0  0  0
    4.3901    1.7881   -0.5217 N   0  0  0  0  0  0  0  0  0  0  0  0
    0.7868    0.6083   -0.3752 C   0  0  0  0  0  0  0  0  0  0  0  0
   -0.4885    1.2547    0.2171 C   0  0  0  0  0  0  0  0  0  0  0  0
    2.0203    1.4839   -0.0846 C   0  0  0  0  0  0  0  0  0  0  0  0
    0.9334   -0.8396    0.0796 C   0  0  0  0  0  0  0  0  0  0  0  0
    3.2344    0.9520   -0.8235 C   0  0  0  0  0  0  0  0  0  0  0  0
   -1.8749    0.7075   -0.1077 C   0  0  0  0  0  0  0  0  0  0  0  0
    0.1296   -1.8364   -0.5054 C   0  0  0  0  0  0  0  0  0  0  0  0
   -2.1940   -0.3997   -0.9199 C   0  0  0  0  0  0  0  0  0  0  0  0
    1.8233   -1.2204    1.0988 C   0  0  0  0  0  0  0  0  0  0  0  0
   -2.9502    1.4326    0.4640 C   0  0  0  0  0  0  0  0  0  0  0  0
    0.2442   -3.1732   -0.0969 C   0  0  0  0  0  0  0  0  0  0  0  0
   -3.5478   -0.7434   -1.1236 C   0  0  0  0  0  0  0  0  0  0  0  0
    1.9276   -2.5520    1.5065 C   0  0  0  0  0  0  0  0  0  0  0  0
    1.1412   -3.5284    0.9069 C   0  0  0  0  0  0  0  0  0  0  0  0
    4.6132    1.8573    0.9235 C   0  0  0  0  0  0  0  0  0  0  0  0
    5.5854    1.2781   -1.1959 C   0  0  0  0  0  0  0  0  0  0  0  0
   -4.2822    1.0769    0.2577 C   0  0  0  0  0  0  0  0  0  0  0  0
   -4.5814   -0.0159   -0.5379 C   0  0  0  0  0  0  0  0  0  0  0  0
  1 21  1  0
  2 11  1  0
  2 12  1  0
  3  6  1  0
  4  9  1  0
  4 19  1  0
  4 20  1  0
  5  6  1  0
  5  7  1  0
  5  8  1  0
  6 10  1  0
  7  9  1  0
  8 11  2  0
  8 13  1  0
 10 12  2  0
 10 14  1  0
 11 15  1  0
 12 16  1  0
 13 17  2  0
 14 21  2  0
 15 18  2  0
 16 22  2  0
 17 18  1  0
 21 22  1  0
M  END
>  <PUBCHEM_COMPOUND_CID>  (1) 
44129

>  <PUBCHEM_CONFORMER_RMSD>  (1) 
0.6

>  <PUBCHEM_CONFORMER_DIVERSEORDER>  (1) 
1
11
6
4
10
5
13
12
2
3
9
8
7

>  <PUBCHEM_MMFF94_PARTIAL_CHARGES>  (1) 
29
1 -0.18
10 -0.14
11 0.1
12 0.1
13 -0.15
14 -0.15
15 -0.15
16 -0.15
17 -0.15
18 -0.15
19 0.27
2 -0.2
20 0.27
21 0.18
22 -0.15
29 0.15
3 -0.68
30 0.15
31 0.4
32 0.15
33 0.15
34 0.15
35 0.15
4 -0.81
42 0.15
5 0.14
6 0.42
8 -0.14
9 0.27

>  <PUBCHEM_EFFECTIVE_ROTOR_COUNT>  (1) 
3.6

>  <PUBCHEM_PHARMACOPHORE_FEATURES>  (1) 
6
1 3 acceptor
1 3 donor
1 4 cation
6 10 12 14 16 21 22 rings
6 8 11 13 15 17 18 rings
7 2 5 6 8 10 11 12 rings

>  <PUBCHEM_HEAVY_ATOM_COUNT>  (1) 
22

>  <PUBCHEM_ATOM_DEF_STEREO_COUNT>  (1) 
2

>  <PUBCHEM_ATOM_UDEF_STEREO_COUNT>  (1) 
0

>  <PUBCHEM_BOND_DEF_STEREO_COUNT>  (1) 
0

>  <PUBCHEM_BOND_UDEF_STEREO_COUNT>  (1) 
0

>  <PUBCHEM_ISOTOPIC_ATOM_COUNT>  (1) 
0

>  <PUBCHEM_COMPONENT_COUNT>  (1) 
1

>  <PUBCHEM_CACTVS_TAUTO_COUNT>  (1) 
1

>  <PUBCHEM_CONFORMER_ID>  (1) 
0000AC6100000001

>  <PUBCHEM_MMFF94_ENERGY>  (1) 
74.4363

>  <PUBCHEM_FEATURE_SELFOVERLAP>  (1) 
30.459

>  <PUBCHEM_SHAPE_FINGERPRINT>  (1) 
10382601 240 18334861567365894255
10759866 29 18340487755759961833
12035759 4 18200602384441792834
12236239 1 18413671305191401092
12592029 89 18187080659257917080
12597179 24 17822018622238692051
12633257 1 17968648312130213331
12644460 14 18265341616342701977
12954195 1 18195528327237809710
13140716 1 18409724041299685555
14790565 3 18411418418772257688
14955137 171 18195242209876075690
15238133 3 17273411678222649049
15975801 100 14474468490483102643
16945 1 18121769544066887551
1813 80 17978221656783831574
19784866 34 18410291432138118105
19784866 9 18411135814197711633
200 152 13757811325424676980
204376 136 18186802525728761396
20739085 24 18187647951328485004
21421861 104 18123197809687147529
21756936 100 18340767156161921566
23402539 116 18060421343528563380
23419403 2 17548192917905596958
23558518 356 17835795670517875668
23559900 14 17487338127768221431
25147074 1 18272075068870270351
298252 57 17845938536440118838
34934 24 18272371953931487629
3759504 43 18115311214565269582
394222 165 18341054021138050707
404807 14 15906053417589296678
4340502 62 18187375324284759755
458136 41 18333730195755352714
474 4 18260269672061713156
5104073 3 18191599562597919673
53917941 68 18191859244419816372
59755656 520 18334859459011764358
6034566 193 17315651852829514516
6138700 20 18338805503539417534
633830 44 18341610477386179268
7226269 152 18201432640739572160
8272917 22 18263366897780602561
90316 7 16968010043858736243

>  <PUBCHEM_SHAPE_MULTIPOLES>  (1) 
447.62
9.6
3.35
1.42
1.06
2.85
-0.01
-9.02
-0.4
-2.13
0.99
-0.23
0.34
-2.03

>  <PUBCHEM_SHAPE_SELFOVERLAP>  (1) 
931.896

>  <PUBCHEM_SHAPE_VOLUME>  (1) 
256.2

>  <PUBCHEM_COORDINATE_TYPE>  (1) 
2
5
10

$$$$
