44135
     RDKit          3D

 22 24  0  0  0  0  0  0  0  0999 V2000
   -5.7947   -1.9782   -1.1088 Cl  0  0  0  0  0  0  0  0  0  0  0  0
   -1.0337    0.8087    1.9530 S   0  0  0  0  0  0  0  0  0  0  0  0
    5.0794   -1.3268    0.6733 N   0  0  0  0  0  0  0  0  0  0  0  0
    1.6590   -1.2402   -0.9649 C   0  0  0  0  0  0  0  0  0  0  0  0
    2.7383   -0.9314    0.0625 C   0  0  0  0  0  0  0  0  0  0  0  0
    0.3517   -0.5910   -0.5814 C   0  0  0  0  0  0  0  0  0  0  0  0
    4.0498   -1.6177   -0.3174 C   0  0  0  0  0  0  0  0  0  0  0  0
    0.3537    0.8947   -0.4996 C   0  0  0  0  0  0  0  0  0  0  0  0
   -0.7301   -1.3634   -0.3559 C   0  0  0  0  0  0  0  0  0  0  0  0
   -0.2079    1.6096    0.5793 C   0  0  0  0  0  0  0  0  0  0  0  0
   -2.0866   -0.9331    0.0247 C   0  0  0  0  0  0  0  0  0  0  0  0
   -2.3460   -0.0018    1.0463 C   0  0  0  0  0  0  0  0  0  0  0  0
    0.9746    1.6292   -1.5281 C   0  0  0  0  0  0  0  0  0  0  0  0
   -0.1301    3.0119    0.6139 C   0  0  0  0  0  0  0  0  0  0  0  0
    5.3362    0.1129    0.7421 C   0  0  0  0  0  0  0  0  0  0  0  0
    6.3143   -2.0482    0.3606 C   0  0  0  0  0  0  0  0  0  0  0  0
   -3.1692   -1.5491   -0.6239 C   0  0  0  0  0  0  0  0  0  0  0  0
    1.0396    3.0233   -1.4887 C   0  0  0  0  0  0  0  0  0  0  0  0
   -3.6708    0.3077    1.3884 C   0  0  0  0  0  0  0  0  0  0  0  0
    0.4902    3.7142   -0.4166 C   0  0  0  0  0  0  0  0  0  0  0  0
   -4.4836   -1.2298   -0.2818 C   0  0  0  0  0  0  0  0  0  0  0  0
   -4.7340   -0.3015    0.7231 C   0  0  0  0  0  0  0  0  0  0  0  0
  1 21  1  0
  2 10  1  0
  2 12  1  0
  3  7  1  0
  3 15  1  0
  3 16  1  0
  4  5  1  0
  4  6  1  0
  5  7  1  0
  6  8  1  0
  6  9  2  0
  8 10  2  0
  8 13  1  0
  9 11  1  0
 10 14  1  0
 11 12  2  0
 11 17  1  0
 12 19  1  0
 13 18  2  0
 14 20  2  0
 17 21  2  0
 18 20  1  0
 19 22  2  0
 21 22  1  0
M  END
>  <PUBCHEM_COMPOUND_CID>  (1) 
44135

>  <PUBCHEM_CONFORMER_RMSD>  (1) 
0.6

>  <PUBCHEM_CONFORMER_DIVERSEORDER>  (1) 
1
27
35
10
30
20
15
16
11
36
31
21
22
5
12
2
8
14
18
13
4
17
9
34
33
32
7
28
3
23
19
6
26
29
24
25

>  <PUBCHEM_MMFF94_PARTIAL_CHARGES>  (1) 
29
1 -0.18
10 0.1
11 0.03
12 0.1
13 -0.15
14 -0.15
15 0.27
16 0.27
17 -0.15
18 -0.15
19 -0.15
2 -0.2
20 -0.15
21 0.18
22 -0.15
29 0.15
3 -0.81
30 0.15
37 0.15
38 0.15
39 0.15
4 0.14
40 0.15
41 0.15
42 0.15
6 -0.17
7 0.27
8 0.03
9 -0.18

>  <PUBCHEM_EFFECTIVE_ROTOR_COUNT>  (1) 
4.2

>  <PUBCHEM_PHARMACOPHORE_FEATURES>  (1) 
4
1 3 cation
6 11 12 17 19 21 22 rings
6 8 10 13 14 18 20 rings
7 2 6 8 9 10 11 12 rings

>  <PUBCHEM_HEAVY_ATOM_COUNT>  (1) 
22

>  <PUBCHEM_ATOM_DEF_STEREO_COUNT>  (1) 
0

>  <PUBCHEM_ATOM_UDEF_STEREO_COUNT>  (1) 
0

>  <PUBCHEM_BOND_DEF_STEREO_COUNT>  (1) 
0

>  <PUBCHEM_BOND_UDEF_STEREO_COUNT>  (1) 
0

>  <PUBCHEM_ISOTOPIC_ATOM_COUNT>  (1) 
0

>  <PUBCHEM_COMPONENT_COUNT>  (1) 
1

>  <PUBCHEM_CACTVS_TAUTO_COUNT>  (1) 
1

>  <PUBCHEM_CONFORMER_ID>  (1) 
0000AC6700000001

>  <PUBCHEM_MMFF94_ENERGY>  (1) 
68.5932

>  <PUBCHEM_FEATURE_SELFOVERLAP>  (1) 
20.312

>  <PUBCHEM_SHAPE_FINGERPRINT>  (1) 
10369192 42 12103845691454077410
10764073 3 17489029236681387504
10930396 42 18119497004341213130
11045515 52 18187361008821360028
11265709 11 18335426742244289028
11963148 33 17332799960504604679
12166972 35 18341607174635059751
12516196 113 18335698356023983046
12553582 1 18264796318420407286
12623949 98 17489038067392819390
13004483 165 18264198128302591754
13009979 54 18130522902253950395
13083527 12 18341617031358527676
13134695 92 18260839240570521013
13257819 101 14189016601182655801
13965767 371 17192388567323668465
14170010 4 18338790247303612535
14181834 199 18265910209735756165
14840074 17 18341337772990656180
167882 2 18118969328152865820
17349148 13 18130234847250308767
17980427 23 17846502538955802837
1813 80 18409738343767206022
18222031 100 18411707586399236918
18336668 15 18342737438017685185
18769570 83 17969223326720608573
192875 21 18342741857913546503
200 152 17313389981148805362
20600515 1 18343028795587744942
21424621 283 8358254848098247142
22224240 67 11887667399366575543
23175994 123 17822297876685524915
23402539 116 18341047428236981630
23419403 2 18057579075668588225
23559900 14 18267573792841818963
23845131 108 17331120490678478040
25147074 1 18058465347218777257
2748010 2 16753572312905996873
283562 15 18188768323923803410
3009799 131 18260821584186463023
3027735 51 16951403205106058730
3380486 145 18193570964617142689
4409770 3 18045773499362558925
5104073 3 18057620943880033531
633830 44 7853564673926079554
67856867 119 18127971017528418687
7471813 234 18271523191094618173
81228 2 17977692838544270378
9981440 41 17258210199460396977

>  <PUBCHEM_SHAPE_MULTIPOLES>  (1) 
453.49
11.12
3.38
1.44
5.94
3.47
0.16
-11.69
1.42
1.58
-1.02
-0.53
0.55
-1.61

>  <PUBCHEM_SHAPE_SELFOVERLAP>  (1) 
944.87

>  <PUBCHEM_SHAPE_VOLUME>  (1) 
259.1

>  <PUBCHEM_COORDINATE_TYPE>  (1) 
2
5
10

$$$$
