44133
     RDKit          3D

 21 23  0  0  0  0  0  0  0  0999 V2000
   -5.1293    2.2832   -1.2675 Cl  0  0  0  0  0  0  0  0  0  0  0  0
   -0.7762   -0.9428    1.9652 S   0  0  0  0  0  0  0  0  0  0  0  0
    4.3494    1.5906    0.1500 N   0  0  0  0  0  0  0  0  0  0  0  0
    2.2183    0.8938   -0.7963 C   0  0  0  0  0  0  0  0  0  0  0  0
    0.8436    0.3558   -0.4828 C   0  0  0  0  0  0  0  0  0  0  0  0
    3.0254    1.0737    0.4781 C   0  0  0  0  0  0  0  0  0  0  0  0
    0.7147   -1.1252   -0.4205 C   0  0  0  0  0  0  0  0  0  0  0  0
   -0.1781    1.2161   -0.2981 C   0  0  0  0  0  0  0  0  0  0  0  0
    0.0427   -1.7992    0.6212 C   0  0  0  0  0  0  0  0  0  0  0  0
   -1.5830    0.9006    0.0130 C   0  0  0  0  0  0  0  0  0  0  0  0
   -1.9696   -0.0141    1.0091 C   0  0  0  0  0  0  0  0  0  0  0  0
    1.3190   -1.9010   -1.4282 C   0  0  0  0  0  0  0  0  0  0  0  0
   -0.0021   -3.2034    0.6403 C   0  0  0  0  0  0  0  0  0  0  0  0
    5.1565    1.7454    1.3614 C   0  0  0  0  0  0  0  0  0  0  0  0
    4.2430    2.8683   -0.5563 C   0  0  0  0  0  0  0  0  0  0  0  0
   -2.5768    1.6133   -0.6776 C   0  0  0  0  0  0  0  0  0  0  0  0
    1.2623   -3.2960   -1.4045 C   0  0  0  0  0  0  0  0  0  0  0  0
   -3.3307   -0.2111    1.2851 C   0  0  0  0  0  0  0  0  0  0  0  0
    0.6044   -3.9468   -0.3692 C   0  0  0  0  0  0  0  0  0  0  0  0
   -3.9285    1.4053   -0.4013 C   0  0  0  0  0  0  0  0  0  0  0  0
   -4.3049    0.4933    0.5790 C   0  0  0  0  0  0  0  0  0  0  0  0
  1 20  1  0
  2  9  1  0
  2 11  1  0
  3  6  1  0
  3 14  1  0
  3 15  1  0
  4  5  1  0
  4  6  1  0
  5  7  1  0
  5  8  2  0
  7  9  2  0
  7 12  1  0
  8 10  1  0
  9 13  1  0
 10 11  2  0
 10 16  1  0
 11 18  1  0
 12 17  2  0
 13 19  2  0
 16 20  2  0
 17 19  1  0
 18 21  2  0
 20 21  1  0
M  END
>  <PUBCHEM_COMPOUND_CID>  (1) 
44133

>  <PUBCHEM_CONFORMER_RMSD>  (1) 
0.6

>  <PUBCHEM_CONFORMER_DIVERSEORDER>  (1) 
3
13
17
9
12
11
10
8
15
4
6
5
1
18
2
14
16
7
19

>  <PUBCHEM_MMFF94_PARTIAL_CHARGES>  (1) 
29
1 -0.18
10 0.03
11 0.1
12 -0.15
13 -0.15
14 0.27
15 0.27
16 -0.15
17 -0.15
18 -0.15
19 -0.15
2 -0.2
20 0.18
21 -0.15
26 0.15
27 0.15
28 0.15
3 -0.81
35 0.15
36 0.15
37 0.15
38 0.15
39 0.15
4 0.14
5 -0.17
6 0.27
7 0.03
8 -0.18
9 0.1

>  <PUBCHEM_EFFECTIVE_ROTOR_COUNT>  (1) 
3.2

>  <PUBCHEM_PHARMACOPHORE_FEATURES>  (1) 
4
1 3 cation
6 10 11 16 18 20 21 rings
6 7 9 12 13 17 19 rings
7 2 5 7 8 9 10 11 rings

>  <PUBCHEM_HEAVY_ATOM_COUNT>  (1) 
21

>  <PUBCHEM_ATOM_DEF_STEREO_COUNT>  (1) 
0

>  <PUBCHEM_ATOM_UDEF_STEREO_COUNT>  (1) 
0

>  <PUBCHEM_BOND_DEF_STEREO_COUNT>  (1) 
0

>  <PUBCHEM_BOND_UDEF_STEREO_COUNT>  (1) 
0

>  <PUBCHEM_ISOTOPIC_ATOM_COUNT>  (1) 
0

>  <PUBCHEM_COMPONENT_COUNT>  (1) 
1

>  <PUBCHEM_CACTVS_TAUTO_COUNT>  (1) 
1

>  <PUBCHEM_CONFORMER_ID>  (1) 
0000AC6500000003

>  <PUBCHEM_MMFF94_ENERGY>  (1) 
69.7606

>  <PUBCHEM_FEATURE_SELFOVERLAP>  (1) 
20.312

>  <PUBCHEM_SHAPE_FINGERPRINT>  (1) 
10074138 170 17977366550248448930
10692045 39 18130212771777836506
10764073 3 16664553776935711306
10871710 139 16821952598546856756
121448 382 18129086999838933943
12403259 415 18335998505217621500
12553582 1 17472998198487707147
12788726 201 17832415776427684370
13004483 165 17332801051272420282
13052359 8 18195804287470736910
13134695 92 17833840365081373727
13540713 4 18042982982322746857
13544592 271 18334019393257471481
13583140 156 16951672765891216148
13631057 29 17916289723556192703
13681431 1 17768251211050480542
13911987 19 18341340005815416189
14178000 22 18339357577849427530
14251764 30 8358263678287445416
16945 1 17902527990682433971
17980427 23 17386008420395138213
1813 80 16769306401239709510
18915476 22 18341336574409904679
20197701 30 18341043086372873754
204376 136 18341898531983521308
20554085 129 17986365902329018776
20645477 70 18196649597723009189
21033648 29 18341320193479537048
21304303 282 17984110889932666902
21731228 192 18411420656697716554
22182313 1 17969805011589822425
22950370 63 9727360163846370797
23557571 272 17605015657933849161
23559900 14 17970642800041316142
23598288 3 17898860320756116412
23728640 28 18193553596064523962
2748010 2 18045533925970762579
474229 33 18338236088995232751
4938544 92 18053933229262503208
495365 180 18340199687602399796
5262128 65 17765726723947847263
59444896 2 17830688279972039483
633830 44 17702689690449345328
7364860 26 18195528090929640263
81228 2 17692512830013266610
81539 233 18411417280558029452
84936 182 18130234731096450680
84936 31 17914884344893817662
9862522 239 18265336281740365954
9981440 41 18409727352814319313

>  <PUBCHEM_SHAPE_MULTIPOLES>  (1) 
432.91
8.48
4.13
1.5
0.78
3.77
0.27
-10.92
0.26
-3.13
-1.21
0.13
0.39
1.94

>  <PUBCHEM_SHAPE_SELFOVERLAP>  (1) 
906.695

>  <PUBCHEM_SHAPE_VOLUME>  (1) 
246.3

>  <PUBCHEM_COORDINATE_TYPE>  (1) 
2
5
10

$$$$
