44138
     RDKit          3D

 14 13  0  0  0  0  0  0  0  0999 V2000
   -1.8511    0.3739    0.2899 O   0  0  0  0  0  0  0  0  0  0  0  0
    2.3181    0.3344   -0.1829 O   0  0  0  0  0  0  0  0  0  0  0  0
    0.8267    0.9495    1.4413 O   0  0  0  0  0  0  0  0  0  0  0  0
   -3.8579    0.3301   -0.8537 O   0  0  0  0  0  0  0  0  0  0  0  0
    0.5436   -3.0443   -0.8188 O   0  0  0  0  0  0  0  0  0  0  0  0
    0.5922   -1.0915    0.3616 N   0  0  0  0  0  0  0  0  0  0  0  0
    1.1686   -1.9875   -0.6780 N   0  0  0  0  0  0  0  0  0  0  0  0
   -0.5971   -1.5139    1.0853 C   0  0  0  0  0  0  0  0  0  0  0  0
   -1.8440   -1.0467    0.3539 C   0  0  0  0  0  0  0  0  0  0  0  0
    1.2153    0.1323    0.6084 C   0  0  0  0  0  0  0  0  0  0  0  0
    3.0131    1.5718    0.0108 C   0  0  0  0  0  0  0  0  0  0  0  0
    4.1932    1.6280   -0.9358 C   0  0  0  0  0  0  0  0  0  0  0  0
   -2.9236    0.9353   -0.3459 C   0  0  0  0  0  0  0  0  0  0  0  0
   -2.7973    2.4286   -0.3362 C   0  0  0  0  0  0  0  0  0  0  0  0
  1  9  1  0
  1 13  1  0
  2 10  1  0
  2 11  1  0
  3 10  2  0
  4 13  2  0
  5  7  2  0
  6  7  1  0
  6  8  1  0
  6 10  1  0
  8  9  1  0
 11 12  1  0
 13 14  1  0
M  END
>  <PUBCHEM_COMPOUND_CID>  (1) 
44138

>  <PUBCHEM_CONFORMER_RMSD>  (1) 
0.8

>  <PUBCHEM_CONFORMER_DIVERSEORDER>  (1) 
1
108
35
86
19
53
63
6
73
92
71
8
120
27
102
4
87
28
47
34
16
13
97
90
78
10
116
110
119
40
2
99
46
32
84
62
23
44
117
100
109
121
112
29
56
91
93
18
107
80
59
30
5
101
96
7
24
83
11
94
36
70
22
106
122
98
85
12
81
67
54
55
115
60
95
68
39
48
89
65
111
57
21
20
3
41
25
76
88
104
43
74
66
50
45
103
49
69
9
26
52
114
105
38
51
79
58
15
72
113
37
14
61
77
33
82
31
17
75
118
42
64

>  <PUBCHEM_MMFF94_PARTIAL_CHARGES>  (1) 
13
1 -0.43
10 0.78
11 0.28
13 0.66
14 0.06
2 -0.43
3 -0.57
4 -0.57
5 -0.16
6 -0.18
7 -0.02
8 0.3
9 0.28

>  <PUBCHEM_EFFECTIVE_ROTOR_COUNT>  (1) 
8

>  <PUBCHEM_PHARMACOPHORE_FEATURES>  (1) 
2
1 3 acceptor
1 4 acceptor

>  <PUBCHEM_HEAVY_ATOM_COUNT>  (1) 
14

>  <PUBCHEM_ATOM_DEF_STEREO_COUNT>  (1) 
0

>  <PUBCHEM_ATOM_UDEF_STEREO_COUNT>  (1) 
0

>  <PUBCHEM_BOND_DEF_STEREO_COUNT>  (1) 
0

>  <PUBCHEM_BOND_UDEF_STEREO_COUNT>  (1) 
0

>  <PUBCHEM_ISOTOPIC_ATOM_COUNT>  (1) 
0

>  <PUBCHEM_COMPONENT_COUNT>  (1) 
1

>  <PUBCHEM_CACTVS_TAUTO_COUNT>  (1) 
1

>  <PUBCHEM_CONFORMER_ID>  (1) 
0000AC6A00000001

>  <PUBCHEM_MMFF94_ENERGY>  (1) 
15.8296

>  <PUBCHEM_FEATURE_SELFOVERLAP>  (1) 
10.149

>  <PUBCHEM_SHAPE_FINGERPRINT>  (1) 
10149128 76 18335138665723548329
11031198 65 18343863299274960331
12138202 97 18198913693774978398
13380535 76 18408036308088304707
13464514 151 18193848045862960004
13618510 140 18333446526045287077
13839132 238 18260270732886882507
14250199 8 18122620557624505637
15775835 57 17531241789973568828
170605 34 18260824865430531945
17834072 32 18187087298956233556
18186145 218 18130801100202580856
20344682 6 18341603863209857023
20645477 56 17982460587888946960
21524375 3 18334565858841249336
21947302 44 18335697179091894955
22802520 49 18192446185738507339
22959321 8 18343581867105608457
23114952 82 18196098750275284359
23532345 88 18126274255932473831
25 1 18341055142003292905
81228 2 17334766977793982210

>  <PUBCHEM_SHAPE_MULTIPOLES>  (1) 
248.8
6.13
2.77
1.04
1.62
0.99
-0.13
-5.36
2.07
-0.11
0.73
0.17
0.16
0.28

>  <PUBCHEM_SHAPE_SELFOVERLAP>  (1) 
470.146

>  <PUBCHEM_SHAPE_VOLUME>  (1) 
152.9

>  <PUBCHEM_COORDINATE_TYPE>  (1) 
2
5
10

$$$$
