44139
     RDKit          3D

 21 22  0  0  1  0  0  0  0  0999 V2000
   -0.1268    1.4157   -0.0073 O   0  0  0  0  0  0  0  0  0  0  0  0
   -2.3832    1.2881    0.8335 O   0  0  0  0  0  0  0  0  0  0  0  0
   -4.8882    1.3839    0.2936 O   0  0  0  0  0  0  0  0  0  0  0  0
   -4.7238   -0.5824   -0.9128 O   0  0  0  0  0  0  0  0  0  0  0  0
    1.3220   -1.7363    0.1877 N   0  0  0  0  0  0  0  0  0  0  0  0
    1.4746   -0.3362    0.1841 N   0  0  0  0  0  0  0  0  0  0  0  0
   -2.0670   -0.7069   -0.3519 N   0  0  0  0  0  0  0  0  0  0  0  0
   -0.0229   -2.0089   -0.0665 C   0  0  0  0  0  0  0  0  0  0  0  0
   -0.7432   -0.8832   -0.1453 C   0  0  0  0  0  0  0  0  0  0  0  0
    0.2071    0.2433    0.0456 C   0  0  0  0  0  0  0  0  0  0  0  0
    2.7231    0.3108    0.0080 C   0  0  0  0  0  0  0  0  0  0  0  0
    2.0698   -2.5132    1.1715 C   0  0  0  0  0  0  0  0  0  0  0  0
   -0.5212   -3.4110   -0.1701 C   0  0  0  0  0  0  0  0  0  0  0  0
    2.8538    1.6762    0.2800 C   0  0  0  0  0  0  0  0  0  0  0  0
    3.8340   -0.4117   -0.4383 C   0  0  0  0  0  0  0  0  0  0  0  0
    4.0830    2.3128    0.1075 C   0  0  0  0  0  0  0  0  0  0  0  0
    5.0633    0.2246   -0.6106 C   0  0  0  0  0  0  0  0  0  0  0  0
   -2.7938    0.3629    0.1492 C   0  0  0  0  0  0  0  0  0  0  0  0
    5.1877    1.5869   -0.3377 C   0  0  0  0  0  0  0  0  0  0  0  0
   -4.2597    0.3138   -0.2339 C   0  0  0  0  0  0  0  0  0  0  0  0
   -6.2887    1.4708    0.0136 C   0  0  0  0  0  0  0  0  0  0  0  0
  1 10  2  0
  2 18  2  0
  3 20  1  0
  3 21  1  0
  4 20  2  0
  5  6  1  0
  5  8  1  0
  5 12  1  0
  6 10  1  0
  6 11  1  0
  7  9  1  0
  7 18  1  0
  8  9  2  0
  8 13  1  0
  9 10  1  0
 11 14  2  0
 11 15  1  0
 14 16  1  0
 15 17  2  0
 16 19  2  0
 17 19  1  0
 18 20  1  0
M  END
>  <PUBCHEM_COMPOUND_CID>  (1) 
44139

>  <PUBCHEM_CONFORMER_RMSD>  (1) 
0.8

>  <PUBCHEM_CONFORMER_DIVERSEORDER>  (1) 
1
5
12
3
7
4
10
9
8
11
2
6

>  <PUBCHEM_MMFF94_PARTIAL_CHARGES>  (1) 
27
1 -0.57
10 0.62
11 0.12
12 0.37
13 0.14
14 -0.15
15 -0.15
16 -0.15
17 -0.15
18 0.63
19 -0.15
2 -0.57
20 0.72
21 0.28
28 0.37
29 0.15
3 -0.43
30 0.15
31 0.15
32 0.15
33 0.15
4 -0.57
5 -0.49
6 -0.16
7 -0.54
8 -0.04
9 0.12

>  <PUBCHEM_EFFECTIVE_ROTOR_COUNT>  (1) 
5

>  <PUBCHEM_PHARMACOPHORE_FEATURES>  (1) 
6
1 1 acceptor
1 2 acceptor
1 4 acceptor
1 7 donor
5 5 6 8 9 10 rings
6 11 14 15 16 17 19 rings

>  <PUBCHEM_HEAVY_ATOM_COUNT>  (1) 
21

>  <PUBCHEM_ATOM_DEF_STEREO_COUNT>  (1) 
0

>  <PUBCHEM_ATOM_UDEF_STEREO_COUNT>  (1) 
0

>  <PUBCHEM_BOND_DEF_STEREO_COUNT>  (1) 
0

>  <PUBCHEM_BOND_UDEF_STEREO_COUNT>  (1) 
0

>  <PUBCHEM_ISOTOPIC_ATOM_COUNT>  (1) 
0

>  <PUBCHEM_COMPONENT_COUNT>  (1) 
1

>  <PUBCHEM_CACTVS_TAUTO_COUNT>  (1) 
2

>  <PUBCHEM_CONFORMER_ID>  (1) 
0000AC6B00000001

>  <PUBCHEM_MMFF94_ENERGY>  (1) 
77.4715

>  <PUBCHEM_FEATURE_SELFOVERLAP>  (1) 
30.476

>  <PUBCHEM_SHAPE_FINGERPRINT>  (1) 
10411042 1 17617377282034071906
10493431 412 18336827597145992877
11796584 16 13686293574057376629
12236239 1 18202563960810323677
12644460 14 18187081702871783778
12730499 353 18335147466412302923
12969540 114 18262503871041209117
13140716 1 18335412530635486770
13583140 156 17095798935881670601
14528608 73 18413385445385273725
14790565 3 18410579500059056837
15099037 51 18411984672050843316
15196674 1 18411982493906383589
18222031 100 9727634985928795932
20602899 9 15769503126503610590
21524375 3 18409169913504190250
22182313 1 18194990584310311110
23402539 116 18201997754670364045
23402655 69 18273493472776145917
23558518 356 17684646919802293160
23559900 14 18271247227230925980
23845131 108 18186521012198364947
25147074 1 18339060649496658951
293599 30 18410294722109453724
335352 9 18411140225957260894
350125 39 18263641767245454428
3759504 43 18114746043850441050
4340502 62 17022906735330129963
474 4 18260832634821018788
4990 188 17846503633808284884
5104073 3 18187641435762903314
59755656 520 18335416898184911518
633830 44 18341325673482240494
8272917 22 18340207363062450727
9709674 26 18200603621978131902
9999458 23 18187087248069987110

>  <PUBCHEM_SHAPE_MULTIPOLES>  (1) 
393.75
11.71
2.84
0.77
8.98
2
0.05
-9
-1.52
-0.85
0.37
-0.08
0.15
-0.6

>  <PUBCHEM_SHAPE_SELFOVERLAP>  (1) 
837.401

>  <PUBCHEM_SHAPE_VOLUME>  (1) 
218.8

>  <PUBCHEM_COORDINATE_TYPE>  (1) 
2
5
10

$$$$
