44137
     RDKit          3D

 22 25  0  0  1  0  0  0  0  0999 V2000
    4.0532    2.3334    1.8722 Cl  0  0  0  0  0  0  0  0  0  0  0  0
   -0.6817    1.0108   -2.0702 S   0  0  0  0  0  0  0  0  0  0  0  0
    1.2796   -2.2670   -0.3804 N   0  0  0  0  0  0  0  0  0  0  0  0
    0.4396   -1.0493    0.2738 C   0  0  0  0  0  0  0  0  0  0  0  0
   -1.0713   -1.2934   -0.0446 C   0  0  0  0  0  0  0  0  0  0  0  0
    0.4339   -3.5598   -0.5109 C   0  0  0  0  0  0  0  0  0  0  0  0
   -1.5367   -2.5659    0.7086 C   0  0  0  0  0  0  0  0  0  0  0  0
   -0.5205   -3.7047    0.6550 C   0  0  0  0  0  0  0  0  0  0  0  0
    1.0646    0.3335    0.0485 C   0  0  0  0  0  0  0  0  0  0  0  0
    1.7796   -1.9217   -1.7875 C   0  0  0  0  0  0  0  0  0  0  0  0
    2.5075   -2.5823    0.4859 C   0  0  0  0  0  0  0  0  0  0  0  0
   -1.9936   -0.0873    0.1388 C   0  0  0  0  0  0  0  0  0  0  0  0
    0.7184    1.2376   -0.9774 C   0  0  0  0  0  0  0  0  0  0  0  0
   -1.9384    0.9749   -0.7918 C   0  0  0  0  0  0  0  0  0  0  0  0
    2.0986    0.7186    0.9301 C   0  0  0  0  0  0  0  0  0  0  0  0
   -2.9410    0.0042    1.1714 C   0  0  0  0  0  0  0  0  0  0  0  0
    1.4303    2.4419   -1.1311 C   0  0  0  0  0  0  0  0  0  0  0  0
   -2.8168    2.0641   -0.6984 C   0  0  0  0  0  0  0  0  0  0  0  0
    2.7924    1.9196    0.7770 C   0  0  0  0  0  0  0  0  0  0  0  0
   -3.8102    1.0957    1.2652 C   0  0  0  0  0  0  0  0  0  0  0  0
    2.4655    2.7767   -0.2627 C   0  0  0  0  0  0  0  0  0  0  0  0
   -3.7531    2.1205    0.3284 C   0  0  0  0  0  0  0  0  0  0  0  0
  1 19  1  0
  2 13  1  0
  2 14  1  0
  3  4  1  0
  3  6  1  0
  3 10  1  0
  3 11  1  0
  4  5  1  0
  4  9  1  0
  5  7  1  0
  5 12  1  0
  6  8  1  0
  7  8  1  0
  9 13  2  0
  9 15  1  0
 12 14  2  0
 12 16  1  0
 13 17  1  0
 14 18  1  0
 15 19  2  0
 16 20  2  0
 17 21  2  0
 18 22  2  0
 19 21  1  0
 20 22  1  0
M  CHG  1   3   1
M  END
>  <PUBCHEM_COMPOUND_CID>  (1) 
44137

>  <PUBCHEM_CONFORMER_RMSD>  (1) 
0.6

>  <PUBCHEM_CONFORMER_DIVERSEORDER>  (1) 
4
10
2
12
8
3
5
1
6
7
11
9

>  <PUBCHEM_MMFF94_PARTIAL_CHARGES>  (1) 
27
1 -0.18
10 0.5
11 0.5
12 -0.14
13 0.1
14 0.1
15 -0.15
16 -0.15
17 -0.15
18 -0.15
19 0.18
2 -0.2
20 -0.15
21 -0.15
22 -0.15
3 -1.01
37 0.15
38 0.15
39 0.15
4 0.65
40 0.15
41 0.15
42 0.15
43 0.15
5 0.14
6 0.5
9 -0.14

>  <PUBCHEM_EFFECTIVE_ROTOR_COUNT>  (1) 
1

>  <PUBCHEM_PHARMACOPHORE_FEATURES>  (1) 
5
1 3 cation
6 12 14 16 18 20 22 rings
6 3 4 5 6 7 8 rings
6 9 13 15 17 19 21 rings
7 2 4 5 9 12 13 14 rings

>  <PUBCHEM_HEAVY_ATOM_COUNT>  (1) 
22

>  <PUBCHEM_ATOM_DEF_STEREO_COUNT>  (1) 
0

>  <PUBCHEM_ATOM_UDEF_STEREO_COUNT>  (1) 
2

>  <PUBCHEM_BOND_DEF_STEREO_COUNT>  (1) 
0

>  <PUBCHEM_BOND_UDEF_STEREO_COUNT>  (1) 
0

>  <PUBCHEM_ISOTOPIC_ATOM_COUNT>  (1) 
0

>  <PUBCHEM_COMPONENT_COUNT>  (1) 
1

>  <PUBCHEM_CACTVS_TAUTO_COUNT>  (1) 
1

>  <PUBCHEM_CONFORMER_ID>  (1) 
0000AC6900000004

>  <PUBCHEM_MMFF94_ENERGY>  (1) 
90.5335

>  <PUBCHEM_FEATURE_SELFOVERLAP>  (1) 
25.398

>  <PUBCHEM_SHAPE_FINGERPRINT>  (1) 
10165383 225 18051168965949587905
11112241 14 17203032089690119952
11370993 70 18340197574605221041
11578080 2 13310632391175257889
11582403 64 17346303934345338440
11640471 11 17345736526231506077
11725454 13 16987995141094168688
12035758 1 18337390435952614938
12293681 160 17835269769353380606
12506688 2 17686068192925768111
12633257 1 18263908987151863754
12788726 201 17399239045775615320
13004483 165 17402881718717976882
13009979 54 17396131804525112728
13027679 85 17687752640413015773
13132413 78 17478063656825013449
13134695 92 17764302843362206469
13140716 1 18337951195166753387
13149001 5 18055102936886127774
14081887 123 17116626095726083832
14178342 30 18192146208195621098
14790565 3 18193570977976908548
14817 1 10872151050590582101
14955137 171 17768554715036038039
15230672 131 18409730691274902020
16110190 28 18263338392837060048
16945 1 18189334735066613524
18785283 64 18264224525387734601
20510252 161 17764600110591123817
20600515 1 17765748761372263518
21524375 3 18271240654759740777
21731228 192 18411132580066433609
22112679 90 16967754428795335407
23419403 2 17825933837337639142
23558518 356 18410572916253746807
23559900 14 18116727222765929261
238 59 18119218732982785029
25222932 49 15507488505446948345
2748010 2 18042679512122421549
3091708 16 9479512624983998400
350125 39 18338531818900197491
35225 105 17697285749696441616
352729 6 18048878799145061701
427121 178 17912121440214485673
4340502 62 18271535290270555817
495365 180 18264763260579531781
5895379 119 15765578724860007257
6992083 37 17898556833739912020
7097593 13 18042950138365268120
7364860 26 18339649923414907045
81228 2 17404305595092546218
84936 31 18129376016741195543
90316 7 17403456767710367626
9862522 239 18190721189518298472

>  <PUBCHEM_SHAPE_MULTIPOLES>  (1) 
453.49
5.54
4.59
1.6
0.16
3.87
-0.31
-5.27
3.03
-1
0
-0.45
-0.51
0.93

>  <PUBCHEM_SHAPE_SELFOVERLAP>  (1) 
954.742

>  <PUBCHEM_SHAPE_VOLUME>  (1) 
255.3

>  <PUBCHEM_COORDINATE_TYPE>  (1) 
2
5
10

$$$$
