44140
     RDKit          3D

 23 24  0  0  1  0  0  0  0  0999 V2000
    0.3691    1.2318   -0.0896 O   0  0  0  0  0  0  0  0  0  0  0  0
   -4.3489    0.5559    0.1260 O   0  0  0  0  0  0  0  0  0  0  0  0
   -1.8675    0.8244    0.7143 O   0  0  0  0  0  0  0  0  0  0  0  0
   -3.8892   -1.4100   -1.0024 O   0  0  0  0  0  0  0  0  0  0  0  0
    2.2305   -1.6823    0.2501 N   0  0  0  0  0  0  0  0  0  0  0  0
    2.1902   -0.2755    0.1965 N   0  0  0  0  0  0  0  0  0  0  0  0
   -1.2540   -1.1482   -0.3892 N   0  0  0  0  0  0  0  0  0  0  0  0
    0.9418   -2.1460   -0.0180 C   0  0  0  0  0  0  0  0  0  0  0  0
    0.0764   -1.1334   -0.1522 C   0  0  0  0  0  0  0  0  0  0  0  0
    0.8590    0.1190    0.0134 C   0  0  0  0  0  0  0  0  0  0  0  0
    3.3423    0.5306    0.0189 C   0  0  0  0  0  0  0  0  0  0  0  0
    3.0547   -2.3143    1.2758 C   0  0  0  0  0  0  0  0  0  0  0  0
    0.6425   -3.6061   -0.0777 C   0  0  0  0  0  0  0  0  0  0  0  0
    3.2782    1.9097    0.2417 C   0  0  0  0  0  0  0  0  0  0  0  0
    4.5520   -0.0470   -0.3801 C   0  0  0  0  0  0  0  0  0  0  0  0
   -2.1317   -0.1718    0.0580 C   0  0  0  0  0  0  0  0  0  0  0  0
    4.4120    2.7033    0.0672 C   0  0  0  0  0  0  0  0  0  0  0  0
    5.6857    0.7468   -0.5544 C   0  0  0  0  0  0  0  0  0  0  0  0
    5.6157    2.1219   -0.3307 C   0  0  0  0  0  0  0  0  0  0  0  0
   -5.7413    0.4395   -0.1824 C   0  0  0  0  0  0  0  0  0  0  0  0
   -6.4791    1.6254    0.4198 C   0  0  0  0  0  0  0  0  0  0  0  0
   -3.5678   -0.4354   -0.3495 C   0  0  0  0  0  0  0  0  0  0  0  0
   -7.9707    1.5616    0.1447 C   0  0  0  0  0  0  0  0  0  0  0  0
  1 10  2  0
  2 20  1  0
  2 22  1  0
  3 16  2  0
  4 22  2  0
  5  6  1  0
  5  8  1  0
  5 12  1  0
  6 10  1  0
  6 11  1  0
  7  9  1  0
  7 16  1  0
  8  9  2  0
  8 13  1  0
  9 10  1  0
 11 14  2  0
 11 15  1  0
 14 17  1  0
 15 18  2  0
 16 22  1  0
 17 19  2  0
 18 19  1  0
 20 21  1  0
 21 23  1  0
M  END
>  <PUBCHEM_COMPOUND_CID>  (1) 
44140

>  <PUBCHEM_CONFORMER_RMSD>  (1) 
0.8

>  <PUBCHEM_CONFORMER_DIVERSEORDER>  (1) 
1
16
55
40
31
70
21
60
66
25
57
12
35
36
11
69
47
5
17
24
67
52
46
22
63
71
45
4
64
54
61
41
7
72
51
26
13
58
19
73
18
39
43
6
9
33
53
30
28
38
50
27
44
62
56
29
68
23
49
3
14
42
34
59
65
37
32
15
48
8
10
2
20

>  <PUBCHEM_MMFF94_PARTIAL_CHARGES>  (1) 
27
1 -0.57
10 0.62
11 0.12
12 0.37
13 0.14
14 -0.15
15 -0.15
16 0.63
17 -0.15
18 -0.15
19 -0.15
2 -0.43
20 0.28
22 0.72
3 -0.57
30 0.37
31 0.15
32 0.15
33 0.15
34 0.15
35 0.15
4 -0.57
5 -0.49
6 -0.16
7 -0.54
8 -0.04
9 0.12

>  <PUBCHEM_EFFECTIVE_ROTOR_COUNT>  (1) 
7

>  <PUBCHEM_PHARMACOPHORE_FEATURES>  (1) 
7
1 1 acceptor
1 23 hydrophobe
1 3 acceptor
1 4 acceptor
1 7 donor
5 5 6 8 9 10 rings
6 11 14 15 17 18 19 rings

>  <PUBCHEM_HEAVY_ATOM_COUNT>  (1) 
23

>  <PUBCHEM_ATOM_DEF_STEREO_COUNT>  (1) 
0

>  <PUBCHEM_ATOM_UDEF_STEREO_COUNT>  (1) 
0

>  <PUBCHEM_BOND_DEF_STEREO_COUNT>  (1) 
0

>  <PUBCHEM_BOND_UDEF_STEREO_COUNT>  (1) 
0

>  <PUBCHEM_ISOTOPIC_ATOM_COUNT>  (1) 
0

>  <PUBCHEM_COMPONENT_COUNT>  (1) 
1

>  <PUBCHEM_CACTVS_TAUTO_COUNT>  (1) 
2

>  <PUBCHEM_CONFORMER_ID>  (1) 
0000AC6C00000001

>  <PUBCHEM_MMFF94_ENERGY>  (1) 
74.8267

>  <PUBCHEM_FEATURE_SELFOVERLAP>  (1) 
35.551

>  <PUBCHEM_SHAPE_FINGERPRINT>  (1) 
10165383 225 18259990383972390652
10411042 1 17761775062073560450
10595046 47 18342173337856891261
106641 1 11458430167559000548
12236239 1 18272368681071053463
12293681 160 17917715724826633497
12644460 14 18186796964073388498
12730499 353 18335146375316549363
12788726 201 17274546413114641961
13533116 47 17604425193760703307
13878862 14 18190999258738859933
13955234 65 18188486857046807138
14528608 73 18341609351766663197
14790565 3 18337956808430961972
15196674 1 18339642347087185734
15475509 35 16009299886924394514
18222031 100 9871475300603587332
18335252 114 18341890766608966340
19427546 62 18409168809645231003
20157964 124 18338237068690946417
20281389 69 18260547793260023517
21033648 29 18268141131713720960
21049683 118 18190722301845958770
23402655 69 18272366498948176727
23559900 14 16343696685798501706
23845131 108 18259989296444273547
255183 451 17698448728378646286
293599 30 18409730703067754932
29717793 49 17632582634650401868
335352 9 18411140243274202166
3472631 163 18272936041898028245
34934 24 18413106161026448247
350125 39 18336260155379479404
4073 2 18113624516811013459
4340502 62 16805322193250304922
474 4 18410576184217119338
5104073 3 18186518809069663011
5385378 56 18333446530698580410
59682541 52 17560818601991107564
59755656 520 18335134354135871054
633830 44 18343297097862803294
77188 2 17689716359627939686
8272917 22 18411982416634343903

>  <PUBCHEM_SHAPE_MULTIPOLES>  (1) 
434.91
16.13
3.07
0.77
26.53
1.58
0.06
-14.19
-0.41
-2.7
0.25
-0.12
0.18
-1.12

>  <PUBCHEM_SHAPE_SELFOVERLAP>  (1) 
913.225

>  <PUBCHEM_SHAPE_VOLUME>  (1) 
244.5

>  <PUBCHEM_COORDINATE_TYPE>  (1) 
2
5
10

$$$$
