44142
     RDKit          3D

 24 25  0  0  1  0  0  0  0  0999 V2000
    0.6614    1.1593   -0.1453 O   0  0  0  0  0  0  0  0  0  0  0  0
   -4.0065    0.1872    0.0233 O   0  0  0  0  0  0  0  0  0  0  0  0
   -1.5572    0.6321    0.6386 O   0  0  0  0  0  0  0  0  0  0  0  0
   -3.4037   -1.7770   -1.0388 O   0  0  0  0  0  0  0  0  0  0  0  0
    2.6999   -1.6175    0.3084 N   0  0  0  0  0  0  0  0  0  0  0  0
    2.5705   -0.2184    0.2119 N   0  0  0  0  0  0  0  0  0  0  0  0
   -0.8009   -1.3280   -0.3962 N   0  0  0  0  0  0  0  0  0  0  0  0
    1.4480   -2.1709    0.0361 C   0  0  0  0  0  0  0  0  0  0  0  0
    0.5218   -1.2206   -0.1409 C   0  0  0  0  0  0  0  0  0  0  0  0
    1.2198    0.0840   -0.0019 C   0  0  0  0  0  0  0  0  0  0  0  0
    3.6712    0.6548    0.0265 C   0  0  0  0  0  0  0  0  0  0  0  0
    3.5462   -2.1649    1.3642 C   0  0  0  0  0  0  0  0  0  0  0  0
    1.2438   -3.6484    0.0160 C   0  0  0  0  0  0  0  0  0  0  0  0
    3.5154    2.0328    0.2068 C   0  0  0  0  0  0  0  0  0  0  0  0
    4.9217    0.1451   -0.3376 C   0  0  0  0  0  0  0  0  0  0  0  0
   -6.2056    1.1262    0.2550 C   0  0  0  0  0  0  0  0  0  0  0  0
   -7.6924    0.9533   -0.0421 C   0  0  0  0  0  0  0  0  0  0  0  0
   -5.3834   -0.0277   -0.3012 C   0  0  0  0  0  0  0  0  0  0  0  0
   -1.7465   -0.3976    0.0089 C   0  0  0  0  0  0  0  0  0  0  0  0
    4.5987    2.8924    0.0247 C   0  0  0  0  0  0  0  0  0  0  0  0
    6.0049    1.0049   -0.5195 C   0  0  0  0  0  0  0  0  0  0  0  0
    5.8434    2.3785   -0.3384 C   0  0  0  0  0  0  0  0  0  0  0  0
   -8.5146    2.0855    0.5524 C   0  0  0  0  0  0  0  0  0  0  0  0
   -3.1560   -0.7651   -0.4109 C   0  0  0  0  0  0  0  0  0  0  0  0
  1 10  2  0
  2 18  1  0
  2 24  1  0
  3 19  2  0
  4 24  2  0
  5  6  1  0
  5  8  1  0
  5 12  1  0
  6 10  1  0
  6 11  1  0
  7  9  1  0
  7 19  1  0
  8  9  2  0
  8 13  1  0
  9 10  1  0
 11 14  2  0
 11 15  1  0
 14 20  1  0
 15 21  2  0
 16 17  1  0
 16 18  1  0
 17 23  1  0
 19 24  1  0
 20 22  2  0
 21 22  1  0
M  END
>  <PUBCHEM_COMPOUND_CID>  (1) 
44142

>  <PUBCHEM_CONFORMER_RMSD>  (1) 
0.8

>  <PUBCHEM_CONFORMER_DIVERSEORDER>  (1) 
1
57
138
163
134
13
8
128
49
150
156
170
142
175
127
74
58
151
47
179
162
139
48
168
91
50
113
85
146
54
152
98
83
66
38
129
55
72
21
59
100
184
164
99
177
27
43
153
73
145
104
154
174
75
30
93
63
147
101
119
20
41
172
14
102
126
160
94
33
95
132
61
18
46
11
161
82
32
149
92
22
186
111
89
108
135
112
64
7
133
56
125
122
5
167
141
40
19
103
130
26
42
185
166
4
28
44
51
96
79
157
23
144
183
77
109
148
123
86
137
178
87
118
67
31
3
65
124
181
68
53
165
80
90
60
97
115
84
159
158
45
15
182
25
117
6
88
140
110
131
78
173
16
24
136
34
76
37
143
169
106
180
17
107
70
62
69
120
116
155
114
171
35
29
12
176
36
39
9
2
10
105
71
81
121
52

>  <PUBCHEM_MMFF94_PARTIAL_CHARGES>  (1) 
27
1 -0.57
10 0.62
11 0.12
12 0.37
13 0.14
14 -0.15
15 -0.15
18 0.28
19 0.63
2 -0.43
20 -0.15
21 -0.15
22 -0.15
24 0.72
3 -0.57
31 0.37
32 0.15
33 0.15
4 -0.57
40 0.15
41 0.15
42 0.15
5 -0.49
6 -0.16
7 -0.54
8 -0.04
9 0.12

>  <PUBCHEM_EFFECTIVE_ROTOR_COUNT>  (1) 
8

>  <PUBCHEM_PHARMACOPHORE_FEATURES>  (1) 
7
1 1 acceptor
1 23 hydrophobe
1 3 acceptor
1 4 acceptor
1 7 donor
5 5 6 8 9 10 rings
6 11 14 15 20 21 22 rings

>  <PUBCHEM_HEAVY_ATOM_COUNT>  (1) 
24

>  <PUBCHEM_ATOM_DEF_STEREO_COUNT>  (1) 
0

>  <PUBCHEM_ATOM_UDEF_STEREO_COUNT>  (1) 
0

>  <PUBCHEM_BOND_DEF_STEREO_COUNT>  (1) 
0

>  <PUBCHEM_BOND_UDEF_STEREO_COUNT>  (1) 
0

>  <PUBCHEM_ISOTOPIC_ATOM_COUNT>  (1) 
0

>  <PUBCHEM_COMPONENT_COUNT>  (1) 
1

>  <PUBCHEM_CACTVS_TAUTO_COUNT>  (1) 
2

>  <PUBCHEM_CONFORMER_ID>  (1) 
0000AC6E00000001

>  <PUBCHEM_MMFF94_ENERGY>  (1) 
74.6134

>  <PUBCHEM_FEATURE_SELFOVERLAP>  (1) 
35.551

>  <PUBCHEM_SHAPE_FINGERPRINT>  (1) 
10 15 18186242827820054753
10165383 225 18187088373720826948
10411042 1 17833550094687393434
10554248 39 18199737056554711159
10595046 47 18342172251166848903
106641 1 11458426864787159204
10835480 77 18335138683805491137
12236239 1 18271805748055005687
12293681 160 17989211485702824872
125118 31 18336827473526189569
12730499 353 18334581239034922250
12788726 201 17346041074289249513
13533116 47 17676763167479612083
13955234 65 18187921716770873642
14251764 18 18342172264141363117
14528608 73 18341326794542583502
14790565 3 18265054811211947788
15183329 4 18060420201621033617
15475509 35 16009580266737231178
15778101 99 18412265073328083887
16120349 18 18409162191585560781
18335252 114 18342735208729536444
19427546 62 18408887343105545595
20157964 124 18410013200452338881
20281389 69 18260546689463893517
20526848 3 18413674608691281469
20642791 178 17971201558360377381
21033648 29 18267014141101527792
21585482 111 18263647265105313413
21781055 127 16988290750787411251
23559900 14 18197782314371093756
23845131 108 18260269684984175370
255183 451 17770788905537038766
335352 9 18410576206794307718
3472631 163 18272936046140137589
350125 39 18335696127515841372
397830 11 18041293127630131059
4073 2 18261116279769246091
4340502 62 16805320002938335722
5104073 3 18113896083097868259
5385378 56 18261107465957848994
5718773 13 9151172043967868533
58260988 393 15502646083785487492
633830 44 18342733065857256702
8272917 22 18411418384481104262

>  <PUBCHEM_SHAPE_MULTIPOLES>  (1) 
455.49
18.86
3.21
0.79
38.3
1.12
0.08
-17.34
0.55
-3.45
0.23
-0.1
0.19
-1.52

>  <PUBCHEM_SHAPE_SELFOVERLAP>  (1) 
951.126

>  <PUBCHEM_SHAPE_VOLUME>  (1) 
257.4

>  <PUBCHEM_COORDINATE_TYPE>  (1) 
2
5
10

$$$$
