4415
     RDKit          3D

 29 32  0  0  1  0  0  0  0  0999 V2000
    2.6911   -2.4759   -0.4795 S   0  0  0  0  0  0  0  0  0  0  0  0
    2.6654    1.6549   -1.9862 O   0  0  0  0  0  0  0  0  0  0  0  0
    4.2214    1.5142    1.3801 O   0  0  0  0  0  0  0  0  0  0  0  0
   -0.4239    1.6264   -1.6505 O   0  0  0  0  0  0  0  0  0  0  0  0
    6.2304    0.5051    1.0042 O   0  0  0  0  0  0  0  0  0  0  0  0
   -1.8260    2.4505   -0.1034 O   0  0  0  0  0  0  0  0  0  0  0  0
    2.8439    0.0998   -0.2198 N   0  0  0  0  0  0  0  0  0  0  0  0
   -1.1890   -0.2191   -0.4324 N   0  0  0  0  0  0  0  0  0  0  0  0
    1.7980   -0.9222   -0.1139 C   0  0  0  0  0  0  0  0  0  0  0  0
    4.2544   -1.7943    0.2667 C   0  0  0  0  0  0  0  0  0  0  0  0
    4.2372   -0.3015   -0.1311 C   0  0  0  0  0  0  0  0  0  0  0  0
    1.0969   -0.2357   -1.2939 C   0  0  0  0  0  0  0  0  0  0  0  0
    2.2814    0.7502   -1.2801 C   0  0  0  0  0  0  0  0  0  0  0  0
    4.1983   -2.0384    1.7818 C   0  0  0  0  0  0  0  0  0  0  0  0
    5.4552   -2.5250   -0.3376 C   0  0  0  0  0  0  0  0  0  0  0  0
   -0.2517    0.5091   -1.1558 C   0  0  0  0  0  0  0  0  0  0  0  0
    5.0292    0.5940    0.7987 C   0  0  0  0  0  0  0  0  0  0  0  0
   -2.5179    0.1495   -0.1122 C   0  0  0  0  0  0  0  0  0  0  0  0
   -3.5092   -0.8238    0.0402 C   0  0  0  0  0  0  0  0  0  0  0  0
   -2.7942    1.5016    0.0440 C   0  0  0  0  0  0  0  0  0  0  0  0
   -4.8248   -0.4128    0.3612 C   0  0  0  0  0  0  0  0  0  0  0  0
   -4.0879    1.9057    0.3598 C   0  0  0  0  0  0  0  0  0  0  0  0
   -3.2362   -2.1925   -0.1165 C   0  0  0  0  0  0  0  0  0  0  0  0
   -5.0976    0.9559    0.5176 C   0  0  0  0  0  0  0  0  0  0  0  0
   -5.8286   -1.3827    0.5167 C   0  0  0  0  0  0  0  0  0  0  0  0
   -4.2457   -3.1425    0.0417 C   0  0  0  0  0  0  0  0  0  0  0  0
   -5.5393   -2.7383    0.3578 C   0  0  0  0  0  0  0  0  0  0  0  0
   -1.5413    3.2818    1.0025 C   0  0  0  0  0  0  0  0  0  0  0  0
   -0.0895    3.7061    0.9398 C   0  0  0  0  0  0  0  0  0  0  0  0
  1  9  1  0
  1 10  1  0
  2 13  2  0
  3 17  1  0
  4 16  2  0
  5 17  2  0
  6 20  1  0
  6 28  1  0
  7  9  1  0
  7 11  1  0
  7 13  1  0
  8 16  1  0
  8 18  1  0
  9 12  1  0
 10 11  1  0
 10 14  1  0
 10 15  1  0
 11 17  1  0
 12 13  1  0
 12 16  1  0
 18 19  1  0
 18 20  2  0
 19 21  2  0
 19 23  1  0
 20 22  1  0
 21 24  1  0
 21 25  1  0
 22 24  2  0
 23 26  2  0
 25 27  2  0
 26 27  1  0
 28 29  1  0
M  END
>  <PUBCHEM_COMPOUND_CID>  (1) 
4415

>  <PUBCHEM_CONFORMER_RMSD>  (1) 
0.8

>  <PUBCHEM_CONFORMER_DIVERSEORDER>  (1) 
1
210
183
191
188
28
82
7
203
44
197
177
60
138
131
91
31
204
181
68
130
36
185
27
115
105
117
59
125
63
171
151
51
147
121
92
123
111
157
178
164
143
13
71
90
159
23
112
199
129
56
137
58
124
189
61
208
26
207
97
179
35
41
29
67
94
134
37
195
21
150
19
166
85
152
187
192
209
145
103
48
55
116
72
206
4
144
201
180
83
142
96
98
140
47
53
14
190
120
49
81
38
42
86
128
146
75
104
57
165
100
74
30
176
149
186
184
108
52
156
6
10
155
174
9
148
33
66
193
24
200
194
113
62
169
11
102
2
154
95
132
136
205
106
89
119
18
139
202
77
160
158
80
127
196
22
114
16
32
126
161
54
87
211
3
25
107
5
173
34
64
135
65
141
17
167
12
122
99
8
50
84
69
43
198
73
39
46
162
45
168
170
163
118
110
109
76
20
79
93
78
172
153
70
133
88
175
40
15
182
101

>  <PUBCHEM_MMFF94_PARTIAL_CHARGES>  (1) 
32
1 -0.45
10 0.23
11 0.36
12 0.11
13 0.58
16 0.58
17 0.66
18 0.12
2 -0.57
20 0.08
22 -0.15
23 -0.15
24 -0.15
25 -0.15
26 -0.15
27 -0.15
28 0.28
3 -0.65
39 0.37
4 -0.57
40 0.5
41 0.15
42 0.15
43 0.15
44 0.15
45 0.15
46 0.15
5 -0.57
6 -0.36
7 -0.59
8 -0.55
9 0.44

>  <PUBCHEM_EFFECTIVE_ROTOR_COUNT>  (1) 
6.8

>  <PUBCHEM_PHARMACOPHORE_FEATURES>  (1) 
13
1 12 anion
1 2 acceptor
1 3 acceptor
1 4 acceptor
1 5 acceptor
1 6 acceptor
1 8 donor
3 10 14 15 hydrophobe
3 3 5 17 anion
4 7 9 12 13 rings
6 18 19 20 21 22 24 rings
6 19 21 23 25 26 27 rings
7 1 7 9 10 11 12 13 rings

>  <PUBCHEM_HEAVY_ATOM_COUNT>  (1) 
29

>  <PUBCHEM_ATOM_DEF_STEREO_COUNT>  (1) 
0

>  <PUBCHEM_ATOM_UDEF_STEREO_COUNT>  (1) 
3

>  <PUBCHEM_BOND_DEF_STEREO_COUNT>  (1) 
0

>  <PUBCHEM_BOND_UDEF_STEREO_COUNT>  (1) 
0

>  <PUBCHEM_ISOTOPIC_ATOM_COUNT>  (1) 
0

>  <PUBCHEM_COMPONENT_COUNT>  (1) 
1

>  <PUBCHEM_CACTVS_TAUTO_COUNT>  (1) 
2

>  <PUBCHEM_CONFORMER_ID>  (1) 
0000113F00000001

>  <PUBCHEM_MMFF94_ENERGY>  (1) 
105.0211

>  <PUBCHEM_FEATURE_SELFOVERLAP>  (1) 
69.861

>  <PUBCHEM_SHAPE_FINGERPRINT>  (1) 
10319926 262 18270956830900422442
11552529 35 18266454317672872274
11963148 33 16972234952302929375
12107183 9 17974289820197332691
12596602 18 18411417293838518602
12633257 1 18201167542124806585
12788726 201 18266480804999684037
12892183 10 18342451505207695764
13009979 54 18336839597448258940
13583140 156 18060409218524078388
14341114 176 18339645547017123808
14394314 77 18409732859605561545
14950920 106 18266728091984114282
15183329 4 8646497327235124762
15250474 111 18262241135329148535
15927050 60 17189819476917697700
17349148 13 17676211285683155695
17492 89 18339362963886694430
17780758 139 18337666399943056226
17857418 61 18333731342749147127
1813 80 17022906735335404822
18222031 100 17676207957542450590
18608769 82 18341893009488749194
19315092 285 17242143835450936296
19377110 9 18336556017779193937
20028762 73 18334294266780531050
20511986 3 18187637042280078893
21033648 29 16486712289870525071
21792934 111 18410578384353289305
21859007 373 17680422248357970485
22122407 14 15985105189484424595
23366157 5 17904209470785454677
23522609 53 17753362819052335756
23559900 14 18056221114567801501
3004659 81 18041002864322534151
312425 54 18411139099847758331
3383291 50 17968384558621680843
3882209 13 17337002246632772327
3886686 26 17762621689904319862
392239 28 18342177794925422576
463206 1 18264212581226758691
5104073 3 18341326708891411122
57527293 21 17346597512560462519
67856867 119 18261396709982077429
6823239 73 18128552470038253110

>  <PUBCHEM_SHAPE_MULTIPOLES>  (1) 
561.35
14.16
3.87
1.29
2.25
0.91
-0.16
-8.09
4.41
-2.25
0.89
1.35
0.41
-0.14

>  <PUBCHEM_SHAPE_SELFOVERLAP>  (1) 
1208.761

>  <PUBCHEM_SHAPE_VOLUME>  (1) 
312.1

>  <PUBCHEM_COORDINATE_TYPE>  (1) 
2
5
10

$$$$
