44153
     RDKit          3D

 16 18  0  0  0  0  0  0  0  0999 V2000
    4.6434   -1.7273    0.0001 Br  0  0  0  0  0  0  0  0  0  0  0  0
    4.6435    1.7267    0.0016 Br  0  0  0  0  0  0  0  0  0  0  0  0
   -4.6433   -1.7276    0.0014 Br  0  0  0  0  0  0  0  0  0  0  0  0
   -4.6441    1.7265   -0.0009 Br  0  0  0  0  0  0  0  0  0  0  0  0
    0.6995   -0.6940   -0.0005 C   0  0  0  0  0  0  0  0  0  0  0  0
    0.6994    0.6945   -0.0004 C   0  0  0  0  0  0  0  0  0  0  0  0
   -0.6993   -0.6941   -0.0004 C   0  0  0  0  0  0  0  0  0  0  0  0
   -0.6993    0.6945   -0.0002 C   0  0  0  0  0  0  0  0  0  0  0  0
    1.8380   -1.4423   -0.0004 C   0  0  0  0  0  0  0  0  0  0  0  0
    1.8380    1.4425   -0.0006 C   0  0  0  0  0  0  0  0  0  0  0  0
   -1.8379   -1.4423   -0.0004 C   0  0  0  0  0  0  0  0  0  0  0  0
   -1.8381    1.4425    0.0004 C   0  0  0  0  0  0  0  0  0  0  0  0
    3.0322   -0.7107   -0.0002 C   0  0  0  0  0  0  0  0  0  0  0  0
    3.0322    0.7108   -0.0004 C   0  0  0  0  0  0  0  0  0  0  0  0
   -3.0320   -0.7106    0.0001 C   0  0  0  0  0  0  0  0  0  0  0  0
   -3.0322    0.7108    0.0005 C   0  0  0  0  0  0  0  0  0  0  0  0
  1 13  1  0
  2 14  1  0
  3 15  1  0
  4 16  1  0
  5  6  1  0
  5  7  1  0
  5  9  2  0
  6  8  1  0
  6 10  2  0
  7  8  2  0
  7 11  1  0
  8 12  1  0
  9 13  1  0
 10 14  1  0
 11 15  2  0
 12 16  2  0
 13 14  2  0
 15 16  1  0
M  END
>  <PUBCHEM_COMPOUND_CID>  (1) 
44153

>  <PUBCHEM_CONFORMER_RMSD>  (1) 
0.4

>  <PUBCHEM_CONFORMER_DIVERSEORDER>  (1) 
1

>  <PUBCHEM_MMFF94_PARTIAL_CHARGES>  (1) 
16
1 -0.11
10 -0.15
11 -0.15
12 -0.15
13 0.11
14 0.11
15 0.11
16 0.11
17 0.15
18 0.15
19 0.15
2 -0.11
20 0.15
3 -0.11
4 -0.11
9 -0.15

>  <PUBCHEM_EFFECTIVE_ROTOR_COUNT>  (1) 
0

>  <PUBCHEM_PHARMACOPHORE_FEATURES>  (1) 
7
1 1 hydrophobe
1 2 hydrophobe
1 3 hydrophobe
1 4 hydrophobe
4 5 6 7 8 rings
6 5 6 9 10 13 14 rings
6 7 8 11 12 15 16 rings

>  <PUBCHEM_HEAVY_ATOM_COUNT>  (1) 
16

>  <PUBCHEM_ATOM_DEF_STEREO_COUNT>  (1) 
0

>  <PUBCHEM_ATOM_UDEF_STEREO_COUNT>  (1) 
0

>  <PUBCHEM_BOND_DEF_STEREO_COUNT>  (1) 
0

>  <PUBCHEM_BOND_UDEF_STEREO_COUNT>  (1) 
0

>  <PUBCHEM_ISOTOPIC_ATOM_COUNT>  (1) 
0

>  <PUBCHEM_COMPONENT_COUNT>  (1) 
1

>  <PUBCHEM_CACTVS_TAUTO_COUNT>  (1) 
1

>  <PUBCHEM_CONFORMER_ID>  (1) 
0000AC7900000001

>  <PUBCHEM_MMFF94_ENERGY>  (1) 
75.9395

>  <PUBCHEM_FEATURE_SELFOVERLAP>  (1) 
36.17

>  <PUBCHEM_SHAPE_FINGERPRINT>  (1) 
10014705 185 18260825986755041605
10608611 8 18410853261105315492
10967382 1 18338516477049811878
11405975 8 18410575041713412851
11471102 20 18411696560959536476
11806522 49 18336263556313186823
12032990 46 18410577283686561831
12403259 226 18410849966865529380
12507560 40 18411701001760340235
12916754 54 18412547591417468402
13140716 1 18410856516690116944
13167823 11 18410571790423572134
13288520 33 18412266099234709734
15196674 1 18410575088958046209
15219456 202 18411700993165137388
15442244 35 18339080376576199032
15536298 74 18413108360107544064
16945 1 18410855464423129094
17492 89 18411138034659588198
17804303 29 18412266103698228638
17834072 33 18413108376823378166
18186145 218 17894344462711756238
200 152 18131626790437550471
20510252 161 18343587352090082025
20645477 56 18333448737969392213
20645477 70 18413108351402052438
21267235 1 18410864260516651490
21501502 16 18410856563940038117
221490 88 18408891754110434866
23402539 116 18200584809720629933
23402655 69 18342735208971947605
23463225 33 18409448068576455294
23557571 272 18200604694981366981
23559900 14 18342172212048237938
2748010 2 18410855464423129271
2871803 45 18261104205909203819
335352 9 18266458715471217087
34934 24 18410849962570282752
3545911 37 18410858762974252444
4214541 1 18410855443006360353
474 4 17459475627179332932
4990 188 18059587896887819692
5104073 3 18410855455833195443
58051976 100 18337390435472638119
633830 44 17675927594629849416
69090 78 18340482284008452607
7364860 26 18341895191173860406
77779 3 18410857663446384645
8809292 202 18333736805530816387
9709674 26 18409172146486517427

>  <PUBCHEM_SHAPE_MULTIPOLES>  (1) 
353.04
10.18
2.26
0.65
0
0
0
0
0
0
0
0
0
0

>  <PUBCHEM_SHAPE_SELFOVERLAP>  (1) 
737.337

>  <PUBCHEM_SHAPE_VOLUME>  (1) 
205.6

>  <PUBCHEM_COORDINATE_TYPE>  (1) 
2
5
10

$$$$
