44159
     RDKit          3D

 12 12  0  0  0  0  0  0  0  0999 V2000
    2.6469    1.3670    1.2149 O   0  0  0  0  0  0  0  0  0  0  0  0
    1.9627   -0.2030   -0.0150 N   0  0  0  0  0  0  0  0  0  0  0  0
    2.3738    1.0484    0.0514 N   0  0  0  0  0  0  0  0  0  0  0  0
   -0.4374   -0.0733   -0.5181 C   0  0  0  0  0  0  0  0  0  0  0  0
    0.9217   -0.4433   -1.0146 C   0  0  0  0  0  0  0  0  0  0  0  0
   -1.2387   -1.0052    0.1415 C   0  0  0  0  0  0  0  0  0  0  0  0
   -0.9024    1.2257   -0.7224 C   0  0  0  0  0  0  0  0  0  0  0  0
   -2.5051   -0.6380    0.5967 C   0  0  0  0  0  0  0  0  0  0  0  0
   -0.7626   -2.4019    0.3715 C   0  0  0  0  0  0  0  0  0  0  0  0
   -2.1686    1.5931   -0.2671 C   0  0  0  0  0  0  0  0  0  0  0  0
   -2.9700    0.6612    0.3924 C   0  0  0  0  0  0  0  0  0  0  0  0
    3.0797   -1.1308   -0.2312 C   0  0  0  0  0  0  0  0  0  0  0  0
  1  3  2  0
  2  3  1  0
  2  5  1  0
  2 12  1  0
  4  5  1  0
  4  6  2  0
  4  7  1  0
  6  8  1  0
  6  9  1  0
  7 10  2  0
  8 11  2  0
 10 11  1  0
M  END
>  <PUBCHEM_COMPOUND_CID>  (1) 
44159

>  <PUBCHEM_CONFORMER_RMSD>  (1) 
0.6

>  <PUBCHEM_CONFORMER_DIVERSEORDER>  (1) 
1
21
22
20
18
25
19
17
11
7
16
12
6
4
8
24
2
13
3
5
9
15
10
14
23

>  <PUBCHEM_MMFF94_PARTIAL_CHARGES>  (1) 
16
1 -0.16
10 -0.15
11 -0.15
12 0.27
15 0.15
16 0.15
2 -0.36
20 0.15
21 0.15
3 -0.01
4 -0.14
5 0.41
6 -0.14
7 -0.15
8 -0.15
9 0.14

>  <PUBCHEM_EFFECTIVE_ROTOR_COUNT>  (1) 
3

>  <PUBCHEM_PHARMACOPHORE_FEATURES>  (1) 
1
6 4 6 7 8 10 11 rings

>  <PUBCHEM_HEAVY_ATOM_COUNT>  (1) 
12

>  <PUBCHEM_ATOM_DEF_STEREO_COUNT>  (1) 
0

>  <PUBCHEM_ATOM_UDEF_STEREO_COUNT>  (1) 
0

>  <PUBCHEM_BOND_DEF_STEREO_COUNT>  (1) 
0

>  <PUBCHEM_BOND_UDEF_STEREO_COUNT>  (1) 
0

>  <PUBCHEM_ISOTOPIC_ATOM_COUNT>  (1) 
0

>  <PUBCHEM_COMPONENT_COUNT>  (1) 
1

>  <PUBCHEM_CACTVS_TAUTO_COUNT>  (1) 
1

>  <PUBCHEM_CONFORMER_ID>  (1) 
0000AC7F00000001

>  <PUBCHEM_MMFF94_ENERGY>  (1) 
35.561

>  <PUBCHEM_FEATURE_SELFOVERLAP>  (1) 
5.074

>  <PUBCHEM_SHAPE_FINGERPRINT>  (1) 
10857977 72 18187653522027525281
12382932 28 18264208199889708904
12932764 1 18272940439744033494
13380535 21 18339653338172136460
15775835 57 18189343380851591658
16945 1 18193000532798581805
17804303 29 18263372395223099726
19973954 147 18411983576438901084
20528008 55 18411416237107758245
20645464 45 18342458136072763222
20653085 51 17060348379063218593
20871998 184 18268442393710233031
21028194 46 18343303630428698365
21501502 16 18342174509470548022
23211744 41 18271529710643989887
23388829 49 17333086932690099223
27216 239 17555431170644641752
2748010 2 18262527996178491487
369184 2 18342175570364211447
5084963 1 18338807718813828301
53812653 166 18120661236208776661
54338 74 18044648939443021823
7364860 26 17834678193331927463
81228 2 18190742131726001931

>  <PUBCHEM_SHAPE_MULTIPOLES>  (1) 
231.12
4.63
1.95
0.92
1.93
0.61
-0.03
-0.84
-0.89
-0.26
-0.24
0.24
-0.16
0.65

>  <PUBCHEM_SHAPE_SELFOVERLAP>  (1) 
471.463

>  <PUBCHEM_SHAPE_VOLUME>  (1) 
136.1

>  <PUBCHEM_COORDINATE_TYPE>  (1) 
2
5
10

$$$$
