44163
     RDKit          3D

 16 17  0  0  0  0  0  0  0  0999 V2000
    0.2614   -2.7387    0.1514 Cl  0  0  0  0  0  0  0  0  0  0  0  0
    0.2633    2.7407    0.1386 Cl  0  0  0  0  0  0  0  0  0  0  0  0
   -1.1343   -0.0096   -2.5518 Cl  0  0  0  0  0  0  0  0  0  0  0  0
    4.8800   -0.0014    0.0170 Cl  0  0  0  0  0  0  0  0  0  0  0  0
    0.3664    0.0010    0.1432 C   0  0  0  0  0  0  0  0  0  0  0  0
   -1.0837    0.0017    0.1851 C   0  0  0  0  0  0  0  0  0  0  0  0
    1.0676   -1.2073    0.1272 C   0  0  0  0  0  0  0  0  0  0  0  0
    1.0684    1.2087    0.1206 C   0  0  0  0  0  0  0  0  0  0  0  0
   -1.8530   -0.0035   -0.9786 C   0  0  0  0  0  0  0  0  0  0  0  0
   -1.7070    0.0064    1.4330 C   0  0  0  0  0  0  0  0  0  0  0  0
    2.4620   -1.2078    0.0889 C   0  0  0  0  0  0  0  0  0  0  0  0
    2.4629    1.2080    0.0824 C   0  0  0  0  0  0  0  0  0  0  0  0
    3.1596   -0.0003    0.0664 C   0  0  0  0  0  0  0  0  0  0  0  0
   -3.2454   -0.0042   -0.8942 C   0  0  0  0  0  0  0  0  0  0  0  0
   -3.0994    0.0058    1.5172 C   0  0  0  0  0  0  0  0  0  0  0  0
   -3.8686    0.0006    0.3537 C   0  0  0  0  0  0  0  0  0  0  0  0
  1  7  1  0
  2  8  1  0
  3  9  1  0
  4 13  1  0
  5  6  1  0
  5  7  2  0
  5  8  1  0
  6  9  2  0
  6 10  1  0
  7 11  1  0
  8 12  2  0
  9 14  1  0
 10 15  2  0
 11 13  2  0
 12 13  1  0
 14 16  2  0
 15 16  1  0
M  END
>  <PUBCHEM_COMPOUND_CID>  (1) 
44163

>  <PUBCHEM_CONFORMER_RMSD>  (1) 
0.6

>  <PUBCHEM_CONFORMER_DIVERSEORDER>  (1) 
1

>  <PUBCHEM_MMFF94_PARTIAL_CHARGES>  (1) 
20
1 -0.18
10 -0.15
11 -0.15
12 -0.15
13 0.18
14 -0.15
15 -0.15
16 -0.15
17 0.15
18 0.15
19 0.15
2 -0.18
20 0.15
21 0.15
22 0.15
3 -0.18
4 -0.18
7 0.18
8 0.18
9 0.18

>  <PUBCHEM_EFFECTIVE_ROTOR_COUNT>  (1) 
1

>  <PUBCHEM_PHARMACOPHORE_FEATURES>  (1) 
2
6 5 7 8 11 12 13 rings
6 6 9 10 14 15 16 rings

>  <PUBCHEM_HEAVY_ATOM_COUNT>  (1) 
16

>  <PUBCHEM_ATOM_DEF_STEREO_COUNT>  (1) 
0

>  <PUBCHEM_ATOM_UDEF_STEREO_COUNT>  (1) 
0

>  <PUBCHEM_BOND_DEF_STEREO_COUNT>  (1) 
0

>  <PUBCHEM_BOND_UDEF_STEREO_COUNT>  (1) 
0

>  <PUBCHEM_ISOTOPIC_ATOM_COUNT>  (1) 
0

>  <PUBCHEM_COMPONENT_COUNT>  (1) 
1

>  <PUBCHEM_CACTVS_TAUTO_COUNT>  (1) 
1

>  <PUBCHEM_CONFORMER_ID>  (1) 
0000AC8300000001

>  <PUBCHEM_MMFF94_ENERGY>  (1) 
45.3467

>  <PUBCHEM_FEATURE_SELFOVERLAP>  (1) 
10.149

>  <PUBCHEM_SHAPE_FINGERPRINT>  (1) 
10219947 1 18410296908337296344
104564 63 18267870484412847072
12236239 1 17703791418438007931
13140716 1 18266456697675286616
13538477 17 17346587617198444279
13581323 91 15285354024498409464
13965767 371 16769053578089843145
14993402 34 18202280312015548430
15219456 202 17822007562671484835
15309172 13 18408888446795654458
15653759 3 17022618693327324128
15775835 57 17560806515277662321
15848702 151 17632026225963788390
16945 1 18410863161041446890
17844478 74 17749108880929859397
18175812 5 17603871138774098623
18186145 218 18343298197484953400
18219364 16 18334008415035933847
19049666 15 17532642430506267715
19422 9 17704072888972350679
200 152 18343295972981953515
20201158 50 18113337483597722403
20344682 1 17676204675960771391
20600515 1 16153721898805265607
20645476 183 17846490440175355311
20645477 70 18263915549519448439
21061003 4 18335141998597304849
21501502 16 18048320243154297446
23175994 123 18260271836746478572
23236772 104 17847058883001635683
23402539 116 18272364270361108444
23419403 2 15734791334219481754
23493267 7 17240752944161208112
23557571 272 16660363649443130287
23559900 14 16443617992308176562
23598291 2 17917142922366278533
23728640 28 15165443069265667987
25 1 18334568010704254031
2748010 2 18122340173695815694
3286 77 18262240052959875313
34934 24 18198625432470677185
350125 39 17616823566291173640
474 4 17772454927661467888
528886 8 18412539925053754562
568465 68 18114198444178298435
6992083 37 17704072919063573469
77492 1 17775846817710724297
81228 2 16391241402598394522
8272917 22 18270407062428362123

>  <PUBCHEM_SHAPE_MULTIPOLES>  (1) 
336.75
6.41
1.98
1.45
2.97
0
-0.78
0
0.68
0.87
0.19
-1.45
0
-0.01

>  <PUBCHEM_SHAPE_SELFOVERLAP>  (1) 
695.963

>  <PUBCHEM_SHAPE_VOLUME>  (1) 
186.1

>  <PUBCHEM_COORDINATE_TYPE>  (1) 
2
5
10

$$$$
