44160
     RDKit          3D

 12 12  0  0  0  0  0  0  0  0999 V2000
    2.5887   -1.5130   -1.1929 O   0  0  0  0  0  0  0  0  0  0  0  0
    2.2134    0.1845   -0.0004 N   0  0  0  0  0  0  0  0  0  0  0  0
    2.3571   -1.1256   -0.0414 N   0  0  0  0  0  0  0  0  0  0  0  0
   -0.1731    0.5612    0.4397 C   0  0  0  0  0  0  0  0  0  0  0  0
    1.2189    0.6513    0.9672 C   0  0  0  0  0  0  0  0  0  0  0  0
   -0.9196   -0.6006    0.6355 C   0  0  0  0  0  0  0  0  0  0  0  0
   -2.2216   -0.6845    0.1420 C   0  0  0  0  0  0  0  0  0  0  0  0
   -0.7284    1.6392   -0.2494 C   0  0  0  0  0  0  0  0  0  0  0  0
   -2.7770    0.3937   -0.5472 C   0  0  0  0  0  0  0  0  0  0  0  0
   -2.0305    1.5555   -0.7428 C   0  0  0  0  0  0  0  0  0  0  0  0
   -3.0200   -1.9265    0.3509 C   0  0  0  0  0  0  0  0  0  0  0  0
    3.4921    0.8646    0.2387 C   0  0  0  0  0  0  0  0  0  0  0  0
  1  3  2  0
  2  3  1  0
  2  5  1  0
  2 12  1  0
  4  5  1  0
  4  6  2  0
  4  8  1  0
  6  7  1  0
  7  9  2  0
  7 11  1  0
  8 10  2  0
  9 10  1  0
M  END
>  <PUBCHEM_COMPOUND_CID>  (1) 
44160

>  <PUBCHEM_CONFORMER_RMSD>  (1) 
0.6

>  <PUBCHEM_CONFORMER_DIVERSEORDER>  (1) 
1
11
27
14
29
33
25
19
16
12
28
24
17
32
15
36
7
18
20
5
30
10
2
4
35
22
31
37
26
9
3
13
23
21
34
8
6

>  <PUBCHEM_MMFF94_PARTIAL_CHARGES>  (1) 
16
1 -0.16
10 -0.15
11 0.14
12 0.27
15 0.15
16 0.15
17 0.15
18 0.15
2 -0.36
3 -0.01
4 -0.14
5 0.41
6 -0.15
7 -0.14
8 -0.15
9 -0.15

>  <PUBCHEM_EFFECTIVE_ROTOR_COUNT>  (1) 
3

>  <PUBCHEM_PHARMACOPHORE_FEATURES>  (1) 
1
6 4 6 7 8 9 10 rings

>  <PUBCHEM_HEAVY_ATOM_COUNT>  (1) 
12

>  <PUBCHEM_ATOM_DEF_STEREO_COUNT>  (1) 
0

>  <PUBCHEM_ATOM_UDEF_STEREO_COUNT>  (1) 
0

>  <PUBCHEM_BOND_DEF_STEREO_COUNT>  (1) 
0

>  <PUBCHEM_BOND_UDEF_STEREO_COUNT>  (1) 
0

>  <PUBCHEM_ISOTOPIC_ATOM_COUNT>  (1) 
0

>  <PUBCHEM_COMPONENT_COUNT>  (1) 
1

>  <PUBCHEM_CACTVS_TAUTO_COUNT>  (1) 
1

>  <PUBCHEM_CONFORMER_ID>  (1) 
0000AC8000000001

>  <PUBCHEM_MMFF94_ENERGY>  (1) 
33.4526

>  <PUBCHEM_FEATURE_SELFOVERLAP>  (1) 
5.074

>  <PUBCHEM_SHAPE_FINGERPRINT>  (1) 
107287 299 18060419149000137096
12716758 59 18263077730353979945
12897270 3 18408322176980017848
12932764 1 18041285352842526000
13296908 3 18341897385211318550
15219456 202 18342457032213394536
15775835 57 16805876308313709444
16945 1 18188478091403086185
17134986 127 17467055363572057805
20201158 50 18342734105064917626
20279233 1 18341888589081197720
20645477 70 17917988334969869343
20871998 184 18340485664089835319
20871998 22 18264214780233540323
21028194 46 8286204958845876339
21061003 4 17774720982091631360
22213442 358 18264204897202445237
22802520 49 18339362950658232053
23402539 116 18041265673518640376
23552423 10 18113898255944591827
23557571 272 18334861640369977092
23559900 14 18266446621782516242
2748010 2 17971738124724941461
3248919 1 18200866288654749672
369184 2 15769484366159995625
7364860 26 17905328781821925457
8030462 33 17240482481374805298
81228 2 18187366536697691809

>  <PUBCHEM_SHAPE_MULTIPOLES>  (1) 
231.12
5.36
1.83
0.92
2.47
0.18
0.06
1.3
0.55
-0.8
0.29
0.22
0.08
0.92

>  <PUBCHEM_SHAPE_SELFOVERLAP>  (1) 
470.234

>  <PUBCHEM_SHAPE_VOLUME>  (1) 
136.6

>  <PUBCHEM_COORDINATE_TYPE>  (1) 
2
5
10

$$$$
