4417
     RDKit          3D

 28 30  0  0  1  0  0  0  0  0999 V2000
   -1.4910   -3.4782   -1.0897 O   0  0  0  0  0  0  0  0  0  0  0  0
    1.0712   -0.9462   -0.6606 O   0  0  0  0  0  0  0  0  0  0  0  0
    1.3671   -1.3511    1.5915 O   0  0  0  0  0  0  0  0  0  0  0  0
    4.4631    0.4903   -0.8317 N   0  0  0  0  0  0  0  0  0  0  0  0
   -0.9413   -3.6443    0.2282 C   0  0  0  0  0  0  0  0  0  0  0  0
   -1.4018   -2.5114    1.1247 C   0  0  0  0  0  0  0  0  0  0  0  0
   -1.3904   -5.0150    0.7043 C   0  0  0  0  0  0  0  0  0  0  0  0
   -0.8736   -1.1414    0.6665 C   0  0  0  0  0  0  0  0  0  0  0  0
   -1.4004   -5.7933   -0.5872 C   0  0  0  0  0  0  0  0  0  0  0  0
   -1.9152   -4.7628   -1.5696 C   0  0  0  0  0  0  0  0  0  0  0  0
   -1.3462   -0.0328    1.6250 C   0  0  0  0  0  0  0  0  0  0  0  0
    0.6477   -1.1580    0.6197 C   0  0  0  0  0  0  0  0  0  0  0  0
   -1.3095    1.3423    1.0010 C   0  0  0  0  0  0  0  0  0  0  0  0
   -2.4093    1.8755    0.3093 C   0  0  0  0  0  0  0  0  0  0  0  0
   -0.1301    2.0753    1.1366 C   0  0  0  0  0  0  0  0  0  0  0  0
    2.4893   -0.9573   -0.8496 C   0  0  0  0  0  0  0  0  0  0  0  0
   -2.3114    3.1707   -0.2527 C   0  0  0  0  0  0  0  0  0  0  0  0
    3.0177    0.4563   -0.6651 C   0  0  0  0  0  0  0  0  0  0  0  0
   -3.6041    1.1520    0.1630 C   0  0  0  0  0  0  0  0  0  0  0  0
   -0.0340    3.3491    0.5841 C   0  0  0  0  0  0  0  0  0  0  0  0
   -1.1168    3.8945   -0.1063 C   0  0  0  0  0  0  0  0  0  0  0  0
   -3.4111    3.7042   -0.9443 C   0  0  0  0  0  0  0  0  0  0  0  0
    4.9171    1.8477   -1.1439 C   0  0  0  0  0  0  0  0  0  0  0  0
    5.1353   -0.0026    0.3730 C   0  0  0  0  0  0  0  0  0  0  0  0
   -4.6866    1.6975   -0.5277 C   0  0  0  0  0  0  0  0  0  0  0  0
   -4.5904    2.9712   -1.0803 C   0  0  0  0  0  0  0  0  0  0  0  0
    4.6121    2.8045   -0.0039 C   0  0  0  0  0  0  0  0  0  0  0  0
    6.6426   -0.0367    0.1857 C   0  0  0  0  0  0  0  0  0  0  0  0
  1  5  1  0
  1 10  1  0
  2 12  1  0
  2 16  1  0
  3 12  2  0
  4 18  1  0
  4 23  1  0
  4 24  1  0
  5  6  1  0
  5  7  1  0
  6  8  1  0
  7  9  1  0
  8 11  1  0
  8 12  1  0
  9 10  1  0
 11 13  1  0
 13 14  1  0
 13 15  2  0
 14 17  2  0
 14 19  1  0
 15 20  1  0
 16 18  1  0
 17 21  1  0
 17 22  1  0
 19 25  2  0
 20 21  2  0
 22 26  2  0
 23 27  1  0
 24 28  1  0
 25 26  1  0
M  END
>  <PUBCHEM_COMPOUND_CID>  (1) 
4417

>  <PUBCHEM_CONFORMER_RMSD>  (1) 
1.4

>  <PUBCHEM_CONFORMER_DIVERSEORDER>  (1) 
1
25
46
36
62
57
39
11
2
21
70
8
34
61
47
50
15
29
45
60
33
28
23
63
52
5
69
38
51
16
32
14
64
12
37
24
66
18
35
42
13
20
30
27
56
26
9
43
49
44
6
54
48
41
67
58
72
7
10
53
59
68
31
40
65
71
19
17
4
55
22
3

>  <PUBCHEM_MMFF94_PARTIAL_CHARGES>  (1) 
28
1 -0.56
10 0.28
11 0.14
12 0.66
13 -0.14
15 -0.15
16 0.28
18 0.27
19 -0.15
2 -0.43
20 -0.15
21 -0.15
22 -0.15
23 0.27
24 0.27
25 -0.15
26 -0.15
3 -0.57
4 -0.81
41 0.15
46 0.15
47 0.15
48 0.15
49 0.15
5 0.28
54 0.15
55 0.15
8 0.06

>  <PUBCHEM_EFFECTIVE_ROTOR_COUNT>  (1) 
12

>  <PUBCHEM_PHARMACOPHORE_FEATURES>  (1) 
6
1 1 acceptor
1 3 acceptor
1 4 cation
5 1 5 7 9 10 rings
6 13 14 15 17 20 21 rings
6 14 17 19 22 25 26 rings

>  <PUBCHEM_HEAVY_ATOM_COUNT>  (1) 
28

>  <PUBCHEM_ATOM_DEF_STEREO_COUNT>  (1) 
0

>  <PUBCHEM_ATOM_UDEF_STEREO_COUNT>  (1) 
2

>  <PUBCHEM_BOND_DEF_STEREO_COUNT>  (1) 
0

>  <PUBCHEM_BOND_UDEF_STEREO_COUNT>  (1) 
0

>  <PUBCHEM_ISOTOPIC_ATOM_COUNT>  (1) 
0

>  <PUBCHEM_COMPONENT_COUNT>  (1) 
1

>  <PUBCHEM_CACTVS_TAUTO_COUNT>  (1) 
1

>  <PUBCHEM_CONFORMER_ID>  (1) 
0000114100000001

>  <PUBCHEM_MMFF94_ENERGY>  (1) 
64.0538

>  <PUBCHEM_FEATURE_SELFOVERLAP>  (1) 
30.473

>  <PUBCHEM_SHAPE_FINGERPRINT>  (1) 
11045515 52 17907022029543895754
11370993 70 18189340082544243764
11763715 3 17758420825864145206
12160290 23 17976580304839676610
12788726 201 18264193863300327323
13150687 139 18264770961044229310
13690498 29 17980239484576038886
13911987 19 18338515231836973805
14556957 393 17683825563220740812
15463212 79 18339632348371880207
15775530 1 17911789481733911225
18681886 176 18049148983027635746
19304144 158 17751914727911075501
20028762 73 17908132184311732102
20101258 96 17832442151336598114
20642791 268 7850987444492669391
20775438 99 17913739920824325909
21304303 282 18338776966906648102
21344244 181 18200886088601586599
23559900 14 17186144376676423561
3380486 145 18050024464460389169
376196 1 17896885339821282025
4017518 198 18054782876752171094
4066623 53 17763730384641823335
4280585 95 17981036741378681954
4409770 3 18409169939158137995
59755656 520 18335414626410566462
6608658 132 17544496588094803132
7097593 13 9148874064111954817
9981440 41 18191030010198050273

>  <PUBCHEM_SHAPE_MULTIPOLES>  (1) 
553.64
9.72
8.02
1.32
16.31
11.9
-0.06
-9.45
2.82
-8.51
2.03
-0.29
0.46
0.08

>  <PUBCHEM_SHAPE_SELFOVERLAP>  (1) 
1154.978

>  <PUBCHEM_SHAPE_VOLUME>  (1) 
316.8

>  <PUBCHEM_COORDINATE_TYPE>  (1) 
2
5
10

$$$$
