44183
     RDKit          3D

 23 24  0  0  1  0  0  0  0  0999 V2000
   -0.6802    0.4604   -0.0965 O   0  0  0  0  0  0  0  0  0  0  0  0
    1.9156   -0.5745   -2.3414 O   0  0  0  0  0  0  0  0  0  0  0  0
   -0.6515    0.0718   -2.3666 O   0  0  0  0  0  0  0  0  0  0  0  0
   -4.7891    0.3705    0.6965 N   0  0  0  0  0  0  0  0  0  0  0  0
   -2.0443    0.8519   -0.1833 C   0  0  0  0  0  0  0  0  0  0  0  0
   -2.8841   -0.2993   -0.7298 C   0  0  0  0  0  0  0  0  0  0  0  0
   -2.5358    1.2515    1.2043 C   0  0  0  0  0  0  0  0  0  0  0  0
   -4.3763    0.0254   -0.6714 C   0  0  0  0  0  0  0  0  0  0  0  0
   -4.0388    1.5284    1.2036 C   0  0  0  0  0  0  0  0  0  0  0  0
   -6.2276    0.6313    0.7463 C   0  0  0  0  0  0  0  0  0  0  0  0
   -0.0947    0.0888   -1.2750 C   0  0  0  0  0  0  0  0  0  0  0  0
    1.3653   -0.3005   -1.0498 C   0  0  0  0  0  0  0  0  0  0  0  0
    1.4439   -1.5767   -0.2140 C   0  0  0  0  0  0  0  0  0  0  0  0
    2.1156    0.8399   -0.4847 C   0  0  0  0  0  0  0  0  0  0  0  0
    2.5756   -1.8073    0.5364 C   0  0  0  0  0  0  0  0  0  0  0  0
    0.3801   -2.4510   -0.2398 C   0  0  0  0  0  0  0  0  0  0  0  0
    2.6475   -2.9723    1.2999 C   0  0  0  0  0  0  0  0  0  0  0  0
    0.4519   -3.6161    0.5239 C   0  0  0  0  0  0  0  0  0  0  0  0
    1.5857   -3.8766    1.2937 C   0  0  0  0  0  0  0  0  0  0  0  0
    2.7221    1.7723   -0.0305 C   0  0  0  0  0  0  0  0  0  0  0  0
    3.4506    2.8696    0.5175 C   0  0  0  0  0  0  0  0  0  0  0  0
    4.3806    2.6192    1.6677 C   0  0  0  0  0  0  0  0  0  0  0  0
    3.2879    4.0933   -0.0070 C   0  0  0  0  0  0  0  0  0  0  0  0
  1  5  1  0
  1 11  1  0
  2 12  1  0
  3 11  2  0
  4  8  1  0
  4  9  1  0
  4 10  1  0
  5  6  1  0
  5  7  1  0
  6  8  1  0
  7  9  1  0
 11 12  1  0
 12 13  1  0
 12 14  1  0
 13 15  2  0
 13 16  1  0
 14 20  3  0
 15 17  1  0
 16 18  2  0
 17 19  2  0
 18 19  1  0
 20 21  1  0
 21 22  1  0
 21 23  2  0
M  END
>  <PUBCHEM_COMPOUND_CID>  (1) 
44183

>  <PUBCHEM_CONFORMER_RMSD>  (1) 
0.8

>  <PUBCHEM_CONFORMER_DIVERSEORDER>  (1) 
1
100
38
109
81
112
92
47
56
87
4
62
78
6
93
55
16
84
58
43
67
86
117
72
113
94
34
69
98
59
71
12
95
33
29
88
20
104
102
14
57
3
37
42
80
111
52
89
74
53
97
35
119
70
15
22
114
8
50
9
91
116
40
68
51
45
83
39
90
28
120
7
77
107
2
30
96
79
31
32
63
48
49
5
108
106
105
66
10
27
82
110
41
61
11
46
76
60
25
118
65
121
18
17
75
19
115
64
54
36
73
24
26
85
101
13
21
103
44
23
99

>  <PUBCHEM_MMFF94_PARTIAL_CHARGES>  (1) 
29
1 -0.43
10 0.27
11 0.66
12 0.68
13 -0.14
14 -0.2
15 -0.15
16 -0.15
17 -0.15
18 -0.15
19 -0.15
2 -0.68
20 -0.06
21 -0.07
22 0.14
23 -0.3
3 -0.57
36 0.15
37 0.15
38 0.4
39 0.15
4 -0.81
40 0.15
41 0.15
45 0.15
46 0.15
5 0.28
8 0.27
9 0.27

>  <PUBCHEM_EFFECTIVE_ROTOR_COUNT>  (1) 
5.2

>  <PUBCHEM_PHARMACOPHORE_FEATURES>  (1) 
6
1 2 acceptor
1 2 donor
1 3 acceptor
1 4 cation
6 13 15 16 17 18 19 rings
6 4 5 6 7 8 9 rings

>  <PUBCHEM_HEAVY_ATOM_COUNT>  (1) 
23

>  <PUBCHEM_ATOM_DEF_STEREO_COUNT>  (1) 
0

>  <PUBCHEM_ATOM_UDEF_STEREO_COUNT>  (1) 
1

>  <PUBCHEM_BOND_DEF_STEREO_COUNT>  (1) 
0

>  <PUBCHEM_BOND_UDEF_STEREO_COUNT>  (1) 
0

>  <PUBCHEM_ISOTOPIC_ATOM_COUNT>  (1) 
0

>  <PUBCHEM_COMPONENT_COUNT>  (1) 
1

>  <PUBCHEM_CACTVS_TAUTO_COUNT>  (1) 
1

>  <PUBCHEM_CONFORMER_ID>  (1) 
0000AC9700000001

>  <PUBCHEM_MMFF94_ENERGY>  (1) 
44.8072

>  <PUBCHEM_FEATURE_SELFOVERLAP>  (1) 
30.455

>  <PUBCHEM_SHAPE_FINGERPRINT>  (1) 
10090160 65 18339920536678120293
10165383 225 18187660132351713012
10366900 7 18116738251782808193
1100329 8 18410006650775386386
12788726 201 17039524492274620242
13140716 1 18335138721553316242
13533116 47 18189346684625649147
13583140 156 18264483993200005477
13955234 65 18335706005439579795
14178342 30 18115034133482702947
14251757 17 15338280206734922600
14468879 13 17414723373704269980
14787075 74 17839173366153991551
14849402 71 18410580582891520768
14955137 171 18267028245885027206
15142526 21 18197777915053530217
15338160 23 17400925692376542848
15475509 84 17615413554087022280
17868525 174 17976540511973519041
20600515 1 17266658352770879064
20645477 70 17313681334582023199
21049683 118 18054204790568173064
21403212 168 18342163480501239632
21524375 3 18129093592962353908
21756936 100 17984695886470195648
2255824 54 18340211799473348198
23419403 2 17534034425270313422
23558518 356 17978512258639113654
23559900 14 17822585919094401797
23845131 108 18262797505075901571
239999 70 18130239176593044359
268830 7 18202005383434614725
283562 15 17472407125125335310
298252 57 17059780056290482732
31174 14 18261950726492927214
3286 77 18043253440070227851
392239 28 18052541272709824419
394222 165 18273497879143520851
4058900 60 18337405935962844584
427121 178 18337397140143122012
4340502 62 18339082695916405209
474 4 18340488975125063592
495365 180 18334020475493875281
5104073 3 18338248059807962121
57672749 33 18264764364264430842
58807428 26 18263354940528515920
59755656 520 18266174114397021052
633830 44 18272090551483866460
67856867 119 18340764850038881385
7097593 13 17978798900419243963
7288768 16 18053938730398236048
81228 2 17467072277659047766
8988823 20 18337670811649682485
9981440 41 17414425406264028816
9999458 23 18409172121228118084

>  <PUBCHEM_SHAPE_MULTIPOLES>  (1) 
450.74
9.19
4.71
1.64
13.74
1.74
-0.55
-7.65
3.87
-7.63
2.32
-0.31
0.08
-0.53

>  <PUBCHEM_SHAPE_SELFOVERLAP>  (1) 
939.101

>  <PUBCHEM_SHAPE_VOLUME>  (1) 
255

>  <PUBCHEM_COORDINATE_TYPE>  (1) 
2
5
10

$$$$
