44191
     RDKit          3D

 21 22  0  0  1  0  0  0  0  0999 V2000
    0.9280   -4.4946    0.4415 Cl  0  0  0  0  0  0  0  0  0  0  0  0
   -3.6965    0.4374   -1.8053 F   0  0  0  0  0  0  0  0  0  0  0  0
   -3.8467   -1.2316   -0.4129 F   0  0  0  0  0  0  0  0  0  0  0  0
   -4.9035    0.6327    0.0028 F   0  0  0  0  0  0  0  0  0  0  0  0
   -1.3840    0.0753   -0.3623 O   0  0  0  0  0  0  0  0  0  0  0  0
    2.3183    3.4919   -0.0568 O   0  0  0  0  0  0  0  0  0  0  0  0
    2.5826    1.2038   -0.4104 N   0  0  0  0  0  0  0  0  0  0  0  0
   -0.2058    1.6903    0.7443 N   0  0  0  0  0  0  0  0  0  0  0  0
    2.1422   -0.1526   -0.2029 C   0  0  0  0  0  0  0  0  0  0  0  0
    0.8163   -0.4937    0.1372 C   0  0  0  0  0  0  0  0  0  0  0  0
   -0.2520    0.5151    0.2306 C   0  0  0  0  0  0  0  0  0  0  0  0
   -2.5450    0.6239    0.2503 C   0  0  0  0  0  0  0  0  0  0  0  0
    1.0619    2.0570    1.3456 C   0  0  0  0  0  0  0  0  0  0  0  0
    2.0270    2.3248    0.2191 C   0  0  0  0  0  0  0  0  0  0  0  0
    3.0577   -1.2105   -0.3766 C   0  0  0  0  0  0  0  0  0  0  0  0
    0.4503   -1.8365    0.3415 C   0  0  0  0  0  0  0  0  0  0  0  0
    3.7108    1.4238   -1.3174 C   0  0  0  0  0  0  0  0  0  0  0  0
   -3.7605    0.1148   -0.4948 C   0  0  0  0  0  0  0  0  0  0  0  0
   -2.5717    0.2278    1.7189 C   0  0  0  0  0  0  0  0  0  0  0  0
    2.6860   -2.5434   -0.1795 C   0  0  0  0  0  0  0  0  0  0  0  0
    1.3846   -2.8557    0.1871 C   0  0  0  0  0  0  0  0  0  0  0  0
  1 21  1  0
  2 18  1  0
  3 18  1  0
  4 18  1  0
  5 11  1  0
  5 12  1  0
  6 14  2  0
  7  9  1  0
  7 14  1  0
  7 17  1  0
  8 11  2  0
  8 13  1  0
  9 10  2  0
  9 15  1  0
 10 11  1  0
 10 16  1  0
 12 18  1  0
 12 19  1  0
 13 14  1  0
 15 20  2  0
 16 21  2  0
 20 21  1  0
M  END
>  <PUBCHEM_COMPOUND_CID>  (1) 
44191

>  <PUBCHEM_CONFORMER_RMSD>  (1) 
0.6

>  <PUBCHEM_CONFORMER_DIVERSEORDER>  (1) 
1
12
11
4
10
6
8
5
3
7
9
2

>  <PUBCHEM_MMFF94_PARTIAL_CHARGES>  (1) 
23
1 -0.18
10 0.09
11 0.51
12 0.28
13 0.31
14 0.57
15 -0.15
16 -0.15
17 0.3
18 1.02
2 -0.34
20 -0.15
21 0.18
25 0.15
26 0.15
3 -0.34
33 0.15
4 -0.34
5 -0.43
6 -0.57
7 -0.48
8 -0.7
9 0.12

>  <PUBCHEM_EFFECTIVE_ROTOR_COUNT>  (1) 
3.4

>  <PUBCHEM_PHARMACOPHORE_FEATURES>  (1) 
3
1 6 acceptor
6 9 10 15 16 20 21 rings
7 7 8 9 10 11 13 14 rings

>  <PUBCHEM_HEAVY_ATOM_COUNT>  (1) 
21

>  <PUBCHEM_ATOM_DEF_STEREO_COUNT>  (1) 
0

>  <PUBCHEM_ATOM_UDEF_STEREO_COUNT>  (1) 
1

>  <PUBCHEM_BOND_DEF_STEREO_COUNT>  (1) 
0

>  <PUBCHEM_BOND_UDEF_STEREO_COUNT>  (1) 
0

>  <PUBCHEM_ISOTOPIC_ATOM_COUNT>  (1) 
0

>  <PUBCHEM_COMPONENT_COUNT>  (1) 
1

>  <PUBCHEM_CACTVS_TAUTO_COUNT>  (1) 
1

>  <PUBCHEM_CONFORMER_ID>  (1) 
0000AC9F00000001

>  <PUBCHEM_MMFF94_ENERGY>  (1) 
75.3527

>  <PUBCHEM_FEATURE_SELFOVERLAP>  (1) 
15.233

>  <PUBCHEM_SHAPE_FINGERPRINT>  (1) 
10693767 8 18130792213889151790
10764073 3 16530815753664768728
10967382 1 18411143506853449210
1100329 8 18410290333407673442
11265709 11 17905605506306324626
12553582 1 18051419461232396467
12716301 132 17549809432348239656
12730499 353 18335710489606761673
13004483 165 17545026109706011259
13140716 1 18339639039872898810
15502722 9 18410852187611112541
16752209 62 16559033745256061369
16945 1 18411429422821082208
17134986 127 18191587660605257804
18186145 218 18341620376895393085
19591789 44 18122635104320281290
20645477 70 18334012766048879259
21452121 199 17975401435180462818
21452121 99 17978226389963697384
21634736 98 18272089404827896366
21639500 275 18410291419337488885
22112679 90 17631741443461320201
221490 88 18409454699695315139
22182313 1 17338175430218944436
2255824 54 18412262830832889774
22907989 373 17110720622951832220
23114952 82 18115019697891893237
2334 1 18124036990356644298
23388829 49 18125446306697180266
23402539 116 18126002655423556742
23419403 2 17608413195765387720
23526113 38 17969505892560789267
23559900 14 18337381648138271059
23598291 2 17914912953728608977
238 59 18410009974431038523
25 1 18410014381151880132
257057 1 17834389021657427146
2748010 2 17765730396287297000
3060560 45 18336826485076751532
352729 6 18052831526662887456
4175511 335 18335143068202092796
4409770 3 17116338024032559768
543358 83 18268433438777065881
58779409 8 18048046452016569478
59682541 52 18050254061518363013
633830 44 18129669724059662853
6338986 31 17906728107614752970
7364860 26 18411696560885598930
7471813 234 18127677249801471012
81228 2 17182774368973109386
8272917 22 18411706456748763789

>  <PUBCHEM_SHAPE_MULTIPOLES>  (1) 
390.52
6.64
4.12
1.13
8.08
2.78
0.02
-0.69
-2.31
-4.63
0.72
0.57
-0.35
-0.43

>  <PUBCHEM_SHAPE_SELFOVERLAP>  (1) 
826.852

>  <PUBCHEM_SHAPE_VOLUME>  (1) 
221.8

>  <PUBCHEM_COORDINATE_TYPE>  (1) 
2
5
10

$$$$
