4419
     RDKit          3D

 26 31  0  0  1  0  0  0  0  0999 V2000
   -2.7907    0.3835   -1.4370 O   0  0  0  0  0  0  0  0  0  0  0  0
    0.1770   -2.8325   -0.0336 O   0  0  0  0  0  0  0  0  0  0  0  0
   -4.3006   -2.1350   -0.6558 O   0  0  0  0  0  0  0  0  0  0  0  0
   -3.6263    3.1202   -0.8702 O   0  0  0  0  0  0  0  0  0  0  0  0
    1.9782   -0.4035    0.0720 N   0  0  0  0  0  0  0  0  0  0  0  0
   -0.8126   -0.6745   -0.5329 C   0  0  0  0  0  0  0  0  0  0  0  0
   -0.2385   -1.5898    0.5531 C   0  0  0  0  0  0  0  0  0  0  0  0
    1.0183   -0.8390    1.1232 C   0  0  0  0  0  0  0  0  0  0  0  0
   -2.2513   -0.9284   -1.0305 C   0  0  0  0  0  0  0  0  0  0  0  0
    0.1990   -0.5276   -1.7023 C   0  0  0  0  0  0  0  0  0  0  0  0
   -1.0734    0.6813    0.0447 C   0  0  0  0  0  0  0  0  0  0  0  0
   -1.2898   -1.9774    1.6099 C   0  0  0  0  0  0  0  0  0  0  0  0
   -3.2070   -1.5229    0.0289 C   0  0  0  0  0  0  0  0  0  0  0  0
    0.6197    0.4801    1.8589 C   0  0  0  0  0  0  0  0  0  0  0  0
    1.6578   -0.8112   -1.2941 C   0  0  0  0  0  0  0  0  0  0  0  0
   -2.5407   -2.5519    0.9389 C   0  0  0  0  0  0  0  0  0  0  0  0
   -0.4012    1.2840    1.0940 C   0  0  0  0  0  0  0  0  0  0  0  0
   -2.1665    1.2571   -0.5751 C   0  0  0  0  0  0  0  0  0  0  0  0
    3.3570   -0.7373    0.4189 C   0  0  0  0  0  0  0  0  0  0  0  0
    4.3409   -0.0821   -0.5251 C   0  0  0  0  0  0  0  0  0  0  0  0
   -0.8053    2.5722    1.4461 C   0  0  0  0  0  0  0  0  0  0  0  0
    5.8249   -0.3807   -0.2267 C   0  0  0  0  0  0  0  0  0  0  0  0
    4.6541    1.3956   -0.2106 C   0  0  0  0  0  0  0  0  0  0  0  0
   -2.5706    2.5335   -0.2557 C   0  0  0  0  0  0  0  0  0  0  0  0
    6.1157    1.0883   -0.5984 C   0  0  0  0  0  0  0  0  0  0  0  0
   -1.8680    3.1981    0.7594 C   0  0  0  0  0  0  0  0  0  0  0  0
  1  9  1  0
  1 18  1  0
  2  7  1  0
  3 13  1  0
  4 24  1  0
  5  8  1  0
  5 15  1  0
  5 19  1  0
  6  7  1  0
  6  9  1  0
  6 10  1  0
  6 11  1  0
  7  8  1  0
  7 12  1  0
  8 14  1  0
  9 13  1  0
 10 15  1  0
 11 17  2  0
 11 18  1  0
 12 16  1  0
 13 16  1  0
 14 17  1  0
 17 21  1  0
 18 24  2  0
 19 20  1  0
 20 22  1  0
 20 23  1  0
 21 26  2  0
 22 25  1  0
 23 25  1  0
 24 26  1  0
M  END
>  <PUBCHEM_COMPOUND_CID>  (1) 
4419

>  <PUBCHEM_CONFORMER_RMSD>  (1) 
0.8

>  <PUBCHEM_CONFORMER_DIVERSEORDER>  (1) 
1
20
19
18
8
7
3
16
5
9
11
12
14
15
4
17
2
10
6
13

>  <PUBCHEM_MMFF94_PARTIAL_CHARGES>  (1) 
24
1 -0.36
11 -0.14
13 0.28
14 0.14
15 0.27
17 -0.14
18 0.08
19 0.27
2 -0.68
21 -0.15
24 0.08
26 -0.15
3 -0.68
4 -0.53
42 0.4
44 0.15
5 -0.81
51 0.4
52 0.15
53 0.45
6 0.14
7 0.28
8 0.27
9 0.28

>  <PUBCHEM_EFFECTIVE_ROTOR_COUNT>  (1) 
4.4

>  <PUBCHEM_PHARMACOPHORE_FEATURES>  (1) 
13
1 1 acceptor
1 2 acceptor
1 2 donor
1 3 acceptor
1 3 donor
1 4 donor
1 5 cation
4 20 22 23 25 rings
5 1 6 9 11 18 rings
6 11 17 18 21 24 26 rings
6 5 6 7 8 10 15 rings
6 6 7 8 11 14 17 rings
6 6 7 9 12 13 16 rings

>  <PUBCHEM_HEAVY_ATOM_COUNT>  (1) 
26

>  <PUBCHEM_ATOM_DEF_STEREO_COUNT>  (1) 
0

>  <PUBCHEM_ATOM_UDEF_STEREO_COUNT>  (1) 
5

>  <PUBCHEM_BOND_DEF_STEREO_COUNT>  (1) 
0

>  <PUBCHEM_BOND_UDEF_STEREO_COUNT>  (1) 
0

>  <PUBCHEM_ISOTOPIC_ATOM_COUNT>  (1) 
0

>  <PUBCHEM_COMPONENT_COUNT>  (1) 
1

>  <PUBCHEM_CACTVS_TAUTO_COUNT>  (1) 
3

>  <PUBCHEM_CONFORMER_ID>  (1) 
0000114300000001

>  <PUBCHEM_MMFF94_ENERGY>  (1) 
105.8664

>  <PUBCHEM_FEATURE_SELFOVERLAP>  (1) 
67.815

>  <PUBCHEM_SHAPE_FINGERPRINT>  (1) 
10863032 1 18336259033818125622
10948715 1 18118403938757798777
11315181 36 17822014259538011518
11578080 2 16842795696818686733
11582403 64 15577218153874051621
11640471 11 18116159861401021228
11961588 58 18265038164045270261
12173636 292 18408321086343271886
12403814 3 17846224392272811102
12788726 201 18408316705065388075
13583140 156 17750813064140115496
13965767 371 17316199121187437980
14142880 1 18040716956780974188
14420673 8 9006243247568994664
14713325 29 18059864925913904688
14787075 74 18335978791386454015
14790565 3 17911807868721533545
15420108 30 15465515229013820946
15534591 1 18335985264096919192
16945 1 17985238830222625155
16994733 274 15936949887449771309
17492 54 18057589972359496245
19930381 70 17327464030532140404
20510252 161 18409732871683653314
20600515 1 17697913540681849338
20775438 99 16761369447626799887
22907989 373 17917438609685274696
23227448 37 18408890607380794044
23352939 185 17987242311780026185
23402539 116 18412825815235915438
23419403 2 16373849778894845033
23493267 7 18340481175653780250
23557571 272 18341619226160149342
23559900 14 18043527424972036596
2748010 2 17842807106028828153
283562 15 18408605881018816843
394222 165 17686615741395582897
4340502 62 17825403881808815001
469060 322 18042426719158859881
474 4 18192993708390992968
5104073 3 18040992939422778992
5171179 24 17986661774505655705
9981440 41 18412259502671579346

>  <PUBCHEM_SHAPE_MULTIPOLES>  (1) 
506.61
8.69
3.26
1.49
16.18
1.54
0.17
1.32
-2.54
-4.11
0.63
-0.49
-0.02
0.21

>  <PUBCHEM_SHAPE_SELFOVERLAP>  (1) 
1136.761

>  <PUBCHEM_SHAPE_VOLUME>  (1) 
265.1

>  <PUBCHEM_COORDINATE_TYPE>  (1) 
2
5
10

$$$$
