44195
     RDKit          3D

 19 20  0  0  0  0  0  0  0  0999 V2000
   -0.6754   -2.2393   -0.3833 O   0  0  0  0  0  0  0  0  0  0  0  0
   -3.8619    1.6404    0.1337 O   0  0  0  0  0  0  0  0  0  0  0  0
    4.7061    0.7113    0.0110 O   0  0  0  0  0  0  0  0  0  0  0  0
    3.9731   -1.2993    0.4998 O   0  0  0  0  0  0  0  0  0  0  0  0
   -1.5819    1.7837   -0.3269 N   0  0  0  0  0  0  0  0  0  0  0  0
   -2.1676   -0.9909    0.8149 N   0  0  0  0  0  0  0  0  0  0  0  0
    3.7663   -0.0994    0.1962 N   0  0  0  0  0  0  0  0  0  0  0  0
   -0.2439    1.2661   -0.1908 C   0  0  0  0  0  0  0  0  0  0  0  0
    0.0385   -0.0816    0.1157 C   0  0  0  0  0  0  0  0  0  0  0  0
   -1.0226   -1.0940    0.2444 C   0  0  0  0  0  0  0  0  0  0  0  0
    0.8540    2.1245   -0.4040 C   0  0  0  0  0  0  0  0  0  0  0  0
    1.3670   -0.5241    0.2502 C   0  0  0  0  0  0  0  0  0  0  0  0
   -2.7010    1.2811    0.3491 C   0  0  0  0  0  0  0  0  0  0  0  0
   -2.4340    0.2857    1.4491 C   0  0  0  0  0  0  0  0  0  0  0  0
    2.4282    0.3549    0.0583 C   0  0  0  0  0  0  0  0  0  0  0  0
    2.1719    1.6769   -0.2763 C   0  0  0  0  0  0  0  0  0  0  0  0
   -1.7816    2.9359   -1.2080 C   0  0  0  0  0  0  0  0  0  0  0  0
   -1.6599   -3.2534   -0.2936 C   0  0  0  0  0  0  0  0  0  0  0  0
   -1.1753   -4.4784   -1.0394 C   0  0  0  0  0  0  0  0  0  0  0  0
  1 10  1  0
  1 18  1  0
  2 13  2  0
  3  7  1  0
  4  7  2  0
  5  8  1  0
  5 13  1  0
  5 17  1  0
  6 10  2  0
  6 14  1  0
  7 15  1  0
  8  9  2  0
  8 11  1  0
  9 10  1  0
  9 12  1  0
 11 16  2  0
 12 15  2  0
 13 14  1  0
 15 16  1  0
 18 19  1  0
M  CHG  2   3  -1   7   1
M  END
>  <PUBCHEM_COMPOUND_CID>  (1) 
44195

>  <PUBCHEM_CONFORMER_RMSD>  (1) 
0.6

>  <PUBCHEM_CONFORMER_DIVERSEORDER>  (1) 
1
6
2
3
4
5

>  <PUBCHEM_MMFF94_PARTIAL_CHARGES>  (1) 
21
1 -0.43
10 0.51
11 -0.15
12 -0.15
13 0.57
14 0.31
15 0.13
16 -0.15
17 0.3
18 0.28
2 -0.57
20 0.15
21 0.15
24 0.15
3 -0.52
4 -0.52
5 -0.48
6 -0.7
7 0.91
8 0.12
9 0.09

>  <PUBCHEM_EFFECTIVE_ROTOR_COUNT>  (1) 
3.4

>  <PUBCHEM_PHARMACOPHORE_FEATURES>  (1) 
6
1 2 acceptor
1 3 acceptor
1 3 anion
1 4 acceptor
6 8 9 11 12 15 16 rings
7 5 6 8 9 10 13 14 rings

>  <PUBCHEM_HEAVY_ATOM_COUNT>  (1) 
19

>  <PUBCHEM_ATOM_DEF_STEREO_COUNT>  (1) 
0

>  <PUBCHEM_ATOM_UDEF_STEREO_COUNT>  (1) 
0

>  <PUBCHEM_BOND_DEF_STEREO_COUNT>  (1) 
0

>  <PUBCHEM_BOND_UDEF_STEREO_COUNT>  (1) 
0

>  <PUBCHEM_ISOTOPIC_ATOM_COUNT>  (1) 
0

>  <PUBCHEM_COMPONENT_COUNT>  (1) 
1

>  <PUBCHEM_CACTVS_TAUTO_COUNT>  (1) 
1

>  <PUBCHEM_CONFORMER_ID>  (1) 
0000ACA300000001

>  <PUBCHEM_MMFF94_ENERGY>  (1) 
75.1486

>  <PUBCHEM_FEATURE_SELFOVERLAP>  (1) 
30.538

>  <PUBCHEM_SHAPE_FINGERPRINT>  (1) 
10967382 1 18264489481751172600
11265709 11 17907858757629162071
11578080 2 17486486285318702417
12553582 1 17761782066858758418
13004483 165 18052805133604024323
13083527 12 17546138150059104528
13140716 1 18265061416649628928
13931106 250 18265590213060093918
14178342 30 18267003120484075490
15006816 218 17907296555231950958
15042514 8 18336269019659501475
15309172 13 18340212877647445625
16945 1 18411146856532366076
19591789 44 18266460897473378302
20028762 73 18202001049812691599
20510252 161 18269554927594740416
21452121 199 17404282487952696802
21501502 16 18192436479276338436
21524375 3 18334859368574760353
22112679 90 17978525439419049319
2334 1 17976265960325138680
23388829 49 17474397249534437841
23402539 116 18270674372550235399
23559900 14 17616244785320505186
257057 1 17765431341671755667
2748010 2 18120383051018635820
34934 24 18187361017706784568
532947 4 17838619950939030486
6338986 31 17764584713254764719
69090 78 18409445860467652905
6992083 37 18266755742688062667
7364860 26 17691122630751344237
81228 2 18120924264285088091

>  <PUBCHEM_SHAPE_MULTIPOLES>  (1) 
352.59
5.79
4.18
0.94
6.39
4.21
-0.02
-0.49
-0.96
-3.84
2.04
-0.55
-0.03
-0.53

>  <PUBCHEM_SHAPE_SELFOVERLAP>  (1) 
750.833

>  <PUBCHEM_SHAPE_VOLUME>  (1) 
196.2

>  <PUBCHEM_COORDINATE_TYPE>  (1) 
2
5
10

$$$$
