442
     RDKit          3D

 17 16  0  0  1  0  0  0  0  0999 V2000
    4.0524    0.5271   -0.1679 P   0  0  0  0  0  0  0  0  0  0  0  0
   -1.6959   -1.9969    0.6575 O   0  0  0  0  0  0  0  0  0  0  0  0
    0.9311   -1.9518    1.4789 O   0  0  0  0  0  0  0  0  0  0  0  0
    2.8501   -0.5382    0.0021 O   0  0  0  0  0  0  0  0  0  0  0  0
   -1.3616   -0.9062   -1.9268 O   0  0  0  0  0  0  0  0  0  0  0  0
   -3.8693   -0.1832   -1.2935 O   0  0  0  0  0  0  0  0  0  0  0  0
    3.8748    1.5151    1.1000 O   0  0  0  0  0  0  0  0  0  0  0  0
    3.5538    1.4285   -1.4145 O   0  0  0  0  0  0  0  0  0  0  0  0
    5.4183   -0.0741   -0.3266 O   0  0  0  0  0  0  0  0  0  0  0  0
   -4.6645    1.3061    0.5702 O   0  0  0  0  0  0  0  0  0  0  0  0
   -2.5051    1.6575    1.2609 O   0  0  0  0  0  0  0  0  0  0  0  0
   -0.9090   -0.8221    0.4426 C   0  0  0  0  0  0  0  0  0  0  0  0
    0.5702   -1.2236    0.2991 C   0  0  0  0  0  0  0  0  0  0  0  0
   -1.4792   -0.0844   -0.7773 C   0  0  0  0  0  0  0  0  0  0  0  0
    1.5244   -0.0394    0.1577 C   0  0  0  0  0  0  0  0  0  0  0  0
   -2.9544    0.2421   -0.6021 C   0  0  0  0  0  0  0  0  0  0  0  0
   -3.3358    1.1435    0.5398 C   0  0  0  0  0  0  0  0  0  0  0  0
  1  4  1  0
  1  7  1  0
  1  8  1  0
  1  9  2  0
  2 12  1  0
  3 13  1  0
  4 15  1  0
  5 14  1  0
  6 16  2  0
 10 17  1  0
 11 17  2  0
 12 13  1  0
 12 14  1  0
 13 15  1  0
 14 16  1  0
 16 17  1  0
M  END
>  <PUBCHEM_COMPOUND_CID>  (1) 
442

>  <PUBCHEM_CONFORMER_RMSD>  (1) 
0.8

>  <PUBCHEM_CONFORMER_DIVERSEORDER>  (1) 
1
248
203
205
123
253
161
287
245
5
63
185
10
121
218
81
166
254
92
100
274
315
153
257
24
60
296
51
179
98
70
216
64
42
272
16
118
91
172
311
211
119
278
284
135
297
57
116
246
145
251
75
58
293
175
193
220
13
6
159
178
250
11
176
168
40
270
53
137
94
263
12
93
79
206
236
65
125
305
49
82
89
165
15
29
9
147
200
54
201
304
71
277
8
313
268
4
258
150
96
56
298
108
294
223
312
129
128
111
17
104
266
195
39
199
215
115
3
242
255
134
232
38
140
306
302
31
37
187
314
68
234
69
2
229
14
84
291
261
117
184
196
48
95
192
157
76
61
226
90
101
286
264
309
281
20
189
180
219
198
221
26
209
35
252
22
110
259
152
207
148
88
299
44
102
256
204
131
67
279
146
231
130
244
33
169
50
247
243
181
113
289
208
30
55
191
160
142
34
18
269
230
275
124
103
188
114
28
107
132
295
41
21
282
174
47
83
32
77
265
78
112
210
25
262
141
267
307
213
292
19
106
238
290
214
36
143
222
271
212
126
149
99
237
97
122
240
285
80
151
273
224
120
170
186
197
225
280
227
27
156
164
283
45
162
62
177
260
300
87
7
154
249
182
144
43
109
233
163
173
190
127
72
105
167
276
183
158
202
74
303
194
133
59
155
73
85
86
46
52
301
136
235
310
239
23
139
288
217
66
171
308
138
228
241

>  <PUBCHEM_MMFF94_PARTIAL_CHARGES>  (1) 
23
1 1.51
10 -0.65
11 -0.57
12 0.28
13 0.28
14 0.34
15 0.28
16 0.51
17 0.72
2 -0.68
23 0.4
24 0.4
25 0.4
26 0.5
27 0.5
28 0.5
3 -0.68
4 -0.55
5 -0.68
6 -0.57
7 -0.77
8 -0.77
9 -0.7

>  <PUBCHEM_EFFECTIVE_ROTOR_COUNT>  (1) 
7

>  <PUBCHEM_PHARMACOPHORE_FEATURES>  (1) 
14
1 10 acceptor
1 11 acceptor
1 2 acceptor
1 2 donor
1 3 acceptor
1 3 donor
1 5 acceptor
1 5 donor
1 6 acceptor
1 7 acceptor
1 8 acceptor
1 9 acceptor
3 10 11 17 anion
4 1 7 8 9 anion

>  <PUBCHEM_HEAVY_ATOM_COUNT>  (1) 
17

>  <PUBCHEM_ATOM_DEF_STEREO_COUNT>  (1) 
0

>  <PUBCHEM_ATOM_UDEF_STEREO_COUNT>  (1) 
3

>  <PUBCHEM_BOND_DEF_STEREO_COUNT>  (1) 
0

>  <PUBCHEM_BOND_UDEF_STEREO_COUNT>  (1) 
0

>  <PUBCHEM_ISOTOPIC_ATOM_COUNT>  (1) 
0

>  <PUBCHEM_COMPONENT_COUNT>  (1) 
1

>  <PUBCHEM_CACTVS_TAUTO_COUNT>  (1) 
32

>  <PUBCHEM_CONFORMER_ID>  (1) 
000001BA00000001

>  <PUBCHEM_MMFF94_ENERGY>  (1) 
-3.718

>  <PUBCHEM_FEATURE_SELFOVERLAP>  (1) 
71.185

>  <PUBCHEM_SHAPE_FINGERPRINT>  (1) 
10366900 7 15285352933740467380
10498660 4 17845928542299361425
10726558 24 16773801351071554943
11046707 91 8214141850022525928
11127187 94 14405179603624199221
11132069 177 17385721413183954086
11543360 7 17274815904488758030
12186901 62 17203604883281283087
14123260 362 18409738373679034864
15309172 13 17603867801436855539
15342168 16 18187092732458582357
15534591 1 18413952780357885715
15775835 57 18271243820599284281
1741750 31 18409165536726982506
1813 80 17690270517925776674
18186145 218 18259983769416740798
18219364 16 17603578638495098229
19107657 9 18333739034929897404
193927 3 8862645958954025205
19784866 240 9367334943055774097
200 152 11167939138943163554
20300324 65 17846213379960833201
204376 136 17966972720585753451
20645476 183 17489580169136771918
20671657 53 13110959838204599298
20871999 31 16917057897801591487
21524375 3 18335136501213226298
22079108 93 18335706057168870323
22485316 2 9367353626041951734
22854114 59 17676491622683326505
23402539 116 17703503329095902828
23500284 214 18261114075374421426
23557571 272 18268159819042507582
23559900 14 14692561140173676202
4028521 119 18272364256970330569
474 4 18261115170775723972
57483677 103 18339083687901382909
76465 3 10375875134643750748

>  <PUBCHEM_SHAPE_MULTIPOLES>  (1) 
295.01
9.37
1.72
1.33
6.2
0.24
0.28
-4.72
0.63
-0.26
-0.62
-0.39
0.02
-0.79

>  <PUBCHEM_SHAPE_SELFOVERLAP>  (1) 
567.284

>  <PUBCHEM_SHAPE_VOLUME>  (1) 
179.1

>  <PUBCHEM_COORDINATE_TYPE>  (1) 
2
5
10

$$$$
