44209
     RDKit          3D

 31 34  0  0  0  0  0  0  0  0999 V2000
    0.8425   -4.6374   -1.5595 O   0  0  0  0  0  0  0  0  0  0  0  0
    6.4993    2.1895   -0.2762 O   0  0  0  0  0  0  0  0  0  0  0  0
   -0.4502    0.8770   -1.2932 O   0  0  0  0  0  0  0  0  0  0  0  0
    1.2993   -2.2836   -0.0255 N   0  0  0  0  0  0  0  0  0  0  0  0
    4.0457    1.0423    0.5986 N   0  0  0  0  0  0  0  0  0  0  0  0
    0.3825    0.3438    0.8022 N   0  0  0  0  0  0  0  0  0  0  0  0
    1.7484    0.1171    0.3762 C   0  0  0  0  0  0  0  0  0  0  0  0
    2.1721   -1.3332    0.6605 C   0  0  0  0  0  0  0  0  0  0  0  0
    2.6646    1.1381    1.0666 C   0  0  0  0  0  0  0  0  0  0  0  0
    1.6139   -2.3394   -1.4598 C   0  0  0  0  0  0  0  0  0  0  0  0
    1.4173   -3.6227    0.5682 C   0  0  0  0  0  0  0  0  0  0  0  0
    4.9619    1.7049    1.5373 C   0  0  0  0  0  0  0  0  0  0  0  0
    4.1847    1.6307   -0.7407 C   0  0  0  0  0  0  0  0  0  0  0  0
    0.6988   -3.3458   -2.1516 C   0  0  0  0  0  0  0  0  0  0  0  0
    0.5078   -4.5995   -0.1717 C   0  0  0  0  0  0  0  0  0  0  0  0
    6.3947    1.6031    1.0218 C   0  0  0  0  0  0  0  0  0  0  0  0
    5.6357    1.5295   -1.2024 C   0  0  0  0  0  0  0  0  0  0  0  0
   -0.6168    0.7110   -0.0865 C   0  0  0  0  0  0  0  0  0  0  0  0
   -1.9712    0.8877    0.6065 C   0  0  0  0  0  0  0  0  0  0  0  0
   -2.7410   -0.4193    0.7587 C   0  0  0  0  0  0  0  0  0  0  0  0
   -2.8005    1.9970   -0.0283 C   0  0  0  0  0  0  0  0  0  0  0  0
   -3.6115   -0.5948    1.8343 C   0  0  0  0  0  0  0  0  0  0  0  0
   -2.6874    3.3067    0.4385 C   0  0  0  0  0  0  0  0  0  0  0  0
   -2.5754   -1.4396   -0.1780 C   0  0  0  0  0  0  0  0  0  0  0  0
   -3.6726    1.7033   -1.0767 C   0  0  0  0  0  0  0  0  0  0  0  0
   -4.3161   -1.7905    1.9736 C   0  0  0  0  0  0  0  0  0  0  0  0
   -3.4464    4.3223   -0.1427 C   0  0  0  0  0  0  0  0  0  0  0  0
   -3.2801   -2.6354   -0.0387 C   0  0  0  0  0  0  0  0  0  0  0  0
   -4.4314    2.7191   -1.6579 C   0  0  0  0  0  0  0  0  0  0  0  0
   -4.1504   -2.8107    1.0372 C   0  0  0  0  0  0  0  0  0  0  0  0
   -4.3183    4.0286   -1.1909 C   0  0  0  0  0  0  0  0  0  0  0  0
  1 14  1  0
  1 15  1  0
  2 16  1  0
  2 17  1  0
  3 18  2  0
  4  8  1  0
  4 10  1  0
  4 11  1  0
  5  9  1  0
  5 12  1  0
  5 13  1  0
  6  7  1  0
  6 18  1  0
  7  8  1  0
  7  9  1  0
 10 14  1  0
 11 15  1  0
 12 16  1  0
 13 17  1  0
 18 19  1  0
 19 20  1  0
 19 21  1  0
 20 22  2  0
 20 24  1  0
 21 23  2  0
 21 25  1  0
 22 26  1  0
 23 27  1  0
 24 28  2  0
 25 29  2  0
 26 30  2  0
 27 31  2  0
 28 30  1  0
 29 31  1  0
M  END
>  <PUBCHEM_COMPOUND_CID>  (1) 
44209

>  <PUBCHEM_CONFORMER_RMSD>  (1) 
1.4

>  <PUBCHEM_CONFORMER_DIVERSEORDER>  (1) 
1
12
17
2
15
14
18
19
7
6
9
11
3
5
10
4
13
16
8

>  <PUBCHEM_MMFF94_PARTIAL_CHARGES>  (1) 
42
1 -0.56
10 0.27
11 0.27
12 0.27
13 0.27
14 0.28
15 0.28
16 0.28
17 0.28
18 0.57
19 0.35
2 -0.56
20 -0.14
21 -0.14
22 -0.15
23 -0.15
24 -0.15
25 -0.15
26 -0.15
27 -0.15
28 -0.15
29 -0.15
3 -0.57
30 -0.15
31 -0.15
4 -0.81
45 0.37
5 -0.81
55 0.15
56 0.15
57 0.15
58 0.15
59 0.15
6 -0.73
60 0.15
61 0.15
62 0.15
63 0.15
64 0.15
7 0.3
8 0.27
9 0.27

>  <PUBCHEM_EFFECTIVE_ROTOR_COUNT>  (1) 
11.4

>  <PUBCHEM_PHARMACOPHORE_FEATURES>  (1) 
10
1 1 acceptor
1 2 acceptor
1 3 acceptor
1 4 cation
1 5 cation
1 6 donor
6 1 4 10 11 14 15 rings
6 2 5 12 13 16 17 rings
6 20 22 24 26 28 30 rings
6 21 23 25 27 29 31 rings

>  <PUBCHEM_HEAVY_ATOM_COUNT>  (1) 
31

>  <PUBCHEM_ATOM_DEF_STEREO_COUNT>  (1) 
0

>  <PUBCHEM_ATOM_UDEF_STEREO_COUNT>  (1) 
0

>  <PUBCHEM_BOND_DEF_STEREO_COUNT>  (1) 
0

>  <PUBCHEM_BOND_UDEF_STEREO_COUNT>  (1) 
0

>  <PUBCHEM_ISOTOPIC_ATOM_COUNT>  (1) 
0

>  <PUBCHEM_COMPONENT_COUNT>  (1) 
1

>  <PUBCHEM_CACTVS_TAUTO_COUNT>  (1) 
2

>  <PUBCHEM_CONFORMER_ID>  (1) 
0000ACB100000001

>  <PUBCHEM_MMFF94_ENERGY>  (1) 
69.3977

>  <PUBCHEM_FEATURE_SELFOVERLAP>  (1) 
50.747

>  <PUBCHEM_SHAPE_FINGERPRINT>  (1) 
10675989 125 17689426088595013125
11513181 2 18048591521742284373
11578080 2 18265066746925757981
12106331 60 18043258027137868754
12788726 201 18115291372385996985
12930653 34 18409729555931633129
13383661 66 16412643856089358823
13540713 4 18264220118898871347
13773456 30 18266166245784540069
14117953 113 18196934594594703055
14747281 78 17770234756024172269
14840074 17 18119537780075093371
15439362 3 18049718516892017396
15575132 122 18335422429896793836
15775530 1 18267595598026582459
17980427 23 17167865291895560196
21033648 144 18115012005732391564
21033648 29 18201142348105670160
21796203 349 17250372807927325363
23559900 14 17981877554019440706
25019877 29 16698947900723109535
3380486 145 18337679728255198187
46939830 39 17465642886726261055
5080951 261 17344893334605685414
7399639 24 18411430518043167075
9981440 41 18198036163105125241

>  <PUBCHEM_SHAPE_MULTIPOLES>  (1) 
605.41
12.02
6.4
1.71
14.91
3.35
0.21
-12.38
-1.57
-3.87
2.25
-0.37
0.59
3.32

>  <PUBCHEM_SHAPE_SELFOVERLAP>  (1) 
1271.15

>  <PUBCHEM_SHAPE_VOLUME>  (1) 
338.3

>  <PUBCHEM_COORDINATE_TYPE>  (1) 
2
5
10

$$$$
