44206
     RDKit          3D

 33 34  0  0  0  0  0  0  0  0999 V2000
   -0.7706   -0.9025   -1.4261 O   0  0  0  0  0  0  0  0  0  0  0  0
    1.2268    2.1531   -0.4024 N   0  0  0  0  0  0  0  0  0  0  0  0
    3.8560   -1.2444    0.2196 N   0  0  0  0  0  0  0  0  0  0  0  0
    0.2404   -0.3348    0.5800 N   0  0  0  0  0  0  0  0  0  0  0  0
    1.5907   -0.2602    0.0605 C   0  0  0  0  0  0  0  0  0  0  0  0
    2.1109    1.1757    0.2221 C   0  0  0  0  0  0  0  0  0  0  0  0
    2.4967   -1.2908    0.7538 C   0  0  0  0  0  0  0  0  0  0  0  0
    1.4926    2.2443   -1.8390 C   0  0  0  0  0  0  0  0  0  0  0  0
    1.3831    3.4653    0.2274 C   0  0  0  0  0  0  0  0  0  0  0  0
    4.8104   -1.7573    1.2025 C   0  0  0  0  0  0  0  0  0  0  0  0
    3.9440   -2.0090   -1.0243 C   0  0  0  0  0  0  0  0  0  0  0  0
    0.2628    2.8018   -2.5487 C   0  0  0  0  0  0  0  0  0  0  0  0
    2.7170    3.1182   -2.0960 C   0  0  0  0  0  0  0  0  0  0  0  0
    0.5432    3.5212    1.4995 C   0  0  0  0  0  0  0  0  0  0  0  0
    2.8543    3.7353    0.5295 C   0  0  0  0  0  0  0  0  0  0  0  0
    4.2290   -2.9719    1.9205 C   0  0  0  0  0  0  0  0  0  0  0  0
    5.1629   -0.6519    2.1929 C   0  0  0  0  0  0  0  0  0  0  0  0
    5.1370   -1.5185   -1.8386 C   0  0  0  0  0  0  0  0  0  0  0  0
    4.0629   -3.5000   -0.7215 C   0  0  0  0  0  0  0  0  0  0  0  0
   -0.8432   -0.6555   -0.2238 C   0  0  0  0  0  0  0  0  0  0  0  0
   -2.1595   -0.6719    0.5589 C   0  0  0  0  0  0  0  0  0  0  0  0
   -3.1317   -1.7410    0.0731 C   0  0  0  0  0  0  0  0  0  0  0  0
   -2.7916    0.7115    0.6483 C   0  0  0  0  0  0  0  0  0  0  0  0
   -4.0515   -1.4424   -0.9322 C   0  0  0  0  0  0  0  0  0  0  0  0
   -3.5717    1.0517    1.7535 C   0  0  0  0  0  0  0  0  0  0  0  0
   -3.1014   -3.0180    0.6337 C   0  0  0  0  0  0  0  0  0  0  0  0
   -2.5899    1.6382   -0.3747 C   0  0  0  0  0  0  0  0  0  0  0  0
   -4.9409   -2.4206   -1.3769 C   0  0  0  0  0  0  0  0  0  0  0  0
   -4.1503    2.3182    1.8357 C   0  0  0  0  0  0  0  0  0  0  0  0
   -3.9908   -3.9962    0.1888 C   0  0  0  0  0  0  0  0  0  0  0  0
   -3.1684    2.9047   -0.2924 C   0  0  0  0  0  0  0  0  0  0  0  0
   -4.9105   -3.6974   -0.8165 C   0  0  0  0  0  0  0  0  0  0  0  0
   -3.9486    3.2448    0.8129 C   0  0  0  0  0  0  0  0  0  0  0  0
  1 20  2  0
  2  6  1  0
  2  8  1  0
  2  9  1  0
  3  7  1  0
  3 10  1  0
  3 11  1  0
  4  5  1  0
  4 20  1  0
  5  6  1  0
  5  7  1  0
  8 12  1  0
  8 13  1  0
  9 14  1  0
  9 15  1  0
 10 16  1  0
 10 17  1  0
 11 18  1  0
 11 19  1  0
 20 21  1  0
 21 22  1  0
 21 23  1  0
 22 24  2  0
 22 26  1  0
 23 25  2  0
 23 27  1  0
 24 28  1  0
 25 29  1  0
 26 30  2  0
 27 31  2  0
 28 32  2  0
 29 33  2  0
 30 32  1  0
 31 33  1  0
M  END
>  <PUBCHEM_COMPOUND_CID>  (1) 
44206

>  <PUBCHEM_CONFORMER_RMSD>  (1) 
1.2

>  <PUBCHEM_CONFORMER_DIVERSEORDER>  (1) 
2
1
14
17
6
18
22
25
20
24
15
29
5
27
21
16
12
28
3
4
23
13
10
26
9
19
11
7
8

>  <PUBCHEM_MMFF94_PARTIAL_CHARGES>  (1) 
36
1 -0.57
10 0.27
11 0.27
2 -0.81
20 0.57
21 0.35
22 -0.14
23 -0.14
24 -0.15
25 -0.15
26 -0.15
27 -0.15
28 -0.15
29 -0.15
3 -0.81
30 -0.15
31 -0.15
32 -0.15
33 -0.15
4 -0.73
43 0.37
5 0.3
6 0.27
69 0.15
7 0.27
70 0.15
71 0.15
72 0.15
73 0.15
74 0.15
75 0.15
76 0.15
77 0.15
78 0.15
8 0.27
9 0.27

>  <PUBCHEM_EFFECTIVE_ROTOR_COUNT>  (1) 
13

>  <PUBCHEM_PHARMACOPHORE_FEATURES>  (1) 
10
1 1 acceptor
1 2 cation
1 3 cation
1 4 donor
3 10 16 17 hydrophobe
3 11 18 19 hydrophobe
3 8 12 13 hydrophobe
3 9 14 15 hydrophobe
6 22 24 26 28 30 32 rings
6 23 25 27 29 31 33 rings

>  <PUBCHEM_HEAVY_ATOM_COUNT>  (1) 
33

>  <PUBCHEM_ATOM_DEF_STEREO_COUNT>  (1) 
0

>  <PUBCHEM_ATOM_UDEF_STEREO_COUNT>  (1) 
0

>  <PUBCHEM_BOND_DEF_STEREO_COUNT>  (1) 
0

>  <PUBCHEM_BOND_UDEF_STEREO_COUNT>  (1) 
0

>  <PUBCHEM_ISOTOPIC_ATOM_COUNT>  (1) 
0

>  <PUBCHEM_COMPONENT_COUNT>  (1) 
1

>  <PUBCHEM_CACTVS_TAUTO_COUNT>  (1) 
2

>  <PUBCHEM_CONFORMER_ID>  (1) 
0000ACAE00000002

>  <PUBCHEM_MMFF94_ENERGY>  (1) 
112.4598

>  <PUBCHEM_FEATURE_SELFOVERLAP>  (1) 
50.747

>  <PUBCHEM_SHAPE_FINGERPRINT>  (1) 
1100329 8 18339645525426639369
11014199 57 18409731789531047891
12147406 95 18129668637432405095
12633257 1 18340781333996911985
133893 2 17896045497462921292
13540713 5 18337402629196086001
13583140 156 16701437040434014402
14068700 675 18338780308823824639
14955137 171 18121523283289478257
15420108 30 17834104248583689745
17492 89 18342176721389768159
17909252 39 18195531612760690067
20775438 99 17836882955059270885
20775530 9 18335991946939535169
21033648 29 17983007847873415761
2132832 1 18339070588361406241
21703447 108 18198620132359305265
23558518 356 18334864960717242371
23559900 14 18265034990164717035
2818148 4 18268445666591292049
312423 11 18340216300894661887
4409770 3 17537703405246065308
44880168 125 18052540967503947702
59755656 215 17973717271150292580
70251023 43 18339081600816543219
7164475 11 18340768260205893357

>  <PUBCHEM_SHAPE_MULTIPOLES>  (1) 
658.31
11.49
6.22
2.05
1.67
0.94
-0.32
-10.2
1.35
-1.76
-0.41
1.44
0.77
-2.76

>  <PUBCHEM_SHAPE_SELFOVERLAP>  (1) 
1347.799

>  <PUBCHEM_SHAPE_VOLUME>  (1) 
383.5

>  <PUBCHEM_COORDINATE_TYPE>  (1) 
2
5
10

$$$$
