44205
     RDKit          3D

 29 30  0  0  1  0  0  0  0  0999 V2000
    0.7797    1.2883   -1.3424 O   0  0  0  0  0  0  0  0  0  0  0  0
   -2.8406   -0.9774    0.0961 N   0  0  0  0  0  0  0  0  0  0  0  0
   -0.5166    0.6836    0.4803 N   0  0  0  0  0  0  0  0  0  0  0  0
   -3.0576    3.3601   -0.0884 N   0  0  0  0  0  0  0  0  0  0  0  0
   -2.9575    0.4260    0.4862 C   0  0  0  0  0  0  0  0  0  0  0  0
   -1.7569    1.2451   -0.0150 C   0  0  0  0  0  0  0  0  0  0  0  0
   -3.2923   -1.1653   -1.2824 C   0  0  0  0  0  0  0  0  0  0  0  0
   -3.6092   -1.8275    1.0053 C   0  0  0  0  0  0  0  0  0  0  0  0
   -1.8420    2.7207    0.4019 C   0  0  0  0  0  0  0  0  0  0  0  0
   -4.8162   -1.2279   -1.3359 C   0  0  0  0  0  0  0  0  0  0  0  0
   -2.6713   -2.4371   -1.8514 C   0  0  0  0  0  0  0  0  0  0  0  0
   -2.7844   -2.1077    2.2576 C   0  0  0  0  0  0  0  0  0  0  0  0
   -4.9349   -1.1599    1.3600 C   0  0  0  0  0  0  0  0  0  0  0  0
    0.6660    0.7555   -0.2401 C   0  0  0  0  0  0  0  0  0  0  0  0
    1.8335    0.0924    0.4966 C   0  0  0  0  0  0  0  0  0  0  0  0
   -3.4151    4.5022    0.7546 C   0  0  0  0  0  0  0  0  0  0  0  0
   -2.8901    3.7876   -1.4784 C   0  0  0  0  0  0  0  0  0  0  0  0
    3.1640    0.8018    0.2714 C   0  0  0  0  0  0  0  0  0  0  0  0
    1.9048   -1.4059    0.2289 C   0  0  0  0  0  0  0  0  0  0  0  0
    3.9826    0.4274   -0.7942 C   0  0  0  0  0  0  0  0  0  0  0  0
    2.4200   -2.2642    1.2004 C   0  0  0  0  0  0  0  0  0  0  0  0
    3.5628    1.8258    1.1308 C   0  0  0  0  0  0  0  0  0  0  0  0
    1.4543   -1.9194   -0.9874 C   0  0  0  0  0  0  0  0  0  0  0  0
    5.1998    1.0766   -1.0005 C   0  0  0  0  0  0  0  0  0  0  0  0
    2.4850   -3.6358    0.9555 C   0  0  0  0  0  0  0  0  0  0  0  0
    4.7801    2.4750    0.9244 C   0  0  0  0  0  0  0  0  0  0  0  0
    1.5192   -3.2911   -1.2320 C   0  0  0  0  0  0  0  0  0  0  0  0
    5.5984    2.1003   -0.1413 C   0  0  0  0  0  0  0  0  0  0  0  0
    2.0346   -4.1493   -0.2606 C   0  0  0  0  0  0  0  0  0  0  0  0
  1 14  2  0
  2  5  1  0
  2  7  1  0
  2  8  1  0
  3  6  1  0
  3 14  1  0
  4  9  1  0
  4 16  1  0
  4 17  1  0
  5  6  1  0
  6  9  1  0
  7 10  1  0
  7 11  1  0
  8 12  1  0
  8 13  1  0
 14 15  1  0
 15 18  1  0
 15 19  1  0
 18 20  2  0
 18 22  1  0
 19 21  2  0
 19 23  1  0
 20 24  1  0
 21 25  1  0
 22 26  2  0
 23 27  2  0
 24 28  2  0
 25 29  2  0
 26 28  1  0
 27 29  1  0
M  END
>  <PUBCHEM_COMPOUND_CID>  (1) 
44205

>  <PUBCHEM_CONFORMER_RMSD>  (1) 
1

>  <PUBCHEM_CONFORMER_DIVERSEORDER>  (1) 
1
126
42
6
74
119
121
92
31
75
27
107
45
82
71
122
23
105
13
34
88
109
102
51
98
108
38
54
18
37
12
19
103
22
15
4
25
3
41
83
26
76
90
14
89
29
86
17
61
68
70
106
20
5
30
46
48
127
49
39
79
78
40
112
33
32
43
59
120
95
99
81
101
57
104
85
72
73
35
65
97
91
58
118
63
93
113
67
52
125
66
115
53
28
84
96
62
36
55
11
94
50
123
44
77
111
60
87
110
117
116
10
114
124
100
7
80
56
16
24
8
64
47
2
69
21
9

>  <PUBCHEM_MMFF94_PARTIAL_CHARGES>  (1) 
36
1 -0.57
14 0.57
15 0.35
16 0.27
17 0.27
18 -0.14
19 -0.14
2 -0.81
20 -0.15
21 -0.15
22 -0.15
23 -0.15
24 -0.15
25 -0.15
26 -0.15
27 -0.15
28 -0.15
29 -0.15
3 -0.73
37 0.37
4 -0.81
5 0.27
57 0.15
58 0.15
59 0.15
6 0.3
60 0.15
61 0.15
62 0.15
63 0.15
64 0.15
65 0.15
66 0.15
7 0.27
8 0.27
9 0.27

>  <PUBCHEM_EFFECTIVE_ROTOR_COUNT>  (1) 
11

>  <PUBCHEM_PHARMACOPHORE_FEATURES>  (1) 
8
1 1 acceptor
1 2 cation
1 3 donor
1 4 cation
3 7 10 11 hydrophobe
3 8 12 13 hydrophobe
6 18 20 22 24 26 28 rings
6 19 21 23 25 27 29 rings

>  <PUBCHEM_HEAVY_ATOM_COUNT>  (1) 
29

>  <PUBCHEM_ATOM_DEF_STEREO_COUNT>  (1) 
0

>  <PUBCHEM_ATOM_UDEF_STEREO_COUNT>  (1) 
1

>  <PUBCHEM_BOND_DEF_STEREO_COUNT>  (1) 
0

>  <PUBCHEM_BOND_UDEF_STEREO_COUNT>  (1) 
0

>  <PUBCHEM_ISOTOPIC_ATOM_COUNT>  (1) 
0

>  <PUBCHEM_COMPONENT_COUNT>  (1) 
1

>  <PUBCHEM_CACTVS_TAUTO_COUNT>  (1) 
2

>  <PUBCHEM_CONFORMER_ID>  (1) 
0000ACAD00000001

>  <PUBCHEM_MMFF94_ENERGY>  (1) 
89.0538

>  <PUBCHEM_FEATURE_SELFOVERLAP>  (1) 
40.596

>  <PUBCHEM_SHAPE_FINGERPRINT>  (1) 
10366900 7 18339918320179155081
1100329 8 17834107924701239304
11488393 25 17915761816046436038
12553582 1 18339919437192457115
12788726 201 18336252493110519793
12930653 34 18409732854688374372
13140716 1 17976546327121042481
13911987 19 18044939227391989589
140371 6 18114753727974077925
14178342 30 18260271828193551596
14787075 74 17914614097452132000
14840074 17 18270967967681880279
17349148 13 17749391528617446400
19311894 1 17982167026616309494
21033648 29 18200866392230545520
21796203 349 17105980542641350755
22393880 68 18342742867188715420
23558518 356 18187655660789253395
23559900 14 17982723078809210634
283562 15 18340764956827832432
5309563 4 18194123156247180115
6004065 56 18122058978145654707
6442390 28 18339365266442332568
7399639 24 18410855503115180688
9709674 26 18267019453870155331

>  <PUBCHEM_SHAPE_MULTIPOLES>  (1) 
575.99
10.72
5.64
1.63
3.32
1.28
0.01
4.35
0.26
-1.48
-0.03
-1.17
-0.74
0.35

>  <PUBCHEM_SHAPE_SELFOVERLAP>  (1) 
1182.036

>  <PUBCHEM_SHAPE_VOLUME>  (1) 
334.2

>  <PUBCHEM_COORDINATE_TYPE>  (1) 
2
5
10

$$$$
