44210
     RDKit          3D

 28 30  0  0  1  0  0  0  0  0999 V2000
   -0.6759   -1.2927    1.2826 O   0  0  0  0  0  0  0  0  0  0  0  0
    3.0490    0.6148   -0.3332 N   0  0  0  0  0  0  0  0  0  0  0  0
    0.5822   -0.8611   -0.6147 N   0  0  0  0  0  0  0  0  0  0  0  0
    2.9393   -3.7090   -0.0252 N   0  0  0  0  0  0  0  0  0  0  0  0
    3.0098   -0.7915   -0.7338 C   0  0  0  0  0  0  0  0  0  0  0  0
    3.4468    0.7367    1.0764 C   0  0  0  0  0  0  0  0  0  0  0  0
    3.9538    1.3736   -1.2081 C   0  0  0  0  0  0  0  0  0  0  0  0
    3.4452    2.1987    1.5255 C   0  0  0  0  0  0  0  0  0  0  0  0
    3.9687    2.8564   -0.8335 C   0  0  0  0  0  0  0  0  0  0  0  0
    1.7876   -1.5222   -0.1585 C   0  0  0  0  0  0  0  0  0  0  0  0
    4.3365    3.0543    0.6325 C   0  0  0  0  0  0  0  0  0  0  0  0
    1.7637   -3.0112   -0.5410 C   0  0  0  0  0  0  0  0  0  0  0  0
   -0.5663   -0.8027    0.1602 C   0  0  0  0  0  0  0  0  0  0  0  0
   -1.7000   -0.0489   -0.5414 C   0  0  0  0  0  0  0  0  0  0  0  0
    3.1342   -4.9752   -0.7314 C   0  0  0  0  0  0  0  0  0  0  0  0
    2.8068   -3.9421    1.4128 C   0  0  0  0  0  0  0  0  0  0  0  0
   -1.6259    1.4612   -0.3461 C   0  0  0  0  0  0  0  0  0  0  0  0
   -3.0689   -0.6266   -0.2036 C   0  0  0  0  0  0  0  0  0  0  0  0
   -2.1168    2.3169   -1.3323 C   0  0  0  0  0  0  0  0  0  0  0  0
   -3.6109   -1.6422   -0.9913 C   0  0  0  0  0  0  0  0  0  0  0  0
   -1.0675    1.9873    0.8190 C   0  0  0  0  0  0  0  0  0  0  0  0
   -3.7798   -0.1405    0.8938 C   0  0  0  0  0  0  0  0  0  0  0  0
   -2.0492    3.6987   -1.1536 C   0  0  0  0  0  0  0  0  0  0  0  0
   -4.8640   -2.1714   -0.6821 C   0  0  0  0  0  0  0  0  0  0  0  0
   -1.0000    3.3691    0.9976 C   0  0  0  0  0  0  0  0  0  0  0  0
   -5.0327   -0.6698    1.2030 C   0  0  0  0  0  0  0  0  0  0  0  0
   -1.4908    4.2247    0.0113 C   0  0  0  0  0  0  0  0  0  0  0  0
   -5.5748   -1.6852    0.4151 C   0  0  0  0  0  0  0  0  0  0  0  0
  1 13  2  0
  2  5  1  0
  2  6  1  0
  2  7  1  0
  3 10  1  0
  3 13  1  0
  4 12  1  0
  4 15  1  0
  4 16  1  0
  5 10  1  0
  6  8  1  0
  7  9  1  0
  8 11  1  0
  9 11  1  0
 10 12  1  0
 13 14  1  0
 14 17  1  0
 14 18  1  0
 17 19  2  0
 17 21  1  0
 18 20  2  0
 18 22  1  0
 19 23  1  0
 20 24  1  0
 21 25  2  0
 22 26  2  0
 23 27  2  0
 24 28  2  0
 25 27  1  0
 26 28  1  0
M  END
>  <PUBCHEM_COMPOUND_CID>  (1) 
44210

>  <PUBCHEM_CONFORMER_RMSD>  (1) 
1

>  <PUBCHEM_CONFORMER_DIVERSEORDER>  (1) 
1
107
125
132
120
74
67
30
73
94
122
175
172
118
19
48
27
103
130
114
170
68
159
81
69
178
12
104
56
38
168
180
127
149
116
29
142
121
135
152
109
119
51
43
6
88
22
138
143
47
11
157
177
174
61
124
75
79
128
18
93
34
62
129
55
137
112
171
156
147
151
71
72
78
176
37
148
108
96
163
141
41
115
21
164
183
133
113
160
4
161
45
86
58
182
85
144
76
99
89
8
111
184
167
77
117
15
100
24
65
92
91
54
44
16
153
131
50
59
105
154
82
10
87
169
136
60
165
49
162
173
7
2
134
57
31
158
64
110
35
181
13
66
70
33
98
84
42
145
9
17
53
28
155
52
32
40
39
126
123
46
179
80
36
83
140
106
23
146
26
63
166
101
5
90
3
25
150
95
20
139
14
97
102

>  <PUBCHEM_MMFF94_PARTIAL_CHARGES>  (1) 
36
1 -0.57
10 0.3
12 0.27
13 0.57
14 0.35
15 0.27
16 0.27
17 -0.14
18 -0.14
19 -0.15
2 -0.81
20 -0.15
21 -0.15
22 -0.15
23 -0.15
24 -0.15
25 -0.15
26 -0.15
27 -0.15
28 -0.15
3 -0.73
4 -0.81
44 0.37
5 0.27
52 0.15
53 0.15
54 0.15
55 0.15
56 0.15
57 0.15
58 0.15
59 0.15
6 0.27
60 0.15
61 0.15
7 0.27

>  <PUBCHEM_EFFECTIVE_ROTOR_COUNT>  (1) 
10.2

>  <PUBCHEM_PHARMACOPHORE_FEATURES>  (1) 
7
1 1 acceptor
1 2 cation
1 3 donor
1 4 cation
6 17 19 21 23 25 27 rings
6 18 20 22 24 26 28 rings
6 2 6 7 8 9 11 rings

>  <PUBCHEM_HEAVY_ATOM_COUNT>  (1) 
28

>  <PUBCHEM_ATOM_DEF_STEREO_COUNT>  (1) 
0

>  <PUBCHEM_ATOM_UDEF_STEREO_COUNT>  (1) 
1

>  <PUBCHEM_BOND_DEF_STEREO_COUNT>  (1) 
0

>  <PUBCHEM_BOND_UDEF_STEREO_COUNT>  (1) 
0

>  <PUBCHEM_ISOTOPIC_ATOM_COUNT>  (1) 
0

>  <PUBCHEM_COMPONENT_COUNT>  (1) 
1

>  <PUBCHEM_CACTVS_TAUTO_COUNT>  (1) 
2

>  <PUBCHEM_CONFORMER_ID>  (1) 
0000ACB200000001

>  <PUBCHEM_MMFF94_ENERGY>  (1) 
59.2151

>  <PUBCHEM_FEATURE_SELFOVERLAP>  (1) 
35.522

>  <PUBCHEM_SHAPE_FINGERPRINT>  (1) 
10006869 2 18200036132181150169
10074138 170 17547823701627059338
10090160 65 18262796409880171094
10366900 7 18262535744320917066
10670039 82 18262811760769137852
1100329 8 17762902065253559761
12107698 1 18260537931951373736
12788726 201 18187926230723511385
13004483 165 18339644426510850483
13140716 1 18123187071920552776
1361 2 18052255386463979945
13911987 19 18118399781113496949
14114211 80 17980217588025518096
14787075 74 18189898789222242657
14790565 3 18123757718709264465
14840074 17 18195814183239060485
16728300 4 17754696591138976752
17492 89 18265896865114689679
1813 80 18263362663154507909
18393751 57 18052807332922218552
20028762 73 17623854930340382727
20775438 99 17905566022993674837
21703447 108 18335693897673928283
23558518 356 18191025603693349523
23559900 14 18194110829036724319
2818148 4 18126302860325059384
350125 39 18411706456907019388
3737641 26 18341622515999693767
469060 322 18337120041612297945
621550 34 18411697720431712861
70251023 43 18269569272569198458
7164475 11 18336829675978807551
7399639 24 18340477945859452908
9981440 41 18338219553709137168

>  <PUBCHEM_SHAPE_MULTIPOLES>  (1) 
555.41
10.12
6.37
1.35
4.64
2.02
0.17
2.67
0.74
-5.38
-0.35
-0.22
-0.25
0.5

>  <PUBCHEM_SHAPE_SELFOVERLAP>  (1) 
1153.484

>  <PUBCHEM_SHAPE_VOLUME>  (1) 
316.2

>  <PUBCHEM_COORDINATE_TYPE>  (1) 
2
5
10

$$$$
