44212
     RDKit          3D

 32 34  0  0  1  0  0  0  0  0999 V2000
   -0.4408    0.0394    1.5635 O   0  0  0  0  0  0  0  0  0  0  0  0
    3.7112    1.1507    0.0990 N   0  0  0  0  0  0  0  0  0  0  0  0
    1.7846   -2.4059   -1.4986 N   0  0  0  0  0  0  0  0  0  0  0  0
    0.2700   -0.1102   -0.6366 N   0  0  0  0  0  0  0  0  0  0  0  0
    1.6832   -0.2219   -0.3384 C   0  0  0  0  0  0  0  0  0  0  0  0
    2.2863    1.1863   -0.2293 C   0  0  0  0  0  0  0  0  0  0  0  0
    2.3918   -1.0805   -1.3989 C   0  0  0  0  0  0  0  0  0  0  0  0
    4.2816    2.5045    0.0595 C   0  0  0  0  0  0  0  0  0  0  0  0
    3.9209    0.5238    1.4115 C   0  0  0  0  0  0  0  0  0  0  0  0
    5.7825    2.4795    0.3526 C   0  0  0  0  0  0  0  0  0  0  0  0
    5.4102    0.4339    1.7487 C   0  0  0  0  0  0  0  0  0  0  0  0
    6.0760    1.8038    1.6873 C   0  0  0  0  0  0  0  0  0  0  0  0
    1.9605   -3.1452   -0.2485 C   0  0  0  0  0  0  0  0  0  0  0  0
    0.3643   -2.2951   -1.8303 C   0  0  0  0  0  0  0  0  0  0  0  0
    3.4487   -3.3555    0.0120 C   0  0  0  0  0  0  0  0  0  0  0  0
    1.3023   -2.3957    0.9065 C   0  0  0  0  0  0  0  0  0  0  0  0
    0.2066   -1.5237   -3.1368 C   0  0  0  0  0  0  0  0  0  0  0  0
   -0.2647   -3.6818   -1.9331 C   0  0  0  0  0  0  0  0  0  0  0  0
   -0.6870    0.0131    0.3592 C   0  0  0  0  0  0  0  0  0  0  0  0
   -2.1048    0.1173   -0.2106 C   0  0  0  0  0  0  0  0  0  0  0  0
   -2.4898    1.5395   -0.6022 C   0  0  0  0  0  0  0  0  0  0  0  0
   -3.1360   -0.5527    0.6890 C   0  0  0  0  0  0  0  0  0  0  0  0
   -3.3818    1.7253   -1.6369 C   0  0  0  0  0  0  0  0  0  0  0  0
   -3.4249   -1.8866    0.4909 C   0  0  0  0  0  0  0  0  0  0  0  0
   -1.9339    2.5934    0.0915 C   0  0  0  0  0  0  0  0  0  0  0  0
   -3.7473    0.1959    1.6728 C   0  0  0  0  0  0  0  0  0  0  0  0
   -3.7344    3.0264   -1.9951 C   0  0  0  0  0  0  0  0  0  0  0  0
   -4.3688   -2.5001    1.3146 C   0  0  0  0  0  0  0  0  0  0  0  0
   -2.2866    3.8946   -0.2668 C   0  0  0  0  0  0  0  0  0  0  0  0
   -4.6911   -0.4178    2.4964 C   0  0  0  0  0  0  0  0  0  0  0  0
   -3.1869    4.1110   -1.3101 C   0  0  0  0  0  0  0  0  0  0  0  0
   -5.0018   -1.7658    2.3172 C   0  0  0  0  0  0  0  0  0  0  0  0
  1 19  2  0
  2  6  1  0
  2  8  1  0
  2  9  1  0
  3  7  1  0
  3 13  1  0
  3 14  1  0
  4  5  1  0
  4 19  1  0
  5  6  1  0
  5  7  1  0
  8 10  1  0
  9 11  1  0
 10 12  1  0
 11 12  1  0
 13 15  1  0
 13 16  1  0
 14 17  1  0
 14 18  1  0
 19 20  1  0
 20 21  1  0
 20 22  1  0
 21 23  2  0
 21 25  1  0
 22 24  2  0
 22 26  1  0
 23 27  1  0
 24 28  1  0
 25 29  2  0
 26 30  2  0
 27 31  2  0
 28 32  2  0
 29 31  1  0
 30 32  1  0
M  END
>  <PUBCHEM_COMPOUND_CID>  (1) 
44212

>  <PUBCHEM_CONFORMER_RMSD>  (1) 
1.2

>  <PUBCHEM_CONFORMER_DIVERSEORDER>  (1) 
1
6
4
3
2
5

>  <PUBCHEM_MMFF94_PARTIAL_CHARGES>  (1) 
36
1 -0.57
13 0.27
14 0.27
19 0.57
2 -0.81
20 0.35
21 -0.14
22 -0.14
23 -0.15
24 -0.15
25 -0.15
26 -0.15
27 -0.15
28 -0.15
29 -0.15
3 -0.81
30 -0.15
31 -0.15
32 -0.15
4 -0.73
5 0.3
50 0.37
6 0.27
64 0.15
65 0.15
66 0.15
67 0.15
68 0.15
69 0.15
7 0.27
70 0.15
71 0.15
72 0.15
73 0.15
8 0.27
9 0.27

>  <PUBCHEM_EFFECTIVE_ROTOR_COUNT>  (1) 
12.2

>  <PUBCHEM_PHARMACOPHORE_FEATURES>  (1) 
9
1 1 acceptor
1 2 cation
1 3 cation
1 4 donor
3 13 15 16 hydrophobe
3 14 17 18 hydrophobe
6 2 8 9 10 11 12 rings
6 21 23 25 27 29 31 rings
6 22 24 26 28 30 32 rings

>  <PUBCHEM_HEAVY_ATOM_COUNT>  (1) 
32

>  <PUBCHEM_ATOM_DEF_STEREO_COUNT>  (1) 
0

>  <PUBCHEM_ATOM_UDEF_STEREO_COUNT>  (1) 
1

>  <PUBCHEM_BOND_DEF_STEREO_COUNT>  (1) 
0

>  <PUBCHEM_BOND_UDEF_STEREO_COUNT>  (1) 
0

>  <PUBCHEM_ISOTOPIC_ATOM_COUNT>  (1) 
0

>  <PUBCHEM_COMPONENT_COUNT>  (1) 
1

>  <PUBCHEM_CACTVS_TAUTO_COUNT>  (1) 
2

>  <PUBCHEM_CONFORMER_ID>  (1) 
0000ACB400000001

>  <PUBCHEM_MMFF94_ENERGY>  (1) 
136.2313

>  <PUBCHEM_FEATURE_SELFOVERLAP>  (1) 
45.671

>  <PUBCHEM_SHAPE_FINGERPRINT>  (1) 
10369192 42 17916880147898902352
10675989 125 16103608014073719708
11578080 2 18339371751468721945
12160290 23 17270853342029276150
12422481 6 18339653320591334315
12788726 201 17677631885134906505
12892183 10 17967523602108438568
12930653 34 18187077330315397394
13540713 4 18336552594711319159
13583140 156 18265332811391259014
14178342 30 17822013060324400289
14400156 147 15074019256998230586
15219462 58 18187929405073342423
15775530 1 18266750086268985189
15815584 197 18271246015496436412
17349148 13 15864079788051147587
17913733 40 18131069337968506266
1813 80 17898319279741913587
19319366 153 13901372316089009724
20600515 1 17314528108906297385
20642791 268 17985857975913815313
21033648 144 18191859037834463028
21133410 52 17403457867512808318
21344244 78 17905648637306662057
21756936 100 16558754571891035602
22182313 1 18341338798986783996
23559900 14 18121496861019983414
255183 313 17986114243215625954
27425 322 17903617602827896573
3380486 145 18337958986949318263
376196 1 17834368160954454197
3886686 26 17534326856381776515
469060 322 18197770218735522623
5252454 2 17917709149622112402
59755656 520 17631739382536127876
6004065 56 18118692265036035323
6523845 18 18129680672300273476
6691757 9 17345733288722749786
6913067 236 18340204202029648995
7399639 24 18339372923830749719
9981440 41 18197757956530208053

>  <PUBCHEM_SHAPE_MULTIPOLES>  (1) 
637.73
11.42
5.09
2.46
8.98
1.06
-0.43
5.73
7.9
-1.3
-2.3
-1.62
-1.02
4.34

>  <PUBCHEM_SHAPE_SELFOVERLAP>  (1) 
1331.927

>  <PUBCHEM_SHAPE_VOLUME>  (1) 
360.7

>  <PUBCHEM_COORDINATE_TYPE>  (1) 
2
5
10

$$$$
