44216
     RDKit          3D

 13 13  0  0  0  0  0  0  0  0999 V2000
    2.2305   -2.1868    0.4137 Cl  0  0  0  0  0  0  0  0  0  0  0  0
   -2.5145    1.1620   -0.4976 O   0  0  0  0  0  0  0  0  0  0  0  0
   -2.7761   -1.5711   -0.0658 O   0  0  0  0  0  0  0  0  0  0  0  0
    2.3838    1.8112    0.8714 O   0  0  0  0  0  0  0  0  0  0  0  0
    3.2099    0.5861   -0.8559 O   0  0  0  0  0  0  0  0  0  0  0  0
   -1.4148    0.3860   -0.2874 C   0  0  0  0  0  0  0  0  0  0  0  0
    0.9836    0.1902   -0.0741 C   0  0  0  0  0  0  0  0  0  0  0  0
   -0.1500    0.9740   -0.2890 C   0  0  0  0  0  0  0  0  0  0  0  0
   -1.5461   -0.9857   -0.0708 C   0  0  0  0  0  0  0  0  0  0  0  0
    0.8525   -1.1816    0.1425 C   0  0  0  0  0  0  0  0  0  0  0  0
   -0.4125   -1.7696    0.1442 C   0  0  0  0  0  0  0  0  0  0  0  0
    2.2847    0.8481   -0.0837 C   0  0  0  0  0  0  0  0  0  0  0  0
   -3.1311    1.7374    0.6526 C   0  0  0  0  0  0  0  0  0  0  0  0
  1 10  1  0
  2  6  1  0
  2 13  1  0
  3  9  1  0
  4 12  1  0
  5 12  2  0
  6  8  2  0
  6  9  1  0
  7  8  1  0
  7 10  2  0
  7 12  1  0
  9 11  2  0
 10 11  1  0
M  END
>  <PUBCHEM_COMPOUND_CID>  (1) 
44216

>  <PUBCHEM_CONFORMER_RMSD>  (1) 
0.6

>  <PUBCHEM_CONFORMER_DIVERSEORDER>  (1) 
2
1

>  <PUBCHEM_MMFF94_PARTIAL_CHARGES>  (1) 
17
1 -0.18
10 0.18
11 -0.15
12 0.63
13 0.28
14 0.15
15 0.15
19 0.45
2 -0.36
20 0.5
3 -0.53
4 -0.65
5 -0.57
6 0.08
7 0.09
8 -0.15
9 0.08

>  <PUBCHEM_EFFECTIVE_ROTOR_COUNT>  (1) 
2

>  <PUBCHEM_PHARMACOPHORE_FEATURES>  (1) 
6
1 2 acceptor
1 3 donor
1 4 acceptor
1 5 acceptor
3 4 5 12 anion
6 6 7 8 9 10 11 rings

>  <PUBCHEM_HEAVY_ATOM_COUNT>  (1) 
13

>  <PUBCHEM_ATOM_DEF_STEREO_COUNT>  (1) 
0

>  <PUBCHEM_ATOM_UDEF_STEREO_COUNT>  (1) 
0

>  <PUBCHEM_BOND_DEF_STEREO_COUNT>  (1) 
0

>  <PUBCHEM_BOND_UDEF_STEREO_COUNT>  (1) 
0

>  <PUBCHEM_ISOTOPIC_ATOM_COUNT>  (1) 
0

>  <PUBCHEM_COMPONENT_COUNT>  (1) 
1

>  <PUBCHEM_CACTVS_TAUTO_COUNT>  (1) 
4

>  <PUBCHEM_CONFORMER_ID>  (1) 
0000ACB800000002

>  <PUBCHEM_MMFF94_ENERGY>  (1) 
46.9926

>  <PUBCHEM_FEATURE_SELFOVERLAP>  (1) 
30.504

>  <PUBCHEM_SHAPE_FINGERPRINT>  (1) 
11206711 2 18336824316007133599
12423570 1 17748826297799020901
12491281 212 18410863135419492249
12932764 1 18059856211414795990
13140716 1 18336542703449343395
13380535 21 18336275560714994199
13380535 76 18409161095619846447
14325111 11 18409730690066931876
14614273 12 18115569573806466989
14897335 6 18410003313142315301
15490181 7 18198615721660227990
15775835 57 18337117782295352252
16945 1 18192429890395391279
193761 8 18409444769651623531
20510252 161 18125723632361248601
20511035 2 18335989679070442815
21040471 1 18335980947580920732
21501502 16 18409165489345100919
2334 1 18408038520070464439
23552423 10 18187362104001369654
23559900 14 18342748421261989188
2748010 2 18335700529103166823
5084963 1 18127421257002916360
5255222 1 18335978671243317028
53812653 166 18412263930529289872
57177213 63 18187088398767943846
63268167 104 18338519616639360896
6333449 129 18411980299389267429
68250623 7 18409730638358837471
7364860 26 18341325596531875578
8030462 33 18411128164871481031
81228 2 18047470316149493859

>  <PUBCHEM_SHAPE_MULTIPOLES>  (1) 
245.93
4.64
2.32
0.76
0.94
0.53
0.04
-1.41
0.19
-0.38
0.37
-0.11
-0.17
-0.31

>  <PUBCHEM_SHAPE_SELFOVERLAP>  (1) 
508.79

>  <PUBCHEM_SHAPE_VOLUME>  (1) 
142.4

>  <PUBCHEM_COORDINATE_TYPE>  (1) 
2
5
10

$$$$
