44213
     RDKit          3D

 31 34  0  0  0  0  0  0  0  0999 V2000
   -0.4463   -0.8823    1.2899 O   0  0  0  0  0  0  0  0  0  0  0  0
    4.0508   -1.0463   -0.6016 N   0  0  0  0  0  0  0  0  0  0  0  0
    1.3026    2.2800    0.0249 N   0  0  0  0  0  0  0  0  0  0  0  0
    0.3864   -0.3477   -0.8052 N   0  0  0  0  0  0  0  0  0  0  0  0
    1.7523   -0.1213   -0.3790 C   0  0  0  0  0  0  0  0  0  0  0  0
    2.6685   -1.1419   -1.0702 C   0  0  0  0  0  0  0  0  0  0  0  0
    2.1761    1.3291   -0.6624 C   0  0  0  0  0  0  0  0  0  0  0  0
    4.9607   -1.7103   -1.5456 C   0  0  0  0  0  0  0  0  0  0  0  0
    4.1767   -1.6157    0.7473 C   0  0  0  0  0  0  0  0  0  0  0  0
    1.4261    3.6167   -0.5732 C   0  0  0  0  0  0  0  0  0  0  0  0
    1.6069    2.3111    1.4624 C   0  0  0  0  0  0  0  0  0  0  0  0
    6.4164   -1.5770   -1.0955 C   0  0  0  0  0  0  0  0  0  0  0  0
    5.6067   -1.4796    1.2723 C   0  0  0  0  0  0  0  0  0  0  0  0
    0.4823    4.6129    0.1021 C   0  0  0  0  0  0  0  0  0  0  0  0
    0.6692    3.2647    2.2043 C   0  0  0  0  0  0  0  0  0  0  0  0
    6.6111   -2.1147    0.3175 C   0  0  0  0  0  0  0  0  0  0  0  0
    0.7176    4.6666    1.6073 C   0  0  0  0  0  0  0  0  0  0  0  0
   -0.6129   -0.7154    0.0832 C   0  0  0  0  0  0  0  0  0  0  0  0
   -1.9672   -0.8917   -0.6100 C   0  0  0  0  0  0  0  0  0  0  0  0
   -2.7370    0.4155   -0.7612 C   0  0  0  0  0  0  0  0  0  0  0  0
   -2.7966   -2.0014    0.0241 C   0  0  0  0  0  0  0  0  0  0  0  0
   -3.6076    0.5917   -1.8367 C   0  0  0  0  0  0  0  0  0  0  0  0
   -2.6836   -3.3107   -0.4437 C   0  0  0  0  0  0  0  0  0  0  0  0
   -2.5713    1.4352    0.1762 C   0  0  0  0  0  0  0  0  0  0  0  0
   -3.6686   -1.7083    1.0727 C   0  0  0  0  0  0  0  0  0  0  0  0
   -4.3122    1.7876   -1.9752 C   0  0  0  0  0  0  0  0  0  0  0  0
   -3.4426   -4.3268    0.1368 C   0  0  0  0  0  0  0  0  0  0  0  0
   -3.2761    2.6310    0.0378 C   0  0  0  0  0  0  0  0  0  0  0  0
   -4.4276   -2.7245    1.6533 C   0  0  0  0  0  0  0  0  0  0  0  0
   -4.1465    2.8071   -1.0380 C   0  0  0  0  0  0  0  0  0  0  0  0
   -4.3145   -4.0337    1.1853 C   0  0  0  0  0  0  0  0  0  0  0  0
  1 18  2  0
  2  6  1  0
  2  8  1  0
  2  9  1  0
  3  7  1  0
  3 10  1  0
  3 11  1  0
  4  5  1  0
  4 18  1  0
  5  6  1  0
  5  7  1  0
  8 12  1  0
  9 13  1  0
 10 14  1  0
 11 15  1  0
 12 16  1  0
 13 16  1  0
 14 17  1  0
 15 17  1  0
 18 19  1  0
 19 20  1  0
 19 21  1  0
 20 22  2  0
 20 24  1  0
 21 23  2  0
 21 25  1  0
 22 26  1  0
 23 27  1  0
 24 28  2  0
 25 29  2  0
 26 30  2  0
 27 31  2  0
 28 30  1  0
 29 31  1  0
M  END
>  <PUBCHEM_COMPOUND_CID>  (1) 
44213

>  <PUBCHEM_CONFORMER_RMSD>  (1) 
1.4

>  <PUBCHEM_CONFORMER_DIVERSEORDER>  (1) 
1
18
7
13
17
15
6
19
2
16
12
4
22
21
9
11
8
3
14
20
5
10

>  <PUBCHEM_MMFF94_PARTIAL_CHARGES>  (1) 
36
1 -0.57
10 0.27
11 0.27
18 0.57
19 0.35
2 -0.81
20 -0.14
21 -0.14
22 -0.15
23 -0.15
24 -0.15
25 -0.15
26 -0.15
27 -0.15
28 -0.15
29 -0.15
3 -0.81
30 -0.15
31 -0.15
4 -0.73
5 0.3
57 0.37
59 0.15
6 0.27
60 0.15
61 0.15
62 0.15
63 0.15
64 0.15
65 0.15
66 0.15
67 0.15
68 0.15
7 0.27
8 0.27
9 0.27

>  <PUBCHEM_EFFECTIVE_ROTOR_COUNT>  (1) 
11.4

>  <PUBCHEM_PHARMACOPHORE_FEATURES>  (1) 
8
1 1 acceptor
1 2 cation
1 3 cation
1 4 donor
6 2 8 9 12 13 16 rings
6 20 22 24 26 28 30 rings
6 21 23 25 27 29 31 rings
6 3 10 11 14 15 17 rings

>  <PUBCHEM_HEAVY_ATOM_COUNT>  (1) 
31

>  <PUBCHEM_ATOM_DEF_STEREO_COUNT>  (1) 
0

>  <PUBCHEM_ATOM_UDEF_STEREO_COUNT>  (1) 
0

>  <PUBCHEM_BOND_DEF_STEREO_COUNT>  (1) 
0

>  <PUBCHEM_BOND_UDEF_STEREO_COUNT>  (1) 
0

>  <PUBCHEM_ISOTOPIC_ATOM_COUNT>  (1) 
0

>  <PUBCHEM_COMPONENT_COUNT>  (1) 
1

>  <PUBCHEM_CACTVS_TAUTO_COUNT>  (1) 
2

>  <PUBCHEM_CONFORMER_ID>  (1) 
0000ACB500000001

>  <PUBCHEM_MMFF94_ENERGY>  (1) 
52.0706

>  <PUBCHEM_FEATURE_SELFOVERLAP>  (1) 
40.597

>  <PUBCHEM_SHAPE_FINGERPRINT>  (1) 
10074138 170 18052528881892355306
10165383 225 17969785160262140877
10675989 125 17328859899065835197
12293681 160 17909815558057233225
12293681 4 18339925892037835556
12403259 226 18337394970989549679
12608794 3 18126585421876391968
12633046 712 18261384564204675758
12788726 201 17982157925542815048
13540713 4 18264194984750242165
13690498 29 18263094338956292422
140371 6 18198071287548125564
14251757 5 18265614282320623300
14347332 77 18188496885790018831
15775530 1 18267574900589739029
15815584 197 17988092084261531574
17980427 23 13830125105291912906
19319366 153 17242449408945806131
20600515 1 18338807697676953356
20775438 99 17766237189754015503
21033648 29 17560785611930938834
21703447 108 18121204643961144851
23559900 14 18263635328962864471
24893992 56 18337384921864187149
2818148 4 18194145090312942193
283562 15 17837768924369831652
3383291 50 18340482279988285543
44062 13 18333450932534189230
484989 97 18335134303070653397
49967989 163 18267038171849471310
613672 6 18272650109014465038
621550 34 17763178446804868777
6371380 46 18338510834286334957
70251023 43 18191592054151248963
7226269 152 18266454296398625940
7399639 24 17764018469240794921

>  <PUBCHEM_SHAPE_MULTIPOLES>  (1) 
617.15
12.26
6.52
1.75
16.08
3.63
0.22
-12.84
-1.63
-4.31
2.51
-0.4
0.6
3.26

>  <PUBCHEM_SHAPE_SELFOVERLAP>  (1) 
1290.28

>  <PUBCHEM_SHAPE_VOLUME>  (1) 
347.3

>  <PUBCHEM_COORDINATE_TYPE>  (1) 
2
5
10

$$$$
