44228
     RDKit          3D

 17 17  0  0  0  0  0  0  0  0999 V2000
    3.9258    0.8645   -0.9058 O   0  0  0  0  0  0  0  0  0  0  0  0
   -0.0785   -1.7003    0.7441 O   0  0  0  0  0  0  0  0  0  0  0  0
    4.8224   -0.2799    0.9059 N   0  0  0  0  0  0  0  0  0  0  0  0
   -0.9724   -0.5375   -1.0551 N   0  0  0  0  0  0  0  0  0  0  0  0
   -2.2100   -1.0842   -0.8771 N   0  0  0  0  0  0  0  0  0  0  0  0
    2.4917   -0.5885    0.3991 C   0  0  0  0  0  0  0  0  0  0  0  0
    1.3441   -0.2101   -0.5313 C   0  0  0  0  0  0  0  0  0  0  0  0
    3.8044    0.0886    0.0384 C   0  0  0  0  0  0  0  0  0  0  0  0
    0.0390   -0.9091   -0.1879 C   0  0  0  0  0  0  0  0  0  0  0  0
    6.1722    0.2218    0.7905 C   0  0  0  0  0  0  0  0  0  0  0  0
   -3.2412   -0.2966   -0.3510 C   0  0  0  0  0  0  0  0  0  0  0  0
    6.3111    1.1773   -0.3766 C   0  0  0  0  0  0  0  0  0  0  0  0
   -4.4235   -0.8913    0.1058 C   0  0  0  0  0  0  0  0  0  0  0  0
   -3.1015    1.0944   -0.2762 C   0  0  0  0  0  0  0  0  0  0  0  0
   -5.4510   -0.1066    0.6294 C   0  0  0  0  0  0  0  0  0  0  0  0
   -4.1290    1.8791    0.2475 C   0  0  0  0  0  0  0  0  0  0  0  0
   -5.3038    1.2785    0.7002 C   0  0  0  0  0  0  0  0  0  0  0  0
  1  8  2  0
  2  9  2  0
  3  8  1  0
  3 10  1  0
  4  5  1  0
  4  9  1  0
  5 11  1  0
  6  7  1  0
  6  8  1  0
  7  9  1  0
 10 12  1  0
 11 13  2  0
 11 14  1  0
 13 15  1  0
 14 16  2  0
 15 17  2  0
 16 17  1  0
M  END
>  <PUBCHEM_COMPOUND_CID>  (1) 
44228

>  <PUBCHEM_CONFORMER_RMSD>  (1) 
0.8

>  <PUBCHEM_CONFORMER_DIVERSEORDER>  (1) 
2
93
13
80
72
18
103
95
108
44
92
29
22
65
26
107
47
61
5
82
110
52
73
35
91
117
37
41
100
60
10
70
53
49
87
66
39
105
25
76
57
104
19
86
55
112
46
9
63
97
98
31
83
12
68
4
7
85
84
34
106
71
89
43
90
59
67
6
88
99
40
109
56
24
50
111
113
30
20
54
45
42
64
1
14
11
17
101
51
102
81
114
21
28
33
94
115
16
77
15
3
32
116
69
62
8
96
79
38
78
75
58
27
36
23
74
48

>  <PUBCHEM_MMFF94_PARTIAL_CHARGES>  (1) 
24
1 -0.57
10 0.3
11 0.1
13 -0.15
14 -0.15
15 -0.15
16 -0.15
17 -0.15
2 -0.57
22 0.37
25 0.37
26 0.4
3 -0.73
30 0.15
31 0.15
32 0.15
33 0.15
34 0.15
4 -0.41
5 -0.52
6 0.06
7 0.06
8 0.57
9 0.57

>  <PUBCHEM_EFFECTIVE_ROTOR_COUNT>  (1) 
8

>  <PUBCHEM_PHARMACOPHORE_FEATURES>  (1) 
6
1 1 acceptor
1 2 acceptor
1 3 donor
1 4 donor
1 5 donor
6 11 13 14 15 16 17 rings

>  <PUBCHEM_HEAVY_ATOM_COUNT>  (1) 
17

>  <PUBCHEM_ATOM_DEF_STEREO_COUNT>  (1) 
0

>  <PUBCHEM_ATOM_UDEF_STEREO_COUNT>  (1) 
0

>  <PUBCHEM_BOND_DEF_STEREO_COUNT>  (1) 
0

>  <PUBCHEM_BOND_UDEF_STEREO_COUNT>  (1) 
0

>  <PUBCHEM_ISOTOPIC_ATOM_COUNT>  (1) 
0

>  <PUBCHEM_COMPONENT_COUNT>  (1) 
1

>  <PUBCHEM_CACTVS_TAUTO_COUNT>  (1) 
4

>  <PUBCHEM_CONFORMER_ID>  (1) 
0000ACC400000002

>  <PUBCHEM_MMFF94_ENERGY>  (1) 
47.2826

>  <PUBCHEM_FEATURE_SELFOVERLAP>  (1) 
32.024

>  <PUBCHEM_SHAPE_FINGERPRINT>  (1) 
100836 57 18343584044922916260
10354089 29 18040435495327397084
106641 1 17168431553094595521
10730089 173 18273217491131483816
11046707 91 8070025575509874407
117890 112 18202561791951942536
12236239 1 18408039611329449506
12507557 5 18186802470290163437
12596602 18 17749106681848783416
12670543 26 13973973090561938506
12916748 109 18411142424368469414
13167372 99 18411136914316176160
13288520 33 10665230350219779771
13533116 47 18343017749760301010
13668630 136 9151175363497521256
13897977 58 18412546509644736101
13964095 4 9943532899453681035
1420 363 13912323477924383280
14251752 14 17846219930355502894
14251764 18 18186519934440303348
14251764 75 15867197037609711924
14528608 73 10879983684212727306
15183329 4 15554453972538108750
15501527 16 18131632283384197873
15716309 27 15357695292836977466
15880784 105 15502386655176378785
16079462 125 16486961921912204978
17834072 8 15267342928892631002
17857418 61 10015591592892531884
17870717 6 8502653723316881473
18222031 100 9439403528036422494
200 152 10447931672109174246
20281389 69 18201716254340535472
20374829 77 9007057958928052247
20621476 66 18342461456525880472
20645477 56 17918272060651789599
20645477 70 15339132225493794502
22224240 67 17530684316651836227
23198884 109 14333408943761904865
23272321 79 18408887360116102941
23402539 116 18060692909783022310
23403322 49 11025805297302598253
23536379 177 18272932713562227842
26918003 58 12973602235776510047
270888 7 17986676957447356961
2916195 48 18131345327992353000
293599 30 17917711296683792918
351380 3 8574706897279846529
3545911 37 17704074001305479294
5104073 3 18263371287469548219
542803 24 18411134753926163366
54446538 1 18409447007250418109
5718773 13 12974470897824785769
59682541 35 18337679710911487299
59755656 520 18259701216182219154
7062679 6 18342178864646708708
960060 61 12391510901828589466

>  <PUBCHEM_SHAPE_MULTIPOLES>  (1) 
323.17
16.38
1.46
0.94
13.63
0.29
-0.01
6.35
3.21
-1.24
0.05
0.26
-0.04
-0.71

>  <PUBCHEM_SHAPE_SELFOVERLAP>  (1) 
651.519

>  <PUBCHEM_SHAPE_VOLUME>  (1) 
187.8

>  <PUBCHEM_COORDINATE_TYPE>  (1) 
2
5
10

$$$$
