44227
     RDKit          3D

 19 20  0  0  0  0  0  0  0  0999 V2000
   -6.0780   -0.2045   -0.3444 O   0  0  0  0  0  0  0  0  0  0  0  0
   -5.1751   -2.1402    0.1808 O   0  0  0  0  0  0  0  0  0  0  0  0
    5.7286   -2.1447    0.7855 O   0  0  0  0  0  0  0  0  0  0  0  0
   -0.0369    1.5376    0.2853 N   0  0  0  0  0  0  0  0  0  0  0  0
   -5.0849   -0.9100   -0.0463 N   0  0  0  0  0  0  0  0  0  0  0  0
    5.1547   -0.3479   -0.6261 N   0  0  0  0  0  0  0  0  0  0  0  0
   -1.3024    0.9244    0.2040 C   0  0  0  0  0  0  0  0  0  0  0  0
    1.2708    1.0637    0.0542 C   0  0  0  0  0  0  0  0  0  0  0  0
   -2.4264    1.6821   -0.1282 C   0  0  0  0  0  0  0  0  0  0  0  0
   -1.4338   -0.4427    0.4523 C   0  0  0  0  0  0  0  0  0  0  0  0
   -3.8089   -0.2924    0.0364 C   0  0  0  0  0  0  0  0  0  0  0  0
    2.3444    1.6083    0.7589 C   0  0  0  0  0  0  0  0  0  0  0  0
    1.4908    0.0491   -0.8773 C   0  0  0  0  0  0  0  0  0  0  0  0
   -3.6789    1.0739   -0.2119 C   0  0  0  0  0  0  0  0  0  0  0  0
   -2.6863   -1.0508    0.3685 C   0  0  0  0  0  0  0  0  0  0  0  0
    3.6380    1.1384    0.5318 C   0  0  0  0  0  0  0  0  0  0  0  0
    2.7844   -0.4209   -1.1043 C   0  0  0  0  0  0  0  0  0  0  0  0
    3.8580    0.1239   -0.3998 C   0  0  0  0  0  0  0  0  0  0  0  0
    5.4417   -1.2473    0.0806 C   0  0  0  0  0  0  0  0  0  0  0  0
  1  5  1  0
  2  5  2  0
  3 19  2  0
  4  7  1  0
  4  8  1  0
  5 11  1  0
  6 18  1  0
  6 19  2  0
  7  9  2  0
  7 10  1  0
  8 12  2  0
  8 13  1  0
  9 14  1  0
 10 15  2  0
 11 14  2  0
 11 15  1  0
 12 16  1  0
 13 17  2  0
 16 18  2  0
 17 18  1  0
M  CHG  2   1  -1   5   1
M  END
>  <PUBCHEM_COMPOUND_CID>  (1) 
44227

>  <PUBCHEM_CONFORMER_RMSD>  (1) 
0.6

>  <PUBCHEM_CONFORMER_DIVERSEORDER>  (1) 
1
13
3
12
14
10
7
4
2
6
8
9
11
5

>  <PUBCHEM_MMFF94_PARTIAL_CHARGES>  (1) 
28
1 -0.52
10 -0.15
11 0.13
12 -0.15
13 -0.15
14 -0.15
15 -0.15
16 -0.15
17 -0.15
18 0.18
19 0.79
2 -0.52
20 0.4
21 0.15
22 0.15
23 0.15
24 0.15
25 0.15
26 0.15
27 0.15
28 0.15
3 -0.49
4 -0.6
5 0.91
6 -0.48
7 0.1
8 0.1
9 -0.15

>  <PUBCHEM_EFFECTIVE_ROTOR_COUNT>  (1) 
4

>  <PUBCHEM_PHARMACOPHORE_FEATURES>  (1) 
8
1 1 acceptor
1 1 anion
1 2 acceptor
1 4 cation
1 4 donor
1 6 acceptor
6 7 9 10 11 14 15 rings
6 8 12 13 16 17 18 rings

>  <PUBCHEM_HEAVY_ATOM_COUNT>  (1) 
19

>  <PUBCHEM_ATOM_DEF_STEREO_COUNT>  (1) 
0

>  <PUBCHEM_ATOM_UDEF_STEREO_COUNT>  (1) 
0

>  <PUBCHEM_BOND_DEF_STEREO_COUNT>  (1) 
0

>  <PUBCHEM_BOND_UDEF_STEREO_COUNT>  (1) 
0

>  <PUBCHEM_ISOTOPIC_ATOM_COUNT>  (1) 
0

>  <PUBCHEM_COMPONENT_COUNT>  (1) 
1

>  <PUBCHEM_CACTVS_TAUTO_COUNT>  (1) 
1

>  <PUBCHEM_CONFORMER_ID>  (1) 
0000ACC300000001

>  <PUBCHEM_MMFF94_ENERGY>  (1) 
70.2025

>  <PUBCHEM_FEATURE_SELFOVERLAP>  (1) 
40.675

>  <PUBCHEM_SHAPE_FINGERPRINT>  (1) 
100836 57 8646767798505506222
11796584 16 18191865631041265210
12236239 1 16805321106518200301
12403259 226 18411132554297097345
12616971 3 17060333050119497053
13167823 11 18334856100183834098
13288520 33 18410577279829379589
13533116 47 18334293163273791338
13862211 1 18342174492596802903
13955234 65 18055352693782818528
14251752 14 17895187758471613077
14251764 75 15408044250283344498
14252887 29 16630252407590041028
14341114 328 12463564063386518894
15048467 5 9151168753674487298
15196674 1 18412546521918007008
17857418 61 18410291402200207458
18186145 218 14418429805751014004
18222031 100 17821445772638964492
19141452 34 18059578061639603983
200 152 17632859724296678345
20028762 73 17632291306829337014
20374829 77 18411420618190606533
20403669 9 18342744009238559286
20645477 70 18272655649537789020
21065201 7 18259976081003599865
21267235 1 18412834589669283215
22079108 93 14333119780672447878
23402539 116 18408884001705138749
23403322 49 18410294700650350465
23522609 53 18122378802147463997
23559900 14 18336260253684043193
26918003 58 17775288261661983545
2871803 45 18334856129815952168
29717793 49 17385445410332942014
3004659 81 18187086131573733622
316301 35 18339076094462481434
351380 180 18413107281422042791
4214541 1 18412829058099968305
465052 167 18272936020829334430
474 4 13326269500012666690
5104073 3 18131353007336168416
559249 180 18262514784521530595
5718773 13 18412821395519902087
59682541 52 14490736941393683018
59755656 215 18260263019479352127
59755656 520 18190739722761532597
7495541 125 18272652372224768344
76465 3 18408884006331941000
9709674 26 18265053720263380649

>  <PUBCHEM_SHAPE_MULTIPOLES>  (1) 
358.46
13.7
1.85
0.84
0.97
0.26
-0.06
7.83
0.09
-0.12
0.37
-0.58
0.03
0.15

>  <PUBCHEM_SHAPE_SELFOVERLAP>  (1) 
776.166

>  <PUBCHEM_SHAPE_VOLUME>  (1) 
195

>  <PUBCHEM_COORDINATE_TYPE>  (1) 
2
5
10

$$$$
