44226
     RDKit          3D

 20 21  0  0  0  0  0  0  0  0999 V2000
   -2.5718   -2.5701   -0.1972 Cl  0  0  0  0  0  0  0  0  0  0  0  0
   -7.0553    0.3682    0.2901 Cl  0  0  0  0  0  0  0  0  0  0  0  0
    5.2600    0.0158   -0.2175 S   0  0  0  0  0  0  0  0  0  0  0  0
    5.9022    0.0812    1.2846 O   0  0  0  0  0  0  0  0  0  0  0  0
    5.6052   -1.2857   -0.7704 O   0  0  0  0  0  0  0  0  0  0  0  0
    5.6224    1.2386   -0.9170 O   0  0  0  0  0  0  0  0  0  0  0  0
   -0.6172    0.1620    0.5902 N   0  0  0  0  0  0  0  0  0  0  0  0
   -1.2043    0.1177   -0.5165 N   0  0  0  0  0  0  0  0  0  0  0  0
    3.5307    0.0592    0.0208 C   0  0  0  0  0  0  0  0  0  0  0  0
    2.8613    1.2824    0.0543 C   0  0  0  0  0  0  0  0  0  0  0  0
    2.8186   -1.1300    0.1763 C   0  0  0  0  0  0  0  0  0  0  0  0
    0.7676    0.1273    0.3988 C   0  0  0  0  0  0  0  0  0  0  0  0
    1.4797    1.3165    0.2434 C   0  0  0  0  0  0  0  0  0  0  0  0
    1.4370   -1.0961    0.3652 C   0  0  0  0  0  0  0  0  0  0  0  0
   -2.5960    0.1523   -0.3237 C   0  0  0  0  0  0  0  0  0  0  0  0
   -3.3311   -1.0198   -0.1653 C   0  0  0  0  0  0  0  0  0  0  0  0
   -3.2326    1.3909   -0.2932 C   0  0  0  0  0  0  0  0  0  0  0  0
   -4.7114   -0.9532    0.0246 C   0  0  0  0  0  0  0  0  0  0  0  0
   -4.6127    1.4574   -0.1032 C   0  0  0  0  0  0  0  0  0  0  0  0
   -5.3522    0.2854    0.0556 C   0  0  0  0  0  0  0  0  0  0  0  0
  1 16  1  0
  2 20  1  0
  3  4  1  0
  3  5  2  0
  3  6  2  0
  3  9  1  0
  7  8  2  0
  7 12  1  0
  8 15  1  0
  9 10  2  0
  9 11  1  0
 10 13  1  0
 11 14  2  0
 12 13  2  0
 12 14  1  0
 15 16  2  0
 15 17  1  0
 16 18  1  0
 17 19  2  0
 18 20  2  0
 19 20  1  0
M  END
>  <PUBCHEM_COMPOUND_CID>  (1) 
44226

>  <PUBCHEM_CONFORMER_RMSD>  (1) 
0.6

>  <PUBCHEM_CONFORMER_DIVERSEORDER>  (1) 
2
4
1
3

>  <PUBCHEM_MMFF94_PARTIAL_CHARGES>  (1) 
28
1 -0.18
10 -0.15
11 -0.15
12 0.18
13 -0.15
14 -0.15
15 0.18
16 0.18
17 -0.15
18 -0.15
19 -0.15
2 -0.18
20 0.18
21 0.15
22 0.15
23 0.15
24 0.15
25 0.15
26 0.15
27 0.15
28 0.5
3 1.49
4 -0.68
5 -0.65
6 -0.65
7 -0.18
8 -0.18
9 -0.01

>  <PUBCHEM_EFFECTIVE_ROTOR_COUNT>  (1) 
3

>  <PUBCHEM_PHARMACOPHORE_FEATURES>  (1) 
6
1 4 acceptor
1 5 acceptor
1 6 acceptor
4 3 4 5 6 anion
6 15 16 17 18 19 20 rings
6 9 10 11 12 13 14 rings

>  <PUBCHEM_HEAVY_ATOM_COUNT>  (1) 
20

>  <PUBCHEM_ATOM_DEF_STEREO_COUNT>  (1) 
0

>  <PUBCHEM_ATOM_UDEF_STEREO_COUNT>  (1) 
0

>  <PUBCHEM_BOND_DEF_STEREO_COUNT>  (1) 
0

>  <PUBCHEM_BOND_UDEF_STEREO_COUNT>  (1) 
0

>  <PUBCHEM_ISOTOPIC_ATOM_COUNT>  (1) 
0

>  <PUBCHEM_COMPONENT_COUNT>  (1) 
1

>  <PUBCHEM_CACTVS_TAUTO_COUNT>  (1) 
1

>  <PUBCHEM_CONFORMER_ID>  (1) 
0000ACC200000002

>  <PUBCHEM_MMFF94_ENERGY>  (1) 
41.689

>  <PUBCHEM_FEATURE_SELFOVERLAP>  (1) 
30.503

>  <PUBCHEM_SHAPE_FINGERPRINT>  (1) 
10616163 171 18339922718442534863
10968037 39 18260267460833745167
11315181 36 17418096541911962753
11524674 6 17203891877164914991
12107183 9 17615965513355809521
12236239 1 17822009822013972293
12516196 113 17703787024438875832
12788726 201 17773879705599069153
13533116 47 17417813881224208431
13914758 101 13758085052322479555
1420 363 17749394762674748145
14251764 18 18272371980091252779
14341114 176 18410296912627190173
14617045 38 18408608045866859195
15042514 8 18265054816377339907
15183329 4 18411986840624361718
15788980 27 18411139143013552710
17834072 33 18409167727228654148
17844677 252 18413113865770944576
19489759 90 9943809984562202519
200 152 18131913762534556729
20281389 69 18259701198722612509
20645477 56 18409164411909384533
20645477 70 18271247106265343462
20681677 155 18411134744956765187
21267235 1 18409454691542626265
221357 26 18412543197755965573
221490 88 18194405713080538378
2297311 6 18412550894764439653
23035841 295 18410575071799438555
23198884 109 17203331100738816107
23402539 116 17167856461326585700
23402655 69 18408885139791902318
23536379 177 18408886217939599928
23559900 14 18271518801548572329
29717793 49 17703795807879013668
300161 21 18411973654958737899
3004659 81 18335987485254725638
34797466 226 17988934396336564108
3545911 37 18411136931253153249
4073 2 18114185297631792450
4214541 1 18411135844626362373
4325135 7 18261114080228480084
4340502 62 16226044492552054394
5104073 3 18337950215666069744
542803 24 17748544844354869836
59755656 215 18341054029643835990
59755656 520 16877660180313181635
7495541 125 12685104695399840997
77779 3 18410011044246958801

>  <PUBCHEM_SHAPE_MULTIPOLES>  (1) 
391.61
16.29
1.74
0.79
1.16
0.66
-0.04
-1.72
0.2
-0.79
0.16
0.58
-0.01
-0.06

>  <PUBCHEM_SHAPE_SELFOVERLAP>  (1) 
810.663

>  <PUBCHEM_SHAPE_VOLUME>  (1) 
226.4

>  <PUBCHEM_COORDINATE_TYPE>  (1) 
2
5
10

$$$$
