44232
     RDKit          3D

 19 19  0  0  0  0  0  0  0  0999 V2000
    2.9194   -1.7045    0.9192 O   0  0  0  0  0  0  0  0  0  0  0  0
   -0.6822    1.4892   -0.5517 O   0  0  0  0  0  0  0  0  0  0  0  0
    4.0025   -0.5287   -0.7659 N   0  0  0  0  0  0  0  0  0  0  0  0
   -1.7646    0.2957    1.1193 N   0  0  0  0  0  0  0  0  0  0  0  0
   -2.9179    1.0103    0.9726 N   0  0  0  0  0  0  0  0  0  0  0  0
    6.7739    1.9405   -0.4033 N   0  0  0  0  0  0  0  0  0  0  0  0
    1.7165    0.0304   -0.2697 C   0  0  0  0  0  0  0  0  0  0  0  0
    0.5053   -0.2785    0.6041 C   0  0  0  0  0  0  0  0  0  0  0  0
    2.9228   -0.8389    0.0482 C   0  0  0  0  0  0  0  0  0  0  0  0
   -0.6911    0.6099    0.3056 C   0  0  0  0  0  0  0  0  0  0  0  0
    5.2743   -1.2077   -0.6756 C   0  0  0  0  0  0  0  0  0  0  0  0
    6.2263   -0.5331    0.3048 C   0  0  0  0  0  0  0  0  0  0  0  0
   -4.0255    0.4115    0.3605 C   0  0  0  0  0  0  0  0  0  0  0  0
   -5.1104    1.1912   -0.0585 C   0  0  0  0  0  0  0  0  0  0  0  0
   -4.0609   -0.9739    0.1610 C   0  0  0  0  0  0  0  0  0  0  0  0
   -6.2142    0.5944   -0.6677 C   0  0  0  0  0  0  0  0  0  0  0  0
   -5.1646   -1.5706   -0.4483 C   0  0  0  0  0  0  0  0  0  0  0  0
   -6.2413   -0.7863   -0.8627 C   0  0  0  0  0  0  0  0  0  0  0  0
    6.5318    0.8493   -0.0918 C   0  0  0  0  0  0  0  0  0  0  0  0
  1  9  2  0
  2 10  2  0
  3  9  1  0
  3 11  1  0
  4  5  1  0
  4 10  1  0
  5 13  1  0
  6 19  3  0
  7  8  1  0
  7  9  1  0
  8 10  1  0
 11 12  1  0
 12 19  1  0
 13 14  2  0
 13 15  1  0
 14 16  1  0
 15 17  2  0
 16 18  2  0
 17 18  1  0
M  END
>  <PUBCHEM_COMPOUND_CID>  (1) 
44232

>  <PUBCHEM_CONFORMER_RMSD>  (1) 
1

>  <PUBCHEM_CONFORMER_DIVERSEORDER>  (1) 
2
483
15
462
195
72
131
104
293
412
77
215
106
34
384
471
109
312
309
203
20
398
295
75
48
354
430
12
25
142
468
286
404
479
21
244
454
3
264
213
5
19
458
501
53
9
296
43
92
95
395
33
57
352
4
13
194
226
276
152
230
357
46
287
248
143
27
290
10
157
107
108
7
1
23
305
206
52
59
6
55
71
261
31
197
29
84
93
86
56
18
90
28
376
332
155
60
117
100
115
216
127
168
63
37
54
281
393
279
364
299
24
81
212
39
439

>  <PUBCHEM_MMFF94_PARTIAL_CHARGES>  (1) 
27
1 -0.57
10 0.57
11 0.3
12 0.2
13 0.1
14 -0.15
15 -0.15
16 -0.15
17 -0.15
18 -0.15
19 0.36
2 -0.57
26 0.37
27 0.37
3 -0.73
30 0.4
31 0.15
32 0.15
33 0.15
34 0.15
35 0.15
4 -0.41
5 -0.52
6 -0.56
7 0.06
8 0.06
9 0.57

>  <PUBCHEM_EFFECTIVE_ROTOR_COUNT>  (1) 
9

>  <PUBCHEM_PHARMACOPHORE_FEATURES>  (1) 
7
1 1 acceptor
1 2 acceptor
1 3 donor
1 4 donor
1 5 donor
1 6 acceptor
6 13 14 15 16 17 18 rings

>  <PUBCHEM_HEAVY_ATOM_COUNT>  (1) 
19

>  <PUBCHEM_ATOM_DEF_STEREO_COUNT>  (1) 
0

>  <PUBCHEM_ATOM_UDEF_STEREO_COUNT>  (1) 
0

>  <PUBCHEM_BOND_DEF_STEREO_COUNT>  (1) 
0

>  <PUBCHEM_BOND_UDEF_STEREO_COUNT>  (1) 
0

>  <PUBCHEM_ISOTOPIC_ATOM_COUNT>  (1) 
0

>  <PUBCHEM_COMPONENT_COUNT>  (1) 
1

>  <PUBCHEM_CACTVS_TAUTO_COUNT>  (1) 
4

>  <PUBCHEM_CONFORMER_ID>  (1) 
0000ACC800000002

>  <PUBCHEM_MMFF94_ENERGY>  (1) 
38.7811

>  <PUBCHEM_FEATURE_SELFOVERLAP>  (1) 
37.099

>  <PUBCHEM_SHAPE_FINGERPRINT>  (1) 
10354089 29 11600002141926224750
10595046 47 18342178834650158824
10638233 991 14261344795556638818
10968037 39 18342457045731377143
11089746 13 14273738481707790791
11315181 36 17988926674232876361
12236239 1 18412545392526094646
12516196 113 18342457032250623168
13167372 99 11241968170489318438
13288520 33 18060136540616186521
13533116 47 17095796621764710586
14123256 10 18335420166591466467
1420 363 16200431364234053090
14251718 22 18272370867008992354
14251732 16 18272369802184118036
15183329 4 13984660334999255030
15716309 27 16343703214259684711
17834072 33 18131633396160561712
20281389 69 11891338655231843703
21054139 6 18409445903512764962
21150785 3 18411416228649698983
22896161 15 18130787888661307230
23081809 10 17489314040447156226
23402539 116 17894634733881624951
23559900 14 18200866362033203929
2838139 119 13045940231292463479
300161 21 17894911810759213619
3009799 131 17240481411885938884
328311 84 10087642615287683420
34797466 226 15626224650403679192
4072396 5 14923942354295568954
4325135 7 18272370889021840788
57583515 80 17821449045103123154
59755656 215 11963383021376875792
59755656 520 10663815269880619765
7062679 117 18272653446019183923

>  <PUBCHEM_SHAPE_MULTIPOLES>  (1) 
359.35
20.43
1.57
0.91
12.1
0.06
0.05
0.81
-4.54
0.5
-0.11
-0.21
-0.04
-0.65

>  <PUBCHEM_SHAPE_SELFOVERLAP>  (1) 
723.159

>  <PUBCHEM_SHAPE_VOLUME>  (1) 
206.4

>  <PUBCHEM_COORDINATE_TYPE>  (1) 
2
5
10

$$$$
