44238
     RDKit          3D

 17 17  0  0  0  0  0  0  0  0999 V2000
    3.9429    0.1681    0.1587 N   0  0  0  0  0  0  0  0  0  0  0  0
    0.2261   -0.0678    0.0620 N   0  0  0  0  0  0  0  0  0  0  0  0
   -0.5842   -2.2924    0.3966 N   0  0  0  0  0  0  0  0  0  0  0  0
    2.5576    0.6185    0.0285 C   0  0  0  0  0  0  0  0  0  0  0  0
    4.8623    1.2976    0.0249 C   0  0  0  0  0  0  0  0  0  0  0  0
    4.2433   -0.8567   -0.8403 C   0  0  0  0  0  0  0  0  0  0  0  0
    1.6021   -0.5579    0.1680 C   0  0  0  0  0  0  0  0  0  0  0  0
    4.5645    2.3729    1.0560 C   0  0  0  0  0  0  0  0  0  0  0  0
    5.6606   -1.3805   -0.6805 C   0  0  0  0  0  0  0  0  0  0  0  0
   -0.7240   -0.9366    0.1800 C   0  0  0  0  0  0  0  0  0  0  0  0
   -2.1196   -0.3986    0.0616 C   0  0  0  0  0  0  0  0  0  0  0  0
   -2.3290    0.7014   -0.7319 C   0  0  0  0  0  0  0  0  0  0  0  0
   -3.1226   -1.0329    0.7512 C   0  0  0  0  0  0  0  0  0  0  0  0
   -4.6727    0.5823   -0.1569 C   0  0  0  0  0  0  0  0  0  0  0  0
   -3.6270    1.2001   -0.8428 C   0  0  0  0  0  0  0  0  0  0  0  0
   -4.4204   -0.5342    0.6401 C   0  0  0  0  0  0  0  0  0  0  0  0
   -6.0600    1.1168   -0.2752 C   0  0  0  0  0  0  0  0  0  0  0  0
  1  4  1  0
  1  5  1  0
  1  6  1  0
  2  7  1  0
  2 10  2  0
  3 10  1  0
  4  7  1  0
  5  8  1  0
  6  9  1  0
 10 11  1  0
 11 12  2  0
 11 13  1  0
 12 15  1  0
 13 16  2  0
 14 15  2  0
 14 16  1  0
 14 17  1  0
M  END
>  <PUBCHEM_COMPOUND_CID>  (1) 
44238

>  <PUBCHEM_CONFORMER_RMSD>  (1) 
0.8

>  <PUBCHEM_CONFORMER_DIVERSEORDER>  (1) 
1
21
27
25
20
5
14
3
12
19
18
23
8
4
24
22
9
17
26
7
16
2
11
13
15
10
6

>  <PUBCHEM_MMFF94_PARTIAL_CHARGES>  (1) 
21
1 -0.81
10 0.41
11 0.09
12 -0.15
13 -0.15
14 -0.14
15 -0.15
16 -0.15
17 0.14
2 -0.7
3 -0.85
32 0.15
33 0.15
34 0.15
35 0.15
36 0.4
37 0.4
4 0.27
5 0.27
6 0.27
7 0.25

>  <PUBCHEM_EFFECTIVE_ROTOR_COUNT>  (1) 
6

>  <PUBCHEM_PHARMACOPHORE_FEATURES>  (1) 
4
1 1 cation
1 3 donor
3 2 3 10 cation
6 11 12 13 14 15 16 rings

>  <PUBCHEM_HEAVY_ATOM_COUNT>  (1) 
17

>  <PUBCHEM_ATOM_DEF_STEREO_COUNT>  (1) 
0

>  <PUBCHEM_ATOM_UDEF_STEREO_COUNT>  (1) 
0

>  <PUBCHEM_BOND_DEF_STEREO_COUNT>  (1) 
0

>  <PUBCHEM_BOND_UDEF_STEREO_COUNT>  (1) 
0

>  <PUBCHEM_ISOTOPIC_ATOM_COUNT>  (1) 
0

>  <PUBCHEM_COMPONENT_COUNT>  (1) 
1

>  <PUBCHEM_CACTVS_TAUTO_COUNT>  (1) 
2

>  <PUBCHEM_CONFORMER_ID>  (1) 
0000ACCE00000001

>  <PUBCHEM_MMFF94_ENERGY>  (1) 
42.6918

>  <PUBCHEM_FEATURE_SELFOVERLAP>  (1) 
20.297

>  <PUBCHEM_SHAPE_FINGERPRINT>  (1) 
10014705 185 18342454901920139331
12236239 1 15267343981122929390
12390115 104 18117844296589189349
12403259 415 18409172125063947776
12916748 109 18334296465565519592
13081056 2 18409448081155558052
13214271 11 18186802492012757055
13533116 47 18130790032250940534
13544592 145 18410016524931385182
13675066 3 18334580187063138778
15242439 84 18409170991493424366
17834072 8 18410860928159794950
17844677 252 18343309149514733000
19433438 28 18260269654865766178
19784866 170 17822295639672208443
20281389 69 18113616751478506189
20645477 56 18336262444143361004
20645477 70 17917439722403447326
21033648 29 18409441522714409456
221357 26 18272650112972042552
2215653 11 18343027649243024694
22289505 5 18272371992934508840
2297311 6 18041289789628112965
23402539 116 18413103970339894015
23557571 272 17749394702450273991
23559900 14 18343301488025897330
2916195 48 18339918315731414705
29717793 49 17132121204158709812
300161 21 17418087750430386052
3004659 81 18041567919717570918
3545911 37 18113902624184911559
495365 180 17917422156029235570
5104073 3 18334012804492543762
542803 24 17632581547659483897
59682541 35 18186813483282578137
59755656 215 18261397684934547591
633830 44 18411972568437669686
90127 26 18187653526311859008

>  <PUBCHEM_SHAPE_MULTIPOLES>  (1) 
334.91
14.56
1.86
0.9
3.59
0.23
-0.01
4.14
-1.18
1.72
0.32
0.11
0.09
1.92

>  <PUBCHEM_SHAPE_SELFOVERLAP>  (1) 
670.756

>  <PUBCHEM_SHAPE_VOLUME>  (1) 
199.1

>  <PUBCHEM_COORDINATE_TYPE>  (1) 
2
5
10

$$$$
