44234
     RDKit          3D

 20 22  0  0  1  0  0  0  0  0999 V2000
    2.4033    0.6996    1.6632 O   0  0  0  0  0  0  0  0  0  0  0  0
    3.7762    1.6707    0.1323 O   0  0  0  0  0  0  0  0  0  0  0  0
   -1.6755   -1.8316    0.3400 N   0  0  0  0  0  0  0  0  0  0  0  0
    1.7809    3.5432   -0.3056 N   0  0  0  0  0  0  0  0  0  0  0  0
   -0.1178    0.2864   -0.5325 C   0  0  0  0  0  0  0  0  0  0  0  0
    0.7276    1.4361   -1.0057 C   0  0  0  0  0  0  0  0  0  0  0  0
    0.4567   -0.9795   -0.3788 C   0  0  0  0  0  0  0  0  0  0  0  0
   -1.4719    0.4922   -0.2494 C   0  0  0  0  0  0  0  0  0  0  0  0
    1.3923    2.2063    0.1477 C   0  0  0  0  0  0  0  0  0  0  0  0
   -0.3708   -2.0243    0.0661 C   0  0  0  0  0  0  0  0  0  0  0  0
   -2.2238   -0.6103    0.1904 C   0  0  0  0  0  0  0  0  0  0  0  0
    1.8147   -1.2148   -0.6558 C   0  0  0  0  0  0  0  0  0  0  0  0
   -2.0752    1.7536   -0.3948 C   0  0  0  0  0  0  0  0  0  0  0  0
    0.1953   -3.2869    0.2210 C   0  0  0  0  0  0  0  0  0  0  0  0
   -3.5725   -0.4117    0.4739 C   0  0  0  0  0  0  0  0  0  0  0  0
    2.6605    1.5156    0.6083 C   0  0  0  0  0  0  0  0  0  0  0  0
    2.3561   -2.4863   -0.4926 C   0  0  0  0  0  0  0  0  0  0  0  0
   -3.4254    1.9256   -0.1048 C   0  0  0  0  0  0  0  0  0  0  0  0
    1.5445   -3.5243   -0.0533 C   0  0  0  0  0  0  0  0  0  0  0  0
   -4.1753    0.8403    0.3304 C   0  0  0  0  0  0  0  0  0  0  0  0
  1 16  1  0
  2 16  2  0
  3 10  2  0
  3 11  1  0
  4  9  1  0
  5  6  1  0
  5  7  2  0
  5  8  1  0
  6  9  1  0
  7 10  1  0
  7 12  1  0
  8 11  2  0
  8 13  1  0
  9 16  1  0
 10 14  1  0
 11 15  1  0
 12 17  2  0
 13 18  2  0
 14 19  2  0
 15 20  2  0
 17 19  1  0
 18 20  1  0
M  END
>  <PUBCHEM_COMPOUND_CID>  (1) 
44234

>  <PUBCHEM_CONFORMER_RMSD>  (1) 
0.6

>  <PUBCHEM_CONFORMER_DIVERSEORDER>  (1) 
1
3
2
4

>  <PUBCHEM_MMFF94_PARTIAL_CHARGES>  (1) 
29
1 -0.65
10 0.31
11 0.31
12 -0.15
13 -0.15
14 -0.15
15 -0.15
16 0.66
17 -0.15
18 -0.15
19 -0.15
2 -0.57
20 -0.15
24 0.15
25 0.15
26 0.15
27 0.15
28 0.36
29 0.36
3 -0.62
30 0.15
31 0.15
32 0.15
33 0.15
34 0.5
4 -0.99
5 -0.14
6 0.14
9 0.33

>  <PUBCHEM_EFFECTIVE_ROTOR_COUNT>  (1) 
3

>  <PUBCHEM_PHARMACOPHORE_FEATURES>  (1) 
9
1 1 acceptor
1 2 acceptor
1 3 acceptor
1 4 cation
1 4 donor
3 1 2 16 anion
6 3 5 7 8 10 11 rings
6 7 10 12 14 17 19 rings
6 8 11 13 15 18 20 rings

>  <PUBCHEM_HEAVY_ATOM_COUNT>  (1) 
20

>  <PUBCHEM_ATOM_DEF_STEREO_COUNT>  (1) 
0

>  <PUBCHEM_ATOM_UDEF_STEREO_COUNT>  (1) 
1

>  <PUBCHEM_BOND_DEF_STEREO_COUNT>  (1) 
0

>  <PUBCHEM_BOND_UDEF_STEREO_COUNT>  (1) 
0

>  <PUBCHEM_ISOTOPIC_ATOM_COUNT>  (1) 
0

>  <PUBCHEM_COMPONENT_COUNT>  (1) 
1

>  <PUBCHEM_CACTVS_TAUTO_COUNT>  (1) 
1

>  <PUBCHEM_CONFORMER_ID>  (1) 
0000ACCA00000001

>  <PUBCHEM_MMFF94_ENERGY>  (1) 
63.384

>  <PUBCHEM_FEATURE_SELFOVERLAP>  (1) 
45.789

>  <PUBCHEM_SHAPE_FINGERPRINT>  (1) 
10411042 1 17762057636471844815
108231 29 17905050248575851335
10967382 1 18338239262722896007
1100329 8 15671817677258425514
11680986 33 18336834100158950195
12173636 292 17980194511060806724
12553582 1 17690565186872370807
12788726 201 17549253091790310671
13027679 85 17833553392672650381
13132413 78 17621888586810918857
13140716 1 17832431169162848051
138480 1 18122345683490068390
14223421 5 18408889508106094755
14790565 3 18410022031058918332
15006816 218 18410856559645226728
15042514 8 17472422530872066418
15230672 131 18337954615148098740
15490181 8 18267016352613513518
16110190 28 18192686000455724312
16945 1 18337955717598348503
19591789 44 18266186204154595422
20510252 161 17766288943535106833
21029758 11 17832983850245071101
21524375 3 18057889232626214509
21731228 192 18267305519839689097
22182313 1 17968935289392462269
2334 1 18409450254250643951
23419403 2 17682096804107559038
23559900 14 18337952290504609453
2748010 2 18335141943010383799
3091708 16 9187905640096943698
350125 39 18265910222488639439
352729 6 18049443943916552367
474 4 18412261748860028793
58807428 26 18338232777301310299
5895379 119 15408942280130734553
59755656 215 18410012169623492215
7097593 13 18044071648841843016
7364860 26 18339927008987600343
81228 2 17190644101636482242
84936 182 18201719522562870977
84936 31 17703215205472998726

>  <PUBCHEM_SHAPE_MULTIPOLES>  (1) 
389.89
5.56
4.14
0.88
4.42
0.08
-0.11
1.01
-0.7
-3.72
-0.1
-0.31
0.2
0.74

>  <PUBCHEM_SHAPE_SELFOVERLAP>  (1) 
868.299

>  <PUBCHEM_SHAPE_VOLUME>  (1) 
206.8

>  <PUBCHEM_COORDINATE_TYPE>  (1) 
2
5
10

$$$$
