44240
     RDKit          3D

 17 17  0  0  0  0  0  0  0  0999 V2000
    3.9385    0.1651    0.1592 N   0  0  0  0  0  0  0  0  0  0  0  0
    0.2214   -0.0666    0.0617 N   0  0  0  0  0  0  0  0  0  0  0  0
   -0.5915   -2.2899    0.3980 N   0  0  0  0  0  0  0  0  0  0  0  0
   -5.9878    1.0959   -0.2727 N   0  0  0  0  0  0  0  0  0  0  0  0
    2.5538    0.6170    0.0283 C   0  0  0  0  0  0  0  0  0  0  0  0
    4.8593    1.2934    0.0247 C   0  0  0  0  0  0  0  0  0  0  0  0
    4.2380   -0.8609   -0.8389 C   0  0  0  0  0  0  0  0  0  0  0  0
    1.5969   -0.5582    0.1685 C   0  0  0  0  0  0  0  0  0  0  0  0
    4.5625    2.3699    1.0549 C   0  0  0  0  0  0  0  0  0  0  0  0
    5.6546   -1.3862   -0.6783 C   0  0  0  0  0  0  0  0  0  0  0  0
   -0.7297   -0.9342    0.1802 C   0  0  0  0  0  0  0  0  0  0  0  0
   -2.1246   -0.3946    0.0610 C   0  0  0  0  0  0  0  0  0  0  0  0
   -2.3320    0.7050   -0.7335 C   0  0  0  0  0  0  0  0  0  0  0  0
   -3.1287   -1.0265    0.7512 C   0  0  0  0  0  0  0  0  0  0  0  0
   -4.6760    0.5905   -0.1587 C   0  0  0  0  0  0  0  0  0  0  0  0
   -3.6291    1.2059   -0.8451 C   0  0  0  0  0  0  0  0  0  0  0  0
   -4.4257   -0.5257    0.6394 C   0  0  0  0  0  0  0  0  0  0  0  0
  1  5  1  0
  1  6  1  0
  1  7  1  0
  2  8  1  0
  2 11  2  0
  3 11  1  0
  4 15  1  0
  5  8  1  0
  6  9  1  0
  7 10  1  0
 11 12  1  0
 12 13  2  0
 12 14  1  0
 13 16  1  0
 14 17  2  0
 15 16  2  0
 15 17  1  0
M  END
>  <PUBCHEM_COMPOUND_CID>  (1) 
44240

>  <PUBCHEM_CONFORMER_RMSD>  (1) 
0.8

>  <PUBCHEM_CONFORMER_DIVERSEORDER>  (1) 
1
21
12
19
14
27
3
25
5
20
18
4
22
7
23
24
9
17
26
11
6
2
10
13
15
16
8

>  <PUBCHEM_MMFF94_PARTIAL_CHARGES>  (1) 
23
1 -0.81
11 0.41
12 0.09
13 -0.15
14 -0.15
15 0.1
16 -0.15
17 -0.15
2 -0.7
3 -0.85
32 0.15
33 0.15
34 0.15
35 0.15
36 0.4
37 0.4
38 0.4
39 0.4
4 -0.9
5 0.27
6 0.27
7 0.27
8 0.25

>  <PUBCHEM_EFFECTIVE_ROTOR_COUNT>  (1) 
6

>  <PUBCHEM_PHARMACOPHORE_FEATURES>  (1) 
6
1 1 cation
1 3 donor
1 4 cation
1 4 donor
3 2 3 11 cation
6 12 13 14 15 16 17 rings

>  <PUBCHEM_HEAVY_ATOM_COUNT>  (1) 
17

>  <PUBCHEM_ATOM_DEF_STEREO_COUNT>  (1) 
0

>  <PUBCHEM_ATOM_UDEF_STEREO_COUNT>  (1) 
0

>  <PUBCHEM_BOND_DEF_STEREO_COUNT>  (1) 
0

>  <PUBCHEM_BOND_UDEF_STEREO_COUNT>  (1) 
0

>  <PUBCHEM_ISOTOPIC_ATOM_COUNT>  (1) 
0

>  <PUBCHEM_COMPONENT_COUNT>  (1) 
1

>  <PUBCHEM_CACTVS_TAUTO_COUNT>  (1) 
5

>  <PUBCHEM_CONFORMER_ID>  (1) 
0000ACD000000001

>  <PUBCHEM_MMFF94_ENERGY>  (1) 
52.9981

>  <PUBCHEM_FEATURE_SELFOVERLAP>  (1) 
30.446

>  <PUBCHEM_SHAPE_FINGERPRINT>  (1) 
10014705 185 18342172327421251395
10912923 1 16702025296176370874
12390115 104 18117844296589176349
12403259 415 18408889541990981944
12916748 109 18334014994894306264
13081056 2 18409448081155558044
13214271 11 18186802491996932807
13533116 47 18131071507243501422
13544592 145 18410016524936666430
13675066 3 18334580187073681786
13760787 5 17418380198710986466
14341114 328 15574716880552570593
15242439 84 18409170991525079382
17834072 8 18410860928175619206
17844677 252 18343027678843532648
19433438 28 18260269654876322186
19784866 170 17822295639661665435
20281389 69 18187081720400019813
20645477 56 18336262444159172260
20645477 70 17989497316441375262
221357 26 18272650117272278112
2215653 11 18343027649253580702
22289505 5 18272371992929234096
2297311 6 18041289789612275717
23402539 116 18413103970313526743
23557571 272 17749957652329816303
23559900 14 18343301488041728082
2916195 48 18339918319994739977
29717793 49 17060345085123866292
300161 21 17418087750440942044
3004659 81 18041286449041095806
3545911 37 18113902624174368551
495365 180 17917422156039778578
5104073 3 18334575754456514578
542803 24 17561368378498933929
59755656 215 18261116209952581670
633830 44 18412255138631014846
90127 26 18187653526322421504

>  <PUBCHEM_SHAPE_MULTIPOLES>  (1) 
329.93
14.17
1.86
0.9
3.66
0.21
-0.01
3.73
-1.05
1.74
0.29
0.1
0.1
1.93

>  <PUBCHEM_SHAPE_SELFOVERLAP>  (1) 
662.743

>  <PUBCHEM_SHAPE_VOLUME>  (1) 
194.9

>  <PUBCHEM_COORDINATE_TYPE>  (1) 
2
5
10

$$$$
