44246
     RDKit          3D

 20 21  0  0  0  0  0  0  0  0999 V2000
    4.9609   -0.0449   -0.6425 O   0  0  0  0  0  0  0  0  0  0  0  0
   -4.9512    0.3431   -0.3608 N   0  0  0  0  0  0  0  0  0  0  0  0
   -1.2937   -0.3079   -0.1877 N   0  0  0  0  0  0  0  0  0  0  0  0
   -0.7584   -2.4207    0.7952 N   0  0  0  0  0  0  0  0  0  0  0  0
   -5.7728    1.4243   -0.9040 C   0  0  0  0  0  0  0  0  0  0  0  0
   -5.3415    0.2393    1.0450 C   0  0  0  0  0  0  0  0  0  0  0  0
   -7.1394    1.1532   -0.2928 C   0  0  0  0  0  0  0  0  0  0  0  0
   -6.8558    0.3776    0.9899 C   0  0  0  0  0  0  0  0  0  0  0  0
   -3.5266    0.5916   -0.5250 C   0  0  0  0  0  0  0  0  0  0  0  0
   -2.7182   -0.5773    0.0197 C   0  0  0  0  0  0  0  0  0  0  0  0
   -0.4559   -1.2133    0.1995 C   0  0  0  0  0  0  0  0  0  0  0  0
    0.9940   -0.9004   -0.0254 C   0  0  0  0  0  0  0  0  0  0  0  0
    1.8591   -1.9434   -0.2442 C   0  0  0  0  0  0  0  0  0  0  0  0
    1.3883    0.4139   -0.0022 C   0  0  0  0  0  0  0  0  0  0  0  0
    3.6459   -0.3288   -0.4371 C   0  0  0  0  0  0  0  0  0  0  0  0
    3.2072   -1.6528   -0.4534 C   0  0  0  0  0  0  0  0  0  0  0  0
    2.7364    0.7046   -0.2116 C   0  0  0  0  0  0  0  0  0  0  0  0
    5.4807    1.1217   -0.0064 C   0  0  0  0  0  0  0  0  0  0  0  0
    6.9604    0.9101    0.2755 C   0  0  0  0  0  0  0  0  0  0  0  0
    7.5805    2.1101    0.9683 C   0  0  0  0  0  0  0  0  0  0  0  0
  1 15  1  0
  1 18  1  0
  2  5  1  0
  2  6  1  0
  2  9  1  0
  3 10  1  0
  3 11  2  0
  4 11  1  0
  5  7  1  0
  6  8  1  0
  7  8  1  0
  9 10  1  0
 11 12  1  0
 12 13  2  0
 12 14  1  0
 13 16  1  0
 14 17  2  0
 15 16  2  0
 15 17  1  0
 18 19  1  0
 19 20  1  0
M  END
>  <PUBCHEM_COMPOUND_CID>  (1) 
44246

>  <PUBCHEM_CONFORMER_RMSD>  (1) 
0.8

>  <PUBCHEM_CONFORMER_DIVERSEORDER>  (1) 
1
96
119
89
82
90
44
134
11
129
8
127
27
28
71
84
40
37
124
58
3
72
65
5
49
116
35
73
137
95
29
136
81
50
36
139
63
20
115
21
132
87
15
19
97
70
111
12
33
107
47
85
60
121
69
39
9
94
34
102
75
4
16
59
13
68
133
93
25
101
66
104
56
17
105
24
2
110
62
32
10
86
80
140
99
31
118
130
103
7
38
98
91
6
122
77
14
18
51
41
64
26
92
117
53
108
83
138
120
100
43
114
46
126
54
57
45
123
76
22
88
112
55
67
128
30
125
48
78
131
42
52
109
135
23
79
61
113
106
74

>  <PUBCHEM_MMFF94_PARTIAL_CHARGES>  (1) 
22
1 -0.36
10 0.25
11 0.41
12 0.09
13 -0.15
14 -0.15
15 0.08
16 -0.15
17 -0.15
18 0.28
2 -0.81
3 -0.7
33 0.15
34 0.15
35 0.4
36 0.4
37 0.15
38 0.15
4 -0.85
5 0.27
6 0.27
9 0.27

>  <PUBCHEM_EFFECTIVE_ROTOR_COUNT>  (1) 
8

>  <PUBCHEM_PHARMACOPHORE_FEATURES>  (1) 
7
1 1 acceptor
1 2 cation
1 20 hydrophobe
1 4 donor
3 3 4 11 cation
5 2 5 6 7 8 rings
6 12 13 14 15 16 17 rings

>  <PUBCHEM_HEAVY_ATOM_COUNT>  (1) 
20

>  <PUBCHEM_ATOM_DEF_STEREO_COUNT>  (1) 
0

>  <PUBCHEM_ATOM_UDEF_STEREO_COUNT>  (1) 
0

>  <PUBCHEM_BOND_DEF_STEREO_COUNT>  (1) 
0

>  <PUBCHEM_BOND_UDEF_STEREO_COUNT>  (1) 
0

>  <PUBCHEM_ISOTOPIC_ATOM_COUNT>  (1) 
0

>  <PUBCHEM_COMPONENT_COUNT>  (1) 
1

>  <PUBCHEM_CACTVS_TAUTO_COUNT>  (1) 
2

>  <PUBCHEM_CONFORMER_ID>  (1) 
0000ACD600000001

>  <PUBCHEM_MMFF94_ENERGY>  (1) 
50.3803

>  <PUBCHEM_FEATURE_SELFOVERLAP>  (1) 
35.52

>  <PUBCHEM_SHAPE_FINGERPRINT>  (1) 
10 15 17822012038465367572
10411042 1 17689435988874841334
11724838 91 18187365463008504759
12236239 1 17846782858839356051
12730499 353 18336274452772245995
12838862 33 18336811057253849061
12916748 109 18261117335386409325
13073987 5 17822569396012537001
13533116 47 17488745567013279078
13668630 136 9871744685595895877
13964095 4 13254802317843289185
14251764 18 17967248719479070690
14461889 52 18040724692186243555
14556957 393 14979689848233491048
14598715 104 18261377932712613525
14729087 3 18409726266055678405
15048467 5 18342738524633789996
15183329 4 15913331281967457785
15690457 1 12468641655391818249
15716309 27 12757151285826579601
1768 4 18343027730609987625
18006028 8 8862942775179026503
18222031 100 12535628267474372454
20157964 124 18202003210165066142
20281389 69 18333167258776510652
20554085 129 17988628715214310922
20621476 66 18336827589099487708
21033650 10 14764363617349021051
21150785 3 15410896271032865160
21304304 249 8214141867218694176
220451 1 15482671248144381087
22224240 67 18259701215854645115
23198884 109 16917073244020394157
23402655 69 18273776047069643423
246663 6 11530476715078335912
249999 5 18041837290558739186
2838139 119 18409441522672159468
2916195 48 18334012787512958327
29717793 49 16988570061295257446
300161 21 18412261735632307039
33532 11 11097848597484182808
34934 24 18412541033635728446
3545911 37 18409453574629674239
4072396 5 18410846652136980322
4340502 62 16805323280014317226
445580 126 18343576348805830352
465052 167 8502367849918996464
5104073 3 17604994707115190705
5385378 56 18259980445270647386
542803 24 17275102795930990199
543368 44 18202002119158944313
5758199 1 18412829087847773657
59682541 35 18261118500134962721
59682541 52 16845309224404601884

>  <PUBCHEM_SHAPE_MULTIPOLES>  (1) 
390.78
21.2
1.91
0.9
3.64
0.53
0.1
-15.98
2.79
-1.95
0.21
0.56
-0.12
1.47

>  <PUBCHEM_SHAPE_SELFOVERLAP>  (1) 
798.106

>  <PUBCHEM_SHAPE_VOLUME>  (1) 
228.9

>  <PUBCHEM_COORDINATE_TYPE>  (1) 
2
5
10

$$$$
