44244
     RDKit          3D

 20 20  0  0  0  0  0  0  0  0999 V2000
   -4.7876    0.2520   -0.8503 O   0  0  0  0  0  0  0  0  0  0  0  0
    5.0798    0.4435    0.2549 N   0  0  0  0  0  0  0  0  0  0  0  0
    1.4160   -0.1828    0.0015 N   0  0  0  0  0  0  0  0  0  0  0  0
    0.7905   -2.3905    0.6739 N   0  0  0  0  0  0  0  0  0  0  0  0
    3.6719    0.7221   -0.0258 C   0  0  0  0  0  0  0  0  0  0  0  0
    5.5420   -0.6985   -0.5331 C   0  0  0  0  0  0  0  0  0  0  0  0
    5.8995    1.6221   -0.0238 C   0  0  0  0  0  0  0  0  0  0  0  0
    2.8201   -0.5054    0.2647 C   0  0  0  0  0  0  0  0  0  0  0  0
    6.9862   -1.0408   -0.2089 C   0  0  0  0  0  0  0  0  0  0  0  0
    5.4332    2.8193    0.7870 C   0  0  0  0  0  0  0  0  0  0  0  0
    0.5432   -1.1118    0.2177 C   0  0  0  0  0  0  0  0  0  0  0  0
   -0.8838   -0.7464   -0.0671 C   0  0  0  0  0  0  0  0  0  0  0  0
   -3.4932   -0.0780   -0.5899 C   0  0  0  0  0  0  0  0  0  0  0  0
   -1.8716   -1.3532    0.6676 C   0  0  0  0  0  0  0  0  0  0  0  0
   -1.1352    0.1779   -1.0501 C   0  0  0  0  0  0  0  0  0  0  0  0
   -5.7078    0.1796    0.2378 C   0  0  0  0  0  0  0  0  0  0  0  0
   -3.1981   -1.0135    0.4018 C   0  0  0  0  0  0  0  0  0  0  0  0
   -2.4618    0.5177   -1.3158 C   0  0  0  0  0  0  0  0  0  0  0  0
   -6.8152    1.1979    0.0137 C   0  0  0  0  0  0  0  0  0  0  0  0
   -7.8282    1.1887    1.1444 C   0  0  0  0  0  0  0  0  0  0  0  0
  1 13  1  0
  1 16  1  0
  2  5  1  0
  2  6  1  0
  2  7  1  0
  3  8  1  0
  3 11  2  0
  4 11  1  0
  5  8  1  0
  6  9  1  0
  7 10  1  0
 11 12  1  0
 12 14  2  0
 12 15  1  0
 13 17  2  0
 13 18  1  0
 14 17  1  0
 15 18  2  0
 16 19  1  0
 19 20  1  0
M  END
>  <PUBCHEM_COMPOUND_CID>  (1) 
44244

>  <PUBCHEM_CONFORMER_RMSD>  (1) 
0.8

>  <PUBCHEM_CONFORMER_DIVERSEORDER>  (1) 
1
108
178
188
69
89
190
24
131
54
55
51
99
82
42
125
15
75
14
50
175
38
102
170
64
129
141
192
196
130
189
23
165
49
100
179
40
59
194
184
172
166
37
66
26
92
25
4
9
43
106
181
118
29
46
158
7
88
191
103
173
116
68
5
94
72
142
45
167
114
84
164
13
63
6
33
97
52
53
162
36
74
152
28
67
11
65
127
91
168
76
32
71
35
135
10
98
195
81
79
104
62
183
159
90
18
19
193
140
112
107
155
21
61
123
187
163
132
58
57
101
78
177
124
126
86
77
136
133
153
171
137
186
47
119
41
134
143
2
138
73
147
185
117
182
121
39
70
27
20
169
48
174
109
96
145
60
93
56
85
151
17
120
148
105
180
80
34
146
30
160
154
113
115
87
44
139
16
144
122
95
8
157
22
156
110
150
83
3
128
12
176
149
31
161
111

>  <PUBCHEM_MMFF94_PARTIAL_CHARGES>  (1) 
22
1 -0.36
11 0.41
12 0.09
13 0.08
14 -0.15
15 -0.15
16 0.28
17 -0.15
18 -0.15
2 -0.81
3 -0.7
35 0.15
36 0.15
39 0.15
4 -0.85
40 0.15
43 0.4
44 0.4
5 0.27
6 0.27
7 0.27
8 0.25

>  <PUBCHEM_EFFECTIVE_ROTOR_COUNT>  (1) 
9

>  <PUBCHEM_PHARMACOPHORE_FEATURES>  (1) 
6
1 1 acceptor
1 2 cation
1 20 hydrophobe
1 4 donor
3 3 4 11 cation
6 12 13 14 15 17 18 rings

>  <PUBCHEM_HEAVY_ATOM_COUNT>  (1) 
20

>  <PUBCHEM_ATOM_DEF_STEREO_COUNT>  (1) 
0

>  <PUBCHEM_ATOM_UDEF_STEREO_COUNT>  (1) 
0

>  <PUBCHEM_BOND_DEF_STEREO_COUNT>  (1) 
0

>  <PUBCHEM_BOND_UDEF_STEREO_COUNT>  (1) 
0

>  <PUBCHEM_ISOTOPIC_ATOM_COUNT>  (1) 
0

>  <PUBCHEM_COMPONENT_COUNT>  (1) 
1

>  <PUBCHEM_CACTVS_TAUTO_COUNT>  (1) 
2

>  <PUBCHEM_CONFORMER_ID>  (1) 
0000ACD400000001

>  <PUBCHEM_MMFF94_ENERGY>  (1) 
52.1688

>  <PUBCHEM_FEATURE_SELFOVERLAP>  (1) 
30.446

>  <PUBCHEM_SHAPE_FINGERPRINT>  (1) 
10 15 17095525118895120853
10354089 29 16950280706960812308
106641 1 13118292485624065958
12236239 1 17989203767593787357
12403259 415 18113606877190177756
12670543 26 13254799010903100433
13167372 99 18201722829735375752
13533116 47 17386277697812473298
13540713 4 17024860447793084503
13685833 64 8790885189767716125
13955234 65 18115861910877574898
14251752 14 15841551851692138105
14933364 13 18410576188475117717
15048467 5 18413389822320776209
15183329 4 15626229017462071185
15690457 1 11819281079165140713
15706992 2 18129959931416867737
15716309 27 12324240572833396865
18006028 8 10015859877771644091
18335252 114 18202557363387518893
20281389 69 18334293154177506265
20526848 3 18272936020729386945
20645477 70 18202290225961000454
21033648 29 18263637524007813416
21150785 3 16845569817049657309
22224240 67 18040998449681417435
23559900 14 18339921619679155360
2838139 119 18340760477255927901
29717793 49 17561369474538403966
3009799 131 12463566262135526119
3545911 37 17894910711532500246
5104073 3 18041272257540242090
5385378 56 18187362087037902274
5758199 1 18334297565762748403
59682541 35 17967822656892609737
59682541 52 16988576675666167412
59755656 520 18409163316524510343

>  <PUBCHEM_SHAPE_MULTIPOLES>  (1) 
390.78
20.5
1.93
0.97
4.51
0.67
0.1
10.43
-2.75
-2.51
-0.62
0.79
0.11
0.43

>  <PUBCHEM_SHAPE_SELFOVERLAP>  (1) 
776.763

>  <PUBCHEM_SHAPE_VOLUME>  (1) 
234.1

>  <PUBCHEM_COORDINATE_TYPE>  (1) 
2
5
10

$$$$
