44263
     RDKit          3D

 26 29  0  0  0  0  0  0  0  0999 V2000
   -2.6238    0.0488   -1.3405 O   0  0  0  0  0  0  0  0  0  0  0  0
   -4.1428   -2.7714    0.2562 O   0  0  0  0  0  0  0  0  0  0  0  0
   -6.1742   -2.6217   -0.7433 O   0  0  0  0  0  0  0  0  0  0  0  0
   -1.6530    0.4492    0.7606 N   0  0  0  0  0  0  0  0  0  0  0  0
   -3.8549   -0.1979    0.6005 N   0  0  0  0  0  0  0  0  0  0  0  0
    1.9958    0.1621    0.0240 C   0  0  0  0  0  0  0  0  0  0  0  0
    0.6592   -0.1791    0.3463 C   0  0  0  0  0  0  0  0  0  0  0  0
   -0.3316    0.8139    0.4390 C   0  0  0  0  0  0  0  0  0  0  0  0
    2.9857   -0.8814   -0.0629 C   0  0  0  0  0  0  0  0  0  0  0  0
   -0.0410    2.1671    0.2196 C   0  0  0  0  0  0  0  0  0  0  0  0
    1.2779    2.5360   -0.1011 C   0  0  0  0  0  0  0  0  0  0  0  0
    2.2665    1.5376   -0.1932 C   0  0  0  0  0  0  0  0  0  0  0  0
    2.5985   -2.2256    0.1773 C   0  0  0  0  0  0  0  0  0  0  0  0
    0.3162   -1.5142    0.5754 C   0  0  0  0  0  0  0  0  0  0  0  0
    1.2708   -2.5222    0.4927 C   0  0  0  0  0  0  0  0  0  0  0  0
   -1.0326    3.1586    0.3127 C   0  0  0  0  0  0  0  0  0  0  0  0
    4.3502   -0.6611   -0.3784 C   0  0  0  0  0  0  0  0  0  0  0  0
    1.5758    3.8920   -0.3214 C   0  0  0  0  0  0  0  0  0  0  0  0
    3.5394   -3.2667    0.1010 C   0  0  0  0  0  0  0  0  0  0  0  0
   -0.7215    4.4999    0.0910 C   0  0  0  0  0  0  0  0  0  0  0  0
    0.5821    4.8666   -0.2258 C   0  0  0  0  0  0  0  0  0  0  0  0
    5.2762   -1.7053   -0.4514 C   0  0  0  0  0  0  0  0  0  0  0  0
    4.8705   -3.0088   -0.2113 C   0  0  0  0  0  0  0  0  0  0  0  0
   -2.6903    0.0992   -0.1147 C   0  0  0  0  0  0  0  0  0  0  0  0
   -5.0912   -0.5921   -0.0347 C   0  0  0  0  0  0  0  0  0  0  0  0
   -5.2077   -2.0834   -0.2175 C   0  0  0  0  0  0  0  0  0  0  0  0
  1 24  2  0
  2 26  1  0
  3 26  2  0
  4  8  1  0
  4 24  1  0
  5 24  1  0
  5 25  1  0
  6  7  1  0
  6  9  1  0
  6 12  2  0
  7  8  2  0
  7 14  1  0
  8 10  1  0
  9 13  2  0
  9 17  1  0
 10 11  2  0
 10 16  1  0
 11 12  1  0
 11 18  1  0
 13 15  1  0
 13 19  1  0
 14 15  2  0
 16 20  2  0
 17 22  2  0
 18 21  2  0
 19 23  2  0
 20 21  1  0
 22 23  1  0
 25 26  1  0
M  END
>  <PUBCHEM_COMPOUND_CID>  (1) 
44263

>  <PUBCHEM_CONFORMER_RMSD>  (1) 
0.8

>  <PUBCHEM_CONFORMER_DIVERSEORDER>  (1) 
1
8
7
3
5
6
9
11
13
14
2
4
12
10

>  <PUBCHEM_MMFF94_PARTIAL_CHARGES>  (1) 
34
1 -0.57
12 -0.15
14 -0.15
15 -0.15
16 -0.15
17 -0.15
18 -0.15
19 -0.15
2 -0.65
20 -0.15
21 -0.15
22 -0.15
23 -0.15
24 0.69
25 0.36
26 0.66
27 0.15
28 0.15
29 0.15
3 -0.57
30 0.15
31 0.15
32 0.15
33 0.37
34 0.15
35 0.15
36 0.15
37 0.15
38 0.15
39 0.37
4 -0.55
42 0.5
5 -0.73
8 0.12

>  <PUBCHEM_EFFECTIVE_ROTOR_COUNT>  (1) 
5

>  <PUBCHEM_PHARMACOPHORE_FEATURES>  (1) 
10
1 1 acceptor
1 2 acceptor
1 3 acceptor
1 4 donor
1 5 donor
3 2 3 26 anion
6 10 11 16 18 20 21 rings
6 6 7 8 10 11 12 rings
6 6 7 9 13 14 15 rings
6 9 13 17 19 22 23 rings

>  <PUBCHEM_HEAVY_ATOM_COUNT>  (1) 
26

>  <PUBCHEM_ATOM_DEF_STEREO_COUNT>  (1) 
0

>  <PUBCHEM_ATOM_UDEF_STEREO_COUNT>  (1) 
0

>  <PUBCHEM_BOND_DEF_STEREO_COUNT>  (1) 
0

>  <PUBCHEM_BOND_UDEF_STEREO_COUNT>  (1) 
0

>  <PUBCHEM_ISOTOPIC_ATOM_COUNT>  (1) 
0

>  <PUBCHEM_COMPONENT_COUNT>  (1) 
1

>  <PUBCHEM_CACTVS_TAUTO_COUNT>  (1) 
3

>  <PUBCHEM_CONFORMER_ID>  (1) 
0000ACE700000001

>  <PUBCHEM_MMFF94_ENERGY>  (1) 
103.245

>  <PUBCHEM_FEATURE_SELFOVERLAP>  (1) 
50.928

>  <PUBCHEM_SHAPE_FINGERPRINT>  (1) 
10050765 1 17977947883453752210
10411042 1 18410575058993911234
10616163 171 17906455420583975126
10622 236 17700958093587252527
10693767 8 18129676329845497708
1100329 8 18050567649411942616
11014199 57 18411984620184415457
11045515 52 18188492371847722125
11056379 131 18051703139796108486
12107183 9 18270413698564369761
12403260 363 18116718409751572242
12553582 1 18338787923441728555
12730499 353 17831305261251581353
12788726 201 17972879151116068297
13009979 54 17988937664721903817
13140716 1 18264768951584772368
13533116 47 18197213875164696503
138480 1 18338237166752644112
13911987 19 17900565641890405188
13955234 65 18053384585338333369
14251757 5 18046338631307131029
14767858 380 18262534662400472878
14790565 3 17042047863018923504
15042514 8 18050855407440666544
15131766 46 15436858966427897462
15705408 1 18265615570705363669
15775530 1 17536615236500337467
15927050 60 17764593509558718926
16087824 20 17905330624901751673
16728300 4 17536829517310470568
1813 80 18201449051123275276
18393751 57 18054481842725425504
18681886 176 18340762732109003130
19427546 20 18119818997833795084
20101258 96 18266469719288459041
21049683 271 18188502383316210581
21133410 171 17394120458382856107
21478907 32 18338237042167073993
22033318 11 17983896395988543145
221490 88 18263650730705454179
22849339 104 17548997558764117646
23227448 37 17689439283087337908
23558518 356 17828778239870537754
23559900 14 18339070601715956107
23566358 27 18195805404526399959
24771293 8 18343300409841725240
255183 451 18343305890003950967
283562 15 18263085405829757874
3421961 26 18340767143171641585
46194498 28 17676764400556998463
463206 1 18334584550671420547
5104073 3 17980193086012522738
5309563 4 18411699872284577623
6058803 2 17682973089928206698
6442390 28 17257090896881705213
6443956 14 18408323302298704093
6669772 16 17979922940648030548
6700243 42 17699316303350458174
70251023 43 18336827584930900353
7164475 11 18193001422315754558
7970288 3 18412261696920300207

>  <PUBCHEM_SHAPE_MULTIPOLES>  (1) 
507.5
10.08
6.08
0.77
6.36
6.94
0.05
-15.22
1.94
1.18
0.3
0.2
-0.08
-0.6

>  <PUBCHEM_SHAPE_SELFOVERLAP>  (1) 
1136.874

>  <PUBCHEM_SHAPE_VOLUME>  (1) 
268

>  <PUBCHEM_COORDINATE_TYPE>  (1) 
2
5
10

$$$$
