44262
     RDKit          3D

 26 29  0  0  0  0  0  0  0  0999 V2000
    2.8275   -1.2511    1.0839 O   0  0  0  0  0  0  0  0  0  0  0  0
    5.3169   -1.7437   -1.4402 O   0  0  0  0  0  0  0  0  0  0  0  0
    6.9340   -2.6030   -0.1006 O   0  0  0  0  0  0  0  0  0  0  0  0
    2.3517    0.7429   -0.0657 N   0  0  0  0  0  0  0  0  0  0  0  0
    4.5347    0.0747    0.2644 N   0  0  0  0  0  0  0  0  0  0  0  0
   -1.8681    0.7382   -0.0398 C   0  0  0  0  0  0  0  0  0  0  0  0
   -1.1220   -0.4660   -0.0376 C   0  0  0  0  0  0  0  0  0  0  0  0
   -1.1685    1.9979   -0.0518 C   0  0  0  0  0  0  0  0  0  0  0  0
    0.2508    2.0022   -0.0601 C   0  0  0  0  0  0  0  0  0  0  0  0
    0.9511    0.7940   -0.0574 C   0  0  0  0  0  0  0  0  0  0  0  0
   -3.2809    0.6113   -0.0288 C   0  0  0  0  0  0  0  0  0  0  0  0
    0.2746   -0.4211   -0.0466 C   0  0  0  0  0  0  0  0  0  0  0  0
   -3.9374   -0.6344   -0.0170 C   0  0  0  0  0  0  0  0  0  0  0  0
   -3.1703   -1.8133   -0.0162 C   0  0  0  0  0  0  0  0  0  0  0  0
   -1.7726   -1.7122   -0.0263 C   0  0  0  0  0  0  0  0  0  0  0  0
   -1.8067    3.2639   -0.0565 C   0  0  0  0  0  0  0  0  0  0  0  0
    0.9634    3.2135   -0.0714 C   0  0  0  0  0  0  0  0  0  0  0  0
   -5.3398   -0.7293   -0.0059 C   0  0  0  0  0  0  0  0  0  0  0  0
   -3.8191   -3.0598   -0.0049 C   0  0  0  0  0  0  0  0  0  0  0  0
   -1.0864    4.4615   -0.0680 C   0  0  0  0  0  0  0  0  0  0  0  0
    0.2994    4.4362   -0.0752 C   0  0  0  0  0  0  0  0  0  0  0  0
   -5.9717   -1.9731    0.0053 C   0  0  0  0  0  0  0  0  0  0  0  0
   -5.2115   -3.1378    0.0058 C   0  0  0  0  0  0  0  0  0  0  0  0
    3.1902   -0.2413    0.4853 C   0  0  0  0  0  0  0  0  0  0  0  0
    5.6251   -0.7567    0.7195 C   0  0  0  0  0  0  0  0  0  0  0  0
    6.0354   -1.7934   -0.2944 C   0  0  0  0  0  0  0  0  0  0  0  0
  1 24  2  0
  2 26  1  0
  3 26  2  0
  4 10  1  0
  4 24  1  0
  5 24  1  0
  5 25  1  0
  6  7  1  0
  6  8  2  0
  6 11  1  0
  7 12  2  0
  7 15  1  0
  8  9  1  0
  8 16  1  0
  9 10  2  0
  9 17  1  0
 10 12  1  0
 11 13  2  0
 13 14  1  0
 13 18  1  0
 14 15  2  0
 14 19  1  0
 16 20  2  0
 17 21  2  0
 18 22  2  0
 19 23  2  0
 20 21  1  0
 22 23  1  0
 25 26  1  0
M  END
>  <PUBCHEM_COMPOUND_CID>  (1) 
44262

>  <PUBCHEM_CONFORMER_RMSD>  (1) 
0.8

>  <PUBCHEM_CONFORMER_DIVERSEORDER>  (1) 
1
11
10
4
12
13
3
2
9
8
7
16
15
6
5
14

>  <PUBCHEM_MMFF94_PARTIAL_CHARGES>  (1) 
34
1 -0.57
10 0.12
11 -0.15
12 -0.15
15 -0.15
16 -0.15
17 -0.15
18 -0.15
19 -0.15
2 -0.65
20 -0.15
21 -0.15
22 -0.15
23 -0.15
24 0.69
25 0.36
26 0.66
27 0.15
28 0.15
29 0.15
3 -0.57
30 0.15
31 0.15
32 0.15
33 0.15
34 0.37
35 0.15
36 0.15
37 0.15
38 0.15
39 0.37
4 -0.55
42 0.5
5 -0.73

>  <PUBCHEM_EFFECTIVE_ROTOR_COUNT>  (1) 
5

>  <PUBCHEM_PHARMACOPHORE_FEATURES>  (1) 
10
1 1 acceptor
1 2 acceptor
1 3 acceptor
1 4 donor
1 5 donor
3 2 3 26 anion
6 13 14 18 19 22 23 rings
6 6 7 11 13 14 15 rings
6 6 7 8 9 10 12 rings
6 8 9 16 17 20 21 rings

>  <PUBCHEM_HEAVY_ATOM_COUNT>  (1) 
26

>  <PUBCHEM_ATOM_DEF_STEREO_COUNT>  (1) 
0

>  <PUBCHEM_ATOM_UDEF_STEREO_COUNT>  (1) 
0

>  <PUBCHEM_BOND_DEF_STEREO_COUNT>  (1) 
0

>  <PUBCHEM_BOND_UDEF_STEREO_COUNT>  (1) 
0

>  <PUBCHEM_ISOTOPIC_ATOM_COUNT>  (1) 
0

>  <PUBCHEM_COMPONENT_COUNT>  (1) 
1

>  <PUBCHEM_CACTVS_TAUTO_COUNT>  (1) 
3

>  <PUBCHEM_CONFORMER_ID>  (1) 
0000ACE600000001

>  <PUBCHEM_MMFF94_ENERGY>  (1) 
87.8034

>  <PUBCHEM_FEATURE_SELFOVERLAP>  (1) 
50.926

>  <PUBCHEM_SHAPE_FINGERPRINT>  (1) 
10050765 1 18410292506461067756
10319926 262 18124573312393883698
10369192 42 17270569672983823792
10411042 1 18410292540508556393
10595046 47 18334300821822868294
10622 236 17533479163551523810
11056379 131 18265897952057218540
11265709 11 18409165528126283849
12107183 9 18340778109109203209
12166972 35 17822013129223290782
12342043 65 17845658050139491526
12516196 113 18337669814716233322
12553582 1 18336811065912011195
12788726 201 18188204286842275994
13140716 1 18413388761248252017
13673619 4 17989208136298480298
13782708 43 17846212225126762558
13785724 45 18339930410607064441
138480 1 15240316512391983881
13955234 65 17764312043377885729
14068700 675 18260831488644727004
14117953 113 18342175549512134103
14347332 77 18336825282712937074
14866123 147 18340492145448991529
14955137 171 18338517546718617427
15042514 8 18411419471012845453
15196674 1 18050004691374702935
15230672 131 17545327376699663150
15250474 111 17899687974029388138
15927050 60 17907295447346335127
16087824 20 18265331700087142029
16992752 21 18410584994175933270
17492 89 17978228584903579707
1813 80 18271257104574207508
20832881 197 18261109733832411251
21033648 29 17561068220762931819
21130935 74 17833559264959561747
21267235 1 18408326605276338763
22950370 63 18410295847396029970
2297311 6 18411141307782720894
23366157 5 17754448285973607109
23559900 14 18266732674977936995
24771750 20 17394739818151419452
255183 451 18268430324936462535
3004659 81 18040713688696178342
3103668 31 18189047617321242661
335352 9 18409444800654904647
3421961 26 18195242441334616209
437815 12 18408879672657451927
4409770 3 18190171288013340789
463206 1 18261673795550191003
59755656 215 18337667508171433799
6700243 42 17842310028463476268
77188 2 18338797921989002293
7970288 3 18410571812104604654
9709674 26 17830453144156575419

>  <PUBCHEM_SHAPE_MULTIPOLES>  (1) 
507.5
13.38
5.17
0.73
13.18
5.92
-0.04
-19.23
-0.4
-0.75
-0.33
0.55
-0.19
0.39

>  <PUBCHEM_SHAPE_SELFOVERLAP>  (1) 
1136.364

>  <PUBCHEM_SHAPE_VOLUME>  (1) 
268.3

>  <PUBCHEM_COORDINATE_TYPE>  (1) 
2
5
10

$$$$
