4426
     RDKit          3D

 33 38  0  0  1  0  0  0  0  0999 V2000
    0.4520    1.6953    1.7121 O   0  0  0  0  0  0  0  0  0  0  0  0
    1.8099   -2.5774    0.8323 O   0  0  0  0  0  0  0  0  0  0  0  0
    0.2758    4.3354    0.4789 O   0  0  0  0  0  0  0  0  0  0  0  0
   -4.1843    1.7011    0.6099 O   0  0  0  0  0  0  0  0  0  0  0  0
    4.1199   -1.4612   -0.1936 N   0  0  0  0  0  0  0  0  0  0  0  0
   -1.9278    0.3465    1.3417 N   0  0  0  0  0  0  0  0  0  0  0  0
   -3.0109   -0.2824    0.8328 N   0  0  0  0  0  0  0  0  0  0  0  0
    1.7359   -0.1538    0.8280 C   0  0  0  0  0  0  0  0  0  0  0  0
    1.6619   -1.4317   -0.0225 C   0  0  0  0  0  0  0  0  0  0  0  0
    2.8793   -1.3780   -1.0074 C   0  0  0  0  0  0  0  0  0  0  0  0
    0.5099    0.2336    1.6740 C   0  0  0  0  0  0  0  0  0  0  0  0
    3.0457   -0.1518    1.6513 C   0  0  0  0  0  0  0  0  0  0  0  0
    1.7241    1.0377   -0.0668 C   0  0  0  0  0  0  0  0  0  0  0  0
    0.2948   -1.5850   -0.7155 C   0  0  0  0  0  0  0  0  0  0  0  0
    2.8148   -0.1382   -1.9674 C   0  0  0  0  0  0  0  0  0  0  0  0
    4.2895   -0.3694    0.7701 C   0  0  0  0  0  0  0  0  0  0  0  0
    2.2646    1.1144   -1.3367 C   0  0  0  0  0  0  0  0  0  0  0  0
   -0.8392   -1.5517    0.3073 C   0  0  0  0  0  0  0  0  0  0  0  0
   -0.8145   -0.2668    1.0977 C   0  0  0  0  0  0  0  0  0  0  0  0
    1.0324    2.0740    0.5252 C   0  0  0  0  0  0  0  0  0  0  0  0
    5.3268   -1.6685   -0.9862 C   0  0  0  0  0  0  0  0  0  0  0  0
    2.1671    2.3443   -1.9877 C   0  0  0  0  0  0  0  0  0  0  0  0
    0.9367    3.2997   -0.0929 C   0  0  0  0  0  0  0  0  0  0  0  0
    1.5231    3.4324   -1.3599 C   0  0  0  0  0  0  0  0  0  0  0  0
    6.5008   -2.0151   -0.1230 C   0  0  0  0  0  0  0  0  0  0  0  0
    7.6290   -1.2978   -0.0716 C   0  0  0  0  0  0  0  0  0  0  0  0
   -4.1111    0.4808    0.4887 C   0  0  0  0  0  0  0  0  0  0  0  0
   -5.2773   -0.2698   -0.0448 C   0  0  0  0  0  0  0  0  0  0  0  0
   -6.1452    0.3715   -0.9038 C   0  0  0  0  0  0  0  0  0  0  0  0
   -5.4540   -1.5838    0.3357 C   0  0  0  0  0  0  0  0  0  0  0  0
   -7.2398   -0.3330   -1.4048 C   0  0  0  0  0  0  0  0  0  0  0  0
   -6.5486   -2.2883   -0.1654 C   0  0  0  0  0  0  0  0  0  0  0  0
   -7.4415   -1.6629   -1.0358 C   0  0  0  0  0  0  0  0  0  0  0  0
  1 11  1  0
  1 20  1  0
  2  9  1  0
  3 23  1  0
  4 27  2  0
  5 10  1  0
  5 16  1  0
  5 21  1  0
  6  7  1  0
  6 19  2  0
  7 27  1  0
  8  9  1  0
  8 11  1  0
  8 12  1  0
  8 13  1  0
  9 10  1  0
  9 14  1  0
 10 15  1  0
 11 19  1  0
 12 16  1  0
 13 17  2  0
 13 20  1  0
 14 18  1  0
 15 17  1  0
 17 22  1  0
 18 19  1  0
 20 23  2  0
 21 25  1  0
 22 24  2  0
 23 24  1  0
 25 26  2  0
 27 28  1  0
 28 29  2  0
 28 30  1  0
 29 31  1  0
 30 32  2  0
 31 33  2  0
 32 33  1  0
M  END
>  <PUBCHEM_COMPOUND_CID>  (1) 
4426

>  <PUBCHEM_CONFORMER_RMSD>  (1) 
0.8

>  <PUBCHEM_CONFORMER_DIVERSEORDER>  (1) 
2
7
10
3
4
11
12
17
9
8
5
15
13
16
1
14
6

>  <PUBCHEM_MMFF94_PARTIAL_CHARGES>  (1) 
44
1 -0.36
10 0.27
11 0.34
13 -0.14
15 0.14
16 0.27
17 -0.14
18 0.06
19 0.33
2 -0.68
20 0.08
21 0.41
22 -0.15
23 0.08
24 -0.15
25 -0.29
26 -0.3
27 0.54
28 0.09
29 -0.15
3 -0.53
30 -0.15
31 -0.15
32 -0.15
33 -0.15
4 -0.57
46 0.4
49 0.15
5 -0.81
50 0.15
51 0.15
52 0.45
53 0.37
54 0.15
55 0.15
56 0.15
57 0.15
58 0.15
59 0.15
6 -0.51
60 0.15
7 -0.37
8 0.14
9 0.28

>  <PUBCHEM_EFFECTIVE_ROTOR_COUNT>  (1) 
6.4

>  <PUBCHEM_PHARMACOPHORE_FEATURES>  (1) 
15
1 1 acceptor
1 2 acceptor
1 2 donor
1 26 hydrophobe
1 3 donor
1 4 acceptor
1 5 cation
1 6 acceptor
1 7 donor
5 1 8 11 13 20 rings
6 13 17 20 22 23 24 rings
6 28 29 30 31 32 33 rings
6 5 8 9 10 12 16 rings
6 8 9 10 13 15 17 rings
6 8 9 11 14 18 19 rings

>  <PUBCHEM_HEAVY_ATOM_COUNT>  (1) 
33

>  <PUBCHEM_ATOM_DEF_STEREO_COUNT>  (1) 
0

>  <PUBCHEM_ATOM_UDEF_STEREO_COUNT>  (1) 
4

>  <PUBCHEM_BOND_DEF_STEREO_COUNT>  (1) 
0

>  <PUBCHEM_BOND_UDEF_STEREO_COUNT>  (1) 
1

>  <PUBCHEM_ISOTOPIC_ATOM_COUNT>  (1) 
0

>  <PUBCHEM_COMPONENT_COUNT>  (1) 
1

>  <PUBCHEM_CACTVS_TAUTO_COUNT>  (1) 
6

>  <PUBCHEM_CONFORMER_ID>  (1) 
0000114A00000002

>  <PUBCHEM_MMFF94_ENERGY>  (1) 
126.7347

>  <PUBCHEM_FEATURE_SELFOVERLAP>  (1) 
78.194

>  <PUBCHEM_SHAPE_FINGERPRINT>  (1) 
10258939 38 13686028561479859986
10670039 82 16153421719557081119
10674148 151 11819282161802789406
10930396 42 18264747962464745314
11115154 58 18338518539204521721
11135609 99 17489582389993709222
11497681 19 17986681372858444718
11578080 2 14564825424150682196
12166972 35 18341896298579201305
12623949 98 17202497602058371054
13782708 43 17201094586761847366
14068700 675 18411141290872065332
15183329 4 17676487224763721251
15198563 99 17969227725125751964
15439362 3 18118685663228364780
15849732 13 18343861121816595638
15975801 100 16010422449726343045
16992610 120 10735582653880333698
16993089 31 16771561552267440478
18365409 1 17976263430748820285
18681886 176 18413101775543495227
20775438 99 17979902037263681711
21304303 282 16832609056885597728
21421861 104 9655313522407096685
21521721 280 10519694597447862542
22149856 69 18129390457656375195
22224240 67 10087630498926231579
23559900 14 18410567419027677411
23576562 1 17750522943146519527
238 59 18195260020878280465
24771293 8 18342745104998766224
249057 3 18409164412083821783
3004659 81 18410848872466312835
3009799 131 17676777504913726254
340366 18 18341611568175984199
4340502 62 11815896760466972974
439807 62 18341054107987390759
44802255 64 16599038668279510228
46194498 28 18260824934392836085
474113 269 17313937512713336986
484989 97 18262245546466510907
513532 50 18041836349902482181
57527452 28 17418095403767443102
5758199 1 10015575108533775558
58260988 521 13686300154337390996
6004065 56 18410857689791292330
6086070 43 16950569916946763683

>  <PUBCHEM_SHAPE_MULTIPOLES>  (1) 
640.7
16.59
3.41
1.61
22.03
3.55
0.16
-13.38
5.45
-1.94
0.51
-0.48
0.47
-0.62

>  <PUBCHEM_SHAPE_SELFOVERLAP>  (1) 
1435.879

>  <PUBCHEM_SHAPE_VOLUME>  (1) 
334.7

>  <PUBCHEM_COORDINATE_TYPE>  (1) 
2
5
10

$$$$
