44266
     RDKit          3D

 20 23  0  0  0  0  0  0  0  0999 V2000
   -2.2147   -3.3173    1.1802 S   0  0  0  0  0  0  0  0  0  0  0  0
    0.5913    0.3603   -0.0305 C   0  0  0  0  0  0  0  0  0  0  0  0
    0.0372   -0.9337   -0.1889 C   0  0  0  0  0  0  0  0  0  0  0  0
   -1.3558   -1.1153   -0.2426 C   0  0  0  0  0  0  0  0  0  0  0  0
   -2.2437   -0.0357   -0.1420 C   0  0  0  0  0  0  0  0  0  0  0  0
    2.0236    0.5097    0.0202 C   0  0  0  0  0  0  0  0  0  0  0  0
   -1.7224    1.2609    0.0170 C   0  0  0  0  0  0  0  0  0  0  0  0
   -0.3264    1.4374    0.0697 C   0  0  0  0  0  0  0  0  0  0  0  0
    2.8448   -0.6428   -0.0888 C   0  0  0  0  0  0  0  0  0  0  0  0
    0.8785   -2.0446   -0.2934 C   0  0  0  0  0  0  0  0  0  0  0  0
    2.2610   -1.9019   -0.2438 C   0  0  0  0  0  0  0  0  0  0  0  0
   -1.9201   -2.5024   -0.4121 C   0  0  0  0  0  0  0  0  0  0  0  0
   -3.6360   -0.2189   -0.1958 C   0  0  0  0  0  0  0  0  0  0  0  0
    2.6904    1.7514    0.1740 C   0  0  0  0  0  0  0  0  0  0  0  0
   -2.6080    2.3477    0.1196 C   0  0  0  0  0  0  0  0  0  0  0  0
    4.2450   -0.5316   -0.0427 C   0  0  0  0  0  0  0  0  0  0  0  0
   -4.5019    0.8695   -0.0929 C   0  0  0  0  0  0  0  0  0  0  0  0
   -3.9882    2.1524    0.0647 C   0  0  0  0  0  0  0  0  0  0  0  0
    4.0839    1.8485    0.2181 C   0  0  0  0  0  0  0  0  0  0  0  0
    4.8615    0.7062    0.1100 C   0  0  0  0  0  0  0  0  0  0  0  0
  1 12  1  0
  2  3  1  0
  2  6  1  0
  2  8  2  0
  3  4  2  0
  3 10  1  0
  4  5  1  0
  4 12  1  0
  5  7  2  0
  5 13  1  0
  6  9  2  0
  6 14  1  0
  7  8  1  0
  7 15  1  0
  9 11  1  0
  9 16  1  0
 10 11  2  0
 13 17  2  0
 14 19  2  0
 15 18  2  0
 16 20  2  0
 17 18  1  0
 19 20  1  0
M  END
>  <PUBCHEM_COMPOUND_CID>  (1) 
44266

>  <PUBCHEM_CONFORMER_RMSD>  (1) 
0.6

>  <PUBCHEM_CONFORMER_DIVERSEORDER>  (1) 
2
1

>  <PUBCHEM_MMFF94_PARTIAL_CHARGES>  (1) 
26
1 -0.41
10 -0.15
11 -0.15
12 0.37
13 -0.15
14 -0.15
15 -0.15
16 -0.15
17 -0.15
18 -0.15
19 -0.15
20 -0.15
21 0.15
22 0.15
23 0.15
26 0.15
27 0.15
28 0.15
29 0.15
30 0.15
31 0.15
32 0.15
33 0.15
34 0.18
4 -0.14
8 -0.15

>  <PUBCHEM_EFFECTIVE_ROTOR_COUNT>  (1) 
1

>  <PUBCHEM_PHARMACOPHORE_FEATURES>  (1) 
4
6 2 3 4 5 7 8 rings
6 2 3 6 9 10 11 rings
6 5 7 13 15 17 18 rings
6 6 9 14 16 19 20 rings

>  <PUBCHEM_HEAVY_ATOM_COUNT>  (1) 
20

>  <PUBCHEM_ATOM_DEF_STEREO_COUNT>  (1) 
0

>  <PUBCHEM_ATOM_UDEF_STEREO_COUNT>  (1) 
0

>  <PUBCHEM_BOND_DEF_STEREO_COUNT>  (1) 
0

>  <PUBCHEM_BOND_UDEF_STEREO_COUNT>  (1) 
0

>  <PUBCHEM_ISOTOPIC_ATOM_COUNT>  (1) 
0

>  <PUBCHEM_COMPONENT_COUNT>  (1) 
1

>  <PUBCHEM_CACTVS_TAUTO_COUNT>  (1) 
1

>  <PUBCHEM_CONFORMER_ID>  (1) 
0000ACEA00000002

>  <PUBCHEM_MMFF94_ENERGY>  (1) 
78.0637

>  <PUBCHEM_FEATURE_SELFOVERLAP>  (1) 
20.37

>  <PUBCHEM_SHAPE_FINGERPRINT>  (1) 
10319926 262 18340189883194195362
10411042 1 17619064374983537126
10608611 8 18412824681322266532
10616163 171 18339643446504023934
10646746 165 18412545435871341540
10967382 1 18340205198198304492
1100329 8 17044863716312329304
11370993 70 18411133606547526557
11680986 33 18339372880786592534
12390115 104 18198922477078518400
12403814 3 17821723927589975333
12633257 1 18261943060377256674
12788726 201 18190731128210077395
13140716 1 18051138283019431273
13380535 76 18412825754979766055
133893 2 15911666539532105207
138480 1 17474389071780049927
14178342 30 18261668281106834802
14223421 5 18340492278197104578
14787075 74 18343577439579778061
14790565 3 18197786501157579801
15042514 8 18264212572799691723
15196674 1 18412543184722876996
15420108 30 15323660644891457240
15442244 35 18268146449088506450
15536298 74 18271806761751553572
16087824 20 18341046420370471247
16945 1 18411424989998049295
18186145 218 18127695928656731637
19591789 44 18193557765992270007
200 152 17775279452351873429
20510252 161 18197782304594028450
20602899 9 15913324706425451287
21033648 29 18262503806659845533
21267235 1 18412833464393217430
22182313 1 18200334198010072150
23227448 37 18413106186237005189
2334 1 18051413169051988567
23402539 116 18342729715703494941
23493267 7 18334852848529711594
23557571 272 18269003135907714670
23558518 356 18043534021741038560
23559900 14 18200311005671898654
2748010 2 17836354222714442493
335352 9 18340205172903300278
34934 24 18410005541982434982
350125 39 18267308826948890441
3545911 37 18413109463645432140
4214541 1 18411698790037130428
4340502 62 17022907813888991747
474 4 17967819370551719836
5104073 3 18410856529617275898
59755656 215 18341898442506295486
633830 44 18056477240916854797
69090 78 18411978040210024421
7097593 13 17970608720072441250
7364860 26 18199187291765993358
8809292 202 18408324418758034011
9709674 26 18341898484739017742
9981440 41 18411129260114996338

>  <PUBCHEM_SHAPE_MULTIPOLES>  (1) 
415.44
8.53
3.19
0.73
3.74
1.55
-0.09
-3.81
-0.31
-2.22
-0.56
-0.18
0.29
0.55

>  <PUBCHEM_SHAPE_SELFOVERLAP>  (1) 
936.209

>  <PUBCHEM_SHAPE_VOLUME>  (1) 
217.1

>  <PUBCHEM_COORDINATE_TYPE>  (1) 
2
5
10

$$$$
