44269
     RDKit          3D

 22 25  0  0  0  0  0  0  0  0999 V2000
   -1.4239    0.6333    0.3018 C   0  0  0  0  0  0  0  0  0  0  0  0
   -2.8125    0.8047    0.4357 C   0  0  0  0  0  0  0  0  0  0  0  0
   -3.7219   -0.3293    0.7968 C   0  0  0  0  0  0  0  0  0  0  0  0
    1.4084    0.3063    0.0238 C   0  0  0  0  0  0  0  0  0  0  0  0
   -0.6207    1.7363   -0.0395 C   0  0  0  0  0  0  0  0  0  0  0  0
    0.5741   -0.7859    0.3668 C   0  0  0  0  0  0  0  0  0  0  0  0
   -0.8146   -0.6128    0.5004 C   0  0  0  0  0  0  0  0  0  0  0  0
   -4.2413   -1.0677   -0.4432 C   0  0  0  0  0  0  0  0  0  0  0  0
    0.7696    1.5576   -0.1720 C   0  0  0  0  0  0  0  0  0  0  0  0
    2.8277    0.0931   -0.1047 C   0  0  0  0  0  0  0  0  0  0  0  0
   -3.3985    2.0541    0.2336 C   0  0  0  0  0  0  0  0  0  0  0  0
    3.3559   -1.2058    0.1152 C   0  0  0  0  0  0  0  0  0  0  0  0
   -5.1982   -2.1979   -0.0647 C   0  0  0  0  0  0  0  0  0  0  0  0
   -1.2261    2.9890   -0.2400 C   0  0  0  0  0  0  0  0  0  0  0  0
    1.1313   -2.0504    0.5756 C   0  0  0  0  0  0  0  0  0  0  0  0
   -2.6057    3.1458   -0.1041 C   0  0  0  0  0  0  0  0  0  0  0  0
    2.5010   -2.2575    0.4519 C   0  0  0  0  0  0  0  0  0  0  0  0
    3.7586    1.1076   -0.4426 C   0  0  0  0  0  0  0  0  0  0  0  0
    4.7354   -1.4476   -0.0022 C   0  0  0  0  0  0  0  0  0  0  0  0
   -5.7437   -2.9026   -1.2964 C   0  0  0  0  0  0  0  0  0  0  0  0
    5.1283    0.8540   -0.5563 C   0  0  0  0  0  0  0  0  0  0  0  0
    5.6168   -0.4242   -0.3359 C   0  0  0  0  0  0  0  0  0  0  0  0
  1  2  2  0
  1  5  1  0
  1  7  1  0
  2  3  1  0
  2 11  1  0
  3  8  1  0
  4  6  1  0
  4  9  2  0
  4 10  1  0
  5  9  1  0
  5 14  2  0
  6  7  2  0
  6 15  1  0
  8 13  1  0
 10 12  2  0
 10 18  1  0
 11 16  2  0
 12 17  1  0
 12 19  1  0
 13 20  1  0
 14 16  1  0
 15 17  2  0
 18 21  2  0
 19 22  2  0
 21 22  1  0
M  END
>  <PUBCHEM_COMPOUND_CID>  (1) 
44269

>  <PUBCHEM_CONFORMER_RMSD>  (1) 
0.6

>  <PUBCHEM_CONFORMER_DIVERSEORDER>  (1) 
2
5
1
6
4
3
7

>  <PUBCHEM_MMFF94_PARTIAL_CHARGES>  (1) 
24
11 -0.15
14 -0.15
15 -0.15
16 -0.15
17 -0.15
18 -0.15
19 -0.15
2 -0.14
21 -0.15
22 -0.15
27 0.15
28 0.15
29 0.15
3 0.14
32 0.15
33 0.15
34 0.15
35 0.15
36 0.15
37 0.15
41 0.15
42 0.15
7 -0.15
9 -0.15

>  <PUBCHEM_EFFECTIVE_ROTOR_COUNT>  (1) 
3

>  <PUBCHEM_PHARMACOPHORE_FEATURES>  (1) 
5
1 20 hydrophobe
6 1 2 5 11 14 16 rings
6 1 4 5 6 7 9 rings
6 10 12 18 19 21 22 rings
6 4 6 10 12 15 17 rings

>  <PUBCHEM_HEAVY_ATOM_COUNT>  (1) 
22

>  <PUBCHEM_ATOM_DEF_STEREO_COUNT>  (1) 
0

>  <PUBCHEM_ATOM_UDEF_STEREO_COUNT>  (1) 
0

>  <PUBCHEM_BOND_DEF_STEREO_COUNT>  (1) 
0

>  <PUBCHEM_BOND_UDEF_STEREO_COUNT>  (1) 
0

>  <PUBCHEM_ISOTOPIC_ATOM_COUNT>  (1) 
0

>  <PUBCHEM_COMPONENT_COUNT>  (1) 
1

>  <PUBCHEM_CACTVS_TAUTO_COUNT>  (1) 
1

>  <PUBCHEM_CONFORMER_ID>  (1) 
0000ACED00000002

>  <PUBCHEM_MMFF94_ENERGY>  (1) 
68.2074

>  <PUBCHEM_FEATURE_SELFOVERLAP>  (1) 
25.446

>  <PUBCHEM_SHAPE_FINGERPRINT>  (1) 
10042902 136 17344898844859128007
10616163 171 18338799996552469607
10693767 8 18126837425325424943
11045515 52 18186797007144530101
11135609 187 18044939223256024781
11552529 35 18201439125918324673
11578080 2 16445308959080584334
11806522 49 18408324405899174459
12107183 9 17397825679280868032
12403259 226 18411696578250688752
12403260 363 18333732403790438608
12553582 1 18269539693672516207
12788726 201 18335693949450925955
13140716 1 18046365276793436704
13631057 29 18341893000023153809
13862211 1 18408602582710617858
14576447 43 18339357573691915623
14767858 380 18262525925919761700
14787075 74 18408327708998057128
15196674 1 18335425604426147712
15250474 111 18263353694698408707
16087824 20 18337672994216612733
17349148 13 17894635846362537744
17492 89 18339080363607661118
18681886 176 18410293593651198416
19141452 34 18342463582909180113
19591789 44 18410576188812721384
200 152 18334575750398858179
20028762 73 18342737438213663238
20775438 99 17046516815440679103
21033648 29 12540987360225602204
21054139 6 18335137596709630478
21236236 1 18410296886841529705
21267235 1 18337402585898253562
21709351 56 18114747032172577596
22393880 68 18264775355117409326
23402539 116 18407760322032182573
23559900 14 17979351954958328714
2871803 45 18334292080324678683
329604 57 18335421309015974015
335352 9 17830175701916389132
34934 24 18189617129636142273
350125 39 18410579474157040145
4214541 1 18263929839112875992
463206 1 18264773349484226611
474 4 17459207217619561596
5104073 3 18262803943722404776
6669772 16 17691406738396185237
6913067 236 17676195892942256268
7495541 125 17775564264829208490
7970288 3 18270395130957272367
9709674 26 18262531277523241906

>  <PUBCHEM_SHAPE_MULTIPOLES>  (1) 
452.75
11.83
3.35
0.82
0.45
0.74
-0.07
-7.16
-2.86
-4.11
-0.44
-0.45
-0.26
-1.48

>  <PUBCHEM_SHAPE_SELFOVERLAP>  (1) 
1010.569

>  <PUBCHEM_SHAPE_VOLUME>  (1) 
223.7

>  <PUBCHEM_COORDINATE_TYPE>  (1) 
2
5
10

$$$$
