44273
     RDKit          3D

 21 24  0  0  0  0  0  0  0  0999 V2000
   -4.6899   -2.1359   -0.0003 N   0  0  0  0  0  0  0  0  0  0  0  0
    0.9462    0.3256   -0.0001 C   0  0  0  0  0  0  0  0  0  0  0  0
    0.2926   -0.9311   -0.0001 C   0  0  0  0  0  0  0  0  0  0  0  0
   -1.1111   -1.0092    0.0000 C   0  0  0  0  0  0  0  0  0  0  0  0
   -1.9126    0.1404    0.0001 C   0  0  0  0  0  0  0  0  0  0  0  0
    2.3865    0.3685   -0.0001 C   0  0  0  0  0  0  0  0  0  0  0  0
   -1.2914    1.4022    0.0000 C   0  0  0  0  0  0  0  0  0  0  0  0
    0.1147    1.4749   -0.0001 C   0  0  0  0  0  0  0  0  0  0  0  0
    3.1160   -0.8492    0.0000 C   0  0  0  0  0  0  0  0  0  0  0  0
    1.0452   -2.1086    0.0000 C   0  0  0  0  0  0  0  0  0  0  0  0
    2.4354   -2.0687    0.0001 C   0  0  0  0  0  0  0  0  0  0  0  0
   -3.3158    0.0606    0.0001 C   0  0  0  0  0  0  0  0  0  0  0  0
   -1.7199   -2.3887    0.0002 C   0  0  0  0  0  0  0  0  0  0  0  0
   -2.0902    2.5590   -0.0001 C   0  0  0  0  0  0  0  0  0  0  0  0
    3.1482    1.5643   -0.0002 C   0  0  0  0  0  0  0  0  0  0  0  0
    4.5214   -0.8423    0.0001 C   0  0  0  0  0  0  0  0  0  0  0  0
   -4.0948    1.2175    0.0001 C   0  0  0  0  0  0  0  0  0  0  0  0
   -3.4822    2.4662    0.0003 C   0  0  0  0  0  0  0  0  0  0  0  0
    4.5459    1.5574    0.0000 C   0  0  0  0  0  0  0  0  0  0  0  0
    5.2326    0.3535    0.0001 C   0  0  0  0  0  0  0  0  0  0  0  0
   -4.0771   -1.1564   -0.0002 C   0  0  0  0  0  0  0  0  0  0  0  0
  1 21  3  0
  2  3  1  0
  2  6  1  0
  2  8  2  0
  3  4  2  0
  3 10  1  0
  4  5  1  0
  4 13  1  0
  5  7  2  0
  5 12  1  0
  6  9  2  0
  6 15  1  0
  7  8  1  0
  7 14  1  0
  9 11  1  0
  9 16  1  0
 10 11  2  0
 12 17  2  0
 12 21  1  0
 14 18  2  0
 15 19  2  0
 16 20  2  0
 17 18  1  0
 19 20  1  0
M  END
>  <PUBCHEM_COMPOUND_CID>  (1) 
44273

>  <PUBCHEM_CONFORMER_RMSD>  (1) 
0.6

>  <PUBCHEM_CONFORMER_DIVERSEORDER>  (1) 
1

>  <PUBCHEM_MMFF94_PARTIAL_CHARGES>  (1) 
25
1 -0.56
10 -0.15
11 -0.15
12 0.07
13 0.14
14 -0.15
15 -0.15
16 -0.15
17 -0.15
18 -0.15
19 -0.15
20 -0.15
21 0.48
22 0.15
23 0.15
24 0.15
28 0.15
29 0.15
30 0.15
31 0.15
32 0.15
33 0.15
34 0.15
4 -0.14
8 -0.15

>  <PUBCHEM_EFFECTIVE_ROTOR_COUNT>  (1) 
0

>  <PUBCHEM_PHARMACOPHORE_FEATURES>  (1) 
5
1 1 acceptor
6 2 3 4 5 7 8 rings
6 2 3 6 9 10 11 rings
6 5 7 12 14 17 18 rings
6 6 9 15 16 19 20 rings

>  <PUBCHEM_HEAVY_ATOM_COUNT>  (1) 
21

>  <PUBCHEM_ATOM_DEF_STEREO_COUNT>  (1) 
0

>  <PUBCHEM_ATOM_UDEF_STEREO_COUNT>  (1) 
0

>  <PUBCHEM_BOND_DEF_STEREO_COUNT>  (1) 
0

>  <PUBCHEM_BOND_UDEF_STEREO_COUNT>  (1) 
0

>  <PUBCHEM_ISOTOPIC_ATOM_COUNT>  (1) 
0

>  <PUBCHEM_COMPONENT_COUNT>  (1) 
1

>  <PUBCHEM_CACTVS_TAUTO_COUNT>  (1) 
1

>  <PUBCHEM_CONFORMER_ID>  (1) 
0000ACF100000001

>  <PUBCHEM_MMFF94_ENERGY>  (1) 
92.776

>  <PUBCHEM_FEATURE_SELFOVERLAP>  (1) 
25.446

>  <PUBCHEM_SHAPE_FINGERPRINT>  (1) 
10319926 262 18340469103249986458
10411042 1 17762056940191524006
10498660 4 18409448059496241708
10608611 8 18410854313525075936
10616163 171 18411700984675734991
10646746 165 18411419479945281740
10670039 82 18261126188026566404
10967382 1 18338797797618839364
11578080 2 13972313888882453849
12107183 9 17759799247808283546
12236239 1 17967248707248225032
12390115 104 18200048256145976137
12403259 226 18412258454224798728
12403259 415 18131347549060430224
12403260 363 18408037438055009032
13140716 1 17977955905676207585
13224815 77 18410855442953606384
138480 1 17473826121821425250
13862211 1 18338793528237062127
14787075 74 18335420235216043267
14790565 3 17908710527602561249
15196674 1 18410856547050312774
15442244 35 18193555567233050914
15536298 74 18341613659945837102
16087824 20 18411135798579643301
16945 1 18410576227435629005
17349148 13 17967814972151442828
17492 89 18338516343922624419
18681886 176 18412260662797701472
19591789 44 18411980290603978514
200 152 18202843261916228593
20510252 161 18342741810289104969
20715895 44 17903628588805619197
21236236 1 18412545422416623409
21267235 1 18410301336396305022
21279426 13 18268433443377897694
21709351 56 18335698330354153276
221490 88 18339086986420396498
22393880 68 18339084774649123182
23227448 37 18412543210582306372
2334 1 17545885292333208325
23366157 5 17970071041579890938
23402539 116 18411131455016746935
23557571 272 18271815643812539038
23559900 14 18126563419212198622
2748010 2 18265901259197743965
335352 9 18194401091922568414
34934 24 18336260133714621889
350125 39 18411421738702648433
3545911 37 18338518542918915061
4214541 1 18410573963798226276
474 4 17676494977480241204
5104073 3 18410572855854699538
7097593 13 17537706703628500859
7364860 26 18197216945538682142
77779 3 18411419484124243380
9709674 26 18411424985877486646

>  <PUBCHEM_SHAPE_MULTIPOLES>  (1) 
427.19
9.71
2.83
0.61
3.48
0.07
0
-0.95
0
-1.77
0
0.02
-0.01
0

>  <PUBCHEM_SHAPE_SELFOVERLAP>  (1) 
980.931

>  <PUBCHEM_SHAPE_VOLUME>  (1) 
218.4

>  <PUBCHEM_COORDINATE_TYPE>  (1) 
2
5
10

$$$$
