44277
     RDKit          3D

 19 20  0  0  1  0  0  0  0  0999 V2000
    0.2494   -0.4072    0.4296 N   0  0  0  0  0  0  0  0  0  0  0  0
    1.6450   -0.8356    0.3582 C   0  0  0  0  0  0  0  0  0  0  0  0
    2.0850   -0.9360   -1.1064 C   0  0  0  0  0  0  0  0  0  0  0  0
    1.8156   -2.1770    1.0799 C   0  0  0  0  0  0  0  0  0  0  0  0
    3.5171   -1.4549   -1.2229 C   0  0  0  0  0  0  0  0  0  0  0  0
    3.2479   -2.6950    0.9605 C   0  0  0  0  0  0  0  0  0  0  0  0
    3.6943   -2.7851   -0.4961 C   0  0  0  0  0  0  0  0  0  0  0  0
    0.0826    0.9008   -0.2038 C   0  0  0  0  0  0  0  0  0  0  0  0
   -0.6227   -1.3961   -0.2036 C   0  0  0  0  0  0  0  0  0  0  0  0
    0.9206    1.9523    0.5214 C   0  0  0  0  0  0  0  0  0  0  0  0
    0.7440    3.3338   -0.1124 C   0  0  0  0  0  0  0  0  0  0  0  0
   -2.0700   -0.9851   -0.1477 C   0  0  0  0  0  0  0  0  0  0  0  0
    1.6083    4.3820    0.5883 C   0  0  0  0  0  0  0  0  0  0  0  0
   -2.8478   -1.3688    0.9359 C   0  0  0  0  0  0  0  0  0  0  0  0
   -2.6060   -0.2281   -1.1801 C   0  0  0  0  0  0  0  0  0  0  0  0
    1.4103    5.7624   -0.0173 C   0  0  0  0  0  0  0  0  0  0  0  0
   -4.1887   -0.9881    0.9880 C   0  0  0  0  0  0  0  0  0  0  0  0
   -3.9468    0.1528   -1.1278 C   0  0  0  0  0  0  0  0  0  0  0  0
   -4.7381   -0.2273   -0.0438 C   0  0  0  0  0  0  0  0  0  0  0  0
  1  2  1  0
  1  8  1  0
  1  9  1  0
  2  3  1  0
  2  4  1  0
  3  5  1  0
  4  6  1  0
  5  7  1  0
  6  7  1  0
  8 10  1  0
  9 12  1  0
 10 11  1  0
 11 13  1  0
 12 14  2  0
 12 15  1  0
 13 16  1  0
 14 17  1  0
 15 18  2  0
 17 19  2  0
 18 19  1  0
M  END
>  <PUBCHEM_COMPOUND_CID>  (1) 
44277

>  <PUBCHEM_CONFORMER_RMSD>  (1) 
0.8

>  <PUBCHEM_CONFORMER_DIVERSEORDER>  (1) 
1
50
51
19
52
43
8
5
14
20
41
29
12
38
36
45
6
48
3
17
33
16
30
46
21
31
13
22
54
49
27
2
53
35
40
34
4
28
39
42
7
10
32
23
24
44
11
18
55
57
26
25
9
58
15
37
56
47

>  <PUBCHEM_MMFF94_PARTIAL_CHARGES>  (1) 
15
1 -0.81
12 -0.14
14 -0.15
15 -0.15
17 -0.15
18 -0.15
19 -0.15
2 0.27
41 0.15
42 0.15
46 0.15
47 0.15
48 0.15
8 0.27
9 0.41

>  <PUBCHEM_EFFECTIVE_ROTOR_COUNT>  (1) 
8.2

>  <PUBCHEM_PHARMACOPHORE_FEATURES>  (1) 
4
1 1 cation
1 16 hydrophobe
6 12 14 15 17 18 19 rings
6 2 3 4 5 6 7 rings

>  <PUBCHEM_HEAVY_ATOM_COUNT>  (1) 
19

>  <PUBCHEM_ATOM_DEF_STEREO_COUNT>  (1) 
0

>  <PUBCHEM_ATOM_UDEF_STEREO_COUNT>  (1) 
0

>  <PUBCHEM_BOND_DEF_STEREO_COUNT>  (1) 
0

>  <PUBCHEM_BOND_UDEF_STEREO_COUNT>  (1) 
0

>  <PUBCHEM_ISOTOPIC_ATOM_COUNT>  (1) 
0

>  <PUBCHEM_COMPONENT_COUNT>  (1) 
1

>  <PUBCHEM_CACTVS_TAUTO_COUNT>  (1) 
1

>  <PUBCHEM_CONFORMER_ID>  (1) 
0000ACF500000001

>  <PUBCHEM_MMFF94_ENERGY>  (1) 
38.2759

>  <PUBCHEM_FEATURE_SELFOVERLAP>  (1) 
20.297

>  <PUBCHEM_SHAPE_FINGERPRINT>  (1) 
11833330 49 18193833730879601712
121448 382 7852698241757154811
12293681 160 18117588247828822934
12553582 1 18340768139393642359
12707595 3 18409449167830126903
12788726 201 17903071131829941906
13134695 92 18410848841652208887
13140716 1 17977383068455175032
13590594 115 18267318538408472169
13681431 1 18343297084988294576
13955234 65 18266186213134868483
14004458 79 17981620264404422628
15230672 131 17686626050014510284
15842332 3 17247816048477403930
15906896 17 17547286705575327630
1813 80 18059020483814732598
18785283 64 18192149527952529416
20369508 70 18335696148479377703
20600515 1 18129955489487013054
20671657 1 18339366391338505983
20671657 53 18341614776452925731
21285901 2 17485366673280748365
21304303 282 17111538127269604148
21524375 3 17548691241332634312
21731228 192 17616249629637485145
2255824 54 18270118040614019679
23175994 123 18338238159370267375
23557571 272 18121769548678424186
23558518 356 17183899173442251767
23559900 14 18408878569093709659
3071541 12 18339927146205124609
3091708 16 9213196611028211448
314173 85 18270398265861015130
4175511 71 18341333310081843815
532947 4 18197220463269969340
6049 1 18040715900825622111
621550 34 17902235842975593963
6786 2 17618230941200931552
68521 5 18123187905334274502
7164475 11 18050291362803256958
7364860 26 18340488992362383501
74978 22 18341047506063513599
77188 2 18411137991909667236
81228 2 17982453693891125192
9981440 41 17762611098678479537

>  <PUBCHEM_SHAPE_MULTIPOLES>  (1) 
386.03
7.44
5.82
1.18
7.17
13.63
0.1
-5.83
0.63
-7.91
-1
0.02
-0.5
0.64

>  <PUBCHEM_SHAPE_SELFOVERLAP>  (1) 
777.785

>  <PUBCHEM_SHAPE_VOLUME>  (1) 
225.8

>  <PUBCHEM_COORDINATE_TYPE>  (1) 
2
5
10

$$$$
