44274
     RDKit          3D

 17 19  0  0  0  0  0  0  0  0999 V2000
    0.9869    0.5332    0.0000 C   0  0  0  0  0  0  0  0  0  0  0  0
    0.8575   -0.8731   -0.0001 C   0  0  0  0  0  0  0  0  0  0  0  0
   -0.1701    1.3302    0.0000 C   0  0  0  0  0  0  0  0  0  0  0  0
   -0.4254   -1.4455   -0.0001 C   0  0  0  0  0  0  0  0  0  0  0  0
   -1.4530    0.7576    0.0000 C   0  0  0  0  0  0  0  0  0  0  0  0
   -1.5824   -0.6485    0.0001 C   0  0  0  0  0  0  0  0  0  0  0  0
    2.2701    1.1049    0.0000 C   0  0  0  0  0  0  0  0  0  0  0  0
    2.0149   -1.6693    0.0000 C   0  0  0  0  0  0  0  0  0  0  0  0
    3.4093    0.2997    0.0001 C   0  0  0  0  0  0  0  0  0  0  0  0
   -0.0330    2.8288   -0.0003 C   0  0  0  0  0  0  0  0  0  0  0  0
   -2.6103    1.5539    0.0001 C   0  0  0  0  0  0  0  0  0  0  0  0
   -2.8655   -1.2203    0.0001 C   0  0  0  0  0  0  0  0  0  0  0  0
   -0.5633   -2.9441   -0.0002 C   0  0  0  0  0  0  0  0  0  0  0  0
    3.2818   -1.0856    0.0000 C   0  0  0  0  0  0  0  0  0  0  0  0
   -3.8773    0.9702    0.0000 C   0  0  0  0  0  0  0  0  0  0  0  0
   -4.0048   -0.4152    0.0000 C   0  0  0  0  0  0  0  0  0  0  0  0
    4.7644    0.9231    0.0000 C   0  0  0  0  0  0  0  0  0  0  0  0
  1  2  1  0
  1  3  2  0
  1  7  1  0
  2  4  2  0
  2  8  1  0
  3  5  1  0
  3 10  1  0
  4  6  1  0
  4 13  1  0
  5  6  2  0
  5 11  1  0
  6 12  1  0
  7  9  2  0
  8 14  2  0
  9 14  1  0
  9 17  1  0
 11 15  2  0
 12 16  2  0
 15 16  1  0
M  END
>  <PUBCHEM_COMPOUND_CID>  (1) 
44274

>  <PUBCHEM_CONFORMER_RMSD>  (1) 
0.4

>  <PUBCHEM_CONFORMER_DIVERSEORDER>  (1) 
1

>  <PUBCHEM_MMFF94_PARTIAL_CHARGES>  (1) 
20
10 0.14
11 -0.15
12 -0.15
13 0.14
14 -0.15
15 -0.15
16 -0.15
17 0.14
18 0.15
19 0.15
23 0.15
24 0.15
28 0.15
29 0.15
3 -0.14
30 0.15
4 -0.14
7 -0.15
8 -0.15
9 -0.14

>  <PUBCHEM_EFFECTIVE_ROTOR_COUNT>  (1) 
0

>  <PUBCHEM_PHARMACOPHORE_FEATURES>  (1) 
3
6 1 2 3 4 5 6 rings
6 1 2 7 8 9 14 rings
6 5 6 11 12 15 16 rings

>  <PUBCHEM_HEAVY_ATOM_COUNT>  (1) 
17

>  <PUBCHEM_ATOM_DEF_STEREO_COUNT>  (1) 
0

>  <PUBCHEM_ATOM_UDEF_STEREO_COUNT>  (1) 
0

>  <PUBCHEM_BOND_DEF_STEREO_COUNT>  (1) 
0

>  <PUBCHEM_BOND_UDEF_STEREO_COUNT>  (1) 
0

>  <PUBCHEM_ISOTOPIC_ATOM_COUNT>  (1) 
0

>  <PUBCHEM_COMPONENT_COUNT>  (1) 
1

>  <PUBCHEM_CACTVS_TAUTO_COUNT>  (1) 
1

>  <PUBCHEM_CONFORMER_ID>  (1) 
0000ACF200000001

>  <PUBCHEM_MMFF94_ENERGY>  (1) 
70.6255

>  <PUBCHEM_FEATURE_SELFOVERLAP>  (1) 
15.274

>  <PUBCHEM_SHAPE_FINGERPRINT>  (1) 
10411042 1 17257653847015124166
10608611 8 18410853231066794772
10616163 171 18339082717175503102
10967382 1 18410573959387032550
11132069 177 18411696573654423872
11471102 20 18410569565630116718
11680986 33 17979351189915904481
11806522 49 18411133680052574615
12011746 2 18411698811327091069
12403814 3 17530677731870794517
13132413 78 18411983589160363837
13140716 1 18266182725363078115
13221675 6 18410574006689734062
13380535 76 18411700993397622782
14790565 3 18410868654342477113
15196674 1 18410856538175574055
15309172 13 18411708668556714107
15442244 35 18122060893052124738
15536298 74 18342739581306592558
16945 1 18194402418692857607
18186145 218 18339646624721489014
193761 8 17834113426269281509
19591789 44 18410575067520737131
200 152 18131060550866254197
20028762 73 17985551289379525815
20510252 161 18271527507141404160
20588541 1 18412829109549476298
20739085 24 18120402889620769489
21029758 11 18343015631660746921
21029758 27 18187936134980860349
21267235 1 18410583893662413838
21501502 16 18267584606819779834
2334 1 18410855460307581315
23402539 116 18343292686936430926
23402655 69 18342451509286547717
23419403 2 16041599346359444035
23463225 33 18408604734056307060
23557571 272 18200605803620882670
23559900 14 18343585166595397108
2748010 2 18410857633576889943
335352 9 17906453229670593631
34934 24 18410567388081716962
350125 39 18337960116309660097
43471831 8 18263361404117037227
474 4 17096657698098711868
5104073 3 18410293575368874362
528886 8 18411132519910173363
537710 114 18409735066433047076
53812653 166 18342454854760077136
54173680 148 18048880985268136595
69090 78 18412822499315427831
7364860 26 18197216073138347937
8809292 202 18261677102716589715
9709674 26 18412832408153392846

>  <PUBCHEM_SHAPE_MULTIPOLES>  (1) 
349.85
6.93
2.6
0.62
1.97
0.29
0
-1.11
0
-0.31
0
0
0
0

>  <PUBCHEM_SHAPE_SELFOVERLAP>  (1) 
784.229

>  <PUBCHEM_SHAPE_VOLUME>  (1) 
175.1

>  <PUBCHEM_COORDINATE_TYPE>  (1) 
2
5
10

$$$$
