44270
     RDKit          3D

 20 23  0  0  0  0  0  0  0  0999 V2000
   -4.3970   -1.7940    0.0012 Cl  0  0  0  0  0  0  0  0  0  0  0  0
    0.7029    0.2810   -0.0002 C   0  0  0  0  0  0  0  0  0  0  0  0
    0.1401   -1.0188   -0.0003 C   0  0  0  0  0  0  0  0  0  0  0  0
   -1.2546   -1.1962   -0.0004 C   0  0  0  0  0  0  0  0  0  0  0  0
   -2.1355   -0.1064   -0.0002 C   0  0  0  0  0  0  0  0  0  0  0  0
    2.1366    0.4259    0.0000 C   0  0  0  0  0  0  0  0  0  0  0  0
   -1.6054    1.1963   -0.0001 C   0  0  0  0  0  0  0  0  0  0  0  0
   -0.2080    1.3685   -0.0001 C   0  0  0  0  0  0  0  0  0  0  0  0
    2.9505   -0.7370   -0.0001 C   0  0  0  0  0  0  0  0  0  0  0  0
    0.9743   -2.1401   -0.0003 C   0  0  0  0  0  0  0  0  0  0  0  0
    2.3581   -2.0017   -0.0002 C   0  0  0  0  0  0  0  0  0  0  0  0
   -1.7396   -2.6210    0.0002 C   0  0  0  0  0  0  0  0  0  0  0  0
   -3.5296   -0.2854   -0.0003 C   0  0  0  0  0  0  0  0  0  0  0  0
    2.8115    1.6727    0.0001 C   0  0  0  0  0  0  0  0  0  0  0  0
   -2.4842    2.2936   -0.0001 C   0  0  0  0  0  0  0  0  0  0  0  0
    4.3519   -0.6305    0.0002 C   0  0  0  0  0  0  0  0  0  0  0  0
   -4.3886    0.8133   -0.0002 C   0  0  0  0  0  0  0  0  0  0  0  0
   -3.8661    2.1023    0.0002 C   0  0  0  0  0  0  0  0  0  0  0  0
    4.2062    1.7649    0.0003 C   0  0  0  0  0  0  0  0  0  0  0  0
    4.9766    0.6127    0.0004 C   0  0  0  0  0  0  0  0  0  0  0  0
  1 13  1  0
  2  3  1  0
  2  6  1  0
  2  8  2  0
  3  4  2  0
  3 10  1  0
  4  5  1  0
  4 12  1  0
  5  7  2  0
  5 13  1  0
  6  9  2  0
  6 14  1  0
  7  8  1  0
  7 15  1  0
  9 11  1  0
  9 16  1  0
 10 11  2  0
 13 17  2  0
 14 19  2  0
 15 18  2  0
 16 20  2  0
 17 18  1  0
 19 20  1  0
M  END
>  <PUBCHEM_COMPOUND_CID>  (1) 
44270

>  <PUBCHEM_CONFORMER_RMSD>  (1) 
0.6

>  <PUBCHEM_CONFORMER_DIVERSEORDER>  (1) 
1

>  <PUBCHEM_MMFF94_PARTIAL_CHARGES>  (1) 
24
1 -0.18
10 -0.15
11 -0.15
12 0.14
13 0.18
14 -0.15
15 -0.15
16 -0.15
17 -0.15
18 -0.15
19 -0.15
20 -0.15
21 0.15
22 0.15
23 0.15
27 0.15
28 0.15
29 0.15
30 0.15
31 0.15
32 0.15
33 0.15
4 -0.14
8 -0.15

>  <PUBCHEM_EFFECTIVE_ROTOR_COUNT>  (1) 
0

>  <PUBCHEM_PHARMACOPHORE_FEATURES>  (1) 
4
6 2 3 4 5 7 8 rings
6 2 3 6 9 10 11 rings
6 5 7 13 15 17 18 rings
6 6 9 14 16 19 20 rings

>  <PUBCHEM_HEAVY_ATOM_COUNT>  (1) 
20

>  <PUBCHEM_ATOM_DEF_STEREO_COUNT>  (1) 
0

>  <PUBCHEM_ATOM_UDEF_STEREO_COUNT>  (1) 
0

>  <PUBCHEM_BOND_DEF_STEREO_COUNT>  (1) 
0

>  <PUBCHEM_BOND_UDEF_STEREO_COUNT>  (1) 
0

>  <PUBCHEM_ISOTOPIC_ATOM_COUNT>  (1) 
0

>  <PUBCHEM_COMPONENT_COUNT>  (1) 
1

>  <PUBCHEM_CACTVS_TAUTO_COUNT>  (1) 
1

>  <PUBCHEM_CONFORMER_ID>  (1) 
0000ACEE00000001

>  <PUBCHEM_MMFF94_ENERGY>  (1) 
94.5855

>  <PUBCHEM_FEATURE_SELFOVERLAP>  (1) 
20.37

>  <PUBCHEM_SHAPE_FINGERPRINT>  (1) 
10319926 262 18340470232821039098
10411042 1 17617941778006823698
10498660 4 18409729547384241005
10608611 8 18410573959408190028
10616163 171 18411420643533551663
10646746 165 18411138022079836012
10967382 1 18338516339610864900
11370993 70 18410289185917552156
11578080 2 13900537769779084041
12107183 9 17832419796010191056
12236239 1 17894628176083781360
12390115 104 18200049360232133097
12403259 415 18130505340301800440
12403814 3 17749103387867115629
13140716 1 17905898320302125747
13224815 77 18410012130478000385
138480 1 17546165207910463974
14787075 74 18339923826416853571
14790565 3 18053108315989228905
15042514 8 18193561296835864571
15196674 1 18410855455970454982
15442244 35 18266176119819590018
15536298 74 18341895143385940270
16945 1 18410856581215021735
17349148 13 18040996275589032925
17492 89 18410855425954072659
18186145 218 18199474263794349557
18681886 176 18412823621272550584
19591789 44 18411699910854536315
200 152 18060135444497621417
20510252 161 18343023289624105937
20715895 44 17975967666531505165
21267235 1 18410301332064388478
21501502 16 18410569552761227355
221490 88 18338525144441963034
23227448 37 18412543231967517566
2334 1 18410855426222084585
23366157 5 18042127553217482018
23402539 116 18412256259770284599
23557571 272 18271816760414417198
23559900 14 18198902509696359950
2748010 2 18337397015731527767
3004659 81 18262246509235160174
335352 9 18338516314416243390
34934 24 18409443674413597715
350125 39 18410858797328560217
3545911 37 18410576158415777261
4214541 1 18410573976609262144
474 4 17749114426096680884
4990 188 18060146414324078756
5104073 3 18410292488821321690
58051976 378 18341328890449882581
633830 44 17985547754251273061
69090 78 18411416202473674231
7097593 13 17609199174470085786
7364860 26 18269275656204810006
77779 3 18411138021890035788
9709674 26 18411987948620877366

>  <PUBCHEM_SHAPE_MULTIPOLES>  (1) 
413.46
9.34
2.74
0.62
2.35
0.38
0
-2.18
0
-1.21
0
-0.01
0
0

>  <PUBCHEM_SHAPE_SELFOVERLAP>  (1) 
938.61

>  <PUBCHEM_SHAPE_VOLUME>  (1) 
204.2

>  <PUBCHEM_COORDINATE_TYPE>  (1) 
2
5
10

$$$$
