4427
     RDKit          3D

 21 21  0  0  1  0  0  0  0  0999 V2000
    0.3991    3.9132    0.1372 Cl  0  0  0  0  0  0  0  0  0  0  0  0
    0.6158   -2.1487    0.0089 S   0  0  0  0  0  0  0  0  0  0  0  0
    0.3945   -2.6480   -1.3348 O   0  0  0  0  0  0  0  0  0  0  0  0
    0.7888   -3.0743    1.1120 O   0  0  0  0  0  0  0  0  0  0  0  0
   -0.2293    1.3778    1.4669 O   0  0  0  0  0  0  0  0  0  0  0  0
   -0.6093   -1.0404    0.4079 N   0  0  0  0  0  0  0  0  0  0  0  0
   -7.2463   -0.1599    0.0217 N   0  0  0  0  0  0  0  0  0  0  0  0
   -0.8776    0.1140   -0.4785 C   0  0  0  0  0  0  0  0  0  0  0  0
   -2.3162    0.0546   -1.0006 C   0  0  0  0  0  0  0  0  0  0  0  0
   -3.3848    0.0805    0.1014 C   0  0  0  0  0  0  0  0  0  0  0  0
   -4.8160   -0.0289   -0.4414 C   0  0  0  0  0  0  0  0  0  0  0  0
   -0.5741    1.3946    0.2850 C   0  0  0  0  0  0  0  0  0  0  0  0
   -5.9196   -0.0671    0.6180 C   0  0  0  0  0  0  0  0  0  0  0  0
    2.0475   -1.1123   -0.0235 C   0  0  0  0  0  0  0  0  0  0  0  0
   -0.6988    2.6813   -0.5054 C   0  0  0  0  0  0  0  0  0  0  0  0
    2.4099   -0.4982   -1.2098 C   0  0  0  0  0  0  0  0  0  0  0  0
    2.7796   -0.9344    1.1375 C   0  0  0  0  0  0  0  0  0  0  0  0
    4.2895    0.5101   -0.0751 C   0  0  0  0  0  0  0  0  0  0  0  0
    3.5397    0.3194   -1.2358 C   0  0  0  0  0  0  0  0  0  0  0  0
    3.9095   -0.1167    1.1116 C   0  0  0  0  0  0  0  0  0  0  0  0
    5.4982    1.3832   -0.1032 C   0  0  0  0  0  0  0  0  0  0  0  0
  1 15  1  0
  2  3  2  0
  2  4  2  0
  2  6  1  0
  2 14  1  0
  5 12  2  0
  6  8  1  0
  7 13  1  0
  8  9  1  0
  8 12  1  0
  9 10  1  0
 10 11  1  0
 11 13  1  0
 12 15  1  0
 14 16  2  0
 14 17  1  0
 16 19  1  0
 17 20  2  0
 18 19  2  0
 18 20  1  0
 18 21  1  0
M  END
>  <PUBCHEM_COMPOUND_CID>  (1) 
4427

>  <PUBCHEM_CONFORMER_RMSD>  (1) 
1

>  <PUBCHEM_CONFORMER_DIVERSEORDER>  (1) 
2
379
298
203
205
217
571
149
46
260
377
154
27
307
7
10
224
227
73
364
290
349
145
122
25
33
294
26
230
78
532
577
565
3
226
604
98
66
234
282
561
549
179
388
399
248
228
336
9
477
12
146
1
139
142
207
347
342
198
89
521
563
85
465
422
527
4
5
187
316
67
241
18
144
520
22
126
102
269
84
220
54
14
136
463
61
130
13
148
63
447
263
474
292
44
24
71
65
110
111
361
462
132
231
499
171
165
31
151
215
45
238
81
20
305
464
557
70
398
340
40
233
423
36
517
191
115
34
405
522
516
543
515

>  <PUBCHEM_MMFF94_PARTIAL_CHARGES>  (1) 
25
1 -0.29
12 0.45
13 0.27
14 -0.01
15 0.35
16 -0.15
17 -0.15
18 -0.14
19 -0.15
2 1.45
20 -0.15
21 0.14
29 0.42
3 -0.65
34 0.15
35 0.15
36 0.36
37 0.36
38 0.15
39 0.15
4 -0.65
5 -0.57
6 -0.91
7 -0.99
8 0.42

>  <PUBCHEM_EFFECTIVE_ROTOR_COUNT>  (1) 
9

>  <PUBCHEM_PHARMACOPHORE_FEATURES>  (1) 
7
1 3 acceptor
1 4 acceptor
1 5 acceptor
1 6 donor
1 7 cation
1 7 donor
6 14 16 17 18 19 20 rings

>  <PUBCHEM_HEAVY_ATOM_COUNT>  (1) 
21

>  <PUBCHEM_ATOM_DEF_STEREO_COUNT>  (1) 
0

>  <PUBCHEM_ATOM_UDEF_STEREO_COUNT>  (1) 
1

>  <PUBCHEM_BOND_DEF_STEREO_COUNT>  (1) 
0

>  <PUBCHEM_BOND_UDEF_STEREO_COUNT>  (1) 
0

>  <PUBCHEM_ISOTOPIC_ATOM_COUNT>  (1) 
0

>  <PUBCHEM_COMPONENT_COUNT>  (1) 
1

>  <PUBCHEM_CACTVS_TAUTO_COUNT>  (1) 
3

>  <PUBCHEM_CONFORMER_ID>  (1) 
0000114B00000002

>  <PUBCHEM_MMFF94_ENERGY>  (1) 
19.8675

>  <PUBCHEM_FEATURE_SELFOVERLAP>  (1) 
35.539

>  <PUBCHEM_SHAPE_FINGERPRINT>  (1) 
10090160 65 18113611274962784539
10498660 4 18339362946780568076
1100329 8 18266178516110524364
12035758 1 18263364848933691905
12553582 1 18341039753694361311
13140716 1 18266175226772009747
13533116 47 17677044651652977226
13899415 154 18411991281784420369
14170010 4 18342738546736581961
14787075 74 18186798106260466587
14790565 3 18411987974401613809
14955137 171 18131358539733677015
15664445 248 18270977772807783444
15927050 60 17764029468446487301
1601671 61 18343581841652322135
17492 54 18263661695862462396
17492 89 18046337531284073107
18785283 64 18117847813956271477
20691752 17 18120906611911517904
20715895 44 17391894973675011957
21524375 3 18341330003447948154
23402539 116 18272363222394642654
23558518 356 17758961424369492273
4340502 62 16732980946513108874
44154327 71 18410574002774419142
537710 114 18334577944863519444
5486654 2 18335707164848588702
70251023 43 17982745073321759943
7495541 125 18041002894824654723

>  <PUBCHEM_SHAPE_MULTIPOLES>  (1) 
410.32
11.23
3.1
1.18
16.09
1.66
0.01
0.78
-0.59
-1.2
-0.21
-0.59
-0.26
-0.2

>  <PUBCHEM_SHAPE_SELFOVERLAP>  (1) 
799.722

>  <PUBCHEM_SHAPE_VOLUME>  (1) 
248.7

>  <PUBCHEM_COORDINATE_TYPE>  (1) 
2
5
10

$$$$
