44278
     RDKit          3D

 21 23  0  0  0  0  0  0  0  0999 V2000
    5.8128    0.3171   -0.1564 N   0  0  0  0  0  0  0  0  0  0  0  0
   -3.0038    0.2220   -0.1230 C   0  0  0  0  0  0  0  0  0  0  0  0
   -2.0721   -0.8112   -0.3147 C   0  0  0  0  0  0  0  0  0  0  0  0
   -4.3727   -0.1008    0.0350 C   0  0  0  0  0  0  0  0  0  0  0  0
    1.7110   -0.3243    0.3397 C   0  0  0  0  0  0  0  0  0  0  0  0
    4.4290    0.0999    0.0104 C   0  0  0  0  0  0  0  0  0  0  0  0
   -0.6411   -0.5684   -0.4862 C   0  0  0  0  0  0  0  0  0  0  0  0
   -2.4843   -2.1438   -0.3506 C   0  0  0  0  0  0  0  0  0  0  0  0
   -2.6069    1.5684   -0.0842 C   0  0  0  0  0  0  0  0  0  0  0  0
   -4.7696   -1.4474   -0.0036 C   0  0  0  0  0  0  0  0  0  0  0  0
    0.2652   -0.5498    0.5142 C   0  0  0  0  0  0  0  0  0  0  0  0
   -5.3043    0.9325    0.2269 C   0  0  0  0  0  0  0  0  0  0  0  0
   -3.8303   -2.4611   -0.1952 C   0  0  0  0  0  0  0  0  0  0  0  0
    2.1668    0.2886   -0.8162 C   0  0  0  0  0  0  0  0  0  0  0  0
    2.5860   -0.7292    1.3345 C   0  0  0  0  0  0  0  0  0  0  0  0
    3.5352    0.5020   -0.9821 C   0  0  0  0  0  0  0  0  0  0  0  0
    3.9545   -0.5156    1.1687 C   0  0  0  0  0  0  0  0  0  0  0  0
   -3.5461    2.5822    0.1073 C   0  0  0  0  0  0  0  0  0  0  0  0
   -4.8923    2.2649    0.2626 C   0  0  0  0  0  0  0  0  0  0  0  0
    6.3994    0.3283   -1.4816 C   0  0  0  0  0  0  0  0  0  0  0  0
    6.6635    0.5457    0.9946 C   0  0  0  0  0  0  0  0  0  0  0  0
  1  6  1  0
  1 20  1  0
  1 21  1  0
  2  3  1  0
  2  4  2  0
  2  9  1  0
  3  7  1  0
  3  8  2  0
  4 10  1  0
  4 12  1  0
  5 11  1  0
  5 14  2  0
  5 15  1  0
  6 16  2  0
  6 17  1  0
  7 11  2  0
  8 13  1  0
  9 18  2  0
 10 13  2  0
 12 19  2  0
 14 16  1  0
 15 17  2  0
 18 19  1  0
M  END
>  <PUBCHEM_COMPOUND_CID>  (1) 
44278

>  <PUBCHEM_CONFORMER_RMSD>  (1) 
0.6

>  <PUBCHEM_CONFORMER_DIVERSEORDER>  (1) 
1
3
6
4
2
5

>  <PUBCHEM_MMFF94_PARTIAL_CHARGES>  (1) 
32
1 -0.84
10 -0.15
11 -0.18
12 -0.15
13 -0.15
14 -0.15
15 -0.15
16 -0.15
17 -0.15
18 -0.15
19 -0.15
20 0.37
21 0.37
22 0.15
23 0.15
24 0.15
25 0.15
26 0.15
27 0.15
28 0.15
29 0.15
3 0.03
30 0.15
31 0.15
32 0.15
33 0.15
34 0.15
5 0.03
6 0.1
7 -0.18
8 -0.15
9 -0.15

>  <PUBCHEM_EFFECTIVE_ROTOR_COUNT>  (1) 
3

>  <PUBCHEM_PHARMACOPHORE_FEATURES>  (1) 
4
1 1 cation
6 2 3 4 8 10 13 rings
6 2 4 9 12 18 19 rings
6 5 6 14 15 16 17 rings

>  <PUBCHEM_HEAVY_ATOM_COUNT>  (1) 
21

>  <PUBCHEM_ATOM_DEF_STEREO_COUNT>  (1) 
0

>  <PUBCHEM_ATOM_UDEF_STEREO_COUNT>  (1) 
0

>  <PUBCHEM_BOND_DEF_STEREO_COUNT>  (1) 
0

>  <PUBCHEM_BOND_UDEF_STEREO_COUNT>  (1) 
1

>  <PUBCHEM_ISOTOPIC_ATOM_COUNT>  (1) 
0

>  <PUBCHEM_COMPONENT_COUNT>  (1) 
1

>  <PUBCHEM_CACTVS_TAUTO_COUNT>  (1) 
1

>  <PUBCHEM_CONFORMER_ID>  (1) 
0000ACF600000001

>  <PUBCHEM_MMFF94_ENERGY>  (1) 
85.6192

>  <PUBCHEM_FEATURE_SELFOVERLAP>  (1) 
20.324

>  <PUBCHEM_SHAPE_FINGERPRINT>  (1) 
10411042 1 18051692441840091839
10595046 47 18334857268478333102
10730089 173 18411421695752955904
10912923 1 17967244304474282274
11056379 131 18341050817478089191
11273773 42 17678194865643976468
11315181 36 18114179782476825207
11545043 162 17988924508978781706
11796584 16 18060140917125357142
12107183 9 17757823438308803362
12236239 1 18113336414451474322
12390115 104 18058740083413386817
12403259 415 17704066326473143738
12596602 18 17458067040935498481
12616971 3 17313107457978138916
13073987 5 18408600353649023666
13403585 85 18343015627223160056
13631057 29 17604715615645356747
13897977 58 18335421262087558885
14341114 328 18113334184983626864
14386348 63 17203612600815443286
14849402 71 17896605171201016572
14933364 13 18343022207693280120
15183329 4 18340494374626545926
15778101 99 18341335500700015025
16079462 125 17417801864590873664
16988056 13 15452257295778562301
17844677 252 18342178916339102376
18927931 339 18342177812749084191
19377110 9 17821717334952176848
19489759 90 18342457058041370027
20281389 69 18410853240036576720
20511986 3 17968082097685083425
20645477 56 18343019969767178201
21033648 29 17346021334155170794
21033650 10 18193019074568167436
21065198 48 18259979353652478915
21267235 1 18337397157782342731
21623969 137 14851604363048839456
21641784 216 15574717942206358398
21792961 116 17561373864111089822
22061861 79 16845579699479222756
2297311 6 18272376403401321375
23081809 10 17967249815333976106
23198884 109 17346885520367085401
23402539 116 18408600391992246030
23522609 53 17677635123852023884
23536379 177 18411418406567552066
23557571 272 18202289108055907548
23559900 14 18129951070086939758
23569943 247 16951951866146801698
2916195 48 18201148949459068152
300161 21 18260822691918740610
34797466 226 17917439782548774596
3545911 37 18272091578043982847
4073 2 18187932802745940290
4214541 1 18411418414508542669
441001 317 18413670210053751361
445580 37 18411429414389468316
5104073 3 18261669294545160994
542803 24 18186521012181753930
5758199 1 17749108920544634848
6327066 14 18190454949381736301
67856867 119 18189054359902724412
7808743 9 18338797814936196593
9849439 229 17836934391393266225

>  <PUBCHEM_SHAPE_MULTIPOLES>  (1) 
427.19
16.07
2.1
1.05
17.69
0.22
0.01
3.91
-0.13
-4.69
-0.01
1.66
-0.02
-0.78

>  <PUBCHEM_SHAPE_SELFOVERLAP>  (1) 
932.527

>  <PUBCHEM_SHAPE_VOLUME>  (1) 
232.2

>  <PUBCHEM_COORDINATE_TYPE>  (1) 
2
5
10

$$$$
