44280
     RDKit          3D

 21 25  0  0  1  0  0  0  0  0999 V2000
   -1.2308    0.5422    1.7916 O   0  0  0  0  0  0  0  0  0  0  0  0
   -0.6215   -0.6499    1.1556 C   0  0  0  0  0  0  0  0  0  0  0  0
   -1.4379    1.3732    0.5990 C   0  0  0  0  0  0  0  0  0  0  0  0
    0.5227    0.0776    0.4713 C   0  0  0  0  0  0  0  0  0  0  0  0
   -0.0036    1.3553    0.1363 C   0  0  0  0  0  0  0  0  0  0  0  0
   -1.7366   -0.9021    0.1693 C   0  0  0  0  0  0  0  0  0  0  0  0
   -2.2477    0.3695   -0.1806 C   0  0  0  0  0  0  0  0  0  0  0  0
   -0.3768   -1.6901    2.2256 C   0  0  0  0  0  0  0  0  0  0  0  0
   -2.0738    2.6947    0.9607 C   0  0  0  0  0  0  0  0  0  0  0  0
    1.8310   -0.2752    0.1253 C   0  0  0  0  0  0  0  0  0  0  0  0
    0.7455    2.3098   -0.5126 C   0  0  0  0  0  0  0  0  0  0  0  0
   -2.2429   -2.0585   -0.3835 C   0  0  0  0  0  0  0  0  0  0  0  0
   -3.2753    0.5075   -1.0884 C   0  0  0  0  0  0  0  0  0  0  0  0
    2.6106    0.7129   -0.5373 C   0  0  0  0  0  0  0  0  0  0  0  0
    2.0604    1.9816   -0.8393 C   0  0  0  0  0  0  0  0  0  0  0  0
   -3.2889   -1.9279   -1.3008 C   0  0  0  0  0  0  0  0  0  0  0  0
   -3.7989   -0.6607   -1.6489 C   0  0  0  0  0  0  0  0  0  0  0  0
    2.4119   -1.5343    0.3784 C   0  0  0  0  0  0  0  0  0  0  0  0
    3.9339    0.4155   -0.8997 C   0  0  0  0  0  0  0  0  0  0  0  0
    3.7289   -1.8075    0.0063 C   0  0  0  0  0  0  0  0  0  0  0  0
    4.4897   -0.8337   -0.6285 C   0  0  0  0  0  0  0  0  0  0  0  0
  1  2  1  0
  1  3  1  0
  2  4  1  0
  2  6  1  0
  2  8  1  0
  3  5  1  0
  3  7  1  0
  3  9  1  0
  4  5  2  0
  4 10  1  0
  5 11  1  0
  6  7  2  0
  6 12  1  0
  7 13  1  0
 10 14  2  0
 10 18  1  0
 11 15  2  0
 12 16  2  0
 13 17  2  0
 14 15  1  0
 14 19  1  0
 16 17  1  0
 18 20  2  0
 19 21  2  0
 20 21  1  0
M  END
>  <PUBCHEM_COMPOUND_CID>  (1) 
44280

>  <PUBCHEM_CONFORMER_RMSD>  (1) 
0.6

>  <PUBCHEM_CONFORMER_DIVERSEORDER>  (1) 
1
2

>  <PUBCHEM_MMFF94_PARTIAL_CHARGES>  (1) 
27
1 -0.56
11 -0.15
12 -0.15
13 -0.15
15 -0.15
16 -0.15
17 -0.15
18 -0.15
19 -0.15
2 0.57
20 -0.15
21 -0.15
28 0.15
29 0.15
3 0.57
30 0.15
31 0.15
32 0.15
33 0.15
34 0.15
35 0.15
36 0.15
37 0.15
4 -0.14
5 -0.14
6 -0.14
7 -0.14

>  <PUBCHEM_EFFECTIVE_ROTOR_COUNT>  (1) 
0.2

>  <PUBCHEM_PHARMACOPHORE_FEATURES>  (1) 
5
1 1 acceptor
6 10 14 18 19 20 21 rings
6 4 5 10 11 14 15 rings
6 6 7 12 13 16 17 rings
7 1 2 3 4 5 6 7 rings

>  <PUBCHEM_HEAVY_ATOM_COUNT>  (1) 
21

>  <PUBCHEM_ATOM_DEF_STEREO_COUNT>  (1) 
0

>  <PUBCHEM_ATOM_UDEF_STEREO_COUNT>  (1) 
2

>  <PUBCHEM_BOND_DEF_STEREO_COUNT>  (1) 
0

>  <PUBCHEM_BOND_UDEF_STEREO_COUNT>  (1) 
0

>  <PUBCHEM_ISOTOPIC_ATOM_COUNT>  (1) 
0

>  <PUBCHEM_COMPONENT_COUNT>  (1) 
1

>  <PUBCHEM_CACTVS_TAUTO_COUNT>  (1) 
1

>  <PUBCHEM_CONFORMER_ID>  (1) 
0000ACF800000001

>  <PUBCHEM_MMFF94_ENERGY>  (1) 
99.9405

>  <PUBCHEM_FEATURE_SELFOVERLAP>  (1) 
25.437

>  <PUBCHEM_SHAPE_FINGERPRINT>  (1) 
10062212 137 18338797797455231282
10756046 5 18336539503782986973
10764073 3 17681594413715179651
10863032 1 18338512062050272325
11578080 2 17417804084651590593
12035759 4 18118107096530495271
12363563 72 16343698876316445943
12553582 1 18342183296862969666
12714826 92 17060618893251572599
12788726 201 17988656172507671561
13583140 156 14851615405431115768
13693222 15 13758075169180458862
13911987 19 17400371538041429420
15163728 17 13769035028177486959
16752209 62 18129648708831824879
16945 1 18413103983119417649
17349148 13 18187918517499564600
18186145 218 17676759950817937207
18981168 100 15575294201455852996
192875 21 18334283263226350994
19862831 5 18259697900097649262
200 152 18342174488080003726
20626108 58 17058354015558150167
20775438 99 16832860785140655959
21069387 34 18412268332949701422
21452121 199 17914876854649720847
21634736 98 18410290354380765574
22112679 90 17973703801789942043
22802520 49 17897441933375715501
22907989 373 16952555712045435399
23114952 82 17897724503163353653
23379529 103 18129387166609139734
23402539 116 18189054205668523010
23419403 2 17472640032464274080
23557571 272 18128795581970631265
23559900 14 18131057247741251392
25 1 17386279900808552203
2748010 2 17108484203452781408
3323516 105 18115865381442757695
427121 178 11820109968939639037
4280585 95 17553218605916979230
463206 1 17983005940807988687
5262128 65 18411990182103604558
90525 40 18270405966720993919
9981440 41 17761486289651716576

>  <PUBCHEM_SHAPE_MULTIPOLES>  (1) 
426.3
6.77
2.56
1.51
3.66
0.68
0.43
-2.46
-3.55
-0.47
0.18
-0.98
-0.36
-1.1

>  <PUBCHEM_SHAPE_SELFOVERLAP>  (1) 
990.021

>  <PUBCHEM_SHAPE_VOLUME>  (1) 
224.1

>  <PUBCHEM_COORDINATE_TYPE>  (1) 
2
5
10

$$$$
