44281
     RDKit          3D

 22 25  0  0  0  0  0  0  0  0999 V2000
   -2.5211   -2.1646   -0.3431 O   0  0  0  0  0  0  0  0  0  0  0  0
    0.1607   -0.5334    0.3699 C   0  0  0  0  0  0  0  0  0  0  0  0
    1.0111    0.5462    0.0265 C   0  0  0  0  0  0  0  0  0  0  0  0
   -1.2283   -0.3452    0.4783 C   0  0  0  0  0  0  0  0  0  0  0  0
   -1.8221    0.9040    0.2534 C   0  0  0  0  0  0  0  0  0  0  0  0
    2.4302    0.3176   -0.0758 C   0  0  0  0  0  0  0  0  0  0  0  0
   -1.0026    1.9946   -0.0891 C   0  0  0  0  0  0  0  0  0  0  0  0
    0.3879    1.8008   -0.1962 C   0  0  0  0  0  0  0  0  0  0  0  0
    2.9419   -0.9833    0.1699 C   0  0  0  0  0  0  0  0  0  0  0  0
   -2.1110   -1.5098    0.8452 C   0  0  0  0  0  0  0  0  0  0  0  0
    0.7019   -1.8002    0.6045 C   0  0  0  0  0  0  0  0  0  0  0  0
    2.0713   -2.0221    0.5061 C   0  0  0  0  0  0  0  0  0  0  0  0
   -3.2109    1.0905    0.3621 C   0  0  0  0  0  0  0  0  0  0  0  0
   -1.5923    3.2502   -0.3159 C   0  0  0  0  0  0  0  0  0  0  0  0
    3.3763    1.3186   -0.4116 C   0  0  0  0  0  0  0  0  0  0  0  0
    4.3207   -1.2397    0.0784 C   0  0  0  0  0  0  0  0  0  0  0  0
   -3.7812    2.3426    0.1340 C   0  0  0  0  0  0  0  0  0  0  0  0
   -2.9723    3.4221   -0.2049 C   0  0  0  0  0  0  0  0  0  0  0  0
    4.7452    1.0504   -0.4993 C   0  0  0  0  0  0  0  0  0  0  0  0
    5.2175   -0.2293   -0.2541 C   0  0  0  0  0  0  0  0  0  0  0  0
   -3.3611   -3.2789   -0.0661 C   0  0  0  0  0  0  0  0  0  0  0  0
   -3.7618   -3.9310   -1.3723 C   0  0  0  0  0  0  0  0  0  0  0  0
  1 10  1  0
  1 21  1  0
  2  3  1  0
  2  4  2  0
  2 11  1  0
  3  6  1  0
  3  8  2  0
  4  5  1  0
  4 10  1  0
  5  7  2  0
  5 13  1  0
  6  9  2  0
  6 15  1  0
  7  8  1  0
  7 14  1  0
  9 12  1  0
  9 16  1  0
 11 12  2  0
 13 17  2  0
 14 18  2  0
 15 19  2  0
 16 20  2  0
 17 18  1  0
 19 20  1  0
 21 22  1  0
M  END
>  <PUBCHEM_COMPOUND_CID>  (1) 
44281

>  <PUBCHEM_CONFORMER_RMSD>  (1) 
0.6

>  <PUBCHEM_CONFORMER_DIVERSEORDER>  (1) 
1
5
6
4
2
3

>  <PUBCHEM_MMFF94_PARTIAL_CHARGES>  (1) 
26
1 -0.56
10 0.42
11 -0.15
12 -0.15
13 -0.15
14 -0.15
15 -0.15
16 -0.15
17 -0.15
18 -0.15
19 -0.15
20 -0.15
21 0.28
23 0.15
26 0.15
27 0.15
28 0.15
29 0.15
30 0.15
31 0.15
32 0.15
33 0.15
34 0.15
35 0.15
4 -0.14
8 -0.15

>  <PUBCHEM_EFFECTIVE_ROTOR_COUNT>  (1) 
3

>  <PUBCHEM_PHARMACOPHORE_FEATURES>  (1) 
5
1 1 acceptor
6 2 3 4 5 7 8 rings
6 2 3 6 9 11 12 rings
6 5 7 13 14 17 18 rings
6 6 9 15 16 19 20 rings

>  <PUBCHEM_HEAVY_ATOM_COUNT>  (1) 
22

>  <PUBCHEM_ATOM_DEF_STEREO_COUNT>  (1) 
0

>  <PUBCHEM_ATOM_UDEF_STEREO_COUNT>  (1) 
0

>  <PUBCHEM_BOND_DEF_STEREO_COUNT>  (1) 
0

>  <PUBCHEM_BOND_UDEF_STEREO_COUNT>  (1) 
0

>  <PUBCHEM_ISOTOPIC_ATOM_COUNT>  (1) 
0

>  <PUBCHEM_COMPONENT_COUNT>  (1) 
1

>  <PUBCHEM_CACTVS_TAUTO_COUNT>  (1) 
1

>  <PUBCHEM_CONFORMER_ID>  (1) 
0000ACF900000001

>  <PUBCHEM_MMFF94_ENERGY>  (1) 
80.5344

>  <PUBCHEM_FEATURE_SELFOVERLAP>  (1) 
25.446

>  <PUBCHEM_SHAPE_FINGERPRINT>  (1) 
10319926 262 18268408223804430090
10369192 42 16553943242458174736
10411042 1 18121784090984384659
10616163 171 18410015420586706750
10967382 1 18118687621537850528
11045515 52 18117552049570327471
11265709 11 18267305528994418147
11578080 2 17702933859271350753
12403259 226 18270115841991606560
12553582 1 18192991745528233115
12788726 201 18335129942698302875
13004483 165 18269262642243127415
13140716 1 18264223567531224657
13540713 5 18187078430613158034
13583140 156 17775273976848670442
138480 1 16608289387451526835
14178342 30 18264467556154500450
14508225 48 18195238034998480781
14790565 3 18051136895529470313
15042514 8 18409175415578589403
15131766 46 15577003938016501646
15196674 1 18190464852879598424
16087824 20 18410012118938504517
16945 1 18264202526322482248
17492 89 18409451375813043498
17539 30 18341042004304814031
19591789 44 18120375354664133721
21267235 1 18190755136765440608
21307412 95 17626968382604109294
21478907 32 18338796848774055755
221490 88 17398672792734777211
23227448 37 18410294670749194380
23402539 116 18339360889338161366
23557571 272 18271816726096844230
23558518 356 18186809105808537056
23559900 14 18269556032139202834
238 59 16814291802803818965
25147074 1 18041274388424327442
283562 15 18336263565055992066
335352 9 18046630006394176006
34934 24 18260830337023805272
350125 39 18408895039686634929
474 4 17386304107661327700
5104073 3 18116439137539301368
633830 44 17623850128450595829
69090 78 18190744137190873073
7164475 11 18410574032765649118
7471813 234 18123183769117199631
9709674 26 18340493240348900414

>  <PUBCHEM_SHAPE_MULTIPOLES>  (1) 
446.88
8.75
4.4
0.82
7.57
1.44
0.08
1.11
1.43
-7.3
1.14
-0.32
0.42
-1.24

>  <PUBCHEM_SHAPE_SELFOVERLAP>  (1) 
1003.223

>  <PUBCHEM_SHAPE_VOLUME>  (1) 
238.8

>  <PUBCHEM_COORDINATE_TYPE>  (1) 
2
5
10

$$$$
