44282
     RDKit          3D

 25 28  0  0  0  0  0  0  0  0999 V2000
   -3.3769    0.6095   -0.0253 C   0  0  0  0  0  0  0  0  0  0  0  0
   -2.5105    1.2960    1.0427 C   0  0  0  0  0  0  0  0  0  0  0  0
   -4.6228   -0.0625    0.5600 C   0  0  0  0  0  0  0  0  0  0  0  0
   -1.3204    2.0216    0.4944 C   0  0  0  0  0  0  0  0  0  0  0  0
   -5.4402   -0.7594   -0.5299 C   0  0  0  0  0  0  0  0  0  0  0  0
   -0.0748    1.3921    0.3283 C   0  0  0  0  0  0  0  0  0  0  0  0
    1.0068    2.1255   -0.1918 C   0  0  0  0  0  0  0  0  0  0  0  0
   -6.6669   -1.4594    0.0573 C   0  0  0  0  0  0  0  0  0  0  0  0
    2.4729    0.1288   -0.0184 C   0  0  0  0  0  0  0  0  0  0  0  0
    1.3655   -0.5842    0.5030 C   0  0  0  0  0  0  0  0  0  0  0  0
    0.1202    0.0468    0.6685 C   0  0  0  0  0  0  0  0  0  0  0  0
    2.2520    1.4888   -0.3556 C   0  0  0  0  0  0  0  0  0  0  0  0
   -1.4926    3.3619    0.1492 C   0  0  0  0  0  0  0  0  0  0  0  0
    3.7347   -0.5493   -0.1748 C   0  0  0  0  0  0  0  0  0  0  0  0
   -7.4652   -2.1840   -1.0261 C   0  0  0  0  0  0  0  0  0  0  0  0
    0.8176    3.4755   -0.5350 C   0  0  0  0  0  0  0  0  0  0  0  0
    3.8381   -1.9151    0.1973 C   0  0  0  0  0  0  0  0  0  0  0  0
   -0.4241    4.0886   -0.3652 C   0  0  0  0  0  0  0  0  0  0  0  0
    1.5062   -1.9285    0.8581 C   0  0  0  0  0  0  0  0  0  0  0  0
    2.7235   -2.5841    0.7077 C   0  0  0  0  0  0  0  0  0  0  0  0
    4.9090    0.0600   -0.6845 C   0  0  0  0  0  0  0  0  0  0  0  0
   -8.7036   -2.8534   -0.4516 C   0  0  0  0  0  0  0  0  0  0  0  0
    5.0541   -2.6056    0.0576 C   0  0  0  0  0  0  0  0  0  0  0  0
    6.1125   -0.6380   -0.8186 C   0  0  0  0  0  0  0  0  0  0  0  0
    6.1849   -1.9715   -0.4473 C   0  0  0  0  0  0  0  0  0  0  0  0
  1  2  1  0
  1  3  1  0
  2  4  1  0
  3  5  1  0
  4  6  2  0
  4 13  1  0
  5  8  1  0
  6  7  1  0
  6 11  1  0
  7 12  1  0
  7 16  2  0
  8 15  1  0
  9 10  1  0
  9 12  2  0
  9 14  1  0
 10 11  2  0
 10 19  1  0
 13 18  2  0
 14 17  2  0
 14 21  1  0
 15 22  1  0
 16 18  1  0
 17 20  1  0
 17 23  1  0
 19 20  2  0
 21 24  2  0
 23 25  2  0
 24 25  1  0
M  END
>  <PUBCHEM_COMPOUND_CID>  (1) 
44282

>  <PUBCHEM_CONFORMER_RMSD>  (1) 
0.8

>  <PUBCHEM_CONFORMER_DIVERSEORDER>  (1) 
1
27
21
33
4
14
32
3
24
8
25
26
34
16
22
18
28
2
12
19
30
20
15
7
29
9
13
31
17
5
23
10
11
6

>  <PUBCHEM_MMFF94_PARTIAL_CHARGES>  (1) 
24
11 -0.15
12 -0.15
13 -0.15
16 -0.15
18 -0.15
19 -0.15
2 0.14
20 -0.15
21 -0.15
23 -0.15
24 -0.15
25 -0.15
36 0.15
37 0.15
38 0.15
4 -0.14
41 0.15
42 0.15
43 0.15
44 0.15
45 0.15
49 0.15
50 0.15
51 0.15

>  <PUBCHEM_EFFECTIVE_ROTOR_COUNT>  (1) 
6

>  <PUBCHEM_PHARMACOPHORE_FEATURES>  (1) 
7
1 22 hydrophobe
3 1 2 3 hydrophobe
3 5 8 15 hydrophobe
6 14 17 21 23 24 25 rings
6 4 6 7 13 16 18 rings
6 6 7 9 10 11 12 rings
6 9 10 14 17 19 20 rings

>  <PUBCHEM_HEAVY_ATOM_COUNT>  (1) 
25

>  <PUBCHEM_ATOM_DEF_STEREO_COUNT>  (1) 
0

>  <PUBCHEM_ATOM_UDEF_STEREO_COUNT>  (1) 
0

>  <PUBCHEM_BOND_DEF_STEREO_COUNT>  (1) 
0

>  <PUBCHEM_BOND_UDEF_STEREO_COUNT>  (1) 
0

>  <PUBCHEM_ISOTOPIC_ATOM_COUNT>  (1) 
0

>  <PUBCHEM_COMPONENT_COUNT>  (1) 
1

>  <PUBCHEM_CACTVS_TAUTO_COUNT>  (1) 
1

>  <PUBCHEM_CONFORMER_ID>  (1) 
0000ACFA00000001

>  <PUBCHEM_MMFF94_ENERGY>  (1) 
67.7651

>  <PUBCHEM_FEATURE_SELFOVERLAP>  (1) 
35.608

>  <PUBCHEM_SHAPE_FINGERPRINT>  (1) 
10411042 1 18411136922310044117
10622 236 17826778262178919203
10693767 8 18411134770758327663
11497681 19 18272094842947518222
11607047 403 18197197339287127472
12166972 35 18186522120478482807
12403260 363 18042976368205148368
12592606 108 18343017818843618583
12623949 98 17775294824219298102
13009979 54 18131637781596822353
13248334 5 18051975011443022105
13533116 47 18268428126630215601
13617811 41 18261677090555154076
13631057 29 18339644438910273912
13690498 29 18260259738677765341
13862211 1 18335704897570151618
13989917 61 18193276523778159139
14068700 675 18273216396130932729
14576447 43 18409167692657717872
14767858 380 18260562121175477700
14931854 50 18040712550725335667
15196674 1 17901115127415985376
15250474 111 17828479172412409930
16991971 28 18341902908703142863
17134984 74 17894906369495118579
17349148 13 17532388465401879456
17492 89 18049442548411552738
20028762 73 18343585118354374598
20775438 99 17906996724055894115
21033648 29 12181003937972405308
21130935 74 18054223229923635922
21267235 1 18341617027411459983
21315759 148 16773238366916702350
21344244 246 18262804093714274932
221357 26 18260824921771638815
23522609 53 18054262935704219561
23559900 14 18263361559489714425
23622692 118 18413109455361628169
255183 451 18410571830011662581
3004659 81 18260823817896511043
439807 62 18408323311685243263
46194498 28 17532082968646839149
465052 167 18201720673904113663
474113 269 16299213633154387682
5028188 123 17987816115891387796
57527295 17 17676759869783492153
6058803 2 17755591443280396432
636775 72 8140639476843755558
7970288 3 18412260619305164247
9709674 26 17828221900066769058

>  <PUBCHEM_SHAPE_MULTIPOLES>  (1) 
514.49
17.7
4.47
0.91
32.65
3.2
-0.01
-24.47
5.67
1.56
0.39
0.18
-0.12
-1.55

>  <PUBCHEM_SHAPE_SELFOVERLAP>  (1) 
1123.674

>  <PUBCHEM_SHAPE_VOLUME>  (1) 
263.2

>  <PUBCHEM_COORDINATE_TYPE>  (1) 
2
5
10

$$$$
