44286
     RDKit          3D

 19 22  0  0  0  0  0  0  0  0999 V2000
    2.4965   -2.5002    0.0013 O   0  0  0  0  0  0  0  0  0  0  0  0
    0.3267   -0.4011    0.0000 C   0  0  0  0  0  0  0  0  0  0  0  0
   -0.6039    0.6789    0.0001 C   0  0  0  0  0  0  0  0  0  0  0  0
    1.7493   -0.1482    0.0000 C   0  0  0  0  0  0  0  0  0  0  0  0
   -2.0266    0.4260    0.0002 C   0  0  0  0  0  0  0  0  0  0  0  0
    2.2146    1.1885   -0.0003 C   0  0  0  0  0  0  0  0  0  0  0  0
   -2.4921   -0.9108   -0.0004 C   0  0  0  0  0  0  0  0  0  0  0  0
   -0.0719    1.9843    0.0002 C   0  0  0  0  0  0  0  0  0  0  0  0
   -0.2054   -1.7067   -0.0002 C   0  0  0  0  0  0  0  0  0  0  0  0
    1.2984    2.2350   -0.0002 C   0  0  0  0  0  0  0  0  0  0  0  0
   -1.5758   -1.9573   -0.0006 C   0  0  0  0  0  0  0  0  0  0  0  0
    2.7482   -1.1577    0.0001 C   0  0  0  0  0  0  0  0  0  0  0  0
   -3.0256    1.4356    0.0008 C   0  0  0  0  0  0  0  0  0  0  0  0
    3.5908    1.4771   -0.0003 C   0  0  0  0  0  0  0  0  0  0  0  0
   -3.8683   -1.1992   -0.0006 C   0  0  0  0  0  0  0  0  0  0  0  0
    4.1148   -0.8617    0.0000 C   0  0  0  0  0  0  0  0  0  0  0  0
    4.5365    0.4577   -0.0003 C   0  0  0  0  0  0  0  0  0  0  0  0
   -4.3922    1.1396    0.0005 C   0  0  0  0  0  0  0  0  0  0  0  0
   -4.8140   -0.1799   -0.0002 C   0  0  0  0  0  0  0  0  0  0  0  0
  1 12  1  0
  2  3  1  0
  2  4  2  0
  2  9  1  0
  3  5  1  0
  3  8  2  0
  4  6  1  0
  4 12  1  0
  5  7  2  0
  5 13  1  0
  6 10  2  0
  6 14  1  0
  7 11  1  0
  7 15  1  0
  8 10  1  0
  9 11  2  0
 12 16  2  0
 13 18  2  0
 14 17  2  0
 15 19  2  0
 16 17  1  0
 18 19  1  0
M  END
>  <PUBCHEM_COMPOUND_CID>  (1) 
44286

>  <PUBCHEM_CONFORMER_RMSD>  (1) 
0.4

>  <PUBCHEM_CONFORMER_DIVERSEORDER>  (1) 
1

>  <PUBCHEM_MMFF94_PARTIAL_CHARGES>  (1) 
25
1 -0.53
10 -0.15
11 -0.15
12 0.08
13 -0.15
14 -0.15
15 -0.15
16 -0.15
17 -0.15
18 -0.15
19 -0.15
20 0.15
21 0.15
22 0.15
23 0.15
24 0.15
25 0.15
26 0.15
27 0.15
28 0.15
29 0.15
30 0.15
31 0.45
8 -0.15
9 -0.15

>  <PUBCHEM_EFFECTIVE_ROTOR_COUNT>  (1) 
0

>  <PUBCHEM_PHARMACOPHORE_FEATURES>  (1) 
5
1 1 donor
6 2 3 4 6 8 10 rings
6 2 3 5 7 9 11 rings
6 4 6 12 14 16 17 rings
6 5 7 13 15 18 19 rings

>  <PUBCHEM_HEAVY_ATOM_COUNT>  (1) 
19

>  <PUBCHEM_ATOM_DEF_STEREO_COUNT>  (1) 
0

>  <PUBCHEM_ATOM_UDEF_STEREO_COUNT>  (1) 
0

>  <PUBCHEM_BOND_DEF_STEREO_COUNT>  (1) 
0

>  <PUBCHEM_BOND_UDEF_STEREO_COUNT>  (1) 
0

>  <PUBCHEM_ISOTOPIC_ATOM_COUNT>  (1) 
0

>  <PUBCHEM_COMPONENT_COUNT>  (1) 
1

>  <PUBCHEM_CACTVS_TAUTO_COUNT>  (1) 
3

>  <PUBCHEM_CONFORMER_ID>  (1) 
0000ACFE00000001

>  <PUBCHEM_MMFF94_ENERGY>  (1) 
76.0005

>  <PUBCHEM_FEATURE_SELFOVERLAP>  (1) 
25.441

>  <PUBCHEM_SHAPE_FINGERPRINT>  (1) 
10062212 137 18272364291683204591
10411042 1 17834395618654230550
10608611 8 18410853308386742633
10616163 171 18339364196257302967
10906281 52 18263380186689121224
10967382 1 18410855438732472582
11132069 177 18411414016382923392
11471102 20 18410571803529682412
116883 192 18127136273248882758
12011746 2 18411420604862651764
12107183 9 17764594209627579137
12403259 226 18339355383585746185
13140716 1 18050848020138563496
13221675 6 18409165540821086667
138480 1 17906453225487292130
13862211 1 18410568474803713194
14115302 16 18114754814479147076
14178342 30 17980742046661179602
14790565 3 17903925796601145004
14866123 147 17190952544876602242
15196674 1 18410855468718096389
15442244 35 18339643334723844593
15536298 74 18342175574585338648
1601671 61 18410857659489287364
16945 1 18194683902090632836
17492 89 18412545444187911543
17804303 29 18411421743213887005
1813 80 17168144537678814140
18186145 218 17967526870129936759
19591789 44 18337671893258741415
200 152 18060416937033918421
20510252 161 18272090452900072001
20645477 70 18342740693397362318
21029758 11 18342735226220472881
21267235 1 18410865355991599438
21279426 13 18266459797839950957
21421861 104 17896592887092630210
21452121 103 18200020867941181768
221490 88 18263932205433783659
2334 1 18410855468718109379
23402539 116 18271799125062259621
23463225 33 18410012121824755788
23559900 14 18342174466990327928
2748010 2 18410573967971588622
3004659 81 18260833662209590294
335352 9 18338797810271496692
34934 24 18411694405096885402
350125 39 18410578392632376905
3545911 37 18410857672168298473
4214541 1 18410855456202673989
474 4 17386855087419589020
495365 180 17489010648183775384
5104073 3 18410574002341877291
69090 78 18413105082662661279
7364860 26 18341611581166153400
77779 3 18410294717956768165
7832392 63 18340764943968901454
8809292 202 18261114135562154747
9709674 26 18411143562292800903
9981440 41 17254835798095982400

>  <PUBCHEM_SHAPE_MULTIPOLES>  (1) 
385.14
8.73
2.35
0.61
1.78
0.16
0
-0.16
0
-0.53
0
0.01
-0.01
0

>  <PUBCHEM_SHAPE_SELFOVERLAP>  (1) 
886.501

>  <PUBCHEM_SHAPE_VOLUME>  (1) 
198.6

>  <PUBCHEM_COORDINATE_TYPE>  (1) 
2
5
10

$$$$
