4429
     RDKit          3D

 31 38  0  0  1  0  0  0  0  0999 V2000
   -0.9852    2.5527   -0.4628 O   0  0  0  0  0  0  0  0  0  0  0  0
    0.1641    0.0071    1.5724 O   0  0  0  0  0  0  0  0  0  0  0  0
   -3.3319    0.7749   -0.6164 O   0  0  0  0  0  0  0  0  0  0  0  0
    0.0170    5.0745    0.5484 O   0  0  0  0  0  0  0  0  0  0  0  0
    2.3215   -1.6302   -0.9691 N   0  0  0  0  0  0  0  0  0  0  0  0
    0.4051    0.5593   -0.8384 C   0  0  0  0  0  0  0  0  0  0  0  0
    0.4846   -0.5372    0.2710 C   0  0  0  0  0  0  0  0  0  0  0  0
    1.9819   -0.9837    0.3123 C   0  0  0  0  0  0  0  0  0  0  0  0
   -0.9632    1.2460   -1.0960 C   0  0  0  0  0  0  0  0  0  0  0  0
    0.9671    0.0432   -2.1857 C   0  0  0  0  0  0  0  0  0  0  0  0
    1.1475    1.7081   -0.2718 C   0  0  0  0  0  0  0  0  0  0  0  0
   -0.5967   -1.6229    0.0279 C   0  0  0  0  0  0  0  0  0  0  0  0
    2.9310    0.2383    0.6828 C   0  0  0  0  0  0  0  0  0  0  0  0
    2.3086   -0.6855   -2.0858 C   0  0  0  0  0  0  0  0  0  0  0  0
    2.3628    1.6150    0.3897 C   0  0  0  0  0  0  0  0  0  0  0  0
    3.5737   -2.3787   -0.9183 C   0  0  0  0  0  0  0  0  0  0  0  0
   -2.0427    0.3655   -0.5894 C   0  0  0  0  0  0  0  0  0  0  0  0
   -1.9267   -0.9315   -0.1195 C   0  0  0  0  0  0  0  0  0  0  0  0
    3.6042   -3.3292    0.2606 C   0  0  0  0  0  0  0  0  0  0  0  0
    0.3302    2.8130   -0.1479 C   0  0  0  0  0  0  0  0  0  0  0  0
    4.8136   -4.1703    0.4526 C   0  0  0  0  0  0  0  0  0  0  0  0
    4.5304   -3.0268    1.3822 C   0  0  0  0  0  0  0  0  0  0  0  0
    2.8755    2.7868    0.9486 C   0  0  0  0  0  0  0  0  0  0  0  0
   -3.2477   -1.3529    0.1788 C   0  0  0  0  0  0  0  0  0  0  0  0
    0.8008    3.9743    0.4280 C   0  0  0  0  0  0  0  0  0  0  0  0
   -4.0708   -0.2718   -0.1417 C   0  0  0  0  0  0  0  0  0  0  0  0
    2.1066    3.9679    0.9376 C   0  0  0  0  0  0  0  0  0  0  0  0
   -3.8437   -2.5216    0.6854 C   0  0  0  0  0  0  0  0  0  0  0  0
   -5.4569   -0.2783    0.0073 C   0  0  0  0  0  0  0  0  0  0  0  0
   -5.2355   -2.5543    0.8454 C   0  0  0  0  0  0  0  0  0  0  0  0
   -6.0253   -1.4516    0.5117 C   0  0  0  0  0  0  0  0  0  0  0  0
  1  9  1  0
  1 20  1  0
  2  7  1  0
  3 17  1  0
  3 26  1  0
  4 25  1  0
  5  8  1  0
  5 14  1  0
  5 16  1  0
  6  7  1  0
  6  9  1  0
  6 10  1  0
  6 11  1  0
  7  8  1  0
  7 12  1  0
  8 13  1  0
  9 17  1  0
 10 14  1  0
 11 15  2  0
 11 20  1  0
 12 18  1  0
 13 15  1  0
 15 23  1  0
 16 19  1  0
 17 18  2  0
 18 24  1  0
 19 21  1  0
 19 22  1  0
 20 25  2  0
 21 22  1  0
 23 27  2  0
 24 26  2  0
 24 28  1  0
 25 27  1  0
 26 29  1  0
 28 30  2  0
 29 31  2  0
 30 31  1  0
M  END
>  <PUBCHEM_COMPOUND_CID>  (1) 
4429

>  <PUBCHEM_CONFORMER_RMSD>  (1) 
0.8

>  <PUBCHEM_CONFORMER_DIVERSEORDER>  (1) 
1
8
6
5
3
11
9
12
10
7
2
13
4

>  <PUBCHEM_MMFF94_PARTIAL_CHARGES>  (1) 
42
1 -0.36
11 -0.14
12 0.18
13 0.14
14 0.27
15 -0.14
16 0.37
17 -0.04
18 -0.18
19 -0.19
2 -0.68
20 0.08
21 -0.2
22 -0.2
23 -0.15
25 0.08
26 0.14
27 -0.15
28 -0.15
29 -0.15
3 -0.28
30 -0.15
31 -0.15
4 -0.53
44 0.1
45 0.4
46 0.1
47 0.1
48 0.1
49 0.1
5 -0.81
50 0.15
51 0.15
52 0.15
53 0.15
54 0.45
55 0.15
56 0.15
6 0.14
7 0.28
8 0.27
9 0.46

>  <PUBCHEM_EFFECTIVE_ROTOR_COUNT>  (1) 
3.8

>  <PUBCHEM_PHARMACOPHORE_FEATURES>  (1) 
13
1 1 acceptor
1 2 acceptor
1 2 donor
1 3 acceptor
1 4 donor
1 5 cation
5 1 6 9 11 20 rings
5 3 17 18 24 26 rings
6 11 15 20 23 25 27 rings
6 24 26 28 29 30 31 rings
6 5 6 7 8 10 14 rings
6 6 7 8 11 13 15 rings
6 6 7 9 12 17 18 rings

>  <PUBCHEM_HEAVY_ATOM_COUNT>  (1) 
31

>  <PUBCHEM_ATOM_DEF_STEREO_COUNT>  (1) 
0

>  <PUBCHEM_ATOM_UDEF_STEREO_COUNT>  (1) 
4

>  <PUBCHEM_BOND_DEF_STEREO_COUNT>  (1) 
0

>  <PUBCHEM_BOND_UDEF_STEREO_COUNT>  (1) 
0

>  <PUBCHEM_ISOTOPIC_ATOM_COUNT>  (1) 
0

>  <PUBCHEM_COMPONENT_COUNT>  (1) 
1

>  <PUBCHEM_CACTVS_TAUTO_COUNT>  (1) 
3

>  <PUBCHEM_CONFORMER_ID>  (1) 
0000114D00000001

>  <PUBCHEM_MMFF94_ENERGY>  (1) 
115.647

>  <PUBCHEM_FEATURE_SELFOVERLAP>  (1) 
68.028

>  <PUBCHEM_SHAPE_FINGERPRINT>  (1) 
10074138 170 17547273524568532160
10411042 1 18339078172878622738
10948715 1 17622727939168545813
1100329 8 18050848819034810937
11456790 92 18191036621297437569
114674 6 18189054346806878043
11578080 2 17387384939875142413
12107183 9 18270130007220653355
12293681 4 17981037522867382100
12403259 226 18334573534364421933
12788726 201 18120954818951983254
13009979 54 18044952181372381494
13134695 92 18411697686093190975
13140716 1 18267302041058850721
13540713 4 18187350048692548677
138480 1 18411135844331015320
13955234 65 18196097865839283459
14068700 675 18115311047558203294
14790565 3 17615973647792597156
14863182 85 17901111033331146212
14866123 147 17762617287683875243
14955137 171 18341048644319374976
15042514 8 18050006588774431638
15131766 46 16053738930236872826
15324884 4 16984336795752646270
15420108 30 17772460433904356630
15927050 60 17836646693292844774
16945 1 18196073650655737644
16992752 21 18267033756839894734
17492 89 18337392764073471379
1813 80 18129953273262711678
20028762 73 17621316174934028294
20642791 105 17755864117368263349
21033648 29 16629967595165420995
21049683 271 18335994146484933116
21756936 100 17046827997888511212
21859007 373 17750490993923476205
22182313 1 18042389374723948981
23419403 2 18116408407100675550
23559900 14 18040436620603989367
244849 19 18189030102174778917
2747138 104 18268136584298377202
3178227 256 18195533820754013328
32027 91 18408315580401615155
3380486 145 17983256479440545620
3421961 26 18410293631224885163
4058900 60 17907314482330752504
4409770 3 17757268176663560477
463206 1 18333455322186509915
50009960 94 17897419882719493011
5104073 3 18341065103103519835
5265222 85 17759530254561429676
57527293 21 17560218247088896862
6371380 46 18191019003151730189
6669772 16 17982742071651063716
6679774 75 17972866245551961168
79837 15 17114939449246865442
9841814 1 18270978906678863583

>  <PUBCHEM_SHAPE_MULTIPOLES>  (1) 
609.51
9.59
5.52
1.34
12.25
3.47
0.49
-11.44
-2.57
-6.69
-2.04
-0.89
-0.14
0.9

>  <PUBCHEM_SHAPE_SELFOVERLAP>  (1) 
1410.093

>  <PUBCHEM_SHAPE_VOLUME>  (1) 
311.4

>  <PUBCHEM_COORDINATE_TYPE>  (1) 
2
5
10

$$$$
