44299
     RDKit          3D

 30 34  0  0  0  0  0  0  0  0999 V2000
   -7.4926   -0.2634    1.6955 O   0  0  0  0  0  0  0  0  0  0  0  0
   -6.9904   -2.3802    1.3720 O   0  0  0  0  0  0  0  0  0  0  0  0
    3.3249    1.1478    0.7398 N   0  0  0  0  0  0  0  0  0  0  0  0
   -1.2905    0.4833   -1.0490 N   0  0  0  0  0  0  0  0  0  0  0  0
   -2.2801    0.3635   -1.8014 N   0  0  0  0  0  0  0  0  0  0  0  0
   -6.7600   -1.1580    1.2100 N   0  0  0  0  0  0  0  0  0  0  0  0
    1.9241   -0.1511   -0.7020 C   0  0  0  0  0  0  0  0  0  0  0  0
    1.1135    0.9722   -0.8983 C   0  0  0  0  0  0  0  0  0  0  0  0
    3.0456   -0.0319    0.1389 C   0  0  0  0  0  0  0  0  0  0  0  0
    1.4112    2.1853   -0.2733 C   0  0  0  0  0  0  0  0  0  0  0  0
    3.8624   -1.1677    0.3349 C   0  0  0  0  0  0  0  0  0  0  0  0
    2.5443    2.2288    0.5505 C   0  0  0  0  0  0  0  0  0  0  0  0
    3.5533   -2.3964   -0.3041 C   0  0  0  0  0  0  0  0  0  0  0  0
    1.6244   -1.3664   -1.3296 C   0  0  0  0  0  0  0  0  0  0  0  0
   -0.0933    0.8792   -1.7917 C   0  0  0  0  0  0  0  0  0  0  0  0
    2.4323   -2.4796   -1.1322 C   0  0  0  0  0  0  0  0  0  0  0  0
    0.6145    3.3299   -0.4526 C   0  0  0  0  0  0  0  0  0  0  0  0
    5.0045   -1.1294    1.1630 C   0  0  0  0  0  0  0  0  0  0  0  0
    2.8516    3.4325    1.1793 C   0  0  0  0  0  0  0  0  0  0  0  0
    4.3715   -3.5206   -0.1035 C   0  0  0  0  0  0  0  0  0  0  0  0
    0.9422    4.5218    0.1866 C   0  0  0  0  0  0  0  0  0  0  0  0
    5.8089   -2.2551    1.3532 C   0  0  0  0  0  0  0  0  0  0  0  0
    2.0636    4.5729    1.0045 C   0  0  0  0  0  0  0  0  0  0  0  0
    5.4924   -3.4499    0.7203 C   0  0  0  0  0  0  0  0  0  0  0  0
   -3.4032   -0.0178   -1.0481 C   0  0  0  0  0  0  0  0  0  0  0  0
   -4.2310    0.9575   -0.5004 C   0  0  0  0  0  0  0  0  0  0  0  0
   -3.6791   -1.3679   -0.8536 C   0  0  0  0  0  0  0  0  0  0  0  0
   -5.6264   -0.7726    0.4467 C   0  0  0  0  0  0  0  0  0  0  0  0
   -5.3453    0.5792    0.2488 C   0  0  0  0  0  0  0  0  0  0  0  0
   -4.7934   -1.7461   -0.1045 C   0  0  0  0  0  0  0  0  0  0  0  0
  1  6  1  0
  2  6  2  0
  3  9  2  0
  3 12  1  0
  4  5  2  0
  4 15  1  0
  5 25  1  0
  6 28  1  0
  7  8  2  0
  7  9  1  0
  7 14  1  0
  8 10  1  0
  8 15  1  0
  9 11  1  0
 10 12  2  0
 10 17  1  0
 11 13  2  0
 11 18  1  0
 12 19  1  0
 13 16  1  0
 13 20  1  0
 14 16  2  0
 17 21  2  0
 18 22  2  0
 19 23  2  0
 20 24  2  0
 21 23  1  0
 22 24  1  0
 25 26  2  0
 25 27  1  0
 26 29  1  0
 27 30  2  0
 28 29  2  0
 28 30  1  0
M  CHG  2   1  -1   6   1
M  END
>  <PUBCHEM_COMPOUND_CID>  (1) 
44299

>  <PUBCHEM_CONFORMER_RMSD>  (1) 
0.8

>  <PUBCHEM_CONFORMER_DIVERSEORDER>  (1) 
2
10
12
6
8
4
9
11
1
7
3
5

>  <PUBCHEM_MMFF94_PARTIAL_CHARGES>  (1) 
40
1 -0.52
12 0.31
14 -0.15
15 0.39
16 -0.15
17 -0.15
18 -0.15
19 -0.15
2 -0.52
20 -0.15
21 -0.15
22 -0.15
23 -0.15
24 -0.15
25 0.18
26 -0.15
27 -0.15
28 0.13
29 -0.15
3 -0.62
30 -0.15
31 0.15
34 0.15
35 0.15
36 0.15
37 0.15
38 0.15
39 0.15
4 -0.25
40 0.15
41 0.15
42 0.15
43 0.15
44 0.15
45 0.15
46 0.15
5 -0.18
6 0.91
8 -0.14
9 0.31

>  <PUBCHEM_EFFECTIVE_ROTOR_COUNT>  (1) 
4

>  <PUBCHEM_PHARMACOPHORE_FEATURES>  (1) 
9
1 1 acceptor
1 1 anion
1 2 acceptor
1 3 acceptor
6 10 12 17 19 21 23 rings
6 11 13 18 20 22 24 rings
6 25 26 27 28 29 30 rings
6 3 7 8 9 10 12 rings
6 7 9 11 13 14 16 rings

>  <PUBCHEM_HEAVY_ATOM_COUNT>  (1) 
30

>  <PUBCHEM_ATOM_DEF_STEREO_COUNT>  (1) 
0

>  <PUBCHEM_ATOM_UDEF_STEREO_COUNT>  (1) 
0

>  <PUBCHEM_BOND_DEF_STEREO_COUNT>  (1) 
0

>  <PUBCHEM_BOND_UDEF_STEREO_COUNT>  (1) 
0

>  <PUBCHEM_ISOTOPIC_ATOM_COUNT>  (1) 
0

>  <PUBCHEM_COMPONENT_COUNT>  (1) 
1

>  <PUBCHEM_CACTVS_TAUTO_COUNT>  (1) 
1

>  <PUBCHEM_CONFORMER_ID>  (1) 
0000AD0B00000002

>  <PUBCHEM_MMFF94_ENERGY>  (1) 
105.7569

>  <PUBCHEM_FEATURE_SELFOVERLAP>  (1) 
45.839

>  <PUBCHEM_SHAPE_FINGERPRINT>  (1) 
10074138 170 17476619998337318896
10190108 129 18341332292713581216
10258939 38 17968640676063865952
11399510 152 18196100061189889249
11545043 162 17967526836192217957
11796584 16 17532921702207161774
12107183 9 18271249309915810841
12342043 65 18040435503869768191
12422481 6 17488449789995341718
12661589 4 16298961990614157619
13140716 1 17765403807338489432
13533116 47 18335708299358147771
13673619 4 17968098590649299951
13782708 43 17967532359430898667
14347424 109 18412832400148721905
14363568 33 18341596149807977948
14400156 188 18337961185392903250
14444916 359 18124298662163222432
14790565 3 17905595959332841668
14849402 71 18339644559111719016
14950920 106 18343306994200416147
15324884 4 17680391629061253476
15475509 84 18060138695841437713
15927050 60 17910103948484652644
15950262 2 14188423019866052834
1979834 28 17704076153142598174
21033648 29 16486413162267082773
21049683 271 18334582360865704532
21344244 78 17918276441697935857
21421861 104 18201722885390576365
21599406 157 9294450396769094809
21716022 299 18116173129061577324
21796203 349 18342458140879634862
21814621 53 18187936110260798081
24771293 8 17844506986113765688
24941158 1 18192448564918600000
2747138 104 18268698421823425146
3178227 256 18339078328262511944
3421961 26 18411411821944973812
3552219 110 18335146341837714356
5104073 3 18269849756452364771
563151 74 18127409166501440129
6371380 46 18189607243032838445
6679774 75 17899399069101978112
6695519 79 16554765406953242130
6703917 75 17400083466390610340
79837 15 17116049943407015832
86090 222 17530966908225384635
8863177 126 18259988184464117275
9937071 3 17680997598890122299
9962374 69 18339350977039140535

>  <PUBCHEM_SHAPE_MULTIPOLES>  (1) 
585.72
15.68
5.32
1.48
27.94
5.38
0.05
-16.7
-9.38
-7.28
-1.46
0.81
-0.21
1.18

>  <PUBCHEM_SHAPE_SELFOVERLAP>  (1) 
1329.686

>  <PUBCHEM_SHAPE_VOLUME>  (1) 
307.2

>  <PUBCHEM_COORDINATE_TYPE>  (1) 
2
5
10

$$$$
