44292
     RDKit          3D

 29 33  0  0  0  0  0  0  0  0999 V2000
    3.3863   -1.3093   -0.0591 N   0  0  0  0  0  0  0  0  0  0  0  0
   -7.0721    0.9636    0.1257 N   0  0  0  0  0  0  0  0  0  0  0  0
    1.6633    0.3308    0.2045 C   0  0  0  0  0  0  0  0  0  0  0  0
    3.0172   -0.0109    0.0341 C   0  0  0  0  0  0  0  0  0  0  0  0
    0.7180   -0.6983    0.2745 C   0  0  0  0  0  0  0  0  0  0  0  0
    3.9695    1.0302   -0.0360 C   0  0  0  0  0  0  0  0  0  0  0  0
    1.1099   -2.0354    0.1774 C   0  0  0  0  0  0  0  0  0  0  0  0
    3.5632    2.3862    0.0639 C   0  0  0  0  0  0  0  0  0  0  0  0
    2.4759   -2.2995    0.0084 C   0  0  0  0  0  0  0  0  0  0  0  0
    1.2687    1.6707    0.3022 C   0  0  0  0  0  0  0  0  0  0  0  0
    2.2109    2.6897    0.2325 C   0  0  0  0  0  0  0  0  0  0  0  0
   -0.7054   -0.3765    0.4514 C   0  0  0  0  0  0  0  0  0  0  0  0
    5.3461    0.7700   -0.2058 C   0  0  0  0  0  0  0  0  0  0  0  0
    0.1819   -3.0895    0.2447 C   0  0  0  0  0  0  0  0  0  0  0  0
    4.5173    3.4149   -0.0066 C   0  0  0  0  0  0  0  0  0  0  0  0
    2.8793   -3.6286   -0.0897 C   0  0  0  0  0  0  0  0  0  0  0  0
   -1.5808   -0.2022   -0.5550 C   0  0  0  0  0  0  0  0  0  0  0  0
    6.2835    1.8030   -0.2741 C   0  0  0  0  0  0  0  0  0  0  0  0
    0.6093   -4.4100    0.1443 C   0  0  0  0  0  0  0  0  0  0  0  0
    5.8691    3.1245   -0.1745 C   0  0  0  0  0  0  0  0  0  0  0  0
   -3.0120    0.1013   -0.3779 C   0  0  0  0  0  0  0  0  0  0  0  0
    1.9615   -4.6799   -0.0234 C   0  0  0  0  0  0  0  0  0  0  0  0
   -5.7025    0.6719   -0.0436 C   0  0  0  0  0  0  0  0  0  0  0  0
   -3.4492    0.6281    0.8265 C   0  0  0  0  0  0  0  0  0  0  0  0
   -3.8922   -0.1460   -1.4187 C   0  0  0  0  0  0  0  0  0  0  0  0
   -4.8038    0.9153    0.9950 C   0  0  0  0  0  0  0  0  0  0  0  0
   -5.2467    0.1414   -1.2505 C   0  0  0  0  0  0  0  0  0  0  0  0
   -7.8838    1.3591   -1.0081 C   0  0  0  0  0  0  0  0  0  0  0  0
   -7.6823    0.8855    1.4380 C   0  0  0  0  0  0  0  0  0  0  0  0
  1  4  2  0
  1  9  1  0
  2 23  1  0
  2 28  1  0
  2 29  1  0
  3  4  1  0
  3  5  2  0
  3 10  1  0
  4  6  1  0
  5  7  1  0
  5 12  1  0
  6  8  2  0
  6 13  1  0
  7  9  2  0
  7 14  1  0
  8 11  1  0
  8 15  1  0
  9 16  1  0
 10 11  2  0
 12 17  2  0
 13 18  2  0
 14 19  2  0
 15 20  2  0
 16 22  2  0
 17 21  1  0
 18 20  1  0
 19 22  1  0
 21 24  2  0
 21 25  1  0
 23 26  2  0
 23 27  1  0
 24 26  1  0
 25 27  2  0
M  END
>  <PUBCHEM_COMPOUND_CID>  (1) 
44292

>  <PUBCHEM_CONFORMER_RMSD>  (1) 
0.8

>  <PUBCHEM_CONFORMER_DIVERSEORDER>  (1) 
1

>  <PUBCHEM_MMFF94_PARTIAL_CHARGES>  (1) 
41
1 -0.62
10 -0.15
11 -0.15
12 -0.18
13 -0.15
14 -0.15
15 -0.15
16 -0.15
17 -0.18
18 -0.15
19 -0.15
2 -0.84
20 -0.15
21 0.03
22 -0.15
23 0.1
24 -0.15
25 -0.15
26 -0.15
27 -0.15
28 0.37
29 0.37
30 0.15
31 0.15
32 0.15
33 0.15
34 0.15
35 0.15
36 0.15
37 0.15
38 0.15
39 0.15
4 0.31
40 0.15
41 0.15
42 0.15
43 0.15
44 0.15
45 0.15
5 0.03
9 0.31

>  <PUBCHEM_EFFECTIVE_ROTOR_COUNT>  (1) 
3

>  <PUBCHEM_PHARMACOPHORE_FEATURES>  (1) 
7
1 1 acceptor
1 2 cation
6 1 3 4 5 7 9 rings
6 21 23 24 25 26 27 rings
6 3 4 6 8 10 11 rings
6 6 8 13 15 18 20 rings
6 7 9 14 16 19 22 rings

>  <PUBCHEM_HEAVY_ATOM_COUNT>  (1) 
29

>  <PUBCHEM_ATOM_DEF_STEREO_COUNT>  (1) 
0

>  <PUBCHEM_ATOM_UDEF_STEREO_COUNT>  (1) 
0

>  <PUBCHEM_BOND_DEF_STEREO_COUNT>  (1) 
0

>  <PUBCHEM_BOND_UDEF_STEREO_COUNT>  (1) 
1

>  <PUBCHEM_ISOTOPIC_ATOM_COUNT>  (1) 
0

>  <PUBCHEM_COMPONENT_COUNT>  (1) 
1

>  <PUBCHEM_CACTVS_TAUTO_COUNT>  (1) 
1

>  <PUBCHEM_CONFORMER_ID>  (1) 
0000AD0400000001

>  <PUBCHEM_MMFF94_ENERGY>  (1) 
122.0151

>  <PUBCHEM_FEATURE_SELFOVERLAP>  (1) 
35.609

>  <PUBCHEM_SHAPE_FINGERPRINT>  (1) 
10165383 225 18334298690965260332
10411042 1 17834113048898735322
10483366 6 18339936926964204318
10554248 39 17773305731187681749
10595046 47 18343017775550755241
10675989 125 18341613728776707472
10693767 8 17987521420947831510
10835480 77 18334574608686910061
1100329 8 18409725167588828594
11135609 187 18411696621041826889
11135926 11 18410847772590363509
11181472 205 17985271773413816601
11719270 70 18410849958691891408
11763715 3 17331142506791652886
12107183 9 17623014491561277673
12144603 126 18202565108510973935
12236239 1 17917711301501025637
12293681 160 17917716854682919048
12597179 24 18187368761053044506
12730499 353 18335426755055526347
12788726 201 17275110479743515105
13009979 54 17414152408830119859
13533116 47 18270677563884886051
13631057 29 18126558154041392463
13785724 45 17552367570704837975
138480 1 18050286964841011666
13955234 65 18335981956825058179
14117953 113 18411983538749351806
14400156 413 18337099056987950773
14415360 78 18123172756732291261
14790565 3 18338802316236060888
15183329 4 17131561612474789389
15250474 111 18130206213278983647
15276724 80 18267021662233224357
15439362 3 18411701006904640284
15475509 35 16226598573292703266
15484559 13 18341336621961143798
15664445 248 17913503345821440630
1577012 14 17846499198141406521
15927050 60 18341049730334678046
16728300 4 17389914818496205810
16993427 108 11239177550080992812
16993438 75 18046349901059080187
17844677 252 18267587893356127437
17913733 40 18338815497289947235
18335252 98 18336269029262045579
19315958 150 18336557058485587323
19319366 153 18343580745976602271
19427546 62 18408886264931337850
1979834 28 18113343011331636437
20157964 124 18410575068021422985
20505436 4 18060138765151017551
20554085 129 18059841909906768312
21033648 144 18186791513596216511
21033648 29 18196084663157808136
21033650 10 15195301806787799171
21049683 118 18194942249327793274
21049683 271 18116445734888785430
21307412 95 18056789661908133918
21344244 78 18056179290118517051
21781055 127 16056331505851538251
21792964 463 18195274177291968441
21927370 108 17762062043066327002
22033318 11 17555194467034538801
23522609 53 17775018839033796025
23845131 108 18334295404804166971
23929065 36 17336163332450310946
24771293 8 18128799895110307250
255183 451 17841718404760331734
27425 322 18271527619047814332
3178227 256 18335137553875970018
335352 9 18411140252001338692
3411729 13 18333448733473594738
350125 39 17977672227355276994
38570 142 18271535268168010910
38695281 34 18411138069445944882
397830 11 18187093867094631931
4058900 60 18336555975172406048
4073 2 18334579053862147099
4144715 1 18115880616419893449
44555599 121 18056763123174148129
4516262 110 18412257351024956269
474 4 18411980273408369659
5385378 56 18410292501838085208
54076057 127 18341342119519132779
5912855 24 18272362127632234679
6025842 7 18411698751245385247
6697151 62 17539942019937952415
70251023 43 17911811176104476118

>  <PUBCHEM_SHAPE_MULTIPOLES>  (1) 
586.84
17.45
4.91
0.95
31.25
6.11
-0.05
-17.19
-0.78
-8.72
0.17
1.64
-0.17
-0.35

>  <PUBCHEM_SHAPE_SELFOVERLAP>  (1) 
1326.408

>  <PUBCHEM_SHAPE_VOLUME>  (1) 
306.8

>  <PUBCHEM_COORDINATE_TYPE>  (1) 
2
5
10

$$$$
