44295
     RDKit          3D

 20 23  0  0  0  0  0  0  0  0999 V2000
   -4.0009   -1.4683    0.2824 O   0  0  0  0  0  0  0  0  0  0  0  0
    0.8243    0.2273    0.0232 C   0  0  0  0  0  0  0  0  0  0  0  0
    0.2337   -1.0558    0.1300 C   0  0  0  0  0  0  0  0  0  0  0  0
    2.2602    0.3378   -0.0266 C   0  0  0  0  0  0  0  0  0  0  0  0
   -2.0205   -0.0919    0.1292 C   0  0  0  0  0  0  0  0  0  0  0  0
   -1.4626    1.1950    0.0242 C   0  0  0  0  0  0  0  0  0  0  0  0
   -0.0623    1.3336   -0.0268 C   0  0  0  0  0  0  0  0  0  0  0  0
   -1.1638   -1.1997    0.1808 C   0  0  0  0  0  0  0  0  0  0  0  0
    3.0483   -0.8411    0.0333 C   0  0  0  0  0  0  0  0  0  0  0  0
    1.0432   -2.1936    0.1858 C   0  0  0  0  0  0  0  0  0  0  0  0
    2.4291   -2.0883    0.1385 C   0  0  0  0  0  0  0  0  0  0  0  0
   -3.4174   -0.2374    0.1801 C   0  0  0  0  0  0  0  0  0  0  0  0
    2.9618    1.5651   -0.1342 C   0  0  0  0  0  0  0  0  0  0  0  0
   -2.3169    2.3101   -0.0269 C   0  0  0  0  0  0  0  0  0  0  0  0
    4.4511   -0.7681   -0.0125 C   0  0  0  0  0  0  0  0  0  0  0  0
   -4.2520    0.8788    0.1281 C   0  0  0  0  0  0  0  0  0  0  0  0
   -3.7020    2.1521    0.0246 C   0  0  0  0  0  0  0  0  0  0  0  0
    4.3574    1.6241   -0.1791 C   0  0  0  0  0  0  0  0  0  0  0  0
    5.1024    0.4568   -0.1179 C   0  0  0  0  0  0  0  0  0  0  0  0
   -4.3130   -2.1367   -0.9363 C   0  0  0  0  0  0  0  0  0  0  0  0
  1 12  1  0
  1 20  1  0
  2  3  1  0
  2  4  1  0
  2  7  2  0
  3  8  2  0
  3 10  1  0
  4  9  2  0
  4 13  1  0
  5  6  2  0
  5  8  1  0
  5 12  1  0
  6  7  1  0
  6 14  1  0
  9 11  1  0
  9 15  1  0
 10 11  2  0
 12 16  2  0
 13 18  2  0
 14 17  2  0
 15 19  2  0
 16 17  1  0
 18 19  1  0
M  END
>  <PUBCHEM_COMPOUND_CID>  (1) 
44295

>  <PUBCHEM_CONFORMER_RMSD>  (1) 
0.6

>  <PUBCHEM_CONFORMER_DIVERSEORDER>  (1) 
1

>  <PUBCHEM_MMFF94_PARTIAL_CHARGES>  (1) 
25
1 -0.36
10 -0.15
11 -0.15
12 0.08
13 -0.15
14 -0.15
15 -0.15
16 -0.15
17 -0.15
18 -0.15
19 -0.15
20 0.28
21 0.15
22 0.15
23 0.15
24 0.15
25 0.15
26 0.15
27 0.15
28 0.15
29 0.15
30 0.15
31 0.15
7 -0.15
8 -0.15

>  <PUBCHEM_EFFECTIVE_ROTOR_COUNT>  (1) 
1

>  <PUBCHEM_PHARMACOPHORE_FEATURES>  (1) 
5
1 1 acceptor
6 2 3 4 9 10 11 rings
6 2 3 5 6 7 8 rings
6 4 9 13 15 18 19 rings
6 5 6 12 14 16 17 rings

>  <PUBCHEM_HEAVY_ATOM_COUNT>  (1) 
20

>  <PUBCHEM_ATOM_DEF_STEREO_COUNT>  (1) 
0

>  <PUBCHEM_ATOM_UDEF_STEREO_COUNT>  (1) 
0

>  <PUBCHEM_BOND_DEF_STEREO_COUNT>  (1) 
0

>  <PUBCHEM_BOND_UDEF_STEREO_COUNT>  (1) 
0

>  <PUBCHEM_ISOTOPIC_ATOM_COUNT>  (1) 
0

>  <PUBCHEM_COMPONENT_COUNT>  (1) 
1

>  <PUBCHEM_CACTVS_TAUTO_COUNT>  (1) 
1

>  <PUBCHEM_CONFORMER_ID>  (1) 
0000AD0700000001

>  <PUBCHEM_MMFF94_ENERGY>  (1) 
80.3839

>  <PUBCHEM_FEATURE_SELFOVERLAP>  (1) 
25.446

>  <PUBCHEM_SHAPE_FINGERPRINT>  (1) 
10411042 1 17040639960154878242
10498660 4 18409166593151748076
10608611 8 18336264531202262628
10616163 171 18412545401248105943
10646746 165 18410294679502639564
10967382 1 18337392643407457960
11578080 2 16879900846970164495
11806522 49 18409447024419484439
12107183 9 17761209912504884265
12403259 226 18411694392175560536
12403259 415 18201437012889516488
12403260 363 18336260228109073816
13140716 1 17904211673622980155
13167823 11 18411417306428196278
13224815 77 18409448072380812147
138480 1 17617096902178731946
14787075 74 18340769363537682944
14790565 3 18335430118548208468
15196674 1 18410012126510054680
15442244 35 18049441448540540434
15536298 74 18340770338785415862
16087824 20 18411698757133477205
17349148 13 18040434420915582120
17492 89 18410575041909617683
18681886 176 18412823612724677600
19591789 44 18340485676605341984
200 152 18272366486231930255
20510252 161 18342179968231647681
21267235 1 18410020939440489955
21421861 104 17607523531881410418
21501502 16 18337106770062437467
21709351 56 18334573538496028044
221490 88 18337680719612083922
22393880 68 18339083687974898526
23227448 37 18338232661685476301
23366157 5 17896887560535820626
23402539 116 18410569608590352286
23402655 69 18340204102807557757
23557571 272 18202008741244088847
23559900 14 18198058067559952514
245318 6 17098640160439828364
2871803 45 18408880767415241135
335352 9 18193557753423937990
34934 24 18336542716850943201
350125 39 18410858780164612744
3545911 37 18409451340904035701
4214541 1 18410575054603920401
474 4 17822018618239084196
4990 188 18131360687285884062
5104073 3 18409167684310435664
7364860 26 18268149747755453510
7495541 125 17417527024916726458
77779 3 18410857637914113608
9709674 26 18409456872922315194

>  <PUBCHEM_SHAPE_MULTIPOLES>  (1) 
405.72
9.85
2.57
0.67
1.8
0.17
0.04
-0.86
0.74
-1.19
0.14
-0.18
0.1
-0.56

>  <PUBCHEM_SHAPE_SELFOVERLAP>  (1) 
925.12

>  <PUBCHEM_SHAPE_VOLUME>  (1) 
212.5

>  <PUBCHEM_COORDINATE_TYPE>  (1) 
2
5
10

$$$$
