44297
     RDKit          3D

 24 28  0  0  0  0  0  0  0  0999 V2000
   -3.7821   -2.5575    0.2954 O   0  0  0  0  0  0  0  0  0  0  0  0
   -1.0476    0.5965    0.0308 C   0  0  0  0  0  0  0  0  0  0  0  0
    1.7742   -0.0781    0.0260 C   0  0  0  0  0  0  0  0  0  0  0  0
   -0.6177   -0.7447    0.1145 C   0  0  0  0  0  0  0  0  0  0  0  0
    1.3442    1.2630   -0.0581 C   0  0  0  0  0  0  0  0  0  0  0  0
   -2.4594    0.8881    0.0367 C   0  0  0  0  0  0  0  0  0  0  0  0
    0.7565   -1.0571    0.1110 C   0  0  0  0  0  0  0  0  0  0  0  0
   -0.0300    1.5754   -0.0546 C   0  0  0  0  0  0  0  0  0  0  0  0
    3.1858   -0.3698    0.0210 C   0  0  0  0  0  0  0  0  0  0  0  0
   -3.3864   -0.1823    0.1263 C   0  0  0  0  0  0  0  0  0  0  0  0
   -1.5609   -1.7734    0.2016 C   0  0  0  0  0  0  0  0  0  0  0  0
    4.1131    0.7005   -0.0691 C   0  0  0  0  0  0  0  0  0  0  0  0
   -2.9240   -1.4973    0.2074 C   0  0  0  0  0  0  0  0  0  0  0  0
    2.2875    2.2915   -0.1456 C   0  0  0  0  0  0  0  0  0  0  0  0
    3.6507    2.0154   -0.1509 C   0  0  0  0  0  0  0  0  0  0  0  0
   -3.0041    2.1946   -0.0419 C   0  0  0  0  0  0  0  0  0  0  0  0
    3.7304   -1.6762    0.1013 C   0  0  0  0  0  0  0  0  0  0  0  0
   -4.7697    0.0664    0.1347 C   0  0  0  0  0  0  0  0  0  0  0  0
    5.4963    0.4516   -0.0763 C   0  0  0  0  0  0  0  0  0  0  0  0
   -4.3820    2.4288   -0.0324 C   0  0  0  0  0  0  0  0  0  0  0  0
   -5.2651    1.3641    0.0558 C   0  0  0  0  0  0  0  0  0  0  0  0
    5.1083   -1.9104    0.0930 C   0  0  0  0  0  0  0  0  0  0  0  0
    5.9914   -0.8459    0.0041 C   0  0  0  0  0  0  0  0  0  0  0  0
   -4.2094   -3.1431   -0.9306 C   0  0  0  0  0  0  0  0  0  0  0  0
  1 13  1  0
  1 24  1  0
  2  4  2  0
  2  6  1  0
  2  8  1  0
  3  5  1  0
  3  7  2  0
  3  9  1  0
  4  7  1  0
  4 11  1  0
  5  8  2  0
  5 14  1  0
  6 10  2  0
  6 16  1  0
  9 12  2  0
  9 17  1  0
 10 13  1  0
 10 18  1  0
 11 13  2  0
 12 15  1  0
 12 19  1  0
 14 15  2  0
 16 20  2  0
 17 22  2  0
 18 21  2  0
 19 23  2  0
 20 21  1  0
 22 23  1  0
M  END
>  <PUBCHEM_COMPOUND_CID>  (1) 
44297

>  <PUBCHEM_CONFORMER_RMSD>  (1) 
0.6

>  <PUBCHEM_CONFORMER_DIVERSEORDER>  (1) 
1

>  <PUBCHEM_MMFF94_PARTIAL_CHARGES>  (1) 
29
1 -0.36
11 -0.15
13 0.08
14 -0.15
15 -0.15
16 -0.15
17 -0.15
18 -0.15
19 -0.15
20 -0.15
21 -0.15
22 -0.15
23 -0.15
24 0.28
25 0.15
26 0.15
27 0.15
28 0.15
29 0.15
30 0.15
31 0.15
32 0.15
33 0.15
34 0.15
35 0.15
36 0.15
37 0.15
7 -0.15
8 -0.15

>  <PUBCHEM_EFFECTIVE_ROTOR_COUNT>  (1) 
1

>  <PUBCHEM_PHARMACOPHORE_FEATURES>  (1) 
6
1 1 acceptor
6 2 3 4 5 7 8 rings
6 2 4 6 10 11 13 rings
6 3 5 9 12 14 15 rings
6 6 10 16 18 20 21 rings
6 9 12 17 19 22 23 rings

>  <PUBCHEM_HEAVY_ATOM_COUNT>  (1) 
24

>  <PUBCHEM_ATOM_DEF_STEREO_COUNT>  (1) 
0

>  <PUBCHEM_ATOM_UDEF_STEREO_COUNT>  (1) 
0

>  <PUBCHEM_BOND_DEF_STEREO_COUNT>  (1) 
0

>  <PUBCHEM_BOND_UDEF_STEREO_COUNT>  (1) 
0

>  <PUBCHEM_ISOTOPIC_ATOM_COUNT>  (1) 
0

>  <PUBCHEM_COMPONENT_COUNT>  (1) 
1

>  <PUBCHEM_CACTVS_TAUTO_COUNT>  (1) 
1

>  <PUBCHEM_CONFORMER_ID>  (1) 
0000AD0900000001

>  <PUBCHEM_MMFF94_ENERGY>  (1) 
99.7725

>  <PUBCHEM_FEATURE_SELFOVERLAP>  (1) 
30.543

>  <PUBCHEM_SHAPE_FINGERPRINT>  (1) 
10411042 1 18122626321924849419
10595046 47 18337391655538521804
10616163 171 18412265068584957495
11405975 8 18411702088429446352
11578080 2 13613417861484416985
11796584 16 18272373044916296030
12107183 9 17976254643186554106
12236239 1 17822295660698548146
12403259 226 18269550705704918985
13140716 1 18411980260613352968
13167823 11 18409728486706621346
13583140 156 17632285821975945432
14341114 176 18410580565205184320
14347332 77 18340483486631502775
14420673 8 18337394816714099010
14790565 3 17906175044729203769
15042514 8 18336833091369305915
15099037 51 18337954489200882308
15183329 4 18409448055195668204
15196674 1 18410012169401809304
15250474 111 18335689551294015018
15788980 27 18259989270874169160
17349148 13 18060420179402242392
17492 89 18265053707226030491
17844677 252 18410581720540558106
17857418 61 18409727374394338278
17899979 129 17324621312481712165
1813 80 16877944932175885148
18681886 176 18342454885652815432
19141452 34 18409450258550976861
200 152 18131911559189985928
20691752 17 17240757402548056600
20775438 99 16691276660199726359
21033648 144 18410844469465867508
21033648 29 17703209781303649402
21065198 57 18410856581236289680
21133410 171 17331059287342321018
21236236 1 18412262852861809119
21267235 1 18408895030901209531
21279426 13 18193557766192847332
21703447 108 18054211400453963955
21709351 56 18408600387728745580
21859007 373 17824802478443928892
221490 88 18335989778228853776
23227448 37 18411699876990644461
23402539 116 18412821386918651542
23559900 14 18341607118658268264
23622692 118 18270954769305642391
3004659 81 18188214204886950438
335352 9 18337673014213680988
338550 245 18333737931165305598
350125 39 18409452492181968481
3545911 37 18411702066923078024
3680242 22 18116431436805162826
4073 2 18113905996140531730
4214541 1 18410012126156854169
44062 13 18413392037912244175
460360 51 18194709027723161122
5104073 3 18411138064934603232
559249 180 18336825299349149498
59755656 215 18338800000789207148
59755656 520 18335695006571588581
6138700 20 18192152599334265330
6328613 192 18261402143801600044
633830 44 17240486930908527032
67856867 119 18337672026957044284
7226269 152 17917149377908041449
77779 3 18409450310296254136
7970288 3 17836080453026216503
9709674 26 18263086676649707290

>  <PUBCHEM_SHAPE_MULTIPOLES>  (1) 
488.04
13
3
0.66
5.76
0.75
0.03
1.55
0.28
-2.52
0.33
-0.15
0.11
-0.52

>  <PUBCHEM_SHAPE_SELFOVERLAP>  (1) 
1124.796

>  <PUBCHEM_SHAPE_VOLUME>  (1) 
252.4

>  <PUBCHEM_COORDINATE_TYPE>  (1) 
2
5
10

$$$$
