44290
     RDKit          3D

 10 10  0  0  0  0  0  0  0  0999 V2000
   -0.3114    0.0602    1.6127 O   0  0  0  0  0  0  0  0  0  0  0  0
   -1.3378    0.1012   -0.4841 N   0  0  0  0  0  0  0  0  0  0  0  0
   -2.5512    0.7883   -0.1532 C   0  0  0  0  0  0  0  0  0  0  0  0
   -2.5219   -0.6819   -0.2876 C   0  0  0  0  0  0  0  0  0  0  0  0
    1.0506   -0.0442   -0.3497 C   0  0  0  0  0  0  0  0  0  0  0  0
   -0.2597    0.0432    0.3852 C   0  0  0  0  0  0  0  0  0  0  0  0
    1.7688   -1.3453    0.0356 C   0  0  0  0  0  0  0  0  0  0  0  0
    1.9126    1.1753    0.0074 C   0  0  0  0  0  0  0  0  0  0  0  0
    0.9786   -2.5889   -0.3530 C   0  0  0  0  0  0  0  0  0  0  0  0
    1.2714    2.4920   -0.4134 C   0  0  0  0  0  0  0  0  0  0  0  0
  1  6  2  0
  2  3  1  0
  2  4  1  0
  2  6  1  0
  3  4  1  0
  5  6  1  0
  5  7  1  0
  5  8  1  0
  7  9  1  0
  8 10  1  0
M  END
>  <PUBCHEM_COMPOUND_CID>  (1) 
44290

>  <PUBCHEM_CONFORMER_RMSD>  (1) 
0.6

>  <PUBCHEM_CONFORMER_DIVERSEORDER>  (1) 
1
36
15
22
37
25
20
21
14
19
26
11
5
35
4
10
6
34
23
32
38
40
7
33
17
27
28
31
29
18
8
24
13
39
12
2
16
3
30
9

>  <PUBCHEM_MMFF94_PARTIAL_CHARGES>  (1) 
10
1 -0.57
11 0.1
12 0.1
13 0.1
14 0.1
2 -0.36
3 -0.05
4 -0.05
5 0.06
6 0.57

>  <PUBCHEM_EFFECTIVE_ROTOR_COUNT>  (1) 
4.6

>  <PUBCHEM_PHARMACOPHORE_FEATURES>  (1) 
3
1 1 acceptor
1 10 hydrophobe
1 9 hydrophobe

>  <PUBCHEM_HEAVY_ATOM_COUNT>  (1) 
10

>  <PUBCHEM_ATOM_DEF_STEREO_COUNT>  (1) 
0

>  <PUBCHEM_ATOM_UDEF_STEREO_COUNT>  (1) 
0

>  <PUBCHEM_BOND_DEF_STEREO_COUNT>  (1) 
0

>  <PUBCHEM_BOND_UDEF_STEREO_COUNT>  (1) 
0

>  <PUBCHEM_ISOTOPIC_ATOM_COUNT>  (1) 
0

>  <PUBCHEM_COMPONENT_COUNT>  (1) 
1

>  <PUBCHEM_CACTVS_TAUTO_COUNT>  (1) 
1

>  <PUBCHEM_CONFORMER_ID>  (1) 
0000AD0200000001

>  <PUBCHEM_MMFF94_ENERGY>  (1) 
21.899

>  <PUBCHEM_FEATURE_SELFOVERLAP>  (1) 
15.223

>  <PUBCHEM_SHAPE_FINGERPRINT>  (1) 
1 1 18337672035182540500
12423570 1 13949461042046415186
12897270 3 18338232799029263189
14128692 85 18131065996146534526
14648413 74 18335700507886747565
16945 1 18410855443074886791
18185500 45 18127694824750020166
20711985 344 17257932594080375282
20711985 365 17256809988635085934
207724 885 17980485559804170913
21040471 1 18051409866491293156
23211744 25 17627784550326396233
23211744 41 17677318545627183981
23552423 10 18413668002677847191
29004967 10 18338233735073820114
5084963 1 18058178404142355340

>  <PUBCHEM_SHAPE_MULTIPOLES>  (1) 
194.94
3.22
2.41
0.88
2.17
0.27
0.29
-0.31
-0.4
-1.78
-0.48
0.07
-0.02
-0.06

>  <PUBCHEM_SHAPE_SELFOVERLAP>  (1) 
372.199

>  <PUBCHEM_SHAPE_VOLUME>  (1) 
122.4

>  <PUBCHEM_COORDINATE_TYPE>  (1) 
2
5
10

$$$$
