44309
     RDKit          3D

 23 26  0  0  0  0  0  0  0  0999 V2000
   -1.6120    0.1689    0.0030 C   0  0  0  0  0  0  0  0  0  0  0  0
    1.2527    0.1663    0.0001 C   0  0  0  0  0  0  0  0  0  0  0  0
   -0.9095    1.3874    0.0008 C   0  0  0  0  0  0  0  0  0  0  0  0
    0.5182   -1.0448    0.0023 C   0  0  0  0  0  0  0  0  0  0  0  0
   -0.8876   -1.0306    0.0037 C   0  0  0  0  0  0  0  0  0  0  0  0
    0.4984    1.3676   -0.0007 C   0  0  0  0  0  0  0  0  0  0  0  0
   -3.0175    0.1814    0.0044 C   0  0  0  0  0  0  0  0  0  0  0  0
    2.6927    0.1148   -0.0011 C   0  0  0  0  0  0  0  0  0  0  0  0
   -3.8893   -1.0368    0.0058 C   0  0  0  0  0  0  0  0  0  0  0  0
    3.3408   -1.1479    0.0000 C   0  0  0  0  0  0  0  0  0  0  0  0
    1.1920   -2.2691    0.0034 C   0  0  0  0  0  0  0  0  0  0  0  0
   -1.6306    2.5940    0.0001 C   0  0  0  0  0  0  0  0  0  0  0  0
   -3.7188    1.3869    0.0037 C   0  0  0  0  0  0  0  0  0  0  0  0
   -1.5972   -2.3596    0.0054 C   0  0  0  0  0  0  0  0  0  0  0  0
    1.1213    2.7342   -0.0033 C   0  0  0  0  0  0  0  0  0  0  0  0
    2.5818   -2.3202    0.0022 C   0  0  0  0  0  0  0  0  0  0  0  0
   -5.3792   -0.6728    0.0062 C   0  0  0  0  0  0  0  0  0  0  0  0
   -3.0257    2.5928    0.0015 C   0  0  0  0  0  0  0  0  0  0  0  0
    3.5311    1.2581   -0.0033 C   0  0  0  0  0  0  0  0  0  0  0  0
    4.7436   -1.2332   -0.0012 C   0  0  0  0  0  0  0  0  0  0  0  0
    4.9253    1.1596   -0.0044 C   0  0  0  0  0  0  0  0  0  0  0  0
   -6.2624   -1.9101   -0.0253 C   0  0  0  0  0  0  0  0  0  0  0  0
    5.5317   -0.0868   -0.0034 C   0  0  0  0  0  0  0  0  0  0  0  0
  1  3  1  0
  1  5  2  0
  1  7  1  0
  2  4  2  0
  2  6  1  0
  2  8  1  0
  3  6  2  0
  3 12  1  0
  4  5  1  0
  4 11  1  0
  5 14  1  0
  6 15  1  0
  7  9  1  0
  7 13  2  0
  8 10  2  0
  8 19  1  0
  9 17  1  0
 10 16  1  0
 10 20  1  0
 11 16  2  0
 12 18  2  0
 13 18  1  0
 17 22  1  0
 19 21  2  0
 20 23  2  0
 21 23  1  0
M  END
>  <PUBCHEM_COMPOUND_CID>  (1) 
44309

>  <PUBCHEM_CONFORMER_RMSD>  (1) 
0.6

>  <PUBCHEM_CONFORMER_DIVERSEORDER>  (1) 
1
2

>  <PUBCHEM_MMFF94_PARTIAL_CHARGES>  (1) 
24
11 -0.15
12 -0.15
13 -0.15
14 0.14
15 0.14
16 -0.15
18 -0.15
19 -0.15
20 -0.15
21 -0.15
23 -0.15
26 0.15
27 0.15
28 0.15
35 0.15
38 0.15
39 0.15
40 0.15
41 0.15
45 0.15
5 -0.14
6 -0.14
7 -0.14
9 0.14

>  <PUBCHEM_EFFECTIVE_ROTOR_COUNT>  (1) 
2

>  <PUBCHEM_PHARMACOPHORE_FEATURES>  (1) 
5
1 22 hydrophobe
6 1 2 3 4 5 6 rings
6 1 3 7 12 13 18 rings
6 2 4 8 10 11 16 rings
6 8 10 19 20 21 23 rings

>  <PUBCHEM_HEAVY_ATOM_COUNT>  (1) 
23

>  <PUBCHEM_ATOM_DEF_STEREO_COUNT>  (1) 
0

>  <PUBCHEM_ATOM_UDEF_STEREO_COUNT>  (1) 
0

>  <PUBCHEM_BOND_DEF_STEREO_COUNT>  (1) 
0

>  <PUBCHEM_BOND_UDEF_STEREO_COUNT>  (1) 
0

>  <PUBCHEM_ISOTOPIC_ATOM_COUNT>  (1) 
0

>  <PUBCHEM_COMPONENT_COUNT>  (1) 
1

>  <PUBCHEM_CACTVS_TAUTO_COUNT>  (1) 
1

>  <PUBCHEM_CONFORMER_ID>  (1) 
0000AD1500000001

>  <PUBCHEM_MMFF94_ENERGY>  (1) 
137.8614

>  <PUBCHEM_FEATURE_SELFOVERLAP>  (1) 
25.446

>  <PUBCHEM_SHAPE_FINGERPRINT>  (1) 
10 15 18337663231317541080
10411042 1 18410575115345008961
10616163 171 18411420600752566806
10906281 52 18266199334170474891
10967382 1 18410855503093678496
1100329 8 18194402414577478787
11578080 2 16952518096969381119
11806522 49 18408323285139576565
11963148 33 18337102470885810891
12011746 2 18409729573169596247
12107183 9 17616530657858073570
12166972 35 17894351098525828524
12403259 226 18410288077832411652
12553582 1 18340753931889207807
12838862 33 18267564957413284080
13140716 1 18122626325338062905
13402501 40 18410012169296554747
138480 1 17329709821533656038
13862211 1 18410008849075838267
14787075 74 18334859424124576483
14790565 3 18411426093789222849
15196674 1 18410573942212340672
15536298 74 18269837523847162430
16087824 20 18338233745188970189
16945 1 18410856594062987361
17349148 13 18113338604563028904
17492 89 18267020553176717282
1813 80 17312823762572103100
18681886 176 18411135832390352600
19591789 44 18411136888081908218
200 152 18272649047930338289
20028762 73 18201435925999546847
20510252 161 18343022142577791497
20691752 17 17386577851301000232
20715895 44 17686329876430136460
21236236 1 18412545384416214441
21267235 1 18411426106916555478
221490 88 18267028262800749486
2334 1 17762339519068885313
23402539 116 18412538790997661695
23557571 272 18272658922170999806
23559900 14 18411128147655208113
2748010 2 18194685864943538749
335352 9 18410575067509616413
34797466 226 17417820590717225940
34934 24 18337387115372974409
350125 39 18411983568244702865
4214541 1 18338517439249385536
474 4 17676215697358282948
474229 33 18411418418830130607
5104073 3 18340202977821441658
59755656 215 18408601470329860543
9709674 26 18339648841151967134

>  <PUBCHEM_SHAPE_MULTIPOLES>  (1) 
473.33
11.25
3.05
0.62
2.69
0.67
0
-3.36
0.04
1.12
0
0
0
-0.01

>  <PUBCHEM_SHAPE_SELFOVERLAP>  (1) 
1067.164

>  <PUBCHEM_SHAPE_VOLUME>  (1) 
232.6

>  <PUBCHEM_COORDINATE_TYPE>  (1) 
2
5
10

$$$$
