44304
     RDKit          3D

 14 15  0  0  0  0  0  0  0  0999 V2000
    4.2885    0.5628   -0.0005 N   0  0  0  0  0  0  0  0  0  0  0  0
    0.1036    0.1872    0.0003 C   0  0  0  0  0  0  0  0  0  0  0  0
    2.2907   -0.8391    0.0005 C   0  0  0  0  0  0  0  0  0  0  0  0
   -1.3382    0.0650   -0.0001 C   0  0  0  0  0  0  0  0  0  0  0  0
    0.9008   -0.9574    0.0006 C   0  0  0  0  0  0  0  0  0  0  0  0
    2.8832    0.4238   -0.0003 C   0  0  0  0  0  0  0  0  0  0  0  0
    0.6959    1.4500   -0.0004 C   0  0  0  0  0  0  0  0  0  0  0  0
    2.0857    1.5682   -0.0008 C   0  0  0  0  0  0  0  0  0  0  0  0
    3.1210   -2.0815    0.0010 C   0  0  0  0  0  0  0  0  0  0  0  0
   -2.0335    0.0075    1.2080 C   0  0  0  0  0  0  0  0  0  0  0  0
   -2.0331    0.0053   -1.2081 C   0  0  0  0  0  0  0  0  0  0  0  0
   -3.4233   -0.1100    1.2079 C   0  0  0  0  0  0  0  0  0  0  0  0
   -3.4231   -0.1121   -1.2080 C   0  0  0  0  0  0  0  0  0  0  0  0
   -4.1181   -0.1697    0.0000 C   0  0  0  0  0  0  0  0  0  0  0  0
  1  6  1  0
  2  4  1  0
  2  5  1  0
  2  7  2  0
  3  5  2  0
  3  6  1  0
  3  9  1  0
  4 10  2  0
  4 11  1  0
  6  8  2  0
  7  8  1  0
 10 12  1  0
 11 13  2  0
 12 14  2  0
 13 14  1  0
M  END
>  <PUBCHEM_COMPOUND_CID>  (1) 
44304

>  <PUBCHEM_CONFORMER_RMSD>  (1) 
0.4

>  <PUBCHEM_CONFORMER_DIVERSEORDER>  (1) 
1
2

>  <PUBCHEM_MMFF94_PARTIAL_CHARGES>  (1) 
22
1 -0.9
10 -0.15
11 -0.15
12 -0.15
13 -0.15
14 -0.15
15 0.15
16 0.15
17 0.15
21 0.15
22 0.15
23 0.15
24 0.15
25 0.15
26 0.4
27 0.4
3 -0.14
5 -0.15
6 0.1
7 -0.15
8 -0.15
9 0.14

>  <PUBCHEM_EFFECTIVE_ROTOR_COUNT>  (1) 
1

>  <PUBCHEM_PHARMACOPHORE_FEATURES>  (1) 
4
1 1 cation
1 1 donor
6 2 3 5 6 7 8 rings
6 4 10 11 12 13 14 rings

>  <PUBCHEM_HEAVY_ATOM_COUNT>  (1) 
14

>  <PUBCHEM_ATOM_DEF_STEREO_COUNT>  (1) 
0

>  <PUBCHEM_ATOM_UDEF_STEREO_COUNT>  (1) 
0

>  <PUBCHEM_BOND_DEF_STEREO_COUNT>  (1) 
0

>  <PUBCHEM_BOND_UDEF_STEREO_COUNT>  (1) 
0

>  <PUBCHEM_ISOTOPIC_ATOM_COUNT>  (1) 
0

>  <PUBCHEM_COMPONENT_COUNT>  (1) 
1

>  <PUBCHEM_CACTVS_TAUTO_COUNT>  (1) 
1

>  <PUBCHEM_CONFORMER_ID>  (1) 
0000AD1000000001

>  <PUBCHEM_MMFF94_ENERGY>  (1) 
55.1748

>  <PUBCHEM_FEATURE_SELFOVERLAP>  (1) 
20.297

>  <PUBCHEM_SHAPE_FINGERPRINT>  (1) 
10219947 1 18413390921194184926
11471102 20 18409448094182748268
12236239 1 17703792530903161225
124424 183 17531236271082732544
12932764 1 17775280560453403473
13296908 3 18040435464603333987
13581323 91 15140954080238638705
14144814 61 17988926669262610567
14251717 144 18411978061648126030
14576447 43 18129648828816706991
14993402 34 17988923387733562388
15219456 202 17967813842675257807
15309172 13 18412547630198884999
15375358 24 17967246520329182112
15375462 189 17988926677731239208
15653759 3 17167863079855448905
15669948 3 16558743559637073909
15775835 57 17560806536778943889
16945 1 18410575115144756772
17844478 74 17967254191357161149
1813 80 17986127222912633070
18175812 5 17603867853118790613
18186145 218 18412829079273786759
19049666 15 17677884648081156829
19422 9 17846500318162383271
200 152 18272082816848684791
20201158 50 18186239532540804586
20279233 1 17748545948209048267
204376 136 18266456706075732472
20645477 70 18337100168624272935
20715346 28 17821450187775270897
20871998 22 18055921991919085150
21639500 275 18340197617444169325
21730867 7 18261112984595172234
2255824 54 18272370918828239716
23402539 116 16009019618538009367
23402655 69 18412538791319733397
23557571 272 16877940533654431941
23559900 14 16950839216013222586
2748010 2 18194110820931976156
474 4 17771894193789955928
581208 293 18411696608383329848
77492 1 17703791431328223429

>  <PUBCHEM_SHAPE_MULTIPOLES>  (1) 
283.13
7.39
1.41
1.03
0.92
0.19
0
0.84
0
-1.76
0
1.15
0.03
0

>  <PUBCHEM_SHAPE_SELFOVERLAP>  (1) 
613.566

>  <PUBCHEM_SHAPE_VOLUME>  (1) 
155.5

>  <PUBCHEM_COORDINATE_TYPE>  (1) 
2
5
10

$$$$
