44317
     RDKit          3D

 21 24  0  0  0  0  0  0  0  0999 V2000
   -4.0004   -1.2106    0.2388 O   0  0  0  0  0  0  0  0  0  0  0  0
    0.9222    0.3209    0.0168 C   0  0  0  0  0  0  0  0  0  0  0  0
    0.2943   -0.9461    0.1009 C   0  0  0  0  0  0  0  0  0  0  0  0
   -1.1069   -1.0500    0.1466 C   0  0  0  0  0  0  0  0  0  0  0  0
   -1.9310    0.0829    0.1121 C   0  0  0  0  0  0  0  0  0  0  0  0
   -1.3357    1.3546    0.0299 C   0  0  0  0  0  0  0  0  0  0  0  0
    2.3608    0.3904   -0.0285 C   0  0  0  0  0  0  0  0  0  0  0  0
    0.0682    1.4532   -0.0162 C   0  0  0  0  0  0  0  0  0  0  0  0
    3.1142   -0.8118    0.0131 C   0  0  0  0  0  0  0  0  0  0  0  0
    1.0702   -2.1077    0.1390 C   0  0  0  0  0  0  0  0  0  0  0  0
   -3.3316   -0.0227    0.1580 C   0  0  0  0  0  0  0  0  0  0  0  0
    2.4587   -2.0421    0.0961 C   0  0  0  0  0  0  0  0  0  0  0  0
   -1.7109   -2.4282    0.2341 C   0  0  0  0  0  0  0  0  0  0  0  0
   -2.1570    2.4948   -0.0040 C   0  0  0  0  0  0  0  0  0  0  0  0
    3.0980    1.5984   -0.1140 C   0  0  0  0  0  0  0  0  0  0  0  0
    4.5186   -0.7788   -0.0289 C   0  0  0  0  0  0  0  0  0  0  0  0
   -4.1332    1.1180    0.1231 C   0  0  0  0  0  0  0  0  0  0  0  0
   -3.5463    2.3763    0.0422 C   0  0  0  0  0  0  0  0  0  0  0  0
    4.4949    1.6176   -0.1553 C   0  0  0  0  0  0  0  0  0  0  0  0
    5.2055    0.4282   -0.1124 C   0  0  0  0  0  0  0  0  0  0  0  0
   -4.3528   -1.8372   -0.9913 C   0  0  0  0  0  0  0  0  0  0  0  0
  1 11  1  0
  1 21  1  0
  2  3  1  0
  2  7  1  0
  2  8  2  0
  3  4  2  0
  3 10  1  0
  4  5  1  0
  4 13  1  0
  5  6  2  0
  5 11  1  0
  6  8  1  0
  6 14  1  0
  7  9  2  0
  7 15  1  0
  9 12  1  0
  9 16  1  0
 10 12  2  0
 11 17  2  0
 14 18  2  0
 15 19  2  0
 16 20  2  0
 17 18  1  0
 19 20  1  0
M  END
>  <PUBCHEM_COMPOUND_CID>  (1) 
44317

>  <PUBCHEM_CONFORMER_RMSD>  (1) 
0.6

>  <PUBCHEM_CONFORMER_DIVERSEORDER>  (1) 
1

>  <PUBCHEM_MMFF94_PARTIAL_CHARGES>  (1) 
25
1 -0.36
10 -0.15
11 0.08
12 -0.15
13 0.14
14 -0.15
15 -0.15
16 -0.15
17 -0.15
18 -0.15
19 -0.15
20 -0.15
21 0.28
22 0.15
23 0.15
24 0.15
28 0.15
29 0.15
30 0.15
31 0.15
32 0.15
33 0.15
34 0.15
4 -0.14
8 -0.15

>  <PUBCHEM_EFFECTIVE_ROTOR_COUNT>  (1) 
1

>  <PUBCHEM_PHARMACOPHORE_FEATURES>  (1) 
5
1 1 acceptor
6 2 3 4 5 6 8 rings
6 2 3 7 9 10 12 rings
6 5 6 11 14 17 18 rings
6 7 9 15 16 19 20 rings

>  <PUBCHEM_HEAVY_ATOM_COUNT>  (1) 
21

>  <PUBCHEM_ATOM_DEF_STEREO_COUNT>  (1) 
0

>  <PUBCHEM_ATOM_UDEF_STEREO_COUNT>  (1) 
0

>  <PUBCHEM_BOND_DEF_STEREO_COUNT>  (1) 
0

>  <PUBCHEM_BOND_UDEF_STEREO_COUNT>  (1) 
0

>  <PUBCHEM_ISOTOPIC_ATOM_COUNT>  (1) 
0

>  <PUBCHEM_COMPONENT_COUNT>  (1) 
1

>  <PUBCHEM_CACTVS_TAUTO_COUNT>  (1) 
1

>  <PUBCHEM_CONFORMER_ID>  (1) 
0000AD1D00000001

>  <PUBCHEM_MMFF94_ENERGY>  (1) 
103.2623

>  <PUBCHEM_FEATURE_SELFOVERLAP>  (1) 
25.446

>  <PUBCHEM_SHAPE_FINGERPRINT>  (1) 
10411042 1 17761777668554128842
10498660 4 18409446964316536948
10608611 8 18409730621241992480
10616163 171 18411702097003744839
10646746 165 18410576163153635348
10670039 82 18188224173348179556
10967382 1 18337674105351560696
11578080 2 14044090003675110081
12107183 9 17760927338122047368
12390115 104 18199206017407003857
12403259 226 18413101783991030744
12403259 415 18202281433603795936
12403260 363 18408879664004063984
12403814 3 17676204658796596605
13140716 1 17977113679753539465
13224815 77 18409729551641947088
138480 1 17472981701191541962
14787075 74 18340486771843127544
14790565 3 17981050708987323297
15196674 1 18410293597149606522
15442244 35 18192992625859040722
15536298 74 18341051813788487294
16087824 20 18411698752833280645
16945 1 18336274547398020515
17349148 13 18114178661537762120
17492 89 18339079293976291951
18681886 176 18413105083427545936
19591789 44 18411981390173648104
200 152 18201718474437616075
20510252 161 18342461426139252433
20715895 44 17903065638831098845
21236236 1 18412545426701054189
21267235 1 18410302431549661971
21501502 16 18337950095407101595
21709351 56 18335136479912346740
221490 88 18337963285552620794
22393880 68 18339646633696584614
23227448 37 18411982459599393078
2334 1 18410010996960107617
23366157 5 17969226625260792650
23402539 116 18411975875451464533
23557571 272 18201164320793508038
23559900 14 18127127473019655262
238 59 16526624333940919661
2748010 2 18264776458776148773
2871803 45 18409162242344414078
335352 9 18265615369153045198
34934 24 18336824187495789281
350125 39 18410858771601038937
3545911 37 18337956696798462548
4214541 1 18410856538355155968
474 4 17676496072612460132
4990 188 18059864939410626100
5104073 3 18409449155023795056
69090 78 18410855447427889256
7364860 26 18268712702040745926
77779 3 18411139108680298468
9709674 26 18411144619049811102
9981440 41 18334011713687310818

>  <PUBCHEM_SHAPE_MULTIPOLES>  (1) 
426.3
9.6
2.78
0.67
3.72
0.06
0.05
-1.35
0.82
-1.52
0.04
-0.2
0.09
-0.47

>  <PUBCHEM_SHAPE_SELFOVERLAP>  (1) 
972.327

>  <PUBCHEM_SHAPE_VOLUME>  (1) 
223.9

>  <PUBCHEM_COORDINATE_TYPE>  (1) 
2
5
10

$$$$
