44316
     RDKit          3D

 22 25  0  0  0  0  0  0  0  0999 V2000
    3.1654   -2.1992   -0.4312 O   0  0  0  0  0  0  0  0  0  0  0  0
   -0.1395   -0.6666   -0.2047 C   0  0  0  0  0  0  0  0  0  0  0  0
   -1.4783   -1.0940   -0.2436 C   0  0  0  0  0  0  0  0  0  0  0  0
    0.1765    0.7039   -0.0371 C   0  0  0  0  0  0  0  0  0  0  0  0
   -2.5433   -0.1918   -0.1193 C   0  0  0  0  0  0  0  0  0  0  0  0
    1.5596    1.1068   -0.0017 C   0  0  0  0  0  0  0  0  0  0  0  0
   -2.2599    1.1756    0.0483 C   0  0  0  0  0  0  0  0  0  0  0  0
   -0.9174    1.5984    0.0864 C   0  0  0  0  0  0  0  0  0  0  0  0
   -1.7887   -2.5574   -0.4231 C   0  0  0  0  0  0  0  0  0  0  0  0
    2.5720    0.1211   -0.1355 C   0  0  0  0  0  0  0  0  0  0  0  0
    0.8852   -1.6081   -0.3331 C   0  0  0  0  0  0  0  0  0  0  0  0
    2.2205   -1.2205   -0.2991 C   0  0  0  0  0  0  0  0  0  0  0  0
   -3.8812   -0.6206   -0.1583 C   0  0  0  0  0  0  0  0  0  0  0  0
    1.9956    2.4460    0.1607 C   0  0  0  0  0  0  0  0  0  0  0  0
   -3.3240    2.0856    0.1735 C   0  0  0  0  0  0  0  0  0  0  0  0
    3.9303    0.4806   -0.1053 C   0  0  0  0  0  0  0  0  0  0  0  0
   -1.8902   -3.2816    0.9103 C   0  0  0  0  0  0  0  0  0  0  0  0
   -4.9262    0.2945   -0.0326 C   0  0  0  0  0  0  0  0  0  0  0  0
   -4.6477    1.6471    0.1332 C   0  0  0  0  0  0  0  0  0  0  0  0
    3.3499    2.7904    0.1891 C   0  0  0  0  0  0  0  0  0  0  0  0
    4.3176    1.8070    0.0560 C   0  0  0  0  0  0  0  0  0  0  0  0
    3.6238   -2.8172    0.7672 C   0  0  0  0  0  0  0  0  0  0  0  0
  1 12  1  0
  1 22  1  0
  2  3  2  0
  2  4  1  0
  2 11  1  0
  3  5  1  0
  3  9  1  0
  4  6  1  0
  4  8  2  0
  5  7  2  0
  5 13  1  0
  6 10  2  0
  6 14  1  0
  7  8  1  0
  7 15  1  0
  9 17  1  0
 10 12  1  0
 10 16  1  0
 11 12  2  0
 13 18  2  0
 14 20  2  0
 15 19  2  0
 16 21  2  0
 18 19  1  0
 20 21  1  0
M  END
>  <PUBCHEM_COMPOUND_CID>  (1) 
44316

>  <PUBCHEM_CONFORMER_RMSD>  (1) 
0.6

>  <PUBCHEM_CONFORMER_DIVERSEORDER>  (1) 
2
1

>  <PUBCHEM_MMFF94_PARTIAL_CHARGES>  (1) 
25
1 -0.36
11 -0.15
12 0.08
13 -0.15
14 -0.15
15 -0.15
16 -0.15
18 -0.15
19 -0.15
20 -0.15
21 -0.15
22 0.28
23 0.15
26 0.15
27 0.15
28 0.15
29 0.15
3 -0.14
30 0.15
34 0.15
35 0.15
36 0.15
37 0.15
8 -0.15
9 0.14

>  <PUBCHEM_EFFECTIVE_ROTOR_COUNT>  (1) 
2

>  <PUBCHEM_PHARMACOPHORE_FEATURES>  (1) 
6
1 1 acceptor
1 17 hydrophobe
6 2 3 4 5 7 8 rings
6 2 4 6 10 11 12 rings
6 5 7 13 15 18 19 rings
6 6 10 14 16 20 21 rings

>  <PUBCHEM_HEAVY_ATOM_COUNT>  (1) 
22

>  <PUBCHEM_ATOM_DEF_STEREO_COUNT>  (1) 
0

>  <PUBCHEM_ATOM_UDEF_STEREO_COUNT>  (1) 
0

>  <PUBCHEM_BOND_DEF_STEREO_COUNT>  (1) 
0

>  <PUBCHEM_BOND_UDEF_STEREO_COUNT>  (1) 
0

>  <PUBCHEM_ISOTOPIC_ATOM_COUNT>  (1) 
0

>  <PUBCHEM_COMPONENT_COUNT>  (1) 
1

>  <PUBCHEM_CACTVS_TAUTO_COUNT>  (1) 
1

>  <PUBCHEM_CONFORMER_ID>  (1) 
0000AD1C00000002

>  <PUBCHEM_MMFF94_ENERGY>  (1) 
94.1363

>  <PUBCHEM_FEATURE_SELFOVERLAP>  (1) 
30.519

>  <PUBCHEM_SHAPE_FINGERPRINT>  (1) 
10411042 1 17403178097764779591
10608611 8 18411982489711902957
10616163 171 18267868465482468110
10967382 1 18411982468300311540
1100329 8 18337106744393321898
11370993 70 18411697707715849901
11680986 33 18409739477348486298
12107183 9 17837214779457726113
12390115 104 17981906433865530592
12403259 226 18191301581022614309
12403259 415 18187646843680785389
12403260 363 18269547257061905781
12553582 1 18121206585803573918
12633257 1 18261377950065750578
12644460 14 18408609136703883960
12788726 201 17632306618187105009
12930653 34 18194402418851145670
13140716 1 18267295620468053728
138480 1 17907298745501897615
14022347 108 18051141293881761014
14178342 30 18191578860053283168
14223421 5 18338804540627914242
14466204 15 17904758877962543673
14787075 74 18272366508260713109
14790565 3 18269562641893963673
15196674 1 18411982430004191573
15442244 35 18340205176770836776
15475509 35 17023469629438440459
15475509 8 17412491046976327828
15536298 74 18343021064498717484
16945 1 18411141371832469556
17492 89 18412262848156041415
19591789 44 18192993725143470797
20028762 73 18201148842212194599
20510252 161 17838622506401892880
20739085 24 18119837736586800841
21267235 1 18340778043666912958
21421861 104 18041549240439830474
21501502 16 18341325660518398878
21859007 373 17534037702035448717
221490 88 18409738343471774043
22182313 1 18127434425209466862
22393880 68 18270407208351567268
23227448 37 18341049730602891461
23366157 5 18187365433012026068
23558518 356 18043532934982703738
23559900 14 18343300332305479510
2748010 2 18124880311205731718
283562 15 17835236023219822531
335352 9 18267867181323955868
345986 75 17029641051114898826
34934 24 18412541050314041446
350125 39 18266180534856306581
3545911 37 18411421742981856421
474 4 17968661634934057828
5104073 3 18411142398857246233
5309563 4 17472702906459358787
543358 83 18341336613027868868
59755656 215 18411704288143850404
633830 44 18271242695539230253
7364860 26 18413671297118080324
9709674 26 18341336672846330847
9981440 41 18049152560677189256

>  <PUBCHEM_SHAPE_MULTIPOLES>  (1) 
446.88
8.8
3.6
0.71
2.09
1.54
0.05
-2.9
0.39
-1.45
0.62
-0.02
0.23
-0.05

>  <PUBCHEM_SHAPE_SELFOVERLAP>  (1) 
1009.551

>  <PUBCHEM_SHAPE_VOLUME>  (1) 
237.6

>  <PUBCHEM_COORDINATE_TYPE>  (1) 
2
5
10

$$$$
