44312
     RDKit          3D

 21 24  0  0  0  0  0  0  0  0999 V2000
   -3.0847   -3.9655    0.5340 O   0  0  0  0  0  0  0  0  0  0  0  0
   -1.3206   -0.7536   -0.2975 C   0  0  0  0  0  0  0  0  0  0  0  0
    0.0836   -0.7338   -0.2310 C   0  0  0  0  0  0  0  0  0  0  0  0
    0.7799    0.4832   -0.0301 C   0  0  0  0  0  0  0  0  0  0  0  0
   -2.0806    0.4167   -0.1691 C   0  0  0  0  0  0  0  0  0  0  0  0
   -1.4164    1.6401    0.0313 C   0  0  0  0  0  0  0  0  0  0  0  0
    2.2195    0.4669    0.0331 C   0  0  0  0  0  0  0  0  0  0  0  0
   -2.0375   -2.0619   -0.5119 C   0  0  0  0  0  0  0  0  0  0  0  0
   -0.0099    1.6546    0.0970 C   0  0  0  0  0  0  0  0  0  0  0  0
    2.9052   -0.7678   -0.1075 C   0  0  0  0  0  0  0  0  0  0  0  0
    0.7938   -1.9298   -0.3651 C   0  0  0  0  0  0  0  0  0  0  0  0
    2.1831   -1.9469   -0.3043 C   0  0  0  0  0  0  0  0  0  0  0  0
   -3.4843    0.3951   -0.2357 C   0  0  0  0  0  0  0  0  0  0  0  0
   -2.1732    2.8176    0.1610 C   0  0  0  0  0  0  0  0  0  0  0  0
   -2.3774   -2.7611    0.8007 C   0  0  0  0  0  0  0  0  0  0  0  0
    3.0217    1.6192    0.2298 C   0  0  0  0  0  0  0  0  0  0  0  0
    4.3085   -0.8185   -0.0508 C   0  0  0  0  0  0  0  0  0  0  0  0
   -4.2215    1.5720   -0.1053 C   0  0  0  0  0  0  0  0  0  0  0  0
   -3.5662    2.7827    0.0929 C   0  0  0  0  0  0  0  0  0  0  0  0
    4.4168    1.5552    0.2844 C   0  0  0  0  0  0  0  0  0  0  0  0
    5.0604    0.3357    0.1440 C   0  0  0  0  0  0  0  0  0  0  0  0
  1 15  1  0
  2  3  2  0
  2  5  1  0
  2  8  1  0
  3  4  1  0
  3 11  1  0
  4  7  1  0
  4  9  2  0
  5  6  2  0
  5 13  1  0
  6  9  1  0
  6 14  1  0
  7 10  2  0
  7 16  1  0
  8 15  1  0
 10 12  1  0
 10 17  1  0
 11 12  2  0
 13 18  2  0
 14 19  2  0
 16 20  2  0
 17 21  2  0
 18 19  1  0
 20 21  1  0
M  END
>  <PUBCHEM_COMPOUND_CID>  (1) 
44312

>  <PUBCHEM_CONFORMER_RMSD>  (1) 
0.6

>  <PUBCHEM_CONFORMER_DIVERSEORDER>  (1) 
1
2

>  <PUBCHEM_MMFF94_PARTIAL_CHARGES>  (1) 
27
1 -0.68
11 -0.15
12 -0.15
13 -0.15
14 -0.15
15 0.28
16 -0.15
17 -0.15
18 -0.15
19 -0.15
2 -0.14
20 -0.15
21 -0.15
24 0.15
25 0.15
26 0.15
27 0.15
28 0.15
31 0.15
32 0.15
33 0.15
34 0.15
35 0.15
36 0.15
37 0.4
8 0.14
9 -0.15

>  <PUBCHEM_EFFECTIVE_ROTOR_COUNT>  (1) 
2

>  <PUBCHEM_PHARMACOPHORE_FEATURES>  (1) 
6
1 1 acceptor
1 1 donor
6 2 3 4 5 6 9 rings
6 3 4 7 10 11 12 rings
6 5 6 13 14 18 19 rings
6 7 10 16 17 20 21 rings

>  <PUBCHEM_HEAVY_ATOM_COUNT>  (1) 
21

>  <PUBCHEM_ATOM_DEF_STEREO_COUNT>  (1) 
0

>  <PUBCHEM_ATOM_UDEF_STEREO_COUNT>  (1) 
0

>  <PUBCHEM_BOND_DEF_STEREO_COUNT>  (1) 
0

>  <PUBCHEM_BOND_UDEF_STEREO_COUNT>  (1) 
0

>  <PUBCHEM_ISOTOPIC_ATOM_COUNT>  (1) 
0

>  <PUBCHEM_COMPONENT_COUNT>  (1) 
1

>  <PUBCHEM_CACTVS_TAUTO_COUNT>  (1) 
1

>  <PUBCHEM_CONFORMER_ID>  (1) 
0000AD1800000001

>  <PUBCHEM_MMFF94_ENERGY>  (1) 
79.0043

>  <PUBCHEM_FEATURE_SELFOVERLAP>  (1) 
30.519

>  <PUBCHEM_SHAPE_FINGERPRINT>  (1) 
10319926 262 18340751703603009226
10411042 1 17978510067937526887
10608611 8 18341328912077764588
10616163 171 18411701019161969990
10967382 1 18340486638899809244
1100329 8 18048311150677604722
11370993 70 18339637824275782404
12390115 104 18199483206628819208
12403814 3 17822007571425119101
12788726 201 18044090396163340410
12969540 114 18043230376449543373
13140716 1 18196377137534941161
138480 1 17041761989757746567
14178342 30 18335411400758270914
14223421 5 18341053024900757898
14787075 74 18200867392967831157
14790565 3 18124883356813194713
15042514 8 18337396040926977795
15196674 1 18341048506384321948
15420108 30 14820664848677341096
15536298 74 18128253394137272116
16087824 20 18412260658903602567
16945 1 18339086998993633412
17492 89 18409448128891451818
19591789 44 18049442539288075711
20510252 161 18270120252711821610
20602899 9 15697989730681118765
21033648 29 18264756675804420865
21041028 32 18048601718205134015
21065198 57 18410293605950674130
21267235 1 18341338790249039116
22182313 1 18130806563237561886
22182937 141 18341900670819056801
22224240 67 18341622461078145401
23227448 37 18412261731279207252
2334 1 18195808702485841325
23402539 116 18270951367543902941
23557571 272 18342465875751608366
23558518 356 18188494682740184570
23559900 14 18271242717219989502
23845131 108 18048610227062777753
2748010 2 17981309407530241261
3091708 16 9127661186546005475
335352 9 18268429028125000774
34934 24 18410286982609865830
350125 39 18195532708009122328
352729 6 18342460317863350143
4214541 1 18411980243692043860
5104073 3 18339360760378009704
54173680 148 18337674221494986747
633830 44 17840866274821998045
69090 78 18340201886678474389
7097593 13 17898833674747786186
7364860 26 18127691518163025742
9709674 26 18342741788745878590

>  <PUBCHEM_SHAPE_MULTIPOLES>  (1) 
426.3
8.55
3.62
0.7
5.51
2.09
-0.02
-2.9
-0.45
-4.01
-0.59
-0.11
0.16
0.62

>  <PUBCHEM_SHAPE_SELFOVERLAP>  (1) 
966.186

>  <PUBCHEM_SHAPE_VOLUME>  (1) 
224.8

>  <PUBCHEM_COORDINATE_TYPE>  (1) 
2
5
10

$$$$
