44310
     RDKit          3D

 19 22  0  0  0  0  0  0  0  0999 V2000
   -1.7098   -0.5781   -0.0329 C   0  0  0  0  0  0  0  0  0  0  0  0
   -2.1642   -2.0273   -0.0290 C   0  0  0  0  0  0  0  0  0  0  0  0
   -2.6721    0.4551    0.0025 C   0  0  0  0  0  0  0  0  0  0  0  0
   -3.6424   -2.2324   -0.3554 C   0  0  0  0  0  0  0  0  0  0  0  0
   -4.1556    0.1764   -0.0017 C   0  0  0  0  0  0  0  0  0  0  0  0
   -4.5011   -1.2472    0.4184 C   0  0  0  0  0  0  0  0  0  0  0  0
   -0.3167   -0.2566   -0.0174 C   0  0  0  0  0  0  0  0  0  0  0  0
    0.0735    1.1042   -0.0177 C   0  0  0  0  0  0  0  0  0  0  0  0
   -2.2545    1.7895   -0.0078 C   0  0  0  0  0  0  0  0  0  0  0  0
   -0.9007    2.1087   -0.0195 C   0  0  0  0  0  0  0  0  0  0  0  0
    0.7158   -1.2255    0.0034 C   0  0  0  0  0  0  0  0  0  0  0  0
    1.4352    1.4528   -0.0123 C   0  0  0  0  0  0  0  0  0  0  0  0
    2.0800   -0.8805    0.0112 C   0  0  0  0  0  0  0  0  0  0  0  0
    2.4441    0.4792    0.0012 C   0  0  0  0  0  0  0  0  0  0  0  0
   -0.5523    3.5665   -0.0404 C   0  0  0  0  0  0  0  0  0  0  0  0
    3.0874   -1.8601    0.0292 C   0  0  0  0  0  0  0  0  0  0  0  0
    3.8051    0.8290    0.0082 C   0  0  0  0  0  0  0  0  0  0  0  0
    4.4349   -1.4988    0.0354 C   0  0  0  0  0  0  0  0  0  0  0  0
    4.7935   -0.1549    0.0246 C   0  0  0  0  0  0  0  0  0  0  0  0
  1  2  1  0
  1  3  2  0
  1  7  1  0
  2  4  1  0
  3  5  1  0
  3  9  1  0
  4  6  1  0
  5  6  1  0
  7  8  2  0
  7 11  1  0
  8 10  1  0
  8 12  1  0
  9 10  2  0
 10 15  1  0
 11 13  2  0
 12 14  2  0
 13 14  1  0
 13 16  1  0
 14 17  1  0
 16 18  2  0
 17 19  2  0
 18 19  1  0
M  END
>  <PUBCHEM_COMPOUND_CID>  (1) 
44310

>  <PUBCHEM_CONFORMER_RMSD>  (1) 
0.6

>  <PUBCHEM_CONFORMER_DIVERSEORDER>  (1) 
1

>  <PUBCHEM_MMFF94_PARTIAL_CHARGES>  (1) 
20
1 -0.14
10 -0.14
11 -0.15
12 -0.15
15 0.14
16 -0.15
17 -0.15
18 -0.15
19 -0.15
2 0.14
28 0.15
29 0.15
3 -0.14
30 0.15
34 0.15
35 0.15
36 0.15
37 0.15
5 0.14
9 -0.15

>  <PUBCHEM_EFFECTIVE_ROTOR_COUNT>  (1) 
0.8

>  <PUBCHEM_PHARMACOPHORE_FEATURES>  (1) 
4
6 1 2 3 4 5 6 rings
6 1 3 7 8 9 10 rings
6 13 14 16 17 18 19 rings
6 7 8 11 12 13 14 rings

>  <PUBCHEM_HEAVY_ATOM_COUNT>  (1) 
19

>  <PUBCHEM_ATOM_DEF_STEREO_COUNT>  (1) 
0

>  <PUBCHEM_ATOM_UDEF_STEREO_COUNT>  (1) 
0

>  <PUBCHEM_BOND_DEF_STEREO_COUNT>  (1) 
0

>  <PUBCHEM_BOND_UDEF_STEREO_COUNT>  (1) 
0

>  <PUBCHEM_ISOTOPIC_ATOM_COUNT>  (1) 
0

>  <PUBCHEM_COMPONENT_COUNT>  (1) 
1

>  <PUBCHEM_CACTVS_TAUTO_COUNT>  (1) 
1

>  <PUBCHEM_CONFORMER_ID>  (1) 
0000AD1600000001

>  <PUBCHEM_MMFF94_ENERGY>  (1) 
57.2218

>  <PUBCHEM_FEATURE_SELFOVERLAP>  (1) 
20.368

>  <PUBCHEM_SHAPE_FINGERPRINT>  (1) 
10319926 262 18124572225672394226
10411042 1 18338797926605450047
10616163 171 18340206293499757350
10618630 7 18409167714100899284
10967382 1 18266459986792092260
11045515 52 18114179748354944773
11578080 2 17488438919349064393
11806522 49 18407760352397666422
12032990 46 18410013255891300705
12403259 226 18340481188918892936
12553582 1 18338507629517811723
12788726 201 18334574594878602432
13140716 1 18411985758297858649
13288520 33 18412266112467563358
13544653 18 18334299802892128691
138480 1 15168263311921093797
13862211 1 18410569608722682027
14178342 30 18120076309393135282
14787075 74 18187929550953900266
14790565 3 17907864998665490897
15042514 8 18338239250085991865
15196674 1 18410575084663078922
15352361 1 18410574024064937975
15536298 74 18342175591970949202
16087824 20 18337955563998481829
16945 1 18267021643965749172
17349148 13 17894349973618942842
17357779 13 18263343906820758661
17492 89 18337108939317139610
17804303 29 18342460339369984433
1813 80 17603586343692768580
19141452 34 18272091617279255519
19591789 44 18411135857068516395
200 152 18202558497538057159
20261772 1 18060416949571128830
20510252 161 18270962310846182016
21029758 11 18411414038300871365
21029758 27 18335145327555454061
21267235 1 18410302414375041555
21421861 104 18043810888017991714
221490 88 18118971535992616931
2297311 6 18341625797539422030
2334 1 18338796826771497255
23366157 5 17826509165171172469
23402539 116 18343013385577162399
23463225 33 18410576209965622605
23557571 272 18272661112504061532
23558518 356 18118132363712250040
23559900 14 18412537704872407344
23845131 108 17403753146799479345
2748010 2 18340193189438271773
2871803 45 18334571343493595018
3091708 16 9136369339791444833
335352 9 18410856551836033821
34934 24 18409724063037811155
350125 39 18411981373806467488
4214541 1 18410855421484012138
5104073 3 18340765945112955266
7097593 13 17466494617216349890
7364860 26 18051693544812834273
8809292 202 18334579052954668771
9709674 26 18198906903252588862

>  <PUBCHEM_SHAPE_MULTIPOLES>  (1) 
391.01
8.58
2.93
0.63
2.68
1.67
0
-4.49
0.27
-1.25
-0.09
-0.07
-0.03
-0.05

>  <PUBCHEM_SHAPE_SELFOVERLAP>  (1) 
878.941

>  <PUBCHEM_SHAPE_VOLUME>  (1) 
194.1

>  <PUBCHEM_COORDINATE_TYPE>  (1) 
2
5
10

$$$$
