44311
     RDKit          3D

 22 25  0  0  0  0  0  0  0  0999 V2000
   -1.8799   -0.3111    0.0003 C   0  0  0  0  0  0  0  0  0  0  0  0
    0.9498    0.1358   -0.0001 C   0  0  0  0  0  0  0  0  0  0  0  0
   -1.3772    1.0025    0.0000 C   0  0  0  0  0  0  0  0  0  0  0  0
    0.4144   -1.1756    0.0001 C   0  0  0  0  0  0  0  0  0  0  0  0
   -0.9763   -1.3822    0.0003 C   0  0  0  0  0  0  0  0  0  0  0  0
    0.0164    1.2039   -0.0001 C   0  0  0  0  0  0  0  0  0  0  0  0
   -3.2698   -0.5192    0.0004 C   0  0  0  0  0  0  0  0  0  0  0  0
    2.3802    0.3107   -0.0001 C   0  0  0  0  0  0  0  0  0  0  0  0
   -4.1517    0.5613    0.0004 C   0  0  0  0  0  0  0  0  0  0  0  0
    3.2183   -0.8349    0.0000 C   0  0  0  0  0  0  0  0  0  0  0  0
   -2.2787    2.0811    0.0000 C   0  0  0  0  0  0  0  0  0  0  0  0
    1.2719   -2.2791    0.0003 C   0  0  0  0  0  0  0  0  0  0  0  0
   -1.4631   -2.8079    0.0001 C   0  0  0  0  0  0  0  0  0  0  0  0
    0.4173    2.6512    0.0003 C   0  0  0  0  0  0  0  0  0  0  0  0
   -3.6564    1.8609    0.0004 C   0  0  0  0  0  0  0  0  0  0  0  0
    2.6525   -2.1117    0.0003 C   0  0  0  0  0  0  0  0  0  0  0  0
   -3.9166   -1.8734   -0.0013 C   0  0  0  0  0  0  0  0  0  0  0  0
    3.0288    1.5713   -0.0004 C   0  0  0  0  0  0  0  0  0  0  0  0
    4.6171   -0.6991    0.0000 C   0  0  0  0  0  0  0  0  0  0  0  0
   -5.6338    0.3658   -0.0005 C   0  0  0  0  0  0  0  0  0  0  0  0
    4.4212    1.6927   -0.0003 C   0  0  0  0  0  0  0  0  0  0  0  0
    5.2156    0.5569   -0.0001 C   0  0  0  0  0  0  0  0  0  0  0  0
  1  3  1  0
  1  5  2  0
  1  7  1  0
  2  4  2  0
  2  6  1  0
  2  8  1  0
  3  6  2  0
  3 11  1  0
  4  5  1  0
  4 12  1  0
  5 13  1  0
  6 14  1  0
  7  9  2  0
  7 17  1  0
  8 10  2  0
  8 18  1  0
  9 15  1  0
  9 20  1  0
 10 16  1  0
 10 19  1  0
 11 15  2  0
 12 16  2  0
 18 21  2  0
 19 22  2  0
 21 22  1  0
M  END
>  <PUBCHEM_COMPOUND_CID>  (1) 
44311

>  <PUBCHEM_CONFORMER_RMSD>  (1) 
0.6

>  <PUBCHEM_CONFORMER_DIVERSEORDER>  (1) 
1

>  <PUBCHEM_MMFF94_PARTIAL_CHARGES>  (1) 
24
11 -0.15
12 -0.15
13 0.14
14 0.14
15 -0.15
16 -0.15
17 0.14
18 -0.15
19 -0.15
20 0.14
21 -0.15
22 -0.15
23 0.15
24 0.15
31 0.15
32 0.15
36 0.15
37 0.15
41 0.15
42 0.15
5 -0.14
6 -0.14
7 -0.14
9 -0.14

>  <PUBCHEM_EFFECTIVE_ROTOR_COUNT>  (1) 
0

>  <PUBCHEM_PHARMACOPHORE_FEATURES>  (1) 
4
6 1 2 3 4 5 6 rings
6 1 3 7 9 11 15 rings
6 2 4 8 10 12 16 rings
6 8 10 18 19 21 22 rings

>  <PUBCHEM_HEAVY_ATOM_COUNT>  (1) 
22

>  <PUBCHEM_ATOM_DEF_STEREO_COUNT>  (1) 
0

>  <PUBCHEM_ATOM_UDEF_STEREO_COUNT>  (1) 
0

>  <PUBCHEM_BOND_DEF_STEREO_COUNT>  (1) 
0

>  <PUBCHEM_BOND_UDEF_STEREO_COUNT>  (1) 
0

>  <PUBCHEM_ISOTOPIC_ATOM_COUNT>  (1) 
0

>  <PUBCHEM_COMPONENT_COUNT>  (1) 
1

>  <PUBCHEM_CACTVS_TAUTO_COUNT>  (1) 
1

>  <PUBCHEM_CONFORMER_ID>  (1) 
0000AD1700000001

>  <PUBCHEM_MMFF94_ENERGY>  (1) 
137.4425

>  <PUBCHEM_FEATURE_SELFOVERLAP>  (1) 
20.37

>  <PUBCHEM_SHAPE_FINGERPRINT>  (1) 
10411042 1 17617941777917191882
10616163 171 18411420652139329990
10906281 52 18340225036789420733
10967382 1 18410856538175502596
1100329 8 18339081617516045825
11112241 14 16269370894110419592
11578080 2 16952518096758456023
12011746 2 18411699885095321229
12107183 9 17690279309332499865
12236239 1 17749107794397987912
12390115 104 18200611184798699273
12403814 3 17676202464073557181
12788726 201 17560808662851527337
12838862 33 18338778079186983373
13140716 1 17978236281062266643
13224815 77 18410293579642709200
138480 1 17617940236171365826
14787075 74 18413385445305996345
14790565 3 18411426081120683289
15196674 1 18410856581183327750
15536298 74 18341895151991731566
1601671 61 18411699898138562936
16945 1 18338799038911828199
17492 89 18410573950856081723
1813 80 17095529473849398356
18681886 176 18411979196384577616
19591789 44 18411136960922175010
200 152 18060134336754787621
20510252 161 18271527498509154609
20715895 44 17902501602266691621
20739085 24 18048625649652306641
21029758 11 18342736329926919121
21267235 1 18410864230488563350
21279426 13 18268431222499880588
21421861 104 17969494906029119546
23227448 37 18341048605121136254
2334 1 18410855421753076451
23366157 5 18042128648560775506
23402539 116 18342450465197947239
23559900 14 18342172319290798520
2748010 2 18338519621224426487
3004659 81 18334014965631096126
335352 9 18410855451538253631
34934 24 18410570703849548306
350125 39 18410576201434015480
3545911 37 18410013225647279044
3680242 22 18263079920898149306
4214541 1 18410575076141962944
4409770 3 16095997220751846366
474 4 17822017531654387468
495365 180 17346306142490635720
5104073 3 18410011026798188634
59755656 215 18411987927852663110
69090 78 18411135827019205810
9709674 26 18411706478071054742

>  <PUBCHEM_SHAPE_MULTIPOLES>  (1) 
452.75
9.95
2.86
0.62
0.16
0.42
0
-1.77
0
-0.26
0
0
0
0

>  <PUBCHEM_SHAPE_SELFOVERLAP>  (1) 
1032.301

>  <PUBCHEM_SHAPE_VOLUME>  (1) 
219.2

>  <PUBCHEM_COORDINATE_TYPE>  (1) 
2
5
10

$$$$
