44320
     RDKit          3D

 24 28  0  0  0  0  0  0  0  0999 V2000
   -1.0002   -1.3816   -0.0002 N   0  0  0  0  0  0  0  0  0  0  0  0
    2.5401   -0.2326    0.0003 C   0  0  0  0  0  0  0  0  0  0  0  0
    1.0998   -0.1801    0.0002 C   0  0  0  0  0  0  0  0  0  0  0  0
    3.3824    0.9074    0.0005 C   0  0  0  0  0  0  0  0  0  0  0  0
    0.3460   -1.3664    0.0000 C   0  0  0  0  0  0  0  0  0  0  0  0
    3.1780   -1.4964    0.0001 C   0  0  0  0  0  0  0  0  0  0  0  0
   -1.0602    0.9988    0.0003 C   0  0  0  0  0  0  0  0  0  0  0  0
   -1.7178   -0.2387    0.0000 C   0  0  0  0  0  0  0  0  0  0  0  0
    0.3417    1.0079    0.0004 C   0  0  0  0  0  0  0  0  0  0  0  0
   -3.1307   -0.2538    0.0000 C   0  0  0  0  0  0  0  0  0  0  0  0
    2.9389    2.3365   -0.0005 C   0  0  0  0  0  0  0  0  0  0  0  0
    1.0118   -2.5811   -0.0003 C   0  0  0  0  0  0  0  0  0  0  0  0
    2.4026   -2.6560   -0.0002 C   0  0  0  0  0  0  0  0  0  0  0  0
   -3.8632    0.9611    0.0002 C   0  0  0  0  0  0  0  0  0  0  0  0
    4.7759    0.8008    0.0004 C   0  0  0  0  0  0  0  0  0  0  0  0
    4.5804   -1.5918    0.0000 C   0  0  0  0  0  0  0  0  0  0  0  0
   -1.7883    2.1959    0.0006 C   0  0  0  0  0  0  0  0  0  0  0  0
   -3.1778    2.1773    0.0004 C   0  0  0  0  0  0  0  0  0  0  0  0
    5.3750   -0.4496    0.0002 C   0  0  0  0  0  0  0  0  0  0  0  0
   -3.8628   -1.4603   -0.0003 C   0  0  0  0  0  0  0  0  0  0  0  0
    4.1166    3.3048   -0.0014 C   0  0  0  0  0  0  0  0  0  0  0  0
   -5.2678    0.9375    0.0000 C   0  0  0  0  0  0  0  0  0  0  0  0
   -5.2593   -1.4688   -0.0004 C   0  0  0  0  0  0  0  0  0  0  0  0
   -5.9612   -0.2706   -0.0004 C   0  0  0  0  0  0  0  0  0  0  0  0
  1  5  2  0
  1  8  1  0
  2  3  1  0
  2  4  2  0
  2  6  1  0
  3  5  1  0
  3  9  2  0
  4 11  1  0
  4 15  1  0
  5 12  1  0
  6 13  1  0
  6 16  2  0
  7  8  2  0
  7  9  1  0
  7 17  1  0
  8 10  1  0
 10 14  2  0
 10 20  1  0
 11 21  1  0
 12 13  2  0
 14 18  1  0
 14 22  1  0
 15 19  2  0
 16 19  1  0
 17 18  2  0
 20 23  2  0
 22 24  2  0
 23 24  1  0
M  END
>  <PUBCHEM_COMPOUND_CID>  (1) 
44320

>  <PUBCHEM_CONFORMER_RMSD>  (1) 
0.6

>  <PUBCHEM_CONFORMER_DIVERSEORDER>  (1) 
1

>  <PUBCHEM_MMFF94_PARTIAL_CHARGES>  (1) 
29
1 -0.62
11 0.14
12 -0.15
13 -0.15
15 -0.15
16 -0.15
17 -0.15
18 -0.15
19 -0.15
20 -0.15
22 -0.15
23 -0.15
24 -0.15
25 0.15
28 0.15
29 0.15
30 0.15
31 0.15
32 0.15
33 0.15
34 0.15
35 0.15
39 0.15
4 -0.14
40 0.15
41 0.15
5 0.31
8 0.31
9 -0.15

>  <PUBCHEM_EFFECTIVE_ROTOR_COUNT>  (1) 
1

>  <PUBCHEM_PHARMACOPHORE_FEATURES>  (1) 
7
1 1 acceptor
1 21 hydrophobe
6 1 3 5 7 8 9 rings
6 10 14 20 22 23 24 rings
6 2 3 5 6 12 13 rings
6 2 4 6 15 16 19 rings
6 7 8 10 14 17 18 rings

>  <PUBCHEM_HEAVY_ATOM_COUNT>  (1) 
24

>  <PUBCHEM_ATOM_DEF_STEREO_COUNT>  (1) 
0

>  <PUBCHEM_ATOM_UDEF_STEREO_COUNT>  (1) 
0

>  <PUBCHEM_BOND_DEF_STEREO_COUNT>  (1) 
0

>  <PUBCHEM_BOND_UDEF_STEREO_COUNT>  (1) 
0

>  <PUBCHEM_ISOTOPIC_ATOM_COUNT>  (1) 
0

>  <PUBCHEM_COMPONENT_COUNT>  (1) 
1

>  <PUBCHEM_CACTVS_TAUTO_COUNT>  (1) 
1

>  <PUBCHEM_CONFORMER_ID>  (1) 
0000AD2000000001

>  <PUBCHEM_MMFF94_ENERGY>  (1) 
106.4651

>  <PUBCHEM_FEATURE_SELFOVERLAP>  (1) 
35.63

>  <PUBCHEM_SHAPE_FINGERPRINT>  (1) 
10 15 18338506535234659648
10366900 7 17822301145503673738
10411042 1 17978229358050706698
10595046 47 18413107290397014741
10616163 171 18412545396974289607
10835480 77 18335693928408703333
11488393 25 17487355754172281366
11578080 2 13408231549810349231
12107183 9 17618786851618461971
12236239 1 17918274242627096459
12403259 226 18262795143186812436
12403259 415 18186512207129935300
12403260 363 18410291398142383224
12788726 201 17346329180310707121
12925494 130 18268987579890486561
13140716 1 18264204876033908410
13224815 77 18410575059151815955
14341114 176 18411423873422408433
14528608 73 18411420639169687943
14787075 74 18342174526787404801
14790565 3 18412830217709236353
15196674 1 18410575071809825541
15927050 60 17550106312945606477
15961568 22 17458911534575025940
16120349 18 18411980261657948649
17349148 13 17894916221727315823
17492 89 18267584611331901807
17844677 252 18412270506097930697
1813 80 17240490178262148695
18681886 176 18342171155707796954
19591789 44 18412261778449786265
200 152 18201717332345548091
20028762 73 18272366477595452358
21033648 29 17023169535736303085
21197605 99 18267308814254405739
21267235 1 18411426085235977655
21315763 129 18409727322775589964
21709351 56 18411412882653891478
221490 88 18409736131579616266
22149856 69 18266757921070159531
23227448 37 18342174500780601342
23402539 116 18409162212664777967
23559900 14 18339918225579059065
239999 70 18272376352025406942
245318 6 17317059253045678100
3004659 81 18333448729204897072
335352 9 18410573950828740406
3380486 145 17829067720740317251
338550 245 18336266833536634436
34797466 226 17846506945170138781
350125 39 18410293618798841164
3545911 37 18409730633989523493
3633792 109 18337100178406249629
4073 2 18041286546780546891
4214541 1 18338517439481416161
474 4 18408886248078185072
5104073 3 18409450267510014929
5283173 99 18114452350372288069
5312544 6 18336266855043385540
53794403 172 18191031303669619044
59755656 215 18408888408299321422
67856867 119 18409726274713983464
7495541 125 17775279490969415881
9709674 26 18410018697473050595
9999458 23 18335138704985006646

>  <PUBCHEM_SHAPE_MULTIPOLES>  (1) 
488.93
12.53
3.05
0.61
6.05
0.78
0
0.57
0
-2.37
0
0
0
0

>  <PUBCHEM_SHAPE_SELFOVERLAP>  (1) 
1129.082

>  <PUBCHEM_SHAPE_VOLUME>  (1) 
249.5

>  <PUBCHEM_COORDINATE_TYPE>  (1) 
2
5
10

$$$$
