44322
     RDKit          3D

 11 11  0  0  0  0  0  0  0  0999 V2000
   -1.3026   -0.5649   -0.0526 S   0  0  0  0  0  0  0  0  0  0  0  0
   -1.4362   -0.4891   -1.4969 O   0  0  0  0  0  0  0  0  0  0  0  0
   -1.2744   -1.8481    0.6274 O   0  0  0  0  0  0  0  0  0  0  0  0
   -2.5019    0.4123    0.6638 N   0  0  0  0  0  0  0  0  0  0  0  0
   -3.0162    1.4805   -0.2039 C   0  0  0  0  0  0  0  0  0  0  0  0
   -3.8415    0.2620    0.0791 C   0  0  0  0  0  0  0  0  0  0  0  0
    0.1409    0.3381    0.4150 C   0  0  0  0  0  0  0  0  0  0  0  0
    1.4034   -0.3305   -0.1088 C   0  0  0  0  0  0  0  0  0  0  0  0
    2.6869    0.3984    0.2951 C   0  0  0  0  0  0  0  0  0  0  0  0
    3.9506   -0.2286   -0.2949 C   0  0  0  0  0  0  0  0  0  0  0  0
    5.1909    0.5700    0.0765 C   0  0  0  0  0  0  0  0  0  0  0  0
  1  2  2  0
  1  3  2  0
  1  4  1  0
  1  7  1  0
  4  5  1  0
  4  6  1  0
  5  6  1  0
  7  8  1  0
  8  9  1  0
  9 10  1  0
 10 11  1  0
M  END
>  <PUBCHEM_COMPOUND_CID>  (1) 
44322

>  <PUBCHEM_CONFORMER_RMSD>  (1) 
0.6

>  <PUBCHEM_CONFORMER_DIVERSEORDER>  (1) 
1
58
16
49
30
34
46
60
54
36
47
35
56
4
14
40
10
15
55
21
29
32
7
57
53
51
24
25
23
12
41
27
38
59
3
48
11
45
28
43
26
39
37
31
5
18
50
20
52
22
42
9
44
17
6
33
8
13
2
19

>  <PUBCHEM_MMFF94_PARTIAL_CHARGES>  (1) 
11
1 1.33
12 0.1
13 0.1
14 0.1
15 0.1
2 -0.65
3 -0.65
4 -0.6
5 0.03
6 0.03
7 0.11

>  <PUBCHEM_EFFECTIVE_ROTOR_COUNT>  (1) 
5.6

>  <PUBCHEM_PHARMACOPHORE_FEATURES>  (1) 
3
1 11 hydrophobe
1 2 acceptor
1 3 acceptor

>  <PUBCHEM_HEAVY_ATOM_COUNT>  (1) 
11

>  <PUBCHEM_ATOM_DEF_STEREO_COUNT>  (1) 
0

>  <PUBCHEM_ATOM_UDEF_STEREO_COUNT>  (1) 
0

>  <PUBCHEM_BOND_DEF_STEREO_COUNT>  (1) 
0

>  <PUBCHEM_BOND_UDEF_STEREO_COUNT>  (1) 
0

>  <PUBCHEM_ISOTOPIC_ATOM_COUNT>  (1) 
0

>  <PUBCHEM_COMPONENT_COUNT>  (1) 
1

>  <PUBCHEM_CACTVS_TAUTO_COUNT>  (1) 
1

>  <PUBCHEM_CONFORMER_ID>  (1) 
0000AD2200000001

>  <PUBCHEM_MMFF94_ENERGY>  (1) 
8.7413

>  <PUBCHEM_FEATURE_SELFOVERLAP>  (1) 
15.24

>  <PUBCHEM_SHAPE_FINGERPRINT>  (1) 
10014705 185 18343577469196474624
11062470 55 18131351903951227776
124424 183 18060701689107625352
14123238 8 17385725807373107260
14577589 140 17988926695048381798
14943859 89 18413388726360369163
17834076 25 15698001833930690936
187816 3 14045740413661937415
190213 19 17385447609198013080
200 152 12247676067405428140
20211469 26 10809345541994465005
20279233 1 17132122346793999438
20645464 45 18409736157470609383
20645477 56 18334577958043755324
20645477 70 17346326947423279998
21119208 17 17632578249562456852
21293036 1 16774077362543844573
22485316 2 17418091027611849774
23402539 116 18411412917240567421
366044 4 18342739602834280467
449060 50 18408046208188219532
58051976 100 17703504497390057830

>  <PUBCHEM_SHAPE_MULTIPOLES>  (1) 
213.5
8.78
1.19
0.85
9.07
0.17
0.18
-2.56
0.08
-0.81
-0.09
-0.29
0.11
0.15

>  <PUBCHEM_SHAPE_SELFOVERLAP>  (1) 
387.451

>  <PUBCHEM_SHAPE_VOLUME>  (1) 
137.8

>  <PUBCHEM_COORDINATE_TYPE>  (1) 
2
5
10

$$$$
