44324
     RDKit          3D

 15 17  0  0  0  0  0  0  0  0999 V2000
    2.4880   -1.7794    0.0171 O   0  0  0  0  0  0  0  0  0  0  0  0
    3.2073    0.4285    0.0495 N   0  0  0  0  0  0  0  0  0  0  0  0
    4.4898    0.2542    0.6650 C   0  0  0  0  0  0  0  0  0  0  0  0
    4.3624    0.4061   -0.7985 C   0  0  0  0  0  0  0  0  0  0  0  0
    2.2510   -0.5747    0.0287 C   0  0  0  0  0  0  0  0  0  0  0  0
    0.8409   -0.0910    0.0229 C   0  0  0  0  0  0  0  0  0  0  0  0
   -0.2106   -1.0076    0.0022 C   0  0  0  0  0  0  0  0  0  0  0  0
   -1.5443   -0.5679   -0.0038 C   0  0  0  0  0  0  0  0  0  0  0  0
   -1.8153    0.8211    0.0115 C   0  0  0  0  0  0  0  0  0  0  0  0
    0.5745    1.2749    0.0379 C   0  0  0  0  0  0  0  0  0  0  0  0
   -0.7445    1.7295    0.0323 C   0  0  0  0  0  0  0  0  0  0  0  0
   -2.6152   -1.4763   -0.0247 C   0  0  0  0  0  0  0  0  0  0  0  0
   -3.1491    1.2607    0.0056 C   0  0  0  0  0  0  0  0  0  0  0  0
   -3.9343   -1.0219   -0.0303 C   0  0  0  0  0  0  0  0  0  0  0  0
   -4.2007    0.3440   -0.0153 C   0  0  0  0  0  0  0  0  0  0  0  0
  1  5  2  0
  2  3  1  0
  2  4  1  0
  2  5  1  0
  3  4  1  0
  5  6  1  0
  6  7  2  0
  6 10  1  0
  7  8  1  0
  8  9  2  0
  8 12  1  0
  9 11  1  0
  9 13  1  0
 10 11  2  0
 12 14  2  0
 13 15  2  0
 14 15  1  0
M  END
>  <PUBCHEM_COMPOUND_CID>  (1) 
44324

>  <PUBCHEM_CONFORMER_RMSD>  (1) 
0.6

>  <PUBCHEM_CONFORMER_DIVERSEORDER>  (1) 
1
7
3
8
4
6
5
2

>  <PUBCHEM_MMFF94_PARTIAL_CHARGES>  (1) 
24
1 -0.57
10 -0.15
11 -0.15
12 -0.15
13 -0.15
14 -0.15
15 -0.15
16 0.1
17 0.1
18 0.1
19 0.1
2 -0.36
20 0.15
21 0.15
22 0.15
23 0.15
24 0.15
25 0.15
26 0.15
3 -0.05
4 -0.05
5 0.54
6 0.09
7 -0.15

>  <PUBCHEM_EFFECTIVE_ROTOR_COUNT>  (1) 
2.6

>  <PUBCHEM_PHARMACOPHORE_FEATURES>  (1) 
3
1 1 acceptor
6 6 7 8 9 10 11 rings
6 8 9 12 13 14 15 rings

>  <PUBCHEM_HEAVY_ATOM_COUNT>  (1) 
15

>  <PUBCHEM_ATOM_DEF_STEREO_COUNT>  (1) 
0

>  <PUBCHEM_ATOM_UDEF_STEREO_COUNT>  (1) 
0

>  <PUBCHEM_BOND_DEF_STEREO_COUNT>  (1) 
0

>  <PUBCHEM_BOND_UDEF_STEREO_COUNT>  (1) 
0

>  <PUBCHEM_ISOTOPIC_ATOM_COUNT>  (1) 
0

>  <PUBCHEM_COMPONENT_COUNT>  (1) 
1

>  <PUBCHEM_CACTVS_TAUTO_COUNT>  (1) 
1

>  <PUBCHEM_CONFORMER_ID>  (1) 
0000AD2400000001

>  <PUBCHEM_MMFF94_ENERGY>  (1) 
53.5552

>  <PUBCHEM_FEATURE_SELFOVERLAP>  (1) 
15.249

>  <PUBCHEM_SHAPE_FINGERPRINT>  (1) 
11132069 177 18411136926557233336
11401426 45 18410569596048387005
11806522 49 18337388352613790511
12032990 46 18341618139222219357
12236239 1 17822008718650508240
12403814 3 17603584110694948397
13214271 11 18342734130839976935
13221675 6 18411698789846934022
14144814 61 18411418388759818531
15196674 1 18410573950902683939
15219456 202 18130511833675030510
15309172 13 16773798095132884222
15375358 24 18413670209953511615
15536298 74 18341332189264450982
16945 1 18410568466656656409
17804303 29 18342459283182654017
18186145 218 17822572711785435198
18522853 276 18412545422801823321
19050596 39 18335135380416347986
200 152 17989483043879538677
20510252 161 18200595787440942713
20645477 70 18129945568212974974
21029758 11 18343577456612337577
21029758 27 18187935027227405637
21267235 1 18410020956683591183
21501502 16 18268995276117458858
23402539 116 18411409631247707566
23402655 69 18341323397703675773
23463225 33 18409167688415530495
23557571 272 18272381853598730316
23559900 14 18340765923828333758
296302 2 17458348558729694468
3312278 4 18410858763142700379
34934 24 18410566275943793071
43471831 8 18335136445215472178
474 4 17024038244928796580
4990 188 17988934344807005878
5104073 3 18411418367190128282
537710 114 18409453595840987484
7364860 26 18196934598214449761
77779 3 18411702062844239110
8809292 202 18188493613388650347
9709674 26 18410299098850394510

>  <PUBCHEM_SHAPE_MULTIPOLES>  (1) 
297.84
8.45
1.61
0.68
4.21
0.02
0.02
0.2
0.13
-0.67
-0.01
0.3
-0.03
-0.06

>  <PUBCHEM_SHAPE_SELFOVERLAP>  (1) 
655.441

>  <PUBCHEM_SHAPE_VOLUME>  (1) 
161.7

>  <PUBCHEM_COORDINATE_TYPE>  (1) 
2
5
10

$$$$
