44333
     RDKit          3D

 22 26  0  0  1  0  0  0  0  0999 V2000
   -0.4762    1.3593   -0.5028 C   0  0  0  0  0  0  0  0  0  0  0  0
   -1.1246    0.0796   -1.0809 C   0  0  0  0  0  0  0  0  0  0  0  0
    1.0945   -0.0168    1.0012 C   0  0  0  0  0  0  0  0  0  0  0  0
    0.4634   -1.3051    0.4066 C   0  0  0  0  0  0  0  0  0  0  0  0
    0.0785    1.1370    0.9175 C   0  0  0  0  0  0  0  0  0  0  0  0
   -0.1025   -1.0736   -1.0070 C   0  0  0  0  0  0  0  0  0  0  0  0
   -1.4808    2.5134   -0.5550 C   0  0  0  0  0  0  0  0  0  0  0  0
   -2.5049   -0.2032   -0.4922 C   0  0  0  0  0  0  0  0  0  0  0  0
   -2.7288    2.2299    0.2728 C   0  0  0  0  0  0  0  0  0  0  0  0
    2.4905    0.2388    0.4368 C   0  0  0  0  0  0  0  0  0  0  0  0
   -3.2611    0.8280    0.1073 C   0  0  0  0  0  0  0  0  0  0  0  0
    1.4551   -2.4404    0.3714 C   0  0  0  0  0  0  0  0  0  0  0  0
    3.3005   -0.8751    0.1154 C   0  0  0  0  0  0  0  0  0  0  0  0
    2.7733   -2.2377    0.2500 C   0  0  0  0  0  0  0  0  0  0  0  0
   -3.0977   -1.4726   -0.6163 C   0  0  0  0  0  0  0  0  0  0  0  0
    3.0388    1.5233    0.3097 C   0  0  0  0  0  0  0  0  0  0  0  0
   -4.5430    0.5529    0.6159 C   0  0  0  0  0  0  0  0  0  0  0  0
    4.6158   -0.6873   -0.3300 C   0  0  0  0  0  0  0  0  0  0  0  0
   -4.3754   -1.7302   -0.1150 C   0  0  0  0  0  0  0  0  0  0  0  0
   -5.0961   -0.7195    0.5068 C   0  0  0  0  0  0  0  0  0  0  0  0
    4.3469    1.7007   -0.1466 C   0  0  0  0  0  0  0  0  0  0  0  0
    5.1339    0.5985   -0.4654 C   0  0  0  0  0  0  0  0  0  0  0  0
  1  2  1  0
  1  5  1  0
  1  7  1  0
  2  6  1  0
  2  8  1  0
  3  4  1  0
  3  5  1  0
  3 10  1  0
  4  6  1  0
  4 12  1  0
  7  9  1  0
  8 11  2  0
  8 15  1  0
  9 11  1  0
 10 13  2  0
 10 16  1  0
 11 17  1  0
 12 14  2  0
 13 14  1  0
 13 18  1  0
 15 19  2  0
 16 21  2  0
 17 20  2  0
 18 22  2  0
 19 20  1  0
 21 22  1  0
M  END
>  <PUBCHEM_COMPOUND_CID>  (1) 
44333

>  <PUBCHEM_CONFORMER_RMSD>  (1) 
0.6

>  <PUBCHEM_CONFORMER_DIVERSEORDER>  (1) 
1
10
5
13
11
8
14
12
9
4
2
3
7
6

>  <PUBCHEM_MMFF94_PARTIAL_CHARGES>  (1) 
28
10 -0.14
11 -0.14
12 -0.29
13 0.03
14 -0.18
15 -0.15
16 -0.15
17 -0.15
18 -0.15
19 -0.15
2 0.14
20 -0.15
21 -0.15
22 -0.15
3 0.14
35 0.15
36 0.15
37 0.15
38 0.15
39 0.15
4 0.14
40 0.15
41 0.15
42 0.15
43 0.15
44 0.15
8 -0.14
9 0.14

>  <PUBCHEM_EFFECTIVE_ROTOR_COUNT>  (1) 
0.8

>  <PUBCHEM_PHARMACOPHORE_FEATURES>  (1) 
5
6 1 2 3 4 5 6 rings
6 1 2 7 8 9 11 rings
6 10 13 16 18 21 22 rings
6 3 4 10 12 13 14 rings
6 8 11 15 17 19 20 rings

>  <PUBCHEM_HEAVY_ATOM_COUNT>  (1) 
22

>  <PUBCHEM_ATOM_DEF_STEREO_COUNT>  (1) 
0

>  <PUBCHEM_ATOM_UDEF_STEREO_COUNT>  (1) 
4

>  <PUBCHEM_BOND_DEF_STEREO_COUNT>  (1) 
0

>  <PUBCHEM_BOND_UDEF_STEREO_COUNT>  (1) 
0

>  <PUBCHEM_ISOTOPIC_ATOM_COUNT>  (1) 
0

>  <PUBCHEM_COMPONENT_COUNT>  (1) 
1

>  <PUBCHEM_CACTVS_TAUTO_COUNT>  (1) 
1

>  <PUBCHEM_CONFORMER_ID>  (1) 
0000AD2D00000001

>  <PUBCHEM_MMFF94_ENERGY>  (1) 
64.225

>  <PUBCHEM_FEATURE_SELFOVERLAP>  (1) 
25.536

>  <PUBCHEM_SHAPE_FINGERPRINT>  (1) 
10090160 65 17968094256805810194
10366900 7 18334856147101466123
10498660 4 18334002878775902692
10616163 171 18413106139208856791
10863032 1 18339640023283064200
10906281 52 18129386995606590565
11552529 35 17917144005178169063
11578080 2 17314778608146359749
12011746 2 18343014498247907661
12107183 9 17763748685096116139
12236239 1 18060143145315896088
12553582 1 18339346557163747611
12592029 89 18409730638854346210
12633257 1 18127693717196740131
128620 24 17385722491194144126
13009979 54 17770216064621632978
13140716 1 17905876325574246848
13224815 77 18334289851241757838
13544653 18 18187368740142144739
14223421 5 18336824174167736919
14289901 80 18335419019634556857
14341114 176 18411144610559590155
14341114 328 18411984654296162515
14787075 74 18187646959106468099
14790565 3 18266465488651220308
15196674 1 18411136926525500368
15209289 33 18340204188949574835
15238133 3 16916508026176593883
15788980 27 11818992984968184161
15927050 60 17258786343537397109
1601671 61 17703795811931251306
16945 1 18268689719079647924
17349148 13 17313109652516555260
17492 89 18265331707637729618
17980427 23 12973601105931553862
1813 80 17458069257175286589
19591789 44 18341046406203122008
21033648 29 12901829471248457188
21267235 1 18411707573203078702
21652331 79 18410573985172725637
21673915 165 18410012147610403249
21857420 4 15617169273820194126
221490 88 18337393717149593930
22393880 68 18337675188057677566
22950370 63 18341052994719844851
23402539 116 17822007596951926504
23559900 14 18122616150503068458
23566358 27 18264775372044376102
2637199 183 18411986858294925878
2871803 45 18408595968197003951
3323516 105 18342454859329279560
34934 24 18335698309285394197
350125 39 18410572869124592504
392239 28 18260838128205503811
474 4 17967538999486975964
5104073 3 18338513032538801920
5283173 99 17823964664058796189
5312544 6 18188779490601513332
5486654 2 18334580191078797631
6287921 2 18261118460963532772
6442390 28 18337673117709893586
7097593 13 17539115160880625363
77779 3 18411419479549538850
9709674 26 18336271149868471090

>  <PUBCHEM_SHAPE_MULTIPOLES>  (1) 
452.75
10.05
2.52
0.93
0.27
0.06
-0.03
-0.36
0.18
-0.02
0
-0.14
0.01
-0.29

>  <PUBCHEM_SHAPE_SELFOVERLAP>  (1) 
1010.098

>  <PUBCHEM_SHAPE_VOLUME>  (1) 
224.5

>  <PUBCHEM_COORDINATE_TYPE>  (1) 
2
5
10

$$$$
