44336
     RDKit          3D

 17 18  0  0  0  0  0  0  0  0999 V2000
   -1.2163    2.8421   -0.0388 Cl  0  0  0  0  0  0  0  0  0  0  0  0
   -4.4657   -2.4847   -0.0535 Cl  0  0  0  0  0  0  0  0  0  0  0  0
    4.2904   -0.2589    0.2659 C   0  0  0  0  0  0  0  0  0  0  0  0
    2.8036   -0.1623    0.2002 C   0  0  0  0  0  0  0  0  0  0  0  0
    0.0224    0.0192    0.0778 C   0  0  0  0  0  0  0  0  0  0  0  0
    4.9886    0.9454   -0.3939 C   0  0  0  0  0  0  0  0  0  0  0  0
    4.8231   -1.5696   -0.3434 C   0  0  0  0  0  0  0  0  0  0  0  0
    2.1594   -0.1445   -1.0370 C   0  0  0  0  0  0  0  0  0  0  0  0
    2.0570   -0.0894    1.3763 C   0  0  0  0  0  0  0  0  0  0  0  0
    0.7689   -0.0537   -1.0982 C   0  0  0  0  0  0  0  0  0  0  0  0
    0.6664    0.0014    1.3151 C   0  0  0  0  0  0  0  0  0  0  0  0
   -1.4201    0.1128    0.0147 C   0  0  0  0  0  0  0  0  0  0  0  0
   -2.0793    1.3432   -0.0412 C   0  0  0  0  0  0  0  0  0  0  0  0
   -2.1617   -1.0709    0.0107 C   0  0  0  0  0  0  0  0  0  0  0  0
   -3.5546   -1.0246   -0.0489 C   0  0  0  0  0  0  0  0  0  0  0  0
   -3.4723    1.3892   -0.1010 C   0  0  0  0  0  0  0  0  0  0  0  0
   -4.2098    0.2053   -0.1048 C   0  0  0  0  0  0  0  0  0  0  0  0
  1 13  1  0
  2 15  1  0
  3  4  1  0
  3  6  1  0
  3  7  1  0
  4  8  2  0
  4  9  1  0
  5 10  2  0
  5 11  1  0
  5 12  1  0
  8 10  1  0
  9 11  2  0
 12 13  2  0
 12 14  1  0
 13 16  1  0
 14 15  2  0
 15 17  1  0
 16 17  2  0
M  END
>  <PUBCHEM_COMPOUND_CID>  (1) 
44336

>  <PUBCHEM_CONFORMER_RMSD>  (1) 
0.6

>  <PUBCHEM_CONFORMER_DIVERSEORDER>  (1) 
1
3
4
2

>  <PUBCHEM_MMFF94_PARTIAL_CHARGES>  (1) 
20
1 -0.18
10 -0.15
11 -0.15
13 0.18
14 -0.15
15 0.18
16 -0.15
17 -0.15
2 -0.18
25 0.15
26 0.15
27 0.15
28 0.15
29 0.15
3 0.14
30 0.15
31 0.15
4 -0.14
8 -0.15
9 -0.15

>  <PUBCHEM_EFFECTIVE_ROTOR_COUNT>  (1) 
2

>  <PUBCHEM_PHARMACOPHORE_FEATURES>  (1) 
3
3 3 6 7 hydrophobe
6 12 13 14 15 16 17 rings
6 4 5 8 9 10 11 rings

>  <PUBCHEM_HEAVY_ATOM_COUNT>  (1) 
17

>  <PUBCHEM_ATOM_DEF_STEREO_COUNT>  (1) 
0

>  <PUBCHEM_ATOM_UDEF_STEREO_COUNT>  (1) 
0

>  <PUBCHEM_BOND_DEF_STEREO_COUNT>  (1) 
0

>  <PUBCHEM_BOND_UDEF_STEREO_COUNT>  (1) 
0

>  <PUBCHEM_ISOTOPIC_ATOM_COUNT>  (1) 
0

>  <PUBCHEM_COMPONENT_COUNT>  (1) 
1

>  <PUBCHEM_CACTVS_TAUTO_COUNT>  (1) 
1

>  <PUBCHEM_CONFORMER_ID>  (1) 
0000AD3000000001

>  <PUBCHEM_MMFF94_ENERGY>  (1) 
48.5503

>  <PUBCHEM_FEATURE_SELFOVERLAP>  (1) 
15.223

>  <PUBCHEM_SHAPE_FINGERPRINT>  (1) 
10366900 7 17846487111396248401
11046707 91 18410571816715446451
11543360 7 18409171017463506336
11796584 16 18270963440739488038
12107183 9 17542782011200698096
12236239 1 17748826302441803161
12633257 1 16271652311992222679
12670546 56 18335134246639979288
13167823 11 18409165489730339686
13288520 33 18411139125538401398
13583140 156 17917128526004900890
13675066 3 17846205615250805706
13760787 5 15626223524779011704
14289901 80 18408323255317444400
14787075 74 18042124417864923640
15653759 3 18130781257031277408
16945 1 18410290273267172449
17349148 13 17095526188584272000
17834072 33 18260832613831102390
18175812 5 17846210077210110357
18186145 218 16588029030220351358
18222031 100 18199172061912181895
19026448 4 18343298150567269906
19026448 5 18261392222299980266
200 152 17312820494022687067
20279233 1 17704355455102681279
20300324 65 18335422369804174873
20645477 70 14346068673367797280
20871999 31 18334849541958566823
21065201 7 18339071610310603818
21267235 1 18334866030253840971
22094290 60 18411699863625804816
2297311 6 18341342131770570716
23175994 123 16917351432840955585
23402539 116 18408037411847329663
23402655 69 15285622297183937431
23557571 272 18272935981589390901
23559900 14 18270678637384175294
34797466 226 18129394837826353332
4214541 1 18338798914405223452
474 4 17241618384799057412
5104073 3 18272087180277216322
573450 72 18261665987351595314
633830 44 16661222355551042838
7495541 125 18060135483558424848
77492 1 17603866685082864777
77779 3 18411138022158879234
7970288 3 18194963182978638575
9709674 26 18409175398035476622

>  <PUBCHEM_SHAPE_MULTIPOLES>  (1) 
353.59
10
2.08
0.99
5.08
0.5
0.14
-3.62
-0.89
-2.31
-0.13
0.58
-0.03
0.03

>  <PUBCHEM_SHAPE_SELFOVERLAP>  (1) 
737.976

>  <PUBCHEM_SHAPE_VOLUME>  (1) 
195.4

>  <PUBCHEM_COORDINATE_TYPE>  (1) 
2
5
10

$$$$
