44338
     RDKit          3D

 16 17  0  0  0  0  0  0  0  0999 V2000
   -1.5552   -0.3458   -0.7087 O   0  0  0  0  0  0  0  0  0  0  0  0
    1.8883    3.3364   -0.0903 O   0  0  0  0  0  0  0  0  0  0  0  0
   -4.6410    0.3587    0.9754 O   0  0  0  0  0  0  0  0  0  0  0  0
   -3.4364    1.6120   -0.4962 O   0  0  0  0  0  0  0  0  0  0  0  0
    0.7912   -0.1688   -0.1623 C   0  0  0  0  0  0  0  0  0  0  0  0
    2.0034   -0.8246    0.1593 C   0  0  0  0  0  0  0  0  0  0  0  0
   -0.3631   -0.9344   -0.3948 C   0  0  0  0  0  0  0  0  0  0  0  0
    0.7689    1.2332   -0.2418 C   0  0  0  0  0  0  0  0  0  0  0  0
    2.0256   -2.2265    0.2389 C   0  0  0  0  0  0  0  0  0  0  0  0
    3.1576   -0.0591    0.3919 C   0  0  0  0  0  0  0  0  0  0  0  0
   -0.3227   -2.3264   -0.3114 C   0  0  0  0  0  0  0  0  0  0  0  0
    0.8693   -2.9712    0.0049 C   0  0  0  0  0  0  0  0  0  0  0  0
    1.9252    1.9779   -0.0077 C   0  0  0  0  0  0  0  0  0  0  0  0
    3.1172    1.3330    0.3085 C   0  0  0  0  0  0  0  0  0  0  0  0
   -2.6446   -0.5839    0.1778 C   0  0  0  0  0  0  0  0  0  0  0  0
   -3.5840    0.5898    0.1566 C   0  0  0  0  0  0  0  0  0  0  0  0
  1  7  1  0
  1 15  1  0
  2 13  1  0
  3 16  1  0
  4 16  2  0
  5  6  1  0
  5  7  2  0
  5  8  1  0
  6  9  2  0
  6 10  1  0
  7 11  1  0
  8 13  2  0
  9 12  1  0
 10 14  2  0
 11 12  2  0
 13 14  1  0
 15 16  1  0
M  END
>  <PUBCHEM_COMPOUND_CID>  (1) 
44338

>  <PUBCHEM_CONFORMER_RMSD>  (1) 
0.6

>  <PUBCHEM_CONFORMER_DIVERSEORDER>  (1) 
1
9
14
18
12
11
2
13
21
19
20
7
6
16
8
15
17
5
3
10
4

>  <PUBCHEM_MMFF94_PARTIAL_CHARGES>  (1) 
22
1 -0.36
10 -0.15
11 -0.15
12 -0.15
13 0.08
14 -0.15
15 0.34
16 0.66
17 0.15
18 0.15
19 0.15
2 -0.53
20 0.15
21 0.15
22 0.15
25 0.45
26 0.5
3 -0.65
4 -0.57
7 0.08
8 -0.15
9 -0.15

>  <PUBCHEM_EFFECTIVE_ROTOR_COUNT>  (1) 
3

>  <PUBCHEM_PHARMACOPHORE_FEATURES>  (1) 
7
1 1 acceptor
1 2 donor
1 3 acceptor
1 4 acceptor
3 3 4 16 anion
6 5 6 7 9 11 12 rings
6 5 6 8 10 13 14 rings

>  <PUBCHEM_HEAVY_ATOM_COUNT>  (1) 
16

>  <PUBCHEM_ATOM_DEF_STEREO_COUNT>  (1) 
0

>  <PUBCHEM_ATOM_UDEF_STEREO_COUNT>  (1) 
0

>  <PUBCHEM_BOND_DEF_STEREO_COUNT>  (1) 
0

>  <PUBCHEM_BOND_UDEF_STEREO_COUNT>  (1) 
0

>  <PUBCHEM_ISOTOPIC_ATOM_COUNT>  (1) 
0

>  <PUBCHEM_COMPONENT_COUNT>  (1) 
1

>  <PUBCHEM_CACTVS_TAUTO_COUNT>  (1) 
3

>  <PUBCHEM_CONFORMER_ID>  (1) 
0000AD3200000001

>  <PUBCHEM_MMFF94_ENERGY>  (1) 
47.3128

>  <PUBCHEM_FEATURE_SELFOVERLAP>  (1) 
35.609

>  <PUBCHEM_SHAPE_FINGERPRINT>  (1) 
10465860 228 18342463603682188627
10608611 8 18335137532342740685
10967382 1 18410852118817678902
10980938 120 18410571764701039791
11471102 20 18338509751204983535
13140716 1 18265326394978656960
14026960 21 18263370350950132963
14178342 30 17978769527375381330
14790565 3 18409456886393065460
15442244 35 18052537673294848633
15906896 17 17841146967798377142
16945 1 18336530712259251374
18186145 218 18272374174038767421
18219364 16 18261377949854851501
19049666 15 17825664452857351285
20157964 124 18339073793071952853
20510252 161 17548135983749990778
20559304 39 18339085882444665097
20681677 76 18262514789560147093
21041028 32 17977096856361905058
21501502 16 17977093892992239230
21524375 3 18200592643456030703
21639500 275 18338497682626378943
21665062 11 18339369552176154969
21731228 192 18337673143073223203
22094290 62 18339074990492095896
22854114 111 18412266129668408049
2334 1 17832979821428460870
23558518 356 17975692011293216882
25 1 18409729573459856958
2748010 2 17976252758001930822
2838139 119 15338253797291827760
293599 30 18337677520341372932
305870 269 18410289241709922487
350125 39 18121782987003196450
474 4 18411981386211055225
49207404 50 18262534700759681795
5939293 188 18338792299844273260
6333272 397 18339078306365162467
7364860 26 18340771442296845767
7832392 63 18341889736117294046
81228 2 17329984110718383043

>  <PUBCHEM_SHAPE_MULTIPOLES>  (1) 
305.8
6.07
3.19
0.72
7.32
0.06
0.03
-2.98
1.39
-2.13
-0.16
0.23
0.01
-0.08

>  <PUBCHEM_SHAPE_SELFOVERLAP>  (1) 
663.846

>  <PUBCHEM_SHAPE_VOLUME>  (1) 
167.2

>  <PUBCHEM_COORDINATE_TYPE>  (1) 
2
5
10

$$$$
