44343
     RDKit          3D

 15 16  0  0  0  0  0  0  0  0999 V2000
    1.6103    1.8203    0.7390 O   0  0  0  0  0  0  0  0  0  0  0  0
    3.1720   -1.0000   -0.7246 O   0  0  0  0  0  0  0  0  0  0  0  0
    1.6420    0.4983    0.2205 N   0  0  0  0  0  0  0  0  0  0  0  0
   -1.6696   -2.0518    0.0880 N   0  0  0  0  0  0  0  0  0  0  0  0
   -0.7806    0.1873    0.0322 C   0  0  0  0  0  0  0  0  0  0  0  0
    0.5143   -0.3298    0.1726 C   0  0  0  0  0  0  0  0  0  0  0  0
   -1.8583   -0.7220   -0.0061 C   0  0  0  0  0  0  0  0  0  0  0  0
   -1.0142    1.5693   -0.0687 C   0  0  0  0  0  0  0  0  0  0  0  0
    0.7119   -1.6997    0.2698 C   0  0  0  0  0  0  0  0  0  0  0  0
   -3.1445   -0.2077   -0.1456 C   0  0  0  0  0  0  0  0  0  0  0  0
   -2.3108    2.0561   -0.2076 C   0  0  0  0  0  0  0  0  0  0  0  0
   -0.4040   -2.5103    0.2224 C   0  0  0  0  0  0  0  0  0  0  0  0
   -3.3771    1.1662   -0.2460 C   0  0  0  0  0  0  0  0  0  0  0  0
    2.9023    0.0983   -0.2382 C   0  0  0  0  0  0  0  0  0  0  0  0
    4.0063    1.1256   -0.1076 C   0  0  0  0  0  0  0  0  0  0  0  0
  1  3  1  0
  2 14  2  0
  3  6  1  0
  3 14  1  0
  4  7  2  0
  4 12  1  0
  5  6  2  0
  5  7  1  0
  5  8  1  0
  6  9  1  0
  7 10  1  0
  8 11  2  0
  9 12  2  0
 10 13  2  0
 11 13  1  0
 14 15  1  0
M  END
>  <PUBCHEM_COMPOUND_CID>  (1) 
44343

>  <PUBCHEM_CONFORMER_RMSD>  (1) 
0.6

>  <PUBCHEM_CONFORMER_DIVERSEORDER>  (1) 
1
7
5
8
6
4
2
10
3
9

>  <PUBCHEM_MMFF94_PARTIAL_CHARGES>  (1) 
21
1 -0.44
10 -0.15
11 -0.15
12 0.16
13 -0.15
14 0.57
15 0.06
16 0.15
17 0.15
18 0.15
19 0.15
2 -0.57
20 0.15
21 0.15
25 0.4
3 -0.14
4 -0.62
6 0.12
7 0.31
8 -0.15
9 -0.15

>  <PUBCHEM_EFFECTIVE_ROTOR_COUNT>  (1) 
2

>  <PUBCHEM_PHARMACOPHORE_FEATURES>  (1) 
4
1 2 acceptor
1 4 acceptor
6 4 5 6 7 9 12 rings
6 5 7 8 10 11 13 rings

>  <PUBCHEM_HEAVY_ATOM_COUNT>  (1) 
15

>  <PUBCHEM_ATOM_DEF_STEREO_COUNT>  (1) 
0

>  <PUBCHEM_ATOM_UDEF_STEREO_COUNT>  (1) 
0

>  <PUBCHEM_BOND_DEF_STEREO_COUNT>  (1) 
0

>  <PUBCHEM_BOND_UDEF_STEREO_COUNT>  (1) 
0

>  <PUBCHEM_ISOTOPIC_ATOM_COUNT>  (1) 
0

>  <PUBCHEM_COMPONENT_COUNT>  (1) 
1

>  <PUBCHEM_CACTVS_TAUTO_COUNT>  (1) 
1

>  <PUBCHEM_CONFORMER_ID>  (1) 
0000AD3700000001

>  <PUBCHEM_MMFF94_ENERGY>  (1) 
63.621

>  <PUBCHEM_FEATURE_SELFOVERLAP>  (1) 
20.329

>  <PUBCHEM_SHAPE_FINGERPRINT>  (1) 
10608611 8 18341329015304737800
10967382 1 18410291367755670273
11132069 177 18410569591452882312
12173636 292 18408884027211088173
12346645 44 18336264552766568577
13380535 21 18265904549137411355
13380535 76 18337668620573017027
14325111 11 18410012113414312148
14614273 12 18114734941575960125
15775835 57 18335140860367440512
16945 1 18410846660030485163
18186145 218 18270408183061379124
193761 8 17544758288698839945
20510252 161 18341054098515968753
20645476 183 17822024124297649310
20645477 56 18409168839730821636
20871998 184 18270407229489209159
21501502 16 18193268590587545035
21524375 3 18335697196155777963
22802520 49 18270966863542988570
2334 1 17977664543468581395
23402539 116 18340194280259472174
23463225 33 18117271463351121066
23493267 7 17603867771820490753
23557571 272 18197231440905353486
23559900 14 18343023277524985916
25 1 18266742381034242143
2748010 2 18122620827948858787
3071541 12 17978793406787073487
43471831 8 18261107439887813195
474 4 16589722386039925316
528886 8 18410005524955462307
53812653 166 18412260605950237817
6333449 129 18410571829267779125
69090 78 18272085019623842167
7364860 26 18051691040630583943
81228 2 18048309239411240083
9709674 26 18342181098251294542

>  <PUBCHEM_SHAPE_MULTIPOLES>  (1) 
286.99
5.63
2.43
0.67
3.01
0.7
0
-2.34
0.81
-0.63
-0.17
0.12
-0.03
0.29

>  <PUBCHEM_SHAPE_SELFOVERLAP>  (1) 
624.096

>  <PUBCHEM_SHAPE_VOLUME>  (1) 
155.6

>  <PUBCHEM_COORDINATE_TYPE>  (1) 
2
5
10

$$$$
