44349
     RDKit          3D

 26 31  0  0  0  0  0  0  0  0999 V2000
   -3.0969    3.4146    0.7873 O   0  0  0  0  0  0  0  0  0  0  0  0
   -0.4605   -0.1603   -0.0361 C   0  0  0  0  0  0  0  0  0  0  0  0
    0.9568   -0.3530   -0.0110 C   0  0  0  0  0  0  0  0  0  0  0  0
   -1.3622   -1.2597    0.0102 C   0  0  0  0  0  0  0  0  0  0  0  0
   -0.9709    1.1507   -0.1089 C   0  0  0  0  0  0  0  0  0  0  0  0
    1.8586    0.7465   -0.0572 C   0  0  0  0  0  0  0  0  0  0  0  0
    1.4672   -1.6638    0.0615 C   0  0  0  0  0  0  0  0  0  0  0  0
   -2.7822   -1.0259   -0.0177 C   0  0  0  0  0  0  0  0  0  0  0  0
    3.2785    0.5126   -0.0300 C   0  0  0  0  0  0  0  0  0  0  0  0
   -2.3518    1.3672   -0.1354 C   0  0  0  0  0  0  0  0  0  0  0  0
   -3.2586    0.3050   -0.0913 C   0  0  0  0  0  0  0  0  0  0  0  0
   -0.0921    2.2324   -0.1546 C   0  0  0  0  0  0  0  0  0  0  0  0
   -0.7915   -2.5468    0.0822 C   0  0  0  0  0  0  0  0  0  0  0  0
    3.7548   -0.8184    0.0429 C   0  0  0  0  0  0  0  0  0  0  0  0
    1.2878    2.0335   -0.1292 C   0  0  0  0  0  0  0  0  0  0  0  0
    2.8481   -1.8805    0.0871 C   0  0  0  0  0  0  0  0  0  0  0  0
    0.5884   -2.7456    0.1074 C   0  0  0  0  0  0  0  0  0  0  0  0
   -3.7643   -2.0493    0.0238 C   0  0  0  0  0  0  0  0  0  0  0  0
    4.2607    1.5360   -0.0713 C   0  0  0  0  0  0  0  0  0  0  0  0
   -4.6388    0.5723   -0.1207 C   0  0  0  0  0  0  0  0  0  0  0  0
    5.1349   -1.0859    0.0709 C   0  0  0  0  0  0  0  0  0  0  0  0
   -2.8586    2.7457   -0.2113 C   0  0  0  0  0  0  0  0  0  0  0  0
   -5.1338   -1.7716   -0.0059 C   0  0  0  0  0  0  0  0  0  0  0  0
   -5.5714   -0.4591   -0.0785 C   0  0  0  0  0  0  0  0  0  0  0  0
    5.6301    1.2580   -0.0427 C   0  0  0  0  0  0  0  0  0  0  0  0
    6.0676   -0.0546    0.0285 C   0  0  0  0  0  0  0  0  0  0  0  0
  1 22  2  0
  2  3  2  0
  2  4  1  0
  2  5  1  0
  3  6  1  0
  3  7  1  0
  4  8  1  0
  4 13  2  0
  5 10  2  0
  5 12  1  0
  6  9  2  0
  6 15  1  0
  7 16  1  0
  7 17  2  0
  8 11  2  0
  8 18  1  0
  9 14  1  0
  9 19  1  0
 10 11  1  0
 10 22  1  0
 11 20  1  0
 12 15  2  0
 13 17  1  0
 14 16  2  0
 14 21  1  0
 18 23  2  0
 19 25  2  0
 20 24  2  0
 21 26  2  0
 23 24  1  0
 25 26  1  0
M  END
>  <PUBCHEM_COMPOUND_CID>  (1) 
44349

>  <PUBCHEM_CONFORMER_RMSD>  (1) 
0.6

>  <PUBCHEM_CONFORMER_DIVERSEORDER>  (1) 
1

>  <PUBCHEM_MMFF94_PARTIAL_CHARGES>  (1) 
30
1 -0.57
10 0.09
12 -0.15
13 -0.15
15 -0.15
16 -0.15
17 -0.15
18 -0.15
19 -0.15
20 -0.15
21 -0.15
22 0.42
23 -0.15
24 -0.15
25 -0.15
26 -0.15
27 0.15
28 0.15
29 0.15
30 0.15
31 0.15
32 0.15
33 0.15
34 0.15
35 0.15
36 0.06
37 0.15
38 0.15
39 0.15
40 0.15

>  <PUBCHEM_EFFECTIVE_ROTOR_COUNT>  (1) 
1

>  <PUBCHEM_PHARMACOPHORE_FEATURES>  (1) 
7
1 1 acceptor
6 2 3 4 7 13 17 rings
6 2 3 5 6 12 15 rings
6 2 4 5 8 10 11 rings
6 3 6 7 9 14 16 rings
6 8 11 18 20 23 24 rings
6 9 14 19 21 25 26 rings

>  <PUBCHEM_HEAVY_ATOM_COUNT>  (1) 
26

>  <PUBCHEM_ATOM_DEF_STEREO_COUNT>  (1) 
0

>  <PUBCHEM_ATOM_UDEF_STEREO_COUNT>  (1) 
0

>  <PUBCHEM_BOND_DEF_STEREO_COUNT>  (1) 
0

>  <PUBCHEM_BOND_UDEF_STEREO_COUNT>  (1) 
0

>  <PUBCHEM_ISOTOPIC_ATOM_COUNT>  (1) 
0

>  <PUBCHEM_COMPONENT_COUNT>  (1) 
1

>  <PUBCHEM_CACTVS_TAUTO_COUNT>  (1) 
1

>  <PUBCHEM_CONFORMER_ID>  (1) 
0000AD3D00000001

>  <PUBCHEM_MMFF94_ENERGY>  (1) 
111.0484

>  <PUBCHEM_FEATURE_SELFOVERLAP>  (1) 
35.696

>  <PUBCHEM_SHAPE_FINGERPRINT>  (1) 
10 15 18336537340021764464
10411042 1 17761775465293993122
10616163 171 18339361868347663487
10670039 82 18261970578591477308
10906281 52 18337410303943863374
10967382 1 18409729573174981247
1100329 8 18193557989304150091
11112241 14 16269089427876481408
11513181 2 18059010562583094191
11578080 2 14115867222210629081
11607047 403 15759613256131098315
11963148 33 18336539525048034866
12011746 2 18409447011508267367
12107183 9 17760080718643150626
12236239 1 17989208165724986551
12390115 104 18199763465570395072
12403260 363 18408602569635519452
12788726 201 18270418190119329708
12838862 33 18337933671468096349
13140716 1 17977104883291427354
13402501 40 18410292540318847226
138480 1 17329428346514643442
13862211 1 18409726291841358430
14341114 176 18407763642189725279
14787075 74 18409728486500821626
14790565 3 18410298008023322028
15131766 46 14834405922004129393
15196674 1 18410011022598081510
16087824 20 18411417269187514117
17349148 13 17967252004997040348
17492 89 18338515214509690874
1813 80 17167861967743665572
19591789 44 18410291393778753070
20028762 73 18200871884955633847
20775438 99 16545479270778463927
21033648 29 17560220467042903576
21236236 1 18411982438404436417
21267235 1 18410018732164799510
21279426 13 18338234860529312358
22393880 68 18266463109634373446
23402539 116 18341326785879094823
23559900 14 18339070596967808313
283562 15 18410009932098323283
3004659 81 18260267460912918430
3178227 256 18263375818765618331
335352 9 18410009962173644039
338550 245 18334017219914225804
34797466 226 17489314126763519212
350125 39 18410575101885574873
3680242 22 18262235521716975370
392239 28 18411142437058218873
4073 2 17968100875408774010
4214541 1 18410292480252835988
474229 33 18410855477366397638
5104073 3 18339074883460591344
59755656 215 18409728452215046967
6138700 20 18408604747432241586
9709674 26 18269277859027219326

>  <PUBCHEM_SHAPE_MULTIPOLES>  (1) 
529.2
11.9
3.17
0.64
5.06
0.77
0.01
-0.29
-0.01
-1.8
0.23
-0.06
0.06
-0.24

>  <PUBCHEM_SHAPE_SELFOVERLAP>  (1) 
1251.191

>  <PUBCHEM_SHAPE_VOLUME>  (1) 
265.4

>  <PUBCHEM_COORDINATE_TYPE>  (1) 
2
5
10

$$$$
