44347
     RDKit          3D

 26 30  0  0  0  0  0  0  0  0999 V2000
   -1.1710   -2.8007   -0.0183 O   0  0  0  0  0  0  0  0  0  0  0  0
   -3.7816   -2.1887    0.0231 O   0  0  0  0  0  0  0  0  0  0  0  0
   -0.9382    0.8817    0.0239 C   0  0  0  0  0  0  0  0  0  0  0  0
   -0.5487   -0.4741    0.0014 C   0  0  0  0  0  0  0  0  0  0  0  0
    1.8624    0.1253   -0.0238 C   0  0  0  0  0  0  0  0  0  0  0  0
    1.4728    1.4811   -0.0019 C   0  0  0  0  0  0  0  0  0  0  0  0
   -2.3407    1.2144    0.0474 C   0  0  0  0  0  0  0  0  0  0  0  0
    0.8157   -0.8263   -0.0216 C   0  0  0  0  0  0  0  0  0  0  0  0
    0.1084    1.8335    0.0215 C   0  0  0  0  0  0  0  0  0  0  0  0
   -3.2997    0.1686    0.0472 C   0  0  0  0  0  0  0  0  0  0  0  0
    3.2648   -0.2073   -0.0471 C   0  0  0  0  0  0  0  0  0  0  0  0
   -1.5226   -1.4776    0.0017 C   0  0  0  0  0  0  0  0  0  0  0  0
   -2.8770   -1.1619    0.0243 C   0  0  0  0  0  0  0  0  0  0  0  0
    4.2239    0.8385   -0.0477 C   0  0  0  0  0  0  0  0  0  0  0  0
    2.4467    2.4847   -0.0031 C   0  0  0  0  0  0  0  0  0  0  0  0
   -2.8458    2.5388    0.0713 C   0  0  0  0  0  0  0  0  0  0  0  0
    3.8012    2.1691   -0.0259 C   0  0  0  0  0  0  0  0  0  0  0  0
   -4.6750    0.4576    0.0698 C   0  0  0  0  0  0  0  0  0  0  0  0
    3.7700   -1.5317   -0.0696 C   0  0  0  0  0  0  0  0  0  0  0  0
    5.5992    0.5497   -0.0703 C   0  0  0  0  0  0  0  0  0  0  0  0
   -4.2161    2.8130    0.0936 C   0  0  0  0  0  0  0  0  0  0  0  0
   -5.1310    1.7717    0.0929 C   0  0  0  0  0  0  0  0  0  0  0  0
    5.1404   -1.8058   -0.0917 C   0  0  0  0  0  0  0  0  0  0  0  0
    6.0552   -0.7645   -0.0922 C   0  0  0  0  0  0  0  0  0  0  0  0
   -0.9904   -3.4354    1.2427 C   0  0  0  0  0  0  0  0  0  0  0  0
   -4.2231   -2.6540   -1.2476 C   0  0  0  0  0  0  0  0  0  0  0  0
  1 12  1  0
  1 25  1  0
  2 13  1  0
  2 26  1  0
  3  4  1  0
  3  7  1  0
  3  9  2  0
  4  8  2  0
  4 12  1  0
  5  6  2  0
  5  8  1  0
  5 11  1  0
  6  9  1  0
  6 15  1  0
  7 10  2  0
  7 16  1  0
 10 13  1  0
 10 18  1  0
 11 14  2  0
 11 19  1  0
 12 13  2  0
 14 17  1  0
 14 20  1  0
 15 17  2  0
 16 21  2  0
 18 22  2  0
 19 23  2  0
 20 24  2  0
 21 22  1  0
 23 24  1  0
M  END
>  <PUBCHEM_COMPOUND_CID>  (1) 
44347

>  <PUBCHEM_CONFORMER_RMSD>  (1) 
0.6

>  <PUBCHEM_CONFORMER_DIVERSEORDER>  (1) 
1
2

>  <PUBCHEM_MMFF94_PARTIAL_CHARGES>  (1) 
30
1 -0.36
12 0.08
13 0.08
15 -0.15
16 -0.15
17 -0.15
18 -0.15
19 -0.15
2 -0.36
20 -0.15
21 -0.15
22 -0.15
23 -0.15
24 -0.15
25 0.28
26 0.28
27 0.15
28 0.15
29 0.15
30 0.15
31 0.15
32 0.15
33 0.15
34 0.15
35 0.15
36 0.15
37 0.15
38 0.15
8 -0.15
9 -0.15

>  <PUBCHEM_EFFECTIVE_ROTOR_COUNT>  (1) 
2

>  <PUBCHEM_PHARMACOPHORE_FEATURES>  (1) 
7
1 1 acceptor
1 2 acceptor
6 11 14 19 20 23 24 rings
6 3 4 5 6 8 9 rings
6 3 4 7 10 12 13 rings
6 5 6 11 14 15 17 rings
6 7 10 16 18 21 22 rings

>  <PUBCHEM_HEAVY_ATOM_COUNT>  (1) 
26

>  <PUBCHEM_ATOM_DEF_STEREO_COUNT>  (1) 
0

>  <PUBCHEM_ATOM_UDEF_STEREO_COUNT>  (1) 
0

>  <PUBCHEM_BOND_DEF_STEREO_COUNT>  (1) 
0

>  <PUBCHEM_BOND_UDEF_STEREO_COUNT>  (1) 
0

>  <PUBCHEM_ISOTOPIC_ATOM_COUNT>  (1) 
0

>  <PUBCHEM_COMPONENT_COUNT>  (1) 
1

>  <PUBCHEM_CACTVS_TAUTO_COUNT>  (1) 
1

>  <PUBCHEM_CONFORMER_ID>  (1) 
0000AD3B00000001

>  <PUBCHEM_MMFF94_ENERGY>  (1) 
118.1316

>  <PUBCHEM_FEATURE_SELFOVERLAP>  (1) 
35.625

>  <PUBCHEM_SHAPE_FINGERPRINT>  (1) 
10411042 1 18123188176550879455
10616163 171 18339646771114705142
10906281 52 18199770080157524004
1100329 8 18411137991682950656
11405975 8 18412826884667045288
11578080 2 13325750435233405000
12107183 9 18049438150174423554
12236239 1 17894916200442513240
12403259 226 18199462345666616537
12788726 201 18265323092164988099
13135754 10 16372441235500463915
13140716 1 18410019836324686337
13583140 156 17489295430095484032
138480 1 17472699126940307547
14341114 176 18411706460906912264
14347332 77 18342171232627026079
14790565 3 18194125105381805472
14866123 147 18410012130942776483
15042514 8 18263932206019664483
15099037 51 18338800018058961140
15183329 4 18410292489069279652
15196674 1 18411419539964125468
15250474 111 18336535075914934266
15484559 13 15364114082932869332
17349148 13 17989208109980244944
17492 89 18338236097269123914
17844677 252 18411707620574098652
17899979 129 17397525526120148413
1813 80 17095243614286318772
19141452 34 18410293588370112316
19591789 44 18335983077694879953
20775438 99 16618939803003645847
21033648 144 18339630196736177260
21033648 29 18261377911084880580
21065198 57 18338799026159009536
21133410 171 17331903716894396326
21236236 1 18413107269128017111
21267235 1 18410301310578560794
21279426 13 18339645516888984638
21421861 104 17822843166593249450
21703447 108 17983842664845038040
21859007 373 17824802491429070564
221490 88 18264496264047806568
23227448 37 18341612590509562725
23402539 116 18413384341172301967
23558518 356 18261400008717297067
23559900 14 18343297063898716424
3004659 81 18261960640216196358
3178227 256 18264504909801747329
335352 9 18338517443686687132
338550 245 18334019388925321228
350125 39 18410014329902461905
3680242 22 18190460446580704922
4073 2 18260271888945079690
4214541 1 18411419501151300660
460360 51 18265639656923877048
5104073 3 18411981386116253312
5309563 4 17255972693351107178
559249 180 18410571765160060138
59755656 215 18340488841975153492
6138700 20 18122066403738005350
6328613 192 18335430067092847588
633830 44 17385447643568736320
7226269 152 17988081084517859633
9709674 26 18338239391809395530

>  <PUBCHEM_SHAPE_MULTIPOLES>  (1) 
523.33
12.25
3.59
0.73
7.85
1.18
0
-0.74
0.95
-2.86
-0.25
-0.3
0.36
-0.46

>  <PUBCHEM_SHAPE_SELFOVERLAP>  (1) 
1198.741

>  <PUBCHEM_SHAPE_VOLUME>  (1) 
272.6

>  <PUBCHEM_COORDINATE_TYPE>  (1) 
2
5
10

$$$$
