44348
     RDKit          3D

 26 31  0  0  0  0  0  0  0  0999 V2000
   -3.8697    2.9695    0.8153 O   0  0  0  0  0  0  0  0  0  0  0  0
   -0.4500    0.1415   -0.0523 C   0  0  0  0  0  0  0  0  0  0  0  0
    0.9730    0.2883   -0.0392 C   0  0  0  0  0  0  0  0  0  0  0  0
   -1.0576   -1.1387   -0.0058 C   0  0  0  0  0  0  0  0  0  0  0  0
    1.8280   -0.8409    0.0212 C   0  0  0  0  0  0  0  0  0  0  0  0
   -1.2651    1.2947   -0.1128 C   0  0  0  0  0  0  0  0  0  0  0  0
    1.5362    1.5838   -0.0872 C   0  0  0  0  0  0  0  0  0  0  0  0
   -2.4920   -1.2572   -0.0204 C   0  0  0  0  0  0  0  0  0  0  0  0
    3.2566   -0.6638    0.0335 C   0  0  0  0  0  0  0  0  0  0  0  0
   -2.6570    1.1692   -0.1262 C   0  0  0  0  0  0  0  0  0  0  0  0
   -3.2782   -0.0818   -0.0812 C   0  0  0  0  0  0  0  0  0  0  0  0
   -0.1889   -2.2429    0.0534 C   0  0  0  0  0  0  0  0  0  0  0  0
    1.2023   -2.0994    0.0665 C   0  0  0  0  0  0  0  0  0  0  0  0
    3.7872    0.6474   -0.0158 C   0  0  0  0  0  0  0  0  0  0  0  0
   -0.6788    2.5627   -0.1593 C   0  0  0  0  0  0  0  0  0  0  0  0
    2.9246    1.7451   -0.0752 C   0  0  0  0  0  0  0  0  0  0  0  0
    0.7043    2.7056   -0.1468 C   0  0  0  0  0  0  0  0  0  0  0  0
   -3.1949   -2.4891    0.0223 C   0  0  0  0  0  0  0  0  0  0  0  0
    4.1952   -1.7263    0.0929 C   0  0  0  0  0  0  0  0  0  0  0  0
   -4.6822   -0.1584   -0.0968 C   0  0  0  0  0  0  0  0  0  0  0  0
    5.1773    0.8592   -0.0055 C   0  0  0  0  0  0  0  0  0  0  0  0
   -3.4851    2.3829   -0.1894 C   0  0  0  0  0  0  0  0  0  0  0  0
   -4.5908   -2.5528    0.0060 C   0  0  0  0  0  0  0  0  0  0  0  0
   -5.3353   -1.3859   -0.0536 C   0  0  0  0  0  0  0  0  0  0  0  0
    5.5748   -1.5035    0.1028 C   0  0  0  0  0  0  0  0  0  0  0  0
    6.0662   -0.2092    0.0536 C   0  0  0  0  0  0  0  0  0  0  0  0
  1 22  2  0
  2  3  2  0
  2  4  1  0
  2  6  1  0
  3  5  1  0
  3  7  1  0
  4  8  1  0
  4 12  2  0
  5  9  1  0
  5 13  2  0
  6 10  2  0
  6 15  1  0
  7 16  2  0
  7 17  1  0
  8 11  2  0
  8 18  1  0
  9 14  2  0
  9 19  1  0
 10 11  1  0
 10 22  1  0
 11 20  1  0
 12 13  1  0
 14 16  1  0
 14 21  1  0
 15 17  2  0
 18 23  2  0
 19 25  2  0
 20 24  2  0
 21 26  2  0
 23 24  1  0
 25 26  1  0
M  END
>  <PUBCHEM_COMPOUND_CID>  (1) 
44348

>  <PUBCHEM_CONFORMER_RMSD>  (1) 
0.6

>  <PUBCHEM_CONFORMER_DIVERSEORDER>  (1) 
1

>  <PUBCHEM_MMFF94_PARTIAL_CHARGES>  (1) 
30
1 -0.57
10 0.09
12 -0.15
13 -0.15
15 -0.15
16 -0.15
17 -0.15
18 -0.15
19 -0.15
20 -0.15
21 -0.15
22 0.42
23 -0.15
24 -0.15
25 -0.15
26 -0.15
27 0.15
28 0.15
29 0.15
30 0.15
31 0.15
32 0.15
33 0.15
34 0.15
35 0.15
36 0.06
37 0.15
38 0.15
39 0.15
40 0.15

>  <PUBCHEM_EFFECTIVE_ROTOR_COUNT>  (1) 
1

>  <PUBCHEM_PHARMACOPHORE_FEATURES>  (1) 
7
1 1 acceptor
6 2 3 4 5 12 13 rings
6 2 3 6 7 15 17 rings
6 2 4 6 8 10 11 rings
6 3 5 7 9 14 16 rings
6 8 11 18 20 23 24 rings
6 9 14 19 21 25 26 rings

>  <PUBCHEM_HEAVY_ATOM_COUNT>  (1) 
26

>  <PUBCHEM_ATOM_DEF_STEREO_COUNT>  (1) 
0

>  <PUBCHEM_ATOM_UDEF_STEREO_COUNT>  (1) 
0

>  <PUBCHEM_BOND_DEF_STEREO_COUNT>  (1) 
0

>  <PUBCHEM_BOND_UDEF_STEREO_COUNT>  (1) 
0

>  <PUBCHEM_ISOTOPIC_ATOM_COUNT>  (1) 
0

>  <PUBCHEM_COMPONENT_COUNT>  (1) 
1

>  <PUBCHEM_CACTVS_TAUTO_COUNT>  (1) 
1

>  <PUBCHEM_CONFORMER_ID>  (1) 
0000AD3C00000001

>  <PUBCHEM_MMFF94_ENERGY>  (1) 
111.0241

>  <PUBCHEM_FEATURE_SELFOVERLAP>  (1) 
35.696

>  <PUBCHEM_SHAPE_FINGERPRINT>  (1) 
10319926 262 18268974416237055242
10411042 1 18194401315361620343
10493431 412 18125448514632669593
10616163 171 18411700967427066703
10693767 8 17768792514965537983
10906281 52 18265354908981964510
10967382 1 18337953509905952439
1100329 8 18339928104146849401
11578080 2 13900813734386236649
11607047 403 15688117508160901299
12107183 9 17831856854884509906
12166972 35 17749110036265519510
12236239 1 17822008714086587126
12403259 226 18339919441297786577
12403260 363 18409448128194327084
13140716 1 18411979126863390584
13402501 40 18410292536039782150
13583140 156 14836132013341504554
138480 1 15456210031463620733
13862211 1 18410007766886621382
14341114 176 18408608088557880883
14790565 3 18409735036785104764
15042514 8 18410575041829736364
15131766 46 15193005072836113097
15196674 1 18410292489132576604
15352361 1 18410011065389466454
16087824 20 18337670808020009653
17492 89 18265333000491217059
1813 80 17385720309920717380
19591789 44 18410291428006668126
20028762 73 18201435951547908559
20691752 17 17385725772913233080
20775438 99 16617249870843570727
21236236 1 18411981338823951017
21267235 1 18409736178908626462
21279426 13 18339080359507119470
21857420 4 15544547638775782998
221357 26 18411416249839900199
221490 88 18190746529566615835
23402539 116 18412820309024622878
23522609 53 18121814774078032717
23557571 272 18272656727205341102
23559900 14 18338788026805929721
3004659 81 18186519926098379606
335352 9 18410009945151958951
34934 24 18191865630730106857
350125 39 18410857680932494785
3680242 22 18190741921604751882
4214541 1 18410573963703189821
5104073 3 18340762668153284520
59755656 215 18409164385686199279
9709674 26 18263084486110936707

>  <PUBCHEM_SHAPE_MULTIPOLES>  (1) 
529.2
11.75
3.3
0.64
6.02
0.92
0.01
-3.91
0.3
-2.44
0.13
-0.07
0.06
-0.3

>  <PUBCHEM_SHAPE_SELFOVERLAP>  (1) 
1251.126

>  <PUBCHEM_SHAPE_VOLUME>  (1) 
266.4

>  <PUBCHEM_COORDINATE_TYPE>  (1) 
2
5
10

$$$$
