44342
     RDKit          3D

 21 24  0  0  0  0  0  0  0  0999 V2000
   -0.7080   -1.0671   -0.0010 N   0  0  0  0  0  0  0  0  0  0  0  0
    0.1389    1.1715   -0.0005 C   0  0  0  0  0  0  0  0  0  0  0  0
    0.3470   -0.2198   -0.0007 C   0  0  0  0  0  0  0  0  0  0  0  0
   -1.1758    1.6506   -0.0002 C   0  0  0  0  0  0  0  0  0  0  0  0
    1.6753   -0.7006   -0.0004 C   0  0  0  0  0  0  0  0  0  0  0  0
   -2.2575    0.7672    0.0001 C   0  0  0  0  0  0  0  0  0  0  0  0
    2.7688    0.2036    0.0001 C   0  0  0  0  0  0  0  0  0  0  0  0
   -1.9732   -0.6053   -0.0006 C   0  0  0  0  0  0  0  0  0  0  0  0
    2.5262    1.5786    0.0000 C   0  0  0  0  0  0  0  0  0  0  0  0
    1.2223    2.0587   -0.0004 C   0  0  0  0  0  0  0  0  0  0  0  0
   -3.0432   -1.4962   -0.0004 C   0  0  0  0  0  0  0  0  0  0  0  0
   -1.4348    3.1323    0.0005 C   0  0  0  0  0  0  0  0  0  0  0  0
   -3.5885    1.2206    0.0009 C   0  0  0  0  0  0  0  0  0  0  0  0
    1.9672   -2.0816   -0.0001 C   0  0  0  0  0  0  0  0  0  0  0  0
    4.0865   -0.2836    0.0010 C   0  0  0  0  0  0  0  0  0  0  0  0
    3.6308    2.5898   -0.0014 C   0  0  0  0  0  0  0  0  0  0  0  0
   -4.3675   -1.0512    0.0007 C   0  0  0  0  0  0  0  0  0  0  0  0
   -4.6412    0.3105    0.0015 C   0  0  0  0  0  0  0  0  0  0  0  0
    3.2823   -2.5516    0.0008 C   0  0  0  0  0  0  0  0  0  0  0  0
    4.3411   -1.6531    0.0015 C   0  0  0  0  0  0  0  0  0  0  0  0
   -2.7969   -2.9733   -0.0016 C   0  0  0  0  0  0  0  0  0  0  0  0
  1  3  2  0
  1  8  1  0
  2  3  1  0
  2  4  2  0
  2 10  1  0
  3  5  1  0
  4  6  1  0
  4 12  1  0
  5  7  2  0
  5 14  1  0
  6  8  2  0
  6 13  1  0
  7  9  1  0
  7 15  1  0
  8 11  1  0
  9 10  2  0
  9 16  1  0
 11 17  2  0
 11 21  1  0
 13 18  2  0
 14 19  2  0
 15 20  2  0
 17 18  1  0
 19 20  1  0
M  END
>  <PUBCHEM_COMPOUND_CID>  (1) 
44342

>  <PUBCHEM_CONFORMER_RMSD>  (1) 
0.6

>  <PUBCHEM_CONFORMER_DIVERSEORDER>  (1) 
1

>  <PUBCHEM_MMFF94_PARTIAL_CHARGES>  (1) 
25
1 -0.62
10 -0.15
11 -0.14
12 0.14
13 -0.15
14 -0.15
15 -0.15
16 0.14
17 -0.15
18 -0.15
19 -0.15
20 -0.15
21 0.14
22 0.15
26 0.15
27 0.15
28 0.15
3 0.31
32 0.15
33 0.15
34 0.15
35 0.15
4 -0.14
8 0.31
9 -0.14

>  <PUBCHEM_EFFECTIVE_ROTOR_COUNT>  (1) 
0

>  <PUBCHEM_PHARMACOPHORE_FEATURES>  (1) 
5
1 1 acceptor
6 1 2 3 4 6 8 rings
6 2 3 5 7 9 10 rings
6 5 7 14 15 19 20 rings
6 6 8 11 13 17 18 rings

>  <PUBCHEM_HEAVY_ATOM_COUNT>  (1) 
21

>  <PUBCHEM_ATOM_DEF_STEREO_COUNT>  (1) 
0

>  <PUBCHEM_ATOM_UDEF_STEREO_COUNT>  (1) 
0

>  <PUBCHEM_BOND_DEF_STEREO_COUNT>  (1) 
0

>  <PUBCHEM_BOND_UDEF_STEREO_COUNT>  (1) 
0

>  <PUBCHEM_ISOTOPIC_ATOM_COUNT>  (1) 
0

>  <PUBCHEM_COMPONENT_COUNT>  (1) 
1

>  <PUBCHEM_CACTVS_TAUTO_COUNT>  (1) 
1

>  <PUBCHEM_CONFORMER_ID>  (1) 
0000AD3600000001

>  <PUBCHEM_MMFF94_ENERGY>  (1) 
82.2423

>  <PUBCHEM_FEATURE_SELFOVERLAP>  (1) 
25.458

>  <PUBCHEM_SHAPE_FINGERPRINT>  (1) 
10616163 171 18340490070404858871
10967382 1 18338516451248353093
1100329 8 16895955739939823803
11578080 2 17345168156134502369
116883 192 18339927013134783694
12403259 226 18337948991833037268
12553582 1 18410285883151420795
12633257 1 18199477579799148673
12788726 201 17489041370275261425
12839892 36 18195227022797234088
13140716 1 18410864260943666387
138480 1 14519463460559385632
14223421 5 18410007732563481548
14790565 3 17833275598468023460
14866123 147 17046271095538374634
15042514 8 17689431590764318698
15196674 1 18410856585810610913
15352361 1 18410855430126993070
15442244 35 18339362950679357128
15536298 74 18413388760873146736
16945 1 18410575041787544804
17492 89 18337954592243960243
17804303 29 18340491062504978165
1813 80 17385725798276900972
18186145 218 17676200282145813291
19141452 34 18341614798339166679
19591789 44 16827004261654630793
200 152 18130783456360513839
20510252 161 18127690418366606945
20645477 70 18408881862563206366
21267235 1 18410865347269899979
21421861 104 18187639168067344866
21501502 16 18412268332580676344
221490 88 18336553801803117530
23184049 29 18411421665840970868
2334 1 18266741474669522573
23366157 5 18113900477012558308
23402539 116 18271799078529710943
23557571 272 18057608660036001094
23559900 14 18412257325011929040
2748010 2 18267019638289952957
2871803 45 18335135384284066694
3004659 81 18259982664998099079
335352 9 18266458707308732277
34934 24 18339637957836214127
350125 39 18338520746421916576
4214541 1 18338797819088342625
4409770 3 17033024205580613332
46194498 28 17388803456652610079
5104073 3 18411139155887873497
59755656 215 18410294748644252596
7364860 26 18412825798430481912
8809292 202 18334580135339135891
9709674 26 18411704257340795630
9981440 41 17759521466736238072

>  <PUBCHEM_SHAPE_MULTIPOLES>  (1) 
427.19
8.57
3.37
0.61
1.08
0.24
0
-2.48
0
-0.79
0
0
0
0

>  <PUBCHEM_SHAPE_SELFOVERLAP>  (1) 
975.27

>  <PUBCHEM_SHAPE_VOLUME>  (1) 
223.4

>  <PUBCHEM_COORDINATE_TYPE>  (1) 
2
5
10

$$$$
