44341
     RDKit          3D

 21 24  0  0  0  0  0  0  0  0999 V2000
   -0.7439    1.8299   -0.0001 N   0  0  0  0  0  0  0  0  0  0  0  0
    0.9208    0.0677   -0.0001 C   0  0  0  0  0  0  0  0  0  0  0  0
   -0.1452   -0.8571    0.0000 C   0  0  0  0  0  0  0  0  0  0  0  0
   -1.4850   -0.4464    0.0001 C   0  0  0  0  0  0  0  0  0  0  0  0
    2.3154   -0.2955    0.0000 C   0  0  0  0  0  0  0  0  0  0  0  0
    0.5399    1.4242   -0.0002 C   0  0  0  0  0  0  0  0  0  0  0  0
   -1.7414    0.9297    0.0000 C   0  0  0  0  0  0  0  0  0  0  0  0
   -2.5479   -1.3677    0.0001 C   0  0  0  0  0  0  0  0  0  0  0  0
    3.2898    0.7317   -0.0002 C   0  0  0  0  0  0  0  0  0  0  0  0
   -3.8666   -0.9227    0.0004 C   0  0  0  0  0  0  0  0  0  0  0  0
   -4.1272    0.4413    0.0004 C   0  0  0  0  0  0  0  0  0  0  0  0
   -3.0685    1.3524    0.0002 C   0  0  0  0  0  0  0  0  0  0  0  0
    0.0455   -2.3454   -0.0011 C   0  0  0  0  0  0  0  0  0  0  0  0
    1.5280    2.3949   -0.0004 C   0  0  0  0  0  0  0  0  0  0  0  0
    2.8812    2.0654   -0.0004 C   0  0  0  0  0  0  0  0  0  0  0  0
    2.7951   -1.6294    0.0004 C   0  0  0  0  0  0  0  0  0  0  0  0
    4.6605    0.4201    0.0000 C   0  0  0  0  0  0  0  0  0  0  0  0
   -4.9762   -1.9212   -0.0008 C   0  0  0  0  0  0  0  0  0  0  0  0
   -5.5284    0.9577    0.0006 C   0  0  0  0  0  0  0  0  0  0  0  0
    4.1604   -1.9277    0.0006 C   0  0  0  0  0  0  0  0  0  0  0  0
    5.0936   -0.9022    0.0004 C   0  0  0  0  0  0  0  0  0  0  0  0
  1  6  2  0
  1  7  1  0
  2  3  2  0
  2  5  1  0
  2  6  1  0
  3  4  1  0
  3 13  1  0
  4  7  2  0
  4  8  1  0
  5  9  2  0
  5 16  1  0
  6 14  1  0
  7 12  1  0
  8 10  2  0
  9 15  1  0
  9 17  1  0
 10 11  1  0
 10 18  1  0
 11 12  2  0
 11 19  1  0
 14 15  2  0
 16 20  2  0
 17 21  2  0
 20 21  1  0
M  END
>  <PUBCHEM_COMPOUND_CID>  (1) 
44341

>  <PUBCHEM_CONFORMER_RMSD>  (1) 
0.6

>  <PUBCHEM_CONFORMER_DIVERSEORDER>  (1) 
1

>  <PUBCHEM_MMFF94_PARTIAL_CHARGES>  (1) 
25
1 -0.62
10 -0.14
11 -0.14
12 -0.15
13 0.14
14 -0.15
15 -0.15
16 -0.15
17 -0.15
18 0.14
19 0.14
20 -0.15
21 -0.15
22 0.15
23 0.15
27 0.15
28 0.15
29 0.15
3 -0.14
30 0.15
37 0.15
38 0.15
6 0.31
7 0.31
8 -0.15

>  <PUBCHEM_EFFECTIVE_ROTOR_COUNT>  (1) 
0

>  <PUBCHEM_PHARMACOPHORE_FEATURES>  (1) 
5
1 1 acceptor
6 1 2 3 4 6 7 rings
6 2 5 6 9 14 15 rings
6 4 7 8 10 11 12 rings
6 5 9 16 17 20 21 rings

>  <PUBCHEM_HEAVY_ATOM_COUNT>  (1) 
21

>  <PUBCHEM_ATOM_DEF_STEREO_COUNT>  (1) 
0

>  <PUBCHEM_ATOM_UDEF_STEREO_COUNT>  (1) 
0

>  <PUBCHEM_BOND_DEF_STEREO_COUNT>  (1) 
0

>  <PUBCHEM_BOND_UDEF_STEREO_COUNT>  (1) 
0

>  <PUBCHEM_ISOTOPIC_ATOM_COUNT>  (1) 
0

>  <PUBCHEM_COMPONENT_COUNT>  (1) 
1

>  <PUBCHEM_CACTVS_TAUTO_COUNT>  (1) 
1

>  <PUBCHEM_CONFORMER_ID>  (1) 
0000AD3500000001

>  <PUBCHEM_MMFF94_ENERGY>  (1) 
98.1882

>  <PUBCHEM_FEATURE_SELFOVERLAP>  (1) 
25.454

>  <PUBCHEM_SHAPE_FINGERPRINT>  (1) 
10062212 137 18272365391163177383
10616163 171 18340490079142518999
10967382 1 18338517542565704640
11471102 20 18410291415258857884
11578080 2 16843030099144088938
11806522 49 18408886239414299884
12011746 2 18412269411223889046
12107183 9 17763466114739188715
12403259 226 18409724067043219309
12788726 201 17774457026460971208
12838862 33 18338779166525566928
13140716 1 18412268332907782705
13167823 11 18412261757196794735
138480 1 18338517551066832436
13862211 1 18410289207508913890
14341114 176 18411143519616914897
14790565 3 18410581647457983953
14866123 147 17478618910328422170
15042514 8 17905603299262528266
15099037 51 18410855447391109007
15196674 1 18410856576867164005
15442244 35 18411702062754607352
15536298 74 18341893017345603632
15788980 27 18186804677507389593
16945 1 18194402431662317920
17349148 13 17917996087475320519
17492 89 18339080505320437319
17804303 29 18411140242351178661
1813 80 17385441025182135868
18186145 218 17821720654729774375
19141452 34 18413388735419750263
19591789 44 18410009957304027123
200 152 18130786772017211601
20028762 73 18202279251418194071
20645477 70 18410011065589978566
21267235 1 18411145744104246350
21279426 13 18192710034037501845
21421861 104 17824820031842632466
21709351 56 18409441497323965725
221490 88 18335989769238089979
23402539 116 18342451543319238463
23559900 14 18412258458741045792
3004659 81 18259988146273167654
335352 9 18410856517154405653
34934 24 18340200886662932518
350125 39 18410014333859994461
351380 180 18410572894314309915
3680242 22 18191024504108141946
3886686 26 16749560178244910058
4073 2 18041565839934866235
4214541 1 18410856551493051073
5104073 3 18411419535742862705
59755656 215 18336827468481649127
6138700 20 18337392622107149490
633830 44 17458061599185501609
7364860 26 18341330106458533072
77779 3 18410293631435589281
9709674 26 18263648518543835667
9981440 41 17545034270233895672

>  <PUBCHEM_SHAPE_MULTIPOLES>  (1) 
427.19
10.71
2.5
0.61
3.68
0.02
0
-2.14
0
-0.5
0
0
-0.01
0

>  <PUBCHEM_SHAPE_SELFOVERLAP>  (1) 
974.536

>  <PUBCHEM_SHAPE_VOLUME>  (1) 
222.3

>  <PUBCHEM_COORDINATE_TYPE>  (1) 
2
5
10

$$$$
