44350
     RDKit          3D

 27 32  0  0  0  0  0  0  0  0999 V2000
    3.8607    3.0374   -0.8270 O   0  0  0  0  0  0  0  0  0  0  0  0
   -0.8504    0.1320    0.0321 C   0  0  0  0  0  0  0  0  0  0  0  0
    0.5779    0.0531    0.0476 C   0  0  0  0  0  0  0  0  0  0  0  0
   -1.6508   -1.0370   -0.0241 C   0  0  0  0  0  0  0  0  0  0  0  0
   -1.4750    1.3993    0.0735 C   0  0  0  0  0  0  0  0  0  0  0  0
    1.2456   -1.1968    0.0078 C   0  0  0  0  0  0  0  0  0  0  0  0
    1.3369    1.2442    0.1039 C   0  0  0  0  0  0  0  0  0  0  0  0
   -3.0860   -0.9283   -0.0387 C   0  0  0  0  0  0  0  0  0  0  0  0
   -2.8693    1.4943    0.0593 C   0  0  0  0  0  0  0  0  0  0  0  0
    2.6842   -1.2468    0.0250 C   0  0  0  0  0  0  0  0  0  0  0  0
   -3.6786    0.3564    0.0041 C   0  0  0  0  0  0  0  0  0  0  0  0
    2.7333    1.1851    0.1198 C   0  0  0  0  0  0  0  0  0  0  0  0
    3.4134   -0.0350    0.0816 C   0  0  0  0  0  0  0  0  0  0  0  0
   -0.9657   -2.2644   -0.0632 C   0  0  0  0  0  0  0  0  0  0  0  0
   -0.6975    2.5596    0.1288 C   0  0  0  0  0  0  0  0  0  0  0  0
    0.4307   -2.3416   -0.0477 C   0  0  0  0  0  0  0  0  0  0  0  0
    0.6908    2.4831    0.1437 C   0  0  0  0  0  0  0  0  0  0  0  0
   -3.5131    2.8569    0.1041 C   0  0  0  0  0  0  0  0  0  0  0  0
   -3.9730   -2.0346   -0.0940 C   0  0  0  0  0  0  0  0  0  0  0  0
   -5.0771    0.5016   -0.0082 C   0  0  0  0  0  0  0  0  0  0  0  0
    3.4449   -2.4440   -0.0108 C   0  0  0  0  0  0  0  0  0  0  0  0
    4.8194   -0.0446    0.0999 C   0  0  0  0  0  0  0  0  0  0  0  0
    3.5020    2.4370    0.1795 C   0  0  0  0  0  0  0  0  0  0  0  0
   -5.3616   -1.8778   -0.1060 C   0  0  0  0  0  0  0  0  0  0  0  0
   -5.9143   -0.6081   -0.0630 C   0  0  0  0  0  0  0  0  0  0  0  0
    4.8423   -2.4411    0.0082 C   0  0  0  0  0  0  0  0  0  0  0  0
    5.5302   -1.2398    0.0636 C   0  0  0  0  0  0  0  0  0  0  0  0
  1 23  2  0
  2  3  2  0
  2  4  1  0
  2  5  1  0
  3  6  1  0
  3  7  1  0
  4  8  1  0
  4 14  2  0
  5  9  2  0
  5 15  1  0
  6 10  1  0
  6 16  2  0
  7 12  2  0
  7 17  1  0
  8 11  2  0
  8 19  1  0
  9 11  1  0
  9 18  1  0
 10 13  2  0
 10 21  1  0
 11 20  1  0
 12 13  1  0
 12 23  1  0
 13 22  1  0
 14 16  1  0
 15 17  2  0
 19 24  2  0
 20 25  2  0
 21 26  2  0
 22 27  2  0
 24 25  1  0
 26 27  1  0
M  END
>  <PUBCHEM_COMPOUND_CID>  (1) 
44350

>  <PUBCHEM_CONFORMER_RMSD>  (1) 
0.6

>  <PUBCHEM_CONFORMER_DIVERSEORDER>  (1) 
1

>  <PUBCHEM_MMFF94_PARTIAL_CHARGES>  (1) 
30
1 -0.57
12 0.09
14 -0.15
15 -0.15
16 -0.15
17 -0.15
18 0.14
19 -0.15
20 -0.15
21 -0.15
22 -0.15
23 0.42
24 -0.15
25 -0.15
26 -0.15
27 -0.15
28 0.15
29 0.15
30 0.15
31 0.15
35 0.15
36 0.15
37 0.15
38 0.15
39 0.06
40 0.15
41 0.15
42 0.15
43 0.15
9 -0.14

>  <PUBCHEM_EFFECTIVE_ROTOR_COUNT>  (1) 
1

>  <PUBCHEM_PHARMACOPHORE_FEATURES>  (1) 
7
1 1 acceptor
6 10 13 21 22 26 27 rings
6 2 3 4 6 14 16 rings
6 2 3 5 7 15 17 rings
6 2 4 5 8 9 11 rings
6 3 6 7 10 12 13 rings
6 8 11 19 20 24 25 rings

>  <PUBCHEM_HEAVY_ATOM_COUNT>  (1) 
27

>  <PUBCHEM_ATOM_DEF_STEREO_COUNT>  (1) 
0

>  <PUBCHEM_ATOM_UDEF_STEREO_COUNT>  (1) 
0

>  <PUBCHEM_BOND_DEF_STEREO_COUNT>  (1) 
0

>  <PUBCHEM_BOND_UDEF_STEREO_COUNT>  (1) 
0

>  <PUBCHEM_ISOTOPIC_ATOM_COUNT>  (1) 
0

>  <PUBCHEM_COMPONENT_COUNT>  (1) 
1

>  <PUBCHEM_CACTVS_TAUTO_COUNT>  (1) 
1

>  <PUBCHEM_CONFORMER_ID>  (1) 
0000AD3E00000001

>  <PUBCHEM_MMFF94_ENERGY>  (1) 
125.5542

>  <PUBCHEM_FEATURE_SELFOVERLAP>  (1) 
35.696

>  <PUBCHEM_SHAPE_FINGERPRINT>  (1) 
10411042 1 18411418388638862874
10616163 171 18412826854654631733
10622 236 17485904618267928047
10693767 8 17985524879841498159
10967382 1 18339079422787530128
1100329 8 18268150846797823521
11578080 2 16843585318325195482
11607047 403 16120170542160553219
11963148 33 17976534241253078307
12107183 9 17907298749817347337
12166972 35 17894916230169720334
12236239 1 17894913992602690654
12403259 226 18337947900879650084
12403260 363 18411417293411211211
12788726 201 17702963511852513273
13140716 1 18341331085062301737
13402501 40 18411417297748668803
13533116 47 18342175613071382281
138480 1 18339360867773796976
13862211 1 18411133619469754435
14341114 176 18410859849833008971
14790565 3 18411706521189344273
15196674 1 18411136965538947641
15352361 1 18411418393007358411
15927050 60 17766558336842621340
16087824 20 18194401097104616205
16992752 21 17831863448657406322
17492 89 18410855460134053731
17844677 252 18411424990024293115
1813 80 17530963570977435052
18681886 176 18341326730651083938
19591789 44 18411417306391169027
20028762 73 18201433683894775511
20691752 17 17530966860569039968
20775438 99 16834542999518676887
21236236 1 18341049610596858515
21267235 1 18411426098173562075
21279426 13 18408880716365893479
21792934 111 18341041961571562025
221357 26 18411415111910898119
221490 88 18409172125095719826
22149856 69 18267880530984678051
22393880 68 18114169792736374581
23402539 116 18342450426749288119
23522609 53 18123222105959178520
23559900 14 18340760464286395913
3004659 81 18260545636853676704
335352 9 18339360743293254453
3380486 145 17829067729209042923
338550 245 18408324393162160812
350125 39 18410856551087005628
3680242 22 18336830775458819627
4073 2 18041846223889773843
4214541 1 18339079289833454505
5104073 3 18341611486339036241
59755656 215 18337952290399484967
9709674 26 18336269028017165034
9981440 41 17400637615633977248

>  <PUBCHEM_SHAPE_MULTIPOLES>  (1) 
549.78
11.79
3.53
0.64
2.46
1.18
0.01
-4
0.24
-1.13
0.14
-0.07
0.06
-0.34

>  <PUBCHEM_SHAPE_SELFOVERLAP>  (1) 
1295.882

>  <PUBCHEM_SHAPE_VOLUME>  (1) 
278.8

>  <PUBCHEM_COORDINATE_TYPE>  (1) 
2
5
10

$$$$
