44358
     RDKit          3D

 23 27  0  0  0  0  0  0  0  0999 V2000
   -0.9711    2.4929   -0.0009 N   0  0  0  0  0  0  0  0  0  0  0  0
   -1.3972    0.0508   -0.0003 C   0  0  0  0  0  0  0  0  0  0  0  0
    1.4856   -0.2775   -0.0001 C   0  0  0  0  0  0  0  0  0  0  0  0
    0.8970    1.0048   -0.0002 C   0  0  0  0  0  0  0  0  0  0  0  0
   -0.8086   -1.2313   -0.0006 C   0  0  0  0  0  0  0  0  0  0  0  0
   -0.5049    1.1487   -0.0002 C   0  0  0  0  0  0  0  0  0  0  0  0
   -2.8339    0.1697    0.0000 C   0  0  0  0  0  0  0  0  0  0  0  0
    2.9221   -0.3963   -0.0001 C   0  0  0  0  0  0  0  0  0  0  0  0
    0.5932   -1.3753   -0.0006 C   0  0  0  0  0  0  0  0  0  0  0  0
   -3.6254   -1.0081   -0.0001 C   0  0  0  0  0  0  0  0  0  0  0  0
    3.7136    0.7815   -0.0001 C   0  0  0  0  0  0  0  0  0  0  0  0
    1.7095    2.1430   -0.0003 C   0  0  0  0  0  0  0  0  0  0  0  0
   -1.6212   -2.3695   -0.0008 C   0  0  0  0  0  0  0  0  0  0  0  0
    3.0961    2.0337   -0.0003 C   0  0  0  0  0  0  0  0  0  0  0  0
   -3.0079   -2.2603   -0.0006 C   0  0  0  0  0  0  0  0  0  0  0  0
   -3.5320    1.4036    0.0005 C   0  0  0  0  0  0  0  0  0  0  0  0
    3.6203   -1.6302    0.0007 C   0  0  0  0  0  0  0  0  0  0  0  0
   -5.0286   -0.9285    0.0004 C   0  0  0  0  0  0  0  0  0  0  0  0
    5.1168    0.7018    0.0003 C   0  0  0  0  0  0  0  0  0  0  0  0
   -4.9282    1.4692    0.0009 C   0  0  0  0  0  0  0  0  0  0  0  0
    5.0165   -1.6959    0.0009 C   0  0  0  0  0  0  0  0  0  0  0  0
   -5.6767    0.3025    0.0010 C   0  0  0  0  0  0  0  0  0  0  0  0
    5.7649   -0.5292    0.0006 C   0  0  0  0  0  0  0  0  0  0  0  0
  1  6  1  0
  2  5  1  0
  2  6  2  0
  2  7  1  0
  3  4  2  0
  3  8  1  0
  3  9  1  0
  4  6  1  0
  4 12  1  0
  5  9  2  0
  5 13  1  0
  7 10  2  0
  7 16  1  0
  8 11  2  0
  8 17  1  0
 10 15  1  0
 10 18  1  0
 11 14  1  0
 11 19  1  0
 12 14  2  0
 13 15  2  0
 16 20  2  0
 17 21  2  0
 18 22  2  0
 19 23  2  0
 20 22  1  0
 21 23  1  0
M  END
>  <PUBCHEM_COMPOUND_CID>  (1) 
44358

>  <PUBCHEM_CONFORMER_RMSD>  (1) 
0.6

>  <PUBCHEM_CONFORMER_DIVERSEORDER>  (1) 
1

>  <PUBCHEM_MMFF94_PARTIAL_CHARGES>  (1) 
30
1 -0.9
12 -0.15
13 -0.15
14 -0.15
15 -0.15
16 -0.15
17 -0.15
18 -0.15
19 -0.15
20 -0.15
21 -0.15
22 -0.15
23 -0.15
24 0.15
25 0.15
26 0.15
27 0.15
28 0.15
29 0.15
30 0.15
31 0.15
32 0.15
33 0.4
34 0.4
35 0.15
36 0.15
37 0.15
38 0.15
6 0.1
9 -0.15

>  <PUBCHEM_EFFECTIVE_ROTOR_COUNT>  (1) 
0

>  <PUBCHEM_PHARMACOPHORE_FEATURES>  (1) 
7
1 1 cation
1 1 donor
6 2 3 4 5 6 9 rings
6 2 5 7 10 13 15 rings
6 3 4 8 11 12 14 rings
6 7 10 16 18 20 22 rings
6 8 11 17 19 21 23 rings

>  <PUBCHEM_HEAVY_ATOM_COUNT>  (1) 
23

>  <PUBCHEM_ATOM_DEF_STEREO_COUNT>  (1) 
0

>  <PUBCHEM_ATOM_UDEF_STEREO_COUNT>  (1) 
0

>  <PUBCHEM_BOND_DEF_STEREO_COUNT>  (1) 
0

>  <PUBCHEM_BOND_UDEF_STEREO_COUNT>  (1) 
0

>  <PUBCHEM_ISOTOPIC_ATOM_COUNT>  (1) 
0

>  <PUBCHEM_COMPONENT_COUNT>  (1) 
1

>  <PUBCHEM_CACTVS_TAUTO_COUNT>  (1) 
1

>  <PUBCHEM_CONFORMER_ID>  (1) 
0000AD4600000001

>  <PUBCHEM_MMFF94_ENERGY>  (1) 
115.9751

>  <PUBCHEM_FEATURE_SELFOVERLAP>  (1) 
35.617

>  <PUBCHEM_SHAPE_FINGERPRINT>  (1) 
10074138 170 14962749981437493129
10616163 171 18340208612586892414
10906281 52 18269575899687119438
10967382 1 18410574002336608069
11405975 8 18411138073281794706
11578080 2 17058350716780472354
12107183 9 17762055436967762538
12236239 1 18410012130414696826
12788726 201 17845947250918544296
13140716 1 18411138077576781419
13402501 40 18411700967411209991
138480 1 15024148119893252928
13862211 1 18410852144466475127
14341114 176 18410298016338683752
14790565 3 18410016494249623857
14866123 147 17479465538745595010
15042514 8 18192998338793733595
15099037 51 18410575067493772255
15183329 4 18410575071778183534
15196674 1 18410856585414874597
15256400 18 18411419496829855653
15536298 74 18341331179772764288
15788980 27 18260832609003384979
16087824 20 18265616490103397965
17349148 13 17989208144112753153
17492 89 18121218937660057891
1813 80 17168141256508409844
18681886 176 18271801358962302674
19141452 34 18411981381536455207
19591789 44 18409446947268309065
200 152 18060698394461527321
20028762 73 18201714055022608695
20775438 99 16475950519277442399
21033648 29 17895739756142820469
21065198 57 18338797943404932994
21236236 1 18341613655698888241
21267235 1 18410018753518316699
21279426 13 18266458711207898327
21421861 104 17968364646973278970
21859007 373 17897982708071038701
221490 88 18263650739221080906
23402539 116 18272082803673788695
23559900 14 18341609352173130904
3004659 81 18261395529762499230
335352 9 18410855434390019965
34934 24 18411414046906669218
350125 39 18410013208478381549
3545911 37 18411983571990660640
3680242 22 18262798454538052258
4073 2 18041564753804006002
4214541 1 18410573993978762561
460360 51 18195553456921945083
495365 180 17418083369384441976
5104073 3 18411138069007907522
559249 180 18409444760940233291
59755656 215 18340211787174450878
59755656 520 17022621983262159298
6138700 20 18337392621980529474
6328613 192 18334864943616793252
633830 44 17458342004414480416
9709674 26 18264210394607798338
9981440 41 17254557617527914784

>  <PUBCHEM_SHAPE_MULTIPOLES>  (1) 
468.35
12.33
2.51
0.61
1.16
0.07
0
-0.94
0
-0.16
0
0
-0.01
0

>  <PUBCHEM_SHAPE_SELFOVERLAP>  (1) 
1089.1

>  <PUBCHEM_SHAPE_VOLUME>  (1) 
234.7

>  <PUBCHEM_COORDINATE_TYPE>  (1) 
2
5
10

$$$$
