44362
     RDKit          3D

 30 34  0  0  0  0  0  0  0  0999 V2000
   -1.4912    1.8375   -1.3577 O   0  0  0  0  0  0  0  0  0  0  0  0
   -4.8029    1.7636   -0.0020 O   0  0  0  0  0  0  0  0  0  0  0  0
   -5.5321    3.7203   -0.8891 O   0  0  0  0  0  0  0  0  0  0  0  0
   -0.8402    0.9693    0.7273 N   0  0  0  0  0  0  0  0  0  0  0  0
   -2.4189    2.6464    0.5991 N   0  0  0  0  0  0  0  0  0  0  0  0
   -0.2548   -1.3471    0.1360 C   0  0  0  0  0  0  0  0  0  0  0  0
    2.4904   -0.4191   -0.0072 C   0  0  0  0  0  0  0  0  0  0  0  0
    1.4387    0.4612    0.3236 C   0  0  0  0  0  0  0  0  0  0  0  0
    0.1100   -0.0039    0.3893 C   0  0  0  0  0  0  0  0  0  0  0  0
    0.7969   -2.2274   -0.1949 C   0  0  0  0  0  0  0  0  0  0  0  0
   -1.6048   -1.8491    0.1965 C   0  0  0  0  0  0  0  0  0  0  0  0
    2.1256   -1.7621   -0.2607 C   0  0  0  0  0  0  0  0  0  0  0  0
    3.8404    0.0829   -0.0672 C   0  0  0  0  0  0  0  0  0  0  0  0
   -1.8459   -3.2201   -0.0787 C   0  0  0  0  0  0  0  0  0  0  0  0
    4.0816    1.4538    0.2084 C   0  0  0  0  0  0  0  0  0  0  0  0
    1.7149    1.8062    0.5888 C   0  0  0  0  0  0  0  0  0  0  0  0
    0.5207   -3.5724   -0.4599 C   0  0  0  0  0  0  0  0  0  0  0  0
    3.0157    2.2954    0.5324 C   0  0  0  0  0  0  0  0  0  0  0  0
   -0.7801   -4.0617   -0.4030 C   0  0  0  0  0  0  0  0  0  0  0  0
   -2.7363   -1.0577    0.5179 C   0  0  0  0  0  0  0  0  0  0  0  0
    4.9720   -0.7087   -0.3880 C   0  0  0  0  0  0  0  0  0  0  0  0
   -3.1497   -3.7426   -0.0285 C   0  0  0  0  0  0  0  0  0  0  0  0
    5.3855    1.9761    0.1591 C   0  0  0  0  0  0  0  0  0  0  0  0
   -4.0280   -1.5894    0.5644 C   0  0  0  0  0  0  0  0  0  0  0  0
    6.2637   -0.1772   -0.4338 C   0  0  0  0  0  0  0  0  0  0  0  0
   -4.2347   -2.9325    0.2911 C   0  0  0  0  0  0  0  0  0  0  0  0
    6.4706    1.1658   -0.1601 C   0  0  0  0  0  0  0  0  0  0  0  0
   -1.5674    1.8114   -0.1316 C   0  0  0  0  0  0  0  0  0  0  0  0
   -3.2900    3.6194   -0.0188 C   0  0  0  0  0  0  0  0  0  0  0  0
   -4.6496    3.0616   -0.3527 C   0  0  0  0  0  0  0  0  0  0  0  0
  1 28  2  0
  2 30  1  0
  3 30  2  0
  4  9  1  0
  4 28  1  0
  5 28  1  0
  5 29  1  0
  6  9  2  0
  6 10  1  0
  6 11  1  0
  7  8  2  0
  7 12  1  0
  7 13  1  0
  8  9  1  0
  8 16  1  0
 10 12  2  0
 10 17  1  0
 11 14  2  0
 11 20  1  0
 13 15  2  0
 13 21  1  0
 14 19  1  0
 14 22  1  0
 15 18  1  0
 15 23  1  0
 16 18  2  0
 17 19  2  0
 20 24  2  0
 21 25  2  0
 22 26  2  0
 23 27  2  0
 24 26  1  0
 25 27  1  0
 29 30  1  0
M  END
>  <PUBCHEM_COMPOUND_CID>  (1) 
44362

>  <PUBCHEM_CONFORMER_RMSD>  (1) 
0.8

>  <PUBCHEM_CONFORMER_DIVERSEORDER>  (1) 
1
5
6
3
2
7
8
4
9
10
14
13
11
12

>  <PUBCHEM_MMFF94_PARTIAL_CHARGES>  (1) 
38
1 -0.57
12 -0.15
16 -0.15
17 -0.15
18 -0.15
19 -0.15
2 -0.65
20 -0.15
21 -0.15
22 -0.15
23 -0.15
24 -0.15
25 -0.15
26 -0.15
27 -0.15
28 0.69
29 0.36
3 -0.57
30 0.66
31 0.15
32 0.15
33 0.15
34 0.15
35 0.15
36 0.37
37 0.15
38 0.15
39 0.15
4 -0.55
40 0.15
41 0.15
42 0.15
43 0.15
44 0.15
45 0.37
48 0.5
5 -0.73
9 0.12

>  <PUBCHEM_EFFECTIVE_ROTOR_COUNT>  (1) 
5

>  <PUBCHEM_PHARMACOPHORE_FEATURES>  (1) 
11
1 1 acceptor
1 2 acceptor
1 3 acceptor
1 4 donor
1 5 donor
3 2 3 30 anion
6 11 14 20 22 24 26 rings
6 13 15 21 23 25 27 rings
6 6 10 11 14 17 19 rings
6 6 7 8 9 10 12 rings
6 7 8 13 15 16 18 rings

>  <PUBCHEM_HEAVY_ATOM_COUNT>  (1) 
30

>  <PUBCHEM_ATOM_DEF_STEREO_COUNT>  (1) 
0

>  <PUBCHEM_ATOM_UDEF_STEREO_COUNT>  (1) 
0

>  <PUBCHEM_BOND_DEF_STEREO_COUNT>  (1) 
0

>  <PUBCHEM_BOND_UDEF_STEREO_COUNT>  (1) 
0

>  <PUBCHEM_ISOTOPIC_ATOM_COUNT>  (1) 
0

>  <PUBCHEM_COMPONENT_COUNT>  (1) 
1

>  <PUBCHEM_CACTVS_TAUTO_COUNT>  (1) 
3

>  <PUBCHEM_CONFORMER_ID>  (1) 
0000AD4A00000001

>  <PUBCHEM_MMFF94_ENERGY>  (1) 
132.5504

>  <PUBCHEM_FEATURE_SELFOVERLAP>  (1) 
56.024

>  <PUBCHEM_SHAPE_FINGERPRINT>  (1) 
10050765 1 18410574029246226064
10411042 1 17906173211015817979
1100329 8 17978228262533099746
12107183 9 18118392948649035234
12788726 201 18190451847781696434
13140716 1 18194398897252692050
13692114 37 18197474304242013327
138480 1 17114382542449527411
14790565 3 18410015459273093380
14955137 171 17758406549171534371
15196674 1 18054512675647172818
15230672 131 18336267822239552934
15324884 4 17538033297921892625
15361156 5 18119823658121315334
15400415 2 18266458694350866893
15439362 3 17978791212132930628
15927050 60 18341046303651707191
16087824 20 18410575111905025739
16993438 75 18335990817806294113
17899979 129 17760926243539467605
17980427 23 17386018285808306116
19427546 62 18193556658313168437
19591789 44 18412548734285087506
19611394 137 17754748448860094955
20642791 105 18410852196312064104
20775438 99 17985256387706670871
21033648 144 17843117271571263284
21033648 29 18271232903024793248
21236236 1 18412265055520434649
21267235 1 18052830426998934858
21279426 13 18270972254365287822
21307412 95 17842581565133906982
21360443 126 18334853896823835781
21792938 79 15624796457048790792
23559900 14 17985267628395290730
23576562 1 18189069710770157060
3004659 81 18265337399470924022
335352 9 18198348540503756534
350125 39 18340211885721009784
4058900 60 18123192290628402257
4409770 3 18410005581222709607
469060 322 16587736560111643119
5171179 24 17843950679895054905
5283173 99 18411981399022052106
59755656 520 18334572395755392540
9777508 108 18411973680823721257

>  <PUBCHEM_SHAPE_MULTIPOLES>  (1) 
589.82
12.12
5.53
0.78
11.32
0.15
-0.05
6.82
-0.99
-9.39
-0.83
-0.17
0.18
1.4

>  <PUBCHEM_SHAPE_SELFOVERLAP>  (1) 
1338.614

>  <PUBCHEM_SHAPE_VOLUME>  (1) 
307.4

>  <PUBCHEM_COORDINATE_TYPE>  (1) 
2
5
10

$$$$
