44371
     RDKit          3D

 23 27  0  0  0  0  0  0  0  0999 V2000
   -1.1958   -0.0252   -0.0004 C   0  0  0  0  0  0  0  0  0  0  0  0
    1.7003   -0.2015   -0.0002 C   0  0  0  0  0  0  0  0  0  0  0  0
   -0.5406   -1.2746   -0.0006 C   0  0  0  0  0  0  0  0  0  0  0  0
    1.0452    1.0480   -0.0003 C   0  0  0  0  0  0  0  0  0  0  0  0
   -2.6367    0.0180   -0.0001 C   0  0  0  0  0  0  0  0  0  0  0  0
   -0.3624    1.1180   -0.0003 C   0  0  0  0  0  0  0  0  0  0  0  0
    0.8669   -1.3447   -0.0006 C   0  0  0  0  0  0  0  0  0  0  0  0
    3.1411   -0.2447   -0.0001 C   0  0  0  0  0  0  0  0  0  0  0  0
   -3.3653   -1.1997   -0.0001 C   0  0  0  0  0  0  0  0  0  0  0  0
    3.8696    0.9731   -0.0002 C   0  0  0  0  0  0  0  0  0  0  0  0
   -1.2922   -2.4540   -0.0007 C   0  0  0  0  0  0  0  0  0  0  0  0
    1.7967    2.2274   -0.0005 C   0  0  0  0  0  0  0  0  0  0  0  0
   -2.6827   -2.4178   -0.0005 C   0  0  0  0  0  0  0  0  0  0  0  0
   -3.3988    1.2135    0.0003 C   0  0  0  0  0  0  0  0  0  0  0  0
    3.1871    2.1911   -0.0005 C   0  0  0  0  0  0  0  0  0  0  0  0
   -4.7965    1.2056    0.0008 C   0  0  0  0  0  0  0  0  0  0  0  0
   -4.7707   -1.1940    0.0004 C   0  0  0  0  0  0  0  0  0  0  0  0
    3.9031   -1.4401    0.0008 C   0  0  0  0  0  0  0  0  0  0  0  0
   -5.4825    0.0012    0.0009 C   0  0  0  0  0  0  0  0  0  0  0  0
    5.2750    0.9673    0.0002 C   0  0  0  0  0  0  0  0  0  0  0  0
    5.3008   -1.4324    0.0010 C   0  0  0  0  0  0  0  0  0  0  0  0
    5.9870   -0.2280    0.0006 C   0  0  0  0  0  0  0  0  0  0  0  0
   -5.5487    2.4936    0.0001 C   0  0  0  0  0  0  0  0  0  0  0  0
  1  3  1  0
  1  5  1  0
  1  6  2  0
  2  4  2  0
  2  7  1  0
  2  8  1  0
  3  7  2  0
  3 11  1  0
  4  6  1  0
  4 12  1  0
  5  9  2  0
  5 14  1  0
  8 10  2  0
  8 18  1  0
  9 13  1  0
  9 17  1  0
 10 15  1  0
 10 20  1  0
 11 13  2  0
 12 15  2  0
 14 16  2  0
 16 19  1  0
 16 23  1  0
 17 19  2  0
 18 21  2  0
 20 22  2  0
 21 22  1  0
M  END
>  <PUBCHEM_COMPOUND_CID>  (1) 
44371

>  <PUBCHEM_CONFORMER_RMSD>  (1) 
0.6

>  <PUBCHEM_CONFORMER_DIVERSEORDER>  (1) 
1

>  <PUBCHEM_MMFF94_PARTIAL_CHARGES>  (1) 
28
11 -0.15
12 -0.15
13 -0.15
14 -0.15
15 -0.15
16 -0.14
17 -0.15
18 -0.15
19 -0.15
20 -0.15
21 -0.15
22 -0.15
23 0.14
24 0.15
25 0.15
26 0.15
27 0.15
28 0.15
29 0.15
30 0.15
31 0.15
32 0.15
33 0.15
34 0.15
35 0.15
36 0.15
6 -0.15
7 -0.15

>  <PUBCHEM_EFFECTIVE_ROTOR_COUNT>  (1) 
0

>  <PUBCHEM_PHARMACOPHORE_FEATURES>  (1) 
5
6 1 2 3 4 6 7 rings
6 1 3 5 9 11 13 rings
6 2 4 8 10 12 15 rings
6 5 9 14 16 17 19 rings
6 8 10 18 20 21 22 rings

>  <PUBCHEM_HEAVY_ATOM_COUNT>  (1) 
23

>  <PUBCHEM_ATOM_DEF_STEREO_COUNT>  (1) 
0

>  <PUBCHEM_ATOM_UDEF_STEREO_COUNT>  (1) 
0

>  <PUBCHEM_BOND_DEF_STEREO_COUNT>  (1) 
0

>  <PUBCHEM_BOND_UDEF_STEREO_COUNT>  (1) 
0

>  <PUBCHEM_ISOTOPIC_ATOM_COUNT>  (1) 
0

>  <PUBCHEM_COMPONENT_COUNT>  (1) 
1

>  <PUBCHEM_CACTVS_TAUTO_COUNT>  (1) 
1

>  <PUBCHEM_CONFORMER_ID>  (1) 
0000AD5300000001

>  <PUBCHEM_MMFF94_ENERGY>  (1) 
84.6383

>  <PUBCHEM_FEATURE_SELFOVERLAP>  (1) 
25.469

>  <PUBCHEM_SHAPE_FINGERPRINT>  (1) 
10595046 47 18338234997778134118
10835480 77 18342169003644851672
10906281 52 18199487522601037428
11405975 8 18409166649028098872
11578080 2 17058071449485471658
12107183 9 18121214273161440538
12236239 1 18113618980281351922
12403259 415 18201432614484198849
12788726 201 17845658040684348888
13140716 1 18410011078195195274
13402501 40 18411136913640709125
13785724 45 17762053238378186090
14341114 176 18410298029239416408
14790565 3 18408889520474200789
15042514 8 18120659286985370459
15099037 51 18410575067488491006
15183329 4 18410573976566791300
15196674 1 18410855481608273030
15256400 18 18410855460186456925
15788980 27 18333453161584649330
1601671 61 18410291385151830268
16087824 20 18265616481059873661
17349148 13 17917715711888911768
17492 89 18120375616425705747
17844677 252 18337399334787111633
1813 80 17022899077677812772
18681886 176 18271799150916466002
19141452 34 18409729577654487094
200 152 17988643016574009067
21033648 29 18271232898286597417
21065198 57 18338797947747386048
21133410 127 17754443879311945093
21236236 1 18412261744849787663
21267235 1 18410018766160664443
21279426 13 18339644425634962590
21421861 104 17823122450989173450
21709351 56 18410285922169967957
21859007 373 17970322880792019580
221490 88 18191873537996981554
23402539 116 18272365373824974765
23559900 14 18343298197759461672
3004659 81 18333734603145938662
335352 9 18410573955318789078
34934 24 18410570695860844554
350125 39 18409449167872214485
3545911 37 18412546530497106296
3680242 22 18261951835027318634
38695281 34 18201999893981309247
4017518 198 17418097594839289222
404807 14 16836309488907086406
4073 2 18041564753803928050
4214541 1 18410574002558258085
460360 51 18267048113854456306
495365 180 17346025779741727600
5104073 3 18409729594628550712
559249 180 18410853243988639450
59755656 215 18340489958877731468
6138700 20 18337674101373552674
6328613 192 18334583468661246572
633830 44 17458624574792545856
7226269 152 18060422383000099129
9709674 26 18192434292826735482
9996256 80 18340488958604369555

>  <PUBCHEM_SHAPE_MULTIPOLES>  (1) 
473.33
13.53
2.6
0.62
1.3
0.1
0
2.34
0
-1.21
0
0
0
0

>  <PUBCHEM_SHAPE_SELFOVERLAP>  (1) 
1094.127

>  <PUBCHEM_SHAPE_VOLUME>  (1) 
221.4

>  <PUBCHEM_COORDINATE_TYPE>  (1) 
2
5
10

$$$$
