44376
     RDKit          3D

 25 30  0  0  0  0  0  0  0  0999 V2000
    0.3644   -0.8591    0.0875 C   0  0  0  0  0  0  0  0  0  0  0  0
   -0.3948    0.3421    0.0487 C   0  0  0  0  0  0  0  0  0  0  0  0
    1.7819   -0.8483   -0.0278 C   0  0  0  0  0  0  0  0  0  0  0  0
    2.4848    0.3706   -0.1618 C   0  0  0  0  0  0  0  0  0  0  0  0
    0.3546    1.5855    0.1195 C   0  0  0  0  0  0  0  0  0  0  0  0
   -0.2837   -2.1137    0.2371 C   0  0  0  0  0  0  0  0  0  0  0  0
   -1.8514    0.2012   -0.0608 C   0  0  0  0  0  0  0  0  0  0  0  0
    1.7683    1.6010   -0.0610 C   0  0  0  0  0  0  0  0  0  0  0  0
    2.5014   -2.0811   -0.0199 C   0  0  0  0  0  0  0  0  0  0  0  0
   -2.4592   -1.0619    0.1480 C   0  0  0  0  0  0  0  0  0  0  0  0
   -1.6686   -2.1886    0.3287 C   0  0  0  0  0  0  0  0  0  0  0  0
    0.4488   -3.3020    0.2857 C   0  0  0  0  0  0  0  0  0  0  0  0
    1.8275   -3.2878    0.1484 C   0  0  0  0  0  0  0  0  0  0  0  0
    3.8923    0.2914   -0.3378 C   0  0  0  0  0  0  0  0  0  0  0  0
   -0.2457    2.8340    0.4392 C   0  0  0  0  0  0  0  0  0  0  0  0
   -2.7569    1.2313   -0.4380 C   0  0  0  0  0  0  0  0  0  0  0  0
    3.8879   -2.1015   -0.1803 C   0  0  0  0  0  0  0  0  0  0  0  0
    2.4325    2.8592   -0.0899 C   0  0  0  0  0  0  0  0  0  0  0  0
   -3.8572   -1.2238    0.1320 C   0  0  0  0  0  0  0  0  0  0  0  0
    4.5815   -0.9184   -0.3507 C   0  0  0  0  0  0  0  0  0  0  0  0
   -4.7001   -0.1608   -0.1603 C   0  0  0  0  0  0  0  0  0  0  0  0
   -4.1464    1.0658   -0.4721 C   0  0  0  0  0  0  0  0  0  0  0  0
    0.4367    4.0503    0.4333 C   0  0  0  0  0  0  0  0  0  0  0  0
    1.7789    4.0663    0.1355 C   0  0  0  0  0  0  0  0  0  0  0  0
   -6.1775   -0.3516   -0.1831 C   0  0  0  0  0  0  0  0  0  0  0  0
  1  2  2  0
  1  3  1  0
  1  6  1  0
  2  5  1  0
  2  7  1  0
  3  4  2  0
  3  9  1  0
  4  8  1  0
  4 14  1  0
  5  8  2  0
  5 15  1  0
  6 11  2  0
  6 12  1  0
  7 10  2  0
  7 16  1  0
  8 18  1  0
  9 13  1  0
  9 17  2  0
 10 11  1  0
 10 19  1  0
 12 13  2  0
 14 20  2  0
 15 23  2  0
 16 22  2  0
 17 20  1  0
 18 24  2  0
 19 21  2  0
 21 22  1  0
 21 25  1  0
 23 24  1  0
M  END
>  <PUBCHEM_COMPOUND_CID>  (1) 
44376

>  <PUBCHEM_CONFORMER_RMSD>  (1) 
0.6

>  <PUBCHEM_CONFORMER_DIVERSEORDER>  (1) 
1

>  <PUBCHEM_MMFF94_PARTIAL_CHARGES>  (1) 
28
11 -0.15
12 -0.15
13 -0.15
14 -0.15
15 -0.15
16 -0.15
17 -0.15
18 -0.15
19 -0.15
20 -0.15
21 -0.14
22 -0.15
23 -0.15
24 -0.15
25 0.14
26 0.15
27 0.15
28 0.15
29 0.15
30 0.15
31 0.15
32 0.15
33 0.15
34 0.15
35 0.15
36 0.15
37 0.15
38 0.15

>  <PUBCHEM_EFFECTIVE_ROTOR_COUNT>  (1) 
0

>  <PUBCHEM_PHARMACOPHORE_FEATURES>  (1) 
6
6 1 2 3 4 5 8 rings
6 1 2 6 7 10 11 rings
6 1 3 6 9 12 13 rings
6 3 4 9 14 17 20 rings
6 5 8 15 18 23 24 rings
6 7 10 16 19 21 22 rings

>  <PUBCHEM_HEAVY_ATOM_COUNT>  (1) 
25

>  <PUBCHEM_ATOM_DEF_STEREO_COUNT>  (1) 
0

>  <PUBCHEM_ATOM_UDEF_STEREO_COUNT>  (1) 
0

>  <PUBCHEM_BOND_DEF_STEREO_COUNT>  (1) 
0

>  <PUBCHEM_BOND_UDEF_STEREO_COUNT>  (1) 
0

>  <PUBCHEM_ISOTOPIC_ATOM_COUNT>  (1) 
0

>  <PUBCHEM_COMPONENT_COUNT>  (1) 
1

>  <PUBCHEM_CACTVS_TAUTO_COUNT>  (1) 
1

>  <PUBCHEM_CONFORMER_ID>  (1) 
0000AD5800000001

>  <PUBCHEM_MMFF94_ENERGY>  (1) 
112.2542

>  <PUBCHEM_FEATURE_SELFOVERLAP>  (1) 
30.62

>  <PUBCHEM_SHAPE_FINGERPRINT>  (1) 
10074138 170 16025882476186548675
10319926 262 16687370185460122032
10411042 1 18194682566414625114
10693767 8 18201996590771819735
10967382 1 18410575072052607066
1100329 8 18339078301938384890
12173636 292 17186155912331021788
12236239 1 17775567529336792323
12403259 226 18334571339599353229
12553582 1 18339356345003825042
12788726 201 18192152590654497914
12838862 33 18338498812355823060
13140716 1 18265889340647660490
13402501 40 18407477764739583079
138480 1 18410855438722143976
14787075 74 18187932733456575507
14790565 3 18337964475406742028
14866123 147 16897644585315482739
15081414 286 18341061734799223546
15196674 1 18337390422698583759
15230672 131 17689151632492260552
15475509 8 17771094655235382357
15483637 11 18120936097485328709
15927050 60 17980764067026844046
15950262 2 14104926282566042970
16087824 20 17979077081447228273
16945 1 17762338419810426178
18681886 176 18342167873598967386
19591789 44 18337674247133025643
19930381 70 18338231673948382433
20775438 99 17479972770268426751
20905425 154 17982170015918230822
21029758 11 18411138004562291659
21049683 271 18261122893211650005
21267235 1 18338806610723419479
22113638 7 18413100671710331366
221357 26 18409442562655306957
221490 88 18336552728092864067
22149856 69 18118982506441884971
2334 1 18194687192494459042
23558518 356 17611742709989767522
23559900 14 18340201998310499561
238 59 17902750250939494397
24771293 8 18201706384516200000
2748010 2 16968866048189256166
283562 15 18194969543850304594
3004659 81 18114465570276155198
3014063 31 18339079285448842412
3178227 256 18336277811715746715
3298306 158 18124040293265941260
335352 9 18410012164953991542
34934 24 18340482361497556222
350125 39 18336270149393759397
3680242 22 18189896426721516970
46194498 28 17749110015102205405
484989 97 18191593158295544659
5265222 85 17326908773224349388
5939293 188 18411133667109819242
6443956 14 18410014316685166348
7164475 11 17978791208033005774
7364860 26 18410854412240725993
9709674 26 18265052620883939787
9981440 41 17619339252879308625

>  <PUBCHEM_SHAPE_MULTIPOLES>  (1) 
514.49
8.44
4.7
0.68
9.31
3.05
0
-2.21
1.38
-3.64
-0.7
0.03
0.04
0.29

>  <PUBCHEM_SHAPE_SELFOVERLAP>  (1) 
1211.568

>  <PUBCHEM_SHAPE_VOLUME>  (1) 
234.5

>  <PUBCHEM_COORDINATE_TYPE>  (1) 
2
5
10

$$$$
