44382
     RDKit          3D

 22 26  0  0  0  0  0  0  0  0999 V2000
    4.6229   -0.9866    0.2480 O   0  0  0  0  0  0  0  0  0  0  0  0
   -0.1630   -0.0490    0.0543 C   0  0  0  0  0  0  0  0  0  0  0  0
    1.1924    0.3852    0.0814 C   0  0  0  0  0  0  0  0  0  0  0  0
   -1.2296    0.8864   -0.0175 C   0  0  0  0  0  0  0  0  0  0  0  0
   -0.4354   -1.4334    0.1001 C   0  0  0  0  0  0  0  0  0  0  0  0
    2.2478   -0.5564    0.1531 C   0  0  0  0  0  0  0  0  0  0  0  0
    1.4979    1.7626    0.0370 C   0  0  0  0  0  0  0  0  0  0  0  0
   -2.5872    0.4121   -0.0430 C   0  0  0  0  0  0  0  0  0  0  0  0
   -2.8316   -0.9829    0.0040 C   0  0  0  0  0  0  0  0  0  0  0  0
   -1.7598   -1.8788    0.0743 C   0  0  0  0  0  0  0  0  0  0  0  0
   -0.8755    2.2543   -0.0598 C   0  0  0  0  0  0  0  0  0  0  0  0
    0.6206   -2.3521    0.1711 C   0  0  0  0  0  0  0  0  0  0  0  0
    0.4538    2.6841   -0.0334 C   0  0  0  0  0  0  0  0  0  0  0  0
    1.9452   -1.9202    0.1972 C   0  0  0  0  0  0  0  0  0  0  0  0
    3.5774   -0.1105    0.1789 C   0  0  0  0  0  0  0  0  0  0  0  0
    2.8365    2.1820    0.0642 C   0  0  0  0  0  0  0  0  0  0  0  0
   -3.7258    1.2549   -0.1132 C   0  0  0  0  0  0  0  0  0  0  0  0
    3.8688    1.2505    0.1347 C   0  0  0  0  0  0  0  0  0  0  0  0
   -4.1467   -1.4797   -0.0192 C   0  0  0  0  0  0  0  0  0  0  0  0
   -5.0280    0.7485   -0.1354 C   0  0  0  0  0  0  0  0  0  0  0  0
   -5.2385   -0.6203   -0.0884 C   0  0  0  0  0  0  0  0  0  0  0  0
    5.1578   -1.4505   -0.9882 C   0  0  0  0  0  0  0  0  0  0  0  0
  1 15  1  0
  1 22  1  0
  2  3  2  0
  2  4  1  0
  2  5  1  0
  3  6  1  0
  3  7  1  0
  4  8  1  0
  4 11  2  0
  5 10  2  0
  5 12  1  0
  6 14  1  0
  6 15  2  0
  7 13  2  0
  7 16  1  0
  8  9  2  0
  8 17  1  0
  9 10  1  0
  9 19  1  0
 11 13  1  0
 12 14  2  0
 15 18  1  0
 16 18  2  0
 17 20  2  0
 19 21  2  0
 20 21  1  0
M  END
>  <PUBCHEM_COMPOUND_CID>  (1) 
44382

>  <PUBCHEM_CONFORMER_RMSD>  (1) 
0.6

>  <PUBCHEM_CONFORMER_DIVERSEORDER>  (1) 
1

>  <PUBCHEM_MMFF94_PARTIAL_CHARGES>  (1) 
25
1 -0.36
10 -0.15
11 -0.15
12 -0.15
13 -0.15
14 -0.15
15 0.08
16 -0.15
17 -0.15
18 -0.15
19 -0.15
20 -0.15
21 -0.15
22 0.28
23 0.15
24 0.15
25 0.15
26 0.15
27 0.15
28 0.15
29 0.15
30 0.15
31 0.15
32 0.15
33 0.15

>  <PUBCHEM_EFFECTIVE_ROTOR_COUNT>  (1) 
1

>  <PUBCHEM_PHARMACOPHORE_FEATURES>  (1) 
6
1 1 acceptor
6 2 3 4 7 11 13 rings
6 2 3 5 6 12 14 rings
6 2 4 5 8 9 10 rings
6 3 6 7 15 16 18 rings
6 8 9 17 19 20 21 rings

>  <PUBCHEM_HEAVY_ATOM_COUNT>  (1) 
22

>  <PUBCHEM_ATOM_DEF_STEREO_COUNT>  (1) 
0

>  <PUBCHEM_ATOM_UDEF_STEREO_COUNT>  (1) 
0

>  <PUBCHEM_BOND_DEF_STEREO_COUNT>  (1) 
0

>  <PUBCHEM_BOND_UDEF_STEREO_COUNT>  (1) 
0

>  <PUBCHEM_ISOTOPIC_ATOM_COUNT>  (1) 
0

>  <PUBCHEM_COMPONENT_COUNT>  (1) 
1

>  <PUBCHEM_CACTVS_TAUTO_COUNT>  (1) 
1

>  <PUBCHEM_CONFORMER_ID>  (1) 
0000AD5E00000001

>  <PUBCHEM_MMFF94_ENERGY>  (1) 
91.8011

>  <PUBCHEM_FEATURE_SELFOVERLAP>  (1) 
30.6

>  <PUBCHEM_SHAPE_FINGERPRINT>  (1) 
10411042 1 17977944579431723306
10693767 8 18201427061012922935
10906281 52 18337691770699592808
10967382 1 18410009965761768169
1100329 8 18409726300489198618
11471102 20 18410007766859909845
11578080 2 16842747524486783058
11680986 33 18264212593614859488
12011746 2 18409449150444094407
12236239 1 17846498145504685987
12403259 226 18410005554883563909
12553582 1 18337659832906061299
12838862 33 18266156435736695448
12954195 1 18056774122020065412
13140716 1 18337381751333336034
13583140 156 14548450250626470779
138480 1 18265893553704960298
13862211 1 18410005516202406546
14178342 30 18051398588107816376
14790565 3 18337116751561704228
14866123 147 17767414478390867368
15042514 8 17255954577226505994
15099037 51 18410576179901065894
15196674 1 18410574015369280985
15536298 74 18341893025719208432
15848702 151 17846507984721211366
1601671 61 18410855425847655195
16945 1 18337383825734071784
17492 89 18196090177695544079
1813 80 17313097579332273404
19591789 44 18410291427848282647
200 152 18131630097488456867
20028762 73 18201995551437278039
20691752 17 17604137220445537203
20905425 154 18124314909237681414
21267235 1 18410864256617121739
21279426 13 18410855412989296341
21421861 104 17825100415987184339
21452121 103 18270952566145655792
221490 88 18263932192559632651
22182313 1 18263341686191291100
2334 1 18265895954760262920
23402539 116 18343013385086766310
23558518 356 17467626435413461586
23559900 14 18341893017809879272
23566358 2 18122905326408492478
2748010 2 18337669844854727344
2871803 45 18408037398978251804
3004659 81 18260833687952786494
335352 9 18410573950812812197
34934 24 18411130376700374003
350125 39 18409448077240658616
3680242 22 18262514793085053098
3886686 26 16893390614125629490
4214541 1 18410572873330142281
5104073 3 18410574015290134689
59755656 215 18336546002131841775
6138700 20 18338238159454903702
9709674 26 18265335186692679347
9981440 41 17258206900699089184

>  <PUBCHEM_SHAPE_MULTIPOLES>  (1) 
446.88
9.58
2.75
0.67
2.31
0.54
0.04
-1.87
1.06
-0.96
0
-0.23
-0.07
0.36

>  <PUBCHEM_SHAPE_SELFOVERLAP>  (1) 
1043.777

>  <PUBCHEM_SHAPE_VOLUME>  (1) 
228.9

>  <PUBCHEM_COORDINATE_TYPE>  (1) 
2
5
10

$$$$
