44387
     RDKit          3D

 21 25  0  0  0  0  0  0  0  0999 V2000
   -0.5781   -1.7399    0.0865 N   0  0  0  0  0  0  0  0  0  0  0  0
   -0.2796    0.4602    0.0008 C   0  0  0  0  0  0  0  0  0  0  0  0
   -0.7043    1.8929   -0.0672 C   0  0  0  0  0  0  0  0  0  0  0  0
   -1.2310   -0.5449    0.0155 C   0  0  0  0  0  0  0  0  0  0  0  0
    1.0175   -0.1561    0.0132 C   0  0  0  0  0  0  0  0  0  0  0  0
   -2.1275    2.1045    0.4970 C   0  0  0  0  0  0  0  0  0  0  0  0
   -2.6711   -0.3244   -0.0266 C   0  0  0  0  0  0  0  0  0  0  0  0
    0.7840   -1.5355    0.0959 C   0  0  0  0  0  0  0  0  0  0  0  0
   -3.1177    1.0042    0.1568 C   0  0  0  0  0  0  0  0  0  0  0  0
    2.3795    0.2935   -0.0382 C   0  0  0  0  0  0  0  0  0  0  0  0
    3.4252   -0.6679    0.0364 C   0  0  0  0  0  0  0  0  0  0  0  0
    1.8074   -2.4839    0.1640 C   0  0  0  0  0  0  0  0  0  0  0  0
   -3.5964   -1.3461   -0.2614 C   0  0  0  0  0  0  0  0  0  0  0  0
   -4.4894    1.2806    0.1194 C   0  0  0  0  0  0  0  0  0  0  0  0
    3.1246   -2.0289    0.1407 C   0  0  0  0  0  0  0  0  0  0  0  0
    2.7240    1.6564   -0.1705 C   0  0  0  0  0  0  0  0  0  0  0  0
   -4.9600   -1.0523   -0.3091 C   0  0  0  0  0  0  0  0  0  0  0  0
   -5.4052    0.2558   -0.1195 C   0  0  0  0  0  0  0  0  0  0  0  0
    4.7615   -0.2395   -0.0023 C   0  0  0  0  0  0  0  0  0  0  0  0
    4.0604    2.0579   -0.2093 C   0  0  0  0  0  0  0  0  0  0  0  0
    5.0764    1.1134   -0.1219 C   0  0  0  0  0  0  0  0  0  0  0  0
  1  4  1  0
  1  8  1  0
  2  3  1  0
  2  4  2  0
  2  5  1  0
  3  6  1  0
  4  7  1  0
  5  8  2  0
  5 10  1  0
  6  9  1  0
  7  9  2  0
  7 13  1  0
  8 12  1  0
  9 14  1  0
 10 11  2  0
 10 16  1  0
 11 15  1  0
 11 19  1  0
 12 15  2  0
 13 17  2  0
 14 18  2  0
 16 20  2  0
 17 18  1  0
 19 21  2  0
 20 21  1  0
M  END
>  <PUBCHEM_COMPOUND_CID>  (1) 
44387

>  <PUBCHEM_CONFORMER_RMSD>  (1) 
0.6

>  <PUBCHEM_CONFORMER_DIVERSEORDER>  (1) 
1

>  <PUBCHEM_MMFF94_PARTIAL_CHARGES>  (1) 
29
1 0.03
12 -0.15
13 -0.15
14 -0.15
15 -0.15
16 -0.15
17 -0.15
18 -0.15
19 -0.15
2 -0.18
20 -0.15
21 -0.15
26 0.27
27 0.15
28 0.15
29 0.15
3 0.18
30 0.15
31 0.15
32 0.15
33 0.15
34 0.15
35 0.15
36 0.15
4 -0.2
6 0.14
7 0.05
8 -0.15
9 -0.14

>  <PUBCHEM_EFFECTIVE_ROTOR_COUNT>  (1) 
0.4

>  <PUBCHEM_PHARMACOPHORE_FEATURES>  (1) 
7
1 1 cation
1 1 donor
5 1 2 4 5 8 rings
6 10 11 16 19 20 21 rings
6 2 3 4 6 7 9 rings
6 5 8 10 11 12 15 rings
6 7 9 13 14 17 18 rings

>  <PUBCHEM_HEAVY_ATOM_COUNT>  (1) 
21

>  <PUBCHEM_ATOM_DEF_STEREO_COUNT>  (1) 
0

>  <PUBCHEM_ATOM_UDEF_STEREO_COUNT>  (1) 
0

>  <PUBCHEM_BOND_DEF_STEREO_COUNT>  (1) 
0

>  <PUBCHEM_BOND_UDEF_STEREO_COUNT>  (1) 
0

>  <PUBCHEM_ISOTOPIC_ATOM_COUNT>  (1) 
0

>  <PUBCHEM_COMPONENT_COUNT>  (1) 
1

>  <PUBCHEM_CACTVS_TAUTO_COUNT>  (1) 
1

>  <PUBCHEM_CONFORMER_ID>  (1) 
0000AD6300000001

>  <PUBCHEM_MMFF94_ENERGY>  (1) 
58.6623

>  <PUBCHEM_FEATURE_SELFOVERLAP>  (1) 
35.737

>  <PUBCHEM_SHAPE_FINGERPRINT>  (1) 
10090160 65 18260263070549259887
10411042 1 17760928437998821250
10595046 47 18412824707339840799
10616163 171 18413389856216791175
10967382 1 18410012139447801520
11578080 2 13263553403270473164
12107183 9 17691689987209408065
12236239 1 18131632283595259463
12403259 226 18190737523426436524
12403260 363 18337106774694995440
12788726 201 17345760660164569625
13009979 54 17628074495390520162
13140716 1 17977671131811237688
13167823 11 18413387614227791487
13224815 77 18410291393514905033
13533116 47 17095794421934340066
13583140 156 16370722681625241953
14251764 18 18260824913571984104
14528608 73 18411701014777117684
14787075 74 18410009974641788219
14790565 3 18411705421424632329
15196674 1 18410856546765443681
15442244 35 18122907529990491530
15536298 74 18341333310050234318
15927050 60 17261595587103903333
17349148 13 18186517721857016601
17492 89 18339924801206417087
17834072 33 18412824694265119335
18681886 176 18342734135704636954
19591789 44 18196090181973797027
200 152 18343862221380587313
20645477 70 18341896251435132118
21033648 29 16733251404856416421
21267235 1 18411427193305865511
21421861 104 17970060050315222674
221490 88 18337680715264388570
23402539 116 18342451577652408247
23559900 14 18197773302211018786
245318 6 17172100739693762396
335352 9 18409449194359229014
34797466 226 16701744959313551373
34934 24 18411415099342338415
350125 39 18410009910528716372
3545911 37 18408887334356757757
4073 2 18040722497273312771
4214541 1 18411418367490866133
4340502 62 17167582691727121299
474 4 18041002877302069500
474229 33 18410855490208965007
5104073 3 18409730625484057275
5283173 99 18042111073676017573
5312544 6 18335423529661941052
59755656 215 18410862045030711582
67856867 119 18409720747365315458
7364860 26 18340488855451113086
77779 3 18411700959143119567
8272917 22 18412548674065959094
9709674 26 18410581651716190402

>  <PUBCHEM_SHAPE_MULTIPOLES>  (1) 
427.19
10.97
2.44
0.64
3.14
0.15
0
-1.76
-0.67
-1.05
0.1
0.05
-0.03
-0.53

>  <PUBCHEM_SHAPE_SELFOVERLAP>  (1) 
985.484

>  <PUBCHEM_SHAPE_VOLUME>  (1) 
218.3

>  <PUBCHEM_COORDINATE_TYPE>  (1) 
2
5
10

$$$$
