44399
     RDKit          3D

 20 22  0  0  0  0  0  0  0  0999 V2000
   -0.6829    1.4304    0.7465 O   0  0  0  0  0  0  0  0  0  0  0  0
   -3.4789   -2.4214   -0.1171 O   0  0  0  0  0  0  0  0  0  0  0  0
   -4.0563    0.9828   -0.4578 N   0  0  0  0  0  0  0  0  0  0  0  0
   -2.2211   -0.4372    0.3462 C   0  0  0  0  0  0  0  0  0  0  0  0
   -0.9549    0.1436    0.3894 C   0  0  0  0  0  0  0  0  0  0  0  0
    0.2216   -0.5254    0.0678 C   0  0  0  0  0  0  0  0  0  0  0  0
   -3.4592    0.3143    0.7000 C   0  0  0  0  0  0  0  0  0  0  0  0
    1.2646    0.4218    0.2438 C   0  0  0  0  0  0  0  0  0  0  0  0
   -2.2770   -1.7771   -0.0490 C   0  0  0  0  0  0  0  0  0  0  0  0
    0.1418   -1.8723   -0.3271 C   0  0  0  0  0  0  0  0  0  0  0  0
    0.6633    1.5888    0.6550 C   0  0  0  0  0  0  0  0  0  0  0  0
    2.6801    0.2964    0.0607 C   0  0  0  0  0  0  0  0  0  0  0  0
   -1.1182   -2.4840   -0.3801 C   0  0  0  0  0  0  0  0  0  0  0  0
   -3.1132    1.9379   -1.0368 C   0  0  0  0  0  0  0  0  0  0  0  0
   -5.2963    1.6553   -0.0743 C   0  0  0  0  0  0  0  0  0  0  0  0
    3.4910   -0.1098    1.1229 C   0  0  0  0  0  0  0  0  0  0  0  0
    3.2543    0.5796   -1.1804 C   0  0  0  0  0  0  0  0  0  0  0  0
    4.8691   -0.2323    0.9448 C   0  0  0  0  0  0  0  0  0  0  0  0
    4.6323    0.4572   -1.3586 C   0  0  0  0  0  0  0  0  0  0  0  0
    5.4396    0.0514   -0.2959 C   0  0  0  0  0  0  0  0  0  0  0  0
  1  5  1  0
  1 11  1  0
  2  9  1  0
  3  7  1  0
  3 14  1  0
  3 15  1  0
  4  5  2  0
  4  7  1  0
  4  9  1  0
  5  6  1  0
  6  8  1  0
  6 10  2  0
  8 11  2  0
  8 12  1  0
  9 13  2  0
 10 13  1  0
 12 16  2  0
 12 17  1  0
 16 18  1  0
 17 19  2  0
 18 20  2  0
 19 20  1  0
M  END
>  <PUBCHEM_COMPOUND_CID>  (1) 
44399

>  <PUBCHEM_CONFORMER_RMSD>  (1) 
0.6

>  <PUBCHEM_CONFORMER_DIVERSEORDER>  (1) 
2
6
3
4
5
1
7

>  <PUBCHEM_MMFF94_PARTIAL_CHARGES>  (1) 
28
1 -0.28
10 -0.15
11 -0.01
12 0.05
13 -0.15
14 0.27
15 0.27
16 -0.15
17 -0.15
18 -0.15
19 -0.15
2 -0.53
20 -0.15
23 0.15
24 0.15
25 0.15
3 -0.81
32 0.15
33 0.15
34 0.45
35 0.15
36 0.15
37 0.15
4 -0.14
5 0.14
7 0.41
8 -0.05
9 0.08

>  <PUBCHEM_EFFECTIVE_ROTOR_COUNT>  (1) 
3

>  <PUBCHEM_PHARMACOPHORE_FEATURES>  (1) 
6
1 1 acceptor
1 2 donor
1 3 cation
5 1 5 6 8 11 rings
6 12 16 17 18 19 20 rings
6 4 5 6 9 10 13 rings

>  <PUBCHEM_HEAVY_ATOM_COUNT>  (1) 
20

>  <PUBCHEM_ATOM_DEF_STEREO_COUNT>  (1) 
0

>  <PUBCHEM_ATOM_UDEF_STEREO_COUNT>  (1) 
0

>  <PUBCHEM_BOND_DEF_STEREO_COUNT>  (1) 
0

>  <PUBCHEM_BOND_UDEF_STEREO_COUNT>  (1) 
0

>  <PUBCHEM_ISOTOPIC_ATOM_COUNT>  (1) 
0

>  <PUBCHEM_COMPONENT_COUNT>  (1) 
1

>  <PUBCHEM_CACTVS_TAUTO_COUNT>  (1) 
3

>  <PUBCHEM_CONFORMER_ID>  (1) 
0000AD6F00000002

>  <PUBCHEM_MMFF94_ENERGY>  (1) 
54.1512

>  <PUBCHEM_FEATURE_SELFOVERLAP>  (1) 
30.548

>  <PUBCHEM_SHAPE_FINGERPRINT>  (1) 
10062212 137 18335413595228466642
10366900 7 16773802493928364480
105312 117 18336540526180349981
10759866 29 18113620045443706474
11796584 16 18342741798074642046
12236239 1 18113619002325764218
12346177 29 17988356074141133446
12403259 415 18130786810350216272
12403814 3 17749105582590103077
12592029 89 18114182969295125451
13140716 1 18270963569588059137
13760787 19 18113899359978170242
14386348 63 17704079507991473582
14790565 3 18197505013053231337
14911166 2 18272933808298885889
15099037 51 18413388726334138213
15196674 1 18341612676414196120
15375358 24 17775567546326536590
1601671 61 18408604725582806776
16752209 62 18339353175492599194
16945 1 18272658934591730041
17804303 29 18271527610146428322
18186145 218 18202002152806571864
200 152 15123791773307702840
20279233 1 17489874843053981870
20645476 183 18114468945592967994
20645477 56 18409449172214414189
20645477 70 15984830281644850620
20871999 31 18338238275001763294
21267235 1 18268439090611415410
22182313 1 18058470775646671423
23366157 5 17902225942891964504
23402539 116 18273207595284000484
23493267 7 18186523210988777715
23559900 14 18131078138952542564
25 1 18341608158335447445
2748010 2 18056753449994524577
2838139 119 17458892744367139533
3004659 81 18335140852743116818
335352 9 18413388717912982924
34934 24 18412257320574653914
350125 39 18339646754251009339
3759504 43 18113343020058772643
4072396 5 18267855108228941474
4175511 318 18334858311796612133
474 4 17171528998379765268
5104073 3 18340486780802321640
5385378 56 18197224654968010011
559249 180 18408600349544103066
58051976 100 18333449871608130005
59755656 215 18270123388449716270
7226269 152 18201716228439096968
8272917 22 17386286480983442690

>  <PUBCHEM_SHAPE_MULTIPOLES>  (1) 
394.87
10.51
2.15
1.05
4.42
1.04
0.1
-3.23
1.06
-2.93
0.35
0.82
-0.23
-0.07

>  <PUBCHEM_SHAPE_SELFOVERLAP>  (1) 
869.02

>  <PUBCHEM_SHAPE_VOLUME>  (1) 
216.3

>  <PUBCHEM_COORDINATE_TYPE>  (1) 
2
5
10

$$$$
