44407
     RDKit          3D

 21 23  0  0  0  0  0  0  0  0999 V2000
   -1.5227   -3.1600    0.6859 Br  0  0  0  0  0  0  0  0  0  0  0  0
    0.7253   -1.3757    0.5694 O   0  0  0  0  0  0  0  0  0  0  0  0
    3.5963    2.4909    0.1139 O   0  0  0  0  0  0  0  0  0  0  0  0
    4.1126   -0.8707   -0.5712 N   0  0  0  0  0  0  0  0  0  0  0  0
    2.2996    0.4938    0.3677 C   0  0  0  0  0  0  0  0  0  0  0  0
    1.0228   -0.0645    0.3466 C   0  0  0  0  0  0  0  0  0  0  0  0
   -0.1395    0.6557    0.0904 C   0  0  0  0  0  0  0  0  0  0  0  0
    3.5216   -0.3133    0.6468 C   0  0  0  0  0  0  0  0  0  0  0  0
   -1.2006   -0.2847    0.1648 C   0  0  0  0  0  0  0  0  0  0  0  0
    2.3822    1.8657    0.1116 C   0  0  0  0  0  0  0  0  0  0  0  0
   -0.0328    2.0342   -0.1645 C   0  0  0  0  0  0  0  0  0  0  0  0
   -0.6230   -1.4986    0.4571 C   0  0  0  0  0  0  0  0  0  0  0  0
   -2.6096   -0.0769   -0.0172 C   0  0  0  0  0  0  0  0  0  0  0  0
    1.2384    2.6244   -0.1500 C   0  0  0  0  0  0  0  0  0  0  0  0
    3.1552   -1.7433   -1.2487 C   0  0  0  0  0  0  0  0  0  0  0  0
    5.3378   -1.6025   -0.2544 C   0  0  0  0  0  0  0  0  0  0  0  0
   -3.1754   -0.2035   -1.2861 C   0  0  0  0  0  0  0  0  0  0  0  0
   -3.4135    0.2515    1.0746 C   0  0  0  0  0  0  0  0  0  0  0  0
   -4.5444   -0.0018   -1.4631 C   0  0  0  0  0  0  0  0  0  0  0  0
   -4.7823    0.4530    0.8978 C   0  0  0  0  0  0  0  0  0  0  0  0
   -5.3477    0.3264   -0.3712 C   0  0  0  0  0  0  0  0  0  0  0  0
  1 12  1  0
  2  6  1  0
  2 12  1  0
  3 10  1  0
  4  8  1  0
  4 15  1  0
  4 16  1  0
  5  6  2  0
  5  8  1  0
  5 10  1  0
  6  7  1  0
  7  9  1  0
  7 11  2  0
  9 12  2  0
  9 13  1  0
 10 14  2  0
 11 14  1  0
 13 17  2  0
 13 18  1  0
 17 19  1  0
 18 20  2  0
 19 21  2  0
 20 21  1  0
M  END
>  <PUBCHEM_COMPOUND_CID>  (1) 
44407

>  <PUBCHEM_CONFORMER_RMSD>  (1) 
0.6

>  <PUBCHEM_CONFORMER_DIVERSEORDER>  (1) 
2
5
1
4
3

>  <PUBCHEM_MMFF94_PARTIAL_CHARGES>  (1) 
28
1 -0.06
10 0.08
11 -0.15
12 0.2
13 0.05
14 -0.15
15 0.27
16 0.27
17 -0.15
18 -0.15
19 -0.15
2 -0.28
20 -0.15
21 -0.15
24 0.15
25 0.15
3 -0.53
32 0.15
33 0.15
34 0.45
35 0.15
36 0.15
37 0.15
4 -0.81
5 -0.14
6 0.14
8 0.41
9 -0.05

>  <PUBCHEM_EFFECTIVE_ROTOR_COUNT>  (1) 
3

>  <PUBCHEM_PHARMACOPHORE_FEATURES>  (1) 
7
1 1 hydrophobe
1 2 acceptor
1 3 donor
1 4 cation
5 2 6 7 9 12 rings
6 13 17 18 19 20 21 rings
6 5 6 7 10 11 14 rings

>  <PUBCHEM_HEAVY_ATOM_COUNT>  (1) 
21

>  <PUBCHEM_ATOM_DEF_STEREO_COUNT>  (1) 
0

>  <PUBCHEM_ATOM_UDEF_STEREO_COUNT>  (1) 
0

>  <PUBCHEM_BOND_DEF_STEREO_COUNT>  (1) 
0

>  <PUBCHEM_BOND_UDEF_STEREO_COUNT>  (1) 
0

>  <PUBCHEM_ISOTOPIC_ATOM_COUNT>  (1) 
0

>  <PUBCHEM_COMPONENT_COUNT>  (1) 
1

>  <PUBCHEM_CACTVS_TAUTO_COUNT>  (1) 
3

>  <PUBCHEM_CONFORMER_ID>  (1) 
0000AD7700000002

>  <PUBCHEM_MMFF94_ENERGY>  (1) 
54.273

>  <PUBCHEM_FEATURE_SELFOVERLAP>  (1) 
35.622

>  <PUBCHEM_SHAPE_FINGERPRINT>  (1) 
10366900 7 17240198833740761273
10693767 8 18199451187373717799
10906281 52 18341347634256620964
11471102 20 18408881858294794689
11680986 33 18338520866801800744
116883 192 18342179917103554972
12035758 1 18409452483539436346
12236239 1 17989203755489730441
12403259 415 17967247603336226021
12553582 1 18336540521959488698
12760667 363 18268431227185711818
13134695 92 18060133275581919832
13140716 1 18336263556598062914
13544592 145 18334856121479192718
13583140 156 14907322049892302146
13862211 1 18337386041969195970
14022347 108 18187366502411449376
14115302 16 18040727960904138750
14790565 3 18263938660743892180
14911166 2 18335138674334737822
15081414 286 18335423512202984212
15099037 51 18408323272059736130
15196674 1 18337109072407436307
15475509 8 17912951412189477556
15848700 24 18341609287706163468
15848702 151 18059858316175520719
16752209 62 18188762830407092920
16945 1 18334851701720546354
17349148 13 18131073735782980067
17357779 13 18335132047094822468
17492 89 18198338666068299847
17818456 19 16843339886481534361
1813 80 18199761262368028684
18186145 218 18335133207078461011
19141452 34 17988922253883639622
19591789 44 18264209114691388577
200 152 17632573838119418923
20612939 158 18411418423024890757
20645477 70 18411133662413691548
20832881 197 18339080380538850560
21033648 29 17968362516469182573
21069387 34 17988926690642677239
21267235 1 18412270514898595571
21285901 2 18268717112761033070
21307412 95 18199766772985883694
21521239 73 18270947043002452951
221357 26 18336817616190967941
22182313 1 18193288600603170578
22393880 68 18263063501697196871
23184049 59 18408322202702459441
2334 1 18047472506741161426
23402539 116 18271242716360010062
23559900 14 18340205293283788016
23569943 247 17841722802527774207
2748010 2 18191590954702450170
29717793 49 17988917865139063837
3060560 45 18337380574264818575
3286 77 17131822171039240552
335352 9 18409449171882059559
34797466 226 15358275804864588999
34934 24 18265046006866360616
404807 14 15260911666423529559
474 4 18412823612212844665
495365 180 17845644984363505352
5104073 3 18337107985643574219
633830 44 18412260627994578543
7164475 11 17979913036374259311
7399639 24 17403457871411422322
81228 2 16026726901422316803
9709674 26 18193555790381595539
9971528 1 18272927220130212400
9981440 41 17051021479749746001

>  <PUBCHEM_SHAPE_MULTIPOLES>  (1) 
421.39
9.99
2.7
1.08
1.85
0.32
-0.23
0.94
-1.71
-2.02
0.25
0.75
0.24
0.64

>  <PUBCHEM_SHAPE_SELFOVERLAP>  (1) 
910.105

>  <PUBCHEM_SHAPE_VOLUME>  (1) 
239.9

>  <PUBCHEM_COORDINATE_TYPE>  (1) 
2
5
10

$$$$
