44405
     RDKit          3D

 21 23  0  0  0  0  0  0  0  0999 V2000
    2.5615    3.3598    0.4889 Br  0  0  0  0  0  0  0  0  0  0  0  0
   -0.2877    3.0687    0.2729 O   0  0  0  0  0  0  0  0  0  0  0  0
   -3.6945   -1.1103   -0.5989 O   0  0  0  0  0  0  0  0  0  0  0  0
   -1.6641   -2.6232    0.2517 N   0  0  0  0  0  0  0  0  0  0  0  0
   -0.6451    0.8694   -0.1002 C   0  0  0  0  0  0  0  0  0  0  0  0
   -1.4723   -0.2445   -0.3275 C   0  0  0  0  0  0  0  0  0  0  0  0
   -0.9223   -1.6241   -0.5154 C   0  0  0  0  0  0  0  0  0  0  0  0
    0.7525    1.0898    0.0183 C   0  0  0  0  0  0  0  0  0  0  0  0
   -1.2398    2.1162    0.0639 C   0  0  0  0  0  0  0  0  0  0  0  0
   -2.8597   -0.0523   -0.3793 C   0  0  0  0  0  0  0  0  0  0  0  0
    1.8360    0.1510   -0.0672 C   0  0  0  0  0  0  0  0  0  0  0  0
   -2.6149    2.3385    0.0175 C   0  0  0  0  0  0  0  0  0  0  0  0
    0.9148    2.4372    0.2434 C   0  0  0  0  0  0  0  0  0  0  0  0
   -3.4183    1.2171   -0.2096 C   0  0  0  0  0  0  0  0  0  0  0  0
   -1.6077   -2.3166    1.6808 C   0  0  0  0  0  0  0  0  0  0  0  0
   -1.1343   -3.9623   -0.0046 C   0  0  0  0  0  0  0  0  0  0  0  0
    2.4333   -0.1144   -1.2995 C   0  0  0  0  0  0  0  0  0  0  0  0
    2.2915   -0.4951    1.0820 C   0  0  0  0  0  0  0  0  0  0  0  0
    3.4858   -1.0261   -1.3827 C   0  0  0  0  0  0  0  0  0  0  0  0
    3.3442   -1.4066    0.9989 C   0  0  0  0  0  0  0  0  0  0  0  0
    3.9412   -1.6721   -0.2335 C   0  0  0  0  0  0  0  0  0  0  0  0
  1 13  1  0
  2  9  1  0
  2 13  1  0
  3 10  1  0
  4  7  1  0
  4 15  1  0
  4 16  1  0
  5  6  1  0
  5  8  1  0
  5  9  2  0
  6  7  1  0
  6 10  2  0
  8 11  1  0
  8 13  2  0
  9 12  1  0
 10 14  1  0
 11 17  2  0
 11 18  1  0
 12 14  2  0
 17 19  1  0
 18 20  2  0
 19 21  2  0
 20 21  1  0
M  END
>  <PUBCHEM_COMPOUND_CID>  (1) 
44405

>  <PUBCHEM_CONFORMER_RMSD>  (1) 
0.6

>  <PUBCHEM_CONFORMER_DIVERSEORDER>  (1) 
2
1

>  <PUBCHEM_MMFF94_PARTIAL_CHARGES>  (1) 
28
1 -0.06
10 0.08
11 0.05
12 -0.15
13 0.2
14 -0.15
15 0.27
16 0.27
17 -0.15
18 -0.15
19 -0.15
2 -0.28
20 -0.15
21 -0.15
24 0.15
25 0.15
3 -0.53
32 0.15
33 0.15
34 0.45
35 0.15
36 0.15
37 0.15
4 -0.81
6 -0.14
7 0.41
8 -0.05
9 0.14

>  <PUBCHEM_EFFECTIVE_ROTOR_COUNT>  (1) 
3

>  <PUBCHEM_PHARMACOPHORE_FEATURES>  (1) 
7
1 1 hydrophobe
1 2 acceptor
1 3 donor
1 4 cation
5 2 5 8 9 13 rings
6 11 17 18 19 20 21 rings
6 5 6 9 10 12 14 rings

>  <PUBCHEM_HEAVY_ATOM_COUNT>  (1) 
21

>  <PUBCHEM_ATOM_DEF_STEREO_COUNT>  (1) 
0

>  <PUBCHEM_ATOM_UDEF_STEREO_COUNT>  (1) 
0

>  <PUBCHEM_BOND_DEF_STEREO_COUNT>  (1) 
0

>  <PUBCHEM_BOND_UDEF_STEREO_COUNT>  (1) 
0

>  <PUBCHEM_ISOTOPIC_ATOM_COUNT>  (1) 
0

>  <PUBCHEM_COMPONENT_COUNT>  (1) 
1

>  <PUBCHEM_CACTVS_TAUTO_COUNT>  (1) 
3

>  <PUBCHEM_CONFORMER_ID>  (1) 
0000AD7500000002

>  <PUBCHEM_MMFF94_ENERGY>  (1) 
58.9959

>  <PUBCHEM_FEATURE_SELFOVERLAP>  (1) 
35.622

>  <PUBCHEM_SHAPE_FINGERPRINT>  (1) 
10616163 171 18050562151479211840
10693767 8 17841970232125969975
10967382 1 18267298931528882701
1100329 8 18340769235037414961
11578080 2 17460567309203281916
11680986 33 18266459986924272913
12236239 1 17751087899297449756
12553582 1 18411424981603222062
12592029 89 18048606923821327313
12788726 201 18051706447184384496
13140716 1 18338519750015527219
14022347 108 18267881483939565022
14115302 16 18113905935594082558
14178342 30 17910668770089435625
1420 336 18410288129508740643
14223421 5 18195527219056638376
14251757 5 18337409144872510110
14790565 3 18052554170265362896
16752209 62 18263354802973329495
16945 1 18198340646195604245
19591789 44 17908145369644779839
20028762 73 18202003236046068599
20510252 161 18055630608305058160
20600515 1 18055621833797954144
20645476 183 18041575632328107326
20739085 24 18264233382022372641
20871999 31 18340495448025433284
20905425 154 18052260884217278236
21197605 99 14371983565561942570
21421861 104 18045214101083042131
23184049 29 18265890431216087886
2334 1 18122343742154281597
23366157 5 18260827146312185652
23402539 116 18198330754985622428
23557571 272 18201158733832314020
23558518 356 18411698811839254933
23559900 14 18056758720547046846
2748010 2 18194965372867386877
3084891 72 18267021648382146263
3178227 256 18195262026992596065
43471831 8 17832987152674150843
589210 1 18194123142607585705
7364860 26 18271803583724252332
74978 22 18409730677039449212
77492 1 17679031404665810460
81228 2 17914066291495361024
8809292 202 18411704244550423572
90525 40 17899984824381687252
9709674 26 18340764956901289196

>  <PUBCHEM_SHAPE_MULTIPOLES>  (1) 
421.39
6.01
4.35
1.1
1.4
0.09
-0.1
1.34
0.74
-0.48
-0.88
0.53
0.51
0.59

>  <PUBCHEM_SHAPE_SELFOVERLAP>  (1) 
911.482

>  <PUBCHEM_SHAPE_VOLUME>  (1) 
239.5

>  <PUBCHEM_COORDINATE_TYPE>  (1) 
2
5
10

$$$$
