44412
     RDKit          3D

  6  5  0  0  0  0  0  0  0  0999 V2000
    0.6480   -1.4562   -0.9097 Cl  0  0  0  0  0  0  0  0  0  0  0  0
    0.6479    1.4566   -0.9092 Cl  0  0  0  0  0  0  0  0  0  0  0  0
    1.4143   -0.0003    1.1021 O   0  0  0  0  0  0  0  0  0  0  0  0
   -0.9573   -0.0002    0.7767 C   0  0  0  0  0  0  0  0  0  0  0  0
    0.4136    0.0000    0.0906 C   0  0  0  0  0  0  0  0  0  0  0  0
   -2.1665    0.0000   -0.1504 C   0  0  0  0  0  0  0  0  0  0  0  0
  1  5  1  0
  2  5  1  0
  3  5  1  0
  4  5  1  0
  4  6  1  0
M  END
>  <PUBCHEM_COMPOUND_CID>  (1) 
44412

>  <PUBCHEM_CONFORMER_RMSD>  (1) 
0.4

>  <PUBCHEM_CONFORMER_DIVERSEORDER>  (1) 
1
2
3

>  <PUBCHEM_MMFF94_PARTIAL_CHARGES>  (1) 
5
1 -0.29
12 0.4
2 -0.29
3 -0.68
5 0.86

>  <PUBCHEM_EFFECTIVE_ROTOR_COUNT>  (1) 
1

>  <PUBCHEM_PHARMACOPHORE_FEATURES>  (1) 
3
1 3 acceptor
1 3 donor
1 6 hydrophobe

>  <PUBCHEM_HEAVY_ATOM_COUNT>  (1) 
6

>  <PUBCHEM_ATOM_DEF_STEREO_COUNT>  (1) 
0

>  <PUBCHEM_ATOM_UDEF_STEREO_COUNT>  (1) 
0

>  <PUBCHEM_BOND_DEF_STEREO_COUNT>  (1) 
0

>  <PUBCHEM_BOND_UDEF_STEREO_COUNT>  (1) 
0

>  <PUBCHEM_ISOTOPIC_ATOM_COUNT>  (1) 
0

>  <PUBCHEM_COMPONENT_COUNT>  (1) 
1

>  <PUBCHEM_CACTVS_TAUTO_COUNT>  (1) 
1

>  <PUBCHEM_CONFORMER_ID>  (1) 
0000AD7C00000001

>  <PUBCHEM_MMFF94_ENERGY>  (1) 
2.4713

>  <PUBCHEM_FEATURE_SELFOVERLAP>  (1) 
15.223

>  <PUBCHEM_SHAPE_FINGERPRINT>  (1) 
139733 1 11676608492582313175
20096714 4 17752496613678328741
21040471 1 17987798656173965967
24536 1 18338252508707933577
29004967 10 17975450985880364266
5943 1 8117139322321338934

>  <PUBCHEM_SHAPE_MULTIPOLES>  (1) 
121.35
2
1.4
1.16
1.29
0
-0.12
0
0.02
-0.61
0.61
-0.31
0
0

>  <PUBCHEM_SHAPE_SELFOVERLAP>  (1) 
198.835

>  <PUBCHEM_SHAPE_VOLUME>  (1) 
86

>  <PUBCHEM_COORDINATE_TYPE>  (1) 
2
5
10

$$$$
