44416
     RDKit          3D

 31 34  0  0  0  0  0  0  0  0999 V2000
   -6.3241    0.2162    1.0574 S   0  0  0  0  0  0  0  0  0  0  0  0
   -2.3845    0.3960   -2.8249 O   0  0  0  0  0  0  0  0  0  0  0  0
    5.7016    1.2610    2.1250 O   0  0  0  0  0  0  0  0  0  0  0  0
   -7.5552    0.8741    1.4538 O   0  0  0  0  0  0  0  0  0  0  0  0
   -6.2749   -0.5932   -0.1440 O   0  0  0  0  0  0  0  0  0  0  0  0
   -0.1126   -0.0358   -1.2214 N   0  0  0  0  0  0  0  0  0  0  0  0
    3.6344   -0.8209    0.4848 N   0  0  0  0  0  0  0  0  0  0  0  0
   -5.0566    1.3823    1.0663 N   0  0  0  0  0  0  0  0  0  0  0  0
    6.5740    0.8891    0.0372 N   0  0  0  0  0  0  0  0  0  0  0  0
    1.1580   -0.3019   -0.6431 C   0  0  0  0  0  0  0  0  0  0  0  0
    2.0684    0.7435   -0.4584 C   0  0  0  0  0  0  0  0  0  0  0  0
    1.4870   -1.6071   -0.2633 C   0  0  0  0  0  0  0  0  0  0  0  0
    3.3125    0.4344    0.1171 C   0  0  0  0  0  0  0  0  0  0  0  0
    2.7537   -1.8242    0.3047 C   0  0  0  0  0  0  0  0  0  0  0  0
   -1.3480    0.3170   -0.6624 C   0  0  0  0  0  0  0  0  0  0  0  0
    4.2232    1.4710    0.3036 C   0  0  0  0  0  0  0  0  0  0  0  0
    1.7645    2.0645   -0.8310 C   0  0  0  0  0  0  0  0  0  0  0  0
    0.5916   -2.6768   -0.4375 C   0  0  0  0  0  0  0  0  0  0  0  0
   -2.4716    0.5287   -1.4710 C   0  0  0  0  0  0  0  0  0  0  0  0
    3.0871   -3.1215    0.6848 C   0  0  0  0  0  0  0  0  0  0  0  0
    3.9243    2.7849   -0.0652 C   0  0  0  0  0  0  0  0  0  0  0  0
    2.6925    3.0827   -0.6338 C   0  0  0  0  0  0  0  0  0  0  0  0
   -1.4668    0.4618    0.7252 C   0  0  0  0  0  0  0  0  0  0  0  0
   -3.8044    1.0220    0.4827 C   0  0  0  0  0  0  0  0  0  0  0  0
   -3.6950    0.8798   -0.9005 C   0  0  0  0  0  0  0  0  0  0  0  0
    0.9493   -3.9644   -0.0491 C   0  0  0  0  0  0  0  0  0  0  0  0
   -2.6902    0.8130    1.2956 C   0  0  0  0  0  0  0  0  0  0  0  0
    2.1997   -4.1869    0.5132 C   0  0  0  0  0  0  0  0  0  0  0  0
    5.5309    1.2118    0.8967 C   0  0  0  0  0  0  0  0  0  0  0  0
   -5.8213   -0.8048    2.4245 C   0  0  0  0  0  0  0  0  0  0  0  0
   -2.6475   -0.8963   -3.3668 C   0  0  0  0  0  0  0  0  0  0  0  0
  1  4  2  0
  1  5  2  0
  1  8  1  0
  1 30  1  0
  2 19  1  0
  2 31  1  0
  3 29  2  0
  6 10  1  0
  6 15  1  0
  7 13  2  0
  7 14  1  0
  8 24  1  0
  9 29  1  0
 10 11  2  0
 10 12  1  0
 11 13  1  0
 11 17  1  0
 12 14  2  0
 12 18  1  0
 13 16  1  0
 14 20  1  0
 15 19  2  0
 15 23  1  0
 16 21  2  0
 16 29  1  0
 17 22  2  0
 18 26  2  0
 19 25  1  0
 20 28  2  0
 21 22  1  0
 23 27  2  0
 24 25  2  0
 24 27  1  0
 26 28  1  0
M  END
>  <PUBCHEM_COMPOUND_CID>  (1) 
44416

>  <PUBCHEM_CONFORMER_RMSD>  (1) 
0.8

>  <PUBCHEM_CONFORMER_DIVERSEORDER>  (1) 
3
76
118
43
129
45
37
106
107
23
115
131
130
99
49
79
64
105
116
92
122
96
110
97
121
25
77
58
84
40
89
83
80
44
73
102
63
117
26
126
93
30
94
90
113
111
50
72
125
82
127
124
59
75
103
69
46
39
98
88
10
54
81
29
104
132
119
18
65
42
101
86
19
28
128
53
78
41
100
112
66
57
38
47
35
70
36
67
123
114
74
8
120
20
31
33
62
51
87
68
24
56
52
27
32
85
12
22
61
91
55
16
17
109
7
95
34
21
9
60
108
2
15
48
11
6
71
13
5
1
4
14

>  <PUBCHEM_MMFF94_PARTIAL_CHARGES>  (1) 
43
1 1.33
10 0.1
13 0.31
14 0.31
15 0.1
16 0.09
17 -0.15
18 -0.15
19 0.08
2 -0.36
20 -0.15
21 -0.15
22 -0.15
23 -0.15
24 0.2
25 -0.15
26 -0.15
27 -0.15
28 -0.15
29 0.54
3 -0.57
30 0.11
31 0.28
32 0.4
33 0.15
34 0.15
35 0.15
36 0.15
37 0.15
38 0.15
39 0.15
4 -0.65
40 0.15
41 0.15
42 0.15
43 0.42
47 0.37
48 0.37
5 -0.65
6 -0.6
7 -0.62
8 -0.76
9 -0.8

>  <PUBCHEM_EFFECTIVE_ROTOR_COUNT>  (1) 
6

>  <PUBCHEM_PHARMACOPHORE_FEATURES>  (1) 
13
1 2 acceptor
1 3 acceptor
1 4 acceptor
1 5 acceptor
1 6 cation
1 6 donor
1 7 acceptor
1 8 donor
1 9 donor
6 11 13 16 17 21 22 rings
6 12 14 18 20 26 28 rings
6 15 19 23 24 25 27 rings
6 7 10 11 12 13 14 rings

>  <PUBCHEM_HEAVY_ATOM_COUNT>  (1) 
31

>  <PUBCHEM_ATOM_DEF_STEREO_COUNT>  (1) 
0

>  <PUBCHEM_ATOM_UDEF_STEREO_COUNT>  (1) 
0

>  <PUBCHEM_BOND_DEF_STEREO_COUNT>  (1) 
0

>  <PUBCHEM_BOND_UDEF_STEREO_COUNT>  (1) 
0

>  <PUBCHEM_ISOTOPIC_ATOM_COUNT>  (1) 
0

>  <PUBCHEM_COMPONENT_COUNT>  (1) 
1

>  <PUBCHEM_CACTVS_TAUTO_COUNT>  (1) 
7

>  <PUBCHEM_CONFORMER_ID>  (1) 
0000AD8000000003

>  <PUBCHEM_MMFF94_ENERGY>  (1) 
134.4244

>  <PUBCHEM_FEATURE_SELFOVERLAP>  (1) 
66.052

>  <PUBCHEM_SHAPE_FINGERPRINT>  (1) 
10165383 225 18188225281286016508
10835480 77 18335420115901496857
11049842 53 16343140208345420302
11227688 84 17688304590808538383
12107183 9 17691980263138994033
12236239 1 17846776308291809676
12373685 5 18411416225241292923
12422481 6 17969230099567432923
12553582 1 18050558544055200454
12596602 18 17775290452406612675
13140716 1 18192426584025122764
13383668 1 17313093177465666035
13533116 47 18263375715670279859
13583140 156 18337388224244943541
13782708 43 17095520660608005986
14341114 328 17917715678368125307
15328829 1 17917135200610952445
15950262 2 16270503348432904352
17138139 8 17481384542771054358
17913733 40 18411981377431301243
1813 80 17769094541117835310
19319366 153 18273496779869341243
19377110 9 18273209820646550899
1979834 28 18260276251909496853
20505436 4 17989770003097145614
20511986 3 17845637188597267305
20739085 24 18263926545352793524
21049683 271 18118135684445254366
21197605 99 18117008869256885723
21781051 124 18040443175109114010
21792965 78 15069715584410520315
22224240 67 18412261770366481536
23558518 356 17625249093550676501
23572383 38 17822306720920324875
244849 19 17751065926081331255
25147074 1 17988909073040348247
3178227 256 18334577949902382768
350125 39 18191022511712697598
4093350 32 17489593329517914182
4144715 1 18118133476753066185
4340502 62 18412272748265771843
437795 51 18337122172475050934
469060 322 18042678580457773735
474 4 18412256251233207732
5104073 3 18263085410146181729
5385378 56 18411699859979781706
563151 74 18341058449571099531
59755656 520 18272087236111875254
6523845 18 18335151907761798308
86090 222 17242478056879051467

>  <PUBCHEM_SHAPE_MULTIPOLES>  (1) 
598.41
14.64
3.73
2
15.81
4.06
-1.15
-6.48
8.96
-5.68
0.23
2.9
0
-0.18

>  <PUBCHEM_SHAPE_SELFOVERLAP>  (1) 
1310.373

>  <PUBCHEM_SHAPE_VOLUME>  (1) 
326.2

>  <PUBCHEM_COORDINATE_TYPE>  (1) 
2
5
10

$$$$
