44424
     RDKit          3D

 18 18  0  0  0  0  0  0  0  0999 V2000
   -0.9791    0.1413    0.2840 O   0  0  0  0  0  0  0  0  0  0  0  0
    2.4450   -0.8686    0.3892 O   0  0  0  0  0  0  0  0  0  0  0  0
    0.0526   -1.8141   -0.3795 O   0  0  0  0  0  0  0  0  0  0  0  0
   -4.6262    0.1801   -0.2480 N   0  0  0  0  0  0  0  0  0  0  0  0
   -3.3097    0.6659    0.1642 C   0  0  0  0  0  0  0  0  0  0  0  0
   -4.9648   -1.0490    0.4684 C   0  0  0  0  0  0  0  0  0  0  0  0
   -5.6443    1.2039   -0.0161 C   0  0  0  0  0  0  0  0  0  0  0  0
   -2.2406   -0.3784   -0.1151 C   0  0  0  0  0  0  0  0  0  0  0  0
   -6.3030   -1.6018    0.0082 C   0  0  0  0  0  0  0  0  0  0  0  0
   -5.3085    2.4891   -0.7536 C   0  0  0  0  0  0  0  0  0  0  0  0
    0.0950   -0.6872    0.0952 C   0  0  0  0  0  0  0  0  0  0  0  0
    1.3474    0.0047    0.5653 C   0  0  0  0  0  0  0  0  0  0  0  0
    3.6712   -0.2936    0.1573 C   0  0  0  0  0  0  0  0  0  0  0  0
    3.9534    0.9562    0.6920 C   0  0  0  0  0  0  0  0  0  0  0  0
    4.6104   -0.9707   -0.6091 C   0  0  0  0  0  0  0  0  0  0  0  0
    5.1979    1.5401    0.4556 C   0  0  0  0  0  0  0  0  0  0  0  0
    5.8549   -0.3867   -0.8453 C   0  0  0  0  0  0  0  0  0  0  0  0
    6.1485    0.8687   -0.3128 C   0  0  0  0  0  0  0  0  0  0  0  0
  1  8  1  0
  1 11  1  0
  2 12  1  0
  2 13  1  0
  3 11  2  0
  4  5  1  0
  4  6  1  0
  4  7  1  0
  5  8  1  0
  6  9  1  0
  7 10  1  0
 11 12  1  0
 13 14  2  0
 13 15  1  0
 14 16  1  0
 15 17  2  0
 16 18  2  0
 17 18  1  0
M  END
>  <PUBCHEM_COMPOUND_CID>  (1) 
44424

>  <PUBCHEM_CONFORMER_RMSD>  (1) 
1

>  <PUBCHEM_CONFORMER_DIVERSEORDER>  (1) 
1
230
516
144
6
19
467
338
220
254
498
45
120
495
408
476
5
97
175
298
7
213
37
473
3
143
85
48
129
206
418
185
89
407
14
26
310
518
202
103
391
32
2
162
42
33
444
58
10
469
425
387
15
264
459
22
90
146
429
92
161
179
134
121
135
567
52
576
279
337
28
51
195
12
115
362
187
30
235
84
20
344
450
183

>  <PUBCHEM_MMFF94_PARTIAL_CHARGES>  (1) 
21
1 -0.43
11 0.66
12 0.34
13 0.08
14 -0.15
15 -0.15
16 -0.15
17 -0.15
18 -0.15
2 -0.36
3 -0.57
35 0.15
36 0.15
37 0.15
38 0.15
39 0.15
4 -0.81
5 0.27
6 0.27
7 0.27
8 0.28

>  <PUBCHEM_EFFECTIVE_ROTOR_COUNT>  (1) 
9

>  <PUBCHEM_PHARMACOPHORE_FEATURES>  (1) 
4
1 2 acceptor
1 3 acceptor
1 4 cation
6 13 14 15 16 17 18 rings

>  <PUBCHEM_HEAVY_ATOM_COUNT>  (1) 
18

>  <PUBCHEM_ATOM_DEF_STEREO_COUNT>  (1) 
0

>  <PUBCHEM_ATOM_UDEF_STEREO_COUNT>  (1) 
0

>  <PUBCHEM_BOND_DEF_STEREO_COUNT>  (1) 
0

>  <PUBCHEM_BOND_UDEF_STEREO_COUNT>  (1) 
0

>  <PUBCHEM_ISOTOPIC_ATOM_COUNT>  (1) 
0

>  <PUBCHEM_COMPONENT_COUNT>  (1) 
1

>  <PUBCHEM_CACTVS_TAUTO_COUNT>  (1) 
1

>  <PUBCHEM_CONFORMER_ID>  (1) 
0000AD8800000001

>  <PUBCHEM_MMFF94_ENERGY>  (1) 
38.2477

>  <PUBCHEM_FEATURE_SELFOVERLAP>  (1) 
20.305

>  <PUBCHEM_SHAPE_FINGERPRINT>  (1) 
10912923 1 17530675485982563945
11287383 113 18341896311480037666
11796584 16 9871753489783013149
12091667 2 18187368731546993955
12236239 1 18187082845343484034
12730499 353 18272093812044681358
12916748 109 18343304773227524872
13167372 99 18261109630521457444
13533116 47 13470419829589819836
1420 363 18412831308599365611
14251718 22 18410294726562663539
14251732 16 18339080492397917155
14528608 73 18411698785715477562
14933364 13 18413110558740656425
15183329 4 16200432463840678604
15348495 7 8646475324154526127
15778101 99 18339927013921241441
17834072 33 18201718474606544566
17844677 252 18412550920217725825
19489759 90 17821446868118959681
20281389 69 18333730204123793313
20645477 70 17917438588553264614
21709351 56 18409724076228811509
220451 1 17822011982419653635
221357 26 17988924444913228416
22289505 5 18273214188755372344
23081809 10 17603863386252634571
23272321 79 18334576867016560605
23402539 116 18113615673409650735
2916195 48 18410007762464806864
29717793 49 16630533908352411828
300161 21 17530959156051565835
3014965 18 18270962328574768270
3545911 37 18343303699723123018
42788 4 18411700993191608658
4325135 7 18410292545178271759
5104073 3 18041278756157920907
5374978 207 11602537641936818022
542803 24 17167582687236727632
59755656 520 17749385988268293378
7062679 117 18259987106743752835

>  <PUBCHEM_SHAPE_MULTIPOLES>  (1) 
347.84
19.1
1.81
0.8
3.93
0.58
0.03
3.72
2.22
2.26
0.24
-0.36
0.07
1.23

>  <PUBCHEM_SHAPE_SELFOVERLAP>  (1) 
692.458

>  <PUBCHEM_SHAPE_VOLUME>  (1) 
207.2

>  <PUBCHEM_COORDINATE_TYPE>  (1) 
2
5
10

$$$$
