44426
     RDKit          3D

 20 22  0  0  1  0  0  0  0  0999 V2000
    5.8922   -0.1092    0.6211 O   0  0  0  0  0  0  0  0  0  0  0  0
   -0.5493    2.1633    0.0004 O   0  0  0  0  0  0  0  0  0  0  0  0
    3.2215    0.2324   -0.3020 N   0  0  0  0  0  0  0  0  0  0  0  0
    0.7967    0.1603    0.1175 C   0  0  0  0  0  0  0  0  0  0  0  0
    1.9723    0.9837   -0.4052 C   0  0  0  0  0  0  0  0  0  0  0  0
    0.7078   -1.1697   -0.6295 C   0  0  0  0  0  0  0  0  0  0  0  0
   -0.4482   -2.0065   -0.0947 C   0  0  0  0  0  0  0  0  0  0  0  0
   -0.5100    0.9360   -0.0139 C   0  0  0  0  0  0  0  0  0  0  0  0
   -1.7437   -1.2438   -0.1382 C   0  0  0  0  0  0  0  0  0  0  0  0
   -1.7753    0.1583   -0.0944 C   0  0  0  0  0  0  0  0  0  0  0  0
    3.5132   -0.1053    1.0980 C   0  0  0  0  0  0  0  0  0  0  0  0
    4.3377    0.9942   -0.8793 C   0  0  0  0  0  0  0  0  0  0  0  0
    4.8269   -0.8774    1.1819 C   0  0  0  0  0  0  0  0  0  0  0  0
    5.6314    0.1955   -0.7494 C   0  0  0  0  0  0  0  0  0  0  0  0
   -2.9992    0.8389   -0.1229 C   0  0  0  0  0  0  0  0  0  0  0  0
   -2.9551   -1.9490   -0.1817 C   0  0  0  0  0  0  0  0  0  0  0  0
   -4.1945    0.1227   -0.1813 C   0  0  0  0  0  0  0  0  0  0  0  0
   -4.1731   -1.2694   -0.2075 C   0  0  0  0  0  0  0  0  0  0  0  0
   -5.4978    0.8480   -0.2094 C   0  0  0  0  0  0  0  0  0  0  0  0
   -6.0536    1.0968    1.1902 C   0  0  0  0  0  0  0  0  0  0  0  0
  1 13  1  0
  1 14  1  0
  2  8  2  0
  3  5  1  0
  3 11  1  0
  3 12  1  0
  4  5  1  0
  4  6  1  0
  4  8  1  0
  6  7  1  0
  7  9  1  0
  8 10  1  0
  9 10  2  0
  9 16  1  0
 10 15  1  0
 11 13  1  0
 12 14  1  0
 15 17  2  0
 16 18  2  0
 17 18  1  0
 17 19  1  0
 19 20  1  0
M  END
>  <PUBCHEM_COMPOUND_CID>  (1) 
44426

>  <PUBCHEM_CONFORMER_RMSD>  (1) 
0.6

>  <PUBCHEM_CONFORMER_DIVERSEORDER>  (1) 
1
5
10
6
9
2
4
8
7
3

>  <PUBCHEM_MMFF94_PARTIAL_CHARGES>  (1) 
21
1 -0.56
10 0.09
11 0.27
12 0.27
13 0.28
14 0.28
15 -0.15
16 -0.15
17 -0.14
18 -0.15
19 0.14
2 -0.57
3 -0.81
36 0.15
37 0.15
38 0.15
4 0.06
5 0.27
7 0.14
8 0.42
9 -0.14

>  <PUBCHEM_EFFECTIVE_ROTOR_COUNT>  (1) 
4.8

>  <PUBCHEM_PHARMACOPHORE_FEATURES>  (1) 
7
1 1 acceptor
1 2 acceptor
1 20 hydrophobe
1 3 cation
6 1 3 11 12 13 14 rings
6 4 6 7 8 9 10 rings
6 9 10 15 16 17 18 rings

>  <PUBCHEM_HEAVY_ATOM_COUNT>  (1) 
20

>  <PUBCHEM_ATOM_DEF_STEREO_COUNT>  (1) 
0

>  <PUBCHEM_ATOM_UDEF_STEREO_COUNT>  (1) 
1

>  <PUBCHEM_BOND_DEF_STEREO_COUNT>  (1) 
0

>  <PUBCHEM_BOND_UDEF_STEREO_COUNT>  (1) 
0

>  <PUBCHEM_ISOTOPIC_ATOM_COUNT>  (1) 
0

>  <PUBCHEM_COMPONENT_COUNT>  (1) 
1

>  <PUBCHEM_CACTVS_TAUTO_COUNT>  (1) 
2

>  <PUBCHEM_CONFORMER_ID>  (1) 
0000AD8A00000001

>  <PUBCHEM_MMFF94_ENERGY>  (1) 
41.0786

>  <PUBCHEM_FEATURE_SELFOVERLAP>  (1) 
35.542

>  <PUBCHEM_SHAPE_FINGERPRINT>  (1) 
10062212 137 18337666520518677743
10906281 52 18339378404188050391
11089746 13 17346309397844023137
11315181 36 17917719028215678640
11401426 45 18202843262243315311
11646440 116 17918002689441565257
12107183 9 17538550020878485384
12236239 1 18040434408394618700
12390115 104 17986966145879350105
12616971 3 17894630374516141542
12788726 201 18339931428530638448
13140716 1 18339643464148110441
13167823 11 18113614603820531562
13533116 47 17489309612425973558
13760787 19 18114179761097174570
13760787 5 17894908555094713031
13862211 1 18411975892668607647
14251764 18 18335422387574731803
15099037 51 18412263956082621085
15183329 4 18334855021756588047
15196674 1 18339079409802395045
15788980 27 17748542641084191277
1601671 61 18413671300996478569
17804303 29 18342454893325027449
17834072 33 18040151838428055406
1813 80 17022905601817784678
19489759 90 17203611475950691377
19784866 170 18410858737642097223
19784866 9 18261109651885232099
200 152 17967810565900125496
20281389 69 18260828202826329989
20621476 66 18411987948874045873
20645477 70 14996271480461151616
21033648 29 17131538514372248098
21267235 1 18338523048993736327
21421861 104 18042679507906998090
220451 1 18114184142164068582
23175994 123 17060339651563008256
23366157 5 17828759878315998868
23402539 116 18272082820742829703
23559900 14 18201437030027200320
293599 30 18342742888784786349
300161 21 18187640332304233196
3004659 81 18334016095186428676
335352 9 18411418423547033013
34934 24 18341610391639677527
3545911 37 18343586231187948495
3680242 22 18336831896366045482
4072396 5 18341043034537938486
5104073 3 18337390559926307529
5385378 56 18199759050708193515
542803 24 17894348895371089926
559249 180 18408316692133103791
59755656 215 18272094842630942246
67856867 119 18189615124234841124
7226269 152 18131072615192440849

>  <PUBCHEM_SHAPE_MULTIPOLES>  (1) 
394.87
13.64
1.75
0.94
4.44
0.39
-0.18
-2.47
-2.1
-1.31
0.08
0.57
-0.03
-1.02

>  <PUBCHEM_SHAPE_SELFOVERLAP>  (1) 
833.44

>  <PUBCHEM_SHAPE_VOLUME>  (1) 
221.1

>  <PUBCHEM_COORDINATE_TYPE>  (1) 
2
5
10

$$$$
