44420
     RDKit          3D

 24 27  0  0  1  0  0  0  0  0999 V2000
    5.7268    1.5228   -1.0868 Cl  0  0  0  0  0  0  0  0  0  0  0  0
    0.4892   -0.3591    1.8906 S   0  0  0  0  0  0  0  0  0  0  0  0
   -1.9773   -4.8144   -1.1661 O   0  0  0  0  0  0  0  0  0  0  0  0
   -1.3327    0.9886   -0.3067 N   0  0  0  0  0  0  0  0  0  0  0  0
   -3.3165    3.0677    0.0097 N   0  0  0  0  0  0  0  0  0  0  0  0
   -0.6835   -0.0884   -1.0516 C   0  0  0  0  0  0  0  0  0  0  0  0
   -1.2250    2.2615   -1.0301 C   0  0  0  0  0  0  0  0  0  0  0  0
   -2.7405    0.6658   -0.0437 C   0  0  0  0  0  0  0  0  0  0  0  0
   -1.9088    3.3913   -0.2526 C   0  0  0  0  0  0  0  0  0  0  0  0
   -3.4231    1.7958    0.7347 C   0  0  0  0  0  0  0  0  0  0  0  0
    0.7538    0.2662   -1.4667 C   0  0  0  0  0  0  0  0  0  0  0  0
   -0.7527   -1.4379   -0.3670 C   0  0  0  0  0  0  0  0  0  0  0  0
    1.8967    0.4088   -0.4785 C   0  0  0  0  0  0  0  0  0  0  0  0
   -0.2241   -1.6646    0.9146 C   0  0  0  0  0  0  0  0  0  0  0  0
   -3.9670    4.1450    0.7529 C   0  0  0  0  0  0  0  0  0  0  0  0
   -1.3372   -2.5165   -1.0560 C   0  0  0  0  0  0  0  0  0  0  0  0
    1.8876    0.1538    0.9050 C   0  0  0  0  0  0  0  0  0  0  0  0
    3.1152    0.8304   -1.0652 C   0  0  0  0  0  0  0  0  0  0  0  0
   -0.3011   -2.9440    1.4861 C   0  0  0  0  0  0  0  0  0  0  0  0
   -1.4035   -3.7863   -0.4833 C   0  0  0  0  0  0  0  0  0  0  0  0
    3.0732    0.3440    1.6479 C   0  0  0  0  0  0  0  0  0  0  0  0
   -0.8851   -4.0000    0.7882 C   0  0  0  0  0  0  0  0  0  0  0  0
    4.2787    1.0062   -0.3188 C   0  0  0  0  0  0  0  0  0  0  0  0
    4.2567    0.7631    1.0435 C   0  0  0  0  0  0  0  0  0  0  0  0
  1 23  1  0
  2 14  1  0
  2 17  1  0
  3 20  1  0
  4  6  1  0
  4  7  1  0
  4  8  1  0
  5  9  1  0
  5 10  1  0
  5 15  1  0
  6 11  1  0
  6 12  1  0
  7  9  1  0
  8 10  1  0
 11 13  1  0
 12 14  2  0
 12 16  1  0
 13 17  2  0
 13 18  1  0
 14 19  1  0
 16 20  2  0
 17 21  1  0
 18 23  2  0
 19 22  2  0
 20 22  1  0
 21 24  2  0
 23 24  1  0
M  END
>  <PUBCHEM_COMPOUND_CID>  (1) 
44420

>  <PUBCHEM_CONFORMER_RMSD>  (1) 
0.6

>  <PUBCHEM_CONFORMER_DIVERSEORDER>  (1) 
1
3
4
6
5
2

>  <PUBCHEM_MMFF94_PARTIAL_CHARGES>  (1) 
31
1 -0.18
10 0.27
11 0.14
12 -0.14
13 -0.14
14 0.1
15 0.27
16 -0.15
17 0.1
18 -0.15
19 -0.15
2 -0.2
20 0.08
21 -0.15
22 -0.15
23 0.18
24 -0.15
3 -0.53
39 0.15
4 -0.81
40 0.15
41 0.15
42 0.15
43 0.15
44 0.15
45 0.45
5 -0.81
6 0.41
7 0.27
8 0.27
9 0.27

>  <PUBCHEM_EFFECTIVE_ROTOR_COUNT>  (1) 
2.8

>  <PUBCHEM_PHARMACOPHORE_FEATURES>  (1) 
7
1 3 donor
1 4 cation
1 5 cation
6 12 14 16 19 20 22 rings
6 13 17 18 21 23 24 rings
6 4 5 7 8 9 10 rings
7 2 6 11 12 13 14 17 rings

>  <PUBCHEM_HEAVY_ATOM_COUNT>  (1) 
24

>  <PUBCHEM_ATOM_DEF_STEREO_COUNT>  (1) 
0

>  <PUBCHEM_ATOM_UDEF_STEREO_COUNT>  (1) 
1

>  <PUBCHEM_BOND_DEF_STEREO_COUNT>  (1) 
0

>  <PUBCHEM_BOND_UDEF_STEREO_COUNT>  (1) 
0

>  <PUBCHEM_ISOTOPIC_ATOM_COUNT>  (1) 
0

>  <PUBCHEM_COMPONENT_COUNT>  (1) 
1

>  <PUBCHEM_CACTVS_TAUTO_COUNT>  (1) 
3

>  <PUBCHEM_CONFORMER_ID>  (1) 
0000AD8400000001

>  <PUBCHEM_MMFF94_ENERGY>  (1) 
75.3878

>  <PUBCHEM_FEATURE_SELFOVERLAP>  (1) 
35.536

>  <PUBCHEM_SHAPE_FINGERPRINT>  (1) 
1100329 8 18120372314206998757
11115154 58 17833825354740704719
11578080 2 17556058888847090236
11582403 64 15762106647348132530
12160290 23 18188197805694440542
12422481 6 16965725301957134554
12553582 1 17829044660760347578
12788726 201 18263640838973570267
13004483 165 17908132523477030726
13140716 1 17977105978608158497
133893 2 17616219534948991359
13681431 1 9221786012901614395
13757389 114 18336847345643556124
13878862 14 17255955677102643765
13955234 65 17691698788083051185
14713325 29 18339930432329963934
14955137 171 17902522815342398819
15163728 17 18196950876024483257
15230672 131 18264220124017428110
15842332 3 17895738691486244536
1813 80 17551240991871272470
18785283 64 17831861244113823475
20101258 96 17978241778588958160
20600515 1 17472645607268293101
20642791 239 17025980029111587590
21120745 212 18048609410243758548
21304303 172 18053674843449447279
21731228 192 18262798454168708704
21756936 100 18408323281246101020
22620623 9 18267886036889787654
23419403 2 17481758166313245583
23557571 272 17906716356990270336
23558518 356 18338506465471171287
23559900 14 17399238547855353853
35225 105 18412830200307581635
3610482 184 17678482912158026780
3729539 64 17764332547710214094
394222 165 17769095644660244169
59755656 520 18411697647538932956
6442390 28 18342181016572913209
6786 2 18268161863362245515
7364860 26 17690561884137348765
77188 2 17619631723183000799
7808743 9 18410295835171290644
81228 2 18266730471084791943
9981440 41 18265896856925390001

>  <PUBCHEM_SHAPE_MULTIPOLES>  (1) 
483.8
7.31
5.61
1.6
9.72
3.6
-0.33
-8.05
0.33
-8.86
0.27
0.65
0.45
-1.46

>  <PUBCHEM_SHAPE_SELFOVERLAP>  (1) 
1023.391

>  <PUBCHEM_SHAPE_VOLUME>  (1) 
272.1

>  <PUBCHEM_COORDINATE_TYPE>  (1) 
2
5
10

$$$$
