44433
     RDKit          3D

 19 19  0  0  0  0  0  0  0  0999 V2000
    0.3932   -2.5164   -0.7197 O   0  0  0  0  0  0  0  0  0  0  0  0
    3.6711    0.5345    0.4380 N   0  0  0  0  0  0  0  0  0  0  0  0
    0.6223   -1.4168    1.3124 N   0  0  0  0  0  0  0  0  0  0  0  0
    2.2476    0.2340    0.5206 C   0  0  0  0  0  0  0  0  0  0  0  0
    2.0295   -1.1124    1.1951 C   0  0  0  0  0  0  0  0  0  0  0  0
    4.2890   -0.1933   -0.6721 C   0  0  0  0  0  0  0  0  0  0  0  0
    3.8866    1.9745    0.2825 C   0  0  0  0  0  0  0  0  0  0  0  0
   -2.4976   -2.3735   -0.4530 C   0  0  0  0  0  0  0  0  0  0  0  0
   -1.5325   -2.3190    0.7331 C   0  0  0  0  0  0  0  0  0  0  0  0
   -2.4789   -1.1248   -1.3458 C   0  0  0  0  0  0  0  0  0  0  0  0
   -0.0830   -2.1007    0.3333 C   0  0  0  0  0  0  0  0  0  0  0  0
    5.7861    0.0590   -0.7283 C   0  0  0  0  0  0  0  0  0  0  0  0
    3.2805    2.4834   -1.0144 C   0  0  0  0  0  0  0  0  0  0  0  0
   -2.8892    0.1411   -0.6366 C   0  0  0  0  0  0  0  0  0  0  0  0
   -4.2302    0.5247   -0.6143 C   0  0  0  0  0  0  0  0  0  0  0  0
   -1.9280    0.9283   -0.0025 C   0  0  0  0  0  0  0  0  0  0  0  0
   -4.6099    1.6955    0.0419 C   0  0  0  0  0  0  0  0  0  0  0  0
   -2.3079    2.0991    0.6538 C   0  0  0  0  0  0  0  0  0  0  0  0
   -3.6489    2.4827    0.6761 C   0  0  0  0  0  0  0  0  0  0  0  0
  1 11  2  0
  2  4  1  0
  2  6  1  0
  2  7  1  0
  3  5  1  0
  3 11  1  0
  4  5  1  0
  6 12  1  0
  7 13  1  0
  8  9  1  0
  8 10  1  0
  9 11  1  0
 10 14  1  0
 14 15  2  0
 14 16  1  0
 15 17  1  0
 16 18  2  0
 17 19  2  0
 18 19  1  0
M  END
>  <PUBCHEM_COMPOUND_CID>  (1) 
44433

>  <PUBCHEM_CONFORMER_RMSD>  (1) 
1.2

>  <PUBCHEM_CONFORMER_DIVERSEORDER>  (1) 
3
33
38
11
6
34
30
56
31
44
52
32
29
1
51
54
39
27
63
41
7
53
62
25
26
22
18
28
2
58
36
46
17
15
9
50
49
19
24
8
43
47
48
10
4
64
37
23
20
45
40
59
42
65
35
13
14
57
5
16
21
55
12
60
61

>  <PUBCHEM_MMFF94_PARTIAL_CHARGES>  (1) 
22
1 -0.57
10 0.14
11 0.57
14 -0.14
15 -0.15
16 -0.15
17 -0.15
18 -0.15
19 -0.15
2 -0.81
3 -0.73
34 0.37
4 0.27
41 0.15
42 0.15
43 0.15
44 0.15
45 0.15
5 0.3
6 0.27
7 0.27
9 0.06

>  <PUBCHEM_EFFECTIVE_ROTOR_COUNT>  (1) 
10

>  <PUBCHEM_PHARMACOPHORE_FEATURES>  (1) 
4
1 1 acceptor
1 2 cation
1 3 donor
6 14 15 16 17 18 19 rings

>  <PUBCHEM_HEAVY_ATOM_COUNT>  (1) 
19

>  <PUBCHEM_ATOM_DEF_STEREO_COUNT>  (1) 
0

>  <PUBCHEM_ATOM_UDEF_STEREO_COUNT>  (1) 
0

>  <PUBCHEM_BOND_DEF_STEREO_COUNT>  (1) 
0

>  <PUBCHEM_BOND_UDEF_STEREO_COUNT>  (1) 
0

>  <PUBCHEM_ISOTOPIC_ATOM_COUNT>  (1) 
0

>  <PUBCHEM_COMPONENT_COUNT>  (1) 
1

>  <PUBCHEM_CACTVS_TAUTO_COUNT>  (1) 
2

>  <PUBCHEM_CONFORMER_ID>  (1) 
0000AD9100000003

>  <PUBCHEM_MMFF94_ENERGY>  (1) 
29.021

>  <PUBCHEM_FEATURE_SELFOVERLAP>  (1) 
20.297

>  <PUBCHEM_SHAPE_FINGERPRINT>  (1) 
10498660 4 18339069475701171449
10670039 82 18411695474348595940
10681291 71 18339366266684195161
10730089 88 18059308595006110270
12633257 1 18187354429342899484
12788726 201 18119795065854860115
13177829 73 18411696557165462872
13828863 39 14564251500176193814
13994607 96 17968391107891807571
14123250 116 18335418023286721929
14123255 52 18337952294699525321
14251751 93 18342738515869814700
14251757 17 17487916522481808260
14251764 38 18265614480216621056
14787075 74 18336255826300676739
14840074 17 17821737125882441237
15183329 4 18339084792356785742
15342168 16 18264483997605586357
17834072 32 18409167696931638105
20671657 1 18193553376573201507
21864079 5 18336260223492282002
221357 26 18199186368031461398
22182937 141 18261115217941269163
22849341 161 17680125410330500586
23227448 37 18409449202342339541
235170 7 17130436889678591068
23557571 272 18339367486144450367
23558518 356 18116721913837919064
23559900 14 18201433718813208592
2637199 183 18409731729517446450
3459 83 18198629831060597870
44154327 71 18337666413165464417
469060 322 15358261622940671795
474 4 18334573499709316673
5048184 11 18410008806305727857
5283173 99 18272367612136244288

>  <PUBCHEM_SHAPE_MULTIPOLES>  (1) 
375.18
10.59
3.29
1.15
8.65
0.25
0.01
-6.28
2.23
-1.66
-0.21
0.13
0.2
-1.06

>  <PUBCHEM_SHAPE_SELFOVERLAP>  (1) 
740.757

>  <PUBCHEM_SHAPE_VOLUME>  (1) 
224.3

>  <PUBCHEM_COORDINATE_TYPE>  (1) 
2
5
10

$$$$
