44430
     RDKit          3D

 15 15  0  0  0  0  0  0  0  0999 V2000
   -0.0725    2.0123   -1.0798 O   0  0  0  0  0  0  0  0  0  0  0  0
   -3.1197   -1.0733   -0.0160 N   0  0  0  0  0  0  0  0  0  0  0  0
   -1.4671    1.2020    0.5910 N   0  0  0  0  0  0  0  0  0  0  0  0
   -3.0251    0.0758   -0.9157 C   0  0  0  0  0  0  0  0  0  0  0  0
   -2.7036    1.3381   -0.1294 C   0  0  0  0  0  0  0  0  0  0  0  0
    0.8987    1.3134    1.0258 C   0  0  0  0  0  0  0  0  0  0  0  0
   -0.2356    1.5553    0.0486 C   0  0  0  0  0  0  0  0  0  0  0  0
    1.9310    0.3442    0.5137 C   0  0  0  0  0  0  0  0  0  0  0  0
   -3.3910   -2.2945   -0.7735 C   0  0  0  0  0  0  0  0  0  0  0  0
   -4.1603   -0.8525    0.9874 C   0  0  0  0  0  0  0  0  0  0  0  0
    1.7825   -1.0115    0.7711 C   0  0  0  0  0  0  0  0  0  0  0  0
    3.0164    0.8202   -0.2082 C   0  0  0  0  0  0  0  0  0  0  0  0
    2.7391   -1.9094    0.2971 C   0  0  0  0  0  0  0  0  0  0  0  0
    3.9728   -0.0777   -0.6825 C   0  0  0  0  0  0  0  0  0  0  0  0
    3.8342   -1.4424   -0.4297 C   0  0  0  0  0  0  0  0  0  0  0  0
  1  7  2  0
  2  4  1  0
  2  9  1  0
  2 10  1  0
  3  5  1  0
  3  7  1  0
  4  5  1  0
  6  7  1  0
  6  8  1  0
  8 11  2  0
  8 12  1  0
 11 13  1  0
 12 14  2  0
 13 15  2  0
 14 15  1  0
M  END
>  <PUBCHEM_COMPOUND_CID>  (1) 
44430

>  <PUBCHEM_CONFORMER_RMSD>  (1) 
0.6

>  <PUBCHEM_CONFORMER_DIVERSEORDER>  (1) 
23
4
50
102
73
67
24
57
98
83
64
78
47
80
31
45
6
62
95
49
84
17
70
75
33
39
72
58
97
60
77
30
103
7
86
68
5
74
41
27
8
100
65
32
104
20
107
26
56
42
53
99
69
34
91
54
16
90
85
89
14
15
28
3
13
94
37
18
66
79
82
96
40
63
51
52
19
61
106
92
46
1
93
101
29
55
2
105
25
44
81
76
43
87
59
71
36
88
12
11
108
35
38
10
9
48
22
21

>  <PUBCHEM_MMFF94_PARTIAL_CHARGES>  (1) 
21
1 -0.57
10 0.27
11 -0.15
12 -0.15
13 -0.15
14 -0.15
15 -0.15
2 -0.81
20 0.37
29 0.15
3 -0.73
30 0.15
31 0.15
32 0.15
33 0.15
4 0.27
5 0.3
6 0.2
7 0.57
8 -0.14
9 0.27

>  <PUBCHEM_EFFECTIVE_ROTOR_COUNT>  (1) 
6

>  <PUBCHEM_PHARMACOPHORE_FEATURES>  (1) 
4
1 1 acceptor
1 2 cation
1 3 donor
6 8 11 12 13 14 15 rings

>  <PUBCHEM_HEAVY_ATOM_COUNT>  (1) 
15

>  <PUBCHEM_ATOM_DEF_STEREO_COUNT>  (1) 
0

>  <PUBCHEM_ATOM_UDEF_STEREO_COUNT>  (1) 
0

>  <PUBCHEM_BOND_DEF_STEREO_COUNT>  (1) 
0

>  <PUBCHEM_BOND_UDEF_STEREO_COUNT>  (1) 
0

>  <PUBCHEM_ISOTOPIC_ATOM_COUNT>  (1) 
0

>  <PUBCHEM_COMPONENT_COUNT>  (1) 
1

>  <PUBCHEM_CACTVS_TAUTO_COUNT>  (1) 
2

>  <PUBCHEM_CONFORMER_ID>  (1) 
0000AD8E00000017

>  <PUBCHEM_MMFF94_ENERGY>  (1) 
30.7626

>  <PUBCHEM_FEATURE_SELFOVERLAP>  (1) 
20.297

>  <PUBCHEM_SHAPE_FINGERPRINT>  (1) 
10616163 171 18341333292749338279
12006461 19 18272649082116035815
12553582 1 18411412942952413723
12892183 10 11239699882375123300
13296908 3 18412256242379541913
13533116 47 17843680204751361131
14123255 352 9007049154514432586
14251705 54 18338515373560228135
14251710 61 18411985779836121787
15239191 94 18272369771671025515
15375462 189 18343588468486069297
17834074 16 18412543189028341742
18186145 218 11314304988740503664
18915474 69 18409732842003763870
19107657 46 18341047436826675990
19422 9 18341900658118926828
20281475 54 18413107242772702944
20291156 8 18412262865372034711
20442098 301 18201711886063363647
20645477 70 18200015344117249861
20767249 462 8502655908743104490
20871999 31 17894909603525805589
21634736 98 18408324384804302046
21713013 43 18113899329676035503
221490 88 18410016520451639106
23379529 103 18129674002053110838
23402539 116 17385442082002455492
23402655 69 18042410119194786436
235170 7 16660358194940795871
238078 22 18272660017303426464
2871803 45 18333726918595007659
305870 269 10519992555797015701
449060 23 18410571812145919275
4921388 177 16732994123942290931
83771 10 18411141350632011241
94968 8 18410854399392702002

>  <PUBCHEM_SHAPE_MULTIPOLES>  (1) 
292.86
8.26
2.31
1.04
1.93
0.44
0.01
4.4
-0.81
0.65
-0.23
0.26
-0.04
-0.12

>  <PUBCHEM_SHAPE_SELFOVERLAP>  (1) 
586.146

>  <PUBCHEM_SHAPE_VOLUME>  (1) 
173.6

>  <PUBCHEM_COORDINATE_TYPE>  (1) 
2
5
10

$$$$
