44431
     RDKit          3D

 17 17  0  0  0  0  0  0  0  0999 V2000
   -1.4019   -0.2144    1.0211 O   0  0  0  0  0  0  0  0  0  0  0  0
   -2.5714    1.2522   -0.3472 N   0  0  0  0  0  0  0  0  0  0  0  0
   -5.8821   -0.4139    0.0139 N   0  0  0  0  0  0  0  0  0  0  0  0
    1.0980    0.3845   -0.1679 C   0  0  0  0  0  0  0  0  0  0  0  0
   -0.1915    1.0546   -0.6470 C   0  0  0  0  0  0  0  0  0  0  0  0
    2.3669    0.8574   -0.8909 C   0  0  0  0  0  0  0  0  0  0  0  0
   -3.8867    0.9889    0.1888 C   0  0  0  0  0  0  0  0  0  0  0  0
   -4.5699   -0.1458   -0.5603 C   0  0  0  0  0  0  0  0  0  0  0  0
   -1.4287    0.6204    0.1207 C   0  0  0  0  0  0  0  0  0  0  0  0
    3.6357    0.2242   -0.3781 C   0  0  0  0  0  0  0  0  0  0  0  0
    4.3314    0.8336    0.6553 C   0  0  0  0  0  0  0  0  0  0  0  0
    4.0860   -0.9572   -0.9478 C   0  0  0  0  0  0  0  0  0  0  0  0
   -6.5546   -1.4909   -0.7154 C   0  0  0  0  0  0  0  0  0  0  0  0
   -5.7645   -0.7587    1.4321 C   0  0  0  0  0  0  0  0  0  0  0  0
    5.5050    0.2480    1.1299 C   0  0  0  0  0  0  0  0  0  0  0  0
    5.2596   -1.5428   -0.4730 C   0  0  0  0  0  0  0  0  0  0  0  0
    5.9690   -0.9402    0.5659 C   0  0  0  0  0  0  0  0  0  0  0  0
  1  9  2  0
  2  7  1  0
  2  9  1  0
  3  8  1  0
  3 13  1  0
  3 14  1  0
  4  5  1  0
  4  6  1  0
  5  9  1  0
  6 10  1  0
  7  8  1  0
 10 11  2  0
 10 12  1  0
 11 15  1  0
 12 16  2  0
 15 17  2  0
 16 17  1  0
M  END
>  <PUBCHEM_COMPOUND_CID>  (1) 
44431

>  <PUBCHEM_CONFORMER_RMSD>  (1) 
0.8

>  <PUBCHEM_CONFORMER_DIVERSEORDER>  (1) 
1
150
57
165
128
186
43
190
158
108
129
102
196
11
13
184
39
90
21
156
120
153
145
183
114
71
45
55
18
192
166
64
146
182
148
138
81
99
47
54
79
188
40
130
29
154
169
163
195
161
103
70
101
3
65
189
135
167
181
106
58
185
193
177
112
134
155
22
151
74
121
152
111
88
59
82
168
110
7
137
175
16
98
36
124
76
30
180
179
35
131
160
15
69
94
80
84
93
25
27
56
171
10
144
51
133
157
104
91
149
113
67
42
19
24
118
5
32
140
34
173
139
122
136
49
87
115
172
48
77
162
68
9
23
12
86
78
125
89
105
44
52
107
38
61
14
50
127
72
132
63
26
33
41
109
96
17
83
6
92
66
142
62
141
95
159
46
97
100
37
20
147
73
2
191
53
126
187
176
60
119
170
164
194
85
4
75
28
143
116
174
117
8
123
178
31

>  <PUBCHEM_MMFF94_PARTIAL_CHARGES>  (1) 
22
1 -0.57
10 -0.14
11 -0.15
12 -0.15
13 0.27
14 0.27
15 -0.15
16 -0.15
17 -0.15
2 -0.73
28 0.37
29 0.15
3 -0.81
30 0.15
37 0.15
38 0.15
39 0.15
5 0.06
6 0.14
7 0.3
8 0.27
9 0.57

>  <PUBCHEM_EFFECTIVE_ROTOR_COUNT>  (1) 
8

>  <PUBCHEM_PHARMACOPHORE_FEATURES>  (1) 
4
1 1 acceptor
1 2 donor
1 3 cation
6 10 11 12 15 16 17 rings

>  <PUBCHEM_HEAVY_ATOM_COUNT>  (1) 
17

>  <PUBCHEM_ATOM_DEF_STEREO_COUNT>  (1) 
0

>  <PUBCHEM_ATOM_UDEF_STEREO_COUNT>  (1) 
0

>  <PUBCHEM_BOND_DEF_STEREO_COUNT>  (1) 
0

>  <PUBCHEM_BOND_UDEF_STEREO_COUNT>  (1) 
0

>  <PUBCHEM_ISOTOPIC_ATOM_COUNT>  (1) 
0

>  <PUBCHEM_COMPONENT_COUNT>  (1) 
1

>  <PUBCHEM_CACTVS_TAUTO_COUNT>  (1) 
2

>  <PUBCHEM_CONFORMER_ID>  (1) 
0000AD8F00000001

>  <PUBCHEM_MMFF94_ENERGY>  (1) 
31.0902

>  <PUBCHEM_FEATURE_SELFOVERLAP>  (1) 
20.297

>  <PUBCHEM_SHAPE_FINGERPRINT>  (1) 
10354089 29 16486971800453042968
10378564 45 12107782995922950150
106641 1 18341603842341701712
11724838 91 17274812602054786556
117890 112 12103850046771980193
12555020 224 17240485814512189091
12596602 18 17132119026325831051
12616971 3 16343694439599710012
12670543 26 14201392781384849661
13533116 47 17775290430842319558
13668630 136 17385724690233509979
13862211 1 18260829315227731463
13885169 127 18341611491757914717
1420 363 18334861619090131051
14251732 16 17989202685188292577
14251740 57 18117269264861239546
14251752 14 15574704803399939831
14366163 111 8574709101009214580
14528608 73 11746940905541865009
14848160 23 18412540998574038861
14933364 13 8070025584326532389
15048467 5 10015866479178166943
15183329 4 15213013839119341103
15188451 53 18408598154214005796
15716309 27 17846778520859064223
17834072 8 15357697487264689165
17844677 252 18273218581747514377
18222031 100 17313106349892719188
190975 80 17274817012965113743
20281389 69 11743844646934038655
20621476 66 8646496236899234591
21150785 3 14996293538669319663
21623969 137 17704356567219909191
220451 1 17418374709779796700
221357 26 11891328743127897422
22224240 67 14261351371541737917
22289505 5 11530487722968745870
23035841 295 17603871109516338905
23081809 10 17968105200266696085
23402539 116 18114179709905856901
23559900 14 17386574699032849653
25122255 55 18260842496229662283
29717793 49 17749109988994498716
300161 21 11239998932199857309
3004659 81 16443067197201516076
3014965 18 11963659011511895032
3663271 9 17275107223562504083
4340502 62 17275386499647691822
465052 167 18113905952995673062
49783359 22 18343302565767295965
5104073 3 17202771371594245914
542803 24 14117795812713328588
5718773 13 18042962082996839930
59682541 35 17703220827574607242
59682541 52 13623519156560690912
59755656 215 17530678797286739763
7062679 6 10231761097756409971

>  <PUBCHEM_SHAPE_MULTIPOLES>  (1) 
334.02
18.81
1.37
1.11
11.92
0.26
0.21
8.47
2.79
0
-0.2
0.06
0.1
0.33

>  <PUBCHEM_SHAPE_SELFOVERLAP>  (1) 
660.536

>  <PUBCHEM_SHAPE_VOLUME>  (1) 
199.8

>  <PUBCHEM_COORDINATE_TYPE>  (1) 
2
5
10

$$$$
