44446
     RDKit          3D

 16 16  0  0  1  0  0  0  0  0999 V2000
    0.3270    1.3424   -0.8681 O   0  0  0  0  0  0  0  0  0  0  0  0
   -2.9504    2.4391    0.2724 O   0  0  0  0  0  0  0  0  0  0  0  0
   -2.4949   -0.3867    0.4183 N   0  0  0  0  0  0  0  0  0  0  0  0
   -2.9079   -2.4013    1.4823 N   0  0  0  0  0  0  0  0  0  0  0  0
   -3.1659   -2.3563   -0.7819 N   0  0  0  0  0  0  0  0  0  0  0  0
   -2.0125    1.8015   -0.5952 C   0  0  0  0  0  0  0  0  0  0  0  0
   -0.6243    1.9101    0.0271 C   0  0  0  0  0  0  0  0  0  0  0  0
   -2.4458    0.3586   -0.8437 C   0  0  0  0  0  0  0  0  0  0  0  0
    1.4288    0.7565   -0.3045 C   0  0  0  0  0  0  0  0  0  0  0  0
    2.0491   -0.3084   -0.9491 C   0  0  0  0  0  0  0  0  0  0  0  0
    3.1711   -0.9054   -0.3743 C   0  0  0  0  0  0  0  0  0  0  0  0
    1.9172    1.2312    0.9081 C   0  0  0  0  0  0  0  0  0  0  0  0
    3.6662   -0.4340    0.8416 C   0  0  0  0  0  0  0  0  0  0  0  0
    3.0393    0.6343    1.4827 C   0  0  0  0  0  0  0  0  0  0  0  0
    3.8410   -2.0480   -1.0594 C   0  0  0  0  0  0  0  0  0  0  0  0
   -2.8380   -1.6336    0.3437 C   0  0  0  0  0  0  0  0  0  0  0  0
  1  7  1  0
  1  9  1  0
  2  6  1  0
  3  8  1  0
  3 16  2  3
  4 16  1  0
  5 16  1  0
  6  7  1  0
  6  8  1  0
  9 10  2  0
  9 12  1  0
 10 11  1  0
 11 13  2  0
 11 15  1  0
 12 14  2  0
 13 14  1  0
M  END
>  <PUBCHEM_COMPOUND_CID>  (1) 
44446

>  <PUBCHEM_CONFORMER_RMSD>  (1) 
0.6

>  <PUBCHEM_CONFORMER_DIVERSEORDER>  (1) 
3
464
67
370
346
225
458
103
259
371
481
252
172
25
363
54
257
264
60
466
316
341
99
429
459
29
70
416
204
383
161
106
474
121
140
450
479
470
19
424
39
159
119
462
337
142
279
359
403
266
117
27
332
210
153
400
417
334
314
198
267
202
430
319
111
318
120
292
13
269
477
206
422
31
2
126
215
149
480
453
394
72
423
251
139
343
369
397
199
380
476
118
110
391
43
426
250
482
353
373
188
425
305
401
377
109
74
399
389
475
94
281
354
315
436
185
208
15
156
233
473
101
478
107
224
147
407
317
390
158
431
285
88
388
268
324
392
76
344
447
105
163
151
150
207
280
201
404
283
483
461
465
241
402
112
248
378
387
73
469
297
253
463
302
351
468
382
89
330
284
168
75
452
467
366
271
438
352
35
6
485
244
287
381
196
205
263
171
239
350
68
44
386
223
365
53
238
170
258
133
375
294
173
355
200
17
146
347
124
277
96
440
299
191
384
336
455
85
179
144
47
306
231
293
16
65
80
325
95
32
79
138
228
193
444
52
434
322
36
243
61
7
356
449
454
364
235
262
226
321
395
420
49
412
414
435
50
10
362
376
419
358
368
304
1
98
21
141
460
237
301
260
310
64
446
300
113
323
428
256
114
23
51
432
4
290
298
265
91
187
472
255
273
405
169
78
218
213
20
212
42
57
209
433
12
134
437
295
307
312
131
445
84
122
59
439
326
254
457
165
145
413
184
22
46
155
63
270
97
164
129
338
411
160
92
162
82
128
282
406
398
418
127
62
125
441
81
327
157
286
249
275
379
484
274
48
192
232
175
331
328
357
456
69
313
181
308
116
342
135
247
443
415
152
289
34
180
276
471
24
393
361
90
427
448
197
5
55
396
303
8
221
360
154
132
137
385
183
58
167
45
216
87
26
195
56
309
339
100
18
320
272
182
28
190
333
186
442
229
40
246
278
372
83
177
340
451
115
367
166
174
349
288
102
219
236
178
374
30
408
86
11
189
148
222
123
220
227
329
421
409
71
245
194
41
230
311
93
348
38
261
234
203
217
143
37
14
130
108
240
77
296
136
176
214
410
291
33
345
104
335
66
9
211
242

>  <PUBCHEM_MMFF94_PARTIAL_CHARGES>  (1) 
25
1 -0.36
10 -0.15
11 -0.14
12 -0.15
13 -0.15
14 -0.15
15 0.14
16 0.55
2 -0.68
22 0.15
23 0.15
24 0.4
25 0.15
26 0.15
3 -0.7
30 0.4
31 0.4
32 0.4
33 0.4
4 -0.85
5 -0.85
6 0.28
7 0.28
8 0.25
9 0.08

>  <PUBCHEM_EFFECTIVE_ROTOR_COUNT>  (1) 
5

>  <PUBCHEM_PHARMACOPHORE_FEATURES>  (1) 
7
1 1 acceptor
1 2 acceptor
1 2 donor
1 4 donor
1 5 donor
4 3 4 5 16 cation
6 9 10 11 12 13 14 rings

>  <PUBCHEM_HEAVY_ATOM_COUNT>  (1) 
16

>  <PUBCHEM_ATOM_DEF_STEREO_COUNT>  (1) 
0

>  <PUBCHEM_ATOM_UDEF_STEREO_COUNT>  (1) 
1

>  <PUBCHEM_BOND_DEF_STEREO_COUNT>  (1) 
0

>  <PUBCHEM_BOND_UDEF_STEREO_COUNT>  (1) 
0

>  <PUBCHEM_ISOTOPIC_ATOM_COUNT>  (1) 
0

>  <PUBCHEM_COMPONENT_COUNT>  (1) 
1

>  <PUBCHEM_CACTVS_TAUTO_COUNT>  (1) 
2

>  <PUBCHEM_CONFORMER_ID>  (1) 
0000AD9E00000003

>  <PUBCHEM_MMFF94_ENERGY>  (1) 
49.529

>  <PUBCHEM_FEATURE_SELFOVERLAP>  (1) 
35.577

>  <PUBCHEM_SHAPE_FINGERPRINT>  (1) 
10618630 7 18263081174954733031
11471102 22 17632002088279219968
117890 22 18272655649084504718
12346177 29 18334563621411279565
12363563 72 18189334752605562075
12500047 106 18192988219053874452
12553582 1 18122071063592710551
13296908 3 18343017774849070444
14115302 16 18264500476883716708
14251705 54 18337956812709728098
15885798 251 18262243343337353899
19107657 162 18411694396295811356
20361792 2 16950281788892086348
20442098 301 18411698819922352126
20645477 70 17829883588364143735
23184049 29 18334572490249850081
23532345 11 18410848854595451041
23557571 272 18337663208834856409
23559900 14 18268427928871861518
568465 68 17846488223766294042
81228 2 18335136514467464785
8809292 202 18198342849407961836
9709674 26 18271232859425968109

>  <PUBCHEM_SHAPE_MULTIPOLES>  (1) 
302.59
7.42
2.74
1.27
1.06
0.71
-0.25
3.72
-0.52
-2.53
-0.07
0.41
0.3
1.48

>  <PUBCHEM_SHAPE_SELFOVERLAP>  (1) 
613.055

>  <PUBCHEM_SHAPE_VOLUME>  (1) 
175.8

>  <PUBCHEM_COORDINATE_TYPE>  (1) 
2
5
10

$$$$
