44442
     RDKit          3D

 15 15  0  0  1  0  0  0  0  0999 V2000
    0.6910    1.2355   -0.8183 O   0  0  0  0  0  0  0  0  0  0  0  0
   -2.3579    2.5725    0.6517 O   0  0  0  0  0  0  0  0  0  0  0  0
   -2.2696   -0.2828    0.4214 N   0  0  0  0  0  0  0  0  0  0  0  0
   -2.8925   -2.3515    1.2543 N   0  0  0  0  0  0  0  0  0  0  0  0
   -3.2478   -1.9819   -0.9665 N   0  0  0  0  0  0  0  0  0  0  0  0
   -1.5530    1.9415   -0.3447 C   0  0  0  0  0  0  0  0  0  0  0  0
   -0.1350    1.7959    0.1978 C   0  0  0  0  0  0  0  0  0  0  0  0
   -2.1824    0.6078   -0.7404 C   0  0  0  0  0  0  0  0  0  0  0  0
    1.7318    0.4497   -0.4011 C   0  0  0  0  0  0  0  0  0  0  0  0
    2.3344    0.6989    0.8273 C   0  0  0  0  0  0  0  0  0  0  0  0
    2.1772   -0.5903   -1.2100 C   0  0  0  0  0  0  0  0  0  0  0  0
    3.3952   -0.1014    1.2519 C   0  0  0  0  0  0  0  0  0  0  0  0
    3.2379   -1.3905   -0.7854 C   0  0  0  0  0  0  0  0  0  0  0  0
   -2.7760   -1.4573    0.2163 C   0  0  0  0  0  0  0  0  0  0  0  0
    3.8468   -1.1460    0.4455 C   0  0  0  0  0  0  0  0  0  0  0  0
  1  7  1  0
  1  9  1  0
  2  6  1  0
  3  8  1  0
  3 14  2  3
  4 14  1  0
  5 14  1  0
  6  7  1  0
  6  8  1  0
  9 10  2  0
  9 11  1  0
 10 12  1  0
 11 13  2  0
 12 15  2  0
 13 15  1  0
M  END
>  <PUBCHEM_COMPOUND_CID>  (1) 
44442

>  <PUBCHEM_CONFORMER_RMSD>  (1) 
0.6

>  <PUBCHEM_CONFORMER_DIVERSEORDER>  (1) 
1
38
223
10
180
172
141
36
154
225
218
85
211
77
126
129
33
203
111
166
5
175
186
174
102
118
60
45
139
205
31
97
198
215
76
221
222
43
145
17
62
84
173
96
11
217
119
103
152
196
8
231
220
226
212
78
95
156
230
32
27
185
157
28
228
134
169
178
114
115
142
131
209
57
110
124
147
44
54
224
86
79
193
210
52
65
214
168
56
104
163
9
37
55
29
184
71
194
192
106
98
227
181
25
189
187
195
39
123
69
201
170
188
229
161
148
144
204
153
80
183
138
93
12
105
109
202
200
26
216
6
101
64
46
20
125
34
219
108
128
199
167
182
15
70
133
122
59
164
3
74
140
53
207
117
137
162
159
50
14
88
82
112
49
160
40
150
146
2
41
197
13
213
75
190
73
151
92
58
155
19
87
72
30
113
66
81
135
191
83
99
165
67
136
120
176
61
24
90
206
51
171
116
16
149
121
177
48
68
42
23
18
143
179
127
130
47
107
21
7
63
100
132
91
94
89
35
22
158
208
4

>  <PUBCHEM_MMFF94_PARTIAL_CHARGES>  (1) 
25
1 -0.36
10 -0.15
11 -0.15
12 -0.15
13 -0.15
14 0.55
15 -0.15
2 -0.68
21 0.4
22 0.15
23 0.15
24 0.15
25 0.15
26 0.15
27 0.4
28 0.4
29 0.4
3 -0.7
30 0.4
4 -0.85
5 -0.85
6 0.28
7 0.28
8 0.25
9 0.08

>  <PUBCHEM_EFFECTIVE_ROTOR_COUNT>  (1) 
5

>  <PUBCHEM_PHARMACOPHORE_FEATURES>  (1) 
7
1 1 acceptor
1 2 acceptor
1 2 donor
1 4 donor
1 5 donor
4 3 4 5 14 cation
6 9 10 11 12 13 15 rings

>  <PUBCHEM_HEAVY_ATOM_COUNT>  (1) 
15

>  <PUBCHEM_ATOM_DEF_STEREO_COUNT>  (1) 
0

>  <PUBCHEM_ATOM_UDEF_STEREO_COUNT>  (1) 
1

>  <PUBCHEM_BOND_DEF_STEREO_COUNT>  (1) 
0

>  <PUBCHEM_BOND_UDEF_STEREO_COUNT>  (1) 
0

>  <PUBCHEM_ISOTOPIC_ATOM_COUNT>  (1) 
0

>  <PUBCHEM_COMPONENT_COUNT>  (1) 
1

>  <PUBCHEM_CACTVS_TAUTO_COUNT>  (1) 
2

>  <PUBCHEM_CONFORMER_ID>  (1) 
0000AD9A00000001

>  <PUBCHEM_MMFF94_ENERGY>  (1) 
46.9515

>  <PUBCHEM_FEATURE_SELFOVERLAP>  (1) 
35.577

>  <PUBCHEM_SHAPE_FINGERPRINT>  (1) 
10618630 7 18337112370789514143
11471102 22 17417800704796865372
12346177 29 18335973169426971821
12363563 72 18336265768427325871
12500047 106 18121775024366165740
12553582 1 18196382626350060751
14115302 16 18186800258033813981
14251705 54 18263930006257891507
15885798 251 18336554914668762419
17834072 14 18269255993664791349
18186145 218 11819280997328412804
19107657 162 18341609300459177086
20361792 2 17095809832403767044
20442098 301 18413390942647922430
20645477 70 17975688708626760415
20671657 53 17313655061733856197
21452121 199 18263919024089786541
22959321 94 18334013861086094377
23184049 29 18408603686137307184
232386 152 18333734602349418756
23532345 11 18411694353262047920
568465 68 17632004270111927090
5902787 121 18335979792504146248
81228 2 18409450276195342497
8809292 202 18055074268237402124
9709674 26 18129937871520238948
9882013 296 17916578877338224938

>  <PUBCHEM_SHAPE_MULTIPOLES>  (1) 
282.01
6.94
2.54
1.19
1.5
0.04
0.04
-3.76
0.88
-2.85
0.3
0.32
-0.28
0.46

>  <PUBCHEM_SHAPE_SELFOVERLAP>  (1) 
570.934

>  <PUBCHEM_SHAPE_VOLUME>  (1) 
163

>  <PUBCHEM_COORDINATE_TYPE>  (1) 
2
5
10

$$$$
