44452
     RDKit          3D

 17 17  0  0  1  0  0  0  0  0999 V2000
   -0.2561    1.5268   -0.8299 O   0  0  0  0  0  0  0  0  0  0  0  0
   -3.4761    2.1568    0.7446 O   0  0  0  0  0  0  0  0  0  0  0  0
    4.5536   -0.7103    0.6675 O   0  0  0  0  0  0  0  0  0  0  0  0
   -2.7928   -0.6097    0.4380 N   0  0  0  0  0  0  0  0  0  0  0  0
   -2.9407   -2.7800    1.2310 N   0  0  0  0  0  0  0  0  0  0  0  0
   -3.4284   -2.4486   -0.9706 N   0  0  0  0  0  0  0  0  0  0  0  0
   -2.5843    1.7313   -0.2863 C   0  0  0  0  0  0  0  0  0  0  0  0
   -1.1529    1.8784    0.2192 C   0  0  0  0  0  0  0  0  0  0  0  0
   -2.9286    0.3029   -0.7019 C   0  0  0  0  0  0  0  0  0  0  0  0
    0.9387    0.9711   -0.4576 C   0  0  0  0  0  0  0  0  0  0  0  0
    1.5705    0.0656   -1.3033 C   0  0  0  0  0  0  0  0  0  0  0  0
    1.5095    1.3167    0.7627 C   0  0  0  0  0  0  0  0  0  0  0  0
    3.3654   -0.1589    0.2980 C   0  0  0  0  0  0  0  0  0  0  0  0
    2.7874   -0.5011   -0.9243 C   0  0  0  0  0  0  0  0  0  0  0  0
    2.7265    0.7501    1.1416 C   0  0  0  0  0  0  0  0  0  0  0  0
   -3.0451   -1.8604    0.2142 C   0  0  0  0  0  0  0  0  0  0  0  0
    5.1533   -1.6307   -0.2430 C   0  0  0  0  0  0  0  0  0  0  0  0
  1  8  1  0
  1 10  1  0
  2  7  1  0
  3 13  1  0
  3 17  1  0
  4  9  1  0
  4 16  2  3
  5 16  1  0
  6 16  1  0
  7  8  1  0
  7  9  1  0
 10 11  2  0
 10 12  1  0
 11 14  1  0
 12 15  2  0
 13 14  2  0
 13 15  1  0
M  END
>  <PUBCHEM_COMPOUND_CID>  (1) 
44452

>  <PUBCHEM_CONFORMER_RMSD>  (1) 
0.8

>  <PUBCHEM_CONFORMER_DIVERSEORDER>  (1) 
2
84
98
23
119
42
31
16
107
17
64
22
81
10
55
103
113
54
30
57
102
115
24
105
72
120
38
43
44
47
18
118
92
111
32
117
50
8
93
45
89
104
109
49
34
36
35
60
94
26
52
97
114
108
116
78
69
59
90
6
53
39
79
110
14
112
100
91
85
41
65
62
63
99
68
4
88
20
101
76
7
71
15
58
51
82
19
12
28
95
25
46
13
70
86
73
77
61
11
21
66
40
29
3
56
87
48
27
80
74
33
75
9
83
37
67
96
1
106
5

>  <PUBCHEM_MMFF94_PARTIAL_CHARGES>  (1) 
26
1 -0.36
10 0.08
11 -0.15
12 -0.15
13 0.08
14 -0.15
15 -0.15
16 0.55
17 0.28
2 -0.68
23 0.15
24 0.15
25 0.4
26 0.15
27 0.15
28 0.4
29 0.4
3 -0.36
30 0.4
31 0.4
4 -0.7
5 -0.85
6 -0.85
7 0.28
8 0.28
9 0.25

>  <PUBCHEM_EFFECTIVE_ROTOR_COUNT>  (1) 
6

>  <PUBCHEM_PHARMACOPHORE_FEATURES>  (1) 
8
1 1 acceptor
1 2 acceptor
1 2 donor
1 3 acceptor
1 5 donor
1 6 donor
4 4 5 6 16 cation
6 10 11 12 13 14 15 rings

>  <PUBCHEM_HEAVY_ATOM_COUNT>  (1) 
17

>  <PUBCHEM_ATOM_DEF_STEREO_COUNT>  (1) 
0

>  <PUBCHEM_ATOM_UDEF_STEREO_COUNT>  (1) 
1

>  <PUBCHEM_BOND_DEF_STEREO_COUNT>  (1) 
0

>  <PUBCHEM_BOND_UDEF_STEREO_COUNT>  (1) 
0

>  <PUBCHEM_ISOTOPIC_ATOM_COUNT>  (1) 
0

>  <PUBCHEM_COMPONENT_COUNT>  (1) 
1

>  <PUBCHEM_CACTVS_TAUTO_COUNT>  (1) 
2

>  <PUBCHEM_CONFORMER_ID>  (1) 
0000ADA400000002

>  <PUBCHEM_MMFF94_ENERGY>  (1) 
61.3347

>  <PUBCHEM_FEATURE_SELFOVERLAP>  (1) 
40.653

>  <PUBCHEM_SHAPE_FINGERPRINT>  (1) 
10366900 7 17988350465051118100
11471102 22 17346595262082274244
12346177 29 18335974312078163597
12363563 72 18192714664366077135
12500047 106 18265044726459918677
12633257 1 17631748148132044763
12757275 245 18335140864688658132
18186145 218 12901551225997520924
18915474 69 18040721389593256070
201361 129 11887681654278654516
20281475 54 18408888434185046204
20681677 274 18271516568139328064
21713013 43 15213592263934882299
221490 88 18411701023863138736
2306618 200 13973671798812274937
232386 152 18334017202465233669
23503958 8 18408041822831698042
23559900 14 18411127052728594008
5104073 3 18272644637241701184
568465 68 17561082505665609608
602551 16 18336262367108321466
8809292 202 18341050722481990520

>  <PUBCHEM_SHAPE_MULTIPOLES>  (1) 
317.3
8.96
2.68
1.15
5.16
1.18
0.02
4.99
-0.81
-3.38
-0.42
0.1
0.14
0.44

>  <PUBCHEM_SHAPE_SELFOVERLAP>  (1) 
643.455

>  <PUBCHEM_SHAPE_VOLUME>  (1) 
184.2

>  <PUBCHEM_COORDINATE_TYPE>  (1) 
2
5
10

$$$$
