44460
     RDKit          3D

 23 28  0  0  1  0  0  0  0  0999 V2000
   -3.5110   -1.5972    1.0675 O   0  0  0  0  0  0  0  0  0  0  0  0
   -4.2568    0.3986   -1.9187 O   0  0  0  0  0  0  0  0  0  0  0  0
   -3.6515    1.2934    1.5410 O   0  0  0  0  0  0  0  0  0  0  0  0
   -3.9443   -1.2657   -0.2542 C   0  0  0  0  0  0  0  0  0  0  0  0
   -2.5155   -1.6445    0.0245 C   0  0  0  0  0  0  0  0  0  0  0  0
   -4.2889    0.1654   -0.5090 C   0  0  0  0  0  0  0  0  0  0  0  0
   -1.4546   -0.5578    0.0333 C   0  0  0  0  0  0  0  0  0  0  0  0
   -3.3339    1.1674    0.1553 C   0  0  0  0  0  0  0  0  0  0  0  0
   -1.8653    0.7986    0.0569 C   0  0  0  0  0  0  0  0  0  0  0  0
   -0.0552   -0.8458    0.0181 C   0  0  0  0  0  0  0  0  0  0  0  0
    0.8882    0.2173    0.0030 C   0  0  0  0  0  0  0  0  0  0  0  0
   -0.9193    1.8323    0.0523 C   0  0  0  0  0  0  0  0  0  0  0  0
    0.4484    1.5586    0.0162 C   0  0  0  0  0  0  0  0  0  0  0  0
    2.2859   -0.0473   -0.0215 C   0  0  0  0  0  0  0  0  0  0  0  0
    0.4582   -2.1594    0.0225 C   0  0  0  0  0  0  0  0  0  0  0  0
    2.7558   -1.3784   -0.0263 C   0  0  0  0  0  0  0  0  0  0  0  0
    3.2185    1.0184   -0.0395 C   0  0  0  0  0  0  0  0  0  0  0  0
    1.3837    2.6021    0.0004 C   0  0  0  0  0  0  0  0  0  0  0  0
    1.8305   -2.4225   -0.0019 C   0  0  0  0  0  0  0  0  0  0  0  0
    2.7514    2.3361   -0.0292 C   0  0  0  0  0  0  0  0  0  0  0  0
    4.1356   -1.6303   -0.0524 C   0  0  0  0  0  0  0  0  0  0  0  0
    4.5926    0.7385   -0.0657 C   0  0  0  0  0  0  0  0  0  0  0  0
    5.0473   -0.5777   -0.0724 C   0  0  0  0  0  0  0  0  0  0  0  0
  1  4  1  0
  1  5  1  0
  2  6  1  0
  3  8  1  0
  4  5  1  0
  4  6  1  0
  5  7  1  0
  6  8  1  0
  7  9  2  0
  7 10  1  0
  8  9  1  0
  9 12  1  0
 10 11  2  0
 10 15  1  0
 11 13  1  0
 11 14  1  0
 12 13  2  0
 13 18  1  0
 14 16  2  0
 14 17  1  0
 15 19  2  0
 16 19  1  0
 16 21  1  0
 17 20  1  0
 17 22  2  0
 18 20  2  0
 21 23  2  0
 22 23  1  0
M  END
>  <PUBCHEM_COMPOUND_CID>  (1) 
44460

>  <PUBCHEM_CONFORMER_RMSD>  (1) 
0.6

>  <PUBCHEM_CONFORMER_DIVERSEORDER>  (1) 
1
2

>  <PUBCHEM_MMFF94_PARTIAL_CHARGES>  (1) 
29
1 -0.3
12 -0.15
15 -0.15
18 -0.15
19 -0.15
2 -0.68
20 -0.15
21 -0.15
22 -0.15
23 -0.15
24 0.1
25 0.1
28 0.15
29 0.4
3 -0.68
30 0.15
31 0.4
32 0.15
33 0.15
34 0.15
35 0.15
36 0.15
37 0.15
4 -0.05
5 0.08
6 0.38
7 -0.03
8 0.42
9 -0.14

>  <PUBCHEM_EFFECTIVE_ROTOR_COUNT>  (1) 
0.6

>  <PUBCHEM_PHARMACOPHORE_FEATURES>  (1) 
10
1 1 acceptor
1 2 acceptor
1 2 donor
1 3 acceptor
1 3 donor
6 10 11 14 15 16 19 rings
6 11 13 14 17 18 20 rings
6 14 16 17 21 22 23 rings
6 7 9 10 11 12 13 rings
7 1 4 5 6 7 8 9 rings

>  <PUBCHEM_HEAVY_ATOM_COUNT>  (1) 
23

>  <PUBCHEM_ATOM_DEF_STEREO_COUNT>  (1) 
4

>  <PUBCHEM_ATOM_UDEF_STEREO_COUNT>  (1) 
0

>  <PUBCHEM_BOND_DEF_STEREO_COUNT>  (1) 
0

>  <PUBCHEM_BOND_UDEF_STEREO_COUNT>  (1) 
0

>  <PUBCHEM_ISOTOPIC_ATOM_COUNT>  (1) 
0

>  <PUBCHEM_COMPONENT_COUNT>  (1) 
1

>  <PUBCHEM_CACTVS_TAUTO_COUNT>  (1) 
1

>  <PUBCHEM_CONFORMER_ID>  (1) 
0000ADAC00000001

>  <PUBCHEM_MMFF94_ENERGY>  (1) 
75.4084

>  <PUBCHEM_FEATURE_SELFOVERLAP>  (1) 
50.886

>  <PUBCHEM_SHAPE_FINGERPRINT>  (1) 
10062212 137 18341891900490569811
10616163 171 18413111658146860615
10967382 1 18338800138607968368
11471102 20 18410288112534398452
11578080 2 16879900847096901454
12011746 2 18410012135353262174
12236239 1 17846497019991373229
12403259 226 18408880771636563292
12553582 1 18265336105525225146
12633257 1 18263925445002331067
13140716 1 18411427223439176265
13224815 77 18408888442516387907
13583140 156 16877942724188102777
138480 1 18410856598769976464
13862211 1 18410569544867754858
13944108 23 16603473565646943861
14790565 3 18265625449594906124
15196674 1 18410857668194980640
15442244 35 18412548678049456096
15536298 74 18343021112128349584
15788980 27 17022621966060605654
15848702 151 18131357371196864518
1601671 61 18410858742052868668
16945 1 18337391517714498321
17349148 13 18202280307752229477
17492 89 18339924929992242951
1813 80 17458068166143057420
19591789 44 18338518654825305138
200 152 18131626794642794997
20028762 73 18058166305004114791
20645477 70 18410288137903366599
21033648 29 17749378257379765141
21267235 1 18411709793595740647
21279426 13 18336543794344454998
21421861 104 17825387375853500738
221357 26 18337659880857726781
221490 88 18335708298688338802
22393880 68 18187911903070717103
2334 1 18338801233349914192
23402539 116 18342734105397467590
23557571 272 13758082883152933955
23559900 14 18410568518038294352
2748010 2 18264771132673946725
2871803 45 18408881807071438550
335352 9 18338518530049584445
34934 24 18337106744382362883
350125 39 18410581716651785785
3680242 22 18190177889024192426
4214541 1 18410856551308408793
4280585 95 17551239463264258198
5104073 3 18411419510015237490
602551 16 15338822218405920660
9709674 26 18341053995241938462
9981440 41 17475222982883495128

>  <PUBCHEM_SHAPE_MULTIPOLES>  (1) 
455.72
9.16
2.66
0.85
0.56
0.18
0.07
-0.9
0.7
-1.03
-0.16
0.96
0.09
-0.01

>  <PUBCHEM_SHAPE_SELFOVERLAP>  (1) 
1064.464

>  <PUBCHEM_SHAPE_VOLUME>  (1) 
231.8

>  <PUBCHEM_COORDINATE_TYPE>  (1) 
2
5
10

$$$$
