44470
     RDKit          3D

 23 25  0  0  0  0  0  0  0  0999 V2000
    4.9641   -3.4125    0.0706 F   0  0  0  0  0  0  0  0  0  0  0  0
   -4.2954    0.3887   -0.0180 O   0  0  0  0  0  0  0  0  0  0  0  0
   -5.8009   -1.4321   -0.3272 O   0  0  0  0  0  0  0  0  0  0  0  0
    2.9514    2.4273   -1.0380 O   0  0  0  0  0  0  0  0  0  0  0  0
   -0.8566    1.2812   -0.1429 N   0  0  0  0  0  0  0  0  0  0  0  0
   -3.1956   -0.4610    0.3507 C   0  0  0  0  0  0  0  0  0  0  0  0
   -2.4309    0.2647    1.4754 C   0  0  0  0  0  0  0  0  0  0  0  0
   -2.2241   -0.6608   -0.8314 C   0  0  0  0  0  0  0  0  0  0  0  0
   -1.7611    1.5521    0.9809 C   0  0  0  0  0  0  0  0  0  0  0  0
   -1.5718    0.6573   -1.2628 C   0  0  0  0  0  0  0  0  0  0  0  0
   -3.7481   -1.7987    0.8794 C   0  0  0  0  0  0  0  0  0  0  0  0
   -0.1958    2.5115   -0.5776 C   0  0  0  0  0  0  0  0  0  0  0  0
   -4.7812   -2.3936   -0.0688 C   0  0  0  0  0  0  0  0  0  0  0  0
   -5.2452   -0.2403   -0.8752 C   0  0  0  0  0  0  0  0  0  0  0  0
    0.6718    3.0834    0.5400 C   0  0  0  0  0  0  0  0  0  0  0  0
    1.7412    2.0974    1.0209 C   0  0  0  0  0  0  0  0  0  0  0  0
    2.6825    1.6807   -0.0998 C   0  0  0  0  0  0  0  0  0  0  0  0
    3.2924    0.3191   -0.0541 C   0  0  0  0  0  0  0  0  0  0  0  0
    3.5264   -0.2576    1.1730 C   0  0  0  0  0  0  0  0  0  0  0  0
    3.5970   -0.3066   -1.2414 C   0  0  0  0  0  0  0  0  0  0  0  0
    4.0963   -1.5300    1.2156 C   0  0  0  0  0  0  0  0  0  0  0  0
    4.1668   -1.5791   -1.1989 C   0  0  0  0  0  0  0  0  0  0  0  0
    4.4165   -2.1909    0.0296 C   0  0  0  0  0  0  0  0  0  0  0  0
  1 23  1  0
  2  6  1  0
  2 14  1  0
  3 13  1  0
  3 14  1  0
  4 17  2  0
  5  9  1  0
  5 10  1  0
  5 12  1  0
  6  7  1  0
  6  8  1  0
  6 11  1  0
  7  9  1  0
  8 10  1  0
 11 13  1  0
 12 15  1  0
 15 16  1  0
 16 17  1  0
 17 18  1  0
 18 19  2  0
 18 20  1  0
 19 21  1  0
 20 22  2  0
 21 23  2  0
 22 23  1  0
M  END
>  <PUBCHEM_COMPOUND_CID>  (1) 
44470

>  <PUBCHEM_CONFORMER_RMSD>  (1) 
0.8

>  <PUBCHEM_CONFORMER_DIVERSEORDER>  (1) 
2
1
112
103
234
233
86
201
78
13
177
168
169
203
47
179
223
94
21
164
232
113
133
107
27
137
16
175
95
38
4
42
25
236
127
228
71
63
205
99
14
225
134
62
165
211
220
37
101
5
76
209
230
227
28
212
206
49
15
121
105
97
147
153
52
158
41
89
140
34
202
183
35
142
96
73
143
157
74
174
100
154
188
8
155
55
9
215
219
57
48
39
75
22
65
45
130
198
231
199
53
171
126
81
69
70
12
224
197
193
135
214
87
217
40
167
68
222
51
122
194
151
7
90
129
128
124
191
161
30
43
23
61
54
79
3
131
84
67
102
80
92
85
172
72
226
144
33
200
20
111
146
159
189
229
26
77
152
162
235
184
148
119
221
93
149
98
187
110
106
82
163
195
83
132
166
19
114
24
59
192
66
108
145
60
173
44
46
210
136
109
180
117
116
207
170
31
138
181
160
11
6
58
185
56
218
50
104
125
115
150
32
123
17
213
36
10
139
186
190
196
216
18
88
176
204
156
91
182
29
208
141
178
118
64
120

>  <PUBCHEM_MMFF94_PARTIAL_CHARGES>  (1) 
23
1 -0.19
10 0.27
12 0.27
13 0.28
14 0.56
16 0.06
17 0.42
18 0.09
19 -0.15
2 -0.56
20 -0.15
21 -0.15
22 -0.15
23 0.19
3 -0.56
4 -0.57
44 0.15
45 0.15
46 0.15
47 0.15
5 -0.81
6 0.28
9 0.27

>  <PUBCHEM_EFFECTIVE_ROTOR_COUNT>  (1) 
7

>  <PUBCHEM_PHARMACOPHORE_FEATURES>  (1) 
7
1 2 acceptor
1 3 acceptor
1 4 acceptor
1 5 cation
6 18 19 20 21 22 23 rings
6 2 3 6 11 13 14 rings
6 5 6 7 8 9 10 rings

>  <PUBCHEM_HEAVY_ATOM_COUNT>  (1) 
23

>  <PUBCHEM_ATOM_DEF_STEREO_COUNT>  (1) 
0

>  <PUBCHEM_ATOM_UDEF_STEREO_COUNT>  (1) 
0

>  <PUBCHEM_BOND_DEF_STEREO_COUNT>  (1) 
0

>  <PUBCHEM_BOND_UDEF_STEREO_COUNT>  (1) 
0

>  <PUBCHEM_ISOTOPIC_ATOM_COUNT>  (1) 
0

>  <PUBCHEM_COMPONENT_COUNT>  (1) 
1

>  <PUBCHEM_CACTVS_TAUTO_COUNT>  (1) 
2

>  <PUBCHEM_CONFORMER_ID>  (1) 
0000ADB600000002

>  <PUBCHEM_MMFF94_ENERGY>  (1) 
50.7176

>  <PUBCHEM_FEATURE_SELFOVERLAP>  (1) 
35.559

>  <PUBCHEM_SHAPE_FINGERPRINT>  (1) 
10498660 4 11458717092500907054
10928967 22 18338531754502522970
11720765 8 12685355320523269994
12107183 9 18270692943994455713
12363563 72 18410859824231828392
12596599 1 18200890477868272002
12633257 1 18270697367335477299
12925494 130 10014214995856268515
13533116 47 18269556194999592691
13583140 156 17698443574739072073
13631057 29 18338521816733481942
13965767 371 11743551047538945338
14251740 57 18201723993655584854
14251751 18 17968363589983665858
14341114 328 14620215478019975026
14429115 67 18343582957969240305
14848160 33 18410852187616309532
14848178 5 18341889688592975067
14848178 96 8502378823370832278
14863182 85 18265892652548077900
14866123 147 18124317104134976273
15052358 14 18189041015945523765
15352361 1 18411136909620106794
15475509 35 17627229297593257963
15475509 8 17168137915567094725
15664445 248 17168987953323722036
17349148 13 17131840927710223821
1798214 55 9223221953976494440
1813 80 18333449858818667573
18222031 100 18202849850459358054
1979834 28 17275111630061832631
20291156 8 18338520738227348088
20403669 9 18412826854507218110
20645477 70 18335982072757234044
21279426 13 18261662702413900413
21315764 371 15769771398819386055
21864079 5 8790885172756821008
2215653 11 18335412509239596159
22224240 67 17841984783407103264
23559900 14 18410285952361306753
25222932 49 17983860265579072734
2838139 119 8862651392277032626
3004659 81 18113897165386869354
3421961 26 18341608261066899360
345986 75 17703800240274753177
3472631 163 10953460725923261563
34797466 226 16516248578069882645
38570 142 13972817607632713602
38695281 34 17322681128902430588
4017518 198 15376801141764415138
44062 13 18262797354978795413
4463277 69 18411982494028066725
484985 159 17978227158388205812
5104073 3 18060424620730691137
5207 123 18410852153388693205
56633871 153 18053958242138827763
59682541 52 18265881618813414367
7970288 3 18339361843016508606
88748 71 18409453574265800867
8988823 20 17346022480938267065
960060 61 17894635880542967196

>  <PUBCHEM_SHAPE_MULTIPOLES>  (1) 
443.47
12.27
3.38
1.31
5.56
0.17
-0.05
-11.02
0.87
-2.79
-0.19
-0.36
0.04
-0.11

>  <PUBCHEM_SHAPE_SELFOVERLAP>  (1) 
930.21

>  <PUBCHEM_SHAPE_VOLUME>  (1) 
249.4

>  <PUBCHEM_COORDINATE_TYPE>  (1) 
2
5
10

$$$$
