44478
     RDKit          3D

 14 14  0  0  0  0  0  0  0  0999 V2000
   -3.2749    2.9492    0.0300 Cl  0  0  0  0  0  0  0  0  0  0  0  0
   -3.0033   -2.9180    0.4858 Cl  0  0  0  0  0  0  0  0  0  0  0  0
    0.8782   -0.3217   -0.7926 P   0  0  0  0  0  0  0  0  0  0  0  0
    1.8181   -1.3151    0.0889 O   0  0  0  0  0  0  0  0  0  0  0  0
    1.8512    0.9706   -0.9654 O   0  0  0  0  0  0  0  0  0  0  0  0
    0.5298   -0.9315   -2.1254 O   0  0  0  0  0  0  0  0  0  0  0  0
   -0.3978    0.1348    0.1568 N   0  0  0  0  0  0  0  0  0  0  0  0
    3.3199    0.4093    0.8694 C   0  0  0  0  0  0  0  0  0  0  0  0
   -1.3035    1.1366   -0.4012 C   0  0  0  0  0  0  0  0  0  0  0  0
   -1.1700   -0.9401    0.7767 C   0  0  0  0  0  0  0  0  0  0  0  0
    2.4593   -0.7907    1.2461 C   0  0  0  0  0  0  0  0  0  0  0  0
    2.4927    1.4950    0.1917 C   0  0  0  0  0  0  0  0  0  0  0  0
   -2.1550    1.7414    0.7043 C   0  0  0  0  0  0  0  0  0  0  0  0
   -2.0448   -1.6198   -0.2652 C   0  0  0  0  0  0  0  0  0  0  0  0
  1 13  1  0
  2 14  1  0
  3  4  1  0
  3  5  1  0
  3  6  2  0
  3  7  1  0
  4 11  1  0
  5 12  1  0
  7  9  1  0
  7 10  1  0
  8 11  1  0
  8 12  1  0
  9 13  1  0
 10 14  1  0
M  END
>  <PUBCHEM_COMPOUND_CID>  (1) 
44478

>  <PUBCHEM_CONFORMER_RMSD>  (1) 
0.6

>  <PUBCHEM_CONFORMER_DIVERSEORDER>  (1) 
1
48
31
46
17
11
47
55
29
10
15
44
18
22
6
45
7
24
25
38
43
42
2
4
50
26
14
23
30
35
52
16
5
36
19
3
20
28
13
8
54
41
21
27
9
56
32
33
51
12
58
34
37
57
40
39
49
53

>  <PUBCHEM_MMFF94_PARTIAL_CHARGES>  (1) 
13
1 -0.29
10 0.27
11 0.28
12 0.28
13 0.29
14 0.29
2 -0.29
3 1.51
4 -0.55
5 -0.55
6 -0.7
7 -0.81
9 0.27

>  <PUBCHEM_EFFECTIVE_ROTOR_COUNT>  (1) 
6

>  <PUBCHEM_PHARMACOPHORE_FEATURES>  (1) 
2
1 6 acceptor
6 3 4 5 8 11 12 rings

>  <PUBCHEM_HEAVY_ATOM_COUNT>  (1) 
14

>  <PUBCHEM_ATOM_DEF_STEREO_COUNT>  (1) 
0

>  <PUBCHEM_ATOM_UDEF_STEREO_COUNT>  (1) 
0

>  <PUBCHEM_BOND_DEF_STEREO_COUNT>  (1) 
0

>  <PUBCHEM_BOND_UDEF_STEREO_COUNT>  (1) 
0

>  <PUBCHEM_ISOTOPIC_ATOM_COUNT>  (1) 
0

>  <PUBCHEM_COMPONENT_COUNT>  (1) 
1

>  <PUBCHEM_CACTVS_TAUTO_COUNT>  (1) 
1

>  <PUBCHEM_CONFORMER_ID>  (1) 
0000ADBE00000001

>  <PUBCHEM_MMFF94_ENERGY>  (1) 
10.4378

>  <PUBCHEM_FEATURE_SELFOVERLAP>  (1) 
10.148

>  <PUBCHEM_SHAPE_FINGERPRINT>  (1) 
1 1 17760367687141384589
12507560 14 17761762975512278554
12532896 13 18268429028119706085
13380535 76 18129092338520394197
13764800 53 17704080589906631033
14178342 30 18262502737475875970
14787075 74 17252302506367374466
15775835 57 18115315444786666688
15852999 172 17987231127822187457
15906896 17 18342444929454594591
16945 1 18197219354645855614
18186145 218 17912653401884478993
18380122 1 17917163808644357359
20344682 10 17977933915417284800
20388701 513 18341342179500676379
20511035 2 18130218251491343982
20711985 344 18191897649843329863
21501502 16 18333448755212071208
21524375 3 17984690130876272393
21947302 44 17772191911989815197
23402539 116 18341032078730241221
23419403 2 17540215020479464341
23557571 272 18272937136966826385
23598294 1 18410861000741521027
2748010 2 17917162627543935076
305870 269 17833828266369263409
3060560 45 17761772867312656021
3250762 1 18200329722611776175
6333272 397 18267584602994850281
68419 9 17606149331167073423
7364860 26 17185593517055940505
81228 2 18267044871808243251
88987 49 18337124383691572629

>  <PUBCHEM_SHAPE_MULTIPOLES>  (1) 
273.11
5.32
3.04
1.25
0.54
0.24
-0.44
1
1.5
-4.45
0.38
0.53
-0.28
0

>  <PUBCHEM_SHAPE_SELFOVERLAP>  (1) 
495.053

>  <PUBCHEM_SHAPE_VOLUME>  (1) 
176.6

>  <PUBCHEM_COORDINATE_TYPE>  (1) 
2
5
10

$$$$
