44488
     RDKit          3D

 19 20  0  0  0  0  0  0  0  0999 V2000
    5.9064    2.0068   -0.0960 F   0  0  0  0  0  0  0  0  0  0  0  0
   -2.5928    0.1966   -0.0107 O   0  0  0  0  0  0  0  0  0  0  0  0
    1.6496   -2.6443    0.1580 O   0  0  0  0  0  0  0  0  0  0  0  0
   -5.7098    1.7718   -0.1369 O   0  0  0  0  0  0  0  0  0  0  0  0
   -3.6628    2.5762   -0.1152 O   0  0  0  0  0  0  0  0  0  0  0  0
   -4.4576    1.5910   -0.1016 N   0  0  0  0  0  0  0  0  0  0  0  0
    2.6466   -0.5231    0.0548 C   0  0  0  0  0  0  0  0  0  0  0  0
   -2.3542   -1.1091    0.0390 C   0  0  0  0  0  0  0  0  0  0  0  0
    1.4985   -1.4143    0.1078 C   0  0  0  0  0  0  0  0  0  0  0  0
   -0.9662   -1.6017    0.0882 C   0  0  0  0  0  0  0  0  0  0  0  0
   -3.4500   -1.8805    0.0388 C   0  0  0  0  0  0  0  0  0  0  0  0
    0.1204   -0.8158    0.0690 C   0  0  0  0  0  0  0  0  0  0  0  0
    2.5543    0.7655    0.5805 C   0  0  0  0  0  0  0  0  0  0  0  0
    3.8403   -0.9573   -0.5218 C   0  0  0  0  0  0  0  0  0  0  0  0
   -3.9478    0.2924   -0.0460 C   0  0  0  0  0  0  0  0  0  0  0  0
   -4.5213   -0.9574   -0.0177 C   0  0  0  0  0  0  0  0  0  0  0  0
    3.6555    1.6201    0.5295 C   0  0  0  0  0  0  0  0  0  0  0  0
    4.9416   -0.1028   -0.5727 C   0  0  0  0  0  0  0  0  0  0  0  0
    4.8493    1.1860   -0.0469 C   0  0  0  0  0  0  0  0  0  0  0  0
  1 19  1  0
  2  8  1  0
  2 15  1  0
  3  9  2  0
  4  6  1  0
  5  6  2  0
  6 15  1  0
  7  9  1  0
  7 13  2  0
  7 14  1  0
  8 10  1  0
  8 11  2  0
  9 12  1  0
 10 12  2  0
 11 16  1  0
 13 17  1  0
 14 18  2  0
 15 16  2  0
 17 19  2  0
 18 19  1  0
M  CHG  2   4  -1   6   1
M  END
>  <PUBCHEM_COMPOUND_CID>  (1) 
44488

>  <PUBCHEM_CONFORMER_RMSD>  (1) 
0.6

>  <PUBCHEM_CONFORMER_DIVERSEORDER>  (1) 
1
14
7
15
19
17
3
18
20
5
9
10
11
8
2
4
6
12
16
13
21

>  <PUBCHEM_MMFF94_PARTIAL_CHARGES>  (1) 
27
1 -0.19
10 -0.11
11 -0.15
12 -0.14
13 -0.15
14 -0.15
15 0.22
16 -0.15
17 -0.15
18 -0.15
19 0.19
2 -0.28
20 0.15
21 0.15
22 0.15
23 0.15
24 0.15
25 0.15
26 0.15
27 0.15
3 -0.57
4 -0.52
5 -0.52
6 0.96
7 0.09
8 0.09
9 0.47

>  <PUBCHEM_EFFECTIVE_ROTOR_COUNT>  (1) 
4

>  <PUBCHEM_PHARMACOPHORE_FEATURES>  (1) 
7
1 2 acceptor
1 3 acceptor
1 4 acceptor
1 4 anion
1 5 acceptor
5 2 8 11 15 16 rings
6 7 13 14 17 18 19 rings

>  <PUBCHEM_HEAVY_ATOM_COUNT>  (1) 
19

>  <PUBCHEM_ATOM_DEF_STEREO_COUNT>  (1) 
0

>  <PUBCHEM_ATOM_UDEF_STEREO_COUNT>  (1) 
0

>  <PUBCHEM_BOND_DEF_STEREO_COUNT>  (1) 
0

>  <PUBCHEM_BOND_UDEF_STEREO_COUNT>  (1) 
1

>  <PUBCHEM_ISOTOPIC_ATOM_COUNT>  (1) 
0

>  <PUBCHEM_COMPONENT_COUNT>  (1) 
1

>  <PUBCHEM_CACTVS_TAUTO_COUNT>  (1) 
1

>  <PUBCHEM_CONFORMER_ID>  (1) 
0000ADC800000001

>  <PUBCHEM_MMFF94_ENERGY>  (1) 
48.1225

>  <PUBCHEM_FEATURE_SELFOVERLAP>  (1) 
35.614

>  <PUBCHEM_SHAPE_FINGERPRINT>  (1) 
10014705 185 18409165498530816159
10378564 45 18200886080502282118
10498660 4 18412827971130162864
10670039 82 18260557731677047724
11595378 159 16733256846622626381
12107183 9 17974841770586937778
12390115 104 18342190942474157187
12403259 415 18130785723855365800
12596602 18 17022620896862020177
12916748 109 18336269041044595626
13081056 2 18341614853577766050
13740256 8 9295294945540945170
13785724 45 17976814291097063226
14123255 352 18410856551255693837
14251764 75 17766566751111985289
14252887 29 13479122481055830130
14528608 73 18341889710088949591
15196674 1 18411136939405114506
17834072 32 18340488872535789833
17844677 252 18410020965352556122
17959699 21 18411983559322017250
20645477 56 18335704897728322495
20645477 70 17489321780321524542
21033648 29 18271800276229676240
21279426 13 18341336596095744462
21315763 129 18411697733728071374
221357 26 18202562912442664593
22289505 5 18202567263777246356
23402655 69 18202002144575235670
23557571 272 18342746242895970239
23559900 14 18200309888627291962
245318 6 16954239116272557172
2916195 48 18198900491209034416
3545911 37 18409732837824769439
4028521 119 18343585144044251571
4214541 1 18411982464073688595
441001 317 18409448098446105971
465052 167 11025787696742923488
474 4 17822014228407961239
5104073 3 18113899338355940131
5281201 14 18202573877583933134
59682541 35 18187661193841508081
633830 44 18410006650517040566
77779 3 18411419518252197990
7808743 9 18337669836180396954
90127 26 18335994120346273282

>  <PUBCHEM_SHAPE_MULTIPOLES>  (1) 
355.28
13.53
2.5
0.66
0.25
0.54
-0.01
7.86
1.26
1.18
-0.04
-0.28
-0.01
0.49

>  <PUBCHEM_SHAPE_SELFOVERLAP>  (1) 
769.909

>  <PUBCHEM_SHAPE_VOLUME>  (1) 
195.7

>  <PUBCHEM_COORDINATE_TYPE>  (1) 
2
5
10

$$$$
