44481
     RDKit          3D

 20 21  0  0  0  0  0  0  0  0999 V2000
   -7.7818   -0.4482   -0.0339 Cl  0  0  0  0  0  0  0  0  0  0  0  0
    5.1947    1.7750    0.1354 O   0  0  0  0  0  0  0  0  0  0  0  0
    5.3065   -1.7478   -0.1989 O   0  0  0  0  0  0  0  0  0  0  0  0
    4.6183    0.4794    0.0260 N   0  0  0  0  0  0  0  0  0  0  0  0
    0.4887   -0.1996    0.0615 C   0  0  0  0  0  0  0  0  0  0  0  0
    3.2414    0.2524    0.0368 C   0  0  0  0  0  0  0  0  0  0  0  0
    0.9942    0.9975   -0.4449 C   0  0  0  0  0  0  0  0  0  0  0  0
    1.3595   -1.1710    0.5556 C   0  0  0  0  0  0  0  0  0  0  0  0
    2.3706    1.2236   -0.4574 C   0  0  0  0  0  0  0  0  0  0  0  0
    2.7359   -0.9449    0.5432 C   0  0  0  0  0  0  0  0  0  0  0  0
   -0.9464   -0.4357    0.0740 C   0  0  0  0  0  0  0  0  0  0  0  0
   -3.3503    0.2848   -0.0122 C   0  0  0  0  0  0  0  0  0  0  0  0
   -1.8966    0.5259   -0.0055 C   0  0  0  0  0  0  0  0  0  0  0  0
   -3.8285   -0.9709   -0.3495 C   0  0  0  0  0  0  0  0  0  0  0  0
   -4.2106    1.3191    0.3189 C   0  0  0  0  0  0  0  0  0  0  0  0
    5.5648   -0.5487   -0.0938 C   0  0  0  0  0  0  0  0  0  0  0  0
   -5.2047   -1.1986   -0.3560 C   0  0  0  0  0  0  0  0  0  0  0  0
   -5.5868    1.0914    0.3125 C   0  0  0  0  0  0  0  0  0  0  0  0
   -6.0839   -0.1675   -0.0249 C   0  0  0  0  0  0  0  0  0  0  0  0
    7.0152   -0.1160   -0.0869 C   0  0  0  0  0  0  0  0  0  0  0  0
  1 19  1  0
  2  4  1  0
  3 16  2  0
  4  6  1  0
  4 16  1  0
  5  7  2  0
  5  8  1  0
  5 11  1  0
  6  9  2  0
  6 10  1  0
  7  9  1  0
  8 10  2  0
 11 13  2  0
 12 13  1  0
 12 14  2  0
 12 15  1  0
 14 17  1  0
 15 18  2  0
 16 20  1  0
 17 19  2  0
 18 19  1  0
M  END
>  <PUBCHEM_COMPOUND_CID>  (1) 
44481

>  <PUBCHEM_CONFORMER_RMSD>  (1) 
0.6

>  <PUBCHEM_CONFORMER_DIVERSEORDER>  (1) 
3
6
10
13
5
9
15
2
7
14
11
12
4
8
1

>  <PUBCHEM_MMFF94_PARTIAL_CHARGES>  (1) 
31
1 -0.18
10 -0.15
11 -0.18
12 0.03
13 -0.18
14 -0.15
15 -0.15
16 0.57
17 -0.15
18 -0.15
19 0.18
2 -0.44
20 0.06
21 0.15
22 0.15
23 0.15
24 0.15
25 0.15
26 0.15
27 0.15
28 0.15
29 0.15
3 -0.57
30 0.15
34 0.4
4 -0.14
5 0.03
6 0.12
7 -0.15
8 -0.15
9 -0.15

>  <PUBCHEM_EFFECTIVE_ROTOR_COUNT>  (1) 
4

>  <PUBCHEM_PHARMACOPHORE_FEATURES>  (1) 
3
1 3 acceptor
6 12 14 15 17 18 19 rings
6 5 6 7 8 9 10 rings

>  <PUBCHEM_HEAVY_ATOM_COUNT>  (1) 
20

>  <PUBCHEM_ATOM_DEF_STEREO_COUNT>  (1) 
0

>  <PUBCHEM_ATOM_UDEF_STEREO_COUNT>  (1) 
0

>  <PUBCHEM_BOND_DEF_STEREO_COUNT>  (1) 
0

>  <PUBCHEM_BOND_UDEF_STEREO_COUNT>  (1) 
1

>  <PUBCHEM_ISOTOPIC_ATOM_COUNT>  (1) 
0

>  <PUBCHEM_COMPONENT_COUNT>  (1) 
1

>  <PUBCHEM_CACTVS_TAUTO_COUNT>  (1) 
1

>  <PUBCHEM_CONFORMER_ID>  (1) 
0000ADC100000003

>  <PUBCHEM_MMFF94_ENERGY>  (1) 
70.7444

>  <PUBCHEM_FEATURE_SELFOVERLAP>  (1) 
15.223

>  <PUBCHEM_SHAPE_FINGERPRINT>  (1) 
10299344 5 18343303669547737995
10354089 29 18186519907995337832
10595046 47 18412825785260561625
10968037 39 18408884045392971351
11315181 36 18272936033872446401
11524674 6 15913326918824225895
11719270 70 17703790288904470366
12091667 2 17821449050052172521
12107183 9 17617657662004021513
12166972 35 18412547625730357880
12236239 1 18342176665660084081
12516196 113 18342454846138753784
13288520 33 18413670219450528093
13533116 47 13614251335070604204
13862211 1 18186516580012959458
14123256 10 17967250896927288899
14170010 4 18187646929184381708
1420 363 18040157318442536171
14251764 18 18410575084668353676
14251764 46 17676488345644424203
14933364 13 18341896294163031384
15183329 4 18411420596304586274
15716309 27 18131069346822126239
17834072 33 18413388739429867806
17834076 25 17967814946529377635
17844677 252 18343308054203211544
18681886 176 18342170102649317330
200 152 18413388739683030073
20281389 69 18412543215088744265
20612939 158 17822017539843779084
21065198 48 18336543807804213785
21150785 3 17458349658484084470
21267235 1 18408890637708711339
21315763 28 18412825780902433617
21641784 216 16515976843767744438
21709351 56 18260542338345323653
220451 1 15068620491818606561
22224240 67 16877942762953318506
23035841 295 18272088297148067043
23402539 116 18201997733469801541
23521765 1 18341895194645933895
23536379 177 18272652333353518522
23559900 14 18268141128009317841
23569943 247 17825948122262697274
29717793 49 18343304764305255110
300161 21 18334007290276579273
3004659 81 18335137587591753153
335352 9 18333454249198007374
34797466 226 17346605200826585740
3545911 37 18408603665200274579
4073 2 18041846228353520226
4214541 1 18411136918669022645
42788 4 18412544310067650969
4325135 7 18410292515181883959
4340502 62 14851604376160419448
4463277 17 18409729556021492340
5104073 3 18409728469347138667
542803 24 18060419114461096185
54446538 1 18411700989313677993
59755656 215 18040715840031714475
59755656 520 17313382353498157595
67856867 119 18337391664266165197
7495541 125 17203323467848643193
8209 1 18410292514469714295

>  <PUBCHEM_SHAPE_MULTIPOLES>  (1) 
396.74
19.84
1.43
0.68
4.49
0.09
-0.01
-1.66
0.45
-0.49
0
0.07
-0.02
-0.45

>  <PUBCHEM_SHAPE_SELFOVERLAP>  (1) 
836.613

>  <PUBCHEM_SHAPE_VOLUME>  (1) 
223.1

>  <PUBCHEM_COORDINATE_TYPE>  (1) 
2
5
10

$$$$
