44491
     RDKit          3D

 21 22  0  0  0  0  0  0  0  0999 V2000
    3.2501    0.1477    0.0424 O   0  0  0  0  0  0  0  0  0  0  0  0
   -1.1478   -2.3744   -0.4985 O   0  0  0  0  0  0  0  0  0  0  0  0
   -6.4747    0.8920    0.6040 O   0  0  0  0  0  0  0  0  0  0  0  0
   -5.7427   -1.1347    1.0231 O   0  0  0  0  0  0  0  0  0  0  0  0
    6.4390    1.5276    0.4381 O   0  0  0  0  0  0  0  0  0  0  0  0
    4.4565    2.4572    0.2816 O   0  0  0  0  0  0  0  0  0  0  0  0
   -5.5598    0.0334    0.6028 N   0  0  0  0  0  0  0  0  0  0  0  0
    5.1841    1.4208    0.3044 N   0  0  0  0  0  0  0  0  0  0  0  0
   -1.9853   -0.1861   -0.3843 C   0  0  0  0  0  0  0  0  0  0  0  0
   -3.2443   -0.5423    0.0993 C   0  0  0  0  0  0  0  0  0  0  0  0
    2.8985   -1.1503   -0.0590 C   0  0  0  0  0  0  0  0  0  0  0  0
   -0.9071   -1.1620   -0.3942 C   0  0  0  0  0  0  0  0  0  0  0  0
   -4.2779    0.3945    0.1100 C   0  0  0  0  0  0  0  0  0  0  0  0
   -1.7598    1.1068   -0.8570 C   0  0  0  0  0  0  0  0  0  0  0  0
    1.5291   -1.5431   -0.2189 C   0  0  0  0  0  0  0  0  0  0  0  0
    0.5076   -0.6736   -0.2445 C   0  0  0  0  0  0  0  0  0  0  0  0
    3.9801   -1.9777    0.0104 C   0  0  0  0  0  0  0  0  0  0  0  0
   -4.0522    1.6874   -0.3627 C   0  0  0  0  0  0  0  0  0  0  0  0
   -2.7932    2.0434   -0.8463 C   0  0  0  0  0  0  0  0  0  0  0  0
    4.6017    0.1579    0.1815 C   0  0  0  0  0  0  0  0  0  0  0  0
    5.0984   -1.1247    0.1680 C   0  0  0  0  0  0  0  0  0  0  0  0
  1 11  1  0
  1 20  1  0
  2 12  2  0
  3  7  1  0
  4  7  2  0
  5  8  1  0
  6  8  2  0
  7 13  1  0
  8 20  1  0
  9 10  2  0
  9 12  1  0
  9 14  1  0
 10 13  1  0
 11 15  1  0
 11 17  2  0
 12 16  1  0
 13 18  2  0
 14 19  2  0
 15 16  2  0
 17 21  1  0
 18 19  1  0
 20 21  2  0
M  CHG  4   3  -1   5  -1   7   1   8   1
M  END
>  <PUBCHEM_COMPOUND_CID>  (1) 
44491

>  <PUBCHEM_CONFORMER_RMSD>  (1) 
0.8

>  <PUBCHEM_CONFORMER_DIVERSEORDER>  (1) 
2
19
23
7
14
22
6
9
12
4
16
18
20
21
15
1
8
24
11
13
10
5
17
3

>  <PUBCHEM_MMFF94_PARTIAL_CHARGES>  (1) 
29
1 -0.28
10 -0.15
11 0.09
12 0.47
13 0.13
14 -0.15
15 -0.11
16 -0.14
17 -0.15
18 -0.15
19 -0.15
2 -0.57
20 0.22
21 -0.15
22 0.15
23 0.15
24 0.15
25 0.15
26 0.15
27 0.15
28 0.15
29 0.15
3 -0.52
4 -0.52
5 -0.52
6 -0.52
7 0.91
8 0.96
9 0.09

>  <PUBCHEM_EFFECTIVE_ROTOR_COUNT>  (1) 
5

>  <PUBCHEM_PHARMACOPHORE_FEATURES>  (1) 
10
1 1 acceptor
1 2 acceptor
1 3 acceptor
1 3 anion
1 4 acceptor
1 5 acceptor
1 5 anion
1 6 acceptor
5 1 11 17 20 21 rings
6 9 10 13 14 18 19 rings

>  <PUBCHEM_HEAVY_ATOM_COUNT>  (1) 
21

>  <PUBCHEM_ATOM_DEF_STEREO_COUNT>  (1) 
0

>  <PUBCHEM_ATOM_UDEF_STEREO_COUNT>  (1) 
0

>  <PUBCHEM_BOND_DEF_STEREO_COUNT>  (1) 
0

>  <PUBCHEM_BOND_UDEF_STEREO_COUNT>  (1) 
1

>  <PUBCHEM_ISOTOPIC_ATOM_COUNT>  (1) 
0

>  <PUBCHEM_COMPONENT_COUNT>  (1) 
1

>  <PUBCHEM_CACTVS_TAUTO_COUNT>  (1) 
1

>  <PUBCHEM_CONFORMER_ID>  (1) 
0000ADCB00000002

>  <PUBCHEM_MMFF94_ENERGY>  (1) 
56.8296

>  <PUBCHEM_FEATURE_SELFOVERLAP>  (1) 
50.924

>  <PUBCHEM_SHAPE_FINGERPRINT>  (1) 
10 15 18260264179325958344
11595378 159 17313368007916777324
11724838 91 18335982068599222054
11858739 19 8646772192362571058
12403259 415 18335137536083774924
12555020 224 9439402419892636033
12596602 18 17313098648842310064
12616971 3 18059563668740049502
12670543 26 9943809967588204507
12730499 353 18411143520055193378
12788726 201 17131841932226266920
13081056 2 18410010996833624126
13533116 47 17458622246836343850
14251732 16 18410576218977849243
14251752 14 12175628347481437527
14251764 75 18048601714301213124
14341114 176 18408326566383807924
14464042 87 17632583738351710168
14933364 13 18410578370714019502
15183329 4 10519714371149745431
15188451 53 16226053340047767827
15196674 1 18410290277013507172
15475509 35 16661192643627043378
16760501 71 18338800116822350264
1768 85 18199747118825023401
17844677 252 18341056194396666350
17857418 61 8862949377050000380
18222031 100 14490198184991247390
19433438 28 18114461167443812982
19489759 90 16515405128055089743
20645477 56 18409726261971552110
21236236 1 18272647996012270839
21315764 268 18261669290318699900
21652331 79 18409164402892286108
22079108 93 17967814959298559994
22224240 67 18410860941561862899
23227448 37 18341326786063483910
23272321 79 18413387648703483463
23402539 116 18113620067509756911
23559900 14 17904476312175565359
2916195 48 18335699429506837555
3009799 131 17675917687110956327
3545911 37 18411982464595954102
465052 167 11674887675380432386
5104073 3 18188487956526058832
542803 24 17203607077450564350
59682541 35 18334584568488892019
960060 61 11959728304929452282

>  <PUBCHEM_SHAPE_MULTIPOLES>  (1) 
386.99
15.73
2.29
0.78
1.45
0.53
-0.02
4.99
4.49
1.64
-0.14
-0.55
0.04
1.04

>  <PUBCHEM_SHAPE_SELFOVERLAP>  (1) 
837.617

>  <PUBCHEM_SHAPE_VOLUME>  (1) 
212.3

>  <PUBCHEM_COORDINATE_TYPE>  (1) 
2
5
10

$$$$
