4450
     RDKit          3D

 19 21  0  0  1  0  0  0  0  0999 V2000
    0.0917    1.6001   -0.8118 O   0  0  0  0  0  0  0  0  0  0  0  0
    2.9477    1.2319    0.1749 N   0  0  0  0  0  0  0  0  0  0  0  0
   -0.4791    0.2982   -0.9408 C   0  0  0  0  0  0  0  0  0  0  0  0
    0.3696   -0.8495   -0.3942 C   0  0  0  0  0  0  0  0  0  0  0  0
    1.9502    0.6059    1.0611 C   0  0  0  0  0  0  0  0  0  0  0  0
    1.4483   -0.7150    0.5074 C   0  0  0  0  0  0  0  0  0  0  0  0
    2.3809    2.2928   -0.6789 C   0  0  0  0  0  0  0  0  0  0  0  0
    1.2632    1.8047   -1.5967 C   0  0  0  0  0  0  0  0  0  0  0  0
   -1.8592    0.3501   -0.3053 C   0  0  0  0  0  0  0  0  0  0  0  0
    0.0270   -2.1441   -0.8470 C   0  0  0  0  0  0  0  0  0  0  0  0
    2.1505   -1.8743    0.9044 C   0  0  0  0  0  0  0  0  0  0  0  0
    4.0630    1.7768    0.9544 C   0  0  0  0  0  0  0  0  0  0  0  0
    0.7270   -3.2754   -0.4321 C   0  0  0  0  0  0  0  0  0  0  0  0
    1.7925   -3.1399    0.4443 C   0  0  0  0  0  0  0  0  0  0  0  0
   -2.8727   -0.4778   -0.7813 C   0  0  0  0  0  0  0  0  0  0  0  0
   -2.1037    1.2257    0.7496 C   0  0  0  0  0  0  0  0  0  0  0  0
   -4.1392   -0.4298   -0.1986 C   0  0  0  0  0  0  0  0  0  0  0  0
   -3.3700    1.2737    1.3324 C   0  0  0  0  0  0  0  0  0  0  0  0
   -4.3878    0.4459    0.8582 C   0  0  0  0  0  0  0  0  0  0  0  0
  1  3  1  0
  1  8  1  0
  2  5  1  0
  2  7  1  0
  2 12  1  0
  3  4  1  0
  3  9  1  0
  4  6  2  0
  4 10  1  0
  5  6  1  0
  6 11  1  0
  7  8  1  0
  9 15  2  0
  9 16  1  0
 10 13  2  0
 11 14  2  0
 13 14  1  0
 15 17  1  0
 16 18  2  0
 17 19  2  0
 18 19  1  0
M  END
>  <PUBCHEM_COMPOUND_CID>  (1) 
4450

>  <PUBCHEM_CONFORMER_RMSD>  (1) 
0.6

>  <PUBCHEM_CONFORMER_DIVERSEORDER>  (1) 
5
9
10
4
8
1
12
14
2
13
6
11
7
3

>  <PUBCHEM_MMFF94_PARTIAL_CHARGES>  (1) 
28
1 -0.56
10 -0.15
11 -0.15
12 0.27
13 -0.15
14 -0.15
15 -0.15
16 -0.15
17 -0.15
18 -0.15
19 -0.15
2 -0.81
27 0.15
28 0.15
3 0.57
32 0.15
33 0.15
34 0.15
35 0.15
36 0.15
37 0.15
38 0.15
4 -0.14
5 0.41
6 -0.14
7 0.27
8 0.28
9 -0.14

>  <PUBCHEM_EFFECTIVE_ROTOR_COUNT>  (1) 
2.2

>  <PUBCHEM_PHARMACOPHORE_FEATURES>  (1) 
4
1 1 acceptor
1 2 cation
6 4 6 10 11 13 14 rings
6 9 15 16 17 18 19 rings

>  <PUBCHEM_HEAVY_ATOM_COUNT>  (1) 
19

>  <PUBCHEM_ATOM_DEF_STEREO_COUNT>  (1) 
0

>  <PUBCHEM_ATOM_UDEF_STEREO_COUNT>  (1) 
1

>  <PUBCHEM_BOND_DEF_STEREO_COUNT>  (1) 
0

>  <PUBCHEM_BOND_UDEF_STEREO_COUNT>  (1) 
0

>  <PUBCHEM_ISOTOPIC_ATOM_COUNT>  (1) 
0

>  <PUBCHEM_COMPONENT_COUNT>  (1) 
1

>  <PUBCHEM_CACTVS_TAUTO_COUNT>  (1) 
1

>  <PUBCHEM_CONFORMER_ID>  (1) 
0000116200000005

>  <PUBCHEM_MMFF94_ENERGY>  (1) 
65.7482

>  <PUBCHEM_FEATURE_SELFOVERLAP>  (1) 
20.297

>  <PUBCHEM_SHAPE_FINGERPRINT>  (1) 
10382601 240 18335419037183782050
10493431 412 18266733769994462176
1100329 8 17692523829614675447
11578080 2 17242737476496635388
11640471 11 18202290207963349625
12251169 10 18056755425869553507
12553582 1 17976541611395371903
12788726 201 17400932293550671302
12839892 36 18263080092681256947
13140716 1 18044934825325038064
14022349 108 18336539443790640026
14178342 30 18335711580433593755
14223421 5 18337111159856520073
14787075 74 17698711833805559061
15309172 13 18335978778427549837
16945 1 17894915147869674748
17138139 8 17552325067713719639
1813 80 17909561562070305726
201361 129 18273219664031319569
204376 136 18264207083282939044
20510252 161 17764310943343550227
20559304 39 18129104428990216235
20600515 1 17184481914630827796
20645477 70 18260816073991368231
20739085 24 18334295327752542532
21524375 3 18272088361187480684
22182313 1 18044634448576851868
2255824 54 18337964401948601790
23419403 2 17752468881163981518
23558518 356 17620468451516232244
23559900 14 18126844889977993795
2748010 2 17973417946405635596
276578 36 18342178894584651888
283562 15 16098832448675503316
31174 14 18192148200738985107
427121 178 18201726201189289952
458136 41 18410582785713682962
474 4 18336833077672130985
5104073 3 18267603325395331449
58807428 26 18337382842318365074
7097593 13 17911804570349335723
7364860 26 18341337682163476375
81228 2 17183357646706055660
8272917 22 18335704918944670229

>  <PUBCHEM_SHAPE_MULTIPOLES>  (1) 
380.16
6.5
3.25
1.29
5.14
2.36
-0.04
-2.88
2.36
-3.28
-0.26
-0.03
-0.42
-0.78

>  <PUBCHEM_SHAPE_SELFOVERLAP>  (1) 
814.059

>  <PUBCHEM_SHAPE_VOLUME>  (1) 
209.5

>  <PUBCHEM_COORDINATE_TYPE>  (1) 
2
5
10

$$$$
