44504
     RDKit          3D

 24 25  0  0  1  0  0  0  0  0999 V2000
   -0.8945    1.8678    0.5065 O   0  0  0  0  0  0  0  0  0  0  0  0
   -3.1301    3.5155    0.3541 O   0  0  0  0  0  0  0  0  0  0  0  0
    3.4473   -1.5658    0.5117 O   0  0  0  0  0  0  0  0  0  0  0  0
   -1.0027   -0.5452    1.8766 O   0  0  0  0  0  0  0  0  0  0  0  0
    5.5816   -2.0750   -0.1321 O   0  0  0  0  0  0  0  0  0  0  0  0
   -3.5786    0.0590   -0.8953 N   0  0  0  0  0  0  0  0  0  0  0  0
   -4.0730   -2.3648   -1.1805 C   0  0  0  0  0  0  0  0  0  0  0  0
   -4.2624   -1.0966   -0.3306 C   0  0  0  0  0  0  0  0  0  0  0  0
   -3.7233    1.2231   -0.0318 C   0  0  0  0  0  0  0  0  0  0  0  0
   -2.9645    2.4376   -0.5716 C   0  0  0  0  0  0  0  0  0  0  0  0
   -1.4704    2.1830   -0.7591 C   0  0  0  0  0  0  0  0  0  0  0  0
   -2.5800   -2.6723   -1.3237 C   0  0  0  0  0  0  0  0  0  0  0  0
   -4.7943   -3.5798   -0.5915 C   0  0  0  0  0  0  0  0  0  0  0  0
    0.1762    1.0243    0.5063 C   0  0  0  0  0  0  0  0  0  0  0  0
    2.4518    0.5437   -0.2136 C   0  0  0  0  0  0  0  0  0  0  0  0
    1.3331    1.3875   -0.1926 C   0  0  0  0  0  0  0  0  0  0  0  0
    2.3664   -0.6620    0.4841 C   0  0  0  0  0  0  0  0  0  0  0  0
    0.1198   -0.1865    1.1945 C   0  0  0  0  0  0  0  0  0  0  0  0
    3.6981    0.8584   -0.9249 C   0  0  0  0  0  0  0  0  0  0  0  0
    1.2196   -1.0380    1.1858 C   0  0  0  0  0  0  0  0  0  0  0  0
    4.7099   -0.0199   -0.8812 C   0  0  0  0  0  0  0  0  0  0  0  0
    3.8219    2.1469   -1.6844 C   0  0  0  0  0  0  0  0  0  0  0  0
    4.6351   -1.2959   -0.1500 C   0  0  0  0  0  0  0  0  0  0  0  0
   -1.0870   -0.1451    3.2433 C   0  0  0  0  0  0  0  0  0  0  0  0
  1 11  1  0
  1 14  1  0
  2 10  1  0
  3 17  1  0
  3 23  1  0
  4 18  1  0
  4 24  1  0
  5 23  2  0
  6  8  1  0
  6  9  1  0
  7  8  1  0
  7 12  1  0
  7 13  1  0
  9 10  1  0
 10 11  1  0
 14 16  2  0
 14 18  1  0
 15 16  1  0
 15 17  2  0
 15 19  1  0
 17 20  1  0
 18 20  2  0
 19 21  2  0
 19 22  1  0
 21 23  1  0
M  END
>  <PUBCHEM_COMPOUND_CID>  (1) 
44504

>  <PUBCHEM_CONFORMER_RMSD>  (1) 
0.8

>  <PUBCHEM_CONFORMER_DIVERSEORDER>  (1) 
1
248
272
275
284
241
200
257
75
62
290
104
243
127
83
173
131
303
247
152
164
194
217
230
145
2
116
143
255
175
187
296
201
165
27
232
309
297
134
216
198
258
279
30
301
293
113
289
178
103
254
92
189
67
212
240
259
59
168
96
133
70
233
115
210
261
299
161
251
45
267
167
196
101
277
40
97
166
188
229
283
151
91
24
176
6
41
224
121
130
278
107
51
203
90
231
310
98
148
160
179
65
306
153
81
177
109
246
61
29
205
85
244
142
63
122
39
307
276
253
77
124
4
94
136
72
186
163
250
304
197
21
80
141
215
280
294
25
69
93
302
14
182
89
202
146
68
9
44
53
19
222
234
221
135
274
82
256
66
79
125
308
50
191
108
193
225
42
78
156
84
159
270
227
110
95
73
206
219
22
129
220
298
155
137
106
157
185
8
149
286
71
54
252
56
288
282
123
265
181
100
88
102
57
58
37
111
174
11
262
249
172
204
235
144
269
26
18
87
105
13
140
150
119
236
208
112
207
5
305
55
35
99
158
263
300
38
169
213
195
273
49
10
268
292
245
7
295
36
211
47
147
183
264
223
192
118
171
17
154
60
184
190
20
287
15
209
86
28
180
23
226
128
52
218
260
239
139
266
34
126
285
237
214
138
199
228
132
16
33
12
162
76
117
291
48
3
64
242
120
74
31
271
170
281
46
32
114
43
238

>  <PUBCHEM_MMFF94_PARTIAL_CHARGES>  (1) 
26
1 -0.36
10 0.28
11 0.28
14 0.08
15 0.03
16 -0.15
17 0.08
18 0.08
19 -0.17
2 -0.68
20 -0.15
21 -0.14
22 0.14
23 0.71
24 0.28
3 -0.23
31 0.36
4 -0.36
40 0.15
41 0.4
42 0.15
43 0.15
5 -0.57
6 -0.9
8 0.27
9 0.27

>  <PUBCHEM_EFFECTIVE_ROTOR_COUNT>  (1) 
8

>  <PUBCHEM_PHARMACOPHORE_FEATURES>  (1) 
10
1 1 acceptor
1 2 acceptor
1 2 donor
1 4 acceptor
1 5 acceptor
1 6 cation
1 6 donor
3 7 12 13 hydrophobe
6 14 15 16 17 18 20 rings
6 3 15 17 19 21 23 rings

>  <PUBCHEM_HEAVY_ATOM_COUNT>  (1) 
24

>  <PUBCHEM_ATOM_DEF_STEREO_COUNT>  (1) 
0

>  <PUBCHEM_ATOM_UDEF_STEREO_COUNT>  (1) 
1

>  <PUBCHEM_BOND_DEF_STEREO_COUNT>  (1) 
0

>  <PUBCHEM_BOND_UDEF_STEREO_COUNT>  (1) 
0

>  <PUBCHEM_ISOTOPIC_ATOM_COUNT>  (1) 
0

>  <PUBCHEM_COMPONENT_COUNT>  (1) 
1

>  <PUBCHEM_CACTVS_TAUTO_COUNT>  (1) 
1

>  <PUBCHEM_CONFORMER_ID>  (1) 
0000ADD800000001

>  <PUBCHEM_MMFF94_ENERGY>  (1) 
74.6606

>  <PUBCHEM_FEATURE_SELFOVERLAP>  (1) 
50.781

>  <PUBCHEM_SHAPE_FINGERPRINT>  (1) 
11578080 2 17988352771316759720
11725454 13 13695854974380109645
12553582 1 18267009730533676159
12633257 1 15625104333732710503
12714826 92 17847057805170312877
12969540 114 15574713594828554287
14251751 18 18273207599927374050
14251751 93 18410569544429794943
14251757 5 18338799026069696311
14251764 30 18121503716068246243
14289585 56 17241605018528257094
17349148 13 17749379361196604320
17909252 39 18195526119460335371
20775530 9 17340965968960206303
21033648 29 15357698565528477316
21049683 271 15513117025005638522
21634736 98 18261385693691500357
221357 26 18191298476368219455
22950370 63 18339644572276157023
23379529 103 18342458191971375999
23402539 116 17749956527423313772
23419403 2 17130970109493700370
3117164 225 9727094035098850652
329604 57 18337107994096773943
38695281 34 17833268623546051645
633830 44 17458348494073505113
7164475 11 18410572916153013708
7970288 3 18124870424803953375
9709674 26 18041574584873272368

>  <PUBCHEM_SHAPE_MULTIPOLES>  (1) 
459.58
10.73
3.58
1.78
3.15
0.17
1.46
-6.51
-4.94
-4.26
-1.18
-0.45
-0.19
-1.93

>  <PUBCHEM_SHAPE_SELFOVERLAP>  (1) 
947.594

>  <PUBCHEM_SHAPE_VOLUME>  (1) 
265.5

>  <PUBCHEM_COORDINATE_TYPE>  (1) 
2
5
10

$$$$
