44500
     RDKit          3D

 26 27  0  0  0  0  0  0  0  0999 V2000
    0.3049   -0.0067    0.0285 O   0  0  0  0  0  0  0  0  0  0  0  0
   -2.2184    0.5251    0.1275 O   0  0  0  0  0  0  0  0  0  0  0  0
    1.8363   -2.4758   -0.1513 O   0  0  0  0  0  0  0  0  0  0  0  0
    4.6027   -2.1953   -0.2148 O   0  0  0  0  0  0  0  0  0  0  0  0
    5.7542    0.3067   -0.1101 O   0  0  0  0  0  0  0  0  0  0  0  0
   -1.8910    2.7921    0.2425 O   0  0  0  0  0  0  0  0  0  0  0  0
   -5.7756   -0.4501    0.1875 N   0  0  0  0  0  0  0  0  0  0  0  0
   -4.3311   -0.6145    0.1221 C   0  0  0  0  0  0  0  0  0  0  0  0
    2.2123    1.2037    0.0414 C   0  0  0  0  0  0  0  0  0  0  0  0
    1.1083    2.0928    0.1219 C   0  0  0  0  0  0  0  0  0  0  0  0
    1.6654   -0.0740   -0.0139 C   0  0  0  0  0  0  0  0  0  0  0  0
   -6.2544    0.3739   -0.9251 C   0  0  0  0  0  0  0  0  0  0  0  0
   -6.4464   -1.7524    0.1768 C   0  0  0  0  0  0  0  0  0  0  0  0
   -3.6342    0.7356    0.1770 C   0  0  0  0  0  0  0  0  0  0  0  0
   -0.0224    1.3093    0.1106 C   0  0  0  0  0  0  0  0  0  0  0  0
    2.4186   -1.2435   -0.1001 C   0  0  0  0  0  0  0  0  0  0  0  0
    3.6114    1.3374    0.0091 C   0  0  0  0  0  0  0  0  0  0  0  0
    3.8075   -1.0873   -0.1310 C   0  0  0  0  0  0  0  0  0  0  0  0
    4.3957    0.1790   -0.0775 C   0  0  0  0  0  0  0  0  0  0  0  0
   -1.4056    1.6428    0.1668 C   0  0  0  0  0  0  0  0  0  0  0  0
    1.1632    3.5658    0.1997 C   0  0  0  0  0  0  0  0  0  0  0  0
   -7.7522    0.6096   -0.8288 C   0  0  0  0  0  0  0  0  0  0  0  0
   -5.9662   -2.6266    1.3228 C   0  0  0  0  0  0  0  0  0  0  0  0
    1.5239   -2.9899   -1.4436 C   0  0  0  0  0  0  0  0  0  0  0  0
    5.0130   -2.7878    1.0137 C   0  0  0  0  0  0  0  0  0  0  0  0
    6.2799    1.6300   -0.0515 C   0  0  0  0  0  0  0  0  0  0  0  0
  1 11  1  0
  1 15  1  0
  2 14  1  0
  2 20  1  0
  3 16  1  0
  3 24  1  0
  4 18  1  0
  4 25  1  0
  5 19  1  0
  5 26  1  0
  6 20  2  0
  7  8  1  0
  7 12  1  0
  7 13  1  0
  8 14  1  0
  9 10  1  0
  9 11  2  0
  9 17  1  0
 10 15  2  0
 10 21  1  0
 11 16  1  0
 12 22  1  0
 13 23  1  0
 15 20  1  0
 16 18  2  0
 17 19  2  0
 18 19  1  0
M  END
>  <PUBCHEM_COMPOUND_CID>  (1) 
44500

>  <PUBCHEM_CONFORMER_RMSD>  (1) 
1

>  <PUBCHEM_CONFORMER_DIVERSEORDER>  (1) 
5
38
44
15
43
12
14
10
8
2
19
9
35
16
42
13
22
11
7
23
33
20
32
39
26
37
18
40
3
29
4
30
31
27
17
1
6
28
36
34
21
24
41
25

>  <PUBCHEM_MMFF94_PARTIAL_CHARGES>  (1) 
24
1 -0.28
10 -0.18
11 0.14
12 0.27
13 0.27
14 0.28
15 0.05
16 0.08
17 -0.15
18 0.08
19 0.08
2 -0.43
20 0.81
21 0.18
24 0.28
25 0.28
26 0.28
3 -0.36
35 0.15
4 -0.36
5 -0.36
6 -0.57
7 -0.81
8 0.27

>  <PUBCHEM_EFFECTIVE_ROTOR_COUNT>  (1) 
10

>  <PUBCHEM_PHARMACOPHORE_FEATURES>  (1) 
8
1 1 acceptor
1 3 acceptor
1 4 acceptor
1 5 acceptor
1 6 acceptor
1 7 cation
5 1 9 10 11 15 rings
6 9 11 16 17 18 19 rings

>  <PUBCHEM_HEAVY_ATOM_COUNT>  (1) 
26

>  <PUBCHEM_ATOM_DEF_STEREO_COUNT>  (1) 
0

>  <PUBCHEM_ATOM_UDEF_STEREO_COUNT>  (1) 
0

>  <PUBCHEM_BOND_DEF_STEREO_COUNT>  (1) 
0

>  <PUBCHEM_BOND_UDEF_STEREO_COUNT>  (1) 
0

>  <PUBCHEM_ISOTOPIC_ATOM_COUNT>  (1) 
0

>  <PUBCHEM_COMPONENT_COUNT>  (1) 
1

>  <PUBCHEM_CACTVS_TAUTO_COUNT>  (1) 
1

>  <PUBCHEM_CONFORMER_ID>  (1) 
0000ADD400000005

>  <PUBCHEM_MMFF94_ENERGY>  (1) 
76.8714

>  <PUBCHEM_FEATURE_SELFOVERLAP>  (1) 
40.711

>  <PUBCHEM_SHAPE_FINGERPRINT>  (1) 
10447042 23 18411412895359438598
10835480 77 18335697265524322165
11135609 99 18261671489864967810
11578080 2 13407944599325264644
11719270 70 18413102866433377070
11796584 16 17312822701482975201
11963148 33 18335696195587387866
12838862 33 18270380776558714596
13402501 40 18335704970495204107
13955234 65 18054789748129684737
1454969 45 18412828014533587948
15131766 46 16155976066053604932
15183329 4 18336820902405217421
15196674 1 18339081471893300608
15483637 11 18123187076723013551
15537594 2 17988638623086151551
15927050 60 17623287586761757924
17492 89 18195528082951882182
17857418 61 18342457028572593945
20028762 73 18060138790346120206
20281389 69 9943803391866641255
20645477 70 18335701697766833425
21033650 10 16660635234113036661
21197605 99 18124883605794671147
21267235 1 18342182150723659396
21521721 280 18059578061228238512
21623969 137 18341619243540978727
23559900 14 18337103558192148481
3004659 81 18186799167328047467
314194 84 18201716271615285055
3178227 256 18269563895306502289
3421961 26 18340768234341553545
3882209 13 17036942869407521523
4073 2 18113902714816906177
439807 62 18260553368412553435
46194498 28 17749388199844024917
465052 167 18343025505721644631
5104073 3 18271804554376000808
59682541 35 18271517689626705792
59755656 215 18408602561161538607
6431902 208 18412547630852785459

>  <PUBCHEM_SHAPE_MULTIPOLES>  (1) 
494.87
17.76
3.59
0.87
26.22
0.56
-0.05
6.05
-0.36
-2.23
0.29
0.54
0.52
1.02

>  <PUBCHEM_SHAPE_SELFOVERLAP>  (1) 
1029.742

>  <PUBCHEM_SHAPE_VOLUME>  (1) 
287.8

>  <PUBCHEM_COORDINATE_TYPE>  (1) 
2
5
10

$$$$
