44508
     RDKit          3D

 27 29  0  0  1  0  0  0  0  0999 V2000
    4.5856   -1.9609    2.2264 O   0  0  0  0  0  0  0  0  0  0  0  0
    0.8150    1.6972   -1.0544 O   0  0  0  0  0  0  0  0  0  0  0  0
    3.1785    3.0999   -1.4816 O   0  0  0  0  0  0  0  0  0  0  0  0
   -3.7555   -1.2008    0.1094 O   0  0  0  0  0  0  0  0  0  0  0  0
    0.5545   -0.9165   -1.9225 O   0  0  0  0  0  0  0  0  0  0  0  0
   -1.7399   -2.3331   -1.3239 O   0  0  0  0  0  0  0  0  0  0  0  0
   -5.8217   -1.3532    1.0769 O   0  0  0  0  0  0  0  0  0  0  0  0
    3.5017   -0.0963    0.3689 N   0  0  0  0  0  0  0  0  0  0  0  0
    3.6275    0.8690   -0.7211 C   0  0  0  0  0  0  0  0  0  0  0  0
    3.9610   -1.4258   -0.0560 C   0  0  0  0  0  0  0  0  0  0  0  0
    4.2604    0.3457    1.5474 C   0  0  0  0  0  0  0  0  0  0  0  0
    3.0476    2.2357   -0.3491 C   0  0  0  0  0  0  0  0  0  0  0  0
    3.8313   -2.4124    1.1010 C   0  0  0  0  0  0  0  0  0  0  0  0
    4.1247   -0.6829    2.6665 C   0  0  0  0  0  0  0  0  0  0  0  0
    1.5750    2.1791    0.0516 C   0  0  0  0  0  0  0  0  0  0  0  0
   -0.3119    0.9857   -0.7676 C   0  0  0  0  0  0  0  0  0  0  0  0
   -2.5049    0.8901    0.2855 C   0  0  0  0  0  0  0  0  0  0  0  0
   -1.3336    1.5926   -0.0283 C   0  0  0  0  0  0  0  0  0  0  0  0
   -0.4451   -0.3312   -1.2044 C   0  0  0  0  0  0  0  0  0  0  0  0
   -2.6102   -0.4266   -0.1648 C   0  0  0  0  0  0  0  0  0  0  0  0
   -1.5999   -1.0455   -0.9031 C   0  0  0  0  0  0  0  0  0  0  0  0
   -3.6173    1.4613    1.0566 C   0  0  0  0  0  0  0  0  0  0  0  0
   -4.6943    0.7018    1.3022 C   0  0  0  0  0  0  0  0  0  0  0  0
   -3.5340    2.8737    1.5574 C   0  0  0  0  0  0  0  0  0  0  0  0
   -4.8202   -0.6889    0.8343 C   0  0  0  0  0  0  0  0  0  0  0  0
    0.4962   -0.7835   -3.3410 C   0  0  0  0  0  0  0  0  0  0  0  0
   -0.7705   -3.2740   -0.8662 C   0  0  0  0  0  0  0  0  0  0  0  0
  1 13  1  0
  1 14  1  0
  2 15  1  0
  2 16  1  0
  3 12  1  0
  4 20  1  0
  4 25  1  0
  5 19  1  0
  5 26  1  0
  6 21  1  0
  6 27  1  0
  7 25  2  0
  8  9  1  0
  8 10  1  0
  8 11  1  0
  9 12  1  0
 10 13  1  0
 11 14  1  0
 12 15  1  0
 16 18  2  0
 16 19  1  0
 17 18  1  0
 17 20  2  0
 17 22  1  0
 19 21  2  0
 20 21  1  0
 22 23  2  0
 22 24  1  0
 23 25  1  0
M  END
>  <PUBCHEM_COMPOUND_CID>  (1) 
44508

>  <PUBCHEM_CONFORMER_RMSD>  (1) 
1

>  <PUBCHEM_CONFORMER_DIVERSEORDER>  (1) 
1
75
4
18
47
61
48
8
55
15
35
58
31
40
27
36
28
23
29
39
72
43
3
6
56
24
53
32
25
63
60
64
9
13
42
73
33
66
44
20
62
59
67
49
69
76
26
68
17
34
52
77
37
16
22
14
74
65
5
50
38
12
71
10
30
45
21
19
46
54
57
51
11
2
7
41
70

>  <PUBCHEM_MMFF94_PARTIAL_CHARGES>  (1) 
30
1 -0.56
10 0.27
11 0.27
12 0.28
13 0.28
14 0.28
15 0.28
16 0.08
17 0.03
18 -0.15
19 0.08
2 -0.36
20 0.08
21 0.08
22 -0.17
23 -0.14
24 0.14
25 0.71
26 0.28
27 0.28
3 -0.68
4 -0.23
41 0.4
42 0.15
43 0.15
5 -0.36
6 -0.36
7 -0.57
8 -0.81
9 0.27

>  <PUBCHEM_EFFECTIVE_ROTOR_COUNT>  (1) 
8.2

>  <PUBCHEM_PHARMACOPHORE_FEATURES>  (1) 
11
1 1 acceptor
1 2 acceptor
1 3 acceptor
1 3 donor
1 5 acceptor
1 6 acceptor
1 7 acceptor
1 8 cation
6 1 8 10 11 13 14 rings
6 16 17 18 19 20 21 rings
6 4 17 20 22 23 25 rings

>  <PUBCHEM_HEAVY_ATOM_COUNT>  (1) 
27

>  <PUBCHEM_ATOM_DEF_STEREO_COUNT>  (1) 
0

>  <PUBCHEM_ATOM_UDEF_STEREO_COUNT>  (1) 
1

>  <PUBCHEM_BOND_DEF_STEREO_COUNT>  (1) 
0

>  <PUBCHEM_BOND_UDEF_STEREO_COUNT>  (1) 
0

>  <PUBCHEM_ISOTOPIC_ATOM_COUNT>  (1) 
0

>  <PUBCHEM_COMPONENT_COUNT>  (1) 
1

>  <PUBCHEM_CACTVS_TAUTO_COUNT>  (1) 
1

>  <PUBCHEM_CONFORMER_ID>  (1) 
0000ADDC00000001

>  <PUBCHEM_MMFF94_ENERGY>  (1) 
100.4305

>  <PUBCHEM_FEATURE_SELFOVERLAP>  (1) 
55.864

>  <PUBCHEM_SHAPE_FINGERPRINT>  (1) 
10319926 262 18129104415873725386
10498660 4 9294993718051922674
10928967 22 17532080618994156594
11725454 13 15554444085122902068
12107183 9 18046914779389455321
12422481 6 18266468611672134849
12553582 1 18334564721355410942
12633257 1 18410849971508487654
12788726 201 17911517919441479686
12839892 36 18343587322167709395
12892183 10 18343577430483695072
13140716 1 17482284003928801461
13533116 47 18187087303688303825
13583140 156 17896894346489150821
13914758 101 18113612358280648877
14178342 30 18196951971952747857
14468879 13 12966546721374758878
15664445 248 14851608808281858260
16110190 28 18341602669694622330
16728300 4 18261664888420599851
17349148 13 18202563999396581389
17959699 21 11240009931790119291
1813 80 16877665651589540630
19319366 153 18047481311482848396
21033648 29 16702017543955925296
21421861 104 18334293201928405780
23559900 14 17773337654745545957
2838139 119 12679169506206564202
3886686 26 17833554496875099211
460360 51 18260541199799325037
5104073 3 18339381720578173385
56633871 153 18268136583422852042
58807428 26 18271812263726128283
6823239 73 17987259784192114302
7064713 232 18129940079059491618
7097593 13 18410288151178937868
7970288 3 17823688656354154370
9862522 239 17917705769504241773

>  <PUBCHEM_SHAPE_MULTIPOLES>  (1) 
509.58
10.63
3.25
2.31
2.02
0.02
0.35
-0.8
-8.25
-0.26
0.42
-2.18
-0.63
-2.38

>  <PUBCHEM_SHAPE_SELFOVERLAP>  (1) 
1073.888

>  <PUBCHEM_SHAPE_VOLUME>  (1) 
287.5

>  <PUBCHEM_COORDINATE_TYPE>  (1) 
2
5
10

$$$$
