44506
     RDKit          3D

 26 27  0  0  1  0  0  0  0  0999 V2000
    1.0222    1.9856   -0.6570 O   0  0  0  0  0  0  0  0  0  0  0  0
    3.3072    3.5696   -0.7315 O   0  0  0  0  0  0  0  0  0  0  0  0
   -3.4198   -1.2849   -0.1921 O   0  0  0  0  0  0  0  0  0  0  0  0
    1.0462   -0.5698   -1.7177 O   0  0  0  0  0  0  0  0  0  0  0  0
   -1.1871   -2.1749   -1.4659 O   0  0  0  0  0  0  0  0  0  0  0  0
   -5.5597   -1.6424    0.5302 O   0  0  0  0  0  0  0  0  0  0  0  0
    3.6704    0.2816    0.9320 N   0  0  0  0  0  0  0  0  0  0  0  0
    4.0970   -2.1024    1.5103 C   0  0  0  0  0  0  0  0  0  0  0  0
    4.3124   -0.9554    0.5080 C   0  0  0  0  0  0  0  0  0  0  0  0
    3.8377    1.3251   -0.0704 C   0  0  0  0  0  0  0  0  0  0  0  0
    3.1223    2.6200    0.3221 C   0  0  0  0  0  0  0  0  0  0  0  0
    1.6241    2.4367    0.5543 C   0  0  0  0  0  0  0  0  0  0  0  0
    4.7743   -3.4026    1.0692 C   0  0  0  0  0  0  0  0  0  0  0  0
    2.5977   -2.3437    1.7050 C   0  0  0  0  0  0  0  0  0  0  0  0
   -0.0729    1.1818   -0.5417 C   0  0  0  0  0  0  0  0  0  0  0  0
   -2.3515    0.8661    0.2552 C   0  0  0  0  0  0  0  0  0  0  0  0
   -2.3120   -0.4189   -0.2882 C   0  0  0  0  0  0  0  0  0  0  0  0
   -1.2085    1.6650    0.1183 C   0  0  0  0  0  0  0  0  0  0  0  0
   -0.0623   -0.1060   -1.0747 C   0  0  0  0  0  0  0  0  0  0  0  0
   -1.1868   -0.9148   -0.9493 C   0  0  0  0  0  0  0  0  0  0  0  0
   -3.5779    1.3053    0.9347 C   0  0  0  0  0  0  0  0  0  0  0  0
   -4.6158    0.4606    1.0108 C   0  0  0  0  0  0  0  0  0  0  0  0
   -3.6519    2.6811    1.5302 C   0  0  0  0  0  0  0  0  0  0  0  0
   -4.5896   -0.8978    0.4426 C   0  0  0  0  0  0  0  0  0  0  0  0
    1.1239   -0.3389   -3.1227 C   0  0  0  0  0  0  0  0  0  0  0  0
   -0.7396   -3.2260   -0.6118 C   0  0  0  0  0  0  0  0  0  0  0  0
  1 12  1  0
  1 15  1  0
  2 11  1  0
  3 17  1  0
  3 24  1  0
  4 19  1  0
  4 25  1  0
  5 20  1  0
  5 26  1  0
  6 24  2  0
  7  9  1  0
  7 10  1  0
  8  9  1  0
  8 13  1  0
  8 14  1  0
 10 11  1  0
 11 12  1  0
 15 18  2  0
 15 19  1  0
 16 17  2  0
 16 18  1  0
 16 21  1  0
 17 20  1  0
 19 20  2  0
 21 22  2  0
 21 23  1  0
 22 24  1  0
M  END
>  <PUBCHEM_COMPOUND_CID>  (1) 
44506

>  <PUBCHEM_CONFORMER_RMSD>  (1) 
1

>  <PUBCHEM_CONFORMER_DIVERSEORDER>  (1) 
1
51
28
57
94
78
18
61
68
34
41
75
26
13
58
38
30
73
60
23
93
71
44
4
27
14
42
37
83
19
22
29
35
69
72
56
24
16
59
25
11
47
12
77
90
66
97
98
86
10
48
62
45
21
80
91
54
20
76
8
89
55
96
49
32
70
95
85
43
9
15
52
67
36
17
88
53
7
33
74
79
92
40
3
31
65
87
5
64
63
6
2
84
82
39
50
46
81

>  <PUBCHEM_MMFF94_PARTIAL_CHARGES>  (1) 
27
1 -0.36
10 0.27
11 0.28
12 0.28
15 0.08
16 0.03
17 0.08
18 -0.15
19 0.08
2 -0.68
20 0.08
21 -0.17
22 -0.14
23 0.14
24 0.71
25 0.28
26 0.28
3 -0.23
33 0.36
4 -0.36
42 0.15
43 0.4
44 0.15
5 -0.36
6 -0.57
7 -0.9
9 0.27

>  <PUBCHEM_EFFECTIVE_ROTOR_COUNT>  (1) 
9

>  <PUBCHEM_PHARMACOPHORE_FEATURES>  (1) 
11
1 1 acceptor
1 2 acceptor
1 2 donor
1 4 acceptor
1 5 acceptor
1 6 acceptor
1 7 cation
1 7 donor
3 8 13 14 hydrophobe
6 15 16 17 18 19 20 rings
6 3 16 17 21 22 24 rings

>  <PUBCHEM_HEAVY_ATOM_COUNT>  (1) 
26

>  <PUBCHEM_ATOM_DEF_STEREO_COUNT>  (1) 
0

>  <PUBCHEM_ATOM_UDEF_STEREO_COUNT>  (1) 
1

>  <PUBCHEM_BOND_DEF_STEREO_COUNT>  (1) 
0

>  <PUBCHEM_BOND_UDEF_STEREO_COUNT>  (1) 
0

>  <PUBCHEM_ISOTOPIC_ATOM_COUNT>  (1) 
0

>  <PUBCHEM_COMPONENT_COUNT>  (1) 
1

>  <PUBCHEM_CACTVS_TAUTO_COUNT>  (1) 
1

>  <PUBCHEM_CONFORMER_ID>  (1) 
0000ADDA00000001

>  <PUBCHEM_MMFF94_ENERGY>  (1) 
91.2076

>  <PUBCHEM_FEATURE_SELFOVERLAP>  (1) 
55.862

>  <PUBCHEM_SHAPE_FINGERPRINT>  (1) 
11578080 2 17822000969881154573
11725454 13 14404891467232684224
12107183 9 18122630452876228513
12467345 10 18412260653289713674
12553582 1 18265035978381371050
12633257 1 18269830931004116046
12788726 201 17842832502001767831
12839892 36 17703789253954118631
12892183 10 18341325682141266464
13140716 1 18128277626701679497
13533116 47 18334294309824168803
13583140 156 18260820518855381709
14178342 30 18127140675833006193
16110190 28 18270668772261119106
17349148 13 17989197170835582053
1813 80 17022902328878183342
19319366 153 18122907804995648704
21033648 29 16701737125282323050
21421861 104 18340218435366547811
23559900 14 17630627633866226093
23566358 27 18334572486535008170
2838139 119 11239698796044017554
3117164 225 18265897960547232153
460360 51 18335697209104048933
484985 159 16816844805028143626
5104073 3 18269294455798541035
56633871 153 18127399069418929126
6823239 73 17773900639428003196
7097593 13 18411409635996387720

>  <PUBCHEM_SHAPE_MULTIPOLES>  (1) 
494.87
10.06
3.98
1.81
1.54
0.31
1.08
-3.33
-5.87
-3.43
-0.66
-0.78
-0.55
-2.43

>  <PUBCHEM_SHAPE_SELFOVERLAP>  (1) 
1020.917

>  <PUBCHEM_SHAPE_VOLUME>  (1) 
286.2

>  <PUBCHEM_COORDINATE_TYPE>  (1) 
2
5
10

$$$$
