44514
     RDKit          3D

 19 20  0  0  0  0  0  0  0  0999 V2000
   -4.5964   -0.3345   -0.9677 O   0  0  0  0  0  0  0  0  0  0  0  0
    1.6904    1.7623   -0.1349 N   0  0  0  0  0  0  0  0  0  0  0  0
    0.5923    0.8099   -0.4225 C   0  0  0  0  0  0  0  0  0  0  0  0
    2.9938    1.3166   -0.8138 C   0  0  0  0  0  0  0  0  0  0  0  0
   -0.7133    1.2894    0.1997 C   0  0  0  0  0  0  0  0  0  0  0  0
    1.3443    3.1680   -0.6475 C   0  0  0  0  0  0  0  0  0  0  0  0
    1.9500    1.8579    1.3757 C   0  0  0  0  0  0  0  0  0  0  0  0
   -1.8915    0.3437   -0.0513 C   0  0  0  0  0  0  0  0  0  0  0  0
    3.4387   -0.0523   -0.3905 C   0  0  0  0  0  0  0  0  0  0  0  0
   -3.1903    0.9126    0.5295 C   0  0  0  0  0  0  0  0  0  0  0  0
    4.2797   -0.1941    0.7077 C   0  0  0  0  0  0  0  0  0  0  0  0
    3.0059   -1.1673   -1.1000 C   0  0  0  0  0  0  0  0  0  0  0  0
   -4.3501   -0.0270    0.3153 C   0  0  0  0  0  0  0  0  0  0  0  0
    4.6932   -1.4668    1.1015 C   0  0  0  0  0  0  0  0  0  0  0  0
    3.4194   -2.4399   -0.7061 C   0  0  0  0  0  0  0  0  0  0  0  0
    4.2631   -2.5896    0.3947 C   0  0  0  0  0  0  0  0  0  0  0  0
   -5.1979   -0.6246    1.1783 C   0  0  0  0  0  0  0  0  0  0  0  0
   -6.0693   -1.3871    0.3644 C   0  0  0  0  0  0  0  0  0  0  0  0
   -5.6620   -1.1772   -0.9325 C   0  0  0  0  0  0  0  0  0  0  0  0
  1 13  1  0
  1 19  1  0
  2  3  1  0
  2  4  1  0
  2  6  1  0
  2  7  1  0
  3  5  1  0
  4  9  1  0
  5  8  1  0
  8 10  1  0
  9 11  2  0
  9 12  1  0
 10 13  1  0
 11 14  1  0
 12 15  2  0
 13 17  2  0
 14 16  2  0
 15 16  1  0
 17 18  1  0
 18 19  2  0
M  CHG  1   2   1
M  END
>  <PUBCHEM_COMPOUND_CID>  (1) 
44514

>  <PUBCHEM_CONFORMER_RMSD>  (1) 
0.8

>  <PUBCHEM_CONFORMER_DIVERSEORDER>  (1) 
13
7
28
6
39
31
51
24
27
15
43
47
16
37
8
44
5
1
32
25
22
34
50
20
23
29
11
3
26
45
2
40
17
10
4
41
30
21
46
12
18
49
19
33
14
42
48
38
9
35
36

>  <PUBCHEM_MMFF94_PARTIAL_CHARGES>  (1) 
25
1 -0.28
10 0.18
11 -0.15
12 -0.15
13 -0.04
14 -0.15
15 -0.15
16 -0.15
17 -0.15
18 -0.15
19 -0.01
2 -1.01
3 0.5
36 0.15
37 0.15
38 0.15
39 0.15
4 0.65
40 0.15
41 0.15
42 0.15
43 0.15
6 0.5
7 0.5
9 -0.14

>  <PUBCHEM_EFFECTIVE_ROTOR_COUNT>  (1) 
7

>  <PUBCHEM_PHARMACOPHORE_FEATURES>  (1) 
4
1 1 acceptor
1 2 cation
5 1 13 17 18 19 rings
6 9 11 12 14 15 16 rings

>  <PUBCHEM_HEAVY_ATOM_COUNT>  (1) 
19

>  <PUBCHEM_ATOM_DEF_STEREO_COUNT>  (1) 
0

>  <PUBCHEM_ATOM_UDEF_STEREO_COUNT>  (1) 
0

>  <PUBCHEM_BOND_DEF_STEREO_COUNT>  (1) 
0

>  <PUBCHEM_BOND_UDEF_STEREO_COUNT>  (1) 
0

>  <PUBCHEM_ISOTOPIC_ATOM_COUNT>  (1) 
0

>  <PUBCHEM_COMPONENT_COUNT>  (1) 
1

>  <PUBCHEM_CACTVS_TAUTO_COUNT>  (1) 
1

>  <PUBCHEM_CONFORMER_ID>  (1) 
0000ADE20000000D

>  <PUBCHEM_MMFF94_ENERGY>  (1) 
46.6161

>  <PUBCHEM_FEATURE_SELFOVERLAP>  (1) 
20.297

>  <PUBCHEM_SHAPE_FINGERPRINT>  (1) 
10378564 45 12252178546436763906
10447042 23 18260263036717029318
10670039 82 13118272642833363535
11405975 8 18343589512791454425
11595378 159 15410624635789456323
12107183 9 18125735487067305633
12596602 18 16917350341856127850
12769317 202 8790884060265352254
12839892 36 17346881156917865439
12892183 10 17489020445099252976
13167823 11 18273219716203760717
13533116 47 18342177808300687705
13911852 28 18266173942097318386
13955234 65 18267306623673392128
14123256 34 18339933610516397454
1420 369 18342178838707898519
14251740 57 17988932119814038822
14251751 18 18336823109073876121
14347332 77 18411135836500800957
14528608 73 7853566894787668411
14848178 5 18410007698161642643
14863182 85 17775013379729078902
15210252 30 9511164258130286686
15250474 111 18058161903279256223
15342816 4 18335992952431251212
17349148 13 18202292402723136867
17844677 252 18040719186534035277
17857418 61 18272647965820288319
17959699 21 8502381027015966535
193927 3 18335710429276804875
1979834 28 17560808697116345879
20028762 73 18273211984630723511
20369508 70 18412546539388065564
20388580 30 18113623365580364684
20626108 58 18337106766078901560
20645477 70 18259988201327157040
21315764 119 15864342494385082979
22061861 79 17968092036777223327
22224240 67 18200304550699920048
2303208 19 17168155576477663113
23559900 14 18263084486306264977
23596394 208 17458057153867885739
239999 70 17604710108948552392
25122255 55 17968668219730937203
270888 7 9943223945060341930
3004659 81 18113623365527422230
3060560 45 12684812208644175456
314194 84 18410859871170448723
3421961 26 18410572903131390248
34797466 226 16371295549269884565
44062 13 18189897509438442605
46194498 28 17385725837195403116
465052 167 18411143545070396078
5104073 3 18060146470459366897
5281201 14 17894912953574208909
5718773 13 18043241350297187082
6025842 7 18262242252015305916
7808743 9 10878548808801504730
7970288 3 18191867829849126554
960060 61 17385733486389614878
9841814 1 17489310819021679048

>  <PUBCHEM_SHAPE_MULTIPOLES>  (1) 
380.16
14.27
2.82
1.17
19.63
0.53
-0.11
-10.4
-1.29
-3.43
0.23
-0.18
-0.05
-0.38

>  <PUBCHEM_SHAPE_SELFOVERLAP>  (1) 
782.032

>  <PUBCHEM_SHAPE_VOLUME>  (1) 
221.3

>  <PUBCHEM_COORDINATE_TYPE>  (1) 
2
5
10

$$$$
