44510
     RDKit          3D

 26 27  0  0  1  0  0  0  0  0999 V2000
    1.3365    0.1995    1.5732 O   0  0  0  0  0  0  0  0  0  0  0  0
    3.9282   -0.0349    2.5550 O   0  0  0  0  0  0  0  0  0  0  0  0
   -3.7470    0.4111   -0.6078 O   0  0  0  0  0  0  0  0  0  0  0  0
    0.3536    2.5695    0.5373 O   0  0  0  0  0  0  0  0  0  0  0  0
   -2.1865    2.6383   -0.5447 O   0  0  0  0  0  0  0  0  0  0  0  0
   -5.7181   -0.6075   -1.1607 O   0  0  0  0  0  0  0  0  0  0  0  0
    3.5168   -0.6042   -1.0805 N   0  0  0  0  0  0  0  0  0  0  0  0
    3.9210    0.0486    0.1572 C   0  0  0  0  0  0  0  0  0  0  0  0
    3.5289   -0.7661    1.3921 C   0  0  0  0  0  0  0  0  0  0  0  0
    2.0298   -1.0431    1.4829 C   0  0  0  0  0  0  0  0  0  0  0  0
    3.8015    0.2523   -2.2338 C   0  0  0  0  0  0  0  0  0  0  0  0
    4.1932   -1.8947   -1.2290 C   0  0  0  0  0  0  0  0  0  0  0  0
    0.0842    0.2496    1.0368 C   0  0  0  0  0  0  0  0  0  0  0  0
    3.1095    1.5984   -2.1020 C   0  0  0  0  0  0  0  0  0  0  0  0
    3.7292   -2.6166   -2.4828 C   0  0  0  0  0  0  0  0  0  0  0  0
   -1.9890   -0.8957    0.4737 C   0  0  0  0  0  0  0  0  0  0  0  0
   -0.6976   -0.9111    1.0174 C   0  0  0  0  0  0  0  0  0  0  0  0
   -2.4596    0.3126   -0.0427 C   0  0  0  0  0  0  0  0  0  0  0  0
   -0.4123    1.4423    0.5137 C   0  0  0  0  0  0  0  0  0  0  0  0
   -1.6917    1.4784   -0.0305 C   0  0  0  0  0  0  0  0  0  0  0  0
   -2.8656   -2.0735    0.4186 C   0  0  0  0  0  0  0  0  0  0  0  0
   -4.0849   -1.9503   -0.1242 C   0  0  0  0  0  0  0  0  0  0  0  0
   -2.3887   -3.3877    0.9650 C   0  0  0  0  0  0  0  0  0  0  0  0
   -4.5957   -0.6828   -0.6730 C   0  0  0  0  0  0  0  0  0  0  0  0
    0.7722    3.0413    1.8162 C   0  0  0  0  0  0  0  0  0  0  0  0
   -1.4678    3.2262   -1.6275 C   0  0  0  0  0  0  0  0  0  0  0  0
  1 10  1  0
  1 13  1  0
  2  9  1  0
  3 18  1  0
  3 24  1  0
  4 19  1  0
  4 25  1  0
  5 20  1  0
  5 26  1  0
  6 24  2  0
  7  8  1  0
  7 11  1  0
  7 12  1  0
  8  9  1  0
  9 10  1  0
 11 14  1  0
 12 15  1  0
 13 17  2  0
 13 19  1  0
 16 17  1  0
 16 18  2  0
 16 21  1  0
 18 20  1  0
 19 20  2  0
 21 22  2  0
 21 23  1  0
 22 24  1  0
M  END
>  <PUBCHEM_COMPOUND_CID>  (1) 
44510

>  <PUBCHEM_CONFORMER_RMSD>  (1) 
1

>  <PUBCHEM_CONFORMER_DIVERSEORDER>  (1) 
2
53
20
62
33
44
66
85
12
83
13
46
58
77
48
43
72
75
60
80
67
78
14
68
79
76
29
70
59
56
10
52
18
25
22
17
24
27
64
9
40
47
73
45
5
37
31
11
63
86
16
41
69
23
34
54
26
42
61
38
8
35
39
71
49
82
28
65
15
3
81
7
50
6
84
51
36
55
19
1
4
57
21
30
74
32

>  <PUBCHEM_MMFF94_PARTIAL_CHARGES>  (1) 
27
1 -0.36
10 0.28
11 0.27
12 0.27
13 0.08
16 0.03
17 -0.15
18 0.08
19 0.08
2 -0.68
20 0.08
21 -0.17
22 -0.14
23 0.14
24 0.71
25 0.28
26 0.28
3 -0.23
4 -0.36
42 0.15
43 0.4
44 0.15
5 -0.36
6 -0.57
7 -0.81
8 0.27
9 0.28

>  <PUBCHEM_EFFECTIVE_ROTOR_COUNT>  (1) 
9

>  <PUBCHEM_PHARMACOPHORE_FEATURES>  (1) 
9
1 1 acceptor
1 2 acceptor
1 2 donor
1 4 acceptor
1 5 acceptor
1 6 acceptor
1 7 cation
6 13 16 17 18 19 20 rings
6 3 16 18 21 22 24 rings

>  <PUBCHEM_HEAVY_ATOM_COUNT>  (1) 
26

>  <PUBCHEM_ATOM_DEF_STEREO_COUNT>  (1) 
0

>  <PUBCHEM_ATOM_UDEF_STEREO_COUNT>  (1) 
1

>  <PUBCHEM_BOND_DEF_STEREO_COUNT>  (1) 
0

>  <PUBCHEM_BOND_UDEF_STEREO_COUNT>  (1) 
0

>  <PUBCHEM_ISOTOPIC_ATOM_COUNT>  (1) 
0

>  <PUBCHEM_COMPONENT_COUNT>  (1) 
1

>  <PUBCHEM_CACTVS_TAUTO_COUNT>  (1) 
1

>  <PUBCHEM_CONFORMER_ID>  (1) 
0000ADDE00000002

>  <PUBCHEM_MMFF94_ENERGY>  (1) 
96.4876

>  <PUBCHEM_FEATURE_SELFOVERLAP>  (1) 
45.713

>  <PUBCHEM_SHAPE_FINGERPRINT>  (1) 
12035759 4 17894352180815499101
12422481 6 13253982095054519851
12553582 1 18335706056958159739
12788726 201 18261395529055818793
13140716 1 18191287472698307379
14790565 3 18262521369450830429
14910302 57 18271522009520046126
15475509 8 18271814463266270541
15484559 13 15597786137821810955
15664445 248 17898852614984225925
16752209 62 18261673666689849474
1813 80 18059856177281976105
192875 21 17168135716190345848
19319366 153 17385990785317813667
20693207 138 18131072576363440510
20775530 9 17627543469939981934
21033650 10 18043540417248198144
21285901 2 18342733009853792151
23557571 272 18342168930634981000
23559900 14 18339085985814076356
238 59 16660947538037274556
2748010 2 18046326794466459841
474 4 13912326797839540854
84936 31 17415546873142149832

>  <PUBCHEM_SHAPE_MULTIPOLES>  (1) 
494.87
9.5
3.54
2.26
1.12
1.06
0.22
-5.51
4.5
1.22
0.48
-3.16
0.13
1.35

>  <PUBCHEM_SHAPE_SELFOVERLAP>  (1) 
1025.628

>  <PUBCHEM_SHAPE_VOLUME>  (1) 
285.4

>  <PUBCHEM_COORDINATE_TYPE>  (1) 
2
5
10

$$$$
