44516
     RDKit          3D

 15 15  0  0  0  0  0  0  0  0999 V2000
   -3.8197   -0.4463   -0.9616 O   0  0  0  0  0  0  0  0  0  0  0  0
    3.8301   -0.4297    0.2050 N   0  0  0  0  0  0  0  0  0  0  0  0
    2.7449    0.5775    0.1455 C   0  0  0  0  0  0  0  0  0  0  0  0
    1.3803   -0.1004    0.1401 C   0  0  0  0  0  0  0  0  0  0  0  0
    5.2051    0.2504    0.2757 C   0  0  0  0  0  0  0  0  0  0  0  0
    3.6786   -1.3250    1.4436 C   0  0  0  0  0  0  0  0  0  0  0  0
    3.8090   -1.3309   -1.0383 C   0  0  0  0  0  0  0  0  0  0  0  0
    0.2104    0.8852    0.0696 C   0  0  0  0  0  0  0  0  0  0  0  0
   -1.1324    0.1506    0.0557 C   0  0  0  0  0  0  0  0  0  0  0  0
    5.3832    1.1412   -0.9343 C   0  0  0  0  0  0  0  0  0  0  0  0
   -2.3045    1.1356    0.0261 C   0  0  0  0  0  0  0  0  0  0  0  0
   -3.6305    0.4179    0.0474 C   0  0  0  0  0  0  0  0  0  0  0  0
   -4.6760    0.4802    0.8982 C   0  0  0  0  0  0  0  0  0  0  0  0
   -5.6234   -0.4343    0.3793 C   0  0  0  0  0  0  0  0  0  0  0  0
   -5.0552   -0.9720   -0.7520 C   0  0  0  0  0  0  0  0  0  0  0  0
  1 12  1  0
  1 15  1  0
  2  3  1  0
  2  5  1  0
  2  6  1  0
  2  7  1  0
  3  4  1  0
  4  8  1  0
  5 10  1  0
  8  9  1  0
  9 11  1  0
 11 12  1  0
 12 13  2  0
 13 14  1  0
 14 15  2  0
M  CHG  1   2   1
M  END
>  <PUBCHEM_COMPOUND_CID>  (1) 
44516

>  <PUBCHEM_CONFORMER_RMSD>  (1) 
0.8

>  <PUBCHEM_CONFORMER_DIVERSEORDER>  (1) 
1
86
43
60
41
39
63
16
50
42
30
9
17
75
10
47
52
2
29
73
37
84
49
59
67
24
25
71
56
64
76
54
87
69
19
82
13
27
88
38
70
21
77
26
65
20
79
40
18
72
66
48
32
34
74
68
46
36
58
15
85
12
22
44
31
78
7
53
23
57
33
45
55
4
81
6
83
62
8
11
35
61
3
28
5
80
51
14

>  <PUBCHEM_MMFF94_PARTIAL_CHARGES>  (1) 
14
1 -0.28
11 0.18
12 -0.04
13 -0.15
14 -0.15
15 -0.01
2 -1.01
3 0.5
37 0.15
38 0.15
39 0.15
5 0.5
6 0.5
7 0.5

>  <PUBCHEM_EFFECTIVE_ROTOR_COUNT>  (1) 
7

>  <PUBCHEM_PHARMACOPHORE_FEATURES>  (1) 
4
1 1 acceptor
1 2 cation
4 4 8 9 11 hydrophobe
5 1 12 13 14 15 rings

>  <PUBCHEM_HEAVY_ATOM_COUNT>  (1) 
15

>  <PUBCHEM_ATOM_DEF_STEREO_COUNT>  (1) 
0

>  <PUBCHEM_ATOM_UDEF_STEREO_COUNT>  (1) 
0

>  <PUBCHEM_BOND_DEF_STEREO_COUNT>  (1) 
0

>  <PUBCHEM_BOND_UDEF_STEREO_COUNT>  (1) 
0

>  <PUBCHEM_ISOTOPIC_ATOM_COUNT>  (1) 
0

>  <PUBCHEM_COMPONENT_COUNT>  (1) 
1

>  <PUBCHEM_CACTVS_TAUTO_COUNT>  (1) 
1

>  <PUBCHEM_CONFORMER_ID>  (1) 
0000ADE400000001

>  <PUBCHEM_MMFF94_ENERGY>  (1) 
28.2496

>  <PUBCHEM_FEATURE_SELFOVERLAP>  (1) 
20.297

>  <PUBCHEM_SHAPE_FINGERPRINT>  (1) 
10912923 1 18409167679778305408
11089746 13 11458424665141261628
11128504 68 18334298677710904628
11287383 113 16732988651758446264
114248 4 17022621983198426273
12596602 18 14333122009718646639
12616999 72 18131073714972677910
13167823 11 18343863303501459759
13533116 47 16950274075911142128
13675066 3 15554444098218605489
14123238 8 18410573989530931408
1420 363 18041002842641494971
14251718 22 18410857680895461108
14251764 18 17988929960162432617
17834072 33 18342176691398460252
17834076 25 17775850120619748116
17844677 252 17967817124009719013
19433438 28 15267342916049979547
19489759 90 13262393367248306869
200 152 18113897156929037513
20281389 69 10231758881537532451
20300324 65 13479134593042757823
20645477 70 18040714719678285770
212847 35 9151169861934318230
220451 1 18060425715762552615
22646028 1 18335697221967500545
2297311 6 17060348426255371409
23035841 295 17918279744416840854
23218964 4 11024114234969778432
23402539 116 18260825982291152253
23590187 156 14273457006926265545
300161 21 18342170068263360753
351380 3 18342454850565284471
42 15 17561083587944562261
42788 4 18408323284960384360
4325135 7 18335703858019241628
542803 24 18343304764289605937
5924683 9 15266761330971985093
7062679 117 18411702131648215871

>  <PUBCHEM_SHAPE_MULTIPOLES>  (1) 
297.84
15.39
1.24
1.04
3.42
0.13
0.03
1.5
-0.88
-0.83
-0.05
-0.41
0.27
-0.91

>  <PUBCHEM_SHAPE_SELFOVERLAP>  (1) 
579.163

>  <PUBCHEM_SHAPE_VOLUME>  (1) 
184

>  <PUBCHEM_COORDINATE_TYPE>  (1) 
2
5
10

$$$$
