44526
     RDKit          3D

 14 14  0  0  1  0  0  0  0  0999 V2000
    3.2121    1.0255   -0.1427 O   0  0  0  0  0  0  0  0  0  0  0  0
   -3.6815    0.5234    0.4182 N   0  0  0  0  0  0  0  0  0  0  0  0
   -3.3465   -0.4149   -0.6563 C   0  0  0  0  0  0  0  0  0  0  0  0
   -1.8763   -0.2065   -1.0553 C   0  0  0  0  0  0  0  0  0  0  0  0
   -0.8967   -0.4373    0.1002 C   0  0  0  0  0  0  0  0  0  0  0  0
    0.5481   -0.1889   -0.3407 C   0  0  0  0  0  0  0  0  0  0  0  0
   -3.6375   -1.8338   -0.1726 C   0  0  0  0  0  0  0  0  0  0  0  0
    1.5247   -0.3884    0.8204 C   0  0  0  0  0  0  0  0  0  0  0  0
   -5.0954    0.4091    0.7702 C   0  0  0  0  0  0  0  0  0  0  0  0
   -3.3613    1.8915    0.0166 C   0  0  0  0  0  0  0  0  0  0  0  0
    2.9536   -0.1799    0.3884 C   0  0  0  0  0  0  0  0  0  0  0  0
    4.0366   -0.9841    0.4338 C   0  0  0  0  0  0  0  0  0  0  0  0
    5.0863   -0.2150   -0.1227 C   0  0  0  0  0  0  0  0  0  0  0  0
    4.5338    0.9993   -0.4576 C   0  0  0  0  0  0  0  0  0  0  0  0
  1 11  1  0
  1 14  1  0
  2  3  1  0
  2  9  1  0
  2 10  1  0
  3  4  1  0
  3  7  1  0
  4  5  1  0
  5  6  1  0
  6  8  1  0
  8 11  1  0
 11 12  2  0
 12 13  1  0
 13 14  2  0
M  END
>  <PUBCHEM_COMPOUND_CID>  (1) 
44526

>  <PUBCHEM_CONFORMER_RMSD>  (1) 
0.6

>  <PUBCHEM_CONFORMER_DIVERSEORDER>  (1) 
126
120
131
7
162
166
50
192
36
2
51
183
68
168
5
105
193
40
42
12
161
164
148
141
60
178
132
17
54
6
110
30
52
28
47
127
170
53
158
189
8
91
118
25
181
46
151
31
15
88
186
84
33
188
137
165
62
142
167
111
1
55
103
59
180
108
187
129
24
128
145
87
104
191
176
27
76
159
125
19
130
99
67
90
160
21
34
95
45
58
163
38
4
177
49
143
86
3
147
133
138
44
144
94
171
48
75
122
112
32
169
149
174
85
57
146
140
13
124
64
106
92
155
153
26
23
66
139
41
56
80
135
184
156
116
150
107
11
81
35
114
63
22
117
14
175
157
179
20
115
154
98
65
74
69
121
119
93
29
73
190
97
182
16
83
79
77
102
134
89
100
185
78
172
82
10
71
113
9
101
43
152
136
109
123
96
70
18
72
61
173
39
37

>  <PUBCHEM_MMFF94_PARTIAL_CHARGES>  (1) 
13
1 -0.28
10 0.27
11 -0.04
12 -0.15
13 -0.15
14 -0.01
2 -0.81
3 0.27
33 0.15
34 0.15
35 0.15
8 0.18
9 0.27

>  <PUBCHEM_EFFECTIVE_ROTOR_COUNT>  (1) 
6

>  <PUBCHEM_PHARMACOPHORE_FEATURES>  (1) 
4
1 1 acceptor
1 2 cation
4 4 5 6 8 hydrophobe
5 1 11 12 13 14 rings

>  <PUBCHEM_HEAVY_ATOM_COUNT>  (1) 
14

>  <PUBCHEM_ATOM_DEF_STEREO_COUNT>  (1) 
0

>  <PUBCHEM_ATOM_UDEF_STEREO_COUNT>  (1) 
1

>  <PUBCHEM_BOND_DEF_STEREO_COUNT>  (1) 
0

>  <PUBCHEM_BOND_UDEF_STEREO_COUNT>  (1) 
0

>  <PUBCHEM_ISOTOPIC_ATOM_COUNT>  (1) 
0

>  <PUBCHEM_COMPONENT_COUNT>  (1) 
1

>  <PUBCHEM_CACTVS_TAUTO_COUNT>  (1) 
1

>  <PUBCHEM_CONFORMER_ID>  (1) 
0000ADEE0000007E

>  <PUBCHEM_MMFF94_ENERGY>  (1) 
17.3323

>  <PUBCHEM_FEATURE_SELFOVERLAP>  (1) 
20.297

>  <PUBCHEM_SHAPE_FINGERPRINT>  (1) 
10354089 29 18260552220980642680
10680689 15 17168139035888926655
10912923 1 18334570261330544250
11401426 45 12247676062967990563
11615757 297 17821725056823463108
12107183 9 17688305694529484026
12815109 37 9007055760026090009
13167823 11 18409163316276460370
13675066 3 17632290194537697142
13760787 19 18342737420579651831
13897977 58 18411140234273018341
14123238 8 12324244966268409922
1420 363 15791734091959934714
14251764 75 16013002187699904692
14252887 29 15864069837018006722
15239154 128 18411134740593251792
15242439 84 15410895162830945970
17834072 33 18334857250839424078
17834072 8 15410899556661611116
18186145 218 18186512207519896142
1986462 14 17346593101739773463
20279233 1 14261351375324871924
20281475 54 18335409162874906122
20325693 3 18059855078102469311
20645477 56 18201440251415786781
20645477 70 18261673680366529282
21652331 79 18407759231248217573
22485316 2 9655578513088289670
22854114 59 17094958844615549504
23402539 116 18342451543540550580
23402655 69 18409730699210643990
4214541 1 18411698776998935981
5104073 3 18410006671833199746
522135 26 18408040698230618314
542803 24 18343021103585790380
77779 3 18410291415248327838

>  <PUBCHEM_SHAPE_MULTIPOLES>  (1) 
277.26
12.31
1.4
0.88
3.23
0.13
-0.03
1.21
0.78
-1.12
-0.03
-0.29
-0.03
-0.7

>  <PUBCHEM_SHAPE_SELFOVERLAP>  (1) 
545.232

>  <PUBCHEM_SHAPE_VOLUME>  (1) 
169.3

>  <PUBCHEM_COORDINATE_TYPE>  (1) 
2
5
10

$$$$
