44520
     RDKit          3D

 16 16  0  0  1  0  0  0  0  0999 V2000
   -3.9153    0.5206    0.8974 O   0  0  0  0  0  0  0  0  0  0  0  0
    3.7391   -0.0135    0.4121 N   0  0  0  0  0  0  0  0  0  0  0  0
    2.6747    0.4630   -0.5135 C   0  0  0  0  0  0  0  0  0  0  0  0
    1.3005    0.0400    0.0205 C   0  0  0  0  0  0  0  0  0  0  0  0
    3.6201   -1.5250    0.6400 C   0  0  0  0  0  0  0  0  0  0  0  0
    5.1287    0.2777   -0.1667 C   0  0  0  0  0  0  0  0  0  0  0  0
    3.6272    0.6881    1.7708 C   0  0  0  0  0  0  0  0  0  0  0  0
    0.0995    0.4793   -0.8249 C   0  0  0  0  0  0  0  0  0  0  0  0
    2.8384    1.9639   -0.7043 C   0  0  0  0  0  0  0  0  0  0  0  0
   -1.2189    0.0623   -0.1664 C   0  0  0  0  0  0  0  0  0  0  0  0
    3.7969   -2.2434   -0.6799 C   0  0  0  0  0  0  0  0  0  0  0  0
   -2.4234    0.5337   -0.9863 C   0  0  0  0  0  0  0  0  0  0  0  0
   -3.7235    0.0951   -0.3610 C   0  0  0  0  0  0  0  0  0  0  0  0
   -4.7433   -0.6531   -0.8311 C   0  0  0  0  0  0  0  0  0  0  0  0
   -5.6753   -0.7091    0.2325 C   0  0  0  0  0  0  0  0  0  0  0  0
   -5.1253    0.0202    1.2609 C   0  0  0  0  0  0  0  0  0  0  0  0
  1 13  1  0
  1 16  1  0
  2  3  1  0
  2  5  1  0
  2  6  1  0
  2  7  1  0
  3  4  1  0
  3  9  1  0
  4  8  1  0
  5 11  1  0
  8 10  1  0
 10 12  1  0
 12 13  1  0
 13 14  2  0
 14 15  1  0
 15 16  2  0
M  CHG  1   2   1
M  END
>  <PUBCHEM_COMPOUND_CID>  (1) 
44520

>  <PUBCHEM_CONFORMER_RMSD>  (1) 
0.8

>  <PUBCHEM_CONFORMER_DIVERSEORDER>  (1) 
1
109
92
53
106
29
110
66
78
37
102
4
107
112
77
84
108
38
6
69
18
94
111
2
98
75
67
82
21
52
16
47
41
17
62
22
20
43
33
89
80
57
61
96
101
105
87
13
40
55
30
104
97
15
90
48
36
58
24
45
39
23
64
9
71
56
44
70
5
65
50
35
14
81
49
91
83
51
73
76
72
95
103
100
12
46
74
86
99
10
93
7
26
19
54
59
11
63
79
60
85
27
28
68
3
8
88
25
34
31
42
32

>  <PUBCHEM_MMFF94_PARTIAL_CHARGES>  (1) 
14
1 -0.28
12 0.18
13 -0.04
14 -0.15
15 -0.15
16 -0.01
2 -1.01
3 0.5
40 0.15
41 0.15
42 0.15
5 0.5
6 0.5
7 0.5

>  <PUBCHEM_EFFECTIVE_ROTOR_COUNT>  (1) 
7

>  <PUBCHEM_PHARMACOPHORE_FEATURES>  (1) 
4
1 1 acceptor
1 2 cation
4 4 8 10 12 hydrophobe
5 1 13 14 15 16 rings

>  <PUBCHEM_HEAVY_ATOM_COUNT>  (1) 
16

>  <PUBCHEM_ATOM_DEF_STEREO_COUNT>  (1) 
0

>  <PUBCHEM_ATOM_UDEF_STEREO_COUNT>  (1) 
1

>  <PUBCHEM_BOND_DEF_STEREO_COUNT>  (1) 
0

>  <PUBCHEM_BOND_UDEF_STEREO_COUNT>  (1) 
0

>  <PUBCHEM_ISOTOPIC_ATOM_COUNT>  (1) 
0

>  <PUBCHEM_COMPONENT_COUNT>  (1) 
1

>  <PUBCHEM_CACTVS_TAUTO_COUNT>  (1) 
1

>  <PUBCHEM_CONFORMER_ID>  (1) 
0000ADE800000001

>  <PUBCHEM_MMFF94_ENERGY>  (1) 
40.9021

>  <PUBCHEM_FEATURE_SELFOVERLAP>  (1) 
20.297

>  <PUBCHEM_SHAPE_FINGERPRINT>  (1) 
10014705 185 12247670566074496533
10354089 29 17704352186732730792
10912923 1 17346872369108614159
11089746 13 9295287227220807782
12107183 9 17625271805532527339
12596602 18 17489304226220213515
13167823 11 18412544314716319103
13533116 47 18059576849583522698
13675066 3 18341324522499777981
13955234 65 18410569596691848634
14123238 8 18333167275708193629
1420 363 17313107457988662065
14251718 22 14707212131795795556
14252887 29 18333727997080003444
14366163 111 9079117756474263271
14455015 7 18040721337832342531
14528608 73 8142078754353070483
15239154 128 12175619590259483275
17844677 252 16660365883306458277
17870717 6 15719113544391081811
17959699 21 10447934966507657735
193927 3 17822300054444810741
200 152 17749103401105497053
20369508 70 16588298402296005716
20432913 95 18333733507285706435
20645477 70 18040154028476339022
212847 35 13398629468063698338
220451 1 18202568393037257703
22224240 67 18336537318477927168
22646028 1 17313097545030179941
23402539 116 18411976966980001037
23402655 69 9583513231153944776
23557571 272 16081357528074970111
23559900 14 15719675463141058173
239999 70 17530686532865360492
3004659 81 13695857104757832864
3060560 45 8790888506163418576
312423 11 18041574563076994765
42 15 18202563951618911439
5104073 3 18263353703541304272
5352402 22 18409168770763373471
5374978 207 17275385399829900704
54040823 5 17967530156571072752
542803 24 17060338543508976524
573450 72 17560797723965059839
90127 26 17603588521605431157
960060 61 12829207762904037206

>  <PUBCHEM_SHAPE_MULTIPOLES>  (1) 
318.42
14.03
1.49
1.23
11.28
0.43
0.39
2.73
2.39
-2.25
-0.31
-0.02
-0.12
0.09

>  <PUBCHEM_SHAPE_SELFOVERLAP>  (1) 
622.685

>  <PUBCHEM_SHAPE_VOLUME>  (1) 
195.8

>  <PUBCHEM_COORDINATE_TYPE>  (1) 
2
5
10

$$$$
