44530
     RDKit          3D

 15 15  0  0  1  0  0  0  0  0999 V2000
    4.9003   -1.5286   -0.1215 Br  0  0  0  0  0  0  0  0  0  0  0  0
   -1.4009    3.1613   -1.1220 O   0  0  0  0  0  0  0  0  0  0  0  0
   -0.7555    0.7153    0.1352 N   0  0  0  0  0  0  0  0  0  0  0  0
   -1.8542    0.0678   -0.5401 C   0  0  0  0  0  0  0  0  0  0  0  0
   -2.4836   -0.9998    0.3508 C   0  0  0  0  0  0  0  0  0  0  0  0
   -1.0253    1.9305    0.9062 C   0  0  0  0  0  0  0  0  0  0  0  0
   -3.6261   -1.7476   -0.3412 C   0  0  0  0  0  0  0  0  0  0  0  0
    0.5465    0.1982    0.0760 C   0  0  0  0  0  0  0  0  0  0  0  0
   -0.6559    3.1570    0.0893 C   0  0  0  0  0  0  0  0  0  0  0  0
   -4.1881   -2.8471    0.5465 C   0  0  0  0  0  0  0  0  0  0  0  0
    0.8096   -0.9697   -0.6477 C   0  0  0  0  0  0  0  0  0  0  0  0
    1.5940    0.8463    0.7394 C   0  0  0  0  0  0  0  0  0  0  0  0
    2.1050   -1.4835   -0.7071 C   0  0  0  0  0  0  0  0  0  0  0  0
    2.8894    0.3324    0.6798 C   0  0  0  0  0  0  0  0  0  0  0  0
    3.1449   -0.8325   -0.0435 C   0  0  0  0  0  0  0  0  0  0  0  0
  1 15  1  0
  2  9  1  0
  3  4  1  0
  3  6  1  0
  3  8  1  0
  4  5  1  0
  5  7  1  0
  6  9  1  0
  7 10  1  0
  8 11  2  0
  8 12  1  0
 11 13  1  0
 12 14  2  0
 13 15  2  0
 14 15  1  0
M  END
>  <PUBCHEM_COMPOUND_CID>  (1) 
44530

>  <PUBCHEM_CONFORMER_RMSD>  (1) 
0.8

>  <PUBCHEM_CONFORMER_DIVERSEORDER>  (1) 
2
16
10
4
33
12
29
40
36
21
14
28
3
25
15
34
5
30
24
9
39
11
26
13
1
31
38
23
37
7
19
35
32
8
18
27
20
22
17
6

>  <PUBCHEM_MMFF94_PARTIAL_CHARGES>  (1) 
17
1 -0.11
11 -0.15
12 -0.15
13 -0.15
14 -0.15
15 0.11
2 -0.68
29 0.15
3 -0.84
30 0.15
31 0.15
32 0.15
33 0.4
4 0.37
6 0.37
8 0.1
9 0.28

>  <PUBCHEM_EFFECTIVE_ROTOR_COUNT>  (1) 
6

>  <PUBCHEM_PHARMACOPHORE_FEATURES>  (1) 
6
1 1 hydrophobe
1 10 hydrophobe
1 2 acceptor
1 2 donor
1 3 cation
6 8 11 12 13 14 15 rings

>  <PUBCHEM_HEAVY_ATOM_COUNT>  (1) 
15

>  <PUBCHEM_ATOM_DEF_STEREO_COUNT>  (1) 
0

>  <PUBCHEM_ATOM_UDEF_STEREO_COUNT>  (1) 
0

>  <PUBCHEM_BOND_DEF_STEREO_COUNT>  (1) 
0

>  <PUBCHEM_BOND_UDEF_STEREO_COUNT>  (1) 
0

>  <PUBCHEM_ISOTOPIC_ATOM_COUNT>  (1) 
0

>  <PUBCHEM_COMPONENT_COUNT>  (1) 
1

>  <PUBCHEM_CACTVS_TAUTO_COUNT>  (1) 
1

>  <PUBCHEM_CONFORMER_ID>  (1) 
0000ADF200000002

>  <PUBCHEM_MMFF94_ENERGY>  (1) 
38.3147

>  <PUBCHEM_FEATURE_SELFOVERLAP>  (1) 
30.446

>  <PUBCHEM_SHAPE_FINGERPRINT>  (1) 
12032990 46 18412262877982922315
12138202 97 18048875187114820212
12500047 106 17976254639107844628
12532896 13 17764871290810917693
12730499 353 16968583989309074765
13955234 65 17618793891581712347
14252887 29 18268989967369258267
15422964 175 18341333374570053207
15501101 241 17917146233738149169
15885798 251 18410296930223855875
16945 1 17767969727758096544
17539 30 18337944598260556077
17844478 74 18272931622255230862
18186145 218 11242235325971042003
18534176 82 18197489623989866932
19591789 44 16752974758031449228
20645477 70 17832692845100479511
20671657 53 18265619951841088195
20871998 22 18339922739816423513
21029758 27 18340490083247212031
21426921 1 18337956667139522668
21665056 4 17761776165562553127
23402539 116 18409445873463467390
23557571 272 18341895134558772092
23559900 14 18338786837104815288
2748010 2 17987784225542917360
458136 41 17255415232781750827
5104073 3 18058161736160614730
7364860 26 17906736161047542033
81228 2 18338245855882953745
8809292 202 18340486655894990674

>  <PUBCHEM_SHAPE_MULTIPOLES>  (1) 
303.78
7.42
3.39
0.92
2.69
2.21
-0.03
-7.94
0.45
-3.45
-0.22
-0.09
0.2
0.88

>  <PUBCHEM_SHAPE_SELFOVERLAP>  (1) 
590.38

>  <PUBCHEM_SHAPE_VOLUME>  (1) 
188

>  <PUBCHEM_COORDINATE_TYPE>  (1) 
2
5
10

$$$$
