44535
     RDKit          3D

 11 11  0  0  0  0  0  0  0  0999 V2000
   -2.5031    2.5792    0.0001 Br  0  0  0  0  0  0  0  0  0  0  0  0
    2.9170   -0.8605   -0.0003 O   0  0  0  0  0  0  0  0  0  0  0  0
    2.7074    1.3247   -0.0004 O   0  0  0  0  0  0  0  0  0  0  0  0
    2.2072    0.1741    0.0001 N   0  0  0  0  0  0  0  0  0  0  0  0
   -1.7585   -2.6477   -0.0004 N   0  0  0  0  0  0  0  0  0  0  0  0
    0.7935    0.0385    0.0005 C   0  0  0  0  0  0  0  0  0  0  0  0
   -1.1737   -1.3642    0.0002 C   0  0  0  0  0  0  0  0  0  0  0  0
    0.2147   -1.2307    0.0006 C   0  0  0  0  0  0  0  0  0  0  0  0
   -0.0163    1.1743    0.0001 C   0  0  0  0  0  0  0  0  0  0  0  0
   -1.9834   -0.2285   -0.0003 C   0  0  0  0  0  0  0  0  0  0  0  0
   -1.4049    1.0408   -0.0003 C   0  0  0  0  0  0  0  0  0  0  0  0
  1 11  1  0
  2  4  1  0
  3  4  2  0
  4  6  1  0
  5  7  1  0
  6  8  2  0
  6  9  1  0
  7  8  1  0
  7 10  2  0
  9 11  2  0
 10 11  1  0
M  CHG  2   2  -1   4   1
M  END
>  <PUBCHEM_COMPOUND_CID>  (1) 
44535

>  <PUBCHEM_CONFORMER_RMSD>  (1) 
0.4

>  <PUBCHEM_CONFORMER_DIVERSEORDER>  (1) 
1

>  <PUBCHEM_MMFF94_PARTIAL_CHARGES>  (1) 
16
1 -0.11
10 -0.15
11 0.11
12 0.15
13 0.15
14 0.15
15 0.4
16 0.4
2 -0.52
3 -0.52
4 0.91
5 -0.9
6 0.13
7 0.1
8 -0.15
9 -0.15

>  <PUBCHEM_EFFECTIVE_ROTOR_COUNT>  (1) 
1

>  <PUBCHEM_PHARMACOPHORE_FEATURES>  (1) 
7
1 1 hydrophobe
1 2 acceptor
1 2 anion
1 3 acceptor
1 5 cation
1 5 donor
6 6 7 8 9 10 11 rings

>  <PUBCHEM_HEAVY_ATOM_COUNT>  (1) 
11

>  <PUBCHEM_ATOM_DEF_STEREO_COUNT>  (1) 
0

>  <PUBCHEM_ATOM_UDEF_STEREO_COUNT>  (1) 
0

>  <PUBCHEM_BOND_DEF_STEREO_COUNT>  (1) 
0

>  <PUBCHEM_BOND_UDEF_STEREO_COUNT>  (1) 
0

>  <PUBCHEM_ISOTOPIC_ATOM_COUNT>  (1) 
0

>  <PUBCHEM_COMPONENT_COUNT>  (1) 
1

>  <PUBCHEM_CACTVS_TAUTO_COUNT>  (1) 
1

>  <PUBCHEM_CONFORMER_ID>  (1) 
0000ADF700000001

>  <PUBCHEM_MMFF94_ENERGY>  (1) 
39.3528

>  <PUBCHEM_FEATURE_SELFOVERLAP>  (1) 
35.602

>  <PUBCHEM_SHAPE_FINGERPRINT>  (1) 
1 1 17905606601643927613
100427 49 17765148758619778453
12716758 59 18341045242187857184
13380535 76 18120935001924893313
14325111 11 18338517426222136800
16945 1 18410575119117782309
193761 8 18194682566794082407
19973954 147 18410856602932568300
20871998 184 18200881793491995559
21040471 1 18338798896966910849
21524375 3 18118964698457435513
23552423 10 18188209909297363566
23559900 14 18199475364524705398
241688 4 18122342647280486891
2748010 2 18194129512349878469
369184 2 18411981394531931874
528862 383 17685492048837899977
7364860 26 17404018128836989109
81228 2 18336822108494280377

>  <PUBCHEM_SHAPE_MULTIPOLES>  (1) 
210.62
3.88
2.62
0.6
1.01
1.28
0
-2.52
0
-1.28
0
-0.1
-0.03
0

>  <PUBCHEM_SHAPE_SELFOVERLAP>  (1) 
426.942

>  <PUBCHEM_SHAPE_VOLUME>  (1) 
127.2

>  <PUBCHEM_COORDINATE_TYPE>  (1) 
2
5
10

$$$$
