44534
     RDKit          3D

 13 13  0  0  0  0  0  0  0  0999 V2000
    0.0010    3.7755    0.0002 Br  0  0  0  0  0  0  0  0  0  0  0  0
   -2.4159   -2.1712   -0.0002 O   0  0  0  0  0  0  0  0  0  0  0  0
    2.4153   -2.1719    0.0002 O   0  0  0  0  0  0  0  0  0  0  0  0
   -3.5132   -0.2699    0.0002 O   0  0  0  0  0  0  0  0  0  0  0  0
    3.5130   -0.2708   -0.0003 O   0  0  0  0  0  0  0  0  0  0  0  0
   -2.4383   -0.9168   -0.0001 N   0  0  0  0  0  0  0  0  0  0  0  0
    2.4379   -0.9174    0.0001 N   0  0  0  0  0  0  0  0  0  0  0  0
   -1.2081   -0.2068    0.0000 C   0  0  0  0  0  0  0  0  0  0  0  0
    1.2079   -0.2073    0.0001 C   0  0  0  0  0  0  0  0  0  0  0  0
   -0.0003   -0.9044    0.0001 C   0  0  0  0  0  0  0  0  0  0  0  0
   -1.2078    1.1880   -0.0002 C   0  0  0  0  0  0  0  0  0  0  0  0
    1.2083    1.1876    0.0000 C   0  0  0  0  0  0  0  0  0  0  0  0
    0.0003    1.8853   -0.0002 C   0  0  0  0  0  0  0  0  0  0  0  0
  1 13  1  0
  2  6  1  0
  3  7  1  0
  4  6  2  0
  5  7  2  0
  6  8  1  0
  7  9  1  0
  8 10  2  0
  8 11  1  0
  9 10  1  0
  9 12  2  0
 11 13  2  0
 12 13  1  0
M  CHG  4   2  -1   3  -1   6   1   7   1
M  END
>  <PUBCHEM_COMPOUND_CID>  (1) 
44534

>  <PUBCHEM_CONFORMER_RMSD>  (1) 
0.6

>  <PUBCHEM_CONFORMER_DIVERSEORDER>  (1) 
1

>  <PUBCHEM_MMFF94_PARTIAL_CHARGES>  (1) 
16
1 -0.11
10 -0.15
11 -0.15
12 -0.15
13 0.11
14 0.15
15 0.15
16 0.15
2 -0.52
3 -0.52
4 -0.52
5 -0.52
6 0.91
7 0.91
8 0.13
9 0.13

>  <PUBCHEM_EFFECTIVE_ROTOR_COUNT>  (1) 
2

>  <PUBCHEM_PHARMACOPHORE_FEATURES>  (1) 
8
1 1 hydrophobe
1 2 acceptor
1 2 anion
1 3 acceptor
1 3 anion
1 4 acceptor
1 5 acceptor
6 8 9 10 11 12 13 rings

>  <PUBCHEM_HEAVY_ATOM_COUNT>  (1) 
13

>  <PUBCHEM_ATOM_DEF_STEREO_COUNT>  (1) 
0

>  <PUBCHEM_ATOM_UDEF_STEREO_COUNT>  (1) 
0

>  <PUBCHEM_BOND_DEF_STEREO_COUNT>  (1) 
0

>  <PUBCHEM_BOND_UDEF_STEREO_COUNT>  (1) 
0

>  <PUBCHEM_ISOTOPIC_ATOM_COUNT>  (1) 
0

>  <PUBCHEM_COMPONENT_COUNT>  (1) 
1

>  <PUBCHEM_CACTVS_TAUTO_COUNT>  (1) 
1

>  <PUBCHEM_CONFORMER_ID>  (1) 
0000ADF600000001

>  <PUBCHEM_MMFF94_ENERGY>  (1) 
38.7673

>  <PUBCHEM_FEATURE_SELFOVERLAP>  (1) 
40.76

>  <PUBCHEM_SHAPE_FINGERPRINT>  (1) 
1 1 17689717879861135653
14648413 74 18192148428725458969
16945 1 18410575088958182629
17990270 104 18193271021285931043
19021347 4 17330273870671332825
193761 8 18410575084684963940
20510252 161 17982727476692581344
20645477 70 17903624534757268951
20711985 365 18121499046847133206
20871998 184 18129377094756887908
20871998 22 18342466923602523486
21524375 3 17035577253925958744
23402539 116 18199454481707656501
23526114 1 18122063366694713996
23530152 11 17185597360413146109
23552423 10 18122909999622846037
241688 4 18410292480110340120
2748010 2 18412254047561758348
3071541 12 18122912194151297773
3071541 158 18261107525676291949
7364860 26 18123752225282179329
81228 2 18264212400431385208

>  <PUBCHEM_SHAPE_MULTIPOLES>  (1) 
240.04
4.09
3.42
0.59
0
3.55
0
-3.2
0
0
0
0
0.1
0

>  <PUBCHEM_SHAPE_SELFOVERLAP>  (1) 
492.161

>  <PUBCHEM_SHAPE_VOLUME>  (1) 
143.4

>  <PUBCHEM_COORDINATE_TYPE>  (1) 
2
5
10

$$$$
