44536
     RDKit          3D

 14 14  0  0  0  0  0  0  0  0999 V2000
   -1.4298    2.8340    0.0007 Br  0  0  0  0  0  0  0  0  0  0  0  0
   -3.1743   -1.2119    0.0001 O   0  0  0  0  0  0  0  0  0  0  0  0
   -3.2438    0.9822   -0.0001 O   0  0  0  0  0  0  0  0  0  0  0  0
    3.6564   -1.0519    0.0003 O   0  0  0  0  0  0  0  0  0  0  0  0
    3.6130    1.1429   -0.0004 O   0  0  0  0  0  0  0  0  0  0  0  0
   -2.6083   -0.0958   -0.0003 N   0  0  0  0  0  0  0  0  0  0  0  0
   -1.1151   -2.4976    0.0001 N   0  0  0  0  0  0  0  0  0  0  0  0
    3.0270    0.0335    0.0001 N   0  0  0  0  0  0  0  0  0  0  0  0
   -0.4605   -1.2444    0.0000 C   0  0  0  0  0  0  0  0  0  0  0  0
   -1.1820   -0.0507   -0.0002 C   0  0  0  0  0  0  0  0  0  0  0  0
    1.6071    0.0054    0.0000 C   0  0  0  0  0  0  0  0  0  0  0  0
    0.9340   -1.2163    0.0001 C   0  0  0  0  0  0  0  0  0  0  0  0
   -0.5091    1.1712   -0.0003 C   0  0  0  0  0  0  0  0  0  0  0  0
    0.8856    1.1993   -0.0002 C   0  0  0  0  0  0  0  0  0  0  0  0
  1 13  1  0
  2  6  1  0
  3  6  2  0
  4  8  1  0
  5  8  2  0
  6 10  1  0
  7  9  1  0
  8 11  1  0
  9 10  2  0
  9 12  1  0
 10 13  1  0
 11 12  2  0
 11 14  1  0
 13 14  2  0
M  CHG  4   2  -1   4  -1   6   1   8   1
M  END
>  <PUBCHEM_COMPOUND_CID>  (1) 
44536

>  <PUBCHEM_CONFORMER_RMSD>  (1) 
0.6

>  <PUBCHEM_CONFORMER_DIVERSEORDER>  (1) 
1

>  <PUBCHEM_MMFF94_PARTIAL_CHARGES>  (1) 
18
1 -0.11
10 0.13
11 0.13
12 -0.15
13 0.11
14 -0.15
15 0.15
16 0.15
17 0.4
18 0.4
2 -0.52
3 -0.52
4 -0.52
5 -0.52
6 0.91
7 -0.9
8 0.91
9 0.1

>  <PUBCHEM_EFFECTIVE_ROTOR_COUNT>  (1) 
2

>  <PUBCHEM_PHARMACOPHORE_FEATURES>  (1) 
10
1 1 hydrophobe
1 2 acceptor
1 2 anion
1 3 acceptor
1 4 acceptor
1 4 anion
1 5 acceptor
1 7 cation
1 7 donor
6 9 10 11 12 13 14 rings

>  <PUBCHEM_HEAVY_ATOM_COUNT>  (1) 
14

>  <PUBCHEM_ATOM_DEF_STEREO_COUNT>  (1) 
0

>  <PUBCHEM_ATOM_UDEF_STEREO_COUNT>  (1) 
0

>  <PUBCHEM_BOND_DEF_STEREO_COUNT>  (1) 
0

>  <PUBCHEM_BOND_UDEF_STEREO_COUNT>  (1) 
0

>  <PUBCHEM_ISOTOPIC_ATOM_COUNT>  (1) 
0

>  <PUBCHEM_COMPONENT_COUNT>  (1) 
1

>  <PUBCHEM_CACTVS_TAUTO_COUNT>  (1) 
1

>  <PUBCHEM_CONFORMER_ID>  (1) 
0000ADF800000001

>  <PUBCHEM_MMFF94_ENERGY>  (1) 
71.802

>  <PUBCHEM_FEATURE_SELFOVERLAP>  (1) 
50.909

>  <PUBCHEM_SHAPE_FINGERPRINT>  (1) 
10608611 8 18413103940322848696
10967382 1 18266458900181288069
11132069 177 18342452629966946336
11680986 33 17835516403391212497
12032990 46 18409736196093828875
13380535 76 18049998896667346125
14325111 11 18410573981025353856
14614273 12 18117274744790745781
16945 1 18410575084726401924
193761 8 17762338011635487271
20510252 161 18343301444422532128
20588541 1 18342462559873351206
20871998 184 18200879581510017583
21501502 16 18049719612044705233
2334 1 17906172106897064036
23402539 116 18342446045687064743
23402655 69 18196636429596438021
23463225 33 18335700490685707898
23552423 10 17830455346646252838
23559900 14 18343018896547730040
2748010 2 18052254286851969316
43471831 8 18262515875417317979
528886 8 18411412887154554249
54173680 148 18337393858530145219
6333449 129 18266737991488436573
7364860 26 17692531109230781903

>  <PUBCHEM_SHAPE_MULTIPOLES>  (1) 
255.64
5.05
2.52
0.58
2.71
0.53
0
0.21
0
-1.41
0
-0.02
0.05
0

>  <PUBCHEM_SHAPE_SELFOVERLAP>  (1) 
531.02

>  <PUBCHEM_SHAPE_VOLUME>  (1) 
150.5

>  <PUBCHEM_COORDINATE_TYPE>  (1) 
2
5
10

$$$$
