44554
     RDKit          3D

 38 42  0  0  1  0  0  0  0  0999 V2000
   -2.3620    0.7510    0.5050 O   0  0  0  0  0  0  0  0  0  0  0  0
   -2.4502    3.0277   -0.0326 O   0  0  0  0  0  0  0  0  0  0  0  0
   -3.1637   -1.8833    1.2203 O   0  0  0  0  0  0  0  0  0  0  0  0
    0.2722    1.7397   -0.6467 O   0  0  0  0  0  0  0  0  0  0  0  0
    1.1801   -3.6233    0.2901 O   0  0  0  0  0  0  0  0  0  0  0  0
   -4.6360   -3.0581   -1.4667 O   0  0  0  0  0  0  0  0  0  0  0  0
   -4.9639   -5.3752   -0.1466 O   0  0  0  0  0  0  0  0  0  0  0  0
    2.7505    2.1150   -0.3731 O   0  0  0  0  0  0  0  0  0  0  0  0
    3.6258   -3.0749    0.5466 O   0  0  0  0  0  0  0  0  0  0  0  0
    5.2404    2.6686   -0.1213 O   0  0  0  0  0  0  0  0  0  0  0  0
   -6.1166    3.0210    0.1825 N   0  0  0  0  0  0  0  0  0  0  0  0
   -2.8445   -2.2455   -0.1175 C   0  0  0  0  0  0  0  0  0  0  0  0
   -1.9421    0.0612   -0.6707 C   0  0  0  0  0  0  0  0  0  0  0  0
   -2.9594   -1.0261   -1.0341 C   0  0  0  0  0  0  0  0  0  0  0  0
   -1.4425   -2.8594   -0.1910 C   0  0  0  0  0  0  0  0  0  0  0  0
   -0.5553   -0.4775   -0.4212 C   0  0  0  0  0  0  0  0  0  0  0  0
   -0.3263   -1.8399   -0.1636 C   0  0  0  0  0  0  0  0  0  0  0  0
   -3.2186    1.8446    0.1863 C   0  0  0  0  0  0  0  0  0  0  0  0
   -4.1725    2.0488    1.3640 C   0  0  0  0  0  0  0  0  0  0  0  0
   -5.0738    3.2741    1.1795 C   0  0  0  0  0  0  0  0  0  0  0  0
   -4.2225    4.4836    0.7727 C   0  0  0  0  0  0  0  0  0  0  0  0
   -3.2618    4.1552   -0.3764 C   0  0  0  0  0  0  0  0  0  0  0  0
    0.5292    0.4169   -0.4112 C   0  0  0  0  0  0  0  0  0  0  0  0
   -3.8868   -3.2534   -0.5107 C   0  0  0  0  0  0  0  0  0  0  0  0
    0.9843   -2.2870    0.0745 C   0  0  0  0  0  0  0  0  0  0  0  0
    1.8299   -0.0365   -0.1636 C   0  0  0  0  0  0  0  0  0  0  0  0
    2.0576   -1.3889    0.0781 C   0  0  0  0  0  0  0  0  0  0  0  0
   -2.3299    5.3268   -0.6581 C   0  0  0  0  0  0  0  0  0  0  0  0
   -3.9574   -4.5087    0.3325 C   0  0  0  0  0  0  0  0  0  0  0  0
    2.9512    0.9255   -0.1614 C   0  0  0  0  0  0  0  0  0  0  0  0
    3.4250   -1.8851    0.3366 C   0  0  0  0  0  0  0  0  0  0  0  0
    4.3187    0.4317    0.0994 C   0  0  0  0  0  0  0  0  0  0  0  0
    4.5473   -0.9248    0.3395 C   0  0  0  0  0  0  0  0  0  0  0  0
    5.3904    1.3323    0.1052 C   0  0  0  0  0  0  0  0  0  0  0  0
    5.8479   -1.3807    0.5855 C   0  0  0  0  0  0  0  0  0  0  0  0
    6.6848    0.8739    0.3509 C   0  0  0  0  0  0  0  0  0  0  0  0
    6.9132   -0.4797    0.5907 C   0  0  0  0  0  0  0  0  0  0  0  0
    5.3374    3.1104   -1.4733 C   0  0  0  0  0  0  0  0  0  0  0  0
  1 13  1  0
  1 18  1  0
  2 18  1  0
  2 22  1  0
  3 12  1  0
  4 23  1  0
  5 25  1  0
  6 24  2  0
  7 29  1  0
  8 30  2  0
  9 31  2  0
 10 34  1  0
 10 38  1  0
 11 20  1  0
 12 14  1  0
 12 15  1  0
 12 24  1  0
 13 14  1  0
 13 16  1  0
 15 17  1  0
 16 17  2  0
 16 23  1  0
 17 25  1  0
 18 19  1  0
 19 20  1  0
 20 21  1  0
 21 22  1  0
 22 28  1  0
 23 26  2  0
 24 29  1  0
 25 27  2  0
 26 27  1  0
 26 30  1  0
 27 31  1  0
 30 32  1  0
 31 33  1  0
 32 33  2  0
 32 34  1  0
 33 35  1  0
 34 36  2  0
 35 37  2  0
 36 37  1  0
M  END
>  <PUBCHEM_COMPOUND_CID>  (1) 
44554

>  <PUBCHEM_CONFORMER_RMSD>  (1) 
1

>  <PUBCHEM_CONFORMER_DIVERSEORDER>  (1) 
1
13
17
23
27
24
12
30
10
26
15
25
6
21
22
32
16
4
8
29
2
20
28
11
7
19
3
5
14
18
31
9

>  <PUBCHEM_MMFF94_PARTIAL_CHARGES>  (1) 
43
1 -0.56
10 -0.36
11 -0.99
12 0.34
13 0.42
15 0.14
16 -0.14
17 -0.14
18 0.56
2 -0.56
20 0.27
22 0.28
23 0.08
24 0.45
25 0.08
26 0.09
27 0.09
29 0.34
3 -0.68
30 0.4
31 0.4
32 0.09
33 0.09
34 0.08
35 -0.15
36 -0.15
37 -0.15
38 0.28
4 -0.53
5 -0.53
51 0.4
57 0.36
58 0.36
59 0.45
6 -0.57
60 0.45
61 0.15
62 0.4
63 0.15
64 0.15
7 -0.68
8 -0.57
9 -0.57

>  <PUBCHEM_EFFECTIVE_ROTOR_COUNT>  (1) 
7

>  <PUBCHEM_PHARMACOPHORE_FEATURES>  (1) 
19
1 1 acceptor
1 10 acceptor
1 11 cation
1 11 donor
1 2 acceptor
1 3 acceptor
1 3 donor
1 4 donor
1 5 donor
1 6 acceptor
1 7 acceptor
1 7 donor
1 8 acceptor
1 9 acceptor
6 12 13 14 15 16 17 rings
6 16 17 23 25 26 27 rings
6 2 18 19 20 21 22 rings
6 26 27 30 31 32 33 rings
6 32 33 34 35 36 37 rings

>  <PUBCHEM_HEAVY_ATOM_COUNT>  (1) 
38

>  <PUBCHEM_ATOM_DEF_STEREO_COUNT>  (1) 
2

>  <PUBCHEM_ATOM_UDEF_STEREO_COUNT>  (1) 
3

>  <PUBCHEM_BOND_DEF_STEREO_COUNT>  (1) 
0

>  <PUBCHEM_BOND_UDEF_STEREO_COUNT>  (1) 
0

>  <PUBCHEM_ISOTOPIC_ATOM_COUNT>  (1) 
0

>  <PUBCHEM_COMPONENT_COUNT>  (1) 
1

>  <PUBCHEM_CACTVS_TAUTO_COUNT>  (1) 
81

>  <PUBCHEM_CONFORMER_ID>  (1) 
0000AE0A00000001

>  <PUBCHEM_MMFF94_ENERGY>  (1) 
114.7971

>  <PUBCHEM_FEATURE_SELFOVERLAP>  (1) 
96.559

>  <PUBCHEM_SHAPE_FINGERPRINT>  (1) 
10050765 1 18411982425778504042
10411042 1 18123468551836490887
1100329 8 18122903131981040098
11115154 58 17913173682112938239
12107183 9 18120929517505241242
12677640 9 18412826910452945985
12788726 201 18195536015059834078
12925494 130 18341043060598237400
13140716 1 18336266739100477890
13617811 41 17978216485473875968
14020679 6 17677345904816598248
14068700 686 18271241750514432432
14394314 77 18194689400265943899
14784336 7 17689721186901233030
14790565 3 17907015075764762988
15001296 14 18409447007952265584
15131766 46 15649910372042058941
15320467 1 18338516331275216256
15361156 5 18113914736530626620
15400415 2 18050847719412731640
15684973 49 17986082194017416743
15890870 6 18195807358552442097
15927050 60 18267866077644753527
18393751 57 18194695774377973153
19246450 95 17324334343829366048
19301679 30 18339089309950796071
21033648 29 17981872056641222001
21796203 349 17542532847285204083
23559900 14 17974838781474406383
24771293 8 18409160036103133576
255183 313 18270699588667194985
283562 15 18336542841136521691
350125 39 18338795723202584322
3504750 166 18271523194894538310
4144715 1 18410863135815858506
4403749 210 18191581961294873829
469060 322 18194697079493493921
5104073 3 18335692846123878738
5171179 24 17701804695358414801
550186 72 18338236088700405397
6086070 43 16988262211029864184
653340 110 18340198682880505824
6677587 24 15801520669545489493
6700243 42 17770253687701138116
7808743 9 18340203003354173369
9896288 288 18413108372497567754

>  <PUBCHEM_SHAPE_MULTIPOLES>  (1) 
718.35
15.1
7.18
0.98
14.32
0.45
-0.03
5.9
2.29
-13.51
-0.43
-0.47
0.28
-2.64

>  <PUBCHEM_SHAPE_SELFOVERLAP>  (1) 
1587.337

>  <PUBCHEM_SHAPE_VOLUME>  (1) 
378.7

>  <PUBCHEM_COORDINATE_TYPE>  (1) 
2
5
10

$$$$
