44551
     RDKit          3D

 10 10  0  0  0  0  0  0  0  0999 V2000
   -1.1134    1.2840   -0.0001 S   0  0  0  0  0  0  0  0  0  0  0  0
    1.9306    1.3495    0.0002 S   0  0  0  0  0  0  0  0  0  0  0  0
   -4.5834   -0.8251    0.0003 N   0  0  0  0  0  0  0  0  0  0  0  0
    0.5606   -0.8161   -0.0002 N   0  0  0  0  0  0  0  0  0  0  0  0
    1.8866   -1.2124    0.0000 N   0  0  0  0  0  0  0  0  0  0  0  0
    4.0596   -0.2603    0.0002 N   0  0  0  0  0  0  0  0  0  0  0  0
   -2.2390   -0.1413   -0.0001 C   0  0  0  0  0  0  0  0  0  0  0  0
   -3.6885    0.3283   -0.0001 C   0  0  0  0  0  0  0  0  0  0  0  0
    0.4825    0.4748   -0.0002 C   0  0  0  0  0  0  0  0  0  0  0  0
    2.7043   -0.1814    0.0000 C   0  0  0  0  0  0  0  0  0  0  0  0
  1  7  1  0
  1  9  1  0
  2  9  1  0
  2 10  1  0
  3  8  1  0
  4  5  1  0
  4  9  2  0
  5 10  2  0
  6 10  1  0
  7  8  1  0
M  END
>  <PUBCHEM_COMPOUND_CID>  (1) 
44551

>  <PUBCHEM_CONFORMER_RMSD>  (1) 
0.6

>  <PUBCHEM_CONFORMER_DIVERSEORDER>  (1) 
1
31
7
3
19
11
28
10
30
6
8
18
26
25
9
23
14
12
13
2
24
17
29
27
22
4
5
21
20
16
15

>  <PUBCHEM_MMFF94_PARTIAL_CHARGES>  (1) 
14
1 -0.29
10 0.46
15 0.36
16 0.36
17 0.4
18 0.4
2 -0.08
3 -0.99
4 -0.34
5 -0.34
6 -0.88
7 0.23
8 0.27
9 0.43

>  <PUBCHEM_EFFECTIVE_ROTOR_COUNT>  (1) 
3

>  <PUBCHEM_PHARMACOPHORE_FEATURES>  (1) 
6
1 3 cation
1 3 donor
1 4 acceptor
1 6 donor
3 5 6 10 cation
5 2 4 5 9 10 rings

>  <PUBCHEM_HEAVY_ATOM_COUNT>  (1) 
10

>  <PUBCHEM_ATOM_DEF_STEREO_COUNT>  (1) 
0

>  <PUBCHEM_ATOM_UDEF_STEREO_COUNT>  (1) 
0

>  <PUBCHEM_BOND_DEF_STEREO_COUNT>  (1) 
0

>  <PUBCHEM_BOND_UDEF_STEREO_COUNT>  (1) 
0

>  <PUBCHEM_ISOTOPIC_ATOM_COUNT>  (1) 
0

>  <PUBCHEM_COMPONENT_COUNT>  (1) 
1

>  <PUBCHEM_CACTVS_TAUTO_COUNT>  (1) 
2

>  <PUBCHEM_CONFORMER_ID>  (1) 
0000AE0700000001

>  <PUBCHEM_MMFF94_ENERGY>  (1) 
4.9236

>  <PUBCHEM_FEATURE_SELFOVERLAP>  (1) 
30.446

>  <PUBCHEM_SHAPE_FINGERPRINT>  (1) 
11062470 55 13045944603051660244
12032990 46 18341898425020587774
12932764 1 15769197350417003660
14251717 144 18410854390987260277
14252887 29 17775012271073653910
14325111 11 18410575093569764961
15477762 27 18410013225863459478
177051 138 18342740714998487213
190213 19 17703792509423140941
20201158 50 18334016086016362235
20645477 70 18337666409134488151
22485316 2 18409163299380927575
23402539 116 17095234804875448877
23402655 69 18410289186318660965

>  <PUBCHEM_SHAPE_MULTIPOLES>  (1) 
193.57
7.34
1.3
0.6
4.87
0.23
0
-1.82
0
-0.24
0
0.01
0.05
0

>  <PUBCHEM_SHAPE_SELFOVERLAP>  (1) 
356.869

>  <PUBCHEM_SHAPE_VOLUME>  (1) 
123.9

>  <PUBCHEM_COORDINATE_TYPE>  (1) 
2
5
10

$$$$
