44559
     RDKit          3D

 16 15  0  0  0  0  0  0  0  0999 V2000
    2.7151    0.1628   -0.8430 S   0  0  0  0  0  0  0  0  0  0  0  0
   -2.7957    0.5758   -0.7462 S   0  0  0  0  0  0  0  0  0  0  0  0
    5.1344    1.8751   -0.8105 S   0  0  0  0  0  0  0  0  0  0  0  0
   -5.3261    1.9083    0.0298 S   0  0  0  0  0  0  0  0  0  0  0  0
    5.1349   -0.7705   -0.0221 N   0  0  0  0  0  0  0  0  0  0  0  0
   -5.0720   -0.8268   -0.2456 N   0  0  0  0  0  0  0  0  0  0  0  0
    6.5645   -0.7441    0.2969 C   0  0  0  0  0  0  0  0  0  0  0  0
    4.5013   -2.0690    0.2267 C   0  0  0  0  0  0  0  0  0  0  0  0
   -6.4759   -1.0589    0.1027 C   0  0  0  0  0  0  0  0  0  0  0  0
   -4.3288   -2.0558   -0.5400 C   0  0  0  0  0  0  0  0  0  0  0  0
    4.4506    0.3583   -0.5149 C   0  0  0  0  0  0  0  0  0  0  0  0
   -4.5099    0.4643   -0.2934 C   0  0  0  0  0  0  0  0  0  0  0  0
    2.0639    0.6356    0.7769 C   0  0  0  0  0  0  0  0  0  0  0  0
   -2.0598    0.4550    0.9063 C   0  0  0  0  0  0  0  0  0  0  0  0
    0.6015    0.5709    0.8196 C   0  0  0  0  0  0  0  0  0  0  0  0
   -0.5981    0.5192    0.8570 C   0  0  0  0  0  0  0  0  0  0  0  0
  1 11  1  0
  1 13  1  0
  2 12  1  0
  2 14  1  0
  3 11  2  0
  4 12  2  0
  5  7  1  0
  5  8  1  0
  5 11  1  0
  6  9  1  0
  6 10  1  0
  6 12  1  0
 13 15  1  0
 14 16  1  0
 15 16  3  0
M  END
>  <PUBCHEM_COMPOUND_CID>  (1) 
44559

>  <PUBCHEM_CONFORMER_RMSD>  (1) 
0.8

>  <PUBCHEM_CONFORMER_DIVERSEORDER>  (1) 
1
37
14
24
12
29
33
9
8
7
38
34
10
27
35
19
31
11
22
32
20
21
18
15
25
5
26
2
30
17
13
6
4
36
28
16
23
3

>  <PUBCHEM_MMFF94_PARTIAL_CHARGES>  (1) 
16
1 -0.37
10 0.3
11 0.58
12 0.58
13 0.43
14 0.43
15 -0.2
16 -0.2
2 -0.37
3 -0.38
4 -0.38
5 -0.66
6 -0.66
7 0.3
8 0.3
9 0.3

>  <PUBCHEM_EFFECTIVE_ROTOR_COUNT>  (1) 
6

>  <PUBCHEM_PHARMACOPHORE_FEATURES>  (1) 
2
1 3 acceptor
1 4 acceptor

>  <PUBCHEM_HEAVY_ATOM_COUNT>  (1) 
16

>  <PUBCHEM_ATOM_DEF_STEREO_COUNT>  (1) 
0

>  <PUBCHEM_ATOM_UDEF_STEREO_COUNT>  (1) 
0

>  <PUBCHEM_BOND_DEF_STEREO_COUNT>  (1) 
0

>  <PUBCHEM_BOND_UDEF_STEREO_COUNT>  (1) 
0

>  <PUBCHEM_ISOTOPIC_ATOM_COUNT>  (1) 
0

>  <PUBCHEM_COMPONENT_COUNT>  (1) 
1

>  <PUBCHEM_CACTVS_TAUTO_COUNT>  (1) 
1

>  <PUBCHEM_CONFORMER_ID>  (1) 
0000AE0F00000001

>  <PUBCHEM_MMFF94_ENERGY>  (1) 
41.8113

>  <PUBCHEM_FEATURE_SELFOVERLAP>  (1) 
10.149

>  <PUBCHEM_SHAPE_FINGERPRINT>  (1) 
10354089 29 9511454525278584930
10595046 47 18408888434116669196
10670039 82 14562805500730913926
10803635 8 18343580729434991215
11128504 68 17894630383069341093
11287383 113 18410012156401070804
11796584 16 18273215266106302998
13167823 11 18409445873342018206
13403585 85 9439403536884540495
13533116 47 18335703819686133130
13668630 136 18271530814851654574
1420 363 16630530635170405972
14251718 22 18409450310090662225
14251731 8 18060136531514627045
14251751 18 18272930557056109255
14251752 14 18411135810177044181
14251764 18 11671778287205508777
15183329 4 18187644682652351851
15537594 2 16559033791772520221
17834072 33 18409449202226353308
17844677 252 18343304786070865529
20645477 56 13767929026780169529
20645477 70 18335423439978966750
20767249 213 10809340044932211355
220451 1 18342185465731601585
23035841 295 18413109476788602147
23198884 109 18040436603360400841
23402539 116 18260547805617242405
23536379 177 18408041792703616685
23559900 14 18130495397025281545
2767999 5 13912318005835439405
3004659 81 18409730643249585426
314173 85 15554448491811998033
351380 3 17632857537878587646
3545911 37 14707212110463624449
559249 180 18341611482587464939
57483677 66 18410854347810896402
7495541 125 18130504214846249896

>  <PUBCHEM_SHAPE_MULTIPOLES>  (1) 
334.71
18.82
1.95
0.99
0.3
0.36
-0.02
3.57
2.18
-0.29
0.24
0.17
-0.16
-1.07

>  <PUBCHEM_SHAPE_SELFOVERLAP>  (1) 
581.982

>  <PUBCHEM_SHAPE_VOLUME>  (1) 
222.6

>  <PUBCHEM_COORDINATE_TYPE>  (1) 
2
5
10

$$$$
