44560
     RDKit          3D

 16 15  0  0  0  0  0  0  0  0999 V2000
    0.8531   -0.1439    1.7918 S   0  0  0  0  0  0  0  0  0  0  0  0
   -2.1516   -0.2912    1.7508 S   0  0  0  0  0  0  0  0  0  0  0  0
    4.2994   -0.3263    1.1126 S   0  0  0  0  0  0  0  0  0  0  0  0
   -4.3309   -1.7745    0.3896 S   0  0  0  0  0  0  0  0  0  0  0  0
    2.4753   -0.1346    0.4167 P   0  0  0  0  0  0  0  0  0  0  0  0
    2.3098    1.2069   -0.5038 O   0  0  0  0  0  0  0  0  0  0  0  0
    2.1287   -1.2427   -0.7345 O   0  0  0  0  0  0  0  0  0  0  0  0
   -3.4239    0.6912   -0.4481 N   0  0  0  0  0  0  0  0  0  0  0  0
    2.5165    2.4923    0.0587 C   0  0  0  0  0  0  0  0  0  0  0  0
    2.1379   -2.6260   -0.4238 C   0  0  0  0  0  0  0  0  0  0  0  0
   -0.6355   -0.1805    0.7633 C   0  0  0  0  0  0  0  0  0  0  0  0
    2.2982    3.5400   -1.0119 C   0  0  0  0  0  0  0  0  0  0  0  0
    1.7840   -3.4131   -1.6675 C   0  0  0  0  0  0  0  0  0  0  0  0
   -3.3631   -0.3903    0.4528 C   0  0  0  0  0  0  0  0  0  0  0  0
   -3.8247    0.5217   -1.8466 C   0  0  0  0  0  0  0  0  0  0  0  0
   -3.0731    2.0712   -0.1001 C   0  0  0  0  0  0  0  0  0  0  0  0
  1  5  1  0
  1 11  1  0
  2 11  1  0
  2 14  1  0
  3  5  2  0
  4 14  2  0
  5  6  1  0
  5  7  1  0
  6  9  1  0
  7 10  1  0
  8 14  1  0
  8 15  1  0
  8 16  1  0
  9 12  1  0
 10 13  1  0
M  END
>  <PUBCHEM_COMPOUND_CID>  (1) 
44560

>  <PUBCHEM_CONFORMER_RMSD>  (1) 
0.8

>  <PUBCHEM_CONFORMER_DIVERSEORDER>  (1) 
1
176
178
148
175
194
88
68
17
35
139
141
58
180
50
21
171
126
127
169
132
48
164
87
109
138
111
13
46
170
183
158
191
47
33
99
54
124
155
113
179
18
190
150
134
66
78
156
80
9
32
70
67
7
56
43
76
75
4
137
81
100
125
36
189
110
65
59
71
172
51
29
107
60
89
26
166
121
133
149
11
97
188
135
37
101
154
192
193
165
25
167
102
61
196
34
195
105
5
104
14
19
162
23
106
52
123
119
112
184
85
30
160
39
55
94
98
64
38
53
120
44
95
163
24
74
40
20
22
3
31
79
185
96
187
142
168
2
177
12
161
72
153
136
174
143
8
6
114
117
28
77
57
84
116
182
49
145
16
108
159
122
140
90
92
103
186
91
129
173
93
63
83
41
73
42
181
130
115
151
10
131
152
144
15
146
118
62
147
82
69
45
86
128
157
27

>  <PUBCHEM_MMFF94_PARTIAL_CHARGES>  (1) 
14
1 -0.48
10 0.28
11 0.46
14 0.58
15 0.3
16 0.3
2 -0.37
3 -0.68
4 -0.38
5 1.47
6 -0.55
7 -0.55
8 -0.66
9 0.28

>  <PUBCHEM_EFFECTIVE_ROTOR_COUNT>  (1) 
9

>  <PUBCHEM_PHARMACOPHORE_FEATURES>  (1) 
1
1 4 acceptor

>  <PUBCHEM_HEAVY_ATOM_COUNT>  (1) 
16

>  <PUBCHEM_ATOM_DEF_STEREO_COUNT>  (1) 
0

>  <PUBCHEM_ATOM_UDEF_STEREO_COUNT>  (1) 
0

>  <PUBCHEM_BOND_DEF_STEREO_COUNT>  (1) 
0

>  <PUBCHEM_BOND_UDEF_STEREO_COUNT>  (1) 
0

>  <PUBCHEM_ISOTOPIC_ATOM_COUNT>  (1) 
0

>  <PUBCHEM_COMPONENT_COUNT>  (1) 
1

>  <PUBCHEM_CACTVS_TAUTO_COUNT>  (1) 
1

>  <PUBCHEM_CONFORMER_ID>  (1) 
0000AE1000000001

>  <PUBCHEM_MMFF94_ENERGY>  (1) 
20.6326

>  <PUBCHEM_FEATURE_SELFOVERLAP>  (1) 
5.074

>  <PUBCHEM_SHAPE_FINGERPRINT>  (1) 
10871710 139 16387630146909384204
116883 192 17834679297159342148
11759241 127 18117841225338763279
12596599 1 18187086105455848397
13134695 92 18187355524696761904
14251764 38 18114176492569507709
18186145 218 17967811622393677729
20645477 70 18409452517793289552
20671657 53 18053395309397274534
21524375 3 17903931285442151184
23402539 116 18263634092149264594
23532345 88 18272093755613715367
23557571 272 18259703406905092827
3060560 45 18340783636341729276
5262128 65 18337114458106690361
58051976 378 18410004455709533491
6049 1 17823443563749306907
81228 2 17759817940012747384

>  <PUBCHEM_SHAPE_MULTIPOLES>  (1) 
331.8
8.63
3.64
1.75
5.24
0.45
0.02
0.06
0.36
-3.31
2.47
0.24
-0.48
0.82

>  <PUBCHEM_SHAPE_SELFOVERLAP>  (1) 
549.499

>  <PUBCHEM_SHAPE_VOLUME>  (1) 
230.8

>  <PUBCHEM_COORDINATE_TYPE>  (1) 
2
5
10

$$$$
