44575
     RDKit          3D

 21 22  0  0  0  0  0  0  0  0999 V2000
    5.6270   -1.1329    0.0899 Cl  0  0  0  0  0  0  0  0  0  0  0  0
    0.6160   -2.5300   -0.8489 O   0  0  0  0  0  0  0  0  0  0  0  0
    0.3178    1.3837   -0.1344 O   0  0  0  0  0  0  0  0  0  0  0  0
   -4.1597    0.1634    0.2570 N   0  0  0  0  0  0  0  0  0  0  0  0
   -0.6592   -0.9681    0.2965 N   0  0  0  0  0  0  0  0  0  0  0  0
    5.0746    1.8569    0.2164 N   0  0  0  0  0  0  0  0  0  0  0  0
   -1.8978   -1.7136    0.2746 C   0  0  0  0  0  0  0  0  0  0  0  0
   -2.7051   -1.4055   -0.9886 C   0  0  0  0  0  0  0  0  0  0  0  0
   -2.7391   -1.4231    1.5196 C   0  0  0  0  0  0  0  0  0  0  0  0
   -3.3335   -0.0091   -0.9454 C   0  0  0  0  0  0  0  0  0  0  0  0
   -3.3668   -0.0262    1.4790 C   0  0  0  0  0  0  0  0  0  0  0  0
   -4.7942    1.4813    0.2575 C   0  0  0  0  0  0  0  0  0  0  0  0
   -5.6607    1.6741   -0.9756 C   0  0  0  0  0  0  0  0  0  0  0  0
    0.5081   -1.4488   -0.2762 C   0  0  0  0  0  0  0  0  0  0  0  0
    1.7021   -0.5744   -0.1457 C   0  0  0  0  0  0  0  0  0  0  0  0
    1.5458    0.7953   -0.0818 C   0  0  0  0  0  0  0  0  0  0  0  0
    2.9445   -1.1747   -0.0938 C   0  0  0  0  0  0  0  0  0  0  0  0
    2.6792    1.5992    0.0391 C   0  0  0  0  0  0  0  0  0  0  0  0
    4.0778   -0.3707    0.0271 C   0  0  0  0  0  0  0  0  0  0  0  0
    3.9453    1.0162    0.0934 C   0  0  0  0  0  0  0  0  0  0  0  0
    0.2780    2.8072   -0.0596 C   0  0  0  0  0  0  0  0  0  0  0  0
  1 19  1  0
  2 14  2  0
  3 16  1  0
  3 21  1  0
  4 10  1  0
  4 11  1  0
  4 12  1  0
  5  7  1  0
  5 14  1  0
  6 20  1  0
  7  8  1  0
  7  9  1  0
  8 10  1  0
  9 11  1  0
 12 13  1  0
 14 15  1  0
 15 16  2  0
 15 17  1  0
 16 18  1  0
 17 19  2  0
 18 20  2  0
 19 20  1  0
M  END
>  <PUBCHEM_COMPOUND_CID>  (1) 
44575

>  <PUBCHEM_CONFORMER_RMSD>  (1) 
0.8

>  <PUBCHEM_CONFORMER_DIVERSEORDER>  (1) 
27
5
22
24
23
33
7
14
28
41
32
39
10
20
19
25
35
30
21
8
4
40
12
29
18
13
16
31
1
6
38
2
17
36
11
34
37
26
15
3
9

>  <PUBCHEM_MMFF94_PARTIAL_CHARGES>  (1) 
23
1 -0.18
10 0.27
11 0.27
12 0.27
14 0.54
15 0.09
16 0.08
17 -0.15
18 -0.15
19 0.18
2 -0.57
20 0.1
21 0.28
3 -0.36
33 0.37
37 0.15
38 0.15
39 0.4
4 -0.81
40 0.4
5 -0.73
6 -0.9
7 0.3

>  <PUBCHEM_EFFECTIVE_ROTOR_COUNT>  (1) 
6.2

>  <PUBCHEM_PHARMACOPHORE_FEATURES>  (1) 
8
1 2 acceptor
1 3 acceptor
1 4 cation
1 5 donor
1 6 cation
1 6 donor
6 15 16 17 18 19 20 rings
6 4 7 8 9 10 11 rings

>  <PUBCHEM_HEAVY_ATOM_COUNT>  (1) 
21

>  <PUBCHEM_ATOM_DEF_STEREO_COUNT>  (1) 
0

>  <PUBCHEM_ATOM_UDEF_STEREO_COUNT>  (1) 
0

>  <PUBCHEM_BOND_DEF_STEREO_COUNT>  (1) 
0

>  <PUBCHEM_BOND_UDEF_STEREO_COUNT>  (1) 
0

>  <PUBCHEM_ISOTOPIC_ATOM_COUNT>  (1) 
0

>  <PUBCHEM_COMPONENT_COUNT>  (1) 
1

>  <PUBCHEM_CACTVS_TAUTO_COUNT>  (1) 
3

>  <PUBCHEM_CONFORMER_ID>  (1) 
0000AE1F0000001B

>  <PUBCHEM_MMFF94_ENERGY>  (1) 
59.9988

>  <PUBCHEM_FEATURE_SELFOVERLAP>  (1) 
40.596

>  <PUBCHEM_SHAPE_FINGERPRINT>  (1) 
10014705 185 18412543228089398235
11089746 13 17703502229679006280
11370993 144 18113898255960643326
121448 382 13758074099765322631
12236239 1 17703791427128383647
13402501 40 18261671485411342349
13675066 3 18187651348768837938
14178342 30 17694206078516348714
14251758 9 18411983538148049514
14790565 3 17760091018566407604
15196674 1 18411136965269870374
15238133 3 18041010496542449965
15375358 24 18410013213115727029
1601671 61 18336830883297439620
16988056 13 13095283817765414283
19489759 90 15339120121658865963
21033648 29 18270391810503622584
21279426 13 18409732829160943094
21421861 104 17896022288150601394
23184049 59 18340774831426903842
23402539 116 18272927224303782470
23402655 69 18273213105631978724
23557571 272 13901369086373861963
23559900 14 18410572903674377888
2838139 119 18339072684632981829
335352 9 18411417281191181838
34934 24 18409162229754800930
350125 39 18410575081481493548
474 4 18341332210771020443
5104073 3 18336261340532056050
56616090 46 18041280976492592227
59755656 215 18267590113632979110
59755656 520 17821723928138971499
602551 16 15936698176148242946
6328613 192 18335148604953358124
633830 44 18040713705817999234

>  <PUBCHEM_SHAPE_MULTIPOLES>  (1) 
407.36
11.58
2.55
1.02
0.05
0.68
-0.17
3.53
0.14
-0.12
0.19
1.21
-0.26
0.7

>  <PUBCHEM_SHAPE_SELFOVERLAP>  (1) 
837.104

>  <PUBCHEM_SHAPE_VOLUME>  (1) 
235.7

>  <PUBCHEM_COORDINATE_TYPE>  (1) 
2
5
10

$$$$
