44577
     RDKit          3D

 30 33  0  0  0  0  0  0  0  0999 V2000
    4.1983   -3.8581    0.7126 Cl  0  0  0  0  0  0  0  0  0  0  0  0
    3.6394    2.2942    1.1294 O   0  0  0  0  0  0  0  0  0  0  0  0
    5.8133    1.7159   -0.2321 O   0  0  0  0  0  0  0  0  0  0  0  0
   -1.4890    1.1480   -0.7861 N   0  0  0  0  0  0  0  0  0  0  0  0
    1.8783    0.8582    0.6671 N   0  0  0  0  0  0  0  0  0  0  0  0
    6.8898   -2.9524   -0.3808 N   0  0  0  0  0  0  0  0  0  0  0  0
    0.8172    1.8091    0.9120 C   0  0  0  0  0  0  0  0  0  0  0  0
   -0.4338    1.1130    1.4530 C   0  0  0  0  0  0  0  0  0  0  0  0
    0.4747    2.5932   -0.3570 C   0  0  0  0  0  0  0  0  0  0  0  0
   -1.1583    0.3058    0.3712 C   0  0  0  0  0  0  0  0  0  0  0  0
   -0.2806    1.7369   -1.3784 C   0  0  0  0  0  0  0  0  0  0  0  0
   -2.2260    0.3766   -1.7868 C   0  0  0  0  0  0  0  0  0  0  0  0
   -3.5156   -0.1707   -1.2351 C   0  0  0  0  0  0  0  0  0  0  0  0
    3.2181    1.1888    0.7992 C   0  0  0  0  0  0  0  0  0  0  0  0
   -4.3382    0.6512   -0.4767 C   0  0  0  0  0  0  0  0  0  0  0  0
   -3.8629   -1.4862   -1.4927 C   0  0  0  0  0  0  0  0  0  0  0  0
   -5.5443    0.1556    0.0448 C   0  0  0  0  0  0  0  0  0  0  0  0
    4.1868    0.1069    0.4859 C   0  0  0  0  0  0  0  0  0  0  0  0
   -5.9096   -1.1872   -0.2121 C   0  0  0  0  0  0  0  0  0  0  0  0
   -5.0577   -1.9951   -0.9828 C   0  0  0  0  0  0  0  0  0  0  0  0
    5.4334    0.4256   -0.0132 C   0  0  0  0  0  0  0  0  0  0  0  0
   -6.3962    0.9637    0.8152 C   0  0  0  0  0  0  0  0  0  0  0  0
    3.7983   -1.1989    0.7110 C   0  0  0  0  0  0  0  0  0  0  0  0
   -7.1158   -1.6828    0.3097 C   0  0  0  0  0  0  0  0  0  0  0  0
   -7.5909    0.4550    1.3256 C   0  0  0  0  0  0  0  0  0  0  0  0
    6.3295   -0.6040   -0.2999 C   0  0  0  0  0  0  0  0  0  0  0  0
   -7.9498   -0.8657    1.0735 C   0  0  0  0  0  0  0  0  0  0  0  0
    4.6945   -2.2287    0.4243 C   0  0  0  0  0  0  0  0  0  0  0  0
    5.9601   -1.9311   -0.0812 C   0  0  0  0  0  0  0  0  0  0  0  0
    5.5367    2.2630   -1.5197 C   0  0  0  0  0  0  0  0  0  0  0  0
  1 28  1  0
  2 14  2  0
  3 21  1  0
  3 30  1  0
  4 10  1  0
  4 11  1  0
  4 12  1  0
  5  7  1  0
  5 14  1  0
  6 29  1  0
  7  8  1  0
  7  9  1  0
  8 10  1  0
  9 11  1  0
 12 13  1  0
 13 15  2  0
 13 16  1  0
 14 18  1  0
 15 17  1  0
 16 20  2  0
 17 19  2  0
 17 22  1  0
 18 21  2  0
 18 23  1  0
 19 20  1  0
 19 24  1  0
 21 26  1  0
 22 25  2  0
 23 28  2  0
 24 27  2  0
 25 27  1  0
 26 29  2  0
 28 29  1  0
M  END
>  <PUBCHEM_COMPOUND_CID>  (1) 
44577

>  <PUBCHEM_CONFORMER_RMSD>  (1) 
1

>  <PUBCHEM_CONFORMER_DIVERSEORDER>  (1) 
1
33
116
94
68
115
60
99
104
25
44
146
143
109
70
37
144
53
137
79
20
119
100
65
92
42
155
113
29
152
102
156
134
13
57
85
67
142
23
154
101
52
126
10
157
51
151
7
38
120
11
66
34
39
41
141
111
72
21
108
18
55
130
49
105
110
80
86
90
114
62
27
32
139
121
40
61
97
2
88
112
158
147
12
50
150
35
45
71
91
8
69
30
36
127
73
14
56
87
129
122
132
140
16
24
149
83
125
64
74
148
96
77
43
124
4
103
98
28
9
81
95
145
93
48
58
26
46
153
54
75
17
107
5
138
3
131
82
63
106
78
59
76
47
31
117
133
128
89
6
22
15
136
123
19
84
118
135

>  <PUBCHEM_MMFF94_PARTIAL_CHARGES>  (1) 
38
1 -0.18
10 0.27
11 0.27
12 0.41
13 -0.14
14 0.54
15 -0.15
16 -0.15
18 0.09
2 -0.57
20 -0.15
21 0.08
22 -0.15
23 -0.15
24 -0.15
25 -0.15
26 -0.15
27 -0.15
28 0.18
29 0.1
3 -0.36
30 0.28
4 -0.81
42 0.37
43 0.15
44 0.15
45 0.15
46 0.15
47 0.15
48 0.15
49 0.15
5 -0.73
50 0.15
51 0.15
52 0.4
53 0.4
6 -0.9
7 0.3

>  <PUBCHEM_EFFECTIVE_ROTOR_COUNT>  (1) 
7.2

>  <PUBCHEM_PHARMACOPHORE_FEATURES>  (1) 
10
1 2 acceptor
1 3 acceptor
1 4 cation
1 5 donor
1 6 cation
1 6 donor
6 13 15 16 17 19 20 rings
6 17 19 22 24 25 27 rings
6 18 21 23 26 28 29 rings
6 4 7 8 9 10 11 rings

>  <PUBCHEM_HEAVY_ATOM_COUNT>  (1) 
30

>  <PUBCHEM_ATOM_DEF_STEREO_COUNT>  (1) 
0

>  <PUBCHEM_ATOM_UDEF_STEREO_COUNT>  (1) 
0

>  <PUBCHEM_BOND_DEF_STEREO_COUNT>  (1) 
0

>  <PUBCHEM_BOND_UDEF_STEREO_COUNT>  (1) 
0

>  <PUBCHEM_ISOTOPIC_ATOM_COUNT>  (1) 
0

>  <PUBCHEM_COMPONENT_COUNT>  (1) 
1

>  <PUBCHEM_CACTVS_TAUTO_COUNT>  (1) 
3

>  <PUBCHEM_CONFORMER_ID>  (1) 
0000AE2100000001

>  <PUBCHEM_MMFF94_ENERGY>  (1) 
98.7602

>  <PUBCHEM_FEATURE_SELFOVERLAP>  (1) 
50.783

>  <PUBCHEM_SHAPE_FINGERPRINT>  (1) 
10299344 5 18413110580241717237
10319926 262 15985101963958781415
11089746 13 10807944777250560509
11103572 155 18261957319832339707
11374522 165 15912215196662287177
11387372 6 18333732459989783387
11796584 16 17346318258023879780
12107183 9 18060420210105096241
12592606 108 18202558497860103071
13111901 137 16588314847583585651
13533116 47 18413387653077708592
1361 2 18187646933821863468
13673619 4 18186516601271804037
13782708 43 17968085387529584723
13914758 101 11671795853394733613
14251764 18 18202003261583126965
14251764 30 18334009476167013129
14347424 109 17489582385498067592
14400156 162 18338807732701193611
14420673 8 18341894082956753879
14429380 56 9367349202146542083
14767858 380 13551191091531793705
15183329 4 17917709111162507225
15274700 208 13552343419143699358
15352257 5 18334857229676194443
15537594 2 18201710799737318582
15669420 48 17603310362828360790
15799311 1 18337401533757710703
16110190 28 18343017787961371735
17324776 126 16956736833382761490
19303781 99 18045762526085822178
20554085 129 14692574304221876679
21344244 181 18113902662850654810
21362857 166 14273726339819370050
21365058 113 17603590742240927277
21403212 168 11312057621696824564
21792938 703 17459483311013040835
21859007 373 13254806698119282787
220451 1 18343301504652099477
22122407 14 9295000314895044358
22149856 69 18410858745984417776
22950370 63 18412257354718224861
23516275 137 18128278755714427098
23522609 53 18197804221881581929
23569943 247 18263638477174666123
24771750 20 17026859664369197036
25269216 80 16153715284803542935
2838139 119 10015591614330392903
33382 64 18411132532974494712
335507 130 18187083987784004516
34797466 226 17240483649801472012
3737641 26 18261663784344654163
4073 2 18195805391076651442
4093350 32 16486974051121680528
437795 51 18186241727528134331
439807 62 18335980874609031998
4435113 14 18261404376657586563
46194498 28 17676200308374800724
465052 167 18202562869925430524
5104073 3 16629389423926764299
513202 73 18263081033653725321
54039377 194 18270963441382936614
6371009 1 8790891791175116158
7226269 152 15984828155746581465
9831232 110 18335984147516647094
999808 66 18187370939471719539

>  <PUBCHEM_SHAPE_MULTIPOLES>  (1) 
592.57
23.17
3.2
1.41
14.62
1.81
-0.25
11.2
2.87
-5.78
0
1.01
-0.34
-1.14

>  <PUBCHEM_SHAPE_SELFOVERLAP>  (1) 
1277.955

>  <PUBCHEM_SHAPE_VOLUME>  (1) 
325.5

>  <PUBCHEM_COORDINATE_TYPE>  (1) 
2
5
10

$$$$
