44571
     RDKit          3D

 18 20  0  0  0  0  0  0  0  0999 V2000
    1.2150   -3.3971    0.0004 Br  0  0  0  0  0  0  0  0  0  0  0  0
   -0.4815   -0.6426   -0.0012 O   0  0  0  0  0  0  0  0  0  0  0  0
    4.8864    0.3521    0.0012 O   0  0  0  0  0  0  0  0  0  0  0  0
   -5.1856   -0.3548    0.0010 N   0  0  0  0  0  0  0  0  0  0  0  0
   -2.4706    0.7468    0.0002 C   0  0  0  0  0  0  0  0  0  0  0  0
   -3.1160    0.1436    1.2597 C   0  0  0  0  0  0  0  0  0  0  0  0
   -3.1179    0.1462   -1.2595 C   0  0  0  0  0  0  0  0  0  0  0  0
   -4.6393    0.2614    1.2101 C   0  0  0  0  0  0  0  0  0  0  0  0
   -4.6412    0.2639   -1.2077 C   0  0  0  0  0  0  0  0  0  0  0  0
   -0.9636    0.6212   -0.0010 C   0  0  0  0  0  0  0  0  0  0  0  0
    0.0430    1.5455   -0.0008 C   0  0  0  0  0  0  0  0  0  0  0  0
    1.2538    0.8039   -0.0008 C   0  0  0  0  0  0  0  0  0  0  0  0
    0.8771   -0.5352   -0.0011 C   0  0  0  0  0  0  0  0  0  0  0  0
    2.6246    1.1159   -0.0007 C   0  0  0  0  0  0  0  0  0  0  0  0
    1.7762   -1.6001   -0.0012 C   0  0  0  0  0  0  0  0  0  0  0  0
    3.5532    0.0659   -0.0008 C   0  0  0  0  0  0  0  0  0  0  0  0
    3.1341   -1.2668   -0.0011 C   0  0  0  0  0  0  0  0  0  0  0  0
    5.2522    1.7300    0.0032 C   0  0  0  0  0  0  0  0  0  0  0  0
  1 15  1  0
  2 10  1  0
  2 13  1  0
  3 16  1  0
  3 18  1  0
  4  8  1  0
  4  9  1  0
  5  6  1  0
  5  7  1  0
  5 10  1  0
  6  8  1  0
  7  9  1  0
 10 11  2  0
 11 12  1  0
 12 13  2  0
 12 14  1  0
 13 15  1  0
 14 16  2  0
 15 17  2  0
 16 17  1  0
M  END
>  <PUBCHEM_COMPOUND_CID>  (1) 
44571

>  <PUBCHEM_CONFORMER_RMSD>  (1) 
0.6

>  <PUBCHEM_CONFORMER_DIVERSEORDER>  (1) 
1
9
14
5
2
13
3
10
11
4
12
8
6
7

>  <PUBCHEM_MMFF94_PARTIAL_CHARGES>  (1) 
19
1 -0.11
10 -0.04
11 -0.15
13 0.14
14 -0.15
15 0.11
16 0.08
17 -0.15
18 0.28
2 -0.28
28 0.36
29 0.15
3 -0.36
30 0.15
31 0.15
4 -0.9
5 0.18
8 0.27
9 0.27

>  <PUBCHEM_EFFECTIVE_ROTOR_COUNT>  (1) 
3.2

>  <PUBCHEM_PHARMACOPHORE_FEATURES>  (1) 
8
1 1 hydrophobe
1 2 acceptor
1 3 acceptor
1 4 cation
1 4 donor
5 2 10 11 12 13 rings
6 12 13 14 15 16 17 rings
6 4 5 6 7 8 9 rings

>  <PUBCHEM_HEAVY_ATOM_COUNT>  (1) 
18

>  <PUBCHEM_ATOM_DEF_STEREO_COUNT>  (1) 
0

>  <PUBCHEM_ATOM_UDEF_STEREO_COUNT>  (1) 
0

>  <PUBCHEM_BOND_DEF_STEREO_COUNT>  (1) 
0

>  <PUBCHEM_BOND_UDEF_STEREO_COUNT>  (1) 
0

>  <PUBCHEM_ISOTOPIC_ATOM_COUNT>  (1) 
0

>  <PUBCHEM_COMPONENT_COUNT>  (1) 
1

>  <PUBCHEM_CACTVS_TAUTO_COUNT>  (1) 
1

>  <PUBCHEM_CONFORMER_ID>  (1) 
0000AE1B00000001

>  <PUBCHEM_MMFF94_ENERGY>  (1) 
31.1534

>  <PUBCHEM_FEATURE_SELFOVERLAP>  (1) 
40.698

>  <PUBCHEM_SHAPE_FINGERPRINT>  (1) 
10090160 65 18408321090442871830
10366900 7 18273210915515104385
11471102 20 18410009923091644060
12107183 9 17407692709782320809
12236239 1 17775287157966145193
13140716 1 18266742574402956608
13583140 156 16444167863838118492
13631057 29 18057314201336692839
13760787 5 18342455915579965460
13836976 161 18334297595415972118
13862211 1 18338794525302412562
14251717 144 18411978035867753294
14386348 63 17894917317302679067
14576447 43 18201422719122116063
14787075 74 18131350838562195776
14790565 3 18339934795859117592
15375358 24 18113057121149384195
15375462 189 18060134298010398443
16945 1 18410856525638766818
17138139 8 17628040659691209055
17834072 33 17418092143623111488
19489759 90 15864065477394345973
200 152 18343579638534559281
20279233 1 17676492730974760635
204376 136 18409731798289793922
20645477 70 18263074440219523463
21054139 6 18270952565766029535
21065198 48 17988929921032836945
21267235 1 18340494370152217390
221490 88 18120094983394181022
22224240 67 18340486763200439234
23402539 116 14201392802944023631
23402655 69 18341887464095425397
23536379 177 15913335684741654156
23557571 272 16950846890734457767
23559900 14 17974558100971544098
2871803 45 18337389340229447870
33824 294 18408323255006656066
34797466 226 15266782238377402960
4072396 5 18187910769309841568
42630746 31 18413389822083522798
474 4 18341611576818607592
474229 33 18408886265200122914
5104073 3 18262799545132691536
542803 24 17418377999519166153
633830 44 18202013100899651460
81539 233 18260267434663462950
8272917 22 18340489950303750863
9709674 26 18190184494684062035
9971528 1 7925627783165959982

>  <PUBCHEM_SHAPE_MULTIPOLES>  (1) 
359.65
10.42
2.22
0.96
3.54
2.34
0
-3.22
0.01
-2.69
0
1.34
-0.04
0

>  <PUBCHEM_SHAPE_SELFOVERLAP>  (1) 
760.53

>  <PUBCHEM_SHAPE_VOLUME>  (1) 
206.8

>  <PUBCHEM_COORDINATE_TYPE>  (1) 
2
5
10

$$$$
