44589
     RDKit          3D

 30 31  0  0  1  0  0  0  0  0999 V2000
    0.1652    0.8078   -2.4473 O   0  0  0  0  0  0  0  0  0  0  0  0
   -2.3242   -4.5254    0.3158 O   0  0  0  0  0  0  0  0  0  0  0  0
    0.8483    2.9261    2.3510 O   0  0  0  0  0  0  0  0  0  0  0  0
   -2.9382    0.6120    1.5398 O   0  0  0  0  0  0  0  0  0  0  0  0
    4.3701   -2.1069    1.2210 O   0  0  0  0  0  0  0  0  0  0  0  0
   -1.6484   -3.0553    1.9109 O   0  0  0  0  0  0  0  0  0  0  0  0
    1.5933    3.6662    0.3362 O   0  0  0  0  0  0  0  0  0  0  0  0
   -2.0834   -1.1907   -0.3099 N   0  0  0  0  0  0  0  0  0  0  0  0
    1.8120    0.7760   -0.1001 N   0  0  0  0  0  0  0  0  0  0  0  0
   -0.1359   -0.0597   -1.3518 C   0  0  0  0  0  0  0  0  0  0  0  0
   -1.6528   -0.2748   -1.3574 C   0  0  0  0  0  0  0  0  0  0  0  0
    0.3650    0.5775   -0.0504 C   0  0  0  0  0  0  0  0  0  0  0  0
   -3.5284   -1.4173   -0.3831 C   0  0  0  0  0  0  0  0  0  0  0  0
    2.5007   -0.5078   -0.2324 C   0  0  0  0  0  0  0  0  0  0  0  0
   -1.3657   -2.4634   -0.4086 C   0  0  0  0  0  0  0  0  0  0  0  0
    2.2736    1.4818    1.0950 C   0  0  0  0  0  0  0  0  0  0  0  0
   -4.3037   -0.1304   -0.2850 C   0  0  0  0  0  0  0  0  0  0  0  0
    3.9918   -0.3351   -0.3485 C   0  0  0  0  0  0  0  0  0  0  0  0
   -1.7938   -3.3467    0.7305 C   0  0  0  0  0  0  0  0  0  0  0  0
    1.5424    2.7922    1.1923 C   0  0  0  0  0  0  0  0  0  0  0  0
   -3.9682    0.8182    0.6720 C   0  0  0  0  0  0  0  0  0  0  0  0
    4.8498   -1.1441    0.3846 C   0  0  0  0  0  0  0  0  0  0  0  0
   -5.3551    0.0866   -1.1661 C   0  0  0  0  0  0  0  0  0  0  0  0
    4.4881    0.6444   -1.1989 C   0  0  0  0  0  0  0  0  0  0  0  0
   -4.6969    2.0052    0.7491 C   0  0  0  0  0  0  0  0  0  0  0  0
    6.2288   -0.9707    0.2651 C   0  0  0  0  0  0  0  0  0  0  0  0
   -6.0838    1.2735   -1.0886 C   0  0  0  0  0  0  0  0  0  0  0  0
    5.8670    0.8177   -1.3181 C   0  0  0  0  0  0  0  0  0  0  0  0
   -5.7548    2.2328   -0.1311 C   0  0  0  0  0  0  0  0  0  0  0  0
    6.7373    0.0103   -0.5860 C   0  0  0  0  0  0  0  0  0  0  0  0
  1 10  1  0
  2 19  1  0
  3 20  1  0
  4 21  1  0
  5 22  1  0
  6 19  2  0
  7 20  2  0
  8 11  1  0
  8 13  1  0
  8 15  1  0
  9 12  1  0
  9 14  1  0
  9 16  1  0
 10 11  1  0
 10 12  1  0
 13 17  1  0
 14 18  1  0
 15 19  1  0
 16 20  1  0
 17 21  2  0
 17 23  1  0
 18 22  2  0
 18 24  1  0
 21 25  1  0
 22 26  1  0
 23 27  2  0
 24 28  2  0
 25 29  2  0
 26 30  2  0
 27 29  1  0
 28 30  1  0
M  END
>  <PUBCHEM_COMPOUND_CID>  (1) 
44589

>  <PUBCHEM_CONFORMER_RMSD>  (1) 
1

>  <PUBCHEM_CONFORMER_DIVERSEORDER>  (1) 
1
176
172
127
130
51
103
168
162
114
156
99
122
164
86
142
182
125
59
170
175
61
154
128
169
132
69
174
160
165
80
115
143
82
79
179
150
9
147
163
145
146
126
187
136
188
8
166
83
91
92
62
151
87
10
119
107
138
117
49
124
116
177
106
31
137
186
149
2
180
121
30
29
158
110
89
90
133
21
104
109
183
157
113
77
34
84
134
50
108
112
167
111
48
46
81
120
152
181
153
4
47
118
40
45
140
75
37
102
72
25
74
52
39
93
139
58
161
76
64
185
141
20
171
5
65
159
38
100
13
105
68
36
98
18
131
178
28
129
71
67
135
44
42
123
53
97
144
43
155
35
173
56
54
148
70
63
19
27
101
85
11
95
60
23
26
78
33
94
15
32
55
96
184
41
73
17
24
16
14
66
6
12
22
7
57
88
3

>  <PUBCHEM_MMFF94_PARTIAL_CHARGES>  (1) 
43
1 -0.68
10 0.28
11 0.27
12 0.27
13 0.41
14 0.41
15 0.33
16 0.33
17 -0.14
18 -0.14
19 0.66
2 -0.65
20 0.66
21 0.08
22 0.08
23 -0.15
24 -0.15
25 -0.15
26 -0.15
27 -0.15
28 -0.15
29 -0.15
3 -0.65
30 -0.15
4 -0.53
44 0.4
45 0.15
46 0.15
47 0.15
48 0.15
49 0.15
5 -0.53
50 0.15
51 0.15
52 0.15
53 0.5
54 0.5
55 0.45
56 0.45
6 -0.57
7 -0.57
8 -0.81
9 -0.81

>  <PUBCHEM_EFFECTIVE_ROTOR_COUNT>  (1) 
12

>  <PUBCHEM_PHARMACOPHORE_FEATURES>  (1) 
14
1 1 acceptor
1 1 donor
1 2 acceptor
1 3 acceptor
1 4 donor
1 5 donor
1 6 acceptor
1 7 acceptor
1 8 cation
1 9 cation
3 2 6 19 anion
3 3 7 20 anion
6 17 21 23 25 27 29 rings
6 18 22 24 26 28 30 rings

>  <PUBCHEM_HEAVY_ATOM_COUNT>  (1) 
30

>  <PUBCHEM_ATOM_DEF_STEREO_COUNT>  (1) 
0

>  <PUBCHEM_ATOM_UDEF_STEREO_COUNT>  (1) 
0

>  <PUBCHEM_BOND_DEF_STEREO_COUNT>  (1) 
0

>  <PUBCHEM_BOND_UDEF_STEREO_COUNT>  (1) 
0

>  <PUBCHEM_ISOTOPIC_ATOM_COUNT>  (1) 
0

>  <PUBCHEM_COMPONENT_COUNT>  (1) 
1

>  <PUBCHEM_CACTVS_TAUTO_COUNT>  (1) 
5

>  <PUBCHEM_CONFORMER_ID>  (1) 
0000AE2D00000001

>  <PUBCHEM_MMFF94_ENERGY>  (1) 
86.9269

>  <PUBCHEM_FEATURE_SELFOVERLAP>  (1) 
71.162

>  <PUBCHEM_SHAPE_FINGERPRINT>  (1) 
10906281 52 18201174169095501996
10940486 97 18188498002533685718
11763715 3 17476645746466097687
11796584 16 18408890659463694758
12107698 1 18059852913544479791
12128747 34 18342174526439342732
12166972 35 14045733837698093306
12293681 4 18272099296137202336
12549972 3 18196929087702240355
12633046 712 18336261357442860814
12633257 1 18413388722049519117
12788726 201 18201159828521564792
13583140 156 17841996885970067929
14251757 5 18411142433006058824
14466204 15 18270115691572857393
14932701 244 11599731657828944435
15183329 4 18342738490142410245
15238133 3 18342178843329998076
17349148 13 13758081813173112564
19319366 153 17822284639971392130
21033648 29 18261375751153992501
21703447 108 17768233966461531179
23559900 14 18199741599849569801
24893992 56 18342454817318967169
3004659 81 18335702698816038302
4073 2 18262518234129212672
437815 12 17988925557119788868
59755656 520 18408316692945448735
6009941 240 18408326605518626382
6328613 192 18409171030164376876
6371380 46 18411408510203116820
7226269 152 18272092656207634625

>  <PUBCHEM_SHAPE_MULTIPOLES>  (1) 
566.34
15.17
3.75
1.62
7.32
2.05
-0.08
-2.94
3.2
-2.51
-2.16
0.02
-0.43
0

>  <PUBCHEM_SHAPE_SELFOVERLAP>  (1) 
1186.939

>  <PUBCHEM_SHAPE_VOLUME>  (1) 
319

>  <PUBCHEM_COORDINATE_TYPE>  (1) 
2
5
10

$$$$
