44600
     RDKit          3D

 14 14  0  0  1  0  0  0  0  0999 V2000
   -4.5629   -0.4178    0.2306 Cl  0  0  0  0  0  0  0  0  0  0  0  0
    2.1295   -2.6820    0.6376 O   0  0  0  0  0  0  0  0  0  0  0  0
    1.6951   -1.8555   -1.4304 O   0  0  0  0  0  0  0  0  0  0  0  0
    2.9701    2.5999    0.3096 N   0  0  0  0  0  0  0  0  0  0  0  0
    1.2933    0.8142   -0.2317 C   0  0  0  0  0  0  0  0  0  0  0  0
   -0.1950    0.5000   -0.1152 C   0  0  0  0  0  0  0  0  0  0  0  0
    2.1317   -0.3151    0.4094 C   0  0  0  0  0  0  0  0  0  0  0  0
    1.5673    2.2074    0.3815 C   0  0  0  0  0  0  0  0  0  0  0  0
   -1.0509    0.9717   -1.0868 C   0  0  0  0  0  0  0  0  0  0  0  0
   -0.6335   -0.2441    0.9588 C   0  0  0  0  0  0  0  0  0  0  0  0
    1.9453   -1.6676   -0.2480 C   0  0  0  0  0  0  0  0  0  0  0  0
   -2.4118    0.6854   -0.9791 C   0  0  0  0  0  0  0  0  0  0  0  0
   -1.9945   -0.5306    1.0663 C   0  0  0  0  0  0  0  0  0  0  0  0
   -2.8836   -0.0658    0.0974 C   0  0  0  0  0  0  0  0  0  0  0  0
  1 14  1  0
  2 11  1  0
  3 11  2  0
  4  8  1  0
  5  6  1  0
  5  7  1  0
  5  8  1  0
  6  9  2  0
  6 10  1  0
  7 11  1  0
  9 12  1  0
 10 13  2  0
 12 14  2  0
 13 14  1  0
M  END
>  <PUBCHEM_COMPOUND_CID>  (1) 
44600

>  <PUBCHEM_CONFORMER_RMSD>  (1) 
0.6

>  <PUBCHEM_CONFORMER_DIVERSEORDER>  (1) 
1
15
6
11
17
5
7
13
9
10
12
2
14
16
8
4
3

>  <PUBCHEM_MMFF94_PARTIAL_CHARGES>  (1) 
21
1 -0.18
10 -0.15
11 0.66
12 -0.15
13 -0.15
14 0.18
2 -0.65
20 0.15
21 0.15
22 0.36
23 0.36
24 0.15
25 0.15
26 0.5
3 -0.57
4 -0.99
5 0.14
6 -0.14
7 0.06
8 0.27
9 -0.15

>  <PUBCHEM_EFFECTIVE_ROTOR_COUNT>  (1) 
4

>  <PUBCHEM_PHARMACOPHORE_FEATURES>  (1) 
6
1 2 acceptor
1 3 acceptor
1 4 cation
1 4 donor
3 2 3 11 anion
6 6 9 10 12 13 14 rings

>  <PUBCHEM_HEAVY_ATOM_COUNT>  (1) 
14

>  <PUBCHEM_ATOM_DEF_STEREO_COUNT>  (1) 
1

>  <PUBCHEM_ATOM_UDEF_STEREO_COUNT>  (1) 
0

>  <PUBCHEM_BOND_DEF_STEREO_COUNT>  (1) 
0

>  <PUBCHEM_BOND_UDEF_STEREO_COUNT>  (1) 
0

>  <PUBCHEM_ISOTOPIC_ATOM_COUNT>  (1) 
0

>  <PUBCHEM_COMPONENT_COUNT>  (1) 
1

>  <PUBCHEM_CACTVS_TAUTO_COUNT>  (1) 
1

>  <PUBCHEM_CONFORMER_ID>  (1) 
0000AE3800000001

>  <PUBCHEM_MMFF94_ENERGY>  (1) 
30.0554

>  <PUBCHEM_FEATURE_SELFOVERLAP>  (1) 
30.504

>  <PUBCHEM_SHAPE_FINGERPRINT>  (1) 
1 1 18339076116021557796
107287 299 18335710501975023524
12326174 3 18272941530918979692
12346645 6 18340206396378291429
12423570 1 14426829756332270616
12524768 44 18186800309509864217
13380535 76 18189894408002186137
13538477 17 16630241506519834493
13760787 19 17703512215989587951
14252887 29 18041569134733600513
14648413 74 18337099064801892349
15219456 202 18261384572557407933
15502708 68 18340206422422401944
161256 15 18187082836732469909
16945 1 18410282614585999228
17841504 4 18338797801665782920
18186145 218 17894625916899400277
18380122 1 18114173189860573805
19026448 5 17989208162110267473
19049666 15 18188202092319916693
19786989 88 18338508754841226929
20201158 50 18261393321289635002
20361792 2 17985265175288586646
204376 136 18124311876890842368
20645477 70 18342173376026553951
20711985 344 17333098520749260046
20871998 184 17683249431622102097
20871998 22 18127977399496730574
21501502 16 18337399227365768253
21524375 3 18053379083353370944
22802520 49 18188762839050060981
23526113 38 17974827506968502572
23557571 272 17095517379495721421
2748010 2 17822000991814627341
31174 14 18409730642806402351
528862 383 18272651268096140590
7364860 26 18341897406765269808
81228 2 17334492705819960816
81539 233 18263923400703490492
8272917 22 18201167606638700525

>  <PUBCHEM_SHAPE_MULTIPOLES>  (1) 
273.26
5.6
2.36
1.09
5.04
0.22
-0.16
0.2
0.45
-3.27
0.06
0.14
0.16
0.73

>  <PUBCHEM_SHAPE_SELFOVERLAP>  (1) 
551.789

>  <PUBCHEM_SHAPE_VOLUME>  (1) 
160.8

>  <PUBCHEM_COORDINATE_TYPE>  (1) 
2
5
10

$$$$
