44602
     RDKit          3D

 14 14  0  0  1  0  0  0  0  0999 V2000
   -4.5471    0.3709    0.2493 Cl  0  0  0  0  0  0  0  0  0  0  0  0
    2.0604    2.7036    0.6347 O   0  0  0  0  0  0  0  0  0  0  0  0
    1.5418    1.8843   -1.4166 O   0  0  0  0  0  0  0  0  0  0  0  0
    3.0229   -2.5587    0.3169 N   0  0  0  0  0  0  0  0  0  0  0  0
    1.3178   -0.8064   -0.2448 C   0  0  0  0  0  0  0  0  0  0  0  0
   -0.1730   -0.5085   -0.1186 C   0  0  0  0  0  0  0  0  0  0  0  0
    2.1480    0.3419    0.3728 C   0  0  0  0  0  0  0  0  0  0  0  0
    1.6139   -2.1880    0.3841 C   0  0  0  0  0  0  0  0  0  0  0  0
   -1.0317   -1.0017   -1.0770 C   0  0  0  0  0  0  0  0  0  0  0  0
   -0.6107    0.2451    0.9490 C   0  0  0  0  0  0  0  0  0  0  0  0
    1.8915    1.6947   -0.2600 C   0  0  0  0  0  0  0  0  0  0  0  0
   -2.3947   -0.7281   -0.9621 C   0  0  0  0  0  0  0  0  0  0  0  0
   -1.9736    0.5187    1.0640 C   0  0  0  0  0  0  0  0  0  0  0  0
   -2.8656    0.0321    0.1084 C   0  0  0  0  0  0  0  0  0  0  0  0
  1 14  1  0
  2 11  1  0
  3 11  2  0
  4  8  1  0
  5  6  1  0
  5  7  1  0
  5  8  1  0
  6  9  2  0
  6 10  1  0
  7 11  1  0
  9 12  1  0
 10 13  2  0
 12 14  2  0
 13 14  1  0
M  END
>  <PUBCHEM_COMPOUND_CID>  (1) 
44602

>  <PUBCHEM_CONFORMER_RMSD>  (1) 
0.6

>  <PUBCHEM_CONFORMER_DIVERSEORDER>  (1) 
1
11
15
6
18
17
5
10
9
12
7
2
19
14
16
3
8
13
4

>  <PUBCHEM_MMFF94_PARTIAL_CHARGES>  (1) 
21
1 -0.18
10 -0.15
11 0.66
12 -0.15
13 -0.15
14 0.18
2 -0.65
20 0.15
21 0.15
22 0.36
23 0.36
24 0.15
25 0.15
26 0.5
3 -0.57
4 -0.99
5 0.14
6 -0.14
7 0.06
8 0.27
9 -0.15

>  <PUBCHEM_EFFECTIVE_ROTOR_COUNT>  (1) 
4

>  <PUBCHEM_PHARMACOPHORE_FEATURES>  (1) 
6
1 2 acceptor
1 3 acceptor
1 4 cation
1 4 donor
3 2 3 11 anion
6 6 9 10 12 13 14 rings

>  <PUBCHEM_HEAVY_ATOM_COUNT>  (1) 
14

>  <PUBCHEM_ATOM_DEF_STEREO_COUNT>  (1) 
1

>  <PUBCHEM_ATOM_UDEF_STEREO_COUNT>  (1) 
0

>  <PUBCHEM_BOND_DEF_STEREO_COUNT>  (1) 
0

>  <PUBCHEM_BOND_UDEF_STEREO_COUNT>  (1) 
0

>  <PUBCHEM_ISOTOPIC_ATOM_COUNT>  (1) 
0

>  <PUBCHEM_COMPONENT_COUNT>  (1) 
1

>  <PUBCHEM_CACTVS_TAUTO_COUNT>  (1) 
1

>  <PUBCHEM_CONFORMER_ID>  (1) 
0000AE3A00000001

>  <PUBCHEM_MMFF94_ENERGY>  (1) 
29.5516

>  <PUBCHEM_FEATURE_SELFOVERLAP>  (1) 
30.504

>  <PUBCHEM_SHAPE_FINGERPRINT>  (1) 
11031198 65 18261404389473032853
12326174 3 17968363607300698338
12423570 1 14641694493123397722
13538477 17 18060414742221539623
14289901 80 18261122923771877435
15775835 57 18270967975982060573
16945 1 18411127052401013598
17357990 137 17702408185433880377
18186145 218 17749104457746384705
19026448 4 17967534563128481435
19765921 60 17913207838769302889
20339313 130 18339646616242713738
20559304 39 18271810090124322195
20645476 183 18201720695347379631
20671657 1 18412549829063599198
21041028 32 18266740173368577336
21296965 67 18046343037690264754
21501502 16 18271801371979469479
21524375 3 18055074517271892620
2255824 54 18410296899811126374
22854114 111 18340488966809052441
23419403 2 17552876738797762376
23552423 10 18342733052713819967
23557571 272 15482394153580664169
23598291 2 18055933008013956955
2748010 2 18049422769933407550
305870 269 18338793549970121136
3286 77 18041000583842534219
6049 1 17749382625355684791
6992083 37 17913492341682210851
7364860 26 18413670210196072178
81228 2 17398394131224610010

>  <PUBCHEM_SHAPE_MULTIPOLES>  (1) 
273.26
5.55
2.36
1.08
4.97
0.32
0.16
-0.01
-0.52
-3.22
-0.04
0.15
0.15
-0.72

>  <PUBCHEM_SHAPE_SELFOVERLAP>  (1) 
552.044

>  <PUBCHEM_SHAPE_VOLUME>  (1) 
160.8

>  <PUBCHEM_COORDINATE_TYPE>  (1) 
2
5
10

$$$$
