44610
     RDKit          3D

 19 20  0  0  1  0  0  0  0  0999 V2000
    2.9853   -2.8549   -1.0140 Cl  0  0  0  0  0  0  0  0  0  0  0  0
   -1.2550   -1.1181    0.5914 O   0  0  0  0  0  0  0  0  0  0  0  0
   -0.2556    0.8992    0.9929 O   0  0  0  0  0  0  0  0  0  0  0  0
   -4.3357    0.2533   -0.1330 N   0  0  0  0  0  0  0  0  0  0  0  0
    0.9300   -0.9182    0.1143 N   0  0  0  0  0  0  0  0  0  0  0  0
   -2.4884   -0.5962    1.0656 C   0  0  0  0  0  0  0  0  0  0  0  0
   -3.5877   -1.6497    0.9541 C   0  0  0  0  0  0  0  0  0  0  0  0
   -2.9331    0.5535    0.1631 C   0  0  0  0  0  0  0  0  0  0  0  0
   -4.4091   -1.2024   -0.2447 C   0  0  0  0  0  0  0  0  0  0  0  0
   -4.8106    0.9298   -1.3303 C   0  0  0  0  0  0  0  0  0  0  0  0
   -4.7530    2.4393   -1.1673 C   0  0  0  0  0  0  0  0  0  0  0  0
   -0.1820   -0.2592    0.6016 C   0  0  0  0  0  0  0  0  0  0  0  0
    2.2400   -0.4125   -0.0477 C   0  0  0  0  0  0  0  0  0  0  0  0
    2.4795    0.9049    0.3165 C   0  0  0  0  0  0  0  0  0  0  0  0
    3.2542   -1.2113   -0.5543 C   0  0  0  0  0  0  0  0  0  0  0  0
    3.7617    1.4345    0.1704 C   0  0  0  0  0  0  0  0  0  0  0  0
    4.7901    0.6413   -0.3379 C   0  0  0  0  0  0  0  0  0  0  0  0
    4.5364   -0.6816   -0.7005 C   0  0  0  0  0  0  0  0  0  0  0  0
    4.0329    2.8483    0.5597 C   0  0  0  0  0  0  0  0  0  0  0  0
  1 15  1  0
  2  6  1  0
  2 12  1  0
  3 12  2  0
  4  8  1  0
  4  9  1  0
  4 10  1  0
  5 12  1  0
  5 13  1  0
  6  7  1  0
  6  8  1  0
  7  9  1  0
 10 11  1  0
 13 14  2  0
 13 15  1  0
 14 16  1  0
 15 18  2  0
 16 17  2  0
 16 19  1  0
 17 18  1  0
M  END
>  <PUBCHEM_COMPOUND_CID>  (1) 
44610

>  <PUBCHEM_CONFORMER_RMSD>  (1) 
0.8

>  <PUBCHEM_CONFORMER_DIVERSEORDER>  (1) 
1
57
51
62
11
46
44
2
56
55
71
18
73
50
75
60
26
74
69
6
25
27
12
64
61
34
45
8
31
32
68
14
42
77
43
29
63
53
28
7
47
76
66
17
65
35
24
79
23
48
82
58
39
21
10
22
40
20
16
33
80
49
30
37
70
67
59
3
83
54
9
19
38
15
4
72
5
52
36
81
13
78
41

>  <PUBCHEM_MMFF94_PARTIAL_CHARGES>  (1) 
21
1 -0.18
10 0.27
12 0.78
13 0.12
14 -0.15
15 0.18
16 -0.14
17 -0.15
18 -0.15
19 0.14
2 -0.43
3 -0.57
32 0.37
33 0.15
34 0.15
35 0.15
4 -0.81
5 -0.55
6 0.28
8 0.27
9 0.27

>  <PUBCHEM_EFFECTIVE_ROTOR_COUNT>  (1) 
6

>  <PUBCHEM_PHARMACOPHORE_FEATURES>  (1) 
5
1 3 acceptor
1 4 cation
1 5 donor
5 4 6 7 8 9 rings
6 13 14 15 16 17 18 rings

>  <PUBCHEM_HEAVY_ATOM_COUNT>  (1) 
19

>  <PUBCHEM_ATOM_DEF_STEREO_COUNT>  (1) 
0

>  <PUBCHEM_ATOM_UDEF_STEREO_COUNT>  (1) 
1

>  <PUBCHEM_BOND_DEF_STEREO_COUNT>  (1) 
0

>  <PUBCHEM_BOND_UDEF_STEREO_COUNT>  (1) 
0

>  <PUBCHEM_ISOTOPIC_ATOM_COUNT>  (1) 
0

>  <PUBCHEM_COMPONENT_COUNT>  (1) 
1

>  <PUBCHEM_CACTVS_TAUTO_COUNT>  (1) 
2

>  <PUBCHEM_CONFORMER_ID>  (1) 
0000AE4200000001

>  <PUBCHEM_MMFF94_ENERGY>  (1) 
43.116

>  <PUBCHEM_FEATURE_SELFOVERLAP>  (1) 
25.372

>  <PUBCHEM_SHAPE_FINGERPRINT>  (1) 
10014705 185 18186519904291246613
10498660 4 18259980457701835729
10646746 165 18040715874422822028
11089746 13 18188197750139245690
11128504 68 15913052074812860776
11405975 8 18334012748673734163
11471102 20 18343871030701389826
11595378 159 15502647153216396213
12403259 415 18335426793557160337
12616971 3 17060350625151688579
12769317 202 18058724861806956680
12916748 109 17676492765519225867
13583140 156 18342178894605939639
13760787 5 17632304483640560139
14251757 17 18408319960787839017
14251764 38 18041561446262956917
14573314 32 18334858307501508501
15375358 24 18335142033194374858
15961568 22 17604994904378452732
16989378 47 16629144087026455566
17844677 252 18187653534706750921
17959699 21 18334294257936589581
18186145 218 18260839180377389587
18222031 100 14476953480707180745
19489759 90 17676483990595065515
200 152 17632863009677439818
20645477 56 18259707783555719699
20645477 70 18131079216346171430
21065201 7 17748829634972746786
21315763 129 18334572490397530152
21709351 56 18341896320396916246
221357 26 18413100663658499253
22289505 5 18410293575996777100
22393880 68 18334295348900760203
23402539 116 17967810561367775030
23402655 69 18341895173186947740
23557571 272 18041006154377771735
23559900 14 18340769243653508882
23596394 208 18412266108061943206
268830 7 18130802143620775209
29717793 49 17203618059887727132
3060560 45 18201730565714956334
32948 21 18114464461704925446
341906 21 17530959211158465089
3545911 37 18335989726520499507
4028521 119 18333448720994854929
495365 180 18201994469653170984
5104073 3 18333733515759545443
5281201 14 18409738360614616100
5283173 99 18335416833823750637
59682541 52 17915721129847153717
633830 44 18335974286355910423
7471813 234 17203610350801317336
90127 26 18186808005843358664
9709674 26 18341063955561514434

>  <PUBCHEM_SHAPE_MULTIPOLES>  (1) 
371.18
12.48
2.61
1.1
5.27
0.42
0.11
3.58
3.44
-1.42
0.45
0.8
0.02
2.55

>  <PUBCHEM_SHAPE_SELFOVERLAP>  (1) 
762.498

>  <PUBCHEM_SHAPE_VOLUME>  (1) 
216.6

>  <PUBCHEM_COORDINATE_TYPE>  (1) 
2
5
10

$$$$
