44613
     RDKit          3D

 18 20  0  0  0  0  0  0  0  0999 V2000
   -0.6953    0.0915    0.5013 N   0  0  0  0  0  0  0  0  0  0  0  0
    4.4155    2.0001   -0.4076 N   0  0  0  0  0  0  0  0  0  0  0  0
    0.4982    0.7501    0.3224 C   0  0  0  0  0  0  0  0  0  0  0  0
   -1.9364    0.7292    0.8935 C   0  0  0  0  0  0  0  0  0  0  0  0
   -0.5524   -1.2543    0.2582 C   0  0  0  0  0  0  0  0  0  0  0  0
    1.4453   -0.2048   -0.0484 C   0  0  0  0  0  0  0  0  0  0  0  0
    0.7811   -1.4719   -0.0887 C   0  0  0  0  0  0  0  0  0  0  0  0
   -2.7502    1.1939   -0.3133 C   0  0  0  0  0  0  0  0  0  0  0  0
    0.8065    2.1083    0.4601 C   0  0  0  0  0  0  0  0  0  0  0  0
   -4.0474    1.8725    0.1237 C   0  0  0  0  0  0  0  0  0  0  0  0
    2.7685    0.2177   -0.2946 C   0  0  0  0  0  0  0  0  0  0  0  0
   -1.4966   -2.2856    0.3198 C   0  0  0  0  0  0  0  0  0  0  0  0
    1.1938   -2.7871   -0.3897 C   0  0  0  0  0  0  0  0  0  0  0  0
    3.0920    1.5728   -0.1616 C   0  0  0  0  0  0  0  0  0  0  0  0
    2.1238    2.5025    0.2103 C   0  0  0  0  0  0  0  0  0  0  0  0
   -1.0637   -3.5795    0.0174 C   0  0  0  0  0  0  0  0  0  0  0  0
    0.2611   -3.8289   -0.3322 C   0  0  0  0  0  0  0  0  0  0  0  0
   -4.8439    2.3733   -1.0705 C   0  0  0  0  0  0  0  0  0  0  0  0
  1  3  1  0
  1  4  1  0
  1  5  1  0
  2 14  1  0
  3  6  2  0
  3  9  1  0
  4  8  1  0
  5  7  2  0
  5 12  1  0
  6  7  1  0
  6 11  1  0
  7 13  1  0
  8 10  1  0
  9 15  2  0
 10 18  1  0
 11 14  2  0
 12 16  2  0
 13 17  2  0
 14 15  1  0
 16 17  1  0
M  END
>  <PUBCHEM_COMPOUND_CID>  (1) 
44613

>  <PUBCHEM_CONFORMER_RMSD>  (1) 
0.6

>  <PUBCHEM_CONFORMER_DIVERSEORDER>  (1) 
1
9
7
5
4
3
6
8
10
2

>  <PUBCHEM_MMFF94_PARTIAL_CHARGES>  (1) 
22
1 0.05
11 -0.15
12 -0.15
13 -0.15
14 0.1
15 -0.15
16 -0.15
17 -0.15
2 -0.9
25 0.15
26 0.15
27 0.15
28 0.15
29 0.15
3 -0.15
30 0.15
31 0.15
35 0.4
36 0.4
4 0.26
5 -0.15
9 -0.15

>  <PUBCHEM_EFFECTIVE_ROTOR_COUNT>  (1) 
3

>  <PUBCHEM_PHARMACOPHORE_FEATURES>  (1) 
7
1 1 cation
1 18 hydrophobe
1 2 cation
1 2 donor
5 1 3 5 6 7 rings
6 3 6 9 11 14 15 rings
6 5 7 12 13 16 17 rings

>  <PUBCHEM_HEAVY_ATOM_COUNT>  (1) 
18

>  <PUBCHEM_ATOM_DEF_STEREO_COUNT>  (1) 
0

>  <PUBCHEM_ATOM_UDEF_STEREO_COUNT>  (1) 
0

>  <PUBCHEM_BOND_DEF_STEREO_COUNT>  (1) 
0

>  <PUBCHEM_BOND_UDEF_STEREO_COUNT>  (1) 
0

>  <PUBCHEM_ISOTOPIC_ATOM_COUNT>  (1) 
0

>  <PUBCHEM_COMPONENT_COUNT>  (1) 
1

>  <PUBCHEM_CACTVS_TAUTO_COUNT>  (1) 
1

>  <PUBCHEM_CONFORMER_ID>  (1) 
0000AE4500000001

>  <PUBCHEM_MMFF94_ENERGY>  (1) 
42.8338

>  <PUBCHEM_FEATURE_SELFOVERLAP>  (1) 
35.7

>  <PUBCHEM_SHAPE_FINGERPRINT>  (1) 
10411042 1 17257936992596696643
10693767 8 17771058298422203095
10871710 139 17106523752751603573
10967382 1 18123194497982603290
1100329 8 18337952269072594754
11833330 49 17616523399426795777
12500047 106 18339360885227881792
12553582 1 17331133697844753339
12730499 353 18336835182865651537
12788726 201 17758106378038023994
13009979 54 17054707721657489305
13140716 1 18339375075752309946
138480 1 17762339111120754285
14178000 15 17691681191222010145
14508225 48 17405705264736257495
14790565 3 17836964142789435208
15502722 9 18266739078689935021
16752209 62 18196644323007537506
167882 2 18264490598516568014
16945 1 18124331418954726178
17134986 127 18409169896023575916
17539 30 17909543200884154967
19591789 44 18339934804295486755
20510252 161 17840034270799811264
20645477 70 18119524341760838045
21267235 1 17188426391611760630
21285901 2 17697620026975196487
21452121 199 17398660208495677323
21524375 3 18260827120172525705
221490 88 18265621970813340435
22182313 1 18267327432794767390
2255824 54 18125156027106181911
22907989 373 17831297564090127197
2334 1 18341060717319326754
23419403 2 17467119251072727971
23558518 356 17829323932344878232
23566358 2 18272099313364888663
25 1 18410572851491536365
257057 1 17113535913863491075
2748010 2 18268169650375472762
3060560 45 18338795594126537093
3084891 72 18341613694337685296
3091708 16 9048574435771891899
350125 39 18194976363778693033
352729 6 18341341053839313496
394222 165 18113898221838536000
53917941 68 18270102643156387076
559249 180 18335983160338443216
58779409 8 18338808925810382548
6025842 7 18267295440358820349
6443956 14 17617098006095401845
7364860 26 18122906430431267417
7471813 234 17622707744669812765
81228 2 17545884188283942785
8272917 22 18196655082312284973
84936 182 18129376003983583137
90316 7 17186982727931754441

>  <PUBCHEM_SHAPE_MULTIPOLES>  (1) 
360.47
6.14
4.72
0.79
5.97
4.38
-0.02
-7.8
-1.84
-1.08
-0.41
0.37
-0.14
0.56

>  <PUBCHEM_SHAPE_SELFOVERLAP>  (1) 
786.682

>  <PUBCHEM_SHAPE_VOLUME>  (1) 
198.5

>  <PUBCHEM_COORDINATE_TYPE>  (1) 
2
5
10

$$$$
