44611
     RDKit          3D

 17 17  0  0  0  0  0  0  0  0999 V2000
    2.4894   -0.0013    0.9653 O   0  0  0  0  0  0  0  0  0  0  0  0
   -5.0627    0.0034   -0.6925 O   0  0  0  0  0  0  0  0  0  0  0  0
   -4.0394   -0.0001    1.3172 O   0  0  0  0  0  0  0  0  0  0  0  0
    3.1419    0.0000   -1.2664 O   0  0  0  0  0  0  0  0  0  0  0  0
   -2.8089   -0.0001   -0.6882 N   0  0  0  0  0  0  0  0  0  0  0  0
    4.7209    0.0004    0.4332 N   0  0  0  0  0  0  0  0  0  0  0  0
   -1.4730   -0.0005   -0.2726 C   0  0  0  0  0  0  0  0  0  0  0  0
   -0.8068    1.2074   -0.0646 C   0  0  0  0  0  0  0  0  0  0  0  0
   -0.8073   -1.2087   -0.0650 C   0  0  0  0  0  0  0  0  0  0  0  0
    0.5250    1.2070    0.3507 C   0  0  0  0  0  0  0  0  0  0  0  0
    0.5246   -1.2091    0.3499 C   0  0  0  0  0  0  0  0  0  0  0  0
    1.1907   -0.0013    0.5576 C   0  0  0  0  0  0  0  0  0  0  0  0
   -1.4928    2.5181   -0.2767 C   0  0  0  0  0  0  0  0  0  0  0  0
   -1.4945   -2.5185   -0.2783 C   0  0  0  0  0  0  0  0  0  0  0  0
   -3.9526    0.0005    0.0970 C   0  0  0  0  0  0  0  0  0  0  0  0
    3.4384    0.0006   -0.0753 C   0  0  0  0  0  0  0  0  0  0  0  0
    5.9069    0.0021   -0.3914 C   0  0  0  0  0  0  0  0  0  0  0  0
  1 12  1  0
  1 16  1  0
  2 15  1  0
  3 15  2  0
  4 16  2  0
  5  7  1  0
  5 15  1  0
  6 16  1  0
  6 17  1  0
  7  8  2  0
  7  9  1  0
  8 10  1  0
  8 13  1  0
  9 11  2  0
  9 14  1  0
 10 12  2  0
 11 12  1  0
M  END
>  <PUBCHEM_COMPOUND_CID>  (1) 
44611

>  <PUBCHEM_CONFORMER_RMSD>  (1) 
0.6

>  <PUBCHEM_CONFORMER_DIVERSEORDER>  (1) 
1
16
24
18
45
41
15
7
8
30
44
6
28
46
23
19
39
14
22
17
3
29
27
25
21
2
13
31
40
11
12
20
33
43
32
34
42
36
5
38
10
4
35
37
26
9

>  <PUBCHEM_MMFF94_PARTIAL_CHARGES>  (1) 
22
1 -0.23
10 -0.15
11 -0.15
12 0.08
13 0.14
14 0.14
15 0.78
16 0.78
17 0.3
18 0.15
19 0.15
2 -0.65
26 0.37
27 0.37
3 -0.57
31 0.5
4 -0.57
5 -0.55
6 -0.73
7 0.12
8 -0.14
9 -0.14

>  <PUBCHEM_EFFECTIVE_ROTOR_COUNT>  (1) 
5

>  <PUBCHEM_PHARMACOPHORE_FEATURES>  (1) 
6
1 3 acceptor
1 4 acceptor
1 5 donor
1 6 donor
3 2 3 15 anion
6 7 8 9 10 11 12 rings

>  <PUBCHEM_HEAVY_ATOM_COUNT>  (1) 
17

>  <PUBCHEM_ATOM_DEF_STEREO_COUNT>  (1) 
0

>  <PUBCHEM_ATOM_UDEF_STEREO_COUNT>  (1) 
0

>  <PUBCHEM_BOND_DEF_STEREO_COUNT>  (1) 
0

>  <PUBCHEM_BOND_UDEF_STEREO_COUNT>  (1) 
0

>  <PUBCHEM_ISOTOPIC_ATOM_COUNT>  (1) 
0

>  <PUBCHEM_COMPONENT_COUNT>  (1) 
1

>  <PUBCHEM_CACTVS_TAUTO_COUNT>  (1) 
4

>  <PUBCHEM_CONFORMER_ID>  (1) 
0000AE4300000001

>  <PUBCHEM_MMFF94_ENERGY>  (1) 
63.7632

>  <PUBCHEM_FEATURE_SELFOVERLAP>  (1) 
30.446

>  <PUBCHEM_SHAPE_FINGERPRINT>  (1) 
11132069 177 18342730845131940643
12011746 2 18410568488247401125
12236239 1 17603865598772565488
12390115 104 18129112120987233785
12403814 3 17385715907299521087
13140716 1 18266461094951670811
13221675 6 18409445890632520827
13760787 19 16877937244105063443
13862211 1 18411129247208721971
14115302 16 18261395585101111190
14790565 3 18410864247874862521
14911166 2 18412257354754777815
14943859 89 18334857238097122506
14993402 34 18411694405265599519
15042514 8 18337112370695107827
15048467 5 15936404525186998677
15309172 13 18411420601058463611
16945 1 18338784676403910539
187816 3 18410854360616534017
19141452 34 17846498170541637439
19784866 170 18337397015985053737
200 152 15430038764045570288
20279233 1 17632584872491841262
20510252 161 18272088236638996424
20645476 183 17748823033660915922
20645477 56 18411416224523504152
20645477 70 16558478487604768686
21029758 27 18187086165200645365
21267235 1 18340206401427749703
21501502 16 18048872996997737593
2334 1 17905601451888273889
23402539 116 18341324548126936374
23493267 7 17531236224228579881
23557571 272 18130794426113650492
23559900 14 18342735269834602240
2748010 2 18051117387686797507
4990 188 17918275346275384303
53812653 8 18335977571530904289
559249 180 18118959201516689770
69090 78 18060133249880246070

>  <PUBCHEM_SHAPE_MULTIPOLES>  (1) 
316.41
9.47
1.79
0.9
7.73
0
-0.04
-0.01
0.81
-1.32
0.17
-0.05
0
0

>  <PUBCHEM_SHAPE_SELFOVERLAP>  (1) 
654.343

>  <PUBCHEM_SHAPE_VOLUME>  (1) 
180.4

>  <PUBCHEM_COORDINATE_TYPE>  (1) 
2
5
10

$$$$
