44629
     RDKit          3D

 28 31  0  0  1  0  0  0  0  0999 V2000
   -0.8385    1.3399   -2.3208 O   0  0  0  0  0  0  0  0  0  0  0  0
    3.7419   -2.2630    0.3530 O   0  0  0  0  0  0  0  0  0  0  0  0
   -2.3127   -0.7334   -0.7889 N   0  0  0  0  0  0  0  0  0  0  0  0
    2.8168    3.1874    0.3915 N   0  0  0  0  0  0  0  0  0  0  0  0
   -1.2295    0.2245   -0.2211 C   0  0  0  0  0  0  0  0  0  0  0  0
   -3.4583    1.2957    0.3364 C   0  0  0  0  0  0  0  0  0  0  0  0
   -3.1875   -1.2124    0.3973 C   0  0  0  0  0  0  0  0  0  0  0  0
   -3.2216   -0.0209   -1.8010 C   0  0  0  0  0  0  0  0  0  0  0  0
   -1.9321    1.4495    0.3915 C   0  0  0  0  0  0  0  0  0  0  0  0
   -3.8938   -0.0060    1.0383 C   0  0  0  0  0  0  0  0  0  0  0  0
   -3.8583    1.2004   -1.1420 C   0  0  0  0  0  0  0  0  0  0  0  0
   -1.6914   -1.9642   -1.4417 C   0  0  0  0  0  0  0  0  0  0  0  0
   -0.1915    0.6357   -1.2645 C   0  0  0  0  0  0  0  0  0  0  0  0
   -0.8187   -2.6819   -0.4228 C   0  0  0  0  0  0  0  0  0  0  0  0
   -3.6700    0.0361    2.5214 C   0  0  0  0  0  0  0  0  0  0  0  0
    0.8904    1.5045   -0.6719 C   0  0  0  0  0  0  0  0  0  0  0  0
   -0.1366   -3.8994   -1.0455 C   0  0  0  0  0  0  0  0  0  0  0  0
   -4.6470   -0.0650    3.4289 C   0  0  0  0  0  0  0  0  0  0  0  0
    2.0690    0.9633   -0.1584 C   0  0  0  0  0  0  0  0  0  0  0  0
    0.6667    2.8679   -0.6593 C   0  0  0  0  0  0  0  0  0  0  0  0
    0.7669   -4.6042   -0.0462 C   0  0  0  0  0  0  0  0  0  0  0  0
    3.0226    1.8568    0.3730 C   0  0  0  0  0  0  0  0  0  0  0  0
    2.3170   -0.4198   -0.1620 C   0  0  0  0  0  0  0  0  0  0  0  0
    1.6573    3.6623   -0.1183 C   0  0  0  0  0  0  0  0  0  0  0  0
    4.2024    1.3257    0.8873 C   0  0  0  0  0  0  0  0  0  0  0  0
    3.5055   -0.9235    0.3586 C   0  0  0  0  0  0  0  0  0  0  0  0
    4.4491   -0.0494    0.8839 C   0  0  0  0  0  0  0  0  0  0  0  0
    4.9818   -2.7068    0.9032 C   0  0  0  0  0  0  0  0  0  0  0  0
  1 13  1  0
  2 26  1  0
  2 28  1  0
  3  5  1  0
  3  7  1  0
  3  8  1  0
  3 12  1  0
  4 22  2  0
  4 24  1  0
  5  9  1  0
  5 13  1  0
  6  9  1  0
  6 10  1  0
  6 11  1  0
  7 10  1  0
  8 11  1  0
 10 15  1  0
 12 14  1  0
 13 16  1  0
 14 17  1  0
 15 18  2  0
 16 19  2  0
 16 20  1  0
 17 21  1  0
 19 22  1  0
 19 23  1  0
 20 24  2  0
 22 25  1  0
 23 26  2  0
 25 27  2  0
 26 27  1  0
M  CHG  1   3   1
M  END
>  <PUBCHEM_COMPOUND_CID>  (1) 
44629

>  <PUBCHEM_CONFORMER_RMSD>  (1) 
1

>  <PUBCHEM_CONFORMER_DIVERSEORDER>  (1) 
1
10
8
7
4
11
6
3
9
2
5

>  <PUBCHEM_MMFF94_PARTIAL_CHARGES>  (1) 
30
1 -0.68
10 0.14
12 0.5
13 0.42
15 -0.29
16 -0.14
18 -0.3
2 -0.36
20 -0.15
22 0.31
23 -0.15
24 0.16
25 -0.15
26 0.08
27 -0.15
28 0.28
3 -1.01
4 -0.62
45 0.15
48 0.4
49 0.15
5 0.5
50 0.15
51 0.15
55 0.15
56 0.15
57 0.15
58 0.15
7 0.5
8 0.5

>  <PUBCHEM_EFFECTIVE_ROTOR_COUNT>  (1) 
8.2

>  <PUBCHEM_PHARMACOPHORE_FEATURES>  (1) 
10
1 1 acceptor
1 1 donor
1 18 hydrophobe
1 2 acceptor
1 21 hydrophobe
1 3 cation
1 4 acceptor
6 19 22 23 25 26 27 rings
6 4 16 19 20 22 24 rings
8 3 5 6 7 8 9 10 11 rings

>  <PUBCHEM_HEAVY_ATOM_COUNT>  (1) 
28

>  <PUBCHEM_ATOM_DEF_STEREO_COUNT>  (1) 
2

>  <PUBCHEM_ATOM_UDEF_STEREO_COUNT>  (1) 
3

>  <PUBCHEM_BOND_DEF_STEREO_COUNT>  (1) 
0

>  <PUBCHEM_BOND_UDEF_STEREO_COUNT>  (1) 
0

>  <PUBCHEM_ISOTOPIC_ATOM_COUNT>  (1) 
0

>  <PUBCHEM_COMPONENT_COUNT>  (1) 
1

>  <PUBCHEM_CACTVS_TAUTO_COUNT>  (1) 
1

>  <PUBCHEM_CONFORMER_ID>  (1) 
0000AE5500000001

>  <PUBCHEM_MMFF94_ENERGY>  (1) 
114.6493

>  <PUBCHEM_FEATURE_SELFOVERLAP>  (1) 
50.777

>  <PUBCHEM_SHAPE_FINGERPRINT>  (1) 
10369192 42 15360534391101175684
11370993 70 18341882026281479238
11552529 35 17697596950168324198
11796584 16 16371550511271494368
12553582 1 18411416168815621094
12633257 1 18201720635101701598
12788726 201 17341542100236525007
13140716 1 18411979131010327006
13583140 156 18187365467213911585
13631057 29 17332238109908881836
13965767 371 16841657603921879409
14178342 30 17980179101229409856
14363568 33 18196668297805673110
14725015 67 16029858267266380648
14765038 42 18343871026459274418
14787075 74 15893343637901413149
14955137 171 18194706811441272274
15420108 30 17412739519593322797
17349148 13 17774994722011667973
17492 89 18266448983218482918
19930381 70 18194949756382428318
20721686 56 17905040357499056802
20739085 24 18338533945051401240
21796203 349 18265074469804412626
23559900 14 18125138662279506820
341906 21 15482671277507753016
3633792 109 18270098215498539205
563151 40 17542821997278165084
58807428 26 18271544060377678011
7097593 13 18340485689675276004

>  <PUBCHEM_SHAPE_MULTIPOLES>  (1) 
554.53
8.95
4.54
1.99
2.21
3.46
-1.19
0.39
-5.63
3.99
0.89
-3.36
-0.01
-0.43

>  <PUBCHEM_SHAPE_SELFOVERLAP>  (1) 
1185.293

>  <PUBCHEM_SHAPE_VOLUME>  (1) 
303.8

>  <PUBCHEM_COORDINATE_TYPE>  (1) 
2
5
10

$$$$
