44627
     RDKit          3D

 29 32  0  0  1  0  0  0  0  0999 V2000
   -0.9810   -1.4480    2.3409 O   0  0  0  0  0  0  0  0  0  0  0  0
    3.8474    1.7541   -0.4055 O   0  0  0  0  0  0  0  0  0  0  0  0
   -2.3010    0.7019    0.7743 N   0  0  0  0  0  0  0  0  0  0  0  0
    2.5178   -3.6117   -0.3438 N   0  0  0  0  0  0  0  0  0  0  0  0
   -1.2940   -0.3443    0.2220 C   0  0  0  0  0  0  0  0  0  0  0  0
   -3.5983   -1.2558   -0.3122 C   0  0  0  0  0  0  0  0  0  0  0  0
   -3.1412    1.2236   -0.4189 C   0  0  0  0  0  0  0  0  0  0  0  0
   -3.2574    0.0775    1.8006 C   0  0  0  0  0  0  0  0  0  0  0  0
   -2.0880   -1.5241   -0.3671 C   0  0  0  0  0  0  0  0  0  0  0  0
   -3.9375    0.0621   -1.0368 C   0  0  0  0  0  0  0  0  0  0  0  0
   -3.9855   -1.1044    1.1649 C   0  0  0  0  0  0  0  0  0  0  0  0
   -1.5875    1.8944    1.4037 C   0  0  0  0  0  0  0  0  0  0  0  0
   -0.2864   -0.8131    1.2709 C   0  0  0  0  0  0  0  0  0  0  0  0
   -0.6922    2.5870    0.3831 C   0  0  0  0  0  0  0  0  0  0  0  0
   -3.7220   -0.0232   -2.5193 C   0  0  0  0  0  0  0  0  0  0  0  0
    0.7257   -1.7708    0.6923 C   0  0  0  0  0  0  0  0  0  0  0  0
    0.0818    3.8082    0.8916 C   0  0  0  0  0  0  0  0  0  0  0  0
   -4.6915    0.1343   -3.4268 C   0  0  0  0  0  0  0  0  0  0  0  0
    1.9399   -1.3285    0.1672 C   0  0  0  0  0  0  0  0  0  0  0  0
    0.4007   -3.1137    0.7047 C   0  0  0  0  0  0  0  0  0  0  0  0
    0.9089    4.4988   -0.1930 C   0  0  0  0  0  0  0  0  0  0  0  0
    2.8225   -2.3001   -0.3497 C   0  0  0  0  0  0  0  0  0  0  0  0
    2.2905    0.0321    0.1453 C   0  0  0  0  0  0  0  0  0  0  0  0
    1.3276   -3.9894    0.1766 C   0  0  0  0  0  0  0  0  0  0  0  0
    1.6511    5.7061    0.3598 C   0  0  0  0  0  0  0  0  0  0  0  0
    4.0370   -1.8679   -0.8754 C   0  0  0  0  0  0  0  0  0  0  0  0
    3.5117    0.4362   -0.3864 C   0  0  0  0  0  0  0  0  0  0  0  0
    4.3857   -0.5152   -0.8974 C   0  0  0  0  0  0  0  0  0  0  0  0
    5.1154    2.0941   -0.9656 C   0  0  0  0  0  0  0  0  0  0  0  0
  1 13  1  0
  2 27  1  0
  2 29  1  0
  3  5  1  0
  3  7  1  0
  3  8  1  0
  3 12  1  0
  4 22  2  0
  4 24  1  0
  5  9  1  0
  5 13  1  0
  6  9  1  0
  6 10  1  0
  6 11  1  0
  7 10  1  0
  8 11  1  0
 10 15  1  0
 12 14  1  0
 13 16  1  0
 14 17  1  0
 15 18  2  0
 16 19  2  0
 16 20  1  0
 17 21  1  0
 19 22  1  0
 19 23  1  0
 20 24  2  0
 21 25  1  0
 22 26  1  0
 23 27  2  0
 26 28  2  0
 27 28  1  0
M  CHG  1   3   1
M  END
>  <PUBCHEM_COMPOUND_CID>  (1) 
44627

>  <PUBCHEM_CONFORMER_RMSD>  (1) 
1

>  <PUBCHEM_CONFORMER_DIVERSEORDER>  (1) 
1
15
8
12
16
14
4
7
11
5
17
10
3
2
6
9
13

>  <PUBCHEM_MMFF94_PARTIAL_CHARGES>  (1) 
30
1 -0.68
10 0.14
12 0.5
13 0.42
15 -0.29
16 -0.14
18 -0.3
2 -0.36
20 -0.15
22 0.31
23 -0.15
24 0.16
26 -0.15
27 0.08
28 -0.15
29 0.28
3 -1.01
4 -0.62
46 0.15
49 0.4
5 0.5
50 0.15
51 0.15
52 0.15
55 0.15
56 0.15
60 0.15
61 0.15
7 0.5
8 0.5

>  <PUBCHEM_EFFECTIVE_ROTOR_COUNT>  (1) 
9.2

>  <PUBCHEM_PHARMACOPHORE_FEATURES>  (1) 
10
1 1 acceptor
1 1 donor
1 18 hydrophobe
1 2 acceptor
1 25 hydrophobe
1 3 cation
1 4 acceptor
6 19 22 23 26 27 28 rings
6 4 16 19 20 22 24 rings
8 3 5 6 7 8 9 10 11 rings

>  <PUBCHEM_HEAVY_ATOM_COUNT>  (1) 
29

>  <PUBCHEM_ATOM_DEF_STEREO_COUNT>  (1) 
2

>  <PUBCHEM_ATOM_UDEF_STEREO_COUNT>  (1) 
3

>  <PUBCHEM_BOND_DEF_STEREO_COUNT>  (1) 
0

>  <PUBCHEM_BOND_UDEF_STEREO_COUNT>  (1) 
0

>  <PUBCHEM_ISOTOPIC_ATOM_COUNT>  (1) 
0

>  <PUBCHEM_COMPONENT_COUNT>  (1) 
1

>  <PUBCHEM_CACTVS_TAUTO_COUNT>  (1) 
1

>  <PUBCHEM_CONFORMER_ID>  (1) 
0000AE5300000001

>  <PUBCHEM_MMFF94_ENERGY>  (1) 
113.9999

>  <PUBCHEM_FEATURE_SELFOVERLAP>  (1) 
50.777

>  <PUBCHEM_SHAPE_FINGERPRINT>  (1) 
10006869 2 17834979476808941617
1100329 8 17979649145178196824
11578080 2 17199074770340942234
12553582 1 18412546474720573539
12788726 201 17691108350091132277
13140716 1 18263099746636102994
13224815 77 18260836955516089587
13383661 66 16110337729879917295
13911987 19 18336273456365687844
14537116 161 17618456006774244581
15927050 60 17549841322216719763
19930381 70 18338528515990900968
20775438 99 17763415649190758029
21033648 144 18113625611885346238
21033648 29 16805606953882524894
2132832 1 17831276338488499882
21857420 4 16895328069156206189
238 59 18192407861814020517
26353 1 18126538203448492205
3388396 114 18339919329918774836
6669772 16 17837761593097599373
70251023 43 18126556826083971647

>  <PUBCHEM_SHAPE_MULTIPOLES>  (1) 
575.11
8.72
5.72
1.94
1.04
7.01
-1.15
-0.46
-5.5
5.82
1.11
-3.27
-0.08
0.07

>  <PUBCHEM_SHAPE_SELFOVERLAP>  (1) 
1222.028

>  <PUBCHEM_SHAPE_VOLUME>  (1) 
317

>  <PUBCHEM_COORDINATE_TYPE>  (1) 
2
5
10

$$$$
