44625
     RDKit          3D

 25 28  0  0  0  0  0  0  0  0999 V2000
    0.7077    0.5832    0.0036 O   0  0  0  0  0  0  0  0  0  0  0  0
   -0.7752    1.9529    1.1123 O   0  0  0  0  0  0  0  0  0  0  0  0
    3.1976    0.7513    0.2241 N   0  0  0  0  0  0  0  0  0  0  0  0
    5.5405   -0.0899   -0.4562 C   0  0  0  0  0  0  0  0  0  0  0  0
    4.2711    1.5630    0.9617 C   0  0  0  0  0  0  0  0  0  0  0  0
    3.3398   -0.7318    0.5923 C   0  0  0  0  0  0  0  0  0  0  0  0
    3.3860    0.9185   -1.2898 C   0  0  0  0  0  0  0  0  0  0  0  0
    5.6551    1.0587    0.5517 C   0  0  0  0  0  0  0  0  0  0  0  0
    4.7309   -1.2206    0.1879 C   0  0  0  0  0  0  0  0  0  0  0  0
    4.7755    0.4164   -1.6834 C   0  0  0  0  0  0  0  0  0  0  0  0
    1.8170    1.2471    0.6252 C   0  0  0  0  0  0  0  0  0  0  0  0
   -0.5404    1.0362    0.3353 C   0  0  0  0  0  0  0  0  0  0  0  0
   -1.5933    0.2591   -0.4486 C   0  0  0  0  0  0  0  0  0  0  0  0
   -3.0007    0.8119   -0.2631 C   0  0  0  0  0  0  0  0  0  0  0  0
   -1.5377   -1.2464   -0.2244 C   0  0  0  0  0  0  0  0  0  0  0  0
   -3.7786    0.3205    0.7644 C   0  0  0  0  0  0  0  0  0  0  0  0
   -1.9339   -2.0865   -1.2441 C   0  0  0  0  0  0  0  0  0  0  0  0
   -3.4524    1.7865   -1.1281 C   0  0  0  0  0  0  0  0  0  0  0  0
   -1.0923   -1.7227    0.9911 C   0  0  0  0  0  0  0  0  0  0  0  0
   -5.0671    0.8266    0.9346 C   0  0  0  0  0  0  0  0  0  0  0  0
   -1.8827   -3.4652   -1.0391 C   0  0  0  0  0  0  0  0  0  0  0  0
   -4.7411    2.2928   -0.9578 C   0  0  0  0  0  0  0  0  0  0  0  0
   -1.0410   -3.1015    1.1961 C   0  0  0  0  0  0  0  0  0  0  0  0
   -5.5484    1.8128    0.0736 C   0  0  0  0  0  0  0  0  0  0  0  0
   -1.4363   -3.9728    0.1809 C   0  0  0  0  0  0  0  0  0  0  0  0
  1 11  1  0
  1 12  1  0
  2 12  2  0
  3  5  1  0
  3  6  1  0
  3  7  1  0
  3 11  1  0
  4  8  1  0
  4  9  1  0
  4 10  1  0
  5  8  1  0
  6  9  1  0
  7 10  1  0
 12 13  1  0
 13 14  1  0
 13 15  1  0
 14 16  2  0
 14 18  1  0
 15 17  2  0
 15 19  1  0
 16 20  1  0
 17 21  1  0
 18 22  2  0
 19 23  2  0
 20 24  2  0
 21 25  2  0
 22 24  1  0
 23 25  1  0
M  CHG  1   3   1
M  END
>  <PUBCHEM_COMPOUND_CID>  (1) 
44625

>  <PUBCHEM_CONFORMER_RMSD>  (1) 
0.8

>  <PUBCHEM_CONFORMER_DIVERSEORDER>  (1) 
1
15
14
11
5
3
20
17
6
19
9
10
7
8
4
16
18
2
13
12

>  <PUBCHEM_MMFF94_PARTIAL_CHARGES>  (1) 
31
1 -0.43
11 0.78
12 0.66
13 0.35
14 -0.14
15 -0.14
16 -0.15
17 -0.15
18 -0.15
19 -0.15
2 -0.57
20 -0.15
21 -0.15
22 -0.15
23 -0.15
24 -0.15
25 -0.15
3 -1.01
42 0.15
43 0.15
44 0.15
45 0.15
46 0.15
47 0.15
48 0.15
49 0.15
5 0.5
50 0.15
51 0.15
6 0.5
7 0.5

>  <PUBCHEM_EFFECTIVE_ROTOR_COUNT>  (1) 
7.2

>  <PUBCHEM_PHARMACOPHORE_FEATURES>  (1) 
5
1 2 acceptor
1 3 cation
6 14 16 18 20 22 24 rings
6 15 17 19 21 23 25 rings
8 3 4 5 6 7 8 9 10 rings

>  <PUBCHEM_HEAVY_ATOM_COUNT>  (1) 
25

>  <PUBCHEM_ATOM_DEF_STEREO_COUNT>  (1) 
0

>  <PUBCHEM_ATOM_UDEF_STEREO_COUNT>  (1) 
0

>  <PUBCHEM_BOND_DEF_STEREO_COUNT>  (1) 
0

>  <PUBCHEM_BOND_UDEF_STEREO_COUNT>  (1) 
0

>  <PUBCHEM_ISOTOPIC_ATOM_COUNT>  (1) 
0

>  <PUBCHEM_COMPONENT_COUNT>  (1) 
1

>  <PUBCHEM_CACTVS_TAUTO_COUNT>  (1) 
1

>  <PUBCHEM_CONFORMER_ID>  (1) 
0000AE5100000001

>  <PUBCHEM_MMFF94_ENERGY>  (1) 
74.3096

>  <PUBCHEM_FEATURE_SELFOVERLAP>  (1) 
25.373

>  <PUBCHEM_SHAPE_FINGERPRINT>  (1) 
105312 117 18335978697239825117
107951 10 18187090545951496283
10906281 52 17774738509937854320
11036077 3 18412268298753571011
11405975 8 18342174522745957152
11578080 2 17558826440785954689
11796584 16 18412827989402035542
12549972 3 17630876299529734234
12616971 3 17313098692451209804
12643181 29 18342462517894655294
12788726 201 18192695955415202747
12969540 114 18338787936616644501
13135754 10 17605291759590507955
13257819 101 16879333538463551997
13533116 47 18200876150369036102
13726171 33 17909863094860884116
14251757 5 18337401529510216180
14790565 3 18268712705993192401
14866123 147 18339079401819875563
15042514 8 18191311683561225971
15131766 46 15287068279438578446
15927050 60 18412260615047419023
16992727 255 11167401448758690547
17809404 112 17632299016706433038
17980427 23 17750792345771845300
18222031 100 8430301429844984081
19141452 34 18410008857961100620
20197701 30 18335700490748875015
20681677 155 18410008858098036440
21033648 29 18339344297785123273
21133410 171 17116289504104729770
21424621 283 18059298660663060537
22224240 67 18412552003388105345
22849339 104 18269010793934845046
23536364 44 18051947476792284103
23558518 356 17754174498555677424
23559900 14 18202279230454404032
249057 3 18335703806938303436
3004659 81 18261393283489387178
3298306 158 18336543798803075551
340366 18 18261679258774757652
3411729 13 18118686505342082873
3729539 64 18124889953597832750
3759504 43 18260268547107173075
38695281 34 18268144267487810767
4015057 19 17418083373242189712
404807 14 14184559094902148669
4058900 60 18118410540549969801
4073 2 18340203103161534704
44062 13 18340210786199001430
5104073 3 18269263725112352840
5265222 85 18263659492622782854
5385378 56 18194409892542750889
559249 180 18410289207767292258
58260988 521 18190202173280973955
59025328 239 16693551579389978991
59755656 520 18343298159436844581
6138700 20 18122908633681464214
6669772 16 18270684156043169975
6913067 236 11242254099120274512
70251023 43 17481971742278639519
7226269 152 18202280281972435304
81228 2 17833251388353417665
9709674 26 18198336458633671416

>  <PUBCHEM_SHAPE_MULTIPOLES>  (1) 
497.77
12.66
3.59
1.3
9.07
4.38
0.23
-7.96
0.72
-3.97
0.1
0.17
0.04
0.26

>  <PUBCHEM_SHAPE_SELFOVERLAP>  (1) 
1072.105

>  <PUBCHEM_SHAPE_VOLUME>  (1) 
269.6

>  <PUBCHEM_COORDINATE_TYPE>  (1) 
2
5
10

$$$$
