44637
     RDKit          3D

 27 30  0  0  1  0  0  0  0  0999 V2000
   -0.9995   -0.9702    1.7805 O   0  0  0  0  0  0  0  0  0  0  0  0
    4.1429    2.4472    0.0496 O   0  0  0  0  0  0  0  0  0  0  0  0
   -2.0716    1.1566    0.0071 N   0  0  0  0  0  0  0  0  0  0  0  0
    3.0327   -2.9628   -0.1958 N   0  0  0  0  0  0  0  0  0  0  0  0
   -0.9374    0.1560   -0.3486 C   0  0  0  0  0  0  0  0  0  0  0  0
   -3.0651   -0.8490   -1.2911 C   0  0  0  0  0  0  0  0  0  0  0  0
   -3.1754    0.4898    0.8476 C   0  0  0  0  0  0  0  0  0  0  0  0
   -2.7084    1.6451   -1.3132 C   0  0  0  0  0  0  0  0  0  0  0  0
   -1.5559   -1.0419   -1.0925 C   0  0  0  0  0  0  0  0  0  0  0  0
   -3.7141   -0.7445    0.1056 C   0  0  0  0  0  0  0  0  0  0  0  0
   -3.2752    0.4506   -2.0767 C   0  0  0  0  0  0  0  0  0  0  0  0
   -1.5336    2.3764    0.7488 C   0  0  0  0  0  0  0  0  0  0  0  0
   -0.1355   -0.2935    0.8719 C   0  0  0  0  0  0  0  0  0  0  0  0
   -5.2132   -0.7315    0.0418 C   0  0  0  0  0  0  0  0  0  0  0  0
   -2.6963    3.3074    1.0524 C   0  0  0  0  0  0  0  0  0  0  0  0
   -0.4753    3.0396   -0.1179 C   0  0  0  0  0  0  0  0  0  0  0  0
    1.0057   -1.2049    0.4926 C   0  0  0  0  0  0  0  0  0  0  0  0
   -6.0307   -1.6393    0.5891 C   0  0  0  0  0  0  0  0  0  0  0  0
    2.2803   -0.7108    0.2155 C   0  0  0  0  0  0  0  0  0  0  0  0
    0.7361   -2.5586    0.4295 C   0  0  0  0  0  0  0  0  0  0  0  0
    3.2823   -1.6413   -0.1308 C   0  0  0  0  0  0  0  0  0  0  0  0
    2.5760    0.6618    0.2738 C   0  0  0  0  0  0  0  0  0  0  0  0
    1.7801   -3.3916    0.0820 C   0  0  0  0  0  0  0  0  0  0  0  0
    4.5576   -1.1573   -0.4089 C   0  0  0  0  0  0  0  0  0  0  0  0
    3.8602    1.1182   -0.0093 C   0  0  0  0  0  0  0  0  0  0  0  0
    4.8519    0.2072   -0.3511 C   0  0  0  0  0  0  0  0  0  0  0  0
    5.4812    2.8414   -0.2516 C   0  0  0  0  0  0  0  0  0  0  0  0
  1 13  1  0
  2 25  1  0
  2 27  1  0
  3  5  1  0
  3  7  1  0
  3  8  1  0
  3 12  1  0
  4 21  2  0
  4 23  1  0
  5  9  1  0
  5 13  1  0
  6  9  1  0
  6 10  1  0
  6 11  1  0
  7 10  1  0
  8 11  1  0
 10 14  1  0
 12 15  1  0
 12 16  1  0
 13 17  1  0
 14 18  2  0
 17 19  2  0
 17 20  1  0
 19 21  1  0
 19 22  1  0
 20 23  2  0
 21 24  1  0
 22 25  2  0
 24 26  2  0
 25 26  1  0
M  CHG  1   3   1
M  END
>  <PUBCHEM_COMPOUND_CID>  (1) 
44637

>  <PUBCHEM_CONFORMER_RMSD>  (1) 
0.8

>  <PUBCHEM_CONFORMER_DIVERSEORDER>  (1) 
4
5
6
3
2
1

>  <PUBCHEM_MMFF94_PARTIAL_CHARGES>  (1) 
30
1 -0.68
10 0.14
12 0.5
13 0.42
14 -0.29
17 -0.14
18 -0.3
2 -0.36
20 -0.15
21 0.31
22 -0.15
23 0.16
24 -0.15
25 0.08
26 -0.15
27 0.28
3 -1.01
4 -0.62
41 0.15
48 0.4
49 0.15
5 0.5
50 0.15
51 0.15
52 0.15
53 0.15
54 0.15
55 0.15
7 0.5
8 0.5

>  <PUBCHEM_EFFECTIVE_ROTOR_COUNT>  (1) 
6.2

>  <PUBCHEM_PHARMACOPHORE_FEATURES>  (1) 
10
1 1 acceptor
1 1 donor
1 18 hydrophobe
1 2 acceptor
1 3 cation
1 4 acceptor
3 12 15 16 hydrophobe
6 19 21 22 24 25 26 rings
6 4 17 19 20 21 23 rings
8 3 5 6 7 8 9 10 11 rings

>  <PUBCHEM_HEAVY_ATOM_COUNT>  (1) 
27

>  <PUBCHEM_ATOM_DEF_STEREO_COUNT>  (1) 
2

>  <PUBCHEM_ATOM_UDEF_STEREO_COUNT>  (1) 
3

>  <PUBCHEM_BOND_DEF_STEREO_COUNT>  (1) 
0

>  <PUBCHEM_BOND_UDEF_STEREO_COUNT>  (1) 
0

>  <PUBCHEM_ISOTOPIC_ATOM_COUNT>  (1) 
0

>  <PUBCHEM_COMPONENT_COUNT>  (1) 
1

>  <PUBCHEM_CACTVS_TAUTO_COUNT>  (1) 
1

>  <PUBCHEM_CONFORMER_ID>  (1) 
0000AE5D00000004

>  <PUBCHEM_MMFF94_ENERGY>  (1) 
128.1612

>  <PUBCHEM_FEATURE_SELFOVERLAP>  (1) 
50.777

>  <PUBCHEM_SHAPE_FINGERPRINT>  (1) 
10498660 4 18261667091306175756
10670039 82 18262252062290361596
1100329 8 18051695747988359449
11135609 187 18264488571166254757
11578080 2 17750222613616697029
12166972 35 17676206888127287980
12236239 1 17846504746321118715
12403259 415 18113334211022430100
12403260 363 18410284792867771474
12403814 3 18060137609699117887
12553582 1 18271791446151688823
12714826 92 17345741989709208835
12730499 353 18335988648674112530
12788726 201 17132127826787433657
13009979 54 17486493694554584010
13140716 1 18051965110993583594
13224815 77 18261951856074516226
13402501 40 18261957478091709513
13583140 156 17756726134626539769
13911987 19 18264203793353893036
14787075 74 18261391208582437307
14790565 3 18341337772716869065
14840074 17 17917432068465407117
15840311 113 18262526867341324357
15927050 60 17332250204415402989
16752209 62 17344323593802508583
17349148 13 18040996224471509562
17492 89 18268148656269862039
19319366 153 18340196479473463254
19930381 70 18410292536192879992
20429585 67 18408322215956425155
20775438 99 17540767821562575845
21033648 29 16732978700572371028
21709351 56 18268427941461481350
23227448 37 18123191191016144765
23352939 185 18131073770443470689
23419403 2 17316224689697541305
23558518 356 18192717743456422769
23559900 14 18120361069350089386
23598288 3 17915455004846103533
238 59 18410855434991770154
312423 11 18268713818141425158
3380486 145 17973464353543463867
350125 39 18340207393037408074
392239 28 18408329895010291323
4258327 124 16807305837355981524
4409770 3 14739253382899827221
46194498 28 18059588957808071718
463206 1 18196648716711868687
469060 322 15865225454014535233
474 4 18335136454221598728
5104073 3 18197210356789838450
6287921 2 18335152955348728940
7832392 63 17907858397252160314
9709674 26 18337961073713165066
9981440 41 18336255847458541600

>  <PUBCHEM_SHAPE_MULTIPOLES>  (1) 
533.95
10.92
3.73
1.21
1.72
1.08
-0.27
0.64
-0.85
2.13
0.52
-1.29
0.13
-0.15

>  <PUBCHEM_SHAPE_SELFOVERLAP>  (1) 
1152.44

>  <PUBCHEM_SHAPE_VOLUME>  (1) 
290.6

>  <PUBCHEM_COORDINATE_TYPE>  (1) 
2
5
10

$$$$
