44631
     RDKit          3D

 26 29  0  0  1  0  0  0  0  0999 V2000
   -1.1218    0.9041   -1.7793 O   0  0  0  0  0  0  0  0  0  0  0  0
    4.1570   -2.3730   -0.1938 O   0  0  0  0  0  0  0  0  0  0  0  0
   -2.1116   -1.3775   -0.1568 N   0  0  0  0  0  0  0  0  0  0  0  0
    2.7901    2.9534    0.3731 N   0  0  0  0  0  0  0  0  0  0  0  0
   -1.0299   -0.3497    0.2762 C   0  0  0  0  0  0  0  0  0  0  0  0
   -3.2127    0.4942    1.2500 C   0  0  0  0  0  0  0  0  0  0  0  0
   -3.2364   -0.7110   -0.9694 C   0  0  0  0  0  0  0  0  0  0  0  0
   -1.7122    0.7690    1.0847 C   0  0  0  0  0  0  0  0  0  0  0  0
   -3.8408    0.4477   -0.1594 C   0  0  0  0  0  0  0  0  0  0  0  0
   -2.7390   -1.9771    1.1214 C   0  0  0  0  0  0  0  0  0  0  0  0
   -3.3699   -0.8607    1.9500 C   0  0  0  0  0  0  0  0  0  0  0  0
   -1.5086   -2.5219   -0.9657 C   0  0  0  0  0  0  0  0  0  0  0  0
   -0.2368    0.2124   -0.9028 C   0  0  0  0  0  0  0  0  0  0  0  0
   -5.3383    0.3612   -0.1173 C   0  0  0  0  0  0  0  0  0  0  0  0
   -0.4308   -3.1975   -0.1463 C   0  0  0  0  0  0  0  0  0  0  0  0
    0.8559    1.1501   -0.4516 C   0  0  0  0  0  0  0  0  0  0  0  0
   -6.1916    1.2627   -0.6181 C   0  0  0  0  0  0  0  0  0  0  0  0
    2.1493    0.6992   -0.1882 C   0  0  0  0  0  0  0  0  0  0  0  0
    0.5221    2.4832   -0.3079 C   0  0  0  0  0  0  0  0  0  0  0  0
    3.1025    1.6517    0.2292 C   0  0  0  0  0  0  0  0  0  0  0  0
    2.5101   -0.6517   -0.3279 C   0  0  0  0  0  0  0  0  0  0  0  0
    1.5218    3.3403    0.1052 C   0  0  0  0  0  0  0  0  0  0  0  0
    4.3961    1.2108    0.4943 C   0  0  0  0  0  0  0  0  0  0  0  0
    3.8112   -1.0649   -0.0560 C   0  0  0  0  0  0  0  0  0  0  0  0
    4.7550   -0.1322    0.3555 C   0  0  0  0  0  0  0  0  0  0  0  0
    5.5090   -2.7228    0.1008 C   0  0  0  0  0  0  0  0  0  0  0  0
  1 13  1  0
  2 24  1  0
  2 26  1  0
  3  5  1  0
  3  7  1  0
  3 10  1  0
  3 12  1  0
  4 20  2  0
  4 22  1  0
  5  8  1  0
  5 13  1  0
  6  8  1  0
  6  9  1  0
  6 11  1  0
  7  9  1  0
  9 14  1  0
 10 11  1  0
 12 15  1  0
 13 16  1  0
 14 17  2  0
 16 18  2  0
 16 19  1  0
 18 20  1  0
 18 21  1  0
 19 22  2  0
 20 23  1  0
 21 24  2  0
 23 25  2  0
 24 25  1  0
M  CHG  1   3   1
M  END
>  <PUBCHEM_COMPOUND_CID>  (1) 
44631

>  <PUBCHEM_CONFORMER_RMSD>  (1) 
0.8

>  <PUBCHEM_CONFORMER_DIVERSEORDER>  (1) 
5
9
8
7
10
2
3
4
1
6

>  <PUBCHEM_MMFF94_PARTIAL_CHARGES>  (1) 
30
1 -0.68
10 0.5
12 0.5
13 0.42
14 -0.29
16 -0.14
17 -0.3
19 -0.15
2 -0.36
20 0.31
21 -0.15
22 0.16
23 -0.15
24 0.08
25 -0.15
26 0.28
3 -1.01
4 -0.62
41 0.15
45 0.4
46 0.15
47 0.15
48 0.15
49 0.15
5 0.5
50 0.15
51 0.15
52 0.15
7 0.5
9 0.14

>  <PUBCHEM_EFFECTIVE_ROTOR_COUNT>  (1) 
6.2

>  <PUBCHEM_PHARMACOPHORE_FEATURES>  (1) 
9
1 1 acceptor
1 1 donor
1 17 hydrophobe
1 2 acceptor
1 3 cation
1 4 acceptor
6 18 20 21 23 24 25 rings
6 4 16 18 19 20 22 rings
8 3 5 6 7 8 9 10 11 rings

>  <PUBCHEM_HEAVY_ATOM_COUNT>  (1) 
26

>  <PUBCHEM_ATOM_DEF_STEREO_COUNT>  (1) 
2

>  <PUBCHEM_ATOM_UDEF_STEREO_COUNT>  (1) 
3

>  <PUBCHEM_BOND_DEF_STEREO_COUNT>  (1) 
0

>  <PUBCHEM_BOND_UDEF_STEREO_COUNT>  (1) 
0

>  <PUBCHEM_ISOTOPIC_ATOM_COUNT>  (1) 
0

>  <PUBCHEM_COMPONENT_COUNT>  (1) 
1

>  <PUBCHEM_CACTVS_TAUTO_COUNT>  (1) 
1

>  <PUBCHEM_CONFORMER_ID>  (1) 
0000AE5700000005

>  <PUBCHEM_MMFF94_ENERGY>  (1) 
115.5794

>  <PUBCHEM_FEATURE_SELFOVERLAP>  (1) 
45.702

>  <PUBCHEM_SHAPE_FINGERPRINT>  (1) 
10369192 42 15072597597296433780
10622 236 17844220003966622438
11370993 144 18335419092876217789
11370993 70 18341612667671352115
11578080 2 17272267305413942657
11796584 16 17458346338421487576
12011746 2 18336549304782435119
12107183 9 18126856996926539721
12236239 1 17703785920869488533
12403260 363 18272653429055923865
12507560 14 18343019960760674780
12507560 40 18188778387047774825
12553582 1 18412268307596927774
12633257 1 18343024376372495230
12714826 92 17749387019049251588
12760667 363 18263925428403074074
13004483 165 18339914914565501216
13140716 1 18411146852269086451
13402501 40 18262797363315347151
13533116 47 18272929427315913721
13544592 145 18186518782866867557
13544653 18 18334860498388555396
13583140 156 17630040709453142833
13675066 3 18114185293194283033
14117953 113 18200591367861696662
14178342 30 17981313805729564544
14223421 5 18050009092771786394
14466204 15 18267867177414720705
14866123 147 17762059839599481960
15420108 30 17122840028866759137
15475509 84 17845938416714265744
17349148 13 17561088020551486333
17492 89 18267586999191313090
17980427 23 17418100888482800025
18335252 114 18339347580036592165
19141452 34 18410007762496487903
192875 21 17917994975422137201
20197701 30 18411695500614505623
20511986 3 17917130793198935388
20715895 44 18271246024297555561
20832881 197 18334576793827887640
21033648 29 18337378422924365073
21033650 10 15768122101212704721
21065198 57 18336829813581291129
21279426 13 18190452758378436757
21521239 73 18271227401456211959
21859007 373 17969763221099980141
23184049 59 18411425007220064582
23559900 14 18341891921997094072
2838139 119 18340762634374496053
3004659 81 17968381148385283550
335352 9 18411135814165998438
34934 24 18410006680549623576
3633792 109 18272364235822463729
4017518 198 17346601846758121102
404807 14 17123686661347199943
437815 12 18338519621261349798
5104073 3 18339644563195229329
6138700 20 18265614282178490655
7097593 13 18269844275319584312
9709674 26 18264490761525190123
9981440 41 17547282767180644808

>  <PUBCHEM_SHAPE_MULTIPOLES>  (1) 
513.37
11.06
3.39
1.18
0.65
0.32
0.19
1.42
0.67
-3.03
-0.1
1.2
0.13
0.58

>  <PUBCHEM_SHAPE_SELFOVERLAP>  (1) 
1109.276

>  <PUBCHEM_SHAPE_VOLUME>  (1) 
278.8

>  <PUBCHEM_COORDINATE_TYPE>  (1) 
2
5
10

$$$$
