4463
     RDKit          3D

 20 23  0  0  0  0  0  0  0  0999 V2000
    0.8987   -2.8388   -1.5122 O   0  0  0  0  0  0  0  0  0  0  0  0
    0.2499    1.0086   -0.0601 N   0  0  0  0  0  0  0  0  0  0  0  0
   -0.8543   -1.7140   -0.6317 N   0  0  0  0  0  0  0  0  0  0  0  0
   -1.9407    1.5809    0.6821 N   0  0  0  0  0  0  0  0  0  0  0  0
    2.4581    0.8732    0.8178 N   0  0  0  0  0  0  0  0  0  0  0  0
    0.4841    2.4797   -0.2277 C   0  0  0  0  0  0  0  0  0  0  0  0
    0.0329    3.1698   -1.4598 C   0  0  0  0  0  0  0  0  0  0  0  0
    1.4961    2.9676   -1.1953 C   0  0  0  0  0  0  0  0  0  0  0  0
   -1.0920    0.6195    0.2036 C   0  0  0  0  0  0  0  0  0  0  0  0
    1.4004    0.2312    0.2331 C   0  0  0  0  0  0  0  0  0  0  0  0
   -1.5749   -0.6623   -0.0503 C   0  0  0  0  0  0  0  0  0  0  0  0
    1.4913   -1.1263   -0.0588 C   0  0  0  0  0  0  0  0  0  0  0  0
   -2.9368   -0.9290    0.1845 C   0  0  0  0  0  0  0  0  0  0  0  0
    0.4919   -1.9168   -0.8002 C   0  0  0  0  0  0  0  0  0  0  0  0
    2.6679   -1.8164    0.2925 C   0  0  0  0  0  0  0  0  0  0  0  0
   -3.7829    0.0460    0.6852 C   0  0  0  0  0  0  0  0  0  0  0  0
   -3.2361    1.2833    0.9172 C   0  0  0  0  0  0  0  0  0  0  0  0
    3.5707    0.1814    1.1425 C   0  0  0  0  0  0  0  0  0  0  0  0
   -3.5465   -2.2750   -0.0711 C   0  0  0  0  0  0  0  0  0  0  0  0
    3.7222   -1.1625    0.9086 C   0  0  0  0  0  0  0  0  0  0  0  0
  1 14  2  0
  2  6  1  0
  2  9  1  0
  2 10  1  0
  3 11  1  0
  3 14  1  0
  4  9  1  0
  4 17  2  0
  5 10  2  0
  5 18  1  0
  6  7  1  0
  6  8  1  0
  7  8  1  0
  9 11  2  0
 10 12  1  0
 11 13  1  0
 12 14  1  0
 12 15  2  0
 13 16  2  0
 13 19  1  0
 15 20  1  0
 16 17  1  0
 18 20  2  0
M  END
>  <PUBCHEM_COMPOUND_CID>  (1) 
4463

>  <PUBCHEM_CONFORMER_RMSD>  (1) 
0.6

>  <PUBCHEM_CONFORMER_DIVERSEORDER>  (1) 
2
1

>  <PUBCHEM_MMFF94_PARTIAL_CHARGES>  (1) 
31
1 -0.57
10 0.41
11 0.12
12 0.09
13 -0.14
14 0.54
15 -0.15
16 -0.15
17 0.16
18 0.16
19 0.14
2 -0.37
20 -0.15
21 0.1
22 0.1
23 0.1
24 0.1
25 0.1
26 0.37
27 0.15
28 0.15
29 0.15
3 -0.55
30 0.15
34 0.15
4 -0.62
5 -0.62
6 0.07
7 -0.2
8 -0.2
9 0.41

>  <PUBCHEM_EFFECTIVE_ROTOR_COUNT>  (1) 
2

>  <PUBCHEM_PHARMACOPHORE_FEATURES>  (1) 
7
1 1 acceptor
1 3 donor
1 5 acceptor
3 2 4 9 cation
6 4 9 11 13 16 17 rings
6 5 10 12 15 18 20 rings
7 2 3 9 10 11 12 14 rings

>  <PUBCHEM_HEAVY_ATOM_COUNT>  (1) 
20

>  <PUBCHEM_ATOM_DEF_STEREO_COUNT>  (1) 
0

>  <PUBCHEM_ATOM_UDEF_STEREO_COUNT>  (1) 
0

>  <PUBCHEM_BOND_DEF_STEREO_COUNT>  (1) 
0

>  <PUBCHEM_BOND_UDEF_STEREO_COUNT>  (1) 
0

>  <PUBCHEM_ISOTOPIC_ATOM_COUNT>  (1) 
0

>  <PUBCHEM_COMPONENT_COUNT>  (1) 
1

>  <PUBCHEM_CACTVS_TAUTO_COUNT>  (1) 
2

>  <PUBCHEM_CONFORMER_ID>  (1) 
0000116F00000002

>  <PUBCHEM_MMFF94_ENERGY>  (1) 
89.2483

>  <PUBCHEM_FEATURE_SELFOVERLAP>  (1) 
35.539

>  <PUBCHEM_SHAPE_FINGERPRINT>  (1) 
10165383 225 15959237747990621876
10967382 1 18270121197562584331
1100329 8 16322034404292982203
11132069 177 18270111314795259802
11680986 33 18200044928084177299
12251169 10 18341610378184855722
12382932 28 18270679757885154755
12553582 1 18334869281090195471
12644460 14 18044686254198277449
12696612 119 18410299120308893519
13140716 1 18341325596326004722
14022347 108 17829358820411495091
14178342 30 18342183232786399347
14181834 199 18115593788853343285
14223421 5 18051126995645008106
14790565 3 18118690057133077708
15279307 12 17761498392589299348
16945 1 18189902087525056467
17357779 13 18193259802847490413
19591789 44 16462778476738521787
19930374 2 18120924010713238184
20559304 39 18266180715170729201
21029758 27 18334577962359659222
21421861 104 18120399763401406531
21524375 3 17688607364579959901
22182313 1 17976546005568733549
23184049 59 18413103948606542538
2334 1 18412542119618616222
23388829 49 18270954777752970055
23419403 2 15544237417613938206
23463225 33 18410573993746667147
25147074 1 18198352934650516867
2748010 2 17906744604900492045
4409770 3 17682383763710098508
484985 159 16090035844483194010
6992083 37 18411692218546964689
7064713 232 18201997724785032224
7364860 26 18338808925731741549
81228 2 17830190007988735065
84936 31 16127246650782653102
90316 7 18116424847871539200
9925002 15 17412444102688974671

>  <PUBCHEM_SHAPE_MULTIPOLES>  (1) 
385.8
5.87
3.5
1.16
1.58
1.7
0.19
-2.29
-2.56
-0.59
1.8
-0.35
0.16
-0.68

>  <PUBCHEM_SHAPE_SELFOVERLAP>  (1) 
852.431

>  <PUBCHEM_SHAPE_VOLUME>  (1) 
204.8

>  <PUBCHEM_COORDINATE_TYPE>  (1) 
2
5
10

$$$$
