44648
     RDKit          3D

 27 30  0  0  1  0  0  0  0  0999 V2000
   -3.8826   -1.2917    0.2556 N   0  0  0  0  0  0  0  0  0  0  0  0
    4.0241   -1.2257   -0.6712 N   0  0  0  0  0  0  0  0  0  0  0  0
   -3.7377   -2.7464    0.2189 C   0  0  0  0  0  0  0  0  0  0  0  0
    3.8639   -2.6782   -0.6110 C   0  0  0  0  0  0  0  0  0  0  0  0
   -2.3723   -3.2086    0.7321 C   0  0  0  0  0  0  0  0  0  0  0  0
    2.6538   -3.1152    0.2182 C   0  0  0  0  0  0  0  0  0  0  0  0
   -1.1956   -2.6544   -0.0767 C   0  0  0  0  0  0  0  0  0  0  0  0
    1.3171   -2.6318   -0.3518 C   0  0  0  0  0  0  0  0  0  0  0  0
    0.1405   -3.1601    0.4724 C   0  0  0  0  0  0  0  0  0  0  0  0
   -4.1494   -0.8288    1.6230 C   0  0  0  0  0  0  0  0  0  0  0  0
    4.8746   -0.8419   -1.8046 C   0  0  0  0  0  0  0  0  0  0  0  0
   -4.9640   -0.8607   -0.6479 C   0  0  0  0  0  0  0  0  0  0  0  0
    4.5965   -0.7200    0.5890 C   0  0  0  0  0  0  0  0  0  0  0  0
   -4.0897    0.7013    1.6755 C   0  0  0  0  0  0  0  0  0  0  0  0
    4.8593    0.6807   -1.9745 C   0  0  0  0  0  0  0  0  0  0  0  0
   -5.2652    0.6178   -0.5580 C   0  0  0  0  0  0  0  0  0  0  0  0
    4.9206    0.7559    0.5489 C   0  0  0  0  0  0  0  0  0  0  0  0
   -4.8849    1.3558    0.5761 C   0  0  0  0  0  0  0  0  0  0  0  0
    5.0904    1.4162   -0.6801 C   0  0  0  0  0  0  0  0  0  0  0  0
   -5.9853    1.2477   -1.5821 C   0  0  0  0  0  0  0  0  0  0  0  0
    5.1176    1.4607    1.7441 C   0  0  0  0  0  0  0  0  0  0  0  0
   -5.1971    2.7194    0.6526 C   0  0  0  0  0  0  0  0  0  0  0  0
    5.4172    2.7783   -0.6961 C   0  0  0  0  0  0  0  0  0  0  0  0
   -6.2997    2.6035   -1.4924 C   0  0  0  0  0  0  0  0  0  0  0  0
    5.4523    2.8143    1.7180 C   0  0  0  0  0  0  0  0  0  0  0  0
   -5.9040    3.3390   -0.3775 C   0  0  0  0  0  0  0  0  0  0  0  0
    5.5997    3.4729    0.4994 C   0  0  0  0  0  0  0  0  0  0  0  0
  1  3  1  0
  1 10  1  0
  1 12  1  0
  2  4  1  0
  2 11  1  0
  2 13  1  0
  3  5  1  0
  4  6  1  0
  5  7  1  0
  6  8  1  0
  7  9  1  0
  8  9  1  0
 10 14  1  0
 11 15  1  0
 12 16  1  0
 13 17  1  0
 14 18  1  0
 15 19  1  0
 16 18  2  0
 16 20  1  0
 17 19  2  0
 17 21  1  0
 18 22  1  0
 19 23  1  0
 20 24  2  0
 21 25  2  0
 22 26  2  0
 23 27  2  0
 24 26  1  0
 25 27  1  0
M  END
>  <PUBCHEM_COMPOUND_CID>  (1) 
44648

>  <PUBCHEM_CONFORMER_RMSD>  (1) 
1.2

>  <PUBCHEM_CONFORMER_DIVERSEORDER>  (1) 
1
6
12
83
109
19
128
43
7
10
64
215
29
65
37
33
75
177
198
224
52
22
161
167
255
183
87
90
54
26
126
25
225
8
77
20
171
227
254
9
237
48
265
104
267
32
59
50
154
235
142
3
172
263
248
184
264
81
24
129
16
150
192
259
103
138
187
139
116
133
231
136
4
148
250
205
124
190
170
88
219
11
165
55
246
36
13
178
63
158
28
261
115
91
164
98
111
74
238
107
94
252
40
131
60
159
125
53
17
258
82
112
218
169
117
71
196
162
2
99
193
201
85
5
155
143
228
119
266
197
56
152
202
186
181
233
191
95
100
242
84
210
123
66
229
156
166
102
61
144
262
251
216
79
14
179
160
93
58
241
141
35
256
31
209
41
151
44
182
206
220
49
244
249
127
214
221
73
230
223
175
120
62
189
137
257
92
132
236
89
147
86
18
140
194
68
134
97
114
67
239
173
121
203
80
207
168
45
213
78
204
188
34
39
46
101
30
260
222
145
234
149
232
57
108
217
211
253
174
76
212
23
245
157
118
185
247
106
163
153
122
243
69
146
199
15
176
27
113
135
70
47
208
110
240
21
42
96
180
51
72
226
105
130
195
38
200

>  <PUBCHEM_MMFF94_PARTIAL_CHARGES>  (1) 
30
1 -0.81
10 0.27
11 0.27
12 0.41
13 0.41
14 0.14
15 0.14
16 -0.14
17 -0.14
18 -0.14
19 -0.14
2 -0.81
20 -0.15
21 -0.15
22 -0.15
23 -0.15
24 -0.15
25 -0.15
26 -0.15
27 -0.15
3 0.27
4 0.27
54 0.15
55 0.15
56 0.15
57 0.15
58 0.15
59 0.15
60 0.15
61 0.15

>  <PUBCHEM_EFFECTIVE_ROTOR_COUNT>  (1) 
9.6

>  <PUBCHEM_PHARMACOPHORE_FEATURES>  (1) 
7
1 1 cation
1 2 cation
5 5 6 7 8 9 hydrophobe
6 1 10 12 14 16 18 rings
6 16 18 20 22 24 26 rings
6 17 19 21 23 25 27 rings
6 2 11 13 15 17 19 rings

>  <PUBCHEM_HEAVY_ATOM_COUNT>  (1) 
27

>  <PUBCHEM_ATOM_DEF_STEREO_COUNT>  (1) 
0

>  <PUBCHEM_ATOM_UDEF_STEREO_COUNT>  (1) 
0

>  <PUBCHEM_BOND_DEF_STEREO_COUNT>  (1) 
0

>  <PUBCHEM_BOND_UDEF_STEREO_COUNT>  (1) 
0

>  <PUBCHEM_ISOTOPIC_ATOM_COUNT>  (1) 
0

>  <PUBCHEM_COMPONENT_COUNT>  (1) 
1

>  <PUBCHEM_CACTVS_TAUTO_COUNT>  (1) 
1

>  <PUBCHEM_CONFORMER_ID>  (1) 
0000AE6800000001

>  <PUBCHEM_MMFF94_ENERGY>  (1) 
51.6119

>  <PUBCHEM_FEATURE_SELFOVERLAP>  (1) 
35.566

>  <PUBCHEM_SHAPE_FINGERPRINT>  (1) 
10556698 54 17059478644117919401
10864689 126 18265900163875790196
10904742 38 18260545598415177697
11399510 152 17531831068551510019
11828042 207 17915446216837439673
12422481 6 17530681004804867718
13878862 14 18262788558870202670
14251764 30 9511463329122752197
14429114 114 18340207491610639898
14930077 153 18272356608657093623
15183329 4 16081091484758056517
15530120 55 17489288798739612389
16708801 149 18262516030241531228
1768 210 18410562986568498631
20058555 10 18410291423875146725
20398071 356 9583516525436124015
20691028 202 18341058398321752577
21968339 14 17060341842930330290
2748736 6 18336536170867103581
2838139 119 18412540998717165143
376196 1 18410017619526592842
3862424 121 13110106703360385685
437795 171 17623278786289840888
437795 96 18260823783215578301
44249763 50 17701810210191452062
550186 72 17907298006899891591
6371009 1 18198621021676388570
6677587 24 16917065616538687884
7970288 3 9221861849872253010

>  <PUBCHEM_SHAPE_MULTIPOLES>  (1) 
545.69
21.4
5.37
1.69
4.07
0.48
-0.07
-20.48
-2.65
-0.43
0.49
-0.68
-0.79
3.05

>  <PUBCHEM_SHAPE_SELFOVERLAP>  (1) 
1142.378

>  <PUBCHEM_SHAPE_VOLUME>  (1) 
308.7

>  <PUBCHEM_COORDINATE_TYPE>  (1) 
2
5
10

$$$$
