44659
     RDKit          3D

 13 12  0  0  1  0  0  0  0  0999 V2000
   -0.8929    0.1820    1.3643 S   0  0  0  0  0  0  0  0  0  0  0  0
   -2.2722   -0.2897   -0.1477 S   0  0  0  0  0  0  0  0  0  0  0  0
   -3.1640   -1.4968    0.4895 O   0  0  0  0  0  0  0  0  0  0  0  0
   -3.1422    0.8589   -0.3123 O   0  0  0  0  0  0  0  0  0  0  0  0
   -1.5374   -0.8330   -1.2732 O   0  0  0  0  0  0  0  0  0  0  0  0
    1.2576   -0.0940   -0.5084 N   0  0  0  0  0  0  0  0  0  0  0  0
    2.3532   -2.0133   -1.1934 N   0  0  0  0  0  0  0  0  0  0  0  0
    1.7943   -1.8823    1.0054 N   0  0  0  0  0  0  0  0  0  0  0  0
    0.6242    0.7889    0.4860 C   0  0  0  0  0  0  0  0  0  0  0  0
    0.2101    2.0783   -0.2822 C   0  0  0  0  0  0  0  0  0  0  0  0
    1.6555    1.1430    1.5749 C   0  0  0  0  0  0  0  0  0  0  0  0
    1.3530    2.8076   -0.9880 C   0  0  0  0  0  0  0  0  0  0  0  0
    1.7607   -1.2497   -0.2148 C   0  0  0  0  0  0  0  0  0  0  0  0
  1  2  1  0
  1  9  1  0
  2  3  1  0
  2  4  2  0
  2  5  2  0
  6  9  1  0
  6 13  2  3
  7 13  1  0
  8 13  1  0
  9 10  1  0
  9 11  1  0
 10 12  1  0
M  END
>  <PUBCHEM_COMPOUND_CID>  (1) 
44659

>  <PUBCHEM_CONFORMER_RMSD>  (1) 
0.6

>  <PUBCHEM_CONFORMER_DIVERSEORDER>  (1) 
1
35
6
24
25
39
38
8
37
26
4
29
7
19
33
5
17
14
20
40
9
10
32
21
34
11
36
12
22
13
28
2
15
31
30
23
16
18
27
3

>  <PUBCHEM_MMFF94_PARTIAL_CHARGES>  (1) 
15
1 -0.35
13 0.55
2 1.6
22 0.4
23 0.4
24 0.4
25 0.4
26 0.5
3 -0.68
4 -0.65
5 -0.65
6 -0.7
7 -0.85
8 -0.85
9 0.48

>  <PUBCHEM_EFFECTIVE_ROTOR_COUNT>  (1) 
4

>  <PUBCHEM_PHARMACOPHORE_FEATURES>  (1) 
8
1 12 hydrophobe
1 3 acceptor
1 4 acceptor
1 5 acceptor
1 7 donor
1 8 donor
4 2 3 4 5 anion
4 6 7 8 13 cation

>  <PUBCHEM_HEAVY_ATOM_COUNT>  (1) 
13

>  <PUBCHEM_ATOM_DEF_STEREO_COUNT>  (1) 
0

>  <PUBCHEM_ATOM_UDEF_STEREO_COUNT>  (1) 
1

>  <PUBCHEM_BOND_DEF_STEREO_COUNT>  (1) 
0

>  <PUBCHEM_BOND_UDEF_STEREO_COUNT>  (1) 
0

>  <PUBCHEM_ISOTOPIC_ATOM_COUNT>  (1) 
0

>  <PUBCHEM_COMPONENT_COUNT>  (1) 
1

>  <PUBCHEM_CACTVS_TAUTO_COUNT>  (1) 
2

>  <PUBCHEM_CONFORMER_ID>  (1) 
0000AE7300000001

>  <PUBCHEM_MMFF94_ENERGY>  (1) 
31.3566

>  <PUBCHEM_FEATURE_SELFOVERLAP>  (1) 
40.711

>  <PUBCHEM_SHAPE_FINGERPRINT>  (1) 
1 1 18048319134910531260
12326174 3 17969214702046301304
12423570 1 13063493023764614424
14648413 74 18334015021028165421
14817 1 17107577755063425768
16945 1 17774991401874912002
17990270 104 18335700580742721667
19837323 101 11821007290396831378
20511035 2 18201716241466247901
20645477 70 18338799048019214855
20653091 64 18341059582983477323
20711985 344 17835243346223308698
21524375 3 17320422718996594845
23418878 81 18120949557358244860
23419403 2 16978087243899474721
23552423 10 18337673117682993555
2748010 2 18339630153595768277
81228 2 17907581328695721704

>  <PUBCHEM_SHAPE_MULTIPOLES>  (1) 
242.68
3.9
2.62
1.39
3.46
0.51
-0.28
-1.19
0.33
-1.98
0.78
-0.43
0.02
0.16

>  <PUBCHEM_SHAPE_SELFOVERLAP>  (1) 
437.267

>  <PUBCHEM_SHAPE_VOLUME>  (1) 
157.4

>  <PUBCHEM_COORDINATE_TYPE>  (1) 
2
5
10

$$$$
