44651
     RDKit          3D

  9  8  0  0  1  0  0  0  0  0999 V2000
   -0.9523   -1.8850   -0.7083 Cl  0  0  0  0  0  0  0  0  0  0  0  0
    3.1760    0.6780   -0.7863 F   0  0  0  0  0  0  0  0  0  0  0  0
   -2.8227    0.5777    0.8979 O   0  0  0  0  0  0  0  0  0  0  0  0
   -1.9564    0.8684   -1.1034 O   0  0  0  0  0  0  0  0  0  0  0  0
   -1.9526    0.3861    0.0369 N   0  0  0  0  0  0  0  0  0  0  0  0
    0.5223    0.2608    0.2198 C   0  0  0  0  0  0  0  0  0  0  0  0
    1.7443   -0.5935    0.5740 C   0  0  0  0  0  0  0  0  0  0  0  0
   -0.7894   -0.5029    0.3876 C   0  0  0  0  0  0  0  0  0  0  0  0
    3.0308    0.2103    0.4818 C   0  0  0  0  0  0  0  0  0  0  0  0
  1  8  1  0
  2  9  1  0
  3  5  1  0
  4  5  2  0
  5  8  1  0
  6  7  1  0
  6  8  1  0
  7  9  1  0
M  CHG  2   3  -1   5   1
M  END
>  <PUBCHEM_COMPOUND_CID>  (1) 
44651

>  <PUBCHEM_CONFORMER_RMSD>  (1) 
0.6

>  <PUBCHEM_CONFORMER_DIVERSEORDER>  (1) 
1
40
24
20
41
16
33
28
4
23
13
34
5
26
37
21
35
39
32
18
27
6
12
31
8
36
10
19
14
22
25
29
11
30
15
17
9
7
2
3
38

>  <PUBCHEM_MMFF94_PARTIAL_CHARGES>  (1) 
7
1 -0.29
2 -0.34
3 -0.52
4 -0.52
5 0.8
8 0.53
9 0.34

>  <PUBCHEM_EFFECTIVE_ROTOR_COUNT>  (1) 
4

>  <PUBCHEM_PHARMACOPHORE_FEATURES>  (1) 
3
1 3 acceptor
1 3 anion
1 4 acceptor

>  <PUBCHEM_HEAVY_ATOM_COUNT>  (1) 
9

>  <PUBCHEM_ATOM_DEF_STEREO_COUNT>  (1) 
0

>  <PUBCHEM_ATOM_UDEF_STEREO_COUNT>  (1) 
1

>  <PUBCHEM_BOND_DEF_STEREO_COUNT>  (1) 
0

>  <PUBCHEM_BOND_UDEF_STEREO_COUNT>  (1) 
0

>  <PUBCHEM_ISOTOPIC_ATOM_COUNT>  (1) 
0

>  <PUBCHEM_COMPONENT_COUNT>  (1) 
1

>  <PUBCHEM_CACTVS_TAUTO_COUNT>  (1) 
2

>  <PUBCHEM_CONFORMER_ID>  (1) 
0000AE6B00000001

>  <PUBCHEM_MMFF94_ENERGY>  (1) 
7.7591

>  <PUBCHEM_FEATURE_SELFOVERLAP>  (1) 
15.303

>  <PUBCHEM_SHAPE_FINGERPRINT>  (1) 
10857977 72 12901550156307719950
12932741 1 17203323481155661538
12932764 1 18334287691326901792
14325111 11 18343582915045973651
14390081 3 17967810552862405196
15310529 11 17821725022532121098
21040471 1 18201148880175296626
23235685 24 18131633361394609051
29004967 10 16153425021906831194
3248919 1 17489300919385233888

>  <PUBCHEM_SHAPE_MULTIPOLES>  (1) 
163.09
4.61
1.3
0.96
2.48
0.83
0.13
-1.46
0.15
-0.73
0.19
-0.1
-0.12
-0.26

>  <PUBCHEM_SHAPE_SELFOVERLAP>  (1) 
291.719

>  <PUBCHEM_SHAPE_VOLUME>  (1) 
106.3

>  <PUBCHEM_COORDINATE_TYPE>  (1) 
2
5
10

$$$$
