44658
     RDKit          3D

  8  7  0  0  0  0  0  0  0  0999 V2000
    2.1953    1.0911    0.1859 S   0  0  0  0  0  0  0  0  0  0  0  0
   -3.1646    0.8111   -0.5797 F   0  0  0  0  0  0  0  0  0  0  0  0
    1.2239   -1.3209   -0.2501 O   0  0  0  0  0  0  0  0  0  0  0  0
   -1.5222   -0.7177    0.1183 C   0  0  0  0  0  0  0  0  0  0  0  0
   -0.4426    0.3441    0.3343 C   0  0  0  0  0  0  0  0  0  0  0  0
   -2.9282   -0.1756    0.3252 C   0  0  0  0  0  0  0  0  0  0  0  0
    0.9594   -0.1663    0.0601 C   0  0  0  0  0  0  0  0  0  0  0  0
    3.6790    0.1342   -0.1940 C   0  0  0  0  0  0  0  0  0  0  0  0
  1  7  1  0
  1  8  1  0
  2  6  1  0
  3  7  2  0
  4  5  1  0
  4  6  1  0
  5  7  1  0
M  END
>  <PUBCHEM_COMPOUND_CID>  (1) 
44658

>  <PUBCHEM_CONFORMER_RMSD>  (1) 
0.6

>  <PUBCHEM_CONFORMER_DIVERSEORDER>  (1) 
1
84
7
32
5
20
83
68
44
3
15
82
81
19
69
18
4
79
10
23
85
41
60
65
30
27
45
47
25
13
51
29
62
24
80
48
59
73
74
21
77
26
34
55
56
58
40
75
11
14
67
54
66
37
16
36
43
71
33
52
17
53
57
78
42
46
63
31
2
28
35
49
8
64
6
76
38
50
61
39
12
9
70
22
72

>  <PUBCHEM_MMFF94_PARTIAL_CHARGES>  (1) 
7
1 -0.37
2 -0.34
3 -0.57
5 0.06
6 0.34
7 0.65
8 0.23

>  <PUBCHEM_EFFECTIVE_ROTOR_COUNT>  (1) 
4

>  <PUBCHEM_PHARMACOPHORE_FEATURES>  (1) 
1
1 8 hydrophobe

>  <PUBCHEM_HEAVY_ATOM_COUNT>  (1) 
8

>  <PUBCHEM_ATOM_DEF_STEREO_COUNT>  (1) 
0

>  <PUBCHEM_ATOM_UDEF_STEREO_COUNT>  (1) 
0

>  <PUBCHEM_BOND_DEF_STEREO_COUNT>  (1) 
0

>  <PUBCHEM_BOND_UDEF_STEREO_COUNT>  (1) 
0

>  <PUBCHEM_ISOTOPIC_ATOM_COUNT>  (1) 
0

>  <PUBCHEM_COMPONENT_COUNT>  (1) 
1

>  <PUBCHEM_CACTVS_TAUTO_COUNT>  (1) 
1

>  <PUBCHEM_CONFORMER_ID>  (1) 
0000AE7200000001

>  <PUBCHEM_MMFF94_ENERGY>  (1) 
4.3933

>  <PUBCHEM_FEATURE_SELFOVERLAP>  (1) 
5.074

>  <PUBCHEM_SHAPE_FINGERPRINT>  (1) 
11062470 55 17530965791216901304
12897270 3 18343585152613164952
12932764 1 14779535850871546760
14325111 11 18339924934565856144
14390081 3 18410290332900829473
20651381 32 18343022194412609408
21293036 1 17560798861725074869
29004967 10 18408611374239309715
3248919 1 16199882755371443020
5460574 1 8935005862659227339

>  <PUBCHEM_SHAPE_MULTIPOLES>  (1) 
155.34
5.73
1.09
0.68
0.05
0.06
0.01
-0.89
-0.5
-0.21
-0.05
0.09
-0.05
0.27

>  <PUBCHEM_SHAPE_SELFOVERLAP>  (1) 
268.524

>  <PUBCHEM_SHAPE_VOLUME>  (1) 
103.8

>  <PUBCHEM_COORDINATE_TYPE>  (1) 
2
5
10

$$$$
