44653
     RDKit          3D

 15 14  0  0  1  0  0  0  0  0999 V2000
    1.3561   -0.7730    0.4685 O   0  0  0  0  0  0  0  0  0  0  0  0
   -1.8965   -0.4967   -0.4760 O   0  0  0  0  0  0  0  0  0  0  0  0
    2.0102   -2.8489   -0.2813 O   0  0  0  0  0  0  0  0  0  0  0  0
   -3.5369   -0.3552    1.1331 O   0  0  0  0  0  0  0  0  0  0  0  0
    2.9851   -1.8751    1.5595 N   0  0  0  0  0  0  0  0  0  0  0  0
   -3.6239   -1.9479   -0.5229 N   0  0  0  0  0  0  0  0  0  0  0  0
    0.0696    0.9237   -0.6744 C   0  0  0  0  0  0  0  0  0  0  0  0
    0.8378    2.1275   -0.0791 C   0  0  0  0  0  0  0  0  0  0  0  0
    0.9202   -0.3587   -0.8291 C   0  0  0  0  0  0  0  0  0  0  0  0
   -1.2150    0.6021    0.1152 C   0  0  0  0  0  0  0  0  0  0  0  0
    0.0178    3.4135    0.0550 C   0  0  0  0  0  0  0  0  0  0  0  0
    2.1606   -0.1710   -1.6962 C   0  0  0  0  0  0  0  0  0  0  0  0
    0.8700    4.5573    0.5857 C   0  0  0  0  0  0  0  0  0  0  0  0
    2.1040   -1.9143    0.5073 C   0  0  0  0  0  0  0  0  0  0  0  0
   -3.0590   -0.8832    0.1346 C   0  0  0  0  0  0  0  0  0  0  0  0
  1  9  1  0
  1 14  1  0
  2 10  1  0
  2 15  1  0
  3 14  2  0
  4 15  2  0
  5 14  1  0
  6 15  1  0
  7  8  1  0
  7  9  1  0
  7 10  1  0
  8 11  1  0
  9 12  1  0
 11 13  1  0
M  END
>  <PUBCHEM_COMPOUND_CID>  (1) 
44653

>  <PUBCHEM_CONFORMER_RMSD>  (1) 
0.8

>  <PUBCHEM_CONFORMER_DIVERSEORDER>  (1) 
5
237
23
184
138
256
243
171
50
224
212
1
102
52
264
136
93
82
239
280
201
221
45
186
9
229
114
101
63
146
29
214
145
246
263
20
88
148
16
18
227
202
79
153
220
245
277
213
242
73
154
251
265
103
206
179
95
160
28
75
13
39
289
247
192
248
53
188
42
156
268
193
117
124
96
40
19
143
177
89
6
170
61
234
238
137
271
122
108
204
57
190
168
290
174
44
142
90
215
150
157
123
99
129
283
78
223
197
58
218
46
288
203
249
47
162
278
62
211
182
252
269
116
72
77
232
207
276
55
49
286
107
80
98
37
231
250
253
266
210
152
64
70
195
30
87
217
180
175
282
104
134
22
14
163
216
255
267
292
209
127
41
67
60
115
208
128
228
259
149
236
74
126
281
11
106
144
172
25
161
32
76
235
85
241
287
291
118
43
110
65
284
10
261
262
71
176
54
36
56
7
226
112
205
275
26
86
151
121
24
83
51
133
270
69
219
166
48
260
109
2
158
21
92
66
34
200
155
141
111
198
81
196
199
244
8
185
164
27
84
181
15
159
258
240
183
68
130
3
189
135
139
233
194
94
33
59
100
178
17
131
225
257
273
187
132
274
147
31
167
35
140
91
113
173
4
254
272
191
38
230
279
165
169
105
119
120
222
285
97
125
12

>  <PUBCHEM_MMFF94_PARTIAL_CHARGES>  (1) 
14
1 -0.43
10 0.28
14 0.78
15 0.78
2 -0.43
3 -0.57
30 0.37
31 0.37
32 0.37
33 0.37
4 -0.57
5 -0.8
6 -0.8
9 0.28

>  <PUBCHEM_EFFECTIVE_ROTOR_COUNT>  (1) 
8

>  <PUBCHEM_PHARMACOPHORE_FEATURES>  (1) 
5
1 13 hydrophobe
1 3 acceptor
1 4 acceptor
1 5 donor
1 6 donor

>  <PUBCHEM_HEAVY_ATOM_COUNT>  (1) 
15

>  <PUBCHEM_ATOM_DEF_STEREO_COUNT>  (1) 
0

>  <PUBCHEM_ATOM_UDEF_STEREO_COUNT>  (1) 
2

>  <PUBCHEM_BOND_DEF_STEREO_COUNT>  (1) 
0

>  <PUBCHEM_BOND_UDEF_STEREO_COUNT>  (1) 
0

>  <PUBCHEM_ISOTOPIC_ATOM_COUNT>  (1) 
0

>  <PUBCHEM_COMPONENT_COUNT>  (1) 
1

>  <PUBCHEM_CACTVS_TAUTO_COUNT>  (1) 
4

>  <PUBCHEM_CONFORMER_ID>  (1) 
0000AE6D00000005

>  <PUBCHEM_MMFF94_ENERGY>  (1) 
26.4229

>  <PUBCHEM_FEATURE_SELFOVERLAP>  (1) 
25.372

>  <PUBCHEM_SHAPE_FINGERPRINT>  (1) 
12500047 106 17259055195937676714
12553582 1 18411428284607496887
13380535 76 17333937945952805389
136203 1 17906446628237567121
14817 1 14857728672447825772
15375462 189 18262534648935269563
19021347 4 17329995110282667305
20369508 70 18409447020762944207
20645477 70 18055639662486612471
20711985 344 17908730344021573565
21524375 3 17551231104809025837
21650355 55 18193822761179511619
22112679 90 18195830499455528425
2255824 54 18195537106218741653
23419403 2 17246905892797451348
23500284 5 17898292688745173043
23598294 1 17979662059643481501
257057 1 18337381660991459285
57672749 33 18267570480883703952
68419 9 17757582675596006196
7364860 26 18338235002273587275
81228 2 17903910054938628844
81539 233 17834388295903120701

>  <PUBCHEM_SHAPE_MULTIPOLES>  (1) 
275.25
4.72
4.59
1.17
3.09
3.57
-0.05
-6.16
0.42
-2.42
1.6
-0.29
0.74
0.13

>  <PUBCHEM_SHAPE_SELFOVERLAP>  (1) 
524.552

>  <PUBCHEM_SHAPE_VOLUME>  (1) 
168.1

>  <PUBCHEM_COORDINATE_TYPE>  (1) 
2
5
10

$$$$
