44657
     RDKit          3D

  9  8  0  0  1  0  0  0  0  0999 V2000
    2.6632    0.8468   -0.5036 S   0  0  0  0  0  0  0  0  0  0  0  0
   -3.6415    0.0506    0.4102 F   0  0  0  0  0  0  0  0  0  0  0  0
   -1.4309   -1.1345   -0.7043 O   0  0  0  0  0  0  0  0  0  0  0  0
    1.2420   -1.2413    0.2557 O   0  0  0  0  0  0  0  0  0  0  0  0
   -1.3113   -0.0364    0.2007 C   0  0  0  0  0  0  0  0  0  0  0  0
   -0.0584    0.7712   -0.1469 C   0  0  0  0  0  0  0  0  0  0  0  0
   -2.5674    0.8075    0.0510 C   0  0  0  0  0  0  0  0  0  0  0  0
    1.2092   -0.0618   -0.0715 C   0  0  0  0  0  0  0  0  0  0  0  0
    3.8950   -0.0019    0.5087 C   0  0  0  0  0  0  0  0  0  0  0  0
  1  8  1  0
  1  9  1  0
  2  7  1  0
  3  5  1  0
  4  8  2  0
  5  6  1  0
  5  7  1  0
  6  8  1  0
M  END
>  <PUBCHEM_COMPOUND_CID>  (1) 
44657

>  <PUBCHEM_CONFORMER_RMSD>  (1) 
0.6

>  <PUBCHEM_CONFORMER_DIVERSEORDER>  (1) 
1
126
41
129
130
105
76
133
128
21
102
15
33
144
96
65
143
127
131
113
2
136
30
135
58
74
28
85
140
137
82
46
61
121
8
78
18
141
125
97
116
134
3
119
120
108
77
122
148
84
17
99
75
54
124
87
83
100
53
66
95
107
13
37
118
56
142
72
103
101
109
47
114
34
90
115
38
86
146
73
94
4
147
104
89
55
67
80
112
5
71
11
42
117
48
139
24
23
138
27
6
49
60
7
68
145
81
32
106
40
88
110
93
31
59
111
52
57
43
98
44
39
9
62
132
63
91
12
36
25
14
79
20
26
70
45
92
19
16
51
123
69
35
29
22
10
64
50

>  <PUBCHEM_MMFF94_PARTIAL_CHARGES>  (1) 
10
1 -0.37
15 0.4
2 -0.34
3 -0.68
4 -0.57
5 0.28
6 0.06
7 0.34
8 0.65
9 0.23

>  <PUBCHEM_EFFECTIVE_ROTOR_COUNT>  (1) 
4

>  <PUBCHEM_PHARMACOPHORE_FEATURES>  (1) 
3
1 3 acceptor
1 3 donor
1 9 hydrophobe

>  <PUBCHEM_HEAVY_ATOM_COUNT>  (1) 
9

>  <PUBCHEM_ATOM_DEF_STEREO_COUNT>  (1) 
0

>  <PUBCHEM_ATOM_UDEF_STEREO_COUNT>  (1) 
1

>  <PUBCHEM_BOND_DEF_STEREO_COUNT>  (1) 
0

>  <PUBCHEM_BOND_UDEF_STEREO_COUNT>  (1) 
0

>  <PUBCHEM_ISOTOPIC_ATOM_COUNT>  (1) 
0

>  <PUBCHEM_COMPONENT_COUNT>  (1) 
1

>  <PUBCHEM_CACTVS_TAUTO_COUNT>  (1) 
1

>  <PUBCHEM_CONFORMER_ID>  (1) 
0000AE7100000001

>  <PUBCHEM_MMFF94_ENERGY>  (1) 
8.1166

>  <PUBCHEM_FEATURE_SELFOVERLAP>  (1) 
15.223

>  <PUBCHEM_SHAPE_FINGERPRINT>  (1) 
10219947 1 17385726906726583572
11062470 55 14908183044774710816
12932764 1 18412818092847735188
14325111 11 18336265734236048300
14390081 3 18202282502454449408
21293036 1 11312054357437296464
23235685 24 18113898277540780000
29004967 10 17531253841683151017
5460574 1 9583517603372662317

>  <PUBCHEM_SHAPE_MULTIPOLES>  (1) 
170.05
5.93
1.08
0.73
0.57
0.1
0.04
-0.59
-0.94
0.07
0.1
0.12
0.01
-0.32

>  <PUBCHEM_SHAPE_SELFOVERLAP>  (1) 
301.716

>  <PUBCHEM_SHAPE_VOLUME>  (1) 
111.4

>  <PUBCHEM_COORDINATE_TYPE>  (1) 
2
5
10

$$$$
