44664
     RDKit          3D

 16 18  0  0  0  0  0  0  0  0999 V2000
   -0.0013   -1.0543    0.2183 N   0  0  0  0  0  0  0  0  0  0  0  0
    3.0278   -1.4855    0.2938 N   0  0  0  0  0  0  0  0  0  0  0  0
   -1.2257   -0.4570    0.1319 C   0  0  0  0  0  0  0  0  0  0  0  0
   -1.0416    0.9000   -0.0328 C   0  0  0  0  0  0  0  0  0  0  0  0
   -2.5292   -1.1641    0.2338 C   0  0  0  0  0  0  0  0  0  0  0  0
   -2.1837    1.8471   -0.1768 C   0  0  0  0  0  0  0  0  0  0  0  0
   -3.6609   -0.2394   -0.2519 C   0  0  0  0  0  0  0  0  0  0  0  0
   -3.5056    1.1985    0.2786 C   0  0  0  0  0  0  0  0  0  0  0  0
    0.3614    1.1387   -0.0553 C   0  0  0  0  0  0  0  0  0  0  0  0
    0.9891   -0.1016    0.1052 C   0  0  0  0  0  0  0  0  0  0  0  0
    0.2061   -2.4749    0.4110 C   0  0  0  0  0  0  0  0  0  0  0  0
    2.3812   -0.2438    0.1322 C   0  0  0  0  0  0  0  0  0  0  0  0
    1.1634    2.2892   -0.1984 C   0  0  0  0  0  0  0  0  0  0  0  0
    0.3083   -3.2248   -0.9060 C   0  0  0  0  0  0  0  0  0  0  0  0
    3.1540    0.9120   -0.0101 C   0  0  0  0  0  0  0  0  0  0  0  0
    2.5567    2.1599   -0.1734 C   0  0  0  0  0  0  0  0  0  0  0  0
  1  3  1  0
  1 10  1  0
  1 11  1  0
  2 12  1  0
  3  4  2  0
  3  5  1  0
  4  6  1  0
  4  9  1  0
  5  7  1  0
  6  8  1  0
  7  8  1  0
  9 10  2  0
  9 13  1  0
 10 12  1  0
 11 14  1  0
 12 15  2  0
 13 16  2  0
 15 16  1  0
M  END
>  <PUBCHEM_COMPOUND_CID>  (1) 
44664

>  <PUBCHEM_CONFORMER_RMSD>  (1) 
0.6

>  <PUBCHEM_CONFORMER_DIVERSEORDER>  (1) 
1
2

>  <PUBCHEM_MMFF94_PARTIAL_CHARGES>  (1) 
17
1 0.05
10 -0.15
11 0.26
12 0.1
13 -0.15
15 -0.15
16 -0.15
2 -0.9
27 0.15
3 -0.33
31 0.15
32 0.15
33 0.4
34 0.4
4 -0.18
5 0.18
6 0.18

>  <PUBCHEM_EFFECTIVE_ROTOR_COUNT>  (1) 
1.8

>  <PUBCHEM_PHARMACOPHORE_FEATURES>  (1) 
6
1 1 cation
1 2 cation
1 2 donor
5 1 3 4 9 10 rings
6 3 4 5 6 7 8 rings
6 9 10 12 13 15 16 rings

>  <PUBCHEM_HEAVY_ATOM_COUNT>  (1) 
16

>  <PUBCHEM_ATOM_DEF_STEREO_COUNT>  (1) 
0

>  <PUBCHEM_ATOM_UDEF_STEREO_COUNT>  (1) 
0

>  <PUBCHEM_BOND_DEF_STEREO_COUNT>  (1) 
0

>  <PUBCHEM_BOND_UDEF_STEREO_COUNT>  (1) 
0

>  <PUBCHEM_ISOTOPIC_ATOM_COUNT>  (1) 
0

>  <PUBCHEM_COMPONENT_COUNT>  (1) 
1

>  <PUBCHEM_CACTVS_TAUTO_COUNT>  (1) 
1

>  <PUBCHEM_CONFORMER_ID>  (1) 
0000AE7800000001

>  <PUBCHEM_MMFF94_ENERGY>  (1) 
36.3121

>  <PUBCHEM_FEATURE_SELFOVERLAP>  (1) 
30.622

>  <PUBCHEM_SHAPE_FINGERPRINT>  (1) 
1 1 18411136905092959535
10411042 1 17473544647314148123
10608611 8 18335698338812530341
10967382 1 18409730689813574793
11132069 177 18336538335393672177
11471102 20 18408879608127466661
13140716 1 18410011005170494288
13380535 76 18337109063485166275
13897977 150 18408602569667200405
14144814 61 18408885169709331297
14325111 11 18409449210711078665
15196674 1 18409166610674294161
15309172 13 18339089284164252305
15442244 35 18337671901875270800
15536298 74 18413951689605017128
16945 1 18122343742344400040
18186145 218 18341619212969655965
193761 8 17185314790552279081
20510252 161 18199475535421434065
20511035 2 18115601472560241954
20588541 1 18192434056497642781
20645476 183 17532951599601018798
20645477 70 18337102385444036887
21267235 1 18409456885669683795
21501502 16 18410012143531973609
21524375 3 18335980960260113811
2334 1 18410012173438495640
23402539 116 18198333159824598733
23419403 2 13991345292734514859
23463225 33 18335417911712335786
23559900 14 18198916997286129668
238 59 17684325583118077701
2748010 2 18408886234961291484
335352 9 18193274087887429261
5104073 3 18409167705991292833
528886 8 18409725179412953089
54173680 148 17832708246077398658
69090 78 18267298909869131049
7364860 26 18268994180916629079
7832392 63 18053103913335903249
81228 2 17545311338494226907
8809292 202 18187090529108646147

>  <PUBCHEM_SHAPE_MULTIPOLES>  (1) 
319.31
5.19
3.08
0.7
1.58
1.69
-0.04
-1.72
0.15
-0.8
-0.49
0.02
0.18
-0.14

>  <PUBCHEM_SHAPE_SELFOVERLAP>  (1) 
695.438

>  <PUBCHEM_SHAPE_VOLUME>  (1) 
174.9

>  <PUBCHEM_COORDINATE_TYPE>  (1) 
2
5
10

$$$$
