44669
     RDKit          3D

 20 21  0  0  0  0  0  0  0  0999 V2000
   -4.3133    2.0800   -0.7160 Cl  0  0  0  0  0  0  0  0  0  0  0  0
   -2.2330    2.4029    1.3715 O   0  0  0  0  0  0  0  0  0  0  0  0
    3.6749   -0.1858    1.2411 O   0  0  0  0  0  0  0  0  0  0  0  0
   -1.9187   -2.4269   -1.2973 N   0  0  0  0  0  0  0  0  0  0  0  0
    2.3619   -1.2721   -0.3332 N   0  0  0  0  0  0  0  0  0  0  0  0
   -0.3230   -2.0062    0.4111 C   0  0  0  0  0  0  0  0  0  0  0  0
    0.8357   -2.2665    1.3052 C   0  0  0  0  0  0  0  0  0  0  0  0
   -1.1082   -0.9315    0.3545 C   0  0  0  0  0  0  0  0  0  0  0  0
   -0.7518   -3.0241   -0.6012 C   0  0  0  0  0  0  0  0  0  0  0  0
    2.0969   -2.4578    0.4714 C   0  0  0  0  0  0  0  0  0  0  0  0
   -2.0569   -1.2725   -0.7170 C   0  0  0  0  0  0  0  0  0  0  0  0
   -1.1772    0.3120    1.0523 C   0  0  0  0  0  0  0  0  0  0  0  0
   -3.0884   -0.2560   -1.0328 C   0  0  0  0  0  0  0  0  0  0  0  0
   -2.1364    1.1908    0.7179 C   0  0  0  0  0  0  0  0  0  0  0  0
    3.2578    0.8735   -0.8956 C   0  0  0  0  0  0  0  0  0  0  0  0
   -3.1025    0.8975   -0.3396 C   0  0  0  0  0  0  0  0  0  0  0  0
    3.1386   -0.2327    0.1373 C   0  0  0  0  0  0  0  0  0  0  0  0
    4.1116    2.0392   -0.4053 C   0  0  0  0  0  0  0  0  0  0  0  0
    4.1896    3.1480   -1.4418 C   0  0  0  0  0  0  0  0  0  0  0  0
   -1.4577    3.3882    0.7175 C   0  0  0  0  0  0  0  0  0  0  0  0
  1 16  1  0
  2 14  1  0
  2 20  1  0
  3 17  2  0
  4  9  1  0
  4 11  2  0
  5 10  1  0
  5 17  1  0
  6  7  1  0
  6  8  2  0
  6  9  1  0
  7 10  1  0
  8 11  1  0
  8 12  1  0
 11 13  1  0
 12 14  2  0
 13 16  2  0
 14 16  1  0
 15 17  1  0
 15 18  1  0
 18 19  1  0
M  END
>  <PUBCHEM_COMPOUND_CID>  (1) 
44669

>  <PUBCHEM_CONFORMER_RMSD>  (1) 
0.8

>  <PUBCHEM_CONFORMER_DIVERSEORDER>  (1) 
1
12
100
13
60
74
68
46
69
61
78
37
71
66
90
67
25
63
103
72
3
70
56
35
6
80
21
65
49
44
93
99
96
58
38
104
20
39
92
15
77
43
95
41
91
8
9
97
89
16
34
14
5
87
83
76
18
4
75
105
53
98
55
86
101
11
31
50
54
29
33
24
64
52
59
102
32
82
81
62
22
23
84
51
27
36
26
47
85
10
7
57
28
45
94
79
42
88
48
2
73
40
30
19
17

>  <PUBCHEM_MMFF94_PARTIAL_CHARGES>  (1) 
21
1 -0.14
10 0.3
11 0.42
12 -0.15
13 -0.14
14 0.08
15 0.06
16 0.14
17 0.57
2 -0.36
20 0.28
27 0.15
28 0.37
29 0.15
3 -0.57
4 -0.7
5 -0.73
6 -0.28
7 0.14
8 0.01
9 0.38

>  <PUBCHEM_EFFECTIVE_ROTOR_COUNT>  (1) 
7.2

>  <PUBCHEM_PHARMACOPHORE_FEATURES>  (1) 
7
1 19 hydrophobe
1 2 acceptor
1 3 acceptor
1 4 acceptor
1 5 donor
5 4 6 8 9 11 rings
6 8 11 12 13 14 16 rings

>  <PUBCHEM_HEAVY_ATOM_COUNT>  (1) 
20

>  <PUBCHEM_ATOM_DEF_STEREO_COUNT>  (1) 
0

>  <PUBCHEM_ATOM_UDEF_STEREO_COUNT>  (1) 
0

>  <PUBCHEM_BOND_DEF_STEREO_COUNT>  (1) 
0

>  <PUBCHEM_BOND_UDEF_STEREO_COUNT>  (1) 
0

>  <PUBCHEM_ISOTOPIC_ATOM_COUNT>  (1) 
0

>  <PUBCHEM_COMPONENT_COUNT>  (1) 
1

>  <PUBCHEM_CACTVS_TAUTO_COUNT>  (1) 
2

>  <PUBCHEM_CONFORMER_ID>  (1) 
0000AE7D00000001

>  <PUBCHEM_MMFF94_ENERGY>  (1) 
33.427

>  <PUBCHEM_FEATURE_SELFOVERLAP>  (1) 
35.621

>  <PUBCHEM_SHAPE_FINGERPRINT>  (1) 
10498660 4 18269839885989881204
10871710 139 18120382209247549436
11640471 11 18187641440310992958
12173636 292 18129368320439518775
12788726 201 18121777493729871682
13583140 156 17606971585887772579
13965767 371 16756610224530515306
14123250 116 18340215166854464648
14142880 1 17969498384620209279
14251764 75 18337686242845665637
14787075 74 18189054373088436595
14790565 3 18201723899767912105
15003188 8 17687728455737398352
15342168 16 18260269633449056237
20510252 161 17973168614832753954
20715895 44 17976524023826080957
21421566 26 17200231744267846198
21524375 3 18195807366878113195
21864079 5 18334300907052021724
22749437 52 18408318891520135364
23419403 2 16673322820006671387
235170 7 16843623780052658652
23557571 272 17988345074904273386
23558518 356 18339644412993517715
23559900 14 18059849529068461406
474 4 18261391083627394178
5048184 11 18408890650367338284
526903 126 18339644563263917288
6034566 193 17751662049988289076
9981440 41 18264200499704801490

>  <PUBCHEM_SHAPE_MULTIPOLES>  (1) 
391.76
7.63
4.29
1.32
5.29
1.03
0.05
6.84
-2.26
0.61
-0.21
-0.04
0.19
-2.08

>  <PUBCHEM_SHAPE_SELFOVERLAP>  (1) 
805.487

>  <PUBCHEM_SHAPE_VOLUME>  (1) 
228

>  <PUBCHEM_COORDINATE_TYPE>  (1) 
2
5
10

$$$$
