44660
     RDKit          3D

 19 19  0  0  1  0  0  0  0  0999 V2000
   -3.3050   -1.5295    0.3790 Br  0  0  0  0  0  0  0  0  0  0  0  0
   -0.7024   -2.5925   -0.1906 O   0  0  0  0  0  0  0  0  0  0  0  0
    1.4229   -2.1057    1.5695 O   0  0  0  0  0  0  0  0  0  0  0  0
   -2.0958    1.6064    1.8303 O   0  0  0  0  0  0  0  0  0  0  0  0
   -2.3503   -0.3890   -2.2548 O   0  0  0  0  0  0  0  0  0  0  0  0
   -3.9508    1.4280    0.6727 O   0  0  0  0  0  0  0  0  0  0  0  0
   -2.0940    1.6772   -1.5693 O   0  0  0  0  0  0  0  0  0  0  0  0
   -2.7861    1.0966    0.9340 N   0  0  0  0  0  0  0  0  0  0  0  0
   -2.2162    0.4602   -1.3635 N   0  0  0  0  0  0  0  0  0  0  0  0
    0.0415   -1.3747   -0.2979 C   0  0  0  0  0  0  0  0  0  0  0  0
   -0.6984   -0.2800    0.5063 C   0  0  0  0  0  0  0  0  0  0  0  0
    1.4705   -1.6594    0.2143 C   0  0  0  0  0  0  0  0  0  0  0  0
   -2.1481    0.0036    0.0801 C   0  0  0  0  0  0  0  0  0  0  0  0
    2.3958   -0.4700    0.0576 C   0  0  0  0  0  0  0  0  0  0  0  0
    3.1228   -0.3313   -1.1111 C   0  0  0  0  0  0  0  0  0  0  0  0
    2.4914    0.4496    1.0865 C   0  0  0  0  0  0  0  0  0  0  0  0
    3.9745    0.7638   -1.2556 C   0  0  0  0  0  0  0  0  0  0  0  0
    3.3431    1.5448    0.9417 C   0  0  0  0  0  0  0  0  0  0  0  0
    4.0846    1.7018   -0.2293 C   0  0  0  0  0  0  0  0  0  0  0  0
  1 13  1  0
  2 10  1  0
  3 12  1  0
  4  8  1  0
  5  9  1  0
  6  8  2  0
  7  9  2  0
  8 13  1  0
  9 13  1  0
 10 11  1  0
 10 12  1  0
 11 13  1  0
 12 14  1  0
 14 15  2  0
 14 16  1  0
 15 17  1  0
 16 18  2  0
 17 19  2  0
 18 19  1  0
M  CHG  4   4  -1   5  -1   8   1   9   1
M  END
>  <PUBCHEM_COMPOUND_CID>  (1) 
44660

>  <PUBCHEM_CONFORMER_RMSD>  (1) 
0.8

>  <PUBCHEM_CONFORMER_DIVERSEORDER>  (1) 
1
23
30
25
12
3
29
32
18
26
5
19
7
13
28
24
9
6
4
22
11
10
27
17
8
21
31
15
14
2
20
16

>  <PUBCHEM_MMFF94_PARTIAL_CHARGES>  (1) 
25
1 -0.23
10 0.28
12 0.42
13 0.71
14 -0.14
15 -0.15
16 -0.15
17 -0.15
18 -0.15
19 -0.15
2 -0.68
24 0.4
25 0.15
26 0.15
27 0.4
28 0.15
29 0.15
3 -0.68
30 0.15
4 -0.52
5 -0.52
6 -0.52
7 -0.52
8 0.8
9 0.8

>  <PUBCHEM_EFFECTIVE_ROTOR_COUNT>  (1) 
6

>  <PUBCHEM_PHARMACOPHORE_FEATURES>  (1) 
12
1 1 hydrophobe
1 2 acceptor
1 2 donor
1 3 acceptor
1 3 donor
1 4 acceptor
1 4 anion
1 5 acceptor
1 5 anion
1 6 acceptor
1 7 acceptor
6 14 15 16 17 18 19 rings

>  <PUBCHEM_HEAVY_ATOM_COUNT>  (1) 
19

>  <PUBCHEM_ATOM_DEF_STEREO_COUNT>  (1) 
0

>  <PUBCHEM_ATOM_UDEF_STEREO_COUNT>  (1) 
2

>  <PUBCHEM_BOND_DEF_STEREO_COUNT>  (1) 
0

>  <PUBCHEM_BOND_UDEF_STEREO_COUNT>  (1) 
0

>  <PUBCHEM_ISOTOPIC_ATOM_COUNT>  (1) 
0

>  <PUBCHEM_COMPONENT_COUNT>  (1) 
1

>  <PUBCHEM_CACTVS_TAUTO_COUNT>  (1) 
1

>  <PUBCHEM_CONFORMER_ID>  (1) 
0000AE7400000001

>  <PUBCHEM_MMFF94_ENERGY>  (1) 
58.9348

>  <PUBCHEM_FEATURE_SELFOVERLAP>  (1) 
61.072

>  <PUBCHEM_SHAPE_FINGERPRINT>  (1) 
10366900 7 16153715374581247784
10498660 4 18409450288626680580
11221954 11 17460861900350523644
11615756 256 18340497775934851444
11715629 250 18338514248410340702
12173636 292 18343306959292057799
12346177 29 9295020028683941939
12363563 72 10735879460966714956
12707595 3 11887951077497627524
128993 33 18339927017461678828
13224815 77 18187080672000328990
13693222 7 18408038490037159962
13764800 53 18338525243168007066
14115302 16 13110974144714060770
14289901 80 16732979842848886370
14386348 128 18335708217189357660
14787075 74 17977381969080950531
15342168 16 18335991908374812245
15775835 57 18335426759371332728
17834072 14 11458700672482387715
1798214 55 18410014338360579680
18186145 218 18410578370866915982
18219364 16 18113330938115347932
18981168 100 18113612361705256398
19107657 9 18334864939237137292
20361792 2 11312064261716374586
20449540 30 18409725192677448629
20671657 53 12607404347653784146
21524375 3 18261957444312706946
21713013 43 15410614856175186516
21731516 1 9367347080490726122
21864079 5 18202283589096967424
23402539 116 18131351917221452992
23402655 69 17418105316794282088
23419403 2 16612469227975182207
23557571 272 17982172519800028310
25 1 18412553102467047102
2637199 183 17986974988905067840
2838139 119 17487324088232859192
3082319 5 16702301273816592772
5161694 15 14333125247780725920
6049 1 17169274723757354254
633830 44 18341899593135628356
6442390 28 18190197821872889634
81228 2 17756717686363032522
8988823 20 14057582231323828545
9882013 296 17240768414385209076

>  <PUBCHEM_SHAPE_MULTIPOLES>  (1) 
351.78
7.57
2.23
1.61
2.15
0.5
0.4
-3.38
0.54
-0.64
-0.48
-0.43
-0.37
-0.21

>  <PUBCHEM_SHAPE_SELFOVERLAP>  (1) 
710.175

>  <PUBCHEM_SHAPE_VOLUME>  (1) 
208.7

>  <PUBCHEM_COORDINATE_TYPE>  (1) 
2
5
10

$$$$
