44671
     RDKit          3D

 11 10  0  0  1  0  0  0  0  0999 V2000
   -3.5830   -1.0289   -0.6934 F   0  0  0  0  0  0  0  0  0  0  0  0
    2.6584    0.4579   -0.0983 O   0  0  0  0  0  0  0  0  0  0  0  0
    1.5187   -1.4962    0.3544 O   0  0  0  0  0  0  0  0  0  0  0  0
   -2.1999    0.7170    0.0492 C   0  0  0  0  0  0  0  0  0  0  0  0
   -0.9774   -0.1952    0.1718 C   0  0  0  0  0  0  0  0  0  0  0  0
   -3.4971   -0.0589    0.2596 C   0  0  0  0  0  0  0  0  0  0  0  0
    0.3195    0.5794   -0.0568 C   0  0  0  0  0  0  0  0  0  0  0  0
   -4.7186    0.8324    0.1301 C   0  0  0  0  0  0  0  0  0  0  0  0
    1.5390   -0.3003    0.0976 C   0  0  0  0  0  0  0  0  0  0  0  0
    3.9029   -0.2400    0.0140 C   0  0  0  0  0  0  0  0  0  0  0  0
    5.0374    0.7326   -0.2283 C   0  0  0  0  0  0  0  0  0  0  0  0
  1  6  1  0
  2  9  1  0
  2 10  1  0
  3  9  2  0
  4  5  1  0
  4  6  1  0
  5  7  1  0
  6  8  1  0
  7  9  1  0
 10 11  1  0
M  END
>  <PUBCHEM_COMPOUND_CID>  (1) 
44671

>  <PUBCHEM_CONFORMER_RMSD>  (1) 
0.6

>  <PUBCHEM_CONFORMER_DIVERSEORDER>  (1) 
1
205
279
257
366
35
322
145
303
269
66
377
26
408
8
259
49
390
305
99
405
246
218
281
4
184
141
304
156
389
406
179
160
360
89
379
235
153
171
400
162
402
404
255
412
25
87
210
372
151
326
13
306
193
381
410
249
24
282
158
108
391
371
37
231
194
329
207
30
362
252
409
46
52
376
335
39
413
85
12
64
276
111
6
128
297
152
159
62
348
5
177
70
351
155
375
56
352
383
50
387
187
319
411
72
22
285
359
341
353
225
308
337
386
150
2
325
268
74
346
367
60
215
272
350
407
132
311
206
69
309
110
338
53
104
11
94
334
226
278
190
260
331
354
236
120
97
222
295
332
75
95
397
28
296
369
137
365
167
192
327
370
253
19
355
149
239
51
316
301
220
116
172
41
333
274
273
384
219
92
9
178
67
307
382
284
262
15
54
59
176
234
65
302
140
21
300
261
254
229
168
315
73
271
191
196
223
258
266
81
84
3
323
98
43
245
292
93
204
212
103
107
10
270
227
161
102
243
105
208
33
368
328
242
29
293
7
392
117
263
291
100
47
135
314
44
38
265
58
183
16
14
163
148
294
169
398
48
63
32
157
324
202
101
347
401
40
340
71
125
142
27
361
182
189
88
415
121
394
247
330
173
224
213
363
414
76
318
217
277
138
388
112
139
238
317
209
45
180
275
166
31
20
18
165
298
244
299
228
380
42
321
374
170
358
122
164
55
264
82
287
91
109
127
181
34
119
126
136
289
185
343
211
378
221
336
310
364
393
133
90
114
61
186
312
86
199
17
280
349
286
83
118
203
357
237
283
144
214
96
197
342
115
68
267
57
216
113
80
339
241
106
313
175
399
154
290
230
124
147
134
143
200
174
188
251
233
248
344
123
130
403
256
250
36
395
232
79
131
345
195
78
240
396
385
23
320
146
288
373
77
198
356
129
201

>  <PUBCHEM_MMFF94_PARTIAL_CHARGES>  (1) 
7
1 -0.34
10 0.28
2 -0.43
3 -0.57
6 0.34
7 0.06
9 0.66

>  <PUBCHEM_EFFECTIVE_ROTOR_COUNT>  (1) 
6

>  <PUBCHEM_PHARMACOPHORE_FEATURES>  (1) 
1
1 3 acceptor

>  <PUBCHEM_HEAVY_ATOM_COUNT>  (1) 
11

>  <PUBCHEM_ATOM_DEF_STEREO_COUNT>  (1) 
0

>  <PUBCHEM_ATOM_UDEF_STEREO_COUNT>  (1) 
1

>  <PUBCHEM_BOND_DEF_STEREO_COUNT>  (1) 
0

>  <PUBCHEM_BOND_UDEF_STEREO_COUNT>  (1) 
0

>  <PUBCHEM_ISOTOPIC_ATOM_COUNT>  (1) 
0

>  <PUBCHEM_COMPONENT_COUNT>  (1) 
1

>  <PUBCHEM_CACTVS_TAUTO_COUNT>  (1) 
1

>  <PUBCHEM_CONFORMER_ID>  (1) 
0000AE7F00000001

>  <PUBCHEM_MMFF94_ENERGY>  (1) 
4.6262

>  <PUBCHEM_FEATURE_SELFOVERLAP>  (1) 
5.074

>  <PUBCHEM_SHAPE_FINGERPRINT>  (1) 
11062470 55 17967253091681853513
11401426 45 18408321094432072361
124424 183 11887953259071969141
12932764 1 17274241873525020137
14123238 8 8430312437555708136
15242433 33 18342176639932569327
17834072 33 18060415858575290061
17834076 25 18259987071755954993
190213 19 17203610384543688265
20279233 1 16877952615782349363
20645477 70 18266173938039799527
20719005 15 18334859411265976752
21119208 17 18059857263745015493
22485316 2 18343581828361205879
23402539 116 11674878922727622019
23402655 69 18411697651907609909
42 15 8070027770074612681
42788 4 18410013234406090096
449060 50 18260270737128991957

>  <PUBCHEM_SHAPE_MULTIPOLES>  (1) 
207.36
10.35
1.05
0.65
1.49
0.18
0.01
-2.07
0.53
-0.02
0.01
-0.13
0.03
-0.35

>  <PUBCHEM_SHAPE_SELFOVERLAP>  (1) 
381.07

>  <PUBCHEM_SHAPE_VOLUME>  (1) 
132

>  <PUBCHEM_COORDINATE_TYPE>  (1) 
2
5
10

$$$$
