44678
     RDKit          3D

 26 27  0  0  1  0  0  0  0  0999 V2000
    1.9765    1.7954    0.4566 O   0  0  0  0  0  0  0  0  0  0  0  0
    2.0565    2.2737    2.7152 O   0  0  0  0  0  0  0  0  0  0  0  0
   -4.5090    0.9137    0.5454 N   0  0  0  0  0  0  0  0  0  0  0  0
    0.4693   -0.1511    0.1960 C   0  0  0  0  0  0  0  0  0  0  0  0
    1.8533    0.3992    0.7519 C   0  0  0  0  0  0  0  0  0  0  0  0
   -0.7155    0.6558    0.8666 C   0  0  0  0  0  0  0  0  0  0  0  0
    0.4759    0.0163   -1.3591 C   0  0  0  0  0  0  0  0  0  0  0  0
    0.2006   -1.6489    0.5518 C   0  0  0  0  0  0  0  0  0  0  0  0
   -2.1343    0.3217    0.3681 C   0  0  0  0  0  0  0  0  0  0  0  0
    3.1112   -0.3152    0.2129 C   0  0  0  0  0  0  0  0  0  0  0  0
   -3.1711    1.2325    1.0300 C   0  0  0  0  0  0  0  0  0  0  0  0
    0.0732    1.2225   -1.9326 C   0  0  0  0  0  0  0  0  0  0  0  0
    0.7332   -2.1949    1.7196 C   0  0  0  0  0  0  0  0  0  0  0  0
    0.8838   -1.0408   -2.1728 C   0  0  0  0  0  0  0  0  0  0  0  0
   -0.5717   -2.4400   -0.2990 C   0  0  0  0  0  0  0  0  0  0  0  0
    4.4060    0.2572    0.7823 C   0  0  0  0  0  0  0  0  0  0  0  0
    0.0789    1.3715   -3.3195 C   0  0  0  0  0  0  0  0  0  0  0  0
    0.4935   -3.5320    2.0367 C   0  0  0  0  0  0  0  0  0  0  0  0
    0.8894   -0.8917   -3.5596 C   0  0  0  0  0  0  0  0  0  0  0  0
   -0.8115   -3.7770    0.0183 C   0  0  0  0  0  0  0  0  0  0  0  0
    2.0691    2.6162    1.5407 C   0  0  0  0  0  0  0  0  0  0  0  0
    0.4869    0.3144   -4.1329 C   0  0  0  0  0  0  0  0  0  0  0  0
   -0.2789   -4.3229    1.1861 C   0  0  0  0  0  0  0  0  0  0  0  0
   -4.7332    1.5048   -0.7751 C   0  0  0  0  0  0  0  0  0  0  0  0
   -5.5246    1.3817    1.4901 C   0  0  0  0  0  0  0  0  0  0  0  0
    2.1925    4.0377    1.0823 C   0  0  0  0  0  0  0  0  0  0  0  0
  1  5  1  0
  1 21  1  0
  2 21  2  0
  3 11  1  0
  3 24  1  0
  3 25  1  0
  4  5  1  0
  4  6  1  0
  4  7  1  0
  4  8  1  0
  5 10  1  0
  6  9  1  0
  7 12  2  0
  7 14  1  0
  8 13  2  0
  8 15  1  0
  9 11  1  0
 10 16  1  0
 12 17  1  0
 13 18  1  0
 14 19  2  0
 15 20  2  0
 17 22  2  0
 18 23  2  0
 19 22  1  0
 20 23  1  0
 21 26  1  0
M  END
>  <PUBCHEM_COMPOUND_CID>  (1) 
44678

>  <PUBCHEM_CONFORMER_RMSD>  (1) 
1

>  <PUBCHEM_CONFORMER_DIVERSEORDER>  (1) 
2
9
49
47
55
36
8
46
61
45
56
31
51
54
11
21
20
60
22
19
12
35
27
24
43
48
17
44
23
10
58
26
50
53
30
59
28
7
57
18
13
6
29
32
37
38
62
33
42
40
1
39
16
41
15
52
14
25
34
4
5
3

>  <PUBCHEM_MMFF94_PARTIAL_CHARGES>  (1) 
32
1 -0.43
11 0.27
12 -0.15
13 -0.15
14 -0.15
15 -0.15
17 -0.15
18 -0.15
19 -0.15
2 -0.57
20 -0.15
21 0.66
22 -0.15
23 -0.15
24 0.27
25 0.27
26 0.06
3 -0.81
36 0.15
37 0.15
38 0.15
39 0.15
4 0.29
43 0.15
44 0.15
45 0.15
46 0.15
47 0.15
48 0.15
5 0.28
7 -0.14
8 -0.14

>  <PUBCHEM_EFFECTIVE_ROTOR_COUNT>  (1) 
10

>  <PUBCHEM_PHARMACOPHORE_FEATURES>  (1) 
5
1 16 hydrophobe
1 2 acceptor
1 3 cation
6 7 12 14 17 19 22 rings
6 8 13 15 18 20 23 rings

>  <PUBCHEM_HEAVY_ATOM_COUNT>  (1) 
26

>  <PUBCHEM_ATOM_DEF_STEREO_COUNT>  (1) 
0

>  <PUBCHEM_ATOM_UDEF_STEREO_COUNT>  (1) 
1

>  <PUBCHEM_BOND_DEF_STEREO_COUNT>  (1) 
0

>  <PUBCHEM_BOND_UDEF_STEREO_COUNT>  (1) 
0

>  <PUBCHEM_ISOTOPIC_ATOM_COUNT>  (1) 
0

>  <PUBCHEM_COMPONENT_COUNT>  (1) 
1

>  <PUBCHEM_CACTVS_TAUTO_COUNT>  (1) 
1

>  <PUBCHEM_CONFORMER_ID>  (1) 
0000AE8600000002

>  <PUBCHEM_MMFF94_ENERGY>  (1) 
87.8721

>  <PUBCHEM_FEATURE_SELFOVERLAP>  (1) 
25.372

>  <PUBCHEM_SHAPE_FINGERPRINT>  (1) 
10165383 225 18187079538630246192
10985338 15 17617709665726991385
11112662 9 18131342029842617719
11421498 54 17112754298815126001
11578080 2 16546433526025952865
12788726 201 17618202349535019251
13149001 5 17767731352324377749
14022347 108 11794910416351298234
14863182 85 18042987388511182779
15219462 58 17835517498866426660
16945 1 18272089439461746242
17876694 64 17101983835090890483
17980427 26 18197189569074148752
229495 10 17900514814634902934
23419403 2 16764850389760008381
23558518 356 18124020497534457002
238 59 16700921425141433069
239999 70 17917158213077255233
25222932 49 18201143443896563759
298252 57 16988553619822675362
3380486 77 18267600035028376160
3493558 16 16962075417326709389
376196 1 17775000232565738657
497634 4 17177407043192203696
57527306 92 17774710957912230336
5845 1 12315222623264932324
68419 9 17029120285807485790
81228 2 17317582607826881042
9999458 23 18409166606084045057

>  <PUBCHEM_SHAPE_MULTIPOLES>  (1) 
518.35
5.97
4.6
3.58
10
4.1
-4.54
-5.15
3.78
-1.38
3.04
-1.6
-1.61
0.69

>  <PUBCHEM_SHAPE_SELFOVERLAP>  (1) 
1068.729

>  <PUBCHEM_SHAPE_VOLUME>  (1) 
295.9

>  <PUBCHEM_COORDINATE_TYPE>  (1) 
2
5
10

$$$$
