44676
     RDKit          3D

 23 24  0  0  1  0  0  0  0  0999 V2000
   -0.9026    0.0973    2.5163 O   0  0  0  0  0  0  0  0  0  0  0  0
    3.5165    1.1800   -0.9774 N   0  0  0  0  0  0  0  0  0  0  0  0
   -0.1131    0.0776    0.1554 C   0  0  0  0  0  0  0  0  0  0  0  0
    1.0558    0.7045   -0.7785 C   0  0  0  0  0  0  0  0  0  0  0  0
    0.0181    0.7262    1.6133 C   0  0  0  0  0  0  0  0  0  0  0  0
   -1.5483    0.4697   -0.3478 C   0  0  0  0  0  0  0  0  0  0  0  0
    0.0988   -1.4740    0.1680 C   0  0  0  0  0  0  0  0  0  0  0  0
    2.4950    0.4144   -0.2612 C   0  0  0  0  0  0  0  0  0  0  0  0
    0.9602    0.3129   -2.2705 C   0  0  0  0  0  0  0  0  0  0  0  0
   -0.1604    2.2555    1.7223 C   0  0  0  0  0  0  0  0  0  0  0  0
   -2.5512   -0.4117   -0.1042 C   0  0  0  0  0  0  0  0  0  0  0  0
   -0.0232   -2.1289   -1.0168 C   0  0  0  0  0  0  0  0  0  0  0  0
   -1.6759    1.6600   -0.9871 C   0  0  0  0  0  0  0  0  0  0  0  0
    0.3901   -2.0533    1.3625 C   0  0  0  0  0  0  0  0  0  0  0  0
   -0.0862    2.7327    3.1700 C   0  0  0  0  0  0  0  0  0  0  0  0
    4.8490    0.8419   -0.4800 C   0  0  0  0  0  0  0  0  0  0  0  0
    3.2677    2.6142   -0.8415 C   0  0  0  0  0  0  0  0  0  0  0  0
   -3.8259   -0.0634   -0.5508 C   0  0  0  0  0  0  0  0  0  0  0  0
    0.1658   -3.5109   -1.0058 C   0  0  0  0  0  0  0  0  0  0  0  0
   -2.9507    2.0082   -1.4335 C   0  0  0  0  0  0  0  0  0  0  0  0
    0.5792   -3.4353    1.3734 C   0  0  0  0  0  0  0  0  0  0  0  0
   -4.0257    1.1464   -1.2153 C   0  0  0  0  0  0  0  0  0  0  0  0
    0.4671   -4.1640    0.1892 C   0  0  0  0  0  0  0  0  0  0  0  0
  1  5  1  0
  2  8  1  0
  2 16  1  0
  2 17  1  0
  3  4  1  0
  3  5  1  0
  3  6  1  0
  3  7  1  0
  4  8  1  0
  4  9  1  0
  5 10  1  0
  6 11  2  0
  6 13  1  0
  7 12  2  0
  7 14  1  0
 10 15  1  0
 11 18  1  0
 12 19  1  0
 13 20  2  0
 14 21  2  0
 18 22  2  0
 19 23  2  0
 20 22  1  0
 21 23  1  0
M  END
>  <PUBCHEM_COMPOUND_CID>  (1) 
44676

>  <PUBCHEM_CONFORMER_RMSD>  (1) 
0.8

>  <PUBCHEM_CONFORMER_DIVERSEORDER>  (1) 
2
9
8
4
7
3
1
6
5

>  <PUBCHEM_MMFF94_PARTIAL_CHARGES>  (1) 
30
1 -0.68
11 -0.15
12 -0.15
13 -0.15
14 -0.15
16 0.27
17 0.27
18 -0.15
19 -0.15
2 -0.81
20 -0.15
21 -0.15
22 -0.15
23 -0.15
3 0.29
33 0.15
34 0.15
35 0.15
36 0.15
37 0.4
47 0.15
48 0.15
49 0.15
5 0.28
50 0.15
51 0.15
52 0.15
6 -0.14
7 -0.14
8 0.27

>  <PUBCHEM_EFFECTIVE_ROTOR_COUNT>  (1) 
7

>  <PUBCHEM_PHARMACOPHORE_FEATURES>  (1) 
7
1 1 acceptor
1 1 donor
1 15 hydrophobe
1 2 cation
1 9 hydrophobe
6 6 11 13 18 20 22 rings
6 7 12 14 19 21 23 rings

>  <PUBCHEM_HEAVY_ATOM_COUNT>  (1) 
23

>  <PUBCHEM_ATOM_DEF_STEREO_COUNT>  (1) 
0

>  <PUBCHEM_ATOM_UDEF_STEREO_COUNT>  (1) 
2

>  <PUBCHEM_BOND_DEF_STEREO_COUNT>  (1) 
0

>  <PUBCHEM_BOND_UDEF_STEREO_COUNT>  (1) 
0

>  <PUBCHEM_ISOTOPIC_ATOM_COUNT>  (1) 
0

>  <PUBCHEM_COMPONENT_COUNT>  (1) 
1

>  <PUBCHEM_CACTVS_TAUTO_COUNT>  (1) 
1

>  <PUBCHEM_CONFORMER_ID>  (1) 
0000AE8400000002

>  <PUBCHEM_MMFF94_ENERGY>  (1) 
104.5165

>  <PUBCHEM_FEATURE_SELFOVERLAP>  (1) 
35.52

>  <PUBCHEM_SHAPE_FINGERPRINT>  (1) 
10863032 1 17603299358278168177
10948715 1 18186799201165585620
11370993 70 18334571365195070924
11421498 54 18129952187168722873
11578080 2 16523339104612864573
11833330 49 17539687323596359983
12035759 4 17984143651889965526
12293681 160 18131914853715278248
12592029 89 18187364281623362634
12788726 201 17610336417675239058
13004483 165 17543629090373620022
13134695 92 17122494863946505741
13149001 5 17843396538476211936
133893 2 17829912944217503470
13681431 1 17906160759577858239
14181834 199 17973439906272869647
14817 1 10753298370502381857
14943834 7 17625552185065795264
14955137 171 16614807347983559606
16945 1 18043800996781648103
17876694 64 17119440312864225465
1813 80 17330266174469532143
18915476 22 18118137882956313075
19765921 60 18413107251478604165
20197701 30 18335411370630332902
20600515 1 11095623228745665323
20602899 9 18410303518640156868
20691752 17 17834368483382547103
21452121 199 17906708338275681503
21521721 280 18268156533861790601
21524375 3 18187363242183215972
229495 10 17250367327053202144
23227448 37 17975696413582104292
23352939 185 17616804440611738054
23419403 2 16523330265548862896
23558518 356 17843150050714479476
23559900 14 17905023881840089103
23728640 28 18042687380850673574
266924 1 17842563937517186217
298252 57 17968092061998472108
394222 165 18261949644192856498
5845 1 11623262568057207326
6138700 20 18046345237410294566
6669772 16 17771596183193929904
68419 9 17340702811590919545
7364860 26 18118397350304386343
81228 2 17401750317380189931

>  <PUBCHEM_SHAPE_MULTIPOLES>  (1) 
462.48
5.26
4.32
2.32
0.73
4.56
-1.69
-4.32
3.34
1.85
-1.12
-0.14
-1.47
-0.37

>  <PUBCHEM_SHAPE_SELFOVERLAP>  (1) 
965.417

>  <PUBCHEM_SHAPE_VOLUME>  (1) 
261.6

>  <PUBCHEM_COORDINATE_TYPE>  (1) 
2
5
10

$$$$
