44673
     RDKit          3D

  9  8  0  0  1  0  0  0  0  0999 V2000
   -0.0185   -1.7279   -0.1528 O   0  0  0  0  0  0  0  0  0  0  0  0
    1.5731    1.5360    0.6550 N   0  0  0  0  0  0  0  0  0  0  0  0
    1.4546    0.2127    0.0252 C   0  0  0  0  0  0  0  0  0  0  0  0
    0.0759   -0.4093    0.3931 C   0  0  0  0  0  0  0  0  0  0  0  0
   -1.1498    0.4082   -0.0572 C   0  0  0  0  0  0  0  0  0  0  0  0
    1.5597    0.3970   -1.5008 C   0  0  0  0  0  0  0  0  0  0  0  0
    2.6400   -0.6435    0.4986 C   0  0  0  0  0  0  0  0  0  0  0  0
   -2.4667   -0.2880    0.3064 C   0  0  0  0  0  0  0  0  0  0  0  0
   -3.6683    0.5147   -0.1676 C   0  0  0  0  0  0  0  0  0  0  0  0
  1  4  1  0
  2  3  1  0
  3  4  1  0
  3  6  1  0
  3  7  1  0
  4  5  1  0
  5  8  1  0
  8  9  1  0
M  END
>  <PUBCHEM_COMPOUND_CID>  (1) 
44673

>  <PUBCHEM_CONFORMER_RMSD>  (1) 
0.6

>  <PUBCHEM_CONFORMER_DIVERSEORDER>  (1) 
2
17
12
4
15
16
11
19
8
10
1
7
18
9
14
3
6
13
5

>  <PUBCHEM_MMFF94_PARTIAL_CHARGES>  (1) 
7
1 -0.68
2 -0.99
21 0.36
22 0.36
23 0.4
3 0.27
4 0.28

>  <PUBCHEM_EFFECTIVE_ROTOR_COUNT>  (1) 
3

>  <PUBCHEM_PHARMACOPHORE_FEATURES>  (1) 
6
1 1 acceptor
1 1 donor
1 2 cation
1 2 donor
1 9 hydrophobe
3 3 6 7 hydrophobe

>  <PUBCHEM_HEAVY_ATOM_COUNT>  (1) 
9

>  <PUBCHEM_ATOM_DEF_STEREO_COUNT>  (1) 
0

>  <PUBCHEM_ATOM_UDEF_STEREO_COUNT>  (1) 
1

>  <PUBCHEM_BOND_DEF_STEREO_COUNT>  (1) 
0

>  <PUBCHEM_BOND_UDEF_STEREO_COUNT>  (1) 
0

>  <PUBCHEM_ISOTOPIC_ATOM_COUNT>  (1) 
0

>  <PUBCHEM_COMPONENT_COUNT>  (1) 
1

>  <PUBCHEM_CACTVS_TAUTO_COUNT>  (1) 
1

>  <PUBCHEM_CONFORMER_ID>  (1) 
0000AE8100000002

>  <PUBCHEM_MMFF94_ENERGY>  (1) 
7.3969

>  <PUBCHEM_FEATURE_SELFOVERLAP>  (1) 
30.446

>  <PUBCHEM_SHAPE_FINGERPRINT>  (1) 
10219947 1 17895193272798105711
12897270 3 18341897381296035941
12932764 1 18338243755654306955
14325111 11 18410572920358264475
14390081 3 18411980261130252561
15775835 57 18408887364527004373
21028194 46 18334577945185097371
21040471 1 18263368142936132922
29004967 10 15339123450226917290
3248919 1 16917074373428033443
5084963 1 17894348865068961433

>  <PUBCHEM_SHAPE_MULTIPOLES>  (1) 
174.37
4.64
1.22
0.96
3.99
0.15
-0.26
-0.48
0.16
-0.37
0.04
-0.51
-0.21
-0.02

>  <PUBCHEM_SHAPE_SELFOVERLAP>  (1) 
315.391

>  <PUBCHEM_SHAPE_VOLUME>  (1) 
113.9

>  <PUBCHEM_COORDINATE_TYPE>  (1) 
2
5
10

$$$$
