44674
     RDKit          3D

  9  8  0  0  1  0  0  0  0  0999 V2000
   -0.5911    1.6402    0.3120 O   0  0  0  0  0  0  0  0  0  0  0  0
    1.1378   -1.5266   -0.6264 N   0  0  0  0  0  0  0  0  0  0  0  0
   -0.4218    0.4026   -0.3859 C   0  0  0  0  0  0  0  0  0  0  0  0
    0.8990   -0.2658    0.0790 C   0  0  0  0  0  0  0  0  0  0  0  0
   -1.7035   -0.4457   -0.1757 C   0  0  0  0  0  0  0  0  0  0  0  0
    2.1107    0.6693   -0.1338 C   0  0  0  0  0  0  0  0  0  0  0  0
   -1.9244   -0.8483    1.2856 C   0  0  0  0  0  0  0  0  0  0  0  0
   -2.9401    0.3098   -0.6807 C   0  0  0  0  0  0  0  0  0  0  0  0
    3.4335    0.0646    0.3259 C   0  0  0  0  0  0  0  0  0  0  0  0
  1  3  1  0
  2  4  1  0
  3  4  1  0
  3  5  1  0
  4  6  1  0
  5  7  1  0
  5  8  1  0
  6  9  1  0
M  END
>  <PUBCHEM_COMPOUND_CID>  (1) 
44674

>  <PUBCHEM_CONFORMER_RMSD>  (1) 
0.6

>  <PUBCHEM_CONFORMER_DIVERSEORDER>  (1) 
7
22
5
17
1
27
21
16
18
11
9
28
10
20
15
13
14
26
6
25
4
8
23
19
2
24
3
12

>  <PUBCHEM_MMFF94_PARTIAL_CHARGES>  (1) 
7
1 -0.68
2 -0.99
21 0.36
22 0.36
26 0.4
3 0.28
4 0.27

>  <PUBCHEM_EFFECTIVE_ROTOR_COUNT>  (1) 
3

>  <PUBCHEM_PHARMACOPHORE_FEATURES>  (1) 
6
1 1 acceptor
1 1 donor
1 2 cation
1 2 donor
1 9 hydrophobe
3 5 7 8 hydrophobe

>  <PUBCHEM_HEAVY_ATOM_COUNT>  (1) 
9

>  <PUBCHEM_ATOM_DEF_STEREO_COUNT>  (1) 
0

>  <PUBCHEM_ATOM_UDEF_STEREO_COUNT>  (1) 
2

>  <PUBCHEM_BOND_DEF_STEREO_COUNT>  (1) 
0

>  <PUBCHEM_BOND_UDEF_STEREO_COUNT>  (1) 
0

>  <PUBCHEM_ISOTOPIC_ATOM_COUNT>  (1) 
0

>  <PUBCHEM_COMPONENT_COUNT>  (1) 
1

>  <PUBCHEM_CACTVS_TAUTO_COUNT>  (1) 
1

>  <PUBCHEM_CONFORMER_ID>  (1) 
0000AE8200000007

>  <PUBCHEM_MMFF94_ENERGY>  (1) 
7.8923

>  <PUBCHEM_FEATURE_SELFOVERLAP>  (1) 
30.446

>  <PUBCHEM_SHAPE_FINGERPRINT>  (1) 
10857977 72 18337107981258928896
11062470 55 18186514401947549685
12897270 3 18342455941418341068
14325111 11 18409445921003162524
20201158 50 18335135384394940399
20645464 45 18113902645701952555
23235685 24 18335693940491244964
23402539 116 17677032608522149767
23552423 10 18266463092048380606
29004967 10 18410866481135595243
3248919 1 18334863805043894364
369184 2 17167578301895848321
5084963 1 17489863864843305648

>  <PUBCHEM_SHAPE_MULTIPOLES>  (1) 
174.37
4.58
1.24
0.92
1.8
0.02
0.12
0.08
0.11
-0.13
0.06
-0.36
-0.19
0.41

>  <PUBCHEM_SHAPE_SELFOVERLAP>  (1) 
313.015

>  <PUBCHEM_SHAPE_VOLUME>  (1) 
114

>  <PUBCHEM_COORDINATE_TYPE>  (1) 
2
5
10

$$$$
