44689
     RDKit          3D

 16 15  0  0  1  0  0  0  0  0999 V2000
   -4.4616    0.2474    0.6072 O   0  0  0  0  0  0  0  0  0  0  0  0
   -3.7974   -1.8516    0.6925 O   0  0  0  0  0  0  0  0  0  0  0  0
   -0.1407    0.5358   -0.0277 N   0  0  0  0  0  0  0  0  0  0  0  0
   -3.6703   -0.6684    0.3623 N   0  0  0  0  0  0  0  0  0  0  0  0
    2.1832    1.3901    0.3856 C   0  0  0  0  0  0  0  0  0  0  0  0
    2.9199    0.2877   -0.4138 C   0  0  0  0  0  0  0  0  0  0  0  0
    0.8381    0.9233    0.9820 C   0  0  0  0  0  0  0  0  0  0  0  0
    2.0451    2.6431   -0.5121 C   0  0  0  0  0  0  0  0  0  0  0  0
   -2.4540   -0.3186   -0.4267 C   0  0  0  0  0  0  0  0  0  0  0  0
   -1.3661    0.0560    0.5951 C   0  0  0  0  0  0  0  0  0  0  0  0
    3.2140   -1.0146    0.3401 C   0  0  0  0  0  0  0  0  0  0  0  0
    4.0207   -2.0236   -0.4775 C   0  0  0  0  0  0  0  0  0  0  0  0
    1.4239    3.8416    0.1915 C   0  0  0  0  0  0  0  0  0  0  0  0
   -2.8588    0.8449   -1.3316 C   0  0  0  0  0  0  0  0  0  0  0  0
   -2.0945   -1.5606   -1.2439 C   0  0  0  0  0  0  0  0  0  0  0  0
    4.1984   -3.3325    0.2770 C   0  0  0  0  0  0  0  0  0  0  0  0
  1  4  1  0
  2  4  2  0
  3  7  1  0
  3 10  1  0
  4  9  1  0
  5  6  1  0
  5  7  1  0
  5  8  1  0
  6 11  1  0
  8 13  1  0
  9 10  1  0
  9 14  1  0
  9 15  1  0
 11 12  1  0
 12 16  1  0
M  CHG  2   1  -1   4   1
M  END
>  <PUBCHEM_COMPOUND_CID>  (1) 
44689

>  <PUBCHEM_CONFORMER_RMSD>  (1) 
0.8

>  <PUBCHEM_CONFORMER_DIVERSEORDER>  (1) 
1
136
208
34
177
20
88
138
195
52
125
194
170
54
203
50
104
2
61
201
141
197
190
133
172
193
165
143
16
109
148
12
26
43
210
202
107
175
7
191
192
171
85
199
173
209
67
198
51
183
93
19
13
135
96
161
157
6
204
174
76
28
149
179
162
72
181
142
32
132
176
101
180
22
71
89
39
145
189
84
117
105
69
160
196
113
86
137
188
152
187
15
106
168
10
80
60
23
122
147
128
156
58
124
164
91
150
211
98
18
100
47
163
115
11
48
97
200
166
111
178
42
131
114
102
78
139
103
4
120
182
53
66
129
121
46
153
159
9
74
205
127
167
169
144
38
79
108
184
130
154
70
44
36
155
126
14
158
151
81
146
206
116
134
207
68
77
64
140
112
21
37
25
186
73
118
8
110
30
87
90
119
92
5
185
75
82
83
3
33
123
212
95
17
40
45
29
59
35
41
56
31
99
24
94
213
55
27
65
49
62
57
63

>  <PUBCHEM_MMFF94_PARTIAL_CHARGES>  (1) 
8
1 -0.52
10 0.27
2 -0.52
28 0.36
3 -0.9
4 0.8
7 0.27
9 0.24

>  <PUBCHEM_EFFECTIVE_ROTOR_COUNT>  (1) 
9

>  <PUBCHEM_PHARMACOPHORE_FEATURES>  (1) 
9
1 1 acceptor
1 1 anion
1 13 hydrophobe
1 16 hydrophobe
1 2 acceptor
1 3 cation
1 3 donor
3 9 14 15 hydrophobe
5 5 6 8 11 12 hydrophobe

>  <PUBCHEM_HEAVY_ATOM_COUNT>  (1) 
16

>  <PUBCHEM_ATOM_DEF_STEREO_COUNT>  (1) 
0

>  <PUBCHEM_ATOM_UDEF_STEREO_COUNT>  (1) 
1

>  <PUBCHEM_BOND_DEF_STEREO_COUNT>  (1) 
0

>  <PUBCHEM_BOND_UDEF_STEREO_COUNT>  (1) 
0

>  <PUBCHEM_ISOTOPIC_ATOM_COUNT>  (1) 
0

>  <PUBCHEM_COMPONENT_COUNT>  (1) 
1

>  <PUBCHEM_CACTVS_TAUTO_COUNT>  (1) 
1

>  <PUBCHEM_CONFORMER_ID>  (1) 
0000AE9100000001

>  <PUBCHEM_MMFF94_ENERGY>  (1) 
20.7049

>  <PUBCHEM_FEATURE_SELFOVERLAP>  (1) 
45.75

>  <PUBCHEM_SHAPE_FINGERPRINT>  (1) 
11265709 11 18339644422094278042
12553582 1 18341891845194344806
12841375 25 18411139087527040002
12932764 1 17487901331193316977
13052359 8 17617093603960151796
13533116 47 18339363097473526035
13955234 65 18196377128522766944
14251757 5 17900818249959045204
14866123 147 17474668351985566536
15042514 8 17907020569418500168
15806764 133 17821441357534027285
18186145 218 17749942371142436921
20291156 8 18340768127062316426
20339313 130 18410571786481915944
20645477 70 18336534023367871735
20671657 53 18339646646555060490
20871998 22 18411132499094940736
21250096 35 18339638932889060590
21524375 3 17324066518059112216
221490 88 18334864960543311818
2255824 54 18268431420268972348
23526113 38 18113345219245253552
23532345 88 18340759459501419116
23557571 272 17241597498182783493
23598291 2 18058730363053024597
314173 41 18410862027592580598
3421961 26 18411981356336123378
45790113 53 18411135848784270805
58051976 100 18340208612860822431
6049 1 18041268946194413317
621550 34 17975130160766878013
621550 5 17822303352911518917
7364860 26 18338796852995436432
9709674 26 18262520419550687475

>  <PUBCHEM_SHAPE_MULTIPOLES>  (1) 
307.57
8.55
3.74
1.03
2.35
1.86
0.16
-7.12
-0.25
-4.82
0.01
0.58
-0.06
0.13

>  <PUBCHEM_SHAPE_SELFOVERLAP>  (1) 
571.364

>  <PUBCHEM_SHAPE_VOLUME>  (1) 
192.9

>  <PUBCHEM_COORDINATE_TYPE>  (1) 
2
5
10

$$$$
