44685
     RDKit          3D

 24 25  0  0  1  0  0  0  0  0999 V2000
   -0.5628   -0.1106   -2.6048 O   0  0  0  0  0  0  0  0  0  0  0  0
    3.5094   -0.5364    0.6403 N   0  0  0  0  0  0  0  0  0  0  0  0
    1.0253   -0.3725    0.7600 C   0  0  0  0  0  0  0  0  0  0  0  0
   -0.2436   -0.0534   -0.1569 C   0  0  0  0  0  0  0  0  0  0  0  0
    2.3320    0.2842    0.2501 C   0  0  0  0  0  0  0  0  0  0  0  0
    0.8298    0.0134    2.2453 C   0  0  0  0  0  0  0  0  0  0  0  0
   -0.4446    1.4973   -0.1455 C   0  0  0  0  0  0  0  0  0  0  0  0
   -1.5510   -0.8061    0.2559 C   0  0  0  0  0  0  0  0  0  0  0  0
    0.0000   -0.6038   -1.6233 C   0  0  0  0  0  0  0  0  0  0  0  0
    3.7102   -1.6975   -0.3415 C   0  0  0  0  0  0  0  0  0  0  0  0
    4.7854    0.3146    0.6446 C   0  0  0  0  0  0  0  0  0  0  0  0
    3.3195   -1.1233    2.0447 C   0  0  0  0  0  0  0  0  0  0  0  0
    0.8665   -1.8554   -1.7872 C   0  0  0  0  0  0  0  0  0  0  0  0
   -1.3556    2.0758    0.7384 C   0  0  0  0  0  0  0  0  0  0  0  0
   -2.7969   -0.2432   -0.0212 C   0  0  0  0  0  0  0  0  0  0  0  0
    0.2877    2.3022   -1.0183 C   0  0  0  0  0  0  0  0  0  0  0  0
   -1.4714   -2.0407    0.9002 C   0  0  0  0  0  0  0  0  0  0  0  0
    0.4723   -2.6774   -3.0042 C   0  0  0  0  0  0  0  0  0  0  0  0
   -1.5346    3.4591    0.7493 C   0  0  0  0  0  0  0  0  0  0  0  0
   -3.9630   -0.9146    0.3463 C   0  0  0  0  0  0  0  0  0  0  0  0
    0.1087    3.6856   -1.0071 C   0  0  0  0  0  0  0  0  0  0  0  0
   -2.6376   -2.7122    1.2676 C   0  0  0  0  0  0  0  0  0  0  0  0
   -0.8025    4.2640   -0.1233 C   0  0  0  0  0  0  0  0  0  0  0  0
   -3.8833   -2.1490    0.9905 C   0  0  0  0  0  0  0  0  0  0  0  0
  1  9  2  0
  2  5  1  0
  2 10  1  0
  2 11  1  0
  2 12  1  0
  3  4  1  0
  3  5  1  0
  3  6  1  0
  4  7  1  0
  4  8  1  0
  4  9  1  0
  7 14  2  0
  7 16  1  0
  8 15  2  0
  8 17  1  0
  9 13  1  0
 13 18  1  0
 14 19  1  0
 15 20  1  0
 16 21  2  0
 17 22  2  0
 19 23  2  0
 20 24  2  0
 21 23  1  0
 22 24  1  0
M  CHG  1   2   1
M  END
>  <PUBCHEM_COMPOUND_CID>  (1) 
44685

>  <PUBCHEM_CONFORMER_RMSD>  (1) 
0.8

>  <PUBCHEM_CONFORMER_DIVERSEORDER>  (1) 
1
3
2

>  <PUBCHEM_MMFF94_PARTIAL_CHARGES>  (1) 
31
1 -0.57
10 0.5
11 0.5
12 0.5
13 0.06
14 -0.15
15 -0.15
16 -0.15
17 -0.15
19 -0.15
2 -1.01
20 -0.15
21 -0.15
22 -0.15
23 -0.15
24 -0.15
4 0.35
42 0.15
43 0.15
44 0.15
45 0.15
49 0.15
5 0.5
50 0.15
51 0.15
52 0.15
53 0.15
54 0.15
7 -0.14
8 -0.14
9 0.45

>  <PUBCHEM_EFFECTIVE_ROTOR_COUNT>  (1) 
7

>  <PUBCHEM_PHARMACOPHORE_FEATURES>  (1) 
6
1 1 acceptor
1 18 hydrophobe
1 2 cation
1 6 hydrophobe
6 7 14 16 19 21 23 rings
6 8 15 17 20 22 24 rings

>  <PUBCHEM_HEAVY_ATOM_COUNT>  (1) 
24

>  <PUBCHEM_ATOM_DEF_STEREO_COUNT>  (1) 
0

>  <PUBCHEM_ATOM_UDEF_STEREO_COUNT>  (1) 
1

>  <PUBCHEM_BOND_DEF_STEREO_COUNT>  (1) 
0

>  <PUBCHEM_BOND_UDEF_STEREO_COUNT>  (1) 
0

>  <PUBCHEM_ISOTOPIC_ATOM_COUNT>  (1) 
0

>  <PUBCHEM_COMPONENT_COUNT>  (1) 
1

>  <PUBCHEM_CACTVS_TAUTO_COUNT>  (1) 
2

>  <PUBCHEM_CONFORMER_ID>  (1) 
0000AE8D00000001

>  <PUBCHEM_MMFF94_ENERGY>  (1) 
116.6412

>  <PUBCHEM_FEATURE_SELFOVERLAP>  (1) 
30.446

>  <PUBCHEM_SHAPE_FINGERPRINT>  (1) 
10165383 225 16753848276954571661
10756046 70 17840024370736683175
107951 10 17761769568656713022
10906281 52 18340782472305819653
1100329 8 18334860494041555305
11578080 2 16985222013564905833
11582403 64 16902096602569640512
12082328 90 18336264545590800166
12173636 292 18046050567718361952
12403814 3 18129646591497064746
12788726 201 18333449816184940938
13004483 165 18261944189515935915
13134695 92 18266733778584156421
13583140 156 17757832612786533359
14022347 108 17975169532974621867
14178342 30 18044073680540858794
14713325 29 18197784306491841288
14787075 74 17751645592057945976
14955137 171 17834960046155114200
15238133 3 17679049057440463489
15775530 1 17769669606598524207
16945 1 18336828585083312776
17980427 23 18059866107715954105
17980427 26 17401489745888159093
19591789 44 16823348991077298865
20600515 1 18113903745282113743
20642791 13 18271246007054246465
20691752 17 17905064564208283649
20905425 154 18047203118045261637
21285901 2 18200596878594484575
21524375 3 17550076205372645416
229495 10 17827343681558583597
23419403 2 17173180459916220814
23557571 272 18339371751056842798
23558518 356 17762880088063765517
23559900 14 18047182240193405387
25222932 49 16246888282152057115
266924 78 17185285073431043679
3052486 1 18118703023517355889
3250762 1 17769668502791870583
3380486 145 17765392772844689584
394222 165 17476667715249644321
469060 322 17985517143956297822
484985 159 16955596695352597074
497634 4 17749381522029436050
6992083 37 17843950675067045062
7097593 13 18048879894472823251
7364860 26 17830458636870835105
81228 2 18124341336255661289
9925002 15 17484225723660748604
9981440 41 17054104158261312586

>  <PUBCHEM_SHAPE_MULTIPOLES>  (1) 
483.06
5.75
4.4
2.19
3.14
5.21
-1.2
-4.12
3.08
-2.34
-0.89
0.76
-1.55
0.6

>  <PUBCHEM_SHAPE_SELFOVERLAP>  (1) 
1003.312

>  <PUBCHEM_SHAPE_VOLUME>  (1) 
275.3

>  <PUBCHEM_COORDINATE_TYPE>  (1) 
2
5
10

$$$$
