44700
     RDKit          3D

 18 19  0  0  0  0  0  0  0  0999 V2000
    1.9012   -1.1928    0.3373 O   0  0  0  0  0  0  0  0  0  0  0  0
    3.2584    0.0117   -1.0307 O   0  0  0  0  0  0  0  0  0  0  0  0
    1.1669    0.9196   -0.4134 N   0  0  0  0  0  0  0  0  0  0  0  0
   -0.0137    0.7492    0.3197 C   0  0  0  0  0  0  0  0  0  0  0  0
   -1.1459    0.1298   -0.2345 C   0  0  0  0  0  0  0  0  0  0  0  0
   -2.3117   -0.0140    0.5547 C   0  0  0  0  0  0  0  0  0  0  0  0
    1.4037    2.1454   -1.2314 C   0  0  0  0  0  0  0  0  0  0  0  0
   -0.0309    1.2202    1.6329 C   0  0  0  0  0  0  0  0  0  0  0  0
   -1.1465   -0.3501   -1.5544 C   0  0  0  0  0  0  0  0  0  0  0  0
   -2.3112    0.4654    1.8748 C   0  0  0  0  0  0  0  0  0  0  0  0
   -1.1773    1.0783    2.4090 C   0  0  0  0  0  0  0  0  0  0  0  0
   -3.4439   -0.6336    0.0008 C   0  0  0  0  0  0  0  0  0  0  0  0
    2.2024   -0.0799   -0.4093 C   0  0  0  0  0  0  0  0  0  0  0  0
    2.0915    3.2269   -0.4242 C   0  0  0  0  0  0  0  0  0  0  0  0
   -2.2805   -0.9626   -2.0885 C   0  0  0  0  0  0  0  0  0  0  0  0
   -3.4270   -1.1041   -1.3125 C   0  0  0  0  0  0  0  0  0  0  0  0
    2.8826   -2.2368    0.3514 C   0  0  0  0  0  0  0  0  0  0  0  0
    2.3820   -3.3724    1.2182 C   0  0  0  0  0  0  0  0  0  0  0  0
  1 13  1  0
  1 17  1  0
  2 13  2  0
  3  4  1  0
  3  7  1  0
  3 13  1  0
  4  5  2  0
  4  8  1  0
  5  6  1  0
  5  9  1  0
  6 10  2  0
  6 12  1  0
  7 14  1  0
  8 11  2  0
  9 15  2  0
 10 11  1  0
 12 16  2  0
 15 16  1  0
 17 18  1  0
M  END
>  <PUBCHEM_COMPOUND_CID>  (1) 
44700

>  <PUBCHEM_CONFORMER_RMSD>  (1) 
0.6

>  <PUBCHEM_CONFORMER_DIVERSEORDER>  (1) 
1
29
4
32
6
22
34
21
33
9
20
28
11
2
13
35
10
26
31
14
23
17
18
27
25
19
16
30
15
3
12
5
8
7
24

>  <PUBCHEM_MMFF94_PARTIAL_CHARGES>  (1) 
21
1 -0.43
10 -0.15
11 -0.15
12 -0.15
13 0.78
15 -0.15
16 -0.15
17 0.28
2 -0.57
21 0.15
22 0.15
23 0.15
24 0.15
25 0.15
29 0.15
3 -0.48
30 0.15
4 0.12
7 0.3
8 -0.15
9 -0.15

>  <PUBCHEM_EFFECTIVE_ROTOR_COUNT>  (1) 
5

>  <PUBCHEM_PHARMACOPHORE_FEATURES>  (1) 
3
1 2 acceptor
6 4 5 6 8 10 11 rings
6 5 6 9 12 15 16 rings

>  <PUBCHEM_HEAVY_ATOM_COUNT>  (1) 
18

>  <PUBCHEM_ATOM_DEF_STEREO_COUNT>  (1) 
0

>  <PUBCHEM_ATOM_UDEF_STEREO_COUNT>  (1) 
0

>  <PUBCHEM_BOND_DEF_STEREO_COUNT>  (1) 
0

>  <PUBCHEM_BOND_UDEF_STEREO_COUNT>  (1) 
0

>  <PUBCHEM_ISOTOPIC_ATOM_COUNT>  (1) 
0

>  <PUBCHEM_COMPONENT_COUNT>  (1) 
1

>  <PUBCHEM_CACTVS_TAUTO_COUNT>  (1) 
1

>  <PUBCHEM_CONFORMER_ID>  (1) 
0000AE9C00000001

>  <PUBCHEM_MMFF94_ENERGY>  (1) 
64.7382

>  <PUBCHEM_FEATURE_SELFOVERLAP>  (1) 
15.249

>  <PUBCHEM_SHAPE_FINGERPRINT>  (1) 
11578080 2 18055889079263306544
11725454 13 16738862397493310061
121448 382 17621033596203073516
12553582 1 18117849789498906882
13083527 12 15047458281871201711
13538477 17 17631750342697049005
13583140 156 18118997795797354561
13898156 1 17988939871807650553
13911987 19 17751101261193883612
14787075 74 17120025768551415111
14817 1 16023994648890704688
15375462 189 18059572542000070827
16752209 62 17274833432714587989
16945 1 18334297599368067060
1813 80 18269286668437640934
19765921 60 17839179954275471316
19777482 4 17905026076473509650
19786989 88 17898000480666139069
20361792 2 18264206920242882974
21421861 104 16408121620857736551
22112679 90 17703525362193852185
2255824 54 18338517555461123932
22802520 49 15719681948072007586
232386 152 17346314946561799077
23419403 2 16549110647697469833
23526113 38 16950285087637602056
23598288 3 17324383813326146670
23598291 2 18199213769749093948
23598294 1 17130734767103600761
23728640 28 16676949507734559578
4340502 62 17977114770749254579
6992083 37 17984431732463028400
77492 1 18130242534909589220
81228 2 17320687280950645632

>  <PUBCHEM_SHAPE_MULTIPOLES>  (1) 
353.71
5.24
2.88
2.08
0.63
0.46
0.52
2.57
-1.04
-3.84
0.4
1.23
-0.23
-2.03

>  <PUBCHEM_SHAPE_SELFOVERLAP>  (1) 
746.484

>  <PUBCHEM_SHAPE_VOLUME>  (1) 
197.2

>  <PUBCHEM_COORDINATE_TYPE>  (1) 
2
5
10

$$$$
