44719
     RDKit          3D

 18 19  0  0  1  0  0  0  0  0999 V2000
    4.2905   -1.8406    0.1296 Cl  0  0  0  0  0  0  0  0  0  0  0  0
   -1.9354   -0.7152   -1.6054 O   0  0  0  0  0  0  0  0  0  0  0  0
    3.4481    1.0082   -0.0697 O   0  0  0  0  0  0  0  0  0  0  0  0
   -3.7950   -0.1208   -0.1922 N   0  0  0  0  0  0  0  0  0  0  0  0
   -1.4073    0.2116    0.5078 C   0  0  0  0  0  0  0  0  0  0  0  0
   -1.5732    1.6737    0.0547 C   0  0  0  0  0  0  0  0  0  0  0  0
    0.0290   -0.2826    0.3885 C   0  0  0  0  0  0  0  0  0  0  0  0
   -0.4720    2.5517    0.6283 C   0  0  0  0  0  0  0  0  0  0  0  0
   -2.4203   -0.6494   -0.2592 C   0  0  0  0  0  0  0  0  0  0  0  0
    0.8795    2.1051    0.0854 C   0  0  0  0  0  0  0  0  0  0  0  0
    1.1006    0.6190    0.2175 C   0  0  0  0  0  0  0  0  0  0  0  0
    0.3234   -1.6509    0.5269 C   0  0  0  0  0  0  0  0  0  0  0  0
    2.4157    0.1326    0.1239 C   0  0  0  0  0  0  0  0  0  0  0  0
    1.6355   -2.1203    0.4455 C   0  0  0  0  0  0  0  0  0  0  0  0
    2.6811   -1.2296    0.2367 C   0  0  0  0  0  0  0  0  0  0  0  0
   -4.2935   -0.0374    1.1837 C   0  0  0  0  0  0  0  0  0  0  0  0
   -4.7068   -0.9550   -0.9837 C   0  0  0  0  0  0  0  0  0  0  0  0
    3.7999    1.3000   -1.4183 C   0  0  0  0  0  0  0  0  0  0  0  0
  1 15  1  0
  2  9  1  0
  3 13  1  0
  3 18  1  0
  4  9  1  0
  4 16  1  0
  4 17  1  0
  5  6  1  0
  5  7  1  0
  5  9  1  0
  6  8  1  0
  7 11  2  0
  7 12  1  0
  8 10  1  0
 10 11  1  0
 11 13  1  0
 12 14  2  0
 13 15  2  0
 14 15  1  0
M  END
>  <PUBCHEM_COMPOUND_CID>  (1) 
44719

>  <PUBCHEM_CONFORMER_RMSD>  (1) 
0.6

>  <PUBCHEM_CONFORMER_DIVERSEORDER>  (1) 
1
12
10
2
3
4
5
13
7
9
8
11
6

>  <PUBCHEM_MMFF94_PARTIAL_CHARGES>  (1) 
19
1 -0.18
10 0.14
11 -0.14
12 -0.15
13 0.08
14 -0.15
15 0.18
16 0.27
17 0.27
18 0.28
2 -0.68
27 0.15
28 0.15
29 0.4
3 -0.36
4 -0.81
5 0.14
7 -0.14
9 0.55

>  <PUBCHEM_EFFECTIVE_ROTOR_COUNT>  (1) 
3.8

>  <PUBCHEM_PHARMACOPHORE_FEATURES>  (1) 
6
1 2 acceptor
1 2 donor
1 3 acceptor
1 4 cation
6 5 6 7 8 10 11 rings
6 7 11 12 13 14 15 rings

>  <PUBCHEM_HEAVY_ATOM_COUNT>  (1) 
18

>  <PUBCHEM_ATOM_DEF_STEREO_COUNT>  (1) 
0

>  <PUBCHEM_ATOM_UDEF_STEREO_COUNT>  (1) 
2

>  <PUBCHEM_BOND_DEF_STEREO_COUNT>  (1) 
0

>  <PUBCHEM_BOND_UDEF_STEREO_COUNT>  (1) 
0

>  <PUBCHEM_ISOTOPIC_ATOM_COUNT>  (1) 
0

>  <PUBCHEM_COMPONENT_COUNT>  (1) 
1

>  <PUBCHEM_CACTVS_TAUTO_COUNT>  (1) 
1

>  <PUBCHEM_CONFORMER_ID>  (1) 
0000AEAF00000001

>  <PUBCHEM_MMFF94_ENERGY>  (1) 
58.191

>  <PUBCHEM_FEATURE_SELFOVERLAP>  (1) 
30.466

>  <PUBCHEM_SHAPE_FINGERPRINT>  (1) 
10618630 7 18410291380672253225
10967382 1 18410012177880935328
10980938 120 18410571790555207187
11471102 20 18335697264948938771
11806522 49 18337951186940815458
12236239 1 18060703905627339227
12553582 1 18342174483758610489
13140716 1 17977665634612171936
13221675 6 18342455954424614063
13760787 5 18408326583753594091
14251717 144 18409442613656941363
14576447 43 18199459038552159823
14993402 34 18131349747983075487
15196674 1 18410573955187121345
15375462 189 18413392029522529441
15475509 35 14548747196165079510
16945 1 18338230578336096192
19422 9 18273495667625948147
200 152 18336823108973824795
20281475 54 18413670227460194545
20645477 70 18335414651837952519
21267235 1 18339368469781313571
21501502 16 18338241436213978000
21634736 98 18338238159428094862
21637258 2 15985110695405878116
22112679 90 18060696182748568209
221490 88 18192430998908832763
2255824 54 18197212757502476257
2334 1 18409732820486839776
23402539 116 18341604863515600958
23419403 2 15237407492223940104
23557571 272 17845934014277236730
23559900 14 18194672666915460522
23598291 2 18273216370155354607
25 1 18262236732554503611
25147074 1 18265346018964086440
25610 137 18334581234956011817
2748010 2 18266447720471249856
2871803 45 18334852788315675462
312423 11 18264786380182192602
3286 77 17703782600991592434
34934 24 18272363217545773989
352729 6 17694782926409336033
45790113 50 18335426725022241510
465052 167 18201156663495060719
5104073 3 18410856529817840033
537710 114 18408606989035710108
57096353 35 18410857676421087613
7164475 11 18339643317934631940
77492 1 17989491840035929563
83771 10 18341609304727757625
90525 40 18057880243233511223

>  <PUBCHEM_SHAPE_MULTIPOLES>  (1) 
355.58
7.87
2.39
1.05
3.2
0.71
0.28
-2.6
1.44
-1.43
-0.22
0.43
0.01
-1.06

>  <PUBCHEM_SHAPE_SELFOVERLAP>  (1) 
731.84

>  <PUBCHEM_SHAPE_VOLUME>  (1) 
206.6

>  <PUBCHEM_COORDINATE_TYPE>  (1) 
2
5
10

$$$$
