44717
     RDKit          3D

 15 16  0  0  1  0  0  0  0  0999 V2000
    2.3613    0.7135    1.6353 O   0  0  0  0  0  0  0  0  0  0  0  0
   -3.1841   -0.6517    0.0179 O   0  0  0  0  0  0  0  0  0  0  0  0
    4.0757    0.0957    0.1029 N   0  0  0  0  0  0  0  0  0  0  0  0
    1.7211   -0.0852   -0.5196 C   0  0  0  0  0  0  0  0  0  0  0  0
    1.8183   -1.5665   -0.1109 C   0  0  0  0  0  0  0  0  0  0  0  0
    0.6806   -2.3752   -0.7149 C   0  0  0  0  0  0  0  0  0  0  0  0
    0.3085    0.4703   -0.3893 C   0  0  0  0  0  0  0  0  0  0  0  0
   -0.6516   -1.8841   -0.1628 C   0  0  0  0  0  0  0  0  0  0  0  0
   -0.8040   -0.3862   -0.2493 C   0  0  0  0  0  0  0  0  0  0  0  0
    2.7691    0.7047    0.2765 C   0  0  0  0  0  0  0  0  0  0  0  0
    0.0773    1.8542   -0.4866 C   0  0  0  0  0  0  0  0  0  0  0  0
   -2.0959    0.1568   -0.1447 C   0  0  0  0  0  0  0  0  0  0  0  0
   -1.2125    2.3806   -0.3942 C   0  0  0  0  0  0  0  0  0  0  0  0
   -2.2985    1.5325   -0.2162 C   0  0  0  0  0  0  0  0  0  0  0  0
   -3.5652   -0.9596    1.3560 C   0  0  0  0  0  0  0  0  0  0  0  0
  1 10  1  0
  2 12  1  0
  2 15  1  0
  3 10  1  0
  4  5  1  0
  4  7  1  0
  4 10  1  0
  5  6  1  0
  6  8  1  0
  7  9  2  0
  7 11  1  0
  8  9  1  0
  9 12  1  0
 11 13  2  0
 12 14  2  0
 13 14  1  0
M  END
>  <PUBCHEM_COMPOUND_CID>  (1) 
44717

>  <PUBCHEM_CONFORMER_RMSD>  (1) 
0.6

>  <PUBCHEM_CONFORMER_DIVERSEORDER>  (1) 
1
7
12
13
8
15
2
10
16
5
3
4
9
14
11
6

>  <PUBCHEM_MMFF94_PARTIAL_CHARGES>  (1) 
19
1 -0.68
10 0.55
11 -0.15
12 0.08
13 -0.15
14 -0.15
15 0.28
2 -0.36
24 0.15
25 0.15
26 0.15
27 0.36
28 0.36
29 0.4
3 -0.99
4 0.14
7 -0.14
8 0.14
9 -0.14

>  <PUBCHEM_EFFECTIVE_ROTOR_COUNT>  (1) 
2.8

>  <PUBCHEM_PHARMACOPHORE_FEATURES>  (1) 
7
1 1 acceptor
1 1 donor
1 2 acceptor
1 3 cation
1 3 donor
6 4 5 6 7 8 9 rings
6 7 9 11 12 13 14 rings

>  <PUBCHEM_HEAVY_ATOM_COUNT>  (1) 
15

>  <PUBCHEM_ATOM_DEF_STEREO_COUNT>  (1) 
0

>  <PUBCHEM_ATOM_UDEF_STEREO_COUNT>  (1) 
2

>  <PUBCHEM_BOND_DEF_STEREO_COUNT>  (1) 
0

>  <PUBCHEM_BOND_UDEF_STEREO_COUNT>  (1) 
0

>  <PUBCHEM_ISOTOPIC_ATOM_COUNT>  (1) 
0

>  <PUBCHEM_COMPONENT_COUNT>  (1) 
1

>  <PUBCHEM_CACTVS_TAUTO_COUNT>  (1) 
1

>  <PUBCHEM_CONFORMER_ID>  (1) 
0000AEAD00000001

>  <PUBCHEM_MMFF94_ENERGY>  (1) 
43.8205

>  <PUBCHEM_FEATURE_SELFOVERLAP>  (1) 
35.576

>  <PUBCHEM_SHAPE_FINGERPRINT>  (1) 
10857977 72 18335138700267902977
10967382 1 18194122047401390493
11132069 177 18271235122973771298
11471102 22 18336561485467760347
11680986 33 18122627149892766351
12382932 28 18336829693295826681
12524768 44 18050004394309666901
13140716 1 18050292762582423451
13172582 1 18338520866685762447
13380535 21 18124043333775479076
13380535 76 18193545675654089652
13897977 150 18195521498154912549
14614273 12 18116707426760587109
14648413 74 17908140979966546886
15219456 202 18268712718624308342
15309172 13 18341335569129243907
15775835 57 18130786733056583342
15852999 172 17681804355473699605
16945 1 18411133683851552885
17844478 74 18410862044371133369
18380122 1 18411423873480560767
193761 8 18050286959960241783
20510252 161 18343301465960782408
20511035 2 18051409569916763773
20871998 184 18410009935744625941
20871998 22 18336001799995497267
21061003 4 18342459278835134169
21501502 16 18195521485143130644
22344851 341 18119811309198867346
22802520 49 18053112726286898599
2334 1 18338235955598052191
23388829 49 18339920523739866997
23402539 116 18341037605672922503
23419403 2 16034305865115677002
23463225 33 18334293158661974982
23493267 7 17895469228731402056
23559900 14 18191021205958263070
2748010 2 18266180539266844543
43471831 8 18261950752442481858
53812653 166 18271242720776374528
568465 68 18197796564027791859
7364860 26 17912077253306419406
81228 2 17695603531503533310
8809292 202 17974577892170229455

>  <PUBCHEM_SHAPE_MULTIPOLES>  (1) 
291.97
5.06
2.4
0.97
0.64
0.07
-0.34
0.2
-1.68
-0.52
0.44
0
0.04
0.78

>  <PUBCHEM_SHAPE_SELFOVERLAP>  (1) 
613.735

>  <PUBCHEM_SHAPE_VOLUME>  (1) 
162.8

>  <PUBCHEM_COORDINATE_TYPE>  (1) 
2
5
10

$$$$
