44710
     RDKit          3D

 19 20  0  0  1  0  0  0  0  0999 V2000
    3.4073   -1.7004   -0.8633 O   0  0  0  0  0  0  0  0  0  0  0  0
   -2.4913   -2.4804    0.3281 N   0  0  0  0  0  0  0  0  0  0  0  0
   -0.8724    0.7868   -0.8285 C   0  0  0  0  0  0  0  0  0  0  0  0
   -1.7096    1.7438    0.0976 C   0  0  0  0  0  0  0  0  0  0  0  0
   -0.8641    2.9239    0.5904 C   0  0  0  0  0  0  0  0  0  0  0  0
    0.5396    0.5375   -0.2564 C   0  0  0  0  0  0  0  0  0  0  0  0
   -1.6416   -0.5551   -0.9398 C   0  0  0  0  0  0  0  0  0  0  0  0
    0.2842    2.4212    1.4493 C   0  0  0  0  0  0  0  0  0  0  0  0
    1.0691    1.3203    0.7903 C   0  0  0  0  0  0  0  0  0  0  0  0
   -0.7100    1.3720   -2.2511 C   0  0  0  0  0  0  0  0  0  0  0  0
   -2.9996    2.2891   -0.5314 C   0  0  0  0  0  0  0  0  0  0  0  0
   -1.8076   -1.2194    0.4095 C   0  0  0  0  0  0  0  0  0  0  0  0
    1.3627   -0.4690   -0.8048 C   0  0  0  0  0  0  0  0  0  0  0  0
    2.3593    1.0535    1.2854 C   0  0  0  0  0  0  0  0  0  0  0  0
    2.6464   -0.7150   -0.3139 C   0  0  0  0  0  0  0  0  0  0  0  0
    3.1434    0.0435    0.7362 C   0  0  0  0  0  0  0  0  0  0  0  0
   -3.8428   -2.3230   -0.2327 C   0  0  0  0  0  0  0  0  0  0  0  0
   -2.5807   -3.1287    1.6462 C   0  0  0  0  0  0  0  0  0  0  0  0
    4.7076   -1.9007   -0.3112 C   0  0  0  0  0  0  0  0  0  0  0  0
  1 15  1  0
  1 19  1  0
  2 12  1  0
  2 17  1  0
  2 18  1  0
  3  4  1  0
  3  6  1  0
  3  7  1  0
  3 10  1  0
  4  5  1  0
  4 11  1  0
  5  8  1  0
  6  9  2  0
  6 13  1  0
  7 12  1  0
  8  9  1  0
  9 14  1  0
 13 15  2  0
 14 16  2  0
 15 16  1  0
M  END
>  <PUBCHEM_COMPOUND_CID>  (1) 
44710

>  <PUBCHEM_CONFORMER_RMSD>  (1) 
0.6

>  <PUBCHEM_CONFORMER_DIVERSEORDER>  (1) 
1
24
18
8
32
35
30
12
25
7
28
33
29
4
34
3
31
20
27
2
19
14
23
16
10
5
17
6
22
21
15
13
9
26
11

>  <PUBCHEM_MMFF94_PARTIAL_CHARGES>  (1) 
17
1 -0.36
12 0.27
13 -0.15
14 -0.15
15 0.08
16 -0.15
17 0.27
18 0.27
19 0.28
2 -0.81
3 0.14
35 0.15
36 0.15
37 0.15
6 -0.14
8 0.14
9 -0.14

>  <PUBCHEM_EFFECTIVE_ROTOR_COUNT>  (1) 
4.8

>  <PUBCHEM_PHARMACOPHORE_FEATURES>  (1) 
4
1 1 acceptor
1 2 cation
6 3 4 5 6 8 9 rings
6 6 9 13 14 15 16 rings

>  <PUBCHEM_HEAVY_ATOM_COUNT>  (1) 
19

>  <PUBCHEM_ATOM_DEF_STEREO_COUNT>  (1) 
0

>  <PUBCHEM_ATOM_UDEF_STEREO_COUNT>  (1) 
2

>  <PUBCHEM_BOND_DEF_STEREO_COUNT>  (1) 
0

>  <PUBCHEM_BOND_UDEF_STEREO_COUNT>  (1) 
0

>  <PUBCHEM_ISOTOPIC_ATOM_COUNT>  (1) 
0

>  <PUBCHEM_COMPONENT_COUNT>  (1) 
1

>  <PUBCHEM_CACTVS_TAUTO_COUNT>  (1) 
1

>  <PUBCHEM_CONFORMER_ID>  (1) 
0000AEA600000001

>  <PUBCHEM_MMFF94_ENERGY>  (1) 
70.2983

>  <PUBCHEM_FEATURE_SELFOVERLAP>  (1) 
20.317

>  <PUBCHEM_SHAPE_FINGERPRINT>  (1) 
10764073 3 13101191587988186446
11322862 65 18336541599890395151
11471102 22 17987226910169590648
11578080 2 12693455593566312300
11680986 33 18201987825022811448
12506688 2 18265899248747094866
12633257 1 17844833450113506907
13140716 1 18202282472595302928
13631057 29 18334862706292668738
14004458 79 16519018200167393029
14115302 16 18265623082761457956
14790565 3 17404020813055412745
14817 1 10145448171949640981
14863182 85 17181943674805599923
15422964 175 18270110344143141880
16945 1 18188760639673429452
17357779 13 18265319772065571415
20600515 1 17533477170401185567
20645476 183 18045223734642133788
21452121 199 17754175602446440967
23419403 2 17467872661530647309
23526113 38 18124564652848205789
23557571 272 18187915235843973804
23559900 14 18198054782463794082
2748010 2 18131056156661386820
31174 14 18057317503538198002
3759504 43 17977392637568717196
6443956 14 18120933065005841351
81228 2 18260543450767986093
8809292 202 18270678645689071776
9709674 26 18271511044610723596
9981440 41 16909410850007197712

>  <PUBCHEM_SHAPE_MULTIPOLES>  (1) 
380.16
6.15
3.66
1.51
4.02
0.7
0.18
5.56
0.14
-3.1
-1.21
-0.2
-0.26
1.69

>  <PUBCHEM_SHAPE_SELFOVERLAP>  (1) 
783.126

>  <PUBCHEM_SHAPE_VOLUME>  (1) 
220.3

>  <PUBCHEM_COORDINATE_TYPE>  (1) 
2
5
10

$$$$
