44715
     RDKit          3D

 19 21  0  0  1  0  0  0  0  0999 V2000
    0.7753    1.7487   -1.5034 O   0  0  0  0  0  0  0  0  0  0  0  0
    2.6805    0.3778    0.1711 N   0  0  0  0  0  0  0  0  0  0  0  0
    2.8397   -0.8790   -0.5738 C   0  0  0  0  0  0  0  0  0  0  0  0
    3.5516    0.4079    1.3545 C   0  0  0  0  0  0  0  0  0  0  0  0
    4.2869   -1.0705   -1.0304 C   0  0  0  0  0  0  0  0  0  0  0  0
    5.0219    0.2583    0.9611 C   0  0  0  0  0  0  0  0  0  0  0  0
    5.2524   -1.0104    0.1477 C   0  0  0  0  0  0  0  0  0  0  0  0
    1.2833    0.5690    0.5595 C   0  0  0  0  0  0  0  0  0  0  0  0
    0.3803    0.6544   -0.6771 C   0  0  0  0  0  0  0  0  0  0  0  0
   -1.0693    0.8522   -0.2919 C   0  0  0  0  0  0  0  0  0  0  0  0
   -1.9331   -0.2317   -0.1212 C   0  0  0  0  0  0  0  0  0  0  0  0
   -1.4964    2.1615   -0.1178 C   0  0  0  0  0  0  0  0  0  0  0  0
   -3.2786    0.0201    0.2388 C   0  0  0  0  0  0  0  0  0  0  0  0
   -1.5057   -1.5579   -0.2961 C   0  0  0  0  0  0  0  0  0  0  0  0
   -2.8194    2.4092    0.2359 C   0  0  0  0  0  0  0  0  0  0  0  0
   -3.7058    1.3465    0.4135 C   0  0  0  0  0  0  0  0  0  0  0  0
   -4.1568   -1.0620    0.4135 C   0  0  0  0  0  0  0  0  0  0  0  0
   -2.3920   -2.6206   -0.1190 C   0  0  0  0  0  0  0  0  0  0  0  0
   -3.7149   -2.3733    0.2352 C   0  0  0  0  0  0  0  0  0  0  0  0
  1  9  1  0
  2  3  1  0
  2  4  1  0
  2  8  1  0
  3  5  1  0
  4  6  1  0
  5  7  1  0
  6  7  1  0
  8  9  1  0
  9 10  1  0
 10 11  1  0
 10 12  2  0
 11 13  2  0
 11 14  1  0
 12 15  1  0
 13 16  1  0
 13 17  1  0
 14 18  2  0
 15 16  2  0
 17 19  2  0
 18 19  1  0
M  END
>  <PUBCHEM_COMPOUND_CID>  (1) 
44715

>  <PUBCHEM_CONFORMER_RMSD>  (1) 
0.6

>  <PUBCHEM_CONFORMER_DIVERSEORDER>  (1) 
1
5
21
27
20
8
7
4
6
15
22
23
26
9
25
14
12
13
2
24
10
3
28
11
17
19
16
18

>  <PUBCHEM_MMFF94_PARTIAL_CHARGES>  (1) 
22
1 -0.68
10 -0.14
12 -0.15
14 -0.15
15 -0.15
16 -0.15
17 -0.15
18 -0.15
19 -0.15
2 -0.81
3 0.27
33 0.15
34 0.4
35 0.15
36 0.15
37 0.15
38 0.15
39 0.15
4 0.27
40 0.15
8 0.27
9 0.42

>  <PUBCHEM_EFFECTIVE_ROTOR_COUNT>  (1) 
4.2

>  <PUBCHEM_PHARMACOPHORE_FEATURES>  (1) 
6
1 1 acceptor
1 1 donor
1 2 cation
6 10 11 12 13 15 16 rings
6 11 13 14 17 18 19 rings
6 2 3 4 5 6 7 rings

>  <PUBCHEM_HEAVY_ATOM_COUNT>  (1) 
19

>  <PUBCHEM_ATOM_DEF_STEREO_COUNT>  (1) 
0

>  <PUBCHEM_ATOM_UDEF_STEREO_COUNT>  (1) 
1

>  <PUBCHEM_BOND_DEF_STEREO_COUNT>  (1) 
0

>  <PUBCHEM_BOND_UDEF_STEREO_COUNT>  (1) 
0

>  <PUBCHEM_ISOTOPIC_ATOM_COUNT>  (1) 
0

>  <PUBCHEM_COMPONENT_COUNT>  (1) 
1

>  <PUBCHEM_CACTVS_TAUTO_COUNT>  (1) 
1

>  <PUBCHEM_CONFORMER_ID>  (1) 
0000AEAB00000001

>  <PUBCHEM_MMFF94_ENERGY>  (1) 
45.2606

>  <PUBCHEM_FEATURE_SELFOVERLAP>  (1) 
30.472

>  <PUBCHEM_SHAPE_FINGERPRINT>  (1) 
10319926 262 18269538482866006322
10369192 42 17843393241023360904
105312 117 17824248307756530101
10616163 171 18410295795988869366
11045977 3 18131066013748260376
11046707 91 18260263066296250265
11370993 144 17632306626823979122
11405975 8 18271522005831220760
11552529 35 17346029103540479951
12236239 1 17531252742097676820
12346177 29 18410284809572666255
12500047 106 18340202964715252676
12507560 40 18060136544283581784
12553582 1 17749105599527262058
12633257 1 17845946215925741465
13140716 1 18266184009974894475
13544592 145 18056206778157072318
13583140 156 17560791156722765376
13675066 3 17988921171994635072
13862211 1 18339644559802860879
14178342 30 18336261258711255866
14341114 176 18344149194095090600
14420673 8 18195811756873090874
15042514 8 18409455812771794267
15099037 37 18412822503694596374
15209289 33 18113901571685952330
15375358 24 17988640749232223078
15537594 2 17822295630723636770
17349148 13 16515676724643988640
17804303 29 18413111658062347589
17834074 16 18342457019708430714
17844677 252 18413394241726443232
1813 80 17676489462409729188
19141452 34 18410294687913089677
193927 3 18042133205283537619
200 152 15502372305722109396
20281475 54 18260263023916315454
20510252 161 18273215262101421361
20600515 1 18200326428398818213
21033648 29 17418079997581959296
21065198 57 18343580716418389440
21065199 12 18201997742238889312
21065201 7 18338513045887946314
21267235 1 18335428997260738859
21650355 55 18411980278252378849
21673915 165 18409445890965200602
2297311 6 18342186574165414868
23175994 123 17203892937683999120
23366157 5 17824830180951131572
23402539 116 17022901212529557948
23557571 272 18272094893705955314
23559900 14 18272091544311979116
23598291 2 17967825971531312844
26918003 58 18060415781861769954
2748010 2 17976558113344940885
2838139 119 14907345123121340025
312423 11 18041292065760566484
4214541 1 18413107238788939520
4325135 7 18260830449568784636
5104073 3 18271800203853406042
58807428 26 18266189335829371715
5924683 9 17917702556784360391
59755656 215 18410855422217696687
602551 16 18409728457021619602
7970288 3 18120091934121135571
9709674 26 18201440246656881998

>  <PUBCHEM_SHAPE_MULTIPOLES>  (1) 
380.16
10.25
2.52
1
10.82
0.33
0.04
3.14
-2.1
-3.22
0.17
0.86
-0.17
0.5

>  <PUBCHEM_SHAPE_SELFOVERLAP>  (1) 
814.46

>  <PUBCHEM_SHAPE_VOLUME>  (1) 
211.2

>  <PUBCHEM_COORDINATE_TYPE>  (1) 
2
5
10

$$$$
