44727
     RDKit          3D

 23 25  0  0  1  0  0  0  0  0999 V2000
   -0.0173    1.1830   -2.1509 O   0  0  0  0  0  0  0  0  0  0  0  0
   -3.7141    0.4193    0.9014 N   0  0  0  0  0  0  0  0  0  0  0  0
    1.2943    2.5082   -0.7573 N   0  0  0  0  0  0  0  0  0  0  0  0
    0.5089    0.3759    0.0543 C   0  0  0  0  0  0  0  0  0  0  0  0
   -0.0391    1.1130    1.3051 C   0  0  0  0  0  0  0  0  0  0  0  0
   -2.3082    0.0649    1.1297 C   0  0  0  0  0  0  0  0  0  0  0  0
   -1.5331    1.3844    1.1891 C   0  0  0  0  0  0  0  0  0  0  0  0
   -0.4203   -0.7668   -0.3918 C   0  0  0  0  0  0  0  0  0  0  0  0
   -1.7360   -0.9051    0.1077 C   0  0  0  0  0  0  0  0  0  0  0  0
    1.9274   -0.1152    0.4197 C   0  0  0  0  0  0  0  0  0  0  0  0
    0.5478    1.3879   -1.0800 C   0  0  0  0  0  0  0  0  0  0  0  0
    0.0422   -1.6920   -1.3546 C   0  0  0  0  0  0  0  0  0  0  0  0
   -2.5028   -2.0138   -0.3052 C   0  0  0  0  0  0  0  0  0  0  0  0
    2.0908   -1.0401    1.4431 C   0  0  0  0  0  0  0  0  0  0  0  0
    3.0233    0.3741   -0.2797 C   0  0  0  0  0  0  0  0  0  0  0  0
   -3.8700    1.0502   -0.4064 C   0  0  0  0  0  0  0  0  0  0  0  0
   -4.1905    1.3039    1.9613 C   0  0  0  0  0  0  0  0  0  0  0  0
   -0.7473   -2.7605   -1.7732 C   0  0  0  0  0  0  0  0  0  0  0  0
   -2.0163   -2.9278   -1.2392 C   0  0  0  0  0  0  0  0  0  0  0  0
    3.3718   -1.4836    1.7726 C   0  0  0  0  0  0  0  0  0  0  0  0
    4.3043   -0.0692    0.0499 C   0  0  0  0  0  0  0  0  0  0  0  0
    4.4786   -0.9983    1.0759 C   0  0  0  0  0  0  0  0  0  0  0  0
    1.5057    3.6075   -1.6714 C   0  0  0  0  0  0  0  0  0  0  0  0
  1 11  2  0
  2  6  1  0
  2 16  1  0
  2 17  1  0
  3 11  1  0
  3 23  1  0
  4  5  1  0
  4  8  1  0
  4 10  1  0
  4 11  1  0
  5  7  1  0
  6  7  1  0
  6  9  1  0
  8  9  2  0
  8 12  1  0
  9 13  1  0
 10 14  2  0
 10 15  1  0
 12 18  2  0
 13 19  2  0
 14 20  1  0
 15 21  2  0
 18 19  1  0
 20 22  2  0
 21 22  1  0
M  END
>  <PUBCHEM_COMPOUND_CID>  (1) 
44727

>  <PUBCHEM_CONFORMER_RMSD>  (1) 
0.8

>  <PUBCHEM_CONFORMER_DIVERSEORDER>  (1) 
1
2
6
5
3
7
4

>  <PUBCHEM_MMFF94_PARTIAL_CHARGES>  (1) 
31
1 -0.57
10 -0.14
11 0.57
12 -0.15
13 -0.15
14 -0.15
15 -0.15
16 0.27
17 0.27
18 -0.15
19 -0.15
2 -0.81
20 -0.15
21 -0.15
22 -0.15
23 0.3
29 0.15
3 -0.73
30 0.15
31 0.15
32 0.15
39 0.15
4 0.35
40 0.15
41 0.37
42 0.15
43 0.15
44 0.15
6 0.41
8 -0.14
9 -0.14

>  <PUBCHEM_EFFECTIVE_ROTOR_COUNT>  (1) 
4.8

>  <PUBCHEM_PHARMACOPHORE_FEATURES>  (1) 
6
1 1 acceptor
1 2 cation
1 3 donor
6 10 14 15 20 21 22 rings
6 4 5 6 7 8 9 rings
6 8 9 12 13 18 19 rings

>  <PUBCHEM_HEAVY_ATOM_COUNT>  (1) 
23

>  <PUBCHEM_ATOM_DEF_STEREO_COUNT>  (1) 
2

>  <PUBCHEM_ATOM_UDEF_STEREO_COUNT>  (1) 
0

>  <PUBCHEM_BOND_DEF_STEREO_COUNT>  (1) 
0

>  <PUBCHEM_BOND_UDEF_STEREO_COUNT>  (1) 
0

>  <PUBCHEM_ISOTOPIC_ATOM_COUNT>  (1) 
0

>  <PUBCHEM_COMPONENT_COUNT>  (1) 
1

>  <PUBCHEM_CACTVS_TAUTO_COUNT>  (1) 
2

>  <PUBCHEM_CONFORMER_ID>  (1) 
0000AEB700000001

>  <PUBCHEM_MMFF94_ENERGY>  (1) 
88.6456

>  <PUBCHEM_FEATURE_SELFOVERLAP>  (1) 
30.465

>  <PUBCHEM_SHAPE_FINGERPRINT>  (1) 
10756046 70 18336835272263185029
10759866 29 18048038759761595791
10863032 1 18058446676342138552
11421498 54 17327177057865214167
11578080 2 18050813849405837996
11640471 11 18121517991995680093
12236239 1 18409167718501511330
12293681 160 16827563423763486269
12403814 3 18187916236249347098
12422481 6 17834402224260308113
12553582 1 18040988532433236426
12633257 1 17917422091066604554
12716301 132 17488480722038791703
12788726 201 17912088549065535711
13009979 54 18197775715998476438
13134695 92 18040436572831990925
13140716 1 18201720712505864131
133893 2 17534045648088533380
13538477 17 18272082825222465194
13583140 156 17822299006773458137
14223421 5 17270580697283390466
14943834 7 18122907795951429260
14955137 171 18265640760646076274
15852999 172 17417823811367535703
16752209 62 17988074616581922135
16945 1 18201715111446549138
17349148 13 18202557393710298231
17980427 23 18060131072253017389
1813 80 18260551117364114342
20600515 1 17561093517804060544
20691752 17 17977403645633050987
20739085 24 17837521577529627521
20905425 154 16911713347746265009
21033648 29 18129367225049272969
21330990 113 17983311326178268046
22112679 90 18410289250811573118
22182313 1 17906465324768270157
23184049 29 17628060506302111483
23184049 59 18337675213199792201
23419403 2 17191445491073377484
23526113 38 15430856813644905882
23557571 272 17131284557214092159
23559900 14 17560814221155886028
23598288 3 18126016089849111071
23598291 2 18263932209586306772
25147074 1 18268435818204408269
25222932 49 16963274950438439531
266924 1 18050852422416699389
266924 78 17533779570142200822
2748010 2 17764042272102218389
34934 24 18260543416376807240
352729 6 18129956666729817915
394222 165 18048634608795869897
427121 178 17202502012762514387
465052 167 18261407636995810339
474 4 17826793939115198596
5845 1 13843100244501031518
6992083 37 18410851062108141455
77492 1 18337111271346490626
90316 7 18263063458430817426

>  <PUBCHEM_SHAPE_MULTIPOLES>  (1) 
457.5
6.72
3.12
1.96
1.5
0.23
-0.11
-0.07
3.54
-0.66
-2.11
-0.06
0.34
-2.39

>  <PUBCHEM_SHAPE_SELFOVERLAP>  (1) 
989.125

>  <PUBCHEM_SHAPE_VOLUME>  (1) 
250.2

>  <PUBCHEM_COORDINATE_TYPE>  (1) 
2
5
10

$$$$
