4473
     RDKit          3D

 35 37  0  0  1  0  0  0  0  0999 V2000
   -1.0851    0.2179   -1.7092 O   0  0  0  0  0  0  0  0  0  0  0  0
    4.6970   -0.9186   -0.4738 O   0  0  0  0  0  0  0  0  0  0  0  0
    0.1802   -0.4725   -3.5208 O   0  0  0  0  0  0  0  0  0  0  0  0
    4.2768   -1.2394    1.7800 O   0  0  0  0  0  0  0  0  0  0  0  0
    1.6432    5.0989    1.0968 O   0  0  0  0  0  0  0  0  0  0  0  0
    2.7405    4.2986   -0.6279 O   0  0  0  0  0  0  0  0  0  0  0  0
   -3.1975    1.8199   -0.6457 N   0  0  0  0  0  0  0  0  0  0  0  0
    0.9438   -3.3333   -0.1677 N   0  0  0  0  0  0  0  0  0  0  0  0
    1.9900    4.1401    0.3652 N   0  0  0  0  0  0  0  0  0  0  0  0
    1.8270   -0.6906   -0.6875 C   0  0  0  0  0  0  0  0  0  0  0  0
    0.5868   -1.3087   -1.3406 C   0  0  0  0  0  0  0  0  0  0  0  0
   -3.2629    1.2054   -1.9955 C   0  0  0  0  0  0  0  0  0  0  0  0
    2.6295   -1.7003    0.1393 C   0  0  0  0  0  0  0  0  0  0  0  0
   -4.3774    1.4482    0.2179 C   0  0  0  0  0  0  0  0  0  0  0  0
    1.4277    0.4738    0.1725 C   0  0  0  0  0  0  0  0  0  0  0  0
    0.1903   -2.5666   -1.0418 C   0  0  0  0  0  0  0  0  0  0  0  0
    2.1546   -2.9431    0.3816 C   0  0  0  0  0  0  0  0  0  0  0  0
   -1.8598    1.0747   -2.5545 C   0  0  0  0  0  0  0  0  0  0  0  0
   -3.0086    3.3158   -0.6981 C   0  0  0  0  0  0  0  0  0  0  0  0
   -0.1116   -0.4829   -2.3391 C   0  0  0  0  0  0  0  0  0  0  0  0
   -4.2745    0.0652    0.7904 C   0  0  0  0  0  0  0  0  0  0  0  0
    1.8909    1.7547   -0.1280 C   0  0  0  0  0  0  0  0  0  0  0  0
   -1.0367   -3.2460   -1.5873 C   0  0  0  0  0  0  0  0  0  0  0  0
    0.5929    0.2741    1.2720 C   0  0  0  0  0  0  0  0  0  0  0  0
    3.9556   -1.2641    0.6062 C   0  0  0  0  0  0  0  0  0  0  0  0
    2.8381   -3.9903    1.2190 C   0  0  0  0  0  0  0  0  0  0  0  0
    1.5192    2.8359    0.6709 C   0  0  0  0  0  0  0  0  0  0  0  0
    0.2212    1.3554    2.0710 C   0  0  0  0  0  0  0  0  0  0  0  0
   -4.7963   -1.0210    0.0877 C   0  0  0  0  0  0  0  0  0  0  0  0
   -3.6575   -0.1344    2.0252 C   0  0  0  0  0  0  0  0  0  0  0  0
    0.6844    2.6363    1.7703 C   0  0  0  0  0  0  0  0  0  0  0  0
   -4.7007   -2.3067    0.6198 C   0  0  0  0  0  0  0  0  0  0  0  0
   -3.5619   -1.4204    2.5573 C   0  0  0  0  0  0  0  0  0  0  0  0
   -4.0835   -2.5066    1.8547 C   0  0  0  0  0  0  0  0  0  0  0  0
    6.0241   -0.4696   -0.1805 C   0  0  0  0  0  0  0  0  0  0  0  0
  1 18  1  0
  1 20  1  0
  2 25  1  0
  2 35  1  0
  3 20  2  0
  4 25  2  0
  5  9  1  0
  6  9  2  0
  7 12  1  0
  7 14  1  0
  7 19  1  0
  8 16  1  0
  8 17  1  0
  9 27  1  0
 10 11  1  0
 10 13  1  0
 10 15  1  0
 11 16  2  0
 11 20  1  0
 12 18  1  0
 13 17  2  0
 13 25  1  0
 14 21  1  0
 15 22  2  0
 15 24  1  0
 16 23  1  0
 17 26  1  0
 21 29  2  0
 21 30  1  0
 22 27  1  0
 24 28  2  0
 27 31  2  0
 28 31  1  0
 29 32  1  0
 30 33  2  0
 32 34  2  0
 33 34  1  0
M  CHG  3   5  -1   7   1   9   1
M  END
>  <PUBCHEM_COMPOUND_CID>  (1) 
4473

>  <PUBCHEM_CONFORMER_RMSD>  (1) 
1.2

>  <PUBCHEM_CONFORMER_DIVERSEORDER>  (1) 
3
38
93
76
123
192
132
100
175
92
84
246
174
80
181
143
31
108
124
171
161
244
240
16
112
172
233
219
196
114
212
55
245
226
220
17
188
238
157
139
146
237
213
32
97
85
109
151
71
189
99
164
176
10
149
185
58
201
229
90
102
145
95
205
214
206
34
234
218
107
221
96
223
239
23
52
241
128
44
190
119
200
63
222
165
111
126
75
57
138
203
236
227
122
134
127
22
72
81
11
50
70
207
5
169
140
182
118
153
202
142
19
51
117
179
101
215
208
148
36
131
110
83
82
8
136
170
116
167
216
160
197
231
45
209
186
7
195
61
41
39
191
228
137
46
155
211
247
43
158
225
4
198
178
130
6
86
199
163
103
230
156
40
232
217
204
37
162
53
2
14
166
73
154
125
235
26
173
18
243
242
60
64
66
94
184
65
28
98
152
177
91
106
113
135
159
141
224
180
87
150
69
67
133
79
56
210
35
187
29
15
183
20
168
74
115
47
33
120
193
13
144
77
9
68
30
78
89
59
49
25
12
88
121
42
21
147
27
104
194
62
48
129
54
105
24
1

>  <PUBCHEM_MMFF94_PARTIAL_CHARGES>  (1) 
46
1 -0.43
10 0.42
11 -0.12
12 0.5
13 -0.12
14 0.65
15 -0.14
16 -0.04
17 -0.04
18 0.28
19 0.5
2 -0.43
20 0.71
21 -0.14
22 -0.15
23 0.14
24 -0.15
25 0.71
26 0.14
27 0.13
28 -0.15
29 -0.15
3 -0.57
30 -0.15
31 -0.15
32 -0.15
33 -0.15
34 -0.15
35 0.28
37 0.45
4 -0.57
44 0.4
48 0.15
5 -0.52
52 0.15
56 0.15
57 0.15
58 0.15
59 0.15
6 -0.52
60 0.15
61 0.15
62 0.15
7 -0.96
8 -0.6
9 0.91

>  <PUBCHEM_EFFECTIVE_ROTOR_COUNT>  (1) 
11.4

>  <PUBCHEM_PHARMACOPHORE_FEATURES>  (1) 
12
1 3 acceptor
1 4 acceptor
1 5 acceptor
1 5 anion
1 6 acceptor
1 7 cation
1 7 donor
1 8 cation
1 8 donor
6 15 22 24 27 28 31 rings
6 21 29 30 32 33 34 rings
6 8 10 11 13 16 17 rings

>  <PUBCHEM_HEAVY_ATOM_COUNT>  (1) 
35

>  <PUBCHEM_ATOM_DEF_STEREO_COUNT>  (1) 
0

>  <PUBCHEM_ATOM_UDEF_STEREO_COUNT>  (1) 
1

>  <PUBCHEM_BOND_DEF_STEREO_COUNT>  (1) 
0

>  <PUBCHEM_BOND_UDEF_STEREO_COUNT>  (1) 
0

>  <PUBCHEM_ISOTOPIC_ATOM_COUNT>  (1) 
0

>  <PUBCHEM_COMPONENT_COUNT>  (1) 
1

>  <PUBCHEM_CACTVS_TAUTO_COUNT>  (1) 
3

>  <PUBCHEM_CONFORMER_ID>  (1) 
0000117900000003

>  <PUBCHEM_MMFF94_ENERGY>  (1) 
98.3359

>  <PUBCHEM_FEATURE_SELFOVERLAP>  (1) 
60.977

>  <PUBCHEM_SHAPE_FINGERPRINT>  (1) 
10006869 2 17769645731376862855
12293681 4 17833546795650271809
12633257 1 18271822211234266307
12788726 201 17330544354810538707
13583140 156 18408881832925833415
14020679 6 18122062005950301505
14040221 299 17630631091827550791
14840074 17 17560516196926651760
14955137 171 17846224349539324820
19315092 285 18129944623942629563
20511986 3 13624080938430571471
23559900 14 18114178666392178117
3493558 16 16952279704894330756
35225 105 17127043887284817301
4918855 1 18193566781540250444
56638632 10 18200021979899841992

>  <PUBCHEM_SHAPE_MULTIPOLES>  (1) 
670.12
9.24
5.41
2.56
1.12
4.01
0.99
-3.24
-3.05
-2.72
-1.23
1.63
-0.25
1.42

>  <PUBCHEM_SHAPE_SELFOVERLAP>  (1) 
1420.77

>  <PUBCHEM_SHAPE_VOLUME>  (1) 
374.4

>  <PUBCHEM_COORDINATE_TYPE>  (1) 
2
5
10

$$$$
