44743
     RDKit          3D

 24 25  0  0  0  0  0  0  0  0999 V2000
   -4.2867    0.0669   -0.5167 O   0  0  0  0  0  0  0  0  0  0  0  0
    2.1580    0.4016   -0.3576 N   0  0  0  0  0  0  0  0  0  0  0  0
    1.6801   -1.0567   -2.1985 N   0  0  0  0  0  0  0  0  0  0  0  0
    3.5984    0.4378   -0.5949 C   0  0  0  0  0  0  0  0  0  0  0  0
    1.6927    1.2154    0.7626 C   0  0  0  0  0  0  0  0  0  0  0  0
    4.3036   -0.6688    0.1848 C   0  0  0  0  0  0  0  0  0  0  0  0
    1.4812    2.6634    0.3286 C   0  0  0  0  0  0  0  0  0  0  0  0
    1.2709   -0.3144   -1.1940 C   0  0  0  0  0  0  0  0  0  0  0  0
   -0.1721   -0.2730   -0.9739 C   0  0  0  0  0  0  0  0  0  0  0  0
    5.8233   -0.6419    0.0040 C   0  0  0  0  0  0  0  0  0  0  0  0
    1.0373    3.5663    1.4823 C   0  0  0  0  0  0  0  0  0  0  0  0
   -0.8325   -1.1852   -0.1349 C   0  0  0  0  0  0  0  0  0  0  0  0
   -2.2342   -1.0828    0.0314 C   0  0  0  0  0  0  0  0  0  0  0  0
   -0.8833    0.7257   -1.6395 C   0  0  0  0  0  0  0  0  0  0  0  0
   -2.9342   -0.0713   -0.6464 C   0  0  0  0  0  0  0  0  0  0  0  0
    6.5016   -1.7133    0.8438 C   0  0  0  0  0  0  0  0  0  0  0  0
    0.8988    5.0128    1.0335 C   0  0  0  0  0  0  0  0  0  0  0  0
   -2.2618    0.8265   -1.4760 C   0  0  0  0  0  0  0  0  0  0  0  0
   -0.1326   -2.1968    0.5428 C   0  0  0  0  0  0  0  0  0  0  0  0
   -2.8948   -1.9949    0.8704 C   0  0  0  0  0  0  0  0  0  0  0  0
   -0.8051   -3.0944    1.3725 C   0  0  0  0  0  0  0  0  0  0  0  0
   -2.1835   -2.9937    1.5361 C   0  0  0  0  0  0  0  0  0  0  0  0
   -4.7614    1.3054    0.0032 C   0  0  0  0  0  0  0  0  0  0  0  0
   -6.0638    1.0656    0.7367 C   0  0  0  0  0  0  0  0  0  0  0  0
  1 15  1  0
  1 23  1  0
  2  4  1  0
  2  5  1  0
  2  8  1  0
  3  8  2  0
  4  6  1  0
  5  7  1  0
  6 10  1  0
  7 11  1  0
  8  9  1  0
  9 12  2  0
  9 14  1  0
 10 16  1  0
 11 17  1  0
 12 13  1  0
 12 19  1  0
 13 15  2  0
 13 20  1  0
 14 18  2  0
 15 18  1  0
 19 21  2  0
 20 22  2  0
 21 22  1  0
 23 24  1  0
M  END
>  <PUBCHEM_COMPOUND_CID>  (1) 
44743

>  <PUBCHEM_CONFORMER_RMSD>  (1) 
1

>  <PUBCHEM_CONFORMER_DIVERSEORDER>  (1) 
1
30
8
31
10
14
20
24
38
40
37
6
19
9
11
39
5
17
33
35
2
28
15
22
23
21
3
16
4
13
36
34
12
32
18
26
41
7
27
29
25

>  <PUBCHEM_MMFF94_PARTIAL_CHARGES>  (1) 
22
1 -0.36
14 -0.15
15 0.08
18 -0.15
19 -0.15
2 -0.79
20 -0.15
21 -0.15
22 -0.15
23 0.28
3 -0.85
37 0.15
4 0.37
44 0.15
45 0.15
46 0.15
47 0.4
48 0.15
49 0.15
5 0.37
8 0.41
9 0.09

>  <PUBCHEM_EFFECTIVE_ROTOR_COUNT>  (1) 
10

>  <PUBCHEM_PHARMACOPHORE_FEATURES>  (1) 
7
1 1 acceptor
1 16 hydrophobe
1 17 hydrophobe
1 3 donor
3 2 3 8 cation
6 12 13 19 20 21 22 rings
6 9 12 13 14 15 18 rings

>  <PUBCHEM_HEAVY_ATOM_COUNT>  (1) 
24

>  <PUBCHEM_ATOM_DEF_STEREO_COUNT>  (1) 
0

>  <PUBCHEM_ATOM_UDEF_STEREO_COUNT>  (1) 
0

>  <PUBCHEM_BOND_DEF_STEREO_COUNT>  (1) 
0

>  <PUBCHEM_BOND_UDEF_STEREO_COUNT>  (1) 
0

>  <PUBCHEM_ISOTOPIC_ATOM_COUNT>  (1) 
0

>  <PUBCHEM_COMPONENT_COUNT>  (1) 
1

>  <PUBCHEM_CACTVS_TAUTO_COUNT>  (1) 
1

>  <PUBCHEM_CONFORMER_ID>  (1) 
0000AEC700000001

>  <PUBCHEM_MMFF94_ENERGY>  (1) 
64.9708

>  <PUBCHEM_FEATURE_SELFOVERLAP>  (1) 
35.547

>  <PUBCHEM_SHAPE_FINGERPRINT>  (1) 
10165383 225 18114464466332312797
10906281 52 18201174190808027028
11221954 11 18127126609715437081
12236239 1 15410890734851689238
12293681 4 18342466915133901833
12403259 327 18408886256298900135
12507560 18 18409446964474435410
12549972 3 18191024714529605416
12633257 1 18409731772240396129
12788726 201 18196078951198762424
13140716 1 17968673738605078549
13583140 156 18123188167511967414
14028597 1 18191304871288927216
14223421 5 17760649565328140993
14466204 15 18341051813641184297
14866123 147 18040155128068024075
15042514 8 17676777564727296547
15131766 46 15910758511675816744
15238133 3 18340215106651362124
15295992 7 18339644550563631713
17804303 29 18187083996468923270
17980427 23 12751238142410251050
18393751 57 16611656736069179208
18769570 83 18059013878297443289
20600515 1 18335433334993072668
21033648 29 17560220531884365322
21475661 188 18343299288966426601
23175994 123 18343584049344581772
23559900 14 17969777682032572534
24893992 56 18411139109645981281
392239 28 18268732614015416273
5104073 3 18113899424729571640
5265222 85 17896054255603143958
57527306 92 17774431673464110649
6086070 43 18267559383273767141
7226269 152 18339356354121514164
81228 2 17985568666668790760
9981440 41 17050454127275679745

>  <PUBCHEM_SHAPE_MULTIPOLES>  (1) 
478.08
10.44
4.29
1.57
6.1
4.68
-0.32
-2.25
1.83
0.59
3.39
-0.14
-0.04
1

>  <PUBCHEM_SHAPE_SELFOVERLAP>  (1) 
981.698

>  <PUBCHEM_SHAPE_VOLUME>  (1) 
276.8

>  <PUBCHEM_COORDINATE_TYPE>  (1) 
2
5
10

$$$$
