44741
     RDKit          3D

 27 29  0  0  0  0  0  0  0  0999 V2000
    4.3196   -0.1992    1.8315 O   0  0  0  0  0  0  0  0  0  0  0  0
   -0.9821   -4.5223   -0.7503 O   0  0  0  0  0  0  0  0  0  0  0  0
   -1.6895    0.9695   -0.2342 N   0  0  0  0  0  0  0  0  0  0  0  0
   -0.8737    3.1248    0.3625 N   0  0  0  0  0  0  0  0  0  0  0  0
   -2.9806    1.5039   -0.6762 C   0  0  0  0  0  0  0  0  0  0  0  0
   -4.0038    1.4521    0.4551 C   0  0  0  0  0  0  0  0  0  0  0  0
   -0.6557    1.8306    0.2138 C   0  0  0  0  0  0  0  0  0  0  0  0
    0.6629    1.3124    0.5670 C   0  0  0  0  0  0  0  0  0  0  0  0
   -5.3837    1.9579    0.0265 C   0  0  0  0  0  0  0  0  0  0  0  0
    1.7154    1.2365   -0.3597 C   0  0  0  0  0  0  0  0  0  0  0  0
   -1.5088   -0.4365   -0.3661 C   0  0  0  0  0  0  0  0  0  0  0  0
    2.9674    0.7237    0.0554 C   0  0  0  0  0  0  0  0  0  0  0  0
    0.8424    0.8891    1.8842 C   0  0  0  0  0  0  0  0  0  0  0  0
    3.1301    0.3021    1.3851 C   0  0  0  0  0  0  0  0  0  0  0  0
   -6.3961    1.8325    1.1545 C   0  0  0  0  0  0  0  0  0  0  0  0
    1.5527    1.6580   -1.6895 C   0  0  0  0  0  0  0  0  0  0  0  0
    2.0736    0.3848    2.2925 C   0  0  0  0  0  0  0  0  0  0  0  0
   -1.0549   -0.9577   -1.5703 C   0  0  0  0  0  0  0  0  0  0  0  0
   -1.7880   -1.2665    0.7110 C   0  0  0  0  0  0  0  0  0  0  0  0
    4.0199    0.6477   -0.8713 C   0  0  0  0  0  0  0  0  0  0  0  0
    2.6093    1.5754   -2.5968 C   0  0  0  0  0  0  0  0  0  0  0  0
    3.8406    1.0712   -2.1885 C   0  0  0  0  0  0  0  0  0  0  0  0
   -0.8769   -2.3352   -1.6996 C   0  0  0  0  0  0  0  0  0  0  0  0
   -1.6098   -2.6439    0.5818 C   0  0  0  0  0  0  0  0  0  0  0  0
   -1.1544   -3.1783   -0.6235 C   0  0  0  0  0  0  0  0  0  0  0  0
    4.5099   -1.6064    1.7166 C   0  0  0  0  0  0  0  0  0  0  0  0
   -1.2859   -5.3264    0.3885 C   0  0  0  0  0  0  0  0  0  0  0  0
  1 14  1  0
  1 26  1  0
  2 25  1  0
  2 27  1  0
  3  5  1  0
  3  7  1  0
  3 11  1  0
  4  7  2  0
  5  6  1  0
  6  9  1  0
  7  8  1  0
  8 10  1  0
  8 13  2  0
  9 15  1  0
 10 12  2  0
 10 16  1  0
 11 18  2  0
 11 19  1  0
 12 14  1  0
 12 20  1  0
 13 17  1  0
 14 17  2  0
 16 21  2  0
 18 23  1  0
 19 24  2  0
 20 22  2  0
 21 22  1  0
 23 25  2  0
 24 25  1  0
M  END
>  <PUBCHEM_COMPOUND_CID>  (1) 
44741

>  <PUBCHEM_CONFORMER_RMSD>  (1) 
1

>  <PUBCHEM_CONFORMER_DIVERSEORDER>  (1) 
2
36
38
21
37
1
44
33
45
8
3
47
22
43
27
41
14
16
29
32
24
18
5
19
39
48
28
12
13
11
31
4
35
9
42
40
6
7
46
17
15
34
25
23
20
30
10
26

>  <PUBCHEM_MMFF94_PARTIAL_CHARGES>  (1) 
33
1 -0.36
11 0.1
13 -0.15
14 0.08
16 -0.15
17 -0.15
18 -0.15
19 -0.15
2 -0.36
20 -0.15
21 -0.15
22 -0.15
23 -0.15
24 -0.15
25 0.08
26 0.28
27 0.28
3 -0.52
34 0.15
38 0.15
39 0.15
4 -0.85
40 0.15
41 0.15
42 0.15
43 0.15
44 0.15
45 0.15
46 0.15
47 0.4
5 0.37
7 0.41
8 0.09

>  <PUBCHEM_EFFECTIVE_ROTOR_COUNT>  (1) 
8

>  <PUBCHEM_PHARMACOPHORE_FEATURES>  (1) 
8
1 1 acceptor
1 15 hydrophobe
1 2 acceptor
1 4 donor
3 3 4 7 cation
6 10 12 16 20 21 22 rings
6 11 18 19 23 24 25 rings
6 8 10 12 13 14 17 rings

>  <PUBCHEM_HEAVY_ATOM_COUNT>  (1) 
27

>  <PUBCHEM_ATOM_DEF_STEREO_COUNT>  (1) 
0

>  <PUBCHEM_ATOM_UDEF_STEREO_COUNT>  (1) 
0

>  <PUBCHEM_BOND_DEF_STEREO_COUNT>  (1) 
0

>  <PUBCHEM_BOND_UDEF_STEREO_COUNT>  (1) 
0

>  <PUBCHEM_ISOTOPIC_ATOM_COUNT>  (1) 
0

>  <PUBCHEM_COMPONENT_COUNT>  (1) 
1

>  <PUBCHEM_CACTVS_TAUTO_COUNT>  (1) 
1

>  <PUBCHEM_CONFORMER_ID>  (1) 
0000AEC500000002

>  <PUBCHEM_MMFF94_ENERGY>  (1) 
117.7317

>  <PUBCHEM_FEATURE_SELFOVERLAP>  (1) 
40.621

>  <PUBCHEM_SHAPE_FINGERPRINT>  (1) 
10906281 52 17203323450854170376
11421498 54 17467360349410119654
11578080 2 17986117533008113912
12156800 1 15651612381508537290
12403259 327 17988340621344519008
12553582 1 17904763636829083522
12788726 201 18046915058825800163
13009979 54 18116698790172152906
133893 2 17762916367979718457
13692114 37 18131064966472949455
13726171 33 18052847980219128260
14863182 85 18267022756430909249
15664445 248 16754659214483093215
15849732 13 18042116579528340680
16752209 62 18339641265050839343
17980427 23 17678159694225769816
19319366 153 17676211298679360480
20028762 73 18129659829224938535
20505436 4 17895774983633140332
20567600 347 18271248197365890781
21731516 1 17906733961681440702
21781051 124 18336563641873873187
22956985 138 17903921050730601331
23419403 2 15817866945132441500
23559900 14 18060142046712091028
23598288 3 18116729597249724387
23728640 28 18339625789835558562
340366 18 18187083914959269446
465052 167 17822302253953941497
469060 322 12036580959091064817
5265222 85 18269549460728197504
5385378 56 18126853694940532369
59554788 281 18131350761078574833

>  <PUBCHEM_SHAPE_MULTIPOLES>  (1) 
533.95
8.79
4.67
2.19
6.28
8.69
-0.2
-6.21
2.5
4.31
-0.64
-2.67
-0.35
-2.07

>  <PUBCHEM_SHAPE_SELFOVERLAP>  (1) 
1143.5

>  <PUBCHEM_SHAPE_VOLUME>  (1) 
297.3

>  <PUBCHEM_COORDINATE_TYPE>  (1) 
2
5
10

$$$$
