44747
     RDKit          3D

 19 20  0  0  0  0  0  0  0  0999 V2000
    3.6901   -1.2364   -0.2258 O   0  0  0  0  0  0  0  0  0  0  0  0
   -2.6890   -0.3370    0.2180 N   0  0  0  0  0  0  0  0  0  0  0  0
   -2.1580    0.2257   -2.0503 N   0  0  0  0  0  0  0  0  0  0  0  0
   -0.3477   -0.3661   -0.6659 C   0  0  0  0  0  0  0  0  0  0  0  0
    0.5202    0.6593   -0.2561 C   0  0  0  0  0  0  0  0  0  0  0  0
   -1.7804   -0.1523   -0.8493 C   0  0  0  0  0  0  0  0  0  0  0  0
    1.8986    0.3788   -0.1011 C   0  0  0  0  0  0  0  0  0  0  0  0
   -2.2570   -0.7475    1.5516 C   0  0  0  0  0  0  0  0  0  0  0  0
   -4.1330   -0.2007    0.0479 C   0  0  0  0  0  0  0  0  0  0  0  0
    0.1366   -1.6499   -0.9190 C   0  0  0  0  0  0  0  0  0  0  0  0
    2.3686   -0.9190   -0.3603 C   0  0  0  0  0  0  0  0  0  0  0  0
    0.0500    1.9571    0.0029 C   0  0  0  0  0  0  0  0  0  0  0  0
    1.4921   -1.9259   -0.7663 C   0  0  0  0  0  0  0  0  0  0  0  0
    2.7663    1.4044    0.3084 C   0  0  0  0  0  0  0  0  0  0  0  0
   -2.2853   -2.2542    1.7048 C   0  0  0  0  0  0  0  0  0  0  0  0
   -4.5948    1.2127    0.3372 C   0  0  0  0  0  0  0  0  0  0  0  0
    0.9262    2.9638    0.4093 C   0  0  0  0  0  0  0  0  0  0  0  0
    2.2819    2.6880    0.5616 C   0  0  0  0  0  0  0  0  0  0  0  0
    4.1146   -1.7009    1.0524 C   0  0  0  0  0  0  0  0  0  0  0  0
  1 11  1  0
  1 19  1  0
  2  6  1  0
  2  8  1  0
  2  9  1  0
  3  6  2  0
  4  5  2  0
  4  6  1  0
  4 10  1  0
  5  7  1  0
  5 12  1  0
  7 11  2  0
  7 14  1  0
  8 15  1  0
  9 16  1  0
 10 13  2  0
 11 13  1  0
 12 17  2  0
 14 18  2  0
 17 18  1  0
M  END
>  <PUBCHEM_COMPOUND_CID>  (1) 
44747

>  <PUBCHEM_CONFORMER_RMSD>  (1) 
0.8

>  <PUBCHEM_CONFORMER_DIVERSEORDER>  (1) 
1
10
2
12
7
13
5
3
9
6
4
11
8

>  <PUBCHEM_MMFF94_PARTIAL_CHARGES>  (1) 
22
1 -0.36
10 -0.15
11 0.08
12 -0.15
13 -0.15
14 -0.15
17 -0.15
18 -0.15
19 0.28
2 -0.79
24 0.15
25 0.15
26 0.15
27 0.15
3 -0.85
34 0.15
35 0.15
36 0.4
4 0.09
6 0.41
8 0.37
9 0.37

>  <PUBCHEM_EFFECTIVE_ROTOR_COUNT>  (1) 
5

>  <PUBCHEM_PHARMACOPHORE_FEATURES>  (1) 
5
1 1 acceptor
1 3 donor
3 2 3 6 cation
6 4 5 7 10 11 13 rings
6 5 7 12 14 17 18 rings

>  <PUBCHEM_HEAVY_ATOM_COUNT>  (1) 
19

>  <PUBCHEM_ATOM_DEF_STEREO_COUNT>  (1) 
0

>  <PUBCHEM_ATOM_UDEF_STEREO_COUNT>  (1) 
0

>  <PUBCHEM_BOND_DEF_STEREO_COUNT>  (1) 
0

>  <PUBCHEM_BOND_UDEF_STEREO_COUNT>  (1) 
0

>  <PUBCHEM_ISOTOPIC_ATOM_COUNT>  (1) 
0

>  <PUBCHEM_COMPONENT_COUNT>  (1) 
1

>  <PUBCHEM_CACTVS_TAUTO_COUNT>  (1) 
1

>  <PUBCHEM_CONFORMER_ID>  (1) 
0000AECB00000001

>  <PUBCHEM_MMFF94_ENERGY>  (1) 
69.5571

>  <PUBCHEM_FEATURE_SELFOVERLAP>  (1) 
25.398

>  <PUBCHEM_SHAPE_FINGERPRINT>  (1) 
10366900 7 18260833695857328167
10906281 52 18268166270056700360
11471102 22 18338523065545494352
11640471 11 17203336653720125001
12202030 40 17822010964264484330
12293681 4 18337400331441116321
12507560 18 18115592539318332713
12633257 1 18336277760017974651
12716301 132 16950827121358950109
12788726 201 18048319951164937666
13140716 1 18341884243001990754
14022347 108 18267033760649149398
14115302 16 17749687189633817510
14178342 30 17695046083476772616
14223421 5 17975986675818951883
14790565 3 18343030999439211084
15042514 8 17692531118379567336
15238133 3 18265629683825569789
15295992 7 18335998501682238601
16945 1 18271801294485214718
1813 80 17630628738247944718
18219364 16 18051405468196985652
19049666 15 18187635895328826749
20600515 1 18115040592707243718
20681677 76 18265337390121633219
20739085 24 18412270514788403820
21041028 32 18342456989353938088
21524375 3 17338166637692525348
23175994 123 18338802195464949134
23184049 59 18343858918308065708
2334 1 18053931025426932222
23419403 2 18189593004683528308
23559900 14 17748828531519566270
2748010 2 18270385089328469628
3286 77 18335984250732797727
3797600 57 16768205047197602747
5104073 3 18412832408569618211
77492 1 17275103976677686253
81228 2 17836944303818127576
8809292 202 18260552195041897451
9709674 26 18263648531871745355

>  <PUBCHEM_SHAPE_MULTIPOLES>  (1) 
375.18
6.8
2.85
1.32
3.27
1.28
-0.03
-0.91
-1.66
-1.92
-0.76
0.75
-0.58
0.65

>  <PUBCHEM_SHAPE_SELFOVERLAP>  (1) 
792.497

>  <PUBCHEM_SHAPE_VOLUME>  (1) 
210.8

>  <PUBCHEM_COORDINATE_TYPE>  (1) 
2
5
10

$$$$
