44759
     RDKit          3D

 21 22  0  0  0  0  0  0  0  0999 V2000
   -4.0094    1.3894   -0.1727 O   0  0  0  0  0  0  0  0  0  0  0  0
    2.3342    0.2311    0.1673 N   0  0  0  0  0  0  0  0  0  0  0  0
    1.7732   -0.1594   -2.1298 N   0  0  0  0  0  0  0  0  0  0  0  0
    3.7632   -0.0163   -0.0074 C   0  0  0  0  0  0  0  0  0  0  0  0
    1.9137    0.4967    1.5404 C   0  0  0  0  0  0  0  0  0  0  0  0
    1.4148    0.1512   -0.9039 C   0  0  0  0  0  0  0  0  0  0  0  0
   -0.0082    0.4042   -0.6969 C   0  0  0  0  0  0  0  0  0  0  0  0
    4.3317    0.9981   -0.9906 C   0  0  0  0  0  0  0  0  0  0  0  0
    3.9764   -1.4430   -0.4966 C   0  0  0  0  0  0  0  0  0  0  0  0
    2.5572    1.7906    2.0210 C   0  0  0  0  0  0  0  0  0  0  0  0
    2.3016   -0.6790    2.4277 C   0  0  0  0  0  0  0  0  0  0  0  0
   -0.9114   -0.6140   -0.3504 C   0  0  0  0  0  0  0  0  0  0  0  0
   -2.2780   -0.2945   -0.1678 C   0  0  0  0  0  0  0  0  0  0  0  0
   -0.4461    1.7187   -0.8609 C   0  0  0  0  0  0  0  0  0  0  0  0
   -2.7010    1.0340   -0.3370 C   0  0  0  0  0  0  0  0  0  0  0  0
   -0.4881   -1.9424   -0.1815 C   0  0  0  0  0  0  0  0  0  0  0  0
   -1.7899    2.0330   -0.6810 C   0  0  0  0  0  0  0  0  0  0  0  0
   -3.1810   -1.3128    0.1784 C   0  0  0  0  0  0  0  0  0  0  0  0
   -1.3990   -2.9414    0.1630 C   0  0  0  0  0  0  0  0  0  0  0  0
   -2.7429   -2.6272    0.3425 C   0  0  0  0  0  0  0  0  0  0  0  0
   -4.4111    1.7829    1.1362 C   0  0  0  0  0  0  0  0  0  0  0  0
  1 15  1  0
  1 21  1  0
  2  4  1  0
  2  5  1  0
  2  6  1  0
  3  6  2  0
  4  8  1  0
  4  9  1  0
  5 10  1  0
  5 11  1  0
  6  7  1  0
  7 12  2  0
  7 14  1  0
 12 13  1  0
 12 16  1  0
 13 15  2  0
 13 18  1  0
 14 17  2  0
 15 17  1  0
 16 19  2  0
 18 20  2  0
 19 20  1  0
M  END
>  <PUBCHEM_COMPOUND_CID>  (1) 
44759

>  <PUBCHEM_CONFORMER_RMSD>  (1) 
0.8

>  <PUBCHEM_CONFORMER_DIVERSEORDER>  (1) 
1
3
7
9
4
5
6
2
8

>  <PUBCHEM_MMFF94_PARTIAL_CHARGES>  (1) 
22
1 -0.36
14 -0.15
15 0.08
16 -0.15
17 -0.15
18 -0.15
19 -0.15
2 -0.79
20 -0.15
21 0.28
3 -0.85
36 0.15
37 0.15
38 0.15
39 0.4
4 0.37
40 0.15
41 0.15
42 0.15
5 0.37
6 0.41
7 0.09

>  <PUBCHEM_EFFECTIVE_ROTOR_COUNT>  (1) 
5

>  <PUBCHEM_PHARMACOPHORE_FEATURES>  (1) 
7
1 1 acceptor
1 3 donor
3 2 3 6 cation
3 4 8 9 hydrophobe
3 5 10 11 hydrophobe
6 12 13 16 18 19 20 rings
6 7 12 13 14 15 17 rings

>  <PUBCHEM_HEAVY_ATOM_COUNT>  (1) 
21

>  <PUBCHEM_ATOM_DEF_STEREO_COUNT>  (1) 
0

>  <PUBCHEM_ATOM_UDEF_STEREO_COUNT>  (1) 
0

>  <PUBCHEM_BOND_DEF_STEREO_COUNT>  (1) 
0

>  <PUBCHEM_BOND_UDEF_STEREO_COUNT>  (1) 
0

>  <PUBCHEM_ISOTOPIC_ATOM_COUNT>  (1) 
0

>  <PUBCHEM_COMPONENT_COUNT>  (1) 
1

>  <PUBCHEM_CACTVS_TAUTO_COUNT>  (1) 
1

>  <PUBCHEM_CONFORMER_ID>  (1) 
0000AED700000001

>  <PUBCHEM_MMFF94_ENERGY>  (1) 
86.9751

>  <PUBCHEM_FEATURE_SELFOVERLAP>  (1) 
35.547

>  <PUBCHEM_SHAPE_FINGERPRINT>  (1) 
10366900 7 17917711288057149637
12236239 1 17458344169067415766
12293681 4 17560810874806839001
12500047 106 18412823590263410374
12507560 18 17916025659664814530
12553582 1 17901382617167537571
12633257 1 18269819965551579504
12670545 47 17989199391011673588
12716301 132 18412542128219087467
13134695 92 16128659639557304906
13140716 1 18335997457920977413
13538477 17 18040708177883567252
14223421 5 18053937639170133289
14790565 3 18265064535097579501
15238133 3 17773882995581265568
15295992 7 17775279460910056017
15375462 189 17530681009031275600
15653759 3 18201999966836821650
16752209 62 18260820549184033063
16945 1 18114723963412561533
17349148 13 18335405882041891415
17804303 29 18411984641654022710
18219364 16 16917068910092574006
19049666 15 18130510755791193734
20261772 1 18187655682427684929
20510252 161 18411985784120338241
20600515 1 18340497689692984884
21475661 188 17559672841850059081
21618674 53 17895204332481415160
21618674 57 17846217683459853370
22112679 90 17968101970572258141
23175994 123 17489031461911718204
23184049 29 18046337806467343631
23493267 7 18413110580125718256
23526113 38 17845661339387802990
23557571 272 18269289000562385644
23559900 14 18412831261818663630
23598288 3 16227989425136582444
23598291 2 17385736819289401453
23598294 1 18334289907229450179
2748010 2 18264222318191425231
34934 24 17531243954631714204
427121 178 18199761237004348225
465052 167 17387439942143946497
495365 180 17203312399881477450
5104073 3 18408886256915955584
58807428 26 18262800653687882115
6049 1 18130221687465141912
7097593 13 17824796998244279818
77492 1 17385720326699445166
81228 2 18264474264882626343
84936 182 17767120900529035137
90316 7 18040981943631858741

>  <PUBCHEM_SHAPE_MULTIPOLES>  (1) 
416.34
7.54
2.65
1.66
1.14
1.15
-0.77
-1.54
-0.73
-2.43
-0.29
1.64
-0.43
0.23

>  <PUBCHEM_SHAPE_SELFOVERLAP>  (1) 
878.071

>  <PUBCHEM_SHAPE_VOLUME>  (1) 
235.6

>  <PUBCHEM_COORDINATE_TYPE>  (1) 
2
5
10

$$$$
