44768
     RDKit          3D

  8  7  0  0  1  0  0  0  0  0999 V2000
   -1.2913    1.7553    0.6758 Cl  0  0  0  0  0  0  0  0  0  0  0  0
    1.2913   -1.7554    0.6757 Cl  0  0  0  0  0  0  0  0  0  0  0  0
   -2.8518   -0.5046   -0.5458 O   0  0  0  0  0  0  0  0  0  0  0  0
    2.8517    0.5048   -0.5460 O   0  0  0  0  0  0  0  0  0  0  0  0
   -0.7688    0.0348    0.5475 C   0  0  0  0  0  0  0  0  0  0  0  0
    0.7689   -0.0349    0.5476 C   0  0  0  0  0  0  0  0  0  0  0  0
   -1.4366   -0.5945   -0.6775 C   0  0  0  0  0  0  0  0  0  0  0  0
    1.4366    0.5946   -0.6772 C   0  0  0  0  0  0  0  0  0  0  0  0
  1  5  1  0
  2  6  1  0
  3  7  1  0
  4  8  1  0
  5  6  1  0
  5  7  1  0
  6  8  1  0
M  END
>  <PUBCHEM_COMPOUND_CID>  (1) 
44768

>  <PUBCHEM_CONFORMER_RMSD>  (1) 
0.6

>  <PUBCHEM_CONFORMER_DIVERSEORDER>  (1) 
1
49
36
17
24
47
52
5
13
18
39
32
43
35
41
10
44
50
4
19
51
40
38
15
16
7
42
12
27
23
45
2
25
6
37
31
30
46
29
22
33
3
11
8
28
48
26
14
34
21
20
9

>  <PUBCHEM_MMFF94_PARTIAL_CHARGES>  (1) 
10
1 -0.29
15 0.4
16 0.4
2 -0.29
3 -0.68
4 -0.68
5 0.29
6 0.29
7 0.28
8 0.28

>  <PUBCHEM_EFFECTIVE_ROTOR_COUNT>  (1) 
3

>  <PUBCHEM_PHARMACOPHORE_FEATURES>  (1) 
4
1 3 acceptor
1 3 donor
1 4 acceptor
1 4 donor

>  <PUBCHEM_HEAVY_ATOM_COUNT>  (1) 
8

>  <PUBCHEM_ATOM_DEF_STEREO_COUNT>  (1) 
0

>  <PUBCHEM_ATOM_UDEF_STEREO_COUNT>  (1) 
2

>  <PUBCHEM_BOND_DEF_STEREO_COUNT>  (1) 
0

>  <PUBCHEM_BOND_UDEF_STEREO_COUNT>  (1) 
0

>  <PUBCHEM_ISOTOPIC_ATOM_COUNT>  (1) 
0

>  <PUBCHEM_COMPONENT_COUNT>  (1) 
1

>  <PUBCHEM_CACTVS_TAUTO_COUNT>  (1) 
1

>  <PUBCHEM_CONFORMER_ID>  (1) 
0000AEE000000001

>  <PUBCHEM_MMFF94_ENERGY>  (1) 
10.6106

>  <PUBCHEM_FEATURE_SELFOVERLAP>  (1) 
20.297

>  <PUBCHEM_SHAPE_FINGERPRINT>  (1) 
12897270 3 18410574028122242757
16714656 1 17918280874008985941
18185500 45 18411411800179727091
20711985 344 17703792483727203329
21040471 1 17484524434452241105
21930827 45 16701182945884306809
23211744 25 17688863559373560047
23552333 60 18261380127207981107
23552423 10 18264483975587612707
24536 1 18040437650678241552
29004967 10 17749106694854653227
5084963 1 16806746155339726776

>  <PUBCHEM_SHAPE_MULTIPOLES>  (1) 
156.64
3.32
1.61
0.99
0
0
0.02
0
-0.78
0
0.32
0
0
-0.85

>  <PUBCHEM_SHAPE_SELFOVERLAP>  (1) 
266.485

>  <PUBCHEM_SHAPE_VOLUME>  (1) 
106.9

>  <PUBCHEM_COORDINATE_TYPE>  (1) 
2
5
10

$$$$
