44767
     RDKit          3D

 26 28  0  0  0  0  0  0  0  0999 V2000
   -0.2713    0.5050    0.0558 O   0  0  0  0  0  0  0  0  0  0  0  0
    1.6915    0.4176    1.8646 O   0  0  0  0  0  0  0  0  0  0  0  0
    1.1507    2.0771   -0.8358 O   0  0  0  0  0  0  0  0  0  0  0  0
   -4.9708    0.2964   -0.4204 N   0  0  0  0  0  0  0  0  0  0  0  0
   -3.8123    1.0752   -0.7562 N   0  0  0  0  0  0  0  0  0  0  0  0
   -7.6018   -0.0125    0.7931 C   0  0  0  0  0  0  0  0  0  0  0  0
   -7.4143    0.1373   -0.7133 C   0  0  0  0  0  0  0  0  0  0  0  0
   -6.3388   -0.5733    1.4387 C   0  0  0  0  0  0  0  0  0  0  0  0
   -6.1436    0.9248   -1.0405 C   0  0  0  0  0  0  0  0  0  0  0  0
   -5.1034    0.2380    1.0416 C   0  0  0  0  0  0  0  0  0  0  0  0
   -2.6497    0.4176   -0.1836 C   0  0  0  0  0  0  0  0  0  0  0  0
   -1.3779    1.1719   -0.5372 C   0  0  0  0  0  0  0  0  0  0  0  0
    2.0666    0.2311    0.4847 C   0  0  0  0  0  0  0  0  0  0  0  0
    3.4794    0.7681    0.2429 C   0  0  0  0  0  0  0  0  0  0  0  0
    1.9780   -1.2534    0.1236 C   0  0  0  0  0  0  0  0  0  0  0  0
    0.9629    1.0654   -0.1705 C   0  0  0  0  0  0  0  0  0  0  0  0
    3.9980    0.7071   -1.0299 C   0  0  0  0  0  0  0  0  0  0  0  0
    2.2450   -2.1856    1.0997 C   0  0  0  0  0  0  0  0  0  0  0  0
    4.1760    1.2919    1.3075 C   0  0  0  0  0  0  0  0  0  0  0  0
    1.6342   -1.5990   -1.1630 C   0  0  0  0  0  0  0  0  0  0  0  0
    5.2853    1.1966   -1.2505 C   0  0  0  0  0  0  0  0  0  0  0  0
    2.1640   -3.5387    0.7708 C   0  0  0  0  0  0  0  0  0  0  0  0
    5.4633    1.7815    1.0868 C   0  0  0  0  0  0  0  0  0  0  0  0
    1.5530   -2.9521   -1.4918 C   0  0  0  0  0  0  0  0  0  0  0  0
    6.0180    1.7339   -0.1922 C   0  0  0  0  0  0  0  0  0  0  0  0
    1.8180   -3.9219   -0.5248 C   0  0  0  0  0  0  0  0  0  0  0  0
  1 12  1  0
  1 16  1  0
  2 13  1  0
  3 16  2  0
  4  5  1  0
  4  9  1  0
  4 10  1  0
  5 11  1  0
  6  7  1  0
  6  8  1  0
  7  9  1  0
  8 10  1  0
 11 12  1  0
 13 14  1  0
 13 15  1  0
 13 16  1  0
 14 17  2  0
 14 19  1  0
 15 18  2  0
 15 20  1  0
 17 21  1  0
 18 22  1  0
 19 23  2  0
 20 24  2  0
 21 25  2  0
 22 26  2  0
 23 25  1  0
 24 26  1  0
M  END
>  <PUBCHEM_COMPOUND_CID>  (1) 
44767

>  <PUBCHEM_CONFORMER_RMSD>  (1) 
1

>  <PUBCHEM_CONFORMER_DIVERSEORDER>  (1) 
1
44
47
78
85
37
60
5
83
21
55
24
25
30
86
49
18
45
20
69
54
35
52
76
59
2
32
14
36
48
56
19
11
41
87
75
88
46
81
10
79
28
23
66
31
58
13
62
71
64
40
29
61
43
4
12
16
7
80
34
77
50
27
9
42
82
3
74
8
72
84
51
22
89
63
90
15
17
39
68
33
70
53
6
26
67
38
73
57
65

>  <PUBCHEM_MMFF94_PARTIAL_CHARGES>  (1) 
35
1 -0.43
10 0.27
11 0.27
12 0.28
13 0.63
14 -0.14
15 -0.14
16 0.66
17 -0.15
18 -0.15
19 -0.15
2 -0.68
20 -0.15
21 -0.15
22 -0.15
23 -0.15
24 -0.15
25 -0.15
26 -0.15
3 -0.57
37 0.36
4 -0.54
42 0.15
43 0.15
44 0.15
45 0.15
46 0.4
47 0.15
48 0.15
49 0.15
5 -0.63
50 0.15
51 0.15
52 0.15
9 0.27

>  <PUBCHEM_EFFECTIVE_ROTOR_COUNT>  (1) 
9.2

>  <PUBCHEM_PHARMACOPHORE_FEATURES>  (1) 
7
1 2 acceptor
1 2 donor
1 3 acceptor
1 5 donor
6 14 17 19 21 23 25 rings
6 15 18 20 22 24 26 rings
6 4 6 7 8 9 10 rings

>  <PUBCHEM_HEAVY_ATOM_COUNT>  (1) 
26

>  <PUBCHEM_ATOM_DEF_STEREO_COUNT>  (1) 
0

>  <PUBCHEM_ATOM_UDEF_STEREO_COUNT>  (1) 
0

>  <PUBCHEM_BOND_DEF_STEREO_COUNT>  (1) 
0

>  <PUBCHEM_BOND_UDEF_STEREO_COUNT>  (1) 
0

>  <PUBCHEM_ISOTOPIC_ATOM_COUNT>  (1) 
0

>  <PUBCHEM_COMPONENT_COUNT>  (1) 
1

>  <PUBCHEM_CACTVS_TAUTO_COUNT>  (1) 
1

>  <PUBCHEM_CONFORMER_ID>  (1) 
0000AEDF00000001

>  <PUBCHEM_MMFF94_ENERGY>  (1) 
61.2127

>  <PUBCHEM_FEATURE_SELFOVERLAP>  (1) 
35.522

>  <PUBCHEM_SHAPE_FINGERPRINT>  (1) 
10319688 140 18129668473955479750
10670039 82 13901919882165720451
10835480 77 18187919540008243149
10906281 52 17968109624040936005
11135609 99 17095512964438432658
11421498 54 18059863822329285112
11488393 25 18198922331150136470
11545043 162 12679172843522565261
11719270 70 18260827102997840362
11963148 33 18113612425961662827
12166972 35 12751233736142933787
12596602 18 17203331139435641811
12597179 24 18334861644602102474
12730499 353 18411985753908056002
13073987 5 18337675214144440433
13383665 225 17750530480967319789
13533116 47 18130786712431274475
13955234 65 18271239431095436482
14118638 360 18341332202719227497
14347424 109 18198348347630791337
146900 427 18202562882303917273
14863182 85 18334866008625861718
15183329 4 12175632784504511573
15419008 42 17606659354871515983
15419008 47 11455895746012791523
15537594 2 18273492382191978695
16992610 120 18264497355571776908
17859628 70 18199186183343164903
17980427 23 17023468688983260574
1979834 28 18408882931994264817
20567600 347 18408888417358585222
20771845 140 17059765625464541214
20771845 171 17749400256502649910
21033648 29 18127963325263552552
21033650 10 15938104254110084221
21344244 181 17988658380527076838
21344244 246 18197508333859549510
21521721 280 18271528705833087520
21623969 137 18335141990619027203
21781051 124 18261404360231408986
220451 1 17988639693303134621
22149856 69 18261971660944574945
22224240 67 18341326790342828016
22956985 138 17826502272503095466
23516275 137 16772699691976703191
239999 70 17967814912101249635
25222932 49 17386281095089295851
3178227 256 18410291441319254136
32027 91 17535736405088636107
404807 78 18193274320243528923
4325135 7 17313104176375535877
4340502 62 18411699893943725102
5104073 3 18266458703325267841
57359948 33 17677047937460928797
5758199 1 18202001066132515977
5912855 24 18056487153712586305
59755656 215 18335421270493104597
70251023 43 17914910733747852142
8509985 295 9583514326423313988

>  <PUBCHEM_SHAPE_MULTIPOLES>  (1) 
507.5
17.84
3.2
1.44
37.62
4.59
0.18
-8.52
1.37
-5.21
-0.35
-0.18
0.13
0.85

>  <PUBCHEM_SHAPE_SELFOVERLAP>  (1) 
1074.153

>  <PUBCHEM_SHAPE_VOLUME>  (1) 
281.1

>  <PUBCHEM_COORDINATE_TYPE>  (1) 
2
5
10

$$$$
