4477
     RDKit          3D

 21 22  0  0  0  0  0  0  0  0999 V2000
   -1.2079    2.7969    0.6947 Cl  0  0  0  0  0  0  0  0  0  0  0  0
    4.7098    2.8903   -0.6560 Cl  0  0  0  0  0  0  0  0  0  0  0  0
    3.2150   -2.6467    0.6113 O   0  0  0  0  0  0  0  0  0  0  0  0
    0.8549   -1.9799   -0.4783 O   0  0  0  0  0  0  0  0  0  0  0  0
   -5.8620   -1.2380   -0.3545 O   0  0  0  0  0  0  0  0  0  0  0  0
   -6.0191    0.8972    0.1498 O   0  0  0  0  0  0  0  0  0  0  0  0
    0.2554    0.1977    0.1061 N   0  0  0  0  0  0  0  0  0  0  0  0
   -5.3390   -0.1311   -0.0821 N   0  0  0  0  0  0  0  0  0  0  0  0
   -1.1603    0.1414    0.0634 C   0  0  0  0  0  0  0  0  0  0  0  0
    2.5700   -0.4380   -0.0675 C   0  0  0  0  0  0  0  0  0  0  0  0
    1.1698   -0.8288   -0.1572 C   0  0  0  0  0  0  0  0  0  0  0  0
   -1.9223    1.2696    0.3168 C   0  0  0  0  0  0  0  0  0  0  0  0
   -1.7508   -1.0755   -0.2377 C   0  0  0  0  0  0  0  0  0  0  0  0
    3.5463   -1.3587    0.3128 C   0  0  0  0  0  0  0  0  0  0  0  0
   -3.9232   -0.0382   -0.0336 C   0  0  0  0  0  0  0  0  0  0  0  0
    2.9294    0.8759   -0.3676 C   0  0  0  0  0  0  0  0  0  0  0  0
   -3.3133    1.1796    0.2680 C   0  0  0  0  0  0  0  0  0  0  0  0
   -3.1418   -1.1657   -0.2864 C   0  0  0  0  0  0  0  0  0  0  0  0
    4.8822   -0.9655    0.3929 C   0  0  0  0  0  0  0  0  0  0  0  0
    4.2653    1.2691   -0.2875 C   0  0  0  0  0  0  0  0  0  0  0  0
    5.2417    0.3484    0.0928 C   0  0  0  0  0  0  0  0  0  0  0  0
  1 12  1  0
  2 20  1  0
  3 14  1  0
  4 11  2  0
  5  8  1  0
  6  8  2  0
  7  9  1  0
  7 11  1  0
  8 15  1  0
  9 12  2  0
  9 13  1  0
 10 11  1  0
 10 14  2  0
 10 16  1  0
 12 17  1  0
 13 18  2  0
 14 19  1  0
 15 17  2  0
 15 18  1  0
 16 20  2  0
 19 21  2  0
 20 21  1  0
M  CHG  2   5  -1   8   1
M  END
>  <PUBCHEM_COMPOUND_CID>  (1) 
4477

>  <PUBCHEM_CONFORMER_RMSD>  (1) 
0.6

>  <PUBCHEM_CONFORMER_DIVERSEORDER>  (1) 
4
13
12
7
3
14
6
1
11
10
5
15
9
8
2

>  <PUBCHEM_MMFF94_PARTIAL_CHARGES>  (1) 
29
1 -0.18
10 0.09
11 0.54
12 0.18
13 -0.15
14 0.08
15 0.13
16 -0.15
17 -0.15
18 -0.15
19 -0.15
2 -0.18
20 0.18
21 -0.15
22 0.37
23 0.15
24 0.15
25 0.15
26 0.15
27 0.15
28 0.15
29 0.45
3 -0.53
4 -0.57
5 -0.52
6 -0.52
7 -0.55
8 0.91
9 0.12

>  <PUBCHEM_EFFECTIVE_ROTOR_COUNT>  (1) 
4

>  <PUBCHEM_PHARMACOPHORE_FEATURES>  (1) 
8
1 3 donor
1 4 acceptor
1 5 acceptor
1 5 anion
1 6 acceptor
1 7 donor
6 10 14 16 19 20 21 rings
6 9 12 13 15 17 18 rings

>  <PUBCHEM_HEAVY_ATOM_COUNT>  (1) 
21

>  <PUBCHEM_ATOM_DEF_STEREO_COUNT>  (1) 
0

>  <PUBCHEM_ATOM_UDEF_STEREO_COUNT>  (1) 
0

>  <PUBCHEM_BOND_DEF_STEREO_COUNT>  (1) 
0

>  <PUBCHEM_BOND_UDEF_STEREO_COUNT>  (1) 
0

>  <PUBCHEM_ISOTOPIC_ATOM_COUNT>  (1) 
0

>  <PUBCHEM_COMPONENT_COUNT>  (1) 
1

>  <PUBCHEM_CACTVS_TAUTO_COUNT>  (1) 
7

>  <PUBCHEM_CONFORMER_ID>  (1) 
0000117D00000004

>  <PUBCHEM_MMFF94_ENERGY>  (1) 
69.4839

>  <PUBCHEM_FEATURE_SELFOVERLAP>  (1) 
40.675

>  <PUBCHEM_SHAPE_FINGERPRINT>  (1) 
10090160 65 18334572451547704191
10366900 7 17603878754315409176
10595046 47 18410855477592932549
10670039 82 18340504283195557244
10906281 52 18201175294957130097
11578080 2 13480576103530146228
12107183 9 17617940236117852506
12166972 35 18113621192089763812
12236239 1 18409166614800320047
12403260 363 18338234865029877808
12788726 201 17846509114213409393
13167823 11 18411135809955666994
13533116 47 17241036622661695306
14341114 176 18409172077977829346
14528608 73 18411984697488526204
14787075 74 18410291441171041051
14790565 3 18342463629790050809
15196674 1 18411700959037741445
15342168 16 17896606274690451004
15442244 35 18194119604245558938
15927050 60 17409363322758381533
17492 89 18268429018981872818
17834072 33 18410291427869485695
17844677 252 18337397041105900420
18681886 176 18343579634519173562
19489759 90 15791446016066792101
200 152 18411133624096530951
20645477 70 18410293567190928262
20715895 44 17905885877708970837
21033648 29 16588292899899334413
21065198 48 18338518530344833970
21267235 1 18411989031184497550
21652331 79 18411982464079294636
21792934 111 18341601582767352793
23352939 185 18060423538230393777
23402539 116 18272363166528269783
23522609 53 17986416519025283513
23557571 272 17775012245283010764
23558518 356 17981337698484809225
23559900 14 18411132545764353778
239999 70 18342182137849852910
245318 6 17172100748452515060
26918003 58 18040999544291442427
3004659 81 18407759222958372176
34797466 226 15482670233936110505
350125 39 18410572873425146340
3545911 37 18407761434819128294
4073 2 17895481426517949739
4214541 1 18338234856054970536
4325135 7 18412825789365657485
4340502 62 17458063784970440962
474 4 17968382355154971316
474229 33 18342457045341396391
5104073 3 18339364063197206929
5283173 99 18115297866081850781
5374978 207 18411976949351524562
542803 24 18260266352046497471
59755656 215 18341620283023336990
67856867 119 18409442605446776112
7495541 125 17988918998255841603
8272917 22 18409450267747923702
9709674 26 18339086981977989514

>  <PUBCHEM_SHAPE_MULTIPOLES>  (1) 
402.47
13.28
2.57
0.72
6.82
0.98
-0.01
1.06
0.58
-2.16
-0.13
-0.2
0.09
-1.35

>  <PUBCHEM_SHAPE_SELFOVERLAP>  (1) 
855.339

>  <PUBCHEM_SHAPE_VOLUME>  (1) 
226.1

>  <PUBCHEM_COORDINATE_TYPE>  (1) 
2
5
10

$$$$
