44776
     RDKit          3D

 11 11  0  0  1  0  0  0  0  0999 V2000
    1.7787    2.2002   -0.4175 S   0  0  0  0  0  0  0  0  0  0  0  0
    1.9982    0.4843    1.5417 O   0  0  0  0  0  0  0  0  0  0  0  0
   -1.9502   -0.7826    0.8224 N   0  0  0  0  0  0  0  0  0  0  0  0
    2.6866   -1.3835   -0.5967 N   0  0  0  0  0  0  0  0  0  0  0  0
   -2.6710    0.8423   -0.5089 N   0  0  0  0  0  0  0  0  0  0  0  0
    0.2835   -1.3710   -0.1089 C   0  0  0  0  0  0  0  0  0  0  0  0
    1.4848   -0.5473   -0.5981 C   0  0  0  0  0  0  0  0  0  0  0  0
   -0.9984   -0.5690   -0.1025 C   0  0  0  0  0  0  0  0  0  0  0  0
    1.7736    0.6107    0.3439 C   0  0  0  0  0  0  0  0  0  0  0  0
   -1.4308    0.4160   -0.9136 C   0  0  0  0  0  0  0  0  0  0  0  0
   -2.9549    0.1001    0.5383 C   0  0  0  0  0  0  0  0  0  0  0  0
  1  9  1  0
  2  9  2  0
  3  8  1  0
  3 11  1  0
  4  7  1  0
  5 10  1  0
  5 11  2  0
  6  7  1  0
  6  8  1  0
  7  9  1  0
  8 10  2  0
M  END
>  <PUBCHEM_COMPOUND_CID>  (1) 
44776

>  <PUBCHEM_CONFORMER_RMSD>  (1) 
0.6

>  <PUBCHEM_CONFORMER_DIVERSEORDER>  (1) 
1
56
62
26
57
41
10
16
58
9
46
4
38
54
8
14
13
20
48
21
55
25
33
40
53
31
61
12
29
2
23
37
30
45
44
32
7
11
22
35
49
5
52
28
50
17
18
59
6
51
15
47
27
3
24
39
19
43
42
36
60
34

>  <PUBCHEM_MMFF94_PARTIAL_CHARGES>  (1) 
17
1 -0.32
10 0.08
11 0.04
15 0.27
16 0.15
17 0.36
18 0.36
19 0.15
2 -0.57
20 0.18
3 0.03
4 -0.99
5 -0.57
6 0.18
7 0.33
8 -0.33
9 0.65

>  <PUBCHEM_EFFECTIVE_ROTOR_COUNT>  (1) 
3

>  <PUBCHEM_PHARMACOPHORE_FEATURES>  (1) 
6
1 3 donor
1 4 cation
1 4 donor
3 1 2 9 anion
3 3 5 11 cation
5 3 5 8 10 11 rings

>  <PUBCHEM_HEAVY_ATOM_COUNT>  (1) 
11

>  <PUBCHEM_ATOM_DEF_STEREO_COUNT>  (1) 
0

>  <PUBCHEM_ATOM_UDEF_STEREO_COUNT>  (1) 
1

>  <PUBCHEM_BOND_DEF_STEREO_COUNT>  (1) 
0

>  <PUBCHEM_BOND_UDEF_STEREO_COUNT>  (1) 
0

>  <PUBCHEM_ISOTOPIC_ATOM_COUNT>  (1) 
0

>  <PUBCHEM_COMPONENT_COUNT>  (1) 
1

>  <PUBCHEM_CACTVS_TAUTO_COUNT>  (1) 
4

>  <PUBCHEM_CONFORMER_ID>  (1) 
0000AEE800000001

>  <PUBCHEM_MMFF94_ENERGY>  (1) 
8.5409

>  <PUBCHEM_FEATURE_SELFOVERLAP>  (1) 
30.446

>  <PUBCHEM_SHAPE_FINGERPRINT>  (1) 
10857977 72 17676498271609250819
12524768 44 18187645859647607477
12696612 119 17896315985902901700
12932764 1 17167860872389867327
14648413 74 18335147513435338396
15775835 57 17418372523335656513
16945 1 18187921751261720167
19973954 147 18409733962763517533
20645464 45 18260259776351321113
21130352 189 18339077086520448068
230 275 18341604919334085320
23235685 24 18342174530929703056
369184 2 17168411757864524241
5084963 1 18343304772958661759

>  <PUBCHEM_SHAPE_MULTIPOLES>  (1) 
209.41
4.3
1.71
1.03
1.5
0.51
-0.22
0.62
-0.35
-1.21
0.3
-0.2
0.06
0.4

>  <PUBCHEM_SHAPE_SELFOVERLAP>  (1) 
417.504

>  <PUBCHEM_SHAPE_VOLUME>  (1) 
126.4

>  <PUBCHEM_COORDINATE_TYPE>  (1) 
2
5
10

$$$$
