44778
     RDKit          3D

 12 12  0  0  1  0  0  0  0  0999 V2000
    2.0236   -0.3749   -1.0565 O   0  0  0  0  0  0  0  0  0  0  0  0
    0.2727    2.3377   -0.2405 O   0  0  0  0  0  0  0  0  0  0  0  0
   -1.6613    0.8082    1.0105 O   0  0  0  0  0  0  0  0  0  0  0  0
   -1.7762   -0.5276   -0.8863 N   0  0  0  0  0  0  0  0  0  0  0  0
    0.0906    0.9912   -0.6428 C   0  0  0  0  0  0  0  0  0  0  0  0
    1.2615    0.2005   -0.1139 C   0  0  0  0  0  0  0  0  0  0  0  0
   -1.2055    0.4371   -0.0692 C   0  0  0  0  0  0  0  0  0  0  0  0
   -2.9991   -1.2141   -0.5419 C   0  0  0  0  0  0  0  0  0  0  0  0
    1.6925   -0.0409    1.1412 C   0  0  0  0  0  0  0  0  0  0  0  0
   -3.5436   -0.7426    0.7906 C   0  0  0  0  0  0  0  0  0  0  0  0
    2.8427   -0.8500    0.9819 C   0  0  0  0  0  0  0  0  0  0  0  0
    3.0022   -1.0246   -0.3731 C   0  0  0  0  0  0  0  0  0  0  0  0
  1  6  1  0
  1 12  1  0
  2  5  1  0
  3  7  2  0
  4  7  1  0
  4  8  1  0
  5  6  1  0
  5  7  1  0
  6  9  2  0
  8 10  1  0
  9 11  1  0
 11 12  2  0
M  END
>  <PUBCHEM_COMPOUND_CID>  (1) 
44778

>  <PUBCHEM_CONFORMER_RMSD>  (1) 
0.6

>  <PUBCHEM_CONFORMER_DIVERSEORDER>  (1) 
4
17
2
21
24
6
12
15
18
20
1
23
11
5
19
16
13
22
9
10
3
7
14
8

>  <PUBCHEM_MMFF94_PARTIAL_CHARGES>  (1) 
16
1 -0.28
11 -0.15
12 -0.01
16 0.37
17 0.15
2 -0.68
21 0.15
22 0.15
23 0.4
3 -0.57
4 -0.73
5 0.52
6 -0.04
7 0.57
8 0.3
9 -0.15

>  <PUBCHEM_EFFECTIVE_ROTOR_COUNT>  (1) 
4

>  <PUBCHEM_PHARMACOPHORE_FEATURES>  (1) 
6
1 1 acceptor
1 2 acceptor
1 2 donor
1 3 acceptor
1 4 donor
5 1 6 9 11 12 rings

>  <PUBCHEM_HEAVY_ATOM_COUNT>  (1) 
12

>  <PUBCHEM_ATOM_DEF_STEREO_COUNT>  (1) 
0

>  <PUBCHEM_ATOM_UDEF_STEREO_COUNT>  (1) 
1

>  <PUBCHEM_BOND_DEF_STEREO_COUNT>  (1) 
0

>  <PUBCHEM_BOND_UDEF_STEREO_COUNT>  (1) 
0

>  <PUBCHEM_ISOTOPIC_ATOM_COUNT>  (1) 
0

>  <PUBCHEM_COMPONENT_COUNT>  (1) 
1

>  <PUBCHEM_CACTVS_TAUTO_COUNT>  (1) 
2

>  <PUBCHEM_CONFORMER_ID>  (1) 
0000AEEA00000004

>  <PUBCHEM_MMFF94_ENERGY>  (1) 
14.7668

>  <PUBCHEM_FEATURE_SELFOVERLAP>  (1) 
30.452

>  <PUBCHEM_SHAPE_FINGERPRINT>  (1) 
10857977 72 18202273693513143198
11031198 65 9511469943609771485
12251169 10 15985099755992325187
12696612 119 15769771398576337946
12897270 3 14562537275184894362
13296908 3 18335410270854765861
13705890 14 16008745822947012658
15906896 17 17462570498723731821
16945 1 17275095141755871900
18186145 218 7853576850194858210
20281407 28 18342737386319899942
20361792 2 18334010601232199519
20645477 70 18190734439851187495
20653085 51 11747223407063089406
20653091 64 18337393858498321288
20711985 344 18118951516986617269
20871998 22 18412546492053449262
21028194 46 10807934885755923741
230 275 10159710096081623406
23402655 69 14490460963843410879
449060 23 18343021085968526095
81228 2 18193266391132396381
94968 8 17749394831442113531

>  <PUBCHEM_SHAPE_MULTIPOLES>  (1) 
224.37
5.35
1.47
1.12
1.95
0.73
-0.12
-3.09
-0.54
0.06
0.08
-0.1
-0.13
-0.19

>  <PUBCHEM_SHAPE_SELFOVERLAP>  (1) 
459.558

>  <PUBCHEM_SHAPE_VOLUME>  (1) 
131.2

>  <PUBCHEM_COORDINATE_TYPE>  (1) 
2
5
10

$$$$
