44772
     RDKit          3D

 19 21  0  0  1  0  0  0  0  0999 V2000
   -3.7164   -1.5762   -2.0788 Cl  0  0  0  0  0  0  0  0  0  0  0  0
    2.7310   -2.0251    0.1596 N   0  0  0  0  0  0  0  0  0  0  0  0
    2.1511    0.7042   -0.8002 C   0  0  0  0  0  0  0  0  0  0  0  0
    0.2919    2.1752    0.2792 C   0  0  0  0  0  0  0  0  0  0  0  0
    1.1223   -0.2054   -0.0778 C   0  0  0  0  0  0  0  0  0  0  0  0
    0.0936    0.6855    0.6837 C   0  0  0  0  0  0  0  0  0  0  0  0
    2.7719    1.7198    0.1774 C   0  0  0  0  0  0  0  0  0  0  0  0
    1.3955    1.4934   -1.8870 C   0  0  0  0  0  0  0  0  0  0  0  0
    1.6816    2.6097    0.7908 C   0  0  0  0  0  0  0  0  0  0  0  0
    0.2928    2.3497   -1.2510 C   0  0  0  0  0  0  0  0  0  0  0  0
    1.7920   -1.2095    0.8655 C   0  0  0  0  0  0  0  0  0  0  0  0
   -1.3589    0.2429    0.5867 C   0  0  0  0  0  0  0  0  0  0  0  0
   -1.8150   -0.3892   -0.5670 C   0  0  0  0  0  0  0  0  0  0  0  0
   -2.2243    0.4717    1.6531 C   0  0  0  0  0  0  0  0  0  0  0  0
    2.0818   -2.7912   -0.9195 C   0  0  0  0  0  0  0  0  0  0  0  0
    3.4282   -2.9576    1.0635 C   0  0  0  0  0  0  0  0  0  0  0  0
   -3.1466   -0.7954   -0.6549 C   0  0  0  0  0  0  0  0  0  0  0  0
   -3.5557    0.0655    1.5653 C   0  0  0  0  0  0  0  0  0  0  0  0
   -4.0169   -0.5682    0.4113 C   0  0  0  0  0  0  0  0  0  0  0  0
  1 17  1  0
  2 11  1  0
  2 15  1  0
  2 16  1  0
  3  5  1  0
  3  7  1  0
  3  8  1  0
  4  6  1  0
  4  9  1  0
  4 10  1  0
  5  6  1  0
  5 11  1  0
  6 12  1  0
  7  9  1  0
  8 10  1  0
 12 13  2  0
 12 14  1  0
 13 17  1  0
 14 18  2  0
 17 19  2  0
 18 19  1  0
M  END
>  <PUBCHEM_COMPOUND_CID>  (1) 
44772

>  <PUBCHEM_CONFORMER_RMSD>  (1) 
0.6

>  <PUBCHEM_CONFORMER_DIVERSEORDER>  (1) 
2
3
13
9
4
6
8
5
7
10
11
1
12

>  <PUBCHEM_MMFF94_PARTIAL_CHARGES>  (1) 
16
1 -0.18
11 0.27
12 -0.14
13 -0.15
14 -0.15
15 0.27
16 0.27
17 0.18
18 -0.15
19 -0.15
2 -0.81
34 0.15
35 0.15
42 0.15
43 0.15
6 0.14

>  <PUBCHEM_EFFECTIVE_ROTOR_COUNT>  (1) 
4.2

>  <PUBCHEM_PHARMACOPHORE_FEATURES>  (1) 
3
1 2 cation
6 12 13 14 17 18 19 rings
8 3 4 5 6 7 8 9 10 rings

>  <PUBCHEM_HEAVY_ATOM_COUNT>  (1) 
19

>  <PUBCHEM_ATOM_DEF_STEREO_COUNT>  (1) 
1

>  <PUBCHEM_ATOM_UDEF_STEREO_COUNT>  (1) 
1

>  <PUBCHEM_BOND_DEF_STEREO_COUNT>  (1) 
0

>  <PUBCHEM_BOND_UDEF_STEREO_COUNT>  (1) 
0

>  <PUBCHEM_ISOTOPIC_ATOM_COUNT>  (1) 
0

>  <PUBCHEM_COMPONENT_COUNT>  (1) 
1

>  <PUBCHEM_CACTVS_TAUTO_COUNT>  (1) 
1

>  <PUBCHEM_CONFORMER_ID>  (1) 
0000AEE400000002

>  <PUBCHEM_MMFF94_ENERGY>  (1) 
61.4038

>  <PUBCHEM_FEATURE_SELFOVERLAP>  (1) 
15.223

>  <PUBCHEM_SHAPE_FINGERPRINT>  (1) 
10042902 136 17917713457374785614
10291535 26 11316894394844146014
11069576 57 17844223319913197743
11578080 2 17985518157526635225
12363563 72 18042403534688369866
12403259 327 16055747634442661307
12553582 1 18267310828594009102
12841375 7 18198908015585828118
13009979 54 17989489606305354155
13083527 12 18264464262109542042
13134695 92 18334286574292766844
13140716 1 17977111476119208320
13533116 47 18336277820791328923
13544653 18 18263076626779818450
13583140 156 18269008642746644609
13681431 1 18259990344668597748
14178342 30 18194126449885268049
14181834 199 18409161134411650366
14787075 74 16694961140084428249
14844126 61 17543050304612411554
15003188 105 15758464223240380087
15183329 4 16700885185557739975
15375462 189 18341906181277889312
15852999 172 17899681646798028347
16945 1 18189063151431623676
17357779 13 18114732725372802646
1813 80 18265907847393259062
19786989 88 17388272387745612365
20361792 2 18262802852325983027
20559304 39 18272099291889636265
20600515 1 17749376028112078960
20645477 70 18334847342809061455
20671657 53 17895482401475389138
21421861 104 18200329748360234297
21731516 1 18265061223481835622
22112679 90 18129676200526973193
2255824 54 18267877257402043612
23114952 82 17023484021710227415
23419403 2 17973972160406333860
23526113 38 17240773886199859849
23557571 272 17762331419430913426
23598291 2 18273219685796338759
238 59 17969775479020590359
2748010 2 18114452362523752228
3060560 45 18047738584059701468
404807 78 16674961058379111983
474 4 18053386788345813449
6049 1 16950572086216542459
633830 44 18053688019976796237
6992083 37 18058171622584134955
7364860 26 18341337759667917194
7615 1 18131630106247177081
77492 1 18131075965160942593
81228 2 17614003988975233418

>  <PUBCHEM_SHAPE_MULTIPOLES>  (1) 
387.9
6.31
3.18
1.72
5.12
1.07
-0.42
3.61
0.27
-4.01
-0.2
1.01
0.04
-1.44

>  <PUBCHEM_SHAPE_SELFOVERLAP>  (1) 
810.123

>  <PUBCHEM_SHAPE_VOLUME>  (1) 
223.7

>  <PUBCHEM_COORDINATE_TYPE>  (1) 
2
5
10

$$$$
