44770
     RDKit          3D

 22 24  0  0  1  0  0  0  0  0999 V2000
   -1.2853    1.8535    0.8462 S   0  0  0  0  0  0  0  0  0  0  0  0
    4.1862   -0.0083   -0.3341 O   0  0  0  0  0  0  0  0  0  0  0  0
   -1.9814    0.8852    1.6781 O   0  0  0  0  0  0  0  0  0  0  0  0
   -1.1024    3.2145    1.3231 O   0  0  0  0  0  0  0  0  0  0  0  0
   -1.7686   -0.9210    0.1250 N   0  0  0  0  0  0  0  0  0  0  0  0
   -2.0299    1.9017   -0.6888 N   0  0  0  0  0  0  0  0  0  0  0  0
   -0.5037   -1.1721    0.7995 C   0  0  0  0  0  0  0  0  0  0  0  0
   -0.1061   -2.6219    0.4776 C   0  0  0  0  0  0  0  0  0  0  0  0
    0.5866   -0.1662    0.4606 C   0  0  0  0  0  0  0  0  0  0  0  0
   -1.6416   -0.9573   -1.3317 C   0  0  0  0  0  0  0  0  0  0  0  0
   -2.7805   -1.9280    0.4431 C   0  0  0  0  0  0  0  0  0  0  0  0
    1.3021   -2.9171    0.9735 C   0  0  0  0  0  0  0  0  0  0  0  0
   -3.0860   -1.0667   -1.7976 C   0  0  0  0  0  0  0  0  0  0  0  0
   -3.8352   -1.7014   -0.6299 C   0  0  0  0  0  0  0  0  0  0  0  0
    1.9132   -0.5822    0.2225 C   0  0  0  0  0  0  0  0  0  0  0  0
    2.3048   -2.0390    0.2331 C   0  0  0  0  0  0  0  0  0  0  0  0
    0.3065    1.2125    0.4634 C   0  0  0  0  0  0  0  0  0  0  0  0
    2.9017    0.3719   -0.0718 C   0  0  0  0  0  0  0  0  0  0  0  0
    1.3007    2.1512    0.1827 C   0  0  0  0  0  0  0  0  0  0  0  0
    2.5964    1.7306   -0.0923 C   0  0  0  0  0  0  0  0  0  0  0  0
    4.5134   -0.2795   -1.6943 C   0  0  0  0  0  0  0  0  0  0  0  0
   -1.7908    3.0396   -1.5878 C   0  0  0  0  0  0  0  0  0  0  0  0
  1  3  2  0
  1  4  2  0
  1  6  1  0
  1 17  1  0
  2 18  1  0
  2 21  1  0
  5  7  1  0
  5 10  1  0
  5 11  1  0
  6 22  1  0
  7  8  1  0
  7  9  1  0
  8 12  1  0
  9 15  2  0
  9 17  1  0
 10 13  1  0
 11 14  1  0
 12 16  1  0
 13 14  1  0
 15 16  1  0
 15 18  1  0
 17 19  2  0
 18 20  2  0
 19 20  1  0
M  END
>  <PUBCHEM_COMPOUND_CID>  (1) 
44770

>  <PUBCHEM_CONFORMER_RMSD>  (1) 
0.8

>  <PUBCHEM_CONFORMER_DIVERSEORDER>  (1) 
1
6
2
7
3
4
5

>  <PUBCHEM_MMFF94_PARTIAL_CHARGES>  (1) 
21
1 1.45
10 0.27
11 0.27
15 -0.14
16 0.14
17 -0.01
18 0.08
19 -0.15
2 -0.36
20 -0.15
21 0.28
22 0.36
3 -0.65
38 0.15
39 0.15
4 -0.65
40 0.42
5 -0.81
6 -0.91
7 0.41
9 -0.14

>  <PUBCHEM_EFFECTIVE_ROTOR_COUNT>  (1) 
5.8

>  <PUBCHEM_PHARMACOPHORE_FEATURES>  (1) 
8
1 2 acceptor
1 3 acceptor
1 4 acceptor
1 5 cation
1 6 donor
5 5 10 11 13 14 rings
6 7 8 9 12 15 16 rings
6 9 15 17 18 19 20 rings

>  <PUBCHEM_HEAVY_ATOM_COUNT>  (1) 
22

>  <PUBCHEM_ATOM_DEF_STEREO_COUNT>  (1) 
0

>  <PUBCHEM_ATOM_UDEF_STEREO_COUNT>  (1) 
1

>  <PUBCHEM_BOND_DEF_STEREO_COUNT>  (1) 
0

>  <PUBCHEM_BOND_UDEF_STEREO_COUNT>  (1) 
0

>  <PUBCHEM_ISOTOPIC_ATOM_COUNT>  (1) 
0

>  <PUBCHEM_COMPONENT_COUNT>  (1) 
1

>  <PUBCHEM_CACTVS_TAUTO_COUNT>  (1) 
1

>  <PUBCHEM_CONFORMER_ID>  (1) 
0000AEE200000001

>  <PUBCHEM_MMFF94_ENERGY>  (1) 
73.64

>  <PUBCHEM_FEATURE_SELFOVERLAP>  (1) 
40.635

>  <PUBCHEM_SHAPE_FINGERPRINT>  (1) 
104564 63 18342739607007655619
10756046 5 18265607676381477262
10906281 52 17909834567672182576
10967382 1 18050570943371913714
1100329 8 17832412112313983874
11206711 2 18409450293142661420
11578080 2 17346016957636393617
12035758 1 17616521200493049257
12035759 4 18340763741351652319
12403259 327 13614252532675870199
12553582 1 18341891922018504819
12788726 201 17701814385163603121
13140716 1 18049724315340135858
14178342 30 18269262487856102056
14251751 93 18198074594504112254
15210252 30 17678709393851525957
16752209 62 18335413578385863210
16945 1 18335128847481206722
17357779 13 18340482378070601860
18186145 218 18264202689441763463
20871999 31 18338815476221194908
21634736 98 18343303703796648308
2334 1 18337671910750087602
23402539 116 18272089447988403190
23419403 2 15091598025527986995
23557571 272 17631712950658892986
23559900 14 17836651095613977608
23566358 2 18267581321191177094
238 59 17403703019882155031
25 1 18192702569363690155
25147074 1 18263645052885140026
2748010 2 18120666733882817440
2871803 45 18411414050784879350
353137 74 18337946891387885626
589210 1 18264198111190969411
70251023 43 18130505326799882486
81228 2 18340495576790218536

>  <PUBCHEM_SHAPE_MULTIPOLES>  (1) 
429.03
5.89
3.66
1.46
2.96
1.21
-0.39
-1.61
-2.96
-1.27
0.55
-0.52
0.32
-0.3

>  <PUBCHEM_SHAPE_SELFOVERLAP>  (1) 
899.564

>  <PUBCHEM_SHAPE_VOLUME>  (1) 
243.9

>  <PUBCHEM_COORDINATE_TYPE>  (1) 
2
5
10

$$$$
