44780
     RDKit          3D

 26 27  0  0  1  0  0  0  0  0999 V2000
    3.2246    3.2537    0.5344 O   0  0  0  0  0  0  0  0  0  0  0  0
   -3.0328    0.8428    2.3033 N   0  0  0  0  0  0  0  0  0  0  0  0
    1.7351    1.5673    1.0497 N   0  0  0  0  0  0  0  0  0  0  0  0
    0.0788    0.0345   -0.0001 C   0  0  0  0  0  0  0  0  0  0  0  0
   -0.8150    0.5879    1.1763 C   0  0  0  0  0  0  0  0  0  0  0  0
   -2.3092    0.1658    1.2252 C   0  0  0  0  0  0  0  0  0  0  0  0
    1.5258    0.6978    0.1011 C   0  0  0  0  0  0  0  0  0  0  0  0
   -0.6223    0.4597   -1.3255 C   0  0  0  0  0  0  0  0  0  0  0  0
    0.3762   -1.4911    0.0857 C   0  0  0  0  0  0  0  0  0  0  0  0
   -2.4257   -1.3455    1.4447 C   0  0  0  0  0  0  0  0  0  0  0  0
    2.5640    0.3853   -0.9824 C   0  0  0  0  0  0  0  0  0  0  0  0
   -1.4326   -0.4532   -1.9309 C   0  0  0  0  0  0  0  0  0  0  0  0
    0.6103   -2.1562   -1.0813 C   0  0  0  0  0  0  0  0  0  0  0  0
   -0.3795    1.7168   -1.7921 C   0  0  0  0  0  0  0  0  0  0  0  0
    0.3843   -2.0652    1.3225 C   0  0  0  0  0  0  0  0  0  0  0  0
   -2.9022    2.2928    2.1724 C   0  0  0  0  0  0  0  0  0  0  0  0
   -4.4415    0.4521    2.2947 C   0  0  0  0  0  0  0  0  0  0  0  0
    3.4653   -0.7810   -0.6161 C   0  0  0  0  0  0  0  0  0  0  0  0
   -2.0603   -0.0727   -3.1172 C   0  0  0  0  0  0  0  0  0  0  0  0
    0.8771   -3.5231   -1.0045 C   0  0  0  0  0  0  0  0  0  0  0  0
   -1.0073    2.0972   -2.9781 C   0  0  0  0  0  0  0  0  0  0  0  0
    0.6513   -3.4322    1.3991 C   0  0  0  0  0  0  0  0  0  0  0  0
   -1.8477    1.2025   -3.6407 C   0  0  0  0  0  0  0  0  0  0  0  0
    0.8976   -4.1610    0.2356 C   0  0  0  0  0  0  0  0  0  0  0  0
    2.9371    2.2228    1.1363 C   0  0  0  0  0  0  0  0  0  0  0  0
    3.9489    1.5021    1.9877 C   0  0  0  0  0  0  0  0  0  0  0  0
  1 25  2  0
  2  6  1  0
  2 16  1  0
  2 17  1  0
  3  7  2  0
  3 25  1  0
  4  5  1  0
  4  7  1  0
  4  8  1  0
  4  9  1  0
  5  6  1  0
  6 10  1  0
  7 11  1  0
  8 12  2  0
  8 14  1  0
  9 13  2  0
  9 15  1  0
 11 18  1  0
 12 19  1  0
 13 20  1  0
 14 21  2  0
 15 22  2  0
 19 23  2  0
 20 24  2  0
 21 23  1  0
 22 24  1  0
 25 26  1  0
M  END
>  <PUBCHEM_COMPOUND_CID>  (1) 
44780

>  <PUBCHEM_CONFORMER_RMSD>  (1) 
0.8

>  <PUBCHEM_CONFORMER_DIVERSEORDER>  (1) 
13
15
12
19
7
22
20
26
31
10
16
24
5
17
27
30
6
9
14
28
21
11
32
4
3
23
34
2
29
25
35
18
8
33
1

>  <PUBCHEM_MMFF94_PARTIAL_CHARGES>  (1) 
33
1 -0.57
11 0.06
12 -0.15
13 -0.15
14 -0.15
15 -0.15
16 0.27
17 0.27
19 -0.15
2 -0.81
20 -0.15
21 -0.15
22 -0.15
23 -0.15
24 -0.15
25 0.72
26 0.06
3 -0.66
35 0.15
36 0.15
37 0.15
38 0.15
4 0.35
48 0.15
49 0.15
50 0.15
51 0.15
52 0.15
53 0.15
6 0.27
7 0.33
8 -0.14
9 -0.14

>  <PUBCHEM_EFFECTIVE_ROTOR_COUNT>  (1) 
8

>  <PUBCHEM_PHARMACOPHORE_FEATURES>  (1) 
7
1 1 acceptor
1 18 hydrophobe
1 2 cation
1 3 acceptor
1 3 donor
6 8 12 14 19 21 23 rings
6 9 13 15 20 22 24 rings

>  <PUBCHEM_HEAVY_ATOM_COUNT>  (1) 
26

>  <PUBCHEM_ATOM_DEF_STEREO_COUNT>  (1) 
0

>  <PUBCHEM_ATOM_UDEF_STEREO_COUNT>  (1) 
1

>  <PUBCHEM_BOND_DEF_STEREO_COUNT>  (1) 
0

>  <PUBCHEM_BOND_UDEF_STEREO_COUNT>  (1) 
0

>  <PUBCHEM_ISOTOPIC_ATOM_COUNT>  (1) 
0

>  <PUBCHEM_COMPONENT_COUNT>  (1) 
1

>  <PUBCHEM_CACTVS_TAUTO_COUNT>  (1) 
1

>  <PUBCHEM_CONFORMER_ID>  (1) 
0000AEEC0000000D

>  <PUBCHEM_MMFF94_ENERGY>  (1) 
115.2042

>  <PUBCHEM_FEATURE_SELFOVERLAP>  (1) 
35.569

>  <PUBCHEM_SHAPE_FINGERPRINT>  (1) 
10165383 225 18118715238377861724
11578080 2 17391092342759900276
11582403 64 17346055440374579433
12592029 89 17830408944088800546
13009979 54 16748761416831827866
13149001 5 17029924711854961063
133893 2 17982984822674703346
13583140 156 18198635337034539721
14817 1 10558827852182421461
14863182 85 18048070568442871443
15420108 30 17319048257027244597
16945 1 17772499856828670730
17980427 23 17608103271257714793
17980427 26 18201444653314322464
20600515 1 17039221589864571950
20602899 9 17908102750742109536
20691752 17 16736116650796920579
20905425 154 17337062324454947016
21330990 113 17898322457279331670
21756936 100 17844254149499716624
229495 10 18048045068699373165
23419403 2 17898847942190760499
23728640 28 17392430689419370904
238 59 18046033026792389638
25222932 49 17988655151070320227
266924 78 18198324200686213245
298252 57 17394393282840640732
394222 165 17979313621831639503
68419 9 17058904715927005019
81228 2 17756141546633493130
9981440 41 17682916082099605032
9999458 23 18198931178117452513

>  <PUBCHEM_SHAPE_MULTIPOLES>  (1) 
519.24
5.21
4.08
3.5
0.63
2.94
-1.77
-2.77
3.86
-3.41
0.31
3.69
-1.89
1.76

>  <PUBCHEM_SHAPE_SELFOVERLAP>  (1) 
1089.543

>  <PUBCHEM_SHAPE_VOLUME>  (1) 
292.2

>  <PUBCHEM_COORDINATE_TYPE>  (1) 
2
5
10

$$$$
