44788
     RDKit          3D

 12 11  0  0  1  0  0  0  0  0999 V2000
   -1.7565   -0.3156   -1.5935 O   0  0  0  0  0  0  0  0  0  0  0  0
   -2.1169    1.3096    1.5769 O   0  0  0  0  0  0  0  0  0  0  0  0
   -2.2668    2.1182   -0.5436 O   0  0  0  0  0  0  0  0  0  0  0  0
   -0.2772   -0.6500    0.3054 C   0  0  0  0  0  0  0  0  0  0  0  0
    0.8136    0.3092   -0.2457 C   0  0  0  0  0  0  0  0  0  0  0  0
    0.0411   -2.1125   -0.0911 C   0  0  0  0  0  0  0  0  0  0  0  0
   -1.6841   -0.2210   -0.1786 C   0  0  0  0  0  0  0  0  0  0  0  0
    2.2264   -0.0071    0.2619 C   0  0  0  0  0  0  0  0  0  0  0  0
    3.2969    0.9285   -0.3083 C   0  0  0  0  0  0  0  0  0  0  0  0
   -0.9454   -3.1354    0.4574 C   0  0  0  0  0  0  0  0  0  0  0  0
   -2.0417    1.1957    0.2269 C   0  0  0  0  0  0  0  0  0  0  0  0
    4.7106    0.5805    0.1324 C   0  0  0  0  0  0  0  0  0  0  0  0
  1  7  1  0
  2 11  1  0
  3 11  2  0
  4  5  1  0
  4  6  1  0
  4  7  1  0
  5  8  1  0
  6 10  1  0
  7 11  1  0
  8  9  1  0
  9 12  1  0
M  END
>  <PUBCHEM_COMPOUND_CID>  (1) 
44788

>  <PUBCHEM_CONFORMER_RMSD>  (1) 
0.6

>  <PUBCHEM_CONFORMER_DIVERSEORDER>  (1) 
1
61
201
212
108
142
204
32
228
249
75
73
173
163
198
222
241
115
5
100
214
167
226
35
210
107
221
76
10
248
192
185
47
232
145
187
134
191
139
251
119
144
16
44
177
229
60
85
220
170
166
254
92
200
127
211
240
147
141
184
157
14
158
22
176
140
195
52
105
237
133
68
189
113
159
132
146
49
121
209
246
130
181
178
235
205
188
79
234
154
239
243
194
93
233
118
43
30
253
109
172
242
38
50
217
180
27
186
252
128
102
81
216
208
106
15
114
4
126
182
196
8
29
39
82
19
160
65
227
131
95
91
37
112
224
219
137
98
183
206
153
59
230
136
190
55
34
86
101
13
223
104
56
169
6
207
3
193
67
24
28
40
162
31
250
63
116
33
123
197
18
72
168
175
110
129
96
244
231
161
149
164
48
203
12
25
103
245
53
238
151
174
135
83
17
9
71
117
202
215
58
36
120
111
99
21
255
156
165
94
45
64
23
225
155
236
150
148
77
143
20
89
97
51
66
218
11
41
247
199
42
171
80
7
138
87
46
54
124
74
62
70
84
122
179
125
213
90
57
2
78
88
69
152
26

>  <PUBCHEM_MMFF94_PARTIAL_CHARGES>  (1) 
7
1 -0.68
11 0.66
2 -0.65
29 0.4
3 -0.57
30 0.5
7 0.34

>  <PUBCHEM_EFFECTIVE_ROTOR_COUNT>  (1) 
6

>  <PUBCHEM_PHARMACOPHORE_FEATURES>  (1) 
8
1 1 acceptor
1 1 donor
1 10 hydrophobe
1 12 hydrophobe
1 2 acceptor
1 3 acceptor
3 2 3 11 anion
5 4 5 6 8 9 hydrophobe

>  <PUBCHEM_HEAVY_ATOM_COUNT>  (1) 
12

>  <PUBCHEM_ATOM_DEF_STEREO_COUNT>  (1) 
0

>  <PUBCHEM_ATOM_UDEF_STEREO_COUNT>  (1) 
2

>  <PUBCHEM_BOND_DEF_STEREO_COUNT>  (1) 
0

>  <PUBCHEM_BOND_UDEF_STEREO_COUNT>  (1) 
0

>  <PUBCHEM_ISOTOPIC_ATOM_COUNT>  (1) 
0

>  <PUBCHEM_COMPONENT_COUNT>  (1) 
1

>  <PUBCHEM_CACTVS_TAUTO_COUNT>  (1) 
1

>  <PUBCHEM_CONFORMER_ID>  (1) 
0000AEF400000001

>  <PUBCHEM_MMFF94_ENERGY>  (1) 
7.8484

>  <PUBCHEM_FEATURE_SELFOVERLAP>  (1) 
40.66

>  <PUBCHEM_SHAPE_FINGERPRINT>  (1) 
11357001 24 18189340241389124378
13024252 1 14056988451731309135
15775835 57 18342174414775805392
18186145 218 18200041629527915788
187816 3 18267570472446698271
19021347 4 18408888412383291954
20112054 60 18269272533842317210
20645477 56 18411705421878066192
20653085 51 17631467690872529204
20871998 184 18126857216196802670
21339142 149 18131067177425837202
21524375 3 18342174423375893270
228727 97 18130206212829752279
23402539 116 18270110339832532439
305870 269 18263361382847474106
3248919 1 18341048622981246844
5706482 22 18411415098777972602
6992083 37 17967813881678292460
81228 2 18122074348989581890

>  <PUBCHEM_SHAPE_MULTIPOLES>  (1) 
229.35
5.58
2.55
0.99
9.06
1.87
0.01
-2.71
-0.13
-2.34
-0.32
-0.65
-0.21
-0.16

>  <PUBCHEM_SHAPE_SELFOVERLAP>  (1) 
424.17

>  <PUBCHEM_SHAPE_VOLUME>  (1) 
144.5

>  <PUBCHEM_COORDINATE_TYPE>  (1) 
2
5
10

$$$$
