44787
     RDKit          3D

  9  8  0  0  0  0  0  0  0  0999 V2000
    5.2531   -0.4851   -0.0350 S   0  0  0  0  0  0  0  0  0  0  0  0
   -5.0268   -0.4201   -0.0247 N   0  0  0  0  0  0  0  0  0  0  0  0
   -0.0242   -0.3573    0.0481 C   0  0  0  0  0  0  0  0  0  0  0  0
   -1.2931    0.4975    0.0165 C   0  0  0  0  0  0  0  0  0  0  0  0
    1.2335    0.5132    0.0281 C   0  0  0  0  0  0  0  0  0  0  0  0
   -2.5505   -0.3769   -0.0054 C   0  0  0  0  0  0  0  0  0  0  0  0
    2.5034   -0.3420    0.0254 C   0  0  0  0  0  0  0  0  0  0  0  0
   -3.8465    0.4354   -0.0223 C   0  0  0  0  0  0  0  0  0  0  0  0
    3.7510    0.5353   -0.0308 C   0  0  0  0  0  0  0  0  0  0  0  0
  1  9  1  0
  2  8  1  0
  3  4  1  0
  3  5  1  0
  4  6  1  0
  5  7  1  0
  6  8  1  0
  7  9  1  0
M  END
>  <PUBCHEM_COMPOUND_CID>  (1) 
44787

>  <PUBCHEM_CONFORMER_RMSD>  (1) 
0.6

>  <PUBCHEM_CONFORMER_DIVERSEORDER>  (1) 
1
29
85
8
75
166
150
54
12
165
4
66
133
160
30
74
105
112
95
63
25
164
47
147
157
144
82
40
98
139
15
101
137
55
24
26
110
162
115
163
3
80
52
36
114
90
167
141
33
136
20
18
161
59
50
86
127
58
5
132
94
143
51
11
48
31
23
107
88
78
118
91
126
67
142
9
10
49
41
44
7
89
19
37
93
39
65
61
117
57
34
72
131
108
46
53
153
154
119
62
135
152
97
87
121
123
140
21
109
79
81
155
38
125
99
32
56
129
106
84
73
13
60
134
70
45
76
113
96
116
6
145
120
27
158
156
64
100
130
42
104
92
71
35
83
146
17
16
149
151
148
138
14
28
102
22
128
103
2
122
159
43
68
77
111
69
124

>  <PUBCHEM_MMFF94_PARTIAL_CHARGES>  (1) 
7
1 -0.41
2 -0.99
24 0.36
25 0.36
26 0.18
8 0.27
9 0.23

>  <PUBCHEM_EFFECTIVE_ROTOR_COUNT>  (1) 
6

>  <PUBCHEM_PHARMACOPHORE_FEATURES>  (1) 
3
1 2 cation
1 2 donor
5 3 4 5 6 7 hydrophobe

>  <PUBCHEM_HEAVY_ATOM_COUNT>  (1) 
9

>  <PUBCHEM_ATOM_DEF_STEREO_COUNT>  (1) 
0

>  <PUBCHEM_ATOM_UDEF_STEREO_COUNT>  (1) 
0

>  <PUBCHEM_BOND_DEF_STEREO_COUNT>  (1) 
0

>  <PUBCHEM_BOND_UDEF_STEREO_COUNT>  (1) 
0

>  <PUBCHEM_ISOTOPIC_ATOM_COUNT>  (1) 
0

>  <PUBCHEM_COMPONENT_COUNT>  (1) 
1

>  <PUBCHEM_CACTVS_TAUTO_COUNT>  (1) 
1

>  <PUBCHEM_CONFORMER_ID>  (1) 
0000AEF300000001

>  <PUBCHEM_MMFF94_ENERGY>  (1) 
-3.1684

>  <PUBCHEM_FEATURE_SELFOVERLAP>  (1) 
15.223

>  <PUBCHEM_SHAPE_FINGERPRINT>  (1) 
11062470 55 18408041814178271273
14123238 8 18410293613986610334
17834072 33 18341894138300322084
17834076 25 18410012134709657603
20645477 70 18340488855398755518
20719005 15 18410856559892977664
20767249 13 18130786758921345614
20828058 44 14907893898954663901
22485316 2 18202560683428510454
23402539 116 17703784808657718109
366044 4 18334012800345587130
42788 4 18410293610039861100

>  <PUBCHEM_SHAPE_MULTIPOLES>  (1) 
184.08
11.37
0.82
0.62
0.26
0.02
0
-1.41
-0.24
0.14
0
0.1
0
0

>  <PUBCHEM_SHAPE_SELFOVERLAP>  (1) 
311.994

>  <PUBCHEM_SHAPE_VOLUME>  (1) 
125.1

>  <PUBCHEM_COORDINATE_TYPE>  (1) 
2
5
10

$$$$
