44792
     RDKit          3D

 12 11  0  0  1  0  0  0  0  0999 V2000
   -2.8833    1.2060   -1.0312 O   0  0  0  0  0  0  0  0  0  0  0  0
    3.4546   -0.3617   -0.5377 N   0  0  0  0  0  0  0  0  0  0  0  0
    1.0018   -0.5884   -0.2233 C   0  0  0  0  0  0  0  0  0  0  0  0
   -0.3108    0.2067   -0.0218 C   0  0  0  0  0  0  0  0  0  0  0  0
   -1.5745   -0.6485   -0.2162 C   0  0  0  0  0  0  0  0  0  0  0  0
    2.2361    0.3543   -0.1456 C   0  0  0  0  0  0  0  0  0  0  0  0
   -2.8983    0.1342   -0.0858 C   0  0  0  0  0  0  0  0  0  0  0  0
    1.0912   -1.7731    0.7491 C   0  0  0  0  0  0  0  0  0  0  0  0
    2.4647    0.9821    1.2300 C   0  0  0  0  0  0  0  0  0  0  0  0
   -3.0931    0.7235    1.3129 C   0  0  0  0  0  0  0  0  0  0  0  0
   -4.0744   -0.7836   -0.4359 C   0  0  0  0  0  0  0  0  0  0  0  0
    4.5859    0.5485   -0.5945 C   0  0  0  0  0  0  0  0  0  0  0  0
  1  7  1  0
  2  6  1  0
  2 12  1  0
  3  4  1  0
  3  6  1  0
  3  8  1  0
  4  5  1  0
  5  7  1  0
  6  9  1  0
  7 10  1  0
  7 11  1  0
M  END
>  <PUBCHEM_COMPOUND_CID>  (1) 
44792

>  <PUBCHEM_CONFORMER_RMSD>  (1) 
0.6

>  <PUBCHEM_CONFORMER_DIVERSEORDER>  (1) 
1
79
76
77
46
36
62
87
7
81
5
63
2
69
75
44
84
70
21
18
86
4
41
49
59
68
48
28
82
38
57
39
72
66
78
55
33
80
20
24
65
17
56
37
85
60
83
71
45
54
35
14
64
9
74
11
40
73
47
13
25
67
22
26
53
16
29
43
50
30
31
51
58
23
15
6
12
27
61
42
32
10
8
34
52
19
3

>  <PUBCHEM_MMFF94_PARTIAL_CHARGES>  (1) 
7
1 -0.68
12 0.27
2 -0.9
25 0.36
32 0.4
6 0.27
7 0.28

>  <PUBCHEM_EFFECTIVE_ROTOR_COUNT>  (1) 
5

>  <PUBCHEM_PHARMACOPHORE_FEATURES>  (1) 
6
1 1 acceptor
1 1 donor
1 2 cation
1 2 donor
1 8 hydrophobe
3 7 10 11 hydrophobe

>  <PUBCHEM_HEAVY_ATOM_COUNT>  (1) 
12

>  <PUBCHEM_ATOM_DEF_STEREO_COUNT>  (1) 
0

>  <PUBCHEM_ATOM_UDEF_STEREO_COUNT>  (1) 
2

>  <PUBCHEM_BOND_DEF_STEREO_COUNT>  (1) 
0

>  <PUBCHEM_BOND_UDEF_STEREO_COUNT>  (1) 
0

>  <PUBCHEM_ISOTOPIC_ATOM_COUNT>  (1) 
0

>  <PUBCHEM_COMPONENT_COUNT>  (1) 
1

>  <PUBCHEM_CACTVS_TAUTO_COUNT>  (1) 
1

>  <PUBCHEM_CONFORMER_ID>  (1) 
0000AEF800000001

>  <PUBCHEM_MMFF94_ENERGY>  (1) 
21.3457

>  <PUBCHEM_FEATURE_SELFOVERLAP>  (1) 
30.446

>  <PUBCHEM_SHAPE_FINGERPRINT>  (1) 
10219947 1 17458345238772845614
11062470 55 13479129103304472159
114248 4 17418095451153806076
12346645 44 18261111859371749954
12932764 1 18411974741770041107
14144814 61 18131067104358639283
14325111 11 18260828185266314790
15375358 24 10737278056673286681
15775835 57 18410294683771161587
18186145 218 18201999941051278152
190213 19 17704069594663628785
1986462 14 18060423516670608565
20279233 1 11530478917689540425
20645477 70 17968648307571650739
20671657 53 15697733557736731728
21119208 17 16271932601230476636
23402539 116 17275108297646991744
23402655 69 18201719522504731405
23557571 272 18411140221403915253
3248919 1 17631722769318017719
4990 188 18202289099935556054
81228 2 17759518168016699186
93112 12 17275100660767709340

>  <PUBCHEM_SHAPE_MULTIPOLES>  (1) 
236.1
8.14
1.27
1.07
1.29
0.19
-0.18
-1.15
1.49
-0.05
-0.3
-0.12
-0.18
-0.11

>  <PUBCHEM_SHAPE_SELFOVERLAP>  (1) 
432.33

>  <PUBCHEM_SHAPE_VOLUME>  (1) 
152.2

>  <PUBCHEM_COORDINATE_TYPE>  (1) 
2
5
10

$$$$
