44794
     RDKit          3D

 23 24  0  0  0  0  0  0  0  0999 V2000
    1.0544   -0.3162   -2.5424 O   0  0  0  0  0  0  0  0  0  0  0  0
   -4.4980   -0.9671    0.5906 N   0  0  0  0  0  0  0  0  0  0  0  0
    0.4826   -0.2273   -0.1517 C   0  0  0  0  0  0  0  0  0  0  0  0
   -0.6836   -0.8753    0.6763 C   0  0  0  0  0  0  0  0  0  0  0  0
   -2.1096   -0.6194    0.1522 C   0  0  0  0  0  0  0  0  0  0  0  0
    1.8838   -0.4784    0.4842 C   0  0  0  0  0  0  0  0  0  0  0  0
    0.1812    1.2991   -0.2117 C   0  0  0  0  0  0  0  0  0  0  0  0
    0.5790   -0.9051   -1.5677 C   0  0  0  0  0  0  0  0  0  0  0  0
   -3.1536   -1.2220    1.0944 C   0  0  0  0  0  0  0  0  0  0  0  0
    0.1760   -2.3751   -1.6857 C   0  0  0  0  0  0  0  0  0  0  0  0
    1.9342   -1.2243    1.6232 C   0  0  0  0  0  0  0  0  0  0  0  0
   -0.6147    1.7469   -1.2240 C   0  0  0  0  0  0  0  0  0  0  0  0
    2.9655    0.0651   -0.1406 C   0  0  0  0  0  0  0  0  0  0  0  0
    0.7331    2.0905    0.7516 C   0  0  0  0  0  0  0  0  0  0  0  0
    0.3355   -2.9105   -3.0995 C   0  0  0  0  0  0  0  0  0  0  0  0
    3.1879   -1.4484    2.1921 C   0  0  0  0  0  0  0  0  0  0  0  0
   -0.8843    3.1145   -1.2776 C   0  0  0  0  0  0  0  0  0  0  0  0
    4.2193   -0.1591    0.4283 C   0  0  0  0  0  0  0  0  0  0  0  0
    0.4633    3.4579    0.6979 C   0  0  0  0  0  0  0  0  0  0  0  0
   -4.7363    0.4718    0.4631 C   0  0  0  0  0  0  0  0  0  0  0  0
   -5.5009   -1.5719    1.4689 C   0  0  0  0  0  0  0  0  0  0  0  0
    4.3304   -0.9158    1.5947 C   0  0  0  0  0  0  0  0  0  0  0  0
   -0.3452    3.9700   -0.3167 C   0  0  0  0  0  0  0  0  0  0  0  0
  1  8  2  0
  2  9  1  0
  2 20  1  0
  2 21  1  0
  3  4  1  0
  3  6  1  0
  3  7  1  0
  3  8  1  0
  4  5  1  0
  5  9  1  0
  6 11  2  0
  6 13  1  0
  7 12  2  0
  7 14  1  0
  8 10  1  0
 10 15  1  0
 11 16  1  0
 12 17  1  0
 13 18  2  0
 14 19  2  0
 16 22  2  0
 17 23  2  0
 18 22  1  0
 19 23  1  0
M  END
>  <PUBCHEM_COMPOUND_CID>  (1) 
44794

>  <PUBCHEM_CONFORMER_RMSD>  (1) 
0.8

>  <PUBCHEM_CONFORMER_DIVERSEORDER>  (1) 
1
18
4
17
14
21
5
6
22
12
10
25
24
19
20
23
13
11
27
28
16
9
15
26
7
3
8
2

>  <PUBCHEM_MMFF94_PARTIAL_CHARGES>  (1) 
30
1 -0.57
10 0.06
11 -0.15
12 -0.15
13 -0.15
14 -0.15
16 -0.15
17 -0.15
18 -0.15
19 -0.15
2 -0.81
20 0.27
21 0.27
22 -0.15
23 -0.15
3 0.35
32 0.15
33 0.15
34 0.15
35 0.15
39 0.15
40 0.15
41 0.15
42 0.15
49 0.15
50 0.15
6 -0.14
7 -0.14
8 0.45
9 0.27

>  <PUBCHEM_EFFECTIVE_ROTOR_COUNT>  (1) 
8

>  <PUBCHEM_PHARMACOPHORE_FEATURES>  (1) 
5
1 1 acceptor
1 15 hydrophobe
1 2 cation
6 6 11 13 16 18 22 rings
6 7 12 14 17 19 23 rings

>  <PUBCHEM_HEAVY_ATOM_COUNT>  (1) 
23

>  <PUBCHEM_ATOM_DEF_STEREO_COUNT>  (1) 
0

>  <PUBCHEM_ATOM_UDEF_STEREO_COUNT>  (1) 
0

>  <PUBCHEM_BOND_DEF_STEREO_COUNT>  (1) 
0

>  <PUBCHEM_BOND_UDEF_STEREO_COUNT>  (1) 
0

>  <PUBCHEM_ISOTOPIC_ATOM_COUNT>  (1) 
0

>  <PUBCHEM_COMPONENT_COUNT>  (1) 
1

>  <PUBCHEM_CACTVS_TAUTO_COUNT>  (1) 
2

>  <PUBCHEM_CONFORMER_ID>  (1) 
0000AEFA00000001

>  <PUBCHEM_MMFF94_ENERGY>  (1) 
82.186

>  <PUBCHEM_FEATURE_SELFOVERLAP>  (1) 
25.371

>  <PUBCHEM_SHAPE_FINGERPRINT>  (1) 
10165383 225 17418382415399563794
10756046 70 18055913435789979910
108634 29 18048591522248172845
10906281 52 18196644099838660605
11578080 2 17413898447376847384
12293681 25 18054226523440066655
12788726 201 18187367580384982722
13134695 92 18261666086462910141
13583140 156 17971463251081712463
14713325 29 17768831779481645470
14787075 74 17968944226876175632
14790565 3 17611753700896285988
14863182 85 17274280434089953311
14943834 7 17480004732876407286
14955137 171 18199485413555745758
15238133 3 17823433617164322081
15420108 30 17985827270628126113
15775530 1 17552926126399767494
15906896 17 17977354193606107310
1601671 61 18271818937815026033
16945 1 18115017486131311452
17980427 26 17684648018928773388
19078846 21 18188788188326596785
20600515 1 18187093836164807551
21033648 29 17417813911784553499
21330990 113 17845109388871928814
21524375 3 12895351114013943514
22182313 1 17914889834547616646
23419403 2 17242985047217599972
23557571 272 18194693561793887181
23558518 356 17476906966181600740
23598288 3 18047164407420581530
2748010 2 17842830032832902678
3060560 45 17985851408454625839
3250762 1 17552930528830851662
3380486 77 18041012729814680467
345986 75 17532353319088190427
34934 24 18267304429519486360
394222 165 17836660982047795353
469060 322 17700095929771533877
497634 4 17386842808619961546
58260988 114 17316468506211304778
81228 2 17977693929814480617
8509985 295 18113620093041904739
9981440 41 17194841612283106874

>  <PUBCHEM_SHAPE_MULTIPOLES>  (1) 
462.48
7.25
3.83
2.33
7.08
4.26
1.46
-4.75
-6.07
0.85
1.47
-0.82
-2.05
0.57

>  <PUBCHEM_SHAPE_SELFOVERLAP>  (1) 
967.586

>  <PUBCHEM_SHAPE_VOLUME>  (1) 
261.9

>  <PUBCHEM_COORDINATE_TYPE>  (1) 
2
5
10

$$$$
