44799
     RDKit          3D

 15 15  0  0  0  0  0  0  0  0999 V2000
   -0.1021   -2.0449    0.0060 O   0  0  0  0  0  0  0  0  0  0  0  0
   -5.6554    1.0253   -0.0287 N   0  0  0  0  0  0  0  0  0  0  0  0
    3.3498    0.5208   -0.0039 C   0  0  0  0  0  0  0  0  0  0  0  0
    2.1916   -0.4797    0.0385 C   0  0  0  0  0  0  0  0  0  0  0  0
    4.7280   -0.1438    0.0087 C   0  0  0  0  0  0  0  0  0  0  0  0
    0.8133    0.1853    0.0523 C   0  0  0  0  0  0  0  0  0  0  0  0
    5.8459    0.8993   -0.0217 C   0  0  0  0  0  0  0  0  0  0  0  0
   -0.3156   -0.8348    0.0188 C   0  0  0  0  0  0  0  0  0  0  0  0
    7.2180    0.2446   -0.0470 C   0  0  0  0  0  0  0  0  0  0  0  0
   -1.7253   -0.3437    0.0076 C   0  0  0  0  0  0  0  0  0  0  0  0
   -1.9504    1.0136    0.0280 C   0  0  0  0  0  0  0  0  0  0  0  0
   -2.7448   -1.2674   -0.0239 C   0  0  0  0  0  0  0  0  0  0  0  0
   -3.2676    1.4725    0.0164 C   0  0  0  0  0  0  0  0  0  0  0  0
   -4.0619   -0.8084   -0.0356 C   0  0  0  0  0  0  0  0  0  0  0  0
   -4.3234    0.5615   -0.0153 C   0  0  0  0  0  0  0  0  0  0  0  0
  1  8  2  0
  2 15  1  0
  3  4  1  0
  3  5  1  0
  4  6  1  0
  5  7  1  0
  6  8  1  0
  7  9  1  0
  8 10  1  0
 10 11  2  0
 10 12  1  0
 11 13  1  0
 12 14  2  0
 13 15  2  0
 14 15  1  0
M  END
>  <PUBCHEM_COMPOUND_CID>  (1) 
44799

>  <PUBCHEM_CONFORMER_RMSD>  (1) 
0.6

>  <PUBCHEM_CONFORMER_DIVERSEORDER>  (1) 
1
181
46
215
130
113
12
176
61
217
106
185
142
126
9
198
53
165
110
95
30
187
186
203
22
84
216
180
196
188
200
144
160
156
56
85
107
194
184
75
91
183
209
35
27
39
191
20
175
128
88
167
18
195
157
133
10
60
101
212
143
108
86
14
155
23
15
89
40
192
150
59
140
153
169
123
49
168
32
119
201
214
112
34
58
117
193
179
44
129
127
51
162
116
25
205
134
199
43
145
173
48
135
29
182
47
93
197
26
141
76
204
190
78
202
16
94
172
50
211
55
115
109
79
92
38
166
189
102
73
69
8
99
152
36
65
77
207
7
81
83
63
90
24
104
125
17
149
41
72
208
114
151
68
4
28
52
21
154
147
120
105
2
13
177
111
100
42
131
67
80
163
31
3
121
6
132
11
37
174
124
74
146
70
54
159
171
5
33
148
66
19
139
64
138
87
97
45
206
178
96
137
82
118
122
71
98
213
136
164
158
103
210
170
57
161
62

>  <PUBCHEM_MMFF94_PARTIAL_CHARGES>  (1) 
16
1 -0.57
10 0.09
11 -0.15
12 -0.15
13 -0.15
14 -0.15
15 0.1
2 -0.9
29 0.15
30 0.15
31 0.15
32 0.15
33 0.4
34 0.4
6 0.06
8 0.42

>  <PUBCHEM_EFFECTIVE_ROTOR_COUNT>  (1) 
6

>  <PUBCHEM_PHARMACOPHORE_FEATURES>  (1) 
6
1 1 acceptor
1 2 cation
1 2 donor
1 9 hydrophobe
5 3 4 5 6 7 hydrophobe
6 10 11 12 13 14 15 rings

>  <PUBCHEM_HEAVY_ATOM_COUNT>  (1) 
15

>  <PUBCHEM_ATOM_DEF_STEREO_COUNT>  (1) 
0

>  <PUBCHEM_ATOM_UDEF_STEREO_COUNT>  (1) 
0

>  <PUBCHEM_BOND_DEF_STEREO_COUNT>  (1) 
0

>  <PUBCHEM_BOND_UDEF_STEREO_COUNT>  (1) 
0

>  <PUBCHEM_ISOTOPIC_ATOM_COUNT>  (1) 
0

>  <PUBCHEM_COMPONENT_COUNT>  (1) 
1

>  <PUBCHEM_CACTVS_TAUTO_COUNT>  (1) 
7

>  <PUBCHEM_CONFORMER_ID>  (1) 
0000AEFF00000001

>  <PUBCHEM_MMFF94_ENERGY>  (1) 
34.6483

>  <PUBCHEM_FEATURE_SELFOVERLAP>  (1) 
30.446

>  <PUBCHEM_SHAPE_FINGERPRINT>  (1) 
10354089 29 17458064863793098224
10411042 1 17906733958073126519
11315181 36 17676770971561600338
12091667 2 18412826914905707514
12236239 1 17967249815085932890
13214271 11 18408323298520519575
13533116 47 17703509884028671990
13740256 8 9079107865106330694
13897977 58 18408603660604704857
15048467 5 18408603647461509020
15242439 84 17918274268649900168
15501527 16 18411983572212310760
15716309 27 11746936495275083904
15778101 99 18342181033721198937
17834076 25 18341894095872862348
187816 3 17060339625830159858
19489759 90 18411699898344115904
200 152 10735880569178910686
20281389 69 18187079555989736292
20621476 66 18410862027160122417
20645477 56 18413388739224106998
20645477 70 17131283368199209278
20767249 213 18334295370427941380
21267235 1 18338801229814848935
220451 1 16732700567512752850
22224240 67 14562532903335682808
23402539 116 18343297093662449996
23536379 177 18408885127539990418
23559900 14 18130500920727549424
2916195 48 18272082834007747536
293599 30 18410573981178315234
300161 21 18187640297770408490
3004659 81 18409733920832086086
351380 180 18342457058347357612
3545911 37 18412263930550187400
366044 4 18410011039593613762
4214541 1 18410856590232126784
42788 4 18410856581800382788
441001 317 18342740710656268192
5104073 3 18189906322716316939
542803 24 17821728351638196972
59755656 520 17603301574856378842

>  <PUBCHEM_SHAPE_MULTIPOLES>  (1) 
297.84
15.1
1.42
0.61
22.05
0.24
0
-4.66
0.3
-1.22
0
0.03
-0.01
-0.02

>  <PUBCHEM_SHAPE_SELFOVERLAP>  (1) 
596.306

>  <PUBCHEM_SHAPE_VOLUME>  (1) 
176.2

>  <PUBCHEM_COORDINATE_TYPE>  (1) 
2
5
10

$$$$
