44816
     RDKit          3D

 34 37  0  0  1  0  0  0  0  0999 V2000
    0.7354    1.1215    0.8224 O   0  0  0  0  0  0  0  0  0  0  0  0
    1.5998   -5.3887   -0.9444 O   0  0  0  0  0  0  0  0  0  0  0  0
    1.5081   -0.6707    2.0430 O   0  0  0  0  0  0  0  0  0  0  0  0
   -0.1431   -3.1536   -0.6833 N   0  0  0  0  0  0  0  0  0  0  0  0
    6.8192    1.8177   -0.6080 N   0  0  0  0  0  0  0  0  0  0  0  0
   -1.5052    0.4494   -0.0193 C   0  0  0  0  0  0  0  0  0  0  0  0
   -0.8443   -0.8004   -0.7329 C   0  0  0  0  0  0  0  0  0  0  0  0
   -0.6046    0.8381    1.2355 C   0  0  0  0  0  0  0  0  0  0  0  0
   -0.7870   -2.0962    0.0934 C   0  0  0  0  0  0  0  0  0  0  0  0
   -1.6318    1.6698   -0.9861 C   0  0  0  0  0  0  0  0  0  0  0  0
   -2.9530   -0.0034    0.3734 C   0  0  0  0  0  0  0  0  0  0  0  0
   -1.0698    1.9739    2.1742 C   0  0  0  0  0  0  0  0  0  0  0  0
   -0.5101   -4.4789   -0.1651 C   0  0  0  0  0  0  0  0  0  0  0  0
    1.3177   -2.9948   -0.6703 C   0  0  0  0  0  0  0  0  0  0  0  0
   -2.2717    2.8337   -0.5601 C   0  0  0  0  0  0  0  0  0  0  0  0
   -4.0078    0.1805   -0.5205 C   0  0  0  0  0  0  0  0  0  0  0  0
   -1.1053    1.5954   -2.2756 C   0  0  0  0  0  0  0  0  0  0  0  0
   -3.1869   -0.5901    1.6170 C   0  0  0  0  0  0  0  0  0  0  0  0
   -0.1641    2.2949    3.3532 C   0  0  0  0  0  0  0  0  0  0  0  0
    0.1832   -5.5651   -0.9825 C   0  0  0  0  0  0  0  0  0  0  0  0
    1.9673   -4.1156   -1.4769 C   0  0  0  0  0  0  0  0  0  0  0  0
   -2.3852    3.9233   -1.4237 C   0  0  0  0  0  0  0  0  0  0  0  0
   -5.2967   -0.2221   -0.1708 C   0  0  0  0  0  0  0  0  0  0  0  0
   -1.2186    2.6849   -3.1392 C   0  0  0  0  0  0  0  0  0  0  0  0
   -4.4758   -0.9930    1.9667 C   0  0  0  0  0  0  0  0  0  0  0  0
    1.6897    0.2840    1.3035 C   0  0  0  0  0  0  0  0  0  0  0  0
   -1.8586    3.8488   -2.7131 C   0  0  0  0  0  0  0  0  0  0  0  0
   -5.5307   -0.8089    1.0728 C   0  0  0  0  0  0  0  0  0  0  0  0
    3.0297    0.6845    0.8048 C   0  0  0  0  0  0  0  0  0  0  0  0
    4.0207   -0.2789    0.6172 C   0  0  0  0  0  0  0  0  0  0  0  0
    3.2973    2.0243    0.5237 C   0  0  0  0  0  0  0  0  0  0  0  0
    5.2794    0.0974    0.1484 C   0  0  0  0  0  0  0  0  0  0  0  0
    4.5559    2.4007    0.0550 C   0  0  0  0  0  0  0  0  0  0  0  0
    5.5470    1.4373   -0.1327 C   0  0  0  0  0  0  0  0  0  0  0  0
  1  8  1  0
  1 26  1  0
  2 20  1  0
  2 21  1  0
  3 26  2  0
  4  9  1  0
  4 13  1  0
  4 14  1  0
  5 34  1  0
  6  7  1  0
  6  8  1  0
  6 10  1  0
  6 11  1  0
  7  9  1  0
  8 12  1  0
 10 15  2  0
 10 17  1  0
 11 16  2  0
 11 18  1  0
 12 19  1  0
 13 20  1  0
 14 21  1  0
 15 22  1  0
 16 23  1  0
 17 24  2  0
 18 25  2  0
 22 27  2  0
 23 28  2  0
 24 27  1  0
 25 28  1  0
 26 29  1  0
 29 30  2  0
 29 31  1  0
 30 32  1  0
 31 33  2  0
 32 34  2  0
 33 34  1  0
M  END
>  <PUBCHEM_COMPOUND_CID>  (1) 
44816

>  <PUBCHEM_CONFORMER_RMSD>  (1) 
1

>  <PUBCHEM_CONFORMER_DIVERSEORDER>  (1) 
2
21
76
73
38
28
66
17
23
72
20
59
64
85
91
54
81
34
25
10
14
61
65
67
40
63
75
13
60
26
42
27
80
90
46
89
37
36
55
9
83
97
43
58
19
24
74
78
70
95
62
84
30
22
51
50
96
53
93
49
35
5
87
71
77
15
57
1
47
33
45
82
98
88
100
12
94
11
16
44
32
41
86
29
56
4
69
68
8
31
48
99
79
39
3
7
18
6
52
92

>  <PUBCHEM_MMFF94_PARTIAL_CHARGES>  (1) 
47
1 -0.43
10 -0.14
11 -0.14
13 0.27
14 0.27
15 -0.15
16 -0.15
17 -0.15
18 -0.15
2 -0.56
20 0.28
21 0.28
22 -0.15
23 -0.15
24 -0.15
25 -0.15
26 0.63
27 -0.15
28 -0.15
29 0.09
3 -0.57
30 -0.15
31 -0.15
32 -0.15
33 -0.15
34 0.1
4 -0.81
46 0.15
47 0.15
48 0.15
49 0.15
5 -0.9
57 0.15
58 0.15
59 0.15
6 0.29
60 0.15
61 0.15
62 0.15
63 0.15
64 0.15
65 0.15
66 0.15
67 0.4
68 0.4
8 0.28
9 0.27

>  <PUBCHEM_EFFECTIVE_ROTOR_COUNT>  (1) 
11.2

>  <PUBCHEM_PHARMACOPHORE_FEATURES>  (1) 
10
1 19 hydrophobe
1 2 acceptor
1 3 acceptor
1 4 cation
1 5 cation
1 5 donor
6 10 15 17 22 24 27 rings
6 11 16 18 23 25 28 rings
6 2 4 13 14 20 21 rings
6 29 30 31 32 33 34 rings

>  <PUBCHEM_HEAVY_ATOM_COUNT>  (1) 
34

>  <PUBCHEM_ATOM_DEF_STEREO_COUNT>  (1) 
0

>  <PUBCHEM_ATOM_UDEF_STEREO_COUNT>  (1) 
1

>  <PUBCHEM_BOND_DEF_STEREO_COUNT>  (1) 
0

>  <PUBCHEM_BOND_UDEF_STEREO_COUNT>  (1) 
0

>  <PUBCHEM_ISOTOPIC_ATOM_COUNT>  (1) 
0

>  <PUBCHEM_COMPONENT_COUNT>  (1) 
1

>  <PUBCHEM_CACTVS_TAUTO_COUNT>  (1) 
2

>  <PUBCHEM_CONFORMER_ID>  (1) 
0000AF1000000002

>  <PUBCHEM_MMFF94_ENERGY>  (1) 
123.2448

>  <PUBCHEM_FEATURE_SELFOVERLAP>  (1) 
50.746

>  <PUBCHEM_SHAPE_FINGERPRINT>  (1) 
10165383 225 18271533082108771826
10940486 97 17762341713718228047
11297750 10 17829345587976068931
11488393 25 18266465304284190242
11578080 2 18124324804927071677
11763715 3 16009879299086364637
12058002 1 17755908278358709617
12107698 1 17530960311255980236
12160290 23 17625505215704879406
133893 2 17626098646956089746
13911987 19 18342454863291995833
14713325 29 18189049811427070393
14840074 17 18261114135614778781
14955137 171 17824550905456352241
15444296 7 17683534200754514661
15775530 1 17974281028736796751
19958102 18 18413107290866552662
20775438 99 17757523306637497231
21857420 4 13860196348837820204
2260408 40 18193588652067415139
23559900 14 17762048840104236783
25019877 29 18129673030904776790
5080951 261 17910080807111028768
5265222 85 18340490079469508172
57527306 92 17241035621575839733
57527452 28 18264220260173707153
57527585 21 18191558922973929789
7399639 24 18335987480073528679

>  <PUBCHEM_SHAPE_MULTIPOLES>  (1) 
672.13
9.84
6.4
2.54
9.11
9.45
-0.13
-4.46
-1.68
1.26
4.85
-1.66
-2.33
2.57

>  <PUBCHEM_SHAPE_SELFOVERLAP>  (1) 
1431.825

>  <PUBCHEM_SHAPE_VOLUME>  (1) 
370.1

>  <PUBCHEM_COORDINATE_TYPE>  (1) 
2
5
10

$$$$
