44824
     RDKit          3D

  9  8  0  0  0  0  0  0  0  0999 V2000
   -3.9745   -0.6920   -0.0312 S   0  0  0  0  0  0  0  0  0  0  0  0
    1.3318   -0.4968    0.0453 C   0  0  0  0  0  0  0  0  0  0  0  0
    0.0556    0.3477    0.0468 C   0  0  0  0  0  0  0  0  0  0  0  0
    2.5808    0.3873    0.0280 C   0  0  0  0  0  0  0  0  0  0  0  0
   -1.2282   -0.4880   -0.0082 C   0  0  0  0  0  0  0  0  0  0  0  0
    3.8565   -0.4537   -0.0122 C   0  0  0  0  0  0  0  0  0  0  0  0
   -2.4958    0.3626    0.0229 C   0  0  0  0  0  0  0  0  0  0  0  0
    5.0992    0.4208   -0.0623 C   0  0  0  0  0  0  0  0  0  0  0  0
   -5.2254    0.6121   -0.0291 C   0  0  0  0  0  0  0  0  0  0  0  0
  1  7  1  0
  1  9  1  0
  2  3  1  0
  2  4  1  0
  3  5  1  0
  4  6  1  0
  5  7  1  0
  6  8  1  0
M  END
>  <PUBCHEM_COMPOUND_CID>  (1) 
44824

>  <PUBCHEM_CONFORMER_RMSD>  (1) 
0.6

>  <PUBCHEM_CONFORMER_DIVERSEORDER>  (1) 
1
99
149
14
106
177
147
21
173
82
160
66
11
165
29
58
4
144
141
102
7
170
182
42
80
175
68
79
139
2
184
122
88
186
28
46
10
140
8
91
107
109
33
9
34
166
24
154
158
12
81
50
117
159
3
73
185
131
17
25
78
43
101
95
180
137
52
97
71
59
134
44
112
36
41
164
157
16
153
5
179
69
92
148
56
130
128
26
31
142
150
49
178
61
161
23
168
136
37
100
45
183
27
151
181
77
145
83
51
98
15
64
13
20
156
94
162
114
18
87
135
111
47
163
60
89
96
118
62
6
57
172
138
19
22
104
67
48
54
55
75
124
119
65
110
70
63
127
171
105
84
155
38
85
116
129
93
143
123
39
132
133
167
35
176
146
40
121
30
53
126
113
76
152
115
125
90
174
103
72
32
120
74
108
86
169

>  <PUBCHEM_MMFF94_PARTIAL_CHARGES>  (1) 
3
1 -0.46
7 0.23
9 0.23

>  <PUBCHEM_EFFECTIVE_ROTOR_COUNT>  (1) 
6

>  <PUBCHEM_PHARMACOPHORE_FEATURES>  (1) 
2
1 8 hydrophobe
1 9 hydrophobe

>  <PUBCHEM_HEAVY_ATOM_COUNT>  (1) 
9

>  <PUBCHEM_ATOM_DEF_STEREO_COUNT>  (1) 
0

>  <PUBCHEM_ATOM_UDEF_STEREO_COUNT>  (1) 
0

>  <PUBCHEM_BOND_DEF_STEREO_COUNT>  (1) 
0

>  <PUBCHEM_BOND_UDEF_STEREO_COUNT>  (1) 
0

>  <PUBCHEM_ISOTOPIC_ATOM_COUNT>  (1) 
0

>  <PUBCHEM_COMPONENT_COUNT>  (1) 
1

>  <PUBCHEM_CACTVS_TAUTO_COUNT>  (1) 
1

>  <PUBCHEM_CONFORMER_ID>  (1) 
0000AF1800000001

>  <PUBCHEM_MMFF94_ENERGY>  (1) 
1.6414

>  <PUBCHEM_FEATURE_SELFOVERLAP>  (1) 
10.149

>  <PUBCHEM_SHAPE_FINGERPRINT>  (1) 
11062470 55 18410293613981361539
14123238 8 11743839166181125171
15501527 16 18337674110306333161
17834072 33 18272650207244571196
17834076 25 17458345243078206387
18342897 14 18411699885248360329
20645477 70 17703235001467935294
20719005 15 18411138038937873770
20767249 13 10664102246377477381
22485316 2 18412260640352329919
23402539 116 18342451552177958071
23402655 69 18343862195484176637
366044 4 18335420175287188611
42788 4 18410573989446424933

>  <PUBCHEM_SHAPE_MULTIPOLES>  (1) 
189.07
11.84
0.87
0.63
0.1
0.03
0
-1.37
-0.3
0.29
0
0.04
0.01
-0.01

>  <PUBCHEM_SHAPE_SELFOVERLAP>  (1) 
315.336

>  <PUBCHEM_SHAPE_VOLUME>  (1) 
129.2

>  <PUBCHEM_COORDINATE_TYPE>  (1) 
2
5
10

$$$$
