44837
     RDKit          3D

 16 17  0  0  0  0  0  0  0  0999 V2000
    0.0347   -0.5728   -0.0051 O   0  0  0  0  0  0  0  0  0  0  0  0
   -1.2854   -2.4584    0.0175 O   0  0  0  0  0  0  0  0  0  0  0  0
    4.0797    0.7316    1.2203 N   0  0  0  0  0  0  0  0  0  0  0  0
   -3.0602    1.9964   -0.0127 N   0  0  0  0  0  0  0  0  0  0  0  0
    2.4218   -0.4973   -0.0174 C   0  0  0  0  0  0  0  0  0  0  0  0
    1.2129   -1.3862   -0.0039 C   0  0  0  0  0  0  0  0  0  0  0  0
    2.9824   -0.0908   -1.2154 C   0  0  0  0  0  0  0  0  0  0  0  0
   -2.2831   -0.2929    0.0025 C   0  0  0  0  0  0  0  0  0  0  0  0
    2.9926   -0.0700    1.1627 C   0  0  0  0  0  0  0  0  0  0  0  0
   -1.1691   -1.2246    0.0063 C   0  0  0  0  0  0  0  0  0  0  0  0
   -3.5973   -0.7467    0.0114 C   0  0  0  0  0  0  0  0  0  0  0  0
    4.1016    0.7341   -1.1971 C   0  0  0  0  0  0  0  0  0  0  0  0
   -2.0699    1.0763   -0.0095 C   0  0  0  0  0  0  0  0  0  0  0  0
    4.6073    1.1139    0.0357 C   0  0  0  0  0  0  0  0  0  0  0  0
   -4.6434    0.1695    0.0083 C   0  0  0  0  0  0  0  0  0  0  0  0
   -4.3246    1.5178   -0.0037 C   0  0  0  0  0  0  0  0  0  0  0  0
  1  6  1  0
  1 10  1  0
  2 10  2  0
  3  9  2  0
  3 14  1  0
  4 13  2  0
  4 16  1  0
  5  6  1  0
  5  7  2  0
  5  9  1  0
  7 12  1  0
  8 10  1  0
  8 11  2  0
  8 13  1  0
 11 15  1  0
 12 14  2  0
 15 16  2  0
M  END
>  <PUBCHEM_COMPOUND_CID>  (1) 
44837

>  <PUBCHEM_CONFORMER_RMSD>  (1) 
0.6

>  <PUBCHEM_CONFORMER_DIVERSEORDER>  (1) 
1
51
70
80
8
50
20
55
69
12
65
6
53
73
79
13
10
78
75
56
5
15
49
58
52
11
71
7
66
57
41
74
54
23
77
76
27
36
72
3
9
35
25
45
60
37
4
67
46
81
63
39
24
83
61
33
2
68
38
22
31
87
34
64
43
21
40
59
42
30
62
84
48
29
44
28
14
47
82
16
17
26
85
19
32
88
18
86

>  <PUBCHEM_MMFF94_PARTIAL_CHARGES>  (1) 
24
1 -0.43
10 0.63
11 -0.15
12 -0.15
13 0.16
14 0.16
15 -0.15
16 0.16
19 0.15
2 -0.57
20 0.15
21 0.15
22 0.15
23 0.15
24 0.15
25 0.15
26 0.15
3 -0.62
4 -0.62
5 -0.14
6 0.42
7 -0.15
8 0.09
9 0.16

>  <PUBCHEM_EFFECTIVE_ROTOR_COUNT>  (1) 
4

>  <PUBCHEM_PHARMACOPHORE_FEATURES>  (1) 
5
1 2 acceptor
1 3 acceptor
1 4 acceptor
6 3 5 7 9 12 14 rings
6 4 8 11 13 15 16 rings

>  <PUBCHEM_HEAVY_ATOM_COUNT>  (1) 
16

>  <PUBCHEM_ATOM_DEF_STEREO_COUNT>  (1) 
0

>  <PUBCHEM_ATOM_UDEF_STEREO_COUNT>  (1) 
0

>  <PUBCHEM_BOND_DEF_STEREO_COUNT>  (1) 
0

>  <PUBCHEM_BOND_UDEF_STEREO_COUNT>  (1) 
0

>  <PUBCHEM_ISOTOPIC_ATOM_COUNT>  (1) 
0

>  <PUBCHEM_COMPONENT_COUNT>  (1) 
1

>  <PUBCHEM_CACTVS_TAUTO_COUNT>  (1) 
1

>  <PUBCHEM_CONFORMER_ID>  (1) 
0000AF2500000001

>  <PUBCHEM_MMFF94_ENERGY>  (1) 
44.073

>  <PUBCHEM_FEATURE_SELFOVERLAP>  (1) 
25.373

>  <PUBCHEM_SHAPE_FINGERPRINT>  (1) 
10498660 4 18341332206106898473
10670039 82 18262249819810933420
11132069 177 18261394412627923229
11543360 7 15913035534830220773
12173636 292 18411978036163126767
12236239 1 17749106721088661068
12390115 104 18058183747704320097
12403814 3 17458057171216456261
12596602 18 17022625303250610809
12788726 201 17317904786024637570
13081056 2 18272091582275640124
13675066 3 12973883723458826351
13897977 58 18333735744837073637
1420 369 9079110059861356493
15239191 94 9871749109026809500
15885798 251 8934995975792484327
1741750 31 18411702079802776699
1798214 55 18410856533938674556
18186145 218 17561367266155320779
193927 3 9511170889337478901
20374829 77 9439403519145521593
20432913 95 14129058114416368369
20645477 56 18341897415202217110
20645477 70 16558764399108687710
20767249 442 18411418410466653018
212847 35 18411699859794905360
21503847 285 17603876606911097028
21652331 79 18408323276518298781
22485316 2 10015578402557277226
23048698 100 17022901254988639994
23227448 37 18199464544378382429
23402539 116 18411409648754773903
23402655 69 17203612583930927656
23403322 49 9295287244506366833
235170 7 16630526215464910213
23557571 272 18129671931324498614
23559900 14 18272094868532497718
26918003 58 12829483766203143844
3268164 11 18272359906479228863
4028521 119 18131634473727945585
474 4 17458349671215894852
4921388 177 15984530213480233797
5104073 3 18263367988997767179
5281201 14 17203338784097977580
633830 44 18200030612873628279
7808743 9 18265897037466788676

>  <PUBCHEM_SHAPE_MULTIPOLES>  (1) 
307.57
10.51
1.77
0.95
0.74
0.24
0
-4.82
0.04
-1.25
0.01
1.26
-0.11
-0.02

>  <PUBCHEM_SHAPE_SELFOVERLAP>  (1) 
658.639

>  <PUBCHEM_SHAPE_VOLUME>  (1) 
168.2

>  <PUBCHEM_COORDINATE_TYPE>  (1) 
2
5
10

$$$$
