44838
     RDKit          3D

 14 13  0  0  1  0  0  0  0  0999 V2000
    2.5150   -1.8098    1.0526 Cl  0  0  0  0  0  0  0  0  0  0  0  0
    2.7106    1.0459    1.5594 Cl  0  0  0  0  0  0  0  0  0  0  0  0
    4.1088   -0.1421   -0.7004 Cl  0  0  0  0  0  0  0  0  0  0  0  0
    0.1762   -0.0934    0.1630 O   0  0  0  0  0  0  0  0  0  0  0  0
   -1.1154    0.2301   -1.7213 O   0  0  0  0  0  0  0  0  0  0  0  0
   -2.1687   -0.1069    0.4439 C   0  0  0  0  0  0  0  0  0  0  0  0
   -3.0354   -1.3096    0.0365 C   0  0  0  0  0  0  0  0  0  0  0  0
   -2.9995    1.1866    0.4421 C   0  0  0  0  0  0  0  0  0  0  0  0
   -0.9996    0.0328   -0.5184 C   0  0  0  0  0  0  0  0  0  0  0  0
    1.3623    0.0201   -0.6293 C   0  0  0  0  0  0  0  0  0  0  0  0
   -2.2604   -2.6212    0.0426 C   0  0  0  0  0  0  0  0  0  0  0  0
   -2.2051    2.3960    0.9185 C   0  0  0  0  0  0  0  0  0  0  0  0
    2.5989   -0.1926    0.2681 C   0  0  0  0  0  0  0  0  0  0  0  0
    1.3124    1.3640   -1.3572 C   0  0  0  0  0  0  0  0  0  0  0  0
  1 13  1  0
  2 13  1  0
  3 13  1  0
  4  9  1  0
  4 10  1  0
  5  9  2  0
  6  7  1  0
  6  8  1  0
  6  9  1  0
  7 11  1  0
  8 12  1  0
 10 13  1  0
 10 14  1  0
M  END
>  <PUBCHEM_COMPOUND_CID>  (1) 
44838

>  <PUBCHEM_CONFORMER_RMSD>  (1) 
0.6

>  <PUBCHEM_CONFORMER_DIVERSEORDER>  (1) 
2
26
69
64
61
48
71
54
66
35
31
73
37
30
42
58
50
62
49
32
57
8
70
53
74
33
56
1
21
55
9
34
63
20
68
59
17
12
4
43
14
47
10
67
16
24
19
27
6
23
51
22
7
52
65
28
40
44
18
11
46
29
72
60
36
25
41
45
13
5
38
3
15
39

>  <PUBCHEM_MMFF94_PARTIAL_CHARGES>  (1) 
9
1 -0.29
10 0.28
13 0.87
2 -0.29
3 -0.29
4 -0.43
5 -0.57
6 0.06
9 0.66

>  <PUBCHEM_EFFECTIVE_ROTOR_COUNT>  (1) 
6

>  <PUBCHEM_PHARMACOPHORE_FEATURES>  (1) 
3
1 11 hydrophobe
1 12 hydrophobe
1 5 acceptor

>  <PUBCHEM_HEAVY_ATOM_COUNT>  (1) 
14

>  <PUBCHEM_ATOM_DEF_STEREO_COUNT>  (1) 
0

>  <PUBCHEM_ATOM_UDEF_STEREO_COUNT>  (1) 
1

>  <PUBCHEM_BOND_DEF_STEREO_COUNT>  (1) 
0

>  <PUBCHEM_BOND_UDEF_STEREO_COUNT>  (1) 
0

>  <PUBCHEM_ISOTOPIC_ATOM_COUNT>  (1) 
0

>  <PUBCHEM_COMPONENT_COUNT>  (1) 
1

>  <PUBCHEM_CACTVS_TAUTO_COUNT>  (1) 
1

>  <PUBCHEM_CONFORMER_ID>  (1) 
0000AF2600000002

>  <PUBCHEM_MMFF94_ENERGY>  (1) 
18.1039

>  <PUBCHEM_FEATURE_SELFOVERLAP>  (1) 
15.223

>  <PUBCHEM_SHAPE_FINGERPRINT>  (1) 
10366900 7 18131911576385841723
12251169 10 18334304153741413877
124424 183 17417531302793830220
12500047 106 18340769234625405945
12932764 1 17603862299863265892
13533116 47 18269828740597428659
13538477 17 18409456890091355541
13705890 14 12396299245013598080
14144814 61 17966970521467318370
14178342 30 18334845126363110178
14965852 173 18411422808202116130
15279307 12 18261118439114344378
15375462 189 17749113270634199816
15653759 3 17847066583840827266
16945 1 18040708190652405207
19422 9 18335427854915235846
20281475 54 18262512590447623482
20361792 2 16805599278543494358
20442098 301 18409729594692360082
20645477 70 15213286526661659786
21524375 3 17698722506879047545
22169311 14 18272647918195723074
22445834 79 18187369817699057019
23402539 116 18201435857880689949
23419403 2 15959435217670172318
23493267 7 17988093179356137722
23526113 38 17273435884347053886
23557571 272 18059580234244215625
23598291 2 18187943801402187918
23598294 1 18412550894574282675
305870 269 17835811798431009833
6049 1 17775573065111741632
6992083 37 18115876208817771741
74978 22 18409728447867195460
81228 2 18271824444617162465

>  <PUBCHEM_SHAPE_MULTIPOLES>  (1) 
281.98
6.33
2.25
1.37
2.18
0.51
0.1
0.59
-0.81
-1.78
-0.62
0.72
-0.41
-0.58

>  <PUBCHEM_SHAPE_SELFOVERLAP>  (1) 
509.506

>  <PUBCHEM_SHAPE_VOLUME>  (1) 
182.1

>  <PUBCHEM_COORDINATE_TYPE>  (1) 
2
5
10

$$$$
