4484
     RDKit          3D

 22 23  0  0  1  0  0  0  0  0999 V2000
   -5.3089   -0.6408    0.0420 P   0  0  0  0  0  0  0  0  0  0  0  0
   -0.5352    0.3763   -1.2257 O   0  0  0  0  0  0  0  0  0  0  0  0
   -1.2210    0.0445    1.6857 O   0  0  0  0  0  0  0  0  0  0  0  0
    0.1272    3.1157    0.4263 O   0  0  0  0  0  0  0  0  0  0  0  0
   -3.9631    0.2859    0.0077 O   0  0  0  0  0  0  0  0  0  0  0  0
   -5.7212   -0.5805   -1.5382 O   0  0  0  0  0  0  0  0  0  0  0  0
   -6.3720    0.0903    0.8329 O   0  0  0  0  0  0  0  0  0  0  0  0
   -4.9406   -2.0670    0.3892 O   0  0  0  0  0  0  0  0  0  0  0  0
    5.5126    1.1786   -0.4566 O   0  0  0  0  0  0  0  0  0  0  0  0
    6.3272   -0.8510    0.1630 O   0  0  0  0  0  0  0  0  0  0  0  0
    1.6675    0.0032   -0.2846 N   0  0  0  0  0  0  0  0  0  0  0  0
   -1.2739    1.2005    0.8596 C   0  0  0  0  0  0  0  0  0  0  0  0
    0.1400    1.7086    0.6527 C   0  0  0  0  0  0  0  0  0  0  0  0
   -1.7139    0.8577   -0.5595 C   0  0  0  0  0  0  0  0  0  0  0  0
    0.6097    0.9956   -0.6147 C   0  0  0  0  0  0  0  0  0  0  0  0
   -2.8133   -0.1817   -0.6788 C   0  0  0  0  0  0  0  0  0  0  0  0
    2.9576    0.3781   -0.3364 C   0  0  0  0  0  0  0  0  0  0  0  0
    1.3088   -1.2463    0.0586 C   0  0  0  0  0  0  0  0  0  0  0  0
    3.9650   -0.5264   -0.0328 C   0  0  0  0  0  0  0  0  0  0  0  0
    2.2733   -2.1931    0.3724 C   0  0  0  0  0  0  0  0  0  0  0  0
    3.6145   -1.8249    0.3249 C   0  0  0  0  0  0  0  0  0  0  0  0
    5.3597   -0.1235   -0.0879 C   0  0  0  0  0  0  0  0  0  0  0  0
  1  5  1  0
  1  6  1  0
  1  7  1  0
  1  8  2  0
  2 14  1  0
  2 15  1  0
  3 12  1  0
  4 13  1  0
  5 16  1  0
  9 22  1  0
 10 22  2  0
 11 15  1  0
 11 17  2  0
 11 18  1  0
 12 13  1  0
 12 14  1  0
 13 15  1  0
 14 16  1  0
 17 19  1  0
 18 20  2  0
 19 21  2  0
 19 22  1  0
 20 21  1  0
M  CHG  2   7  -1  11   1
M  END
>  <PUBCHEM_COMPOUND_CID>  (1) 
4484

>  <PUBCHEM_CONFORMER_RMSD>  (1) 
0.8

>  <PUBCHEM_CONFORMER_DIVERSEORDER>  (1) 
1
63
276
56
24
302
115
283
48
46
160
195
293
136
278
181
249
22
251
223
204
157
279
153
11
189
222
314
53
282
229
271
311
218
177
131
179
49
268
235
216
294
159
32
78
74
20
220
3
62
86
312
33
234
103
212
186
143
91
237
76
28
289
292
144
291
121
221
128
296
269
295
313
232
307
310
25
110
7
170
197
155
217
308
89
259
228
66
162
319
270
224
214
100
119
156
213
211
253
166
132
284
23
87
152
264
161
145
202
34
280
6
243
245
98
275
188
257
265
96
192
124
19
85
92
225
315
277
169
250
125
227
88
247
248
50
184
300
114
142
150
69
81
201
61
318
317
230
4
199
240
113
12
163
139
206
285
239
60
13
39
287
281
194
256
286
305
44
274
51
290
215
15
5
196
175
172
200
75
151
260
102
122
52
45
65
301
297
261
210
37
154
191
288
207
187
77
176
41
148
203
180
43
72
134
106
303
83
158
190
183
140
14
209
126
299
57
193
168
219
133
241
127
254
244
104
42
137
255
266
273
309
242
208
67
120
298
146
304
101
79
54
236
8
231
306
9
47
173
108
178
316
138
118
35
205
90
258
117
167
233
18
116
99
164
97
84
64
70
80
263
272
68
123
238
182
27
149
16
165
185
59
2
94
36
246
105
71
262
26
252
198
109
55
147
30
135
17
95
29
40
73
82
171
141
31
10
111
38
107
267
93
21
58
130
129
112
174
226

>  <PUBCHEM_MMFF94_PARTIAL_CHARGES>  (1) 
30
1 1.44
10 -0.57
11 -0.21
12 0.28
13 0.28
14 0.28
15 0.77
16 0.28
17 0.21
18 0.21
19 0.09
2 -0.56
20 -0.15
21 -0.15
22 0.63
29 0.4
3 -0.68
30 0.4
31 0.15
32 0.15
33 0.15
34 0.15
35 0.5
36 0.5
4 -0.68
5 -0.55
6 -0.77
7 -0.95
8 -0.95
9 -0.65

>  <PUBCHEM_EFFECTIVE_ROTOR_COUNT>  (1) 
6

>  <PUBCHEM_PHARMACOPHORE_FEATURES>  (1) 
14
1 10 acceptor
1 2 acceptor
1 3 acceptor
1 3 donor
1 4 acceptor
1 4 donor
1 6 acceptor
1 7 acceptor
1 8 acceptor
1 9 acceptor
3 9 10 22 anion
4 1 6 7 8 anion
5 2 12 13 14 15 rings
6 11 17 18 19 20 21 rings

>  <PUBCHEM_HEAVY_ATOM_COUNT>  (1) 
22

>  <PUBCHEM_ATOM_DEF_STEREO_COUNT>  (1) 
0

>  <PUBCHEM_ATOM_UDEF_STEREO_COUNT>  (1) 
4

>  <PUBCHEM_BOND_DEF_STEREO_COUNT>  (1) 
0

>  <PUBCHEM_BOND_UDEF_STEREO_COUNT>  (1) 
0

>  <PUBCHEM_ISOTOPIC_ATOM_COUNT>  (1) 
0

>  <PUBCHEM_COMPONENT_COUNT>  (1) 
1

>  <PUBCHEM_CACTVS_TAUTO_COUNT>  (1) 
1

>  <PUBCHEM_CONFORMER_ID>  (1) 
0000118400000001

>  <PUBCHEM_MMFF94_ENERGY>  (1) 
40.4448

>  <PUBCHEM_FEATURE_SELFOVERLAP>  (1) 
71.151

>  <PUBCHEM_SHAPE_FINGERPRINT>  (1) 
10366900 7 18334021566959076096
10447042 23 18334569123132776606
106641 1 16415190222045423623
11045515 52 18187926144729168348
11045977 3 13470679365520388007
11265709 11 18343584031980447017
11796584 16 18113333103285273587
12166972 35 17967536762099184828
12236239 1 17989208148370881724
12516196 113 18343300375101885889
12553582 1 18200294581088867159
12596602 18 16988839523106282635
12916754 54 18196091041310413918
13533116 47 18337106775038276746
13740256 8 18410575128103440227
13899415 154 18130795589643541056
14251764 18 18273500070647583801
14787075 74 18334858333492988058
15048467 5 14692566637546744034
15099037 51 9079113362891277384
15375462 189 18343294877459487551
15537594 2 18343858918324526991
15927050 60 17622724636934709868
17492 89 18123467177257065030
17834072 8 8286199470415813778
18335252 114 8934725453177810907
200 152 18408321060309567940
21033648 29 14045455584342474163
21250096 35 18412542098586871907
21267235 1 18411986823977431014
21521721 280 18337394949878833592
22079108 93 18271800255509057400
23035841 295 18202282494112493254
23402539 116 15719388425912485431
23559900 14 18189614007163353897
2838139 119 9223230737237979435
314194 84 18413385445401364207
347723 3 14345793842552492565
351380 3 18131626794505892143
4325135 7 18334577936495143982
4463277 17 18343584036153958381
474229 33 18409448085630243638
5104073 3 18127403463328014674
5283173 99 17749662987535419901
54446538 1 9583517607894820803
5486654 2 18410016554864267958
59682541 35 18342167921523408050

>  <PUBCHEM_SHAPE_MULTIPOLES>  (1) 
398.79
13.69
2.05
1.01
5.72
0.39
-0.02
-5.17
0.7
-0.5
-0.42
0.89
0.08
-0.46

>  <PUBCHEM_SHAPE_SELFOVERLAP>  (1) 
825.289

>  <PUBCHEM_SHAPE_VOLUME>  (1) 
230.9

>  <PUBCHEM_COORDINATE_TYPE>  (1) 
2
5
10

$$$$
