44840
     RDKit          3D

 14 13  0  0  1  0  0  0  0  0999 V2000
   -0.7846    2.7565   -0.0133 Br  0  0  0  0  0  0  0  0  0  0  0  0
    1.1035    0.8493   -1.4821 F   0  0  0  0  0  0  0  0  0  0  0  0
    1.9365    1.2907    0.4811 F   0  0  0  0  0  0  0  0  0  0  0  0
   -0.3806    0.7108    1.7172 F   0  0  0  0  0  0  0  0  0  0  0  0
    0.5492   -1.7476   -0.6280 F   0  0  0  0  0  0  0  0  0  0  0  0
    1.4219   -1.2676    1.3135 F   0  0  0  0  0  0  0  0  0  0  0  0
    2.6361   -1.1373   -0.4931 F   0  0  0  0  0  0  0  0  0  0  0  0
   -2.1357   -0.6670    0.6141 O   0  0  0  0  0  0  0  0  0  0  0  0
   -1.7148    0.1168   -1.5109 O   0  0  0  0  0  0  0  0  0  0  0  0
    1.0091    0.5314   -0.1651 C   0  0  0  0  0  0  0  0  0  0  0  0
   -0.3757    0.8790    0.3658 C   0  0  0  0  0  0  0  0  0  0  0  0
    1.4008   -0.9178    0.0097 C   0  0  0  0  0  0  0  0  0  0  0  0
   -1.4758    0.0906   -0.3098 C   0  0  0  0  0  0  0  0  0  0  0  0
   -3.1898   -1.4878    0.1009 C   0  0  0  0  0  0  0  0  0  0  0  0
  1 11  1  0
  2 10  1  0
  3 10  1  0
  4 11  1  0
  5 12  1  0
  6 12  1  0
  7 12  1  0
  8 13  1  0
  8 14  1  0
  9 13  2  0
 10 11  1  0
 10 12  1  0
 11 13  1  0
M  END
>  <PUBCHEM_COMPOUND_CID>  (1) 
44840

>  <PUBCHEM_CONFORMER_RMSD>  (1) 
0.6

>  <PUBCHEM_CONFORMER_DIVERSEORDER>  (1) 
1
13
17
16
5
11
18
3
14
2
6
15
12
7
9
8
4
10

>  <PUBCHEM_MMFF94_PARTIAL_CHARGES>  (1) 
14
1 -0.23
10 0.68
11 0.63
12 1.02
13 0.66
14 0.28
2 -0.34
3 -0.34
4 -0.34
5 -0.34
6 -0.34
7 -0.34
8 -0.43
9 -0.57

>  <PUBCHEM_EFFECTIVE_ROTOR_COUNT>  (1) 
4

>  <PUBCHEM_PHARMACOPHORE_FEATURES>  (1) 
2
1 1 hydrophobe
1 9 acceptor

>  <PUBCHEM_HEAVY_ATOM_COUNT>  (1) 
14

>  <PUBCHEM_ATOM_DEF_STEREO_COUNT>  (1) 
0

>  <PUBCHEM_ATOM_UDEF_STEREO_COUNT>  (1) 
1

>  <PUBCHEM_BOND_DEF_STEREO_COUNT>  (1) 
0

>  <PUBCHEM_BOND_UDEF_STEREO_COUNT>  (1) 
0

>  <PUBCHEM_ISOTOPIC_ATOM_COUNT>  (1) 
0

>  <PUBCHEM_COMPONENT_COUNT>  (1) 
1

>  <PUBCHEM_CACTVS_TAUTO_COUNT>  (1) 
1

>  <PUBCHEM_CONFORMER_ID>  (1) 
0000AF2800000001

>  <PUBCHEM_MMFF94_ENERGY>  (1) 
13.0079

>  <PUBCHEM_FEATURE_SELFOVERLAP>  (1) 
10.148

>  <PUBCHEM_SHAPE_FINGERPRINT>  (1) 
12423570 1 11418704197723797893
13024252 1 14492758848550206116
137420 1 10797600335638523753
14128692 85 18409456885680343750
14817 1 11584185297661351385
16945 1 18122615063955022001
23552423 10 18114187427660991301
241688 4 18338530663374458496
2748010 2 18340759407856394285
29004967 10 18337670935634112793
5084963 1 18041008357537849502
528862 383 18125152981752725475

>  <PUBCHEM_SHAPE_MULTIPOLES>  (1) 
238.67
3.21
2.27
1.18
1.12
1.27
-0.02
-1.9
0.11
0.34
-0.07
-0.01
0.06
0.05

>  <PUBCHEM_SHAPE_SELFOVERLAP>  (1) 
473.61

>  <PUBCHEM_SHAPE_VOLUME>  (1) 
145.7

>  <PUBCHEM_COORDINATE_TYPE>  (1) 
2
5
10

$$$$
