44846
     RDKit          3D

 24 25  0  0  1  0  0  0  0  0999 V2000
    1.4047    1.7817   -1.0397 O   0  0  0  0  0  0  0  0  0  0  0  0
   -0.3628    0.9948   -2.2709 O   0  0  0  0  0  0  0  0  0  0  0  0
   -3.2128    1.8523    1.0733 N   0  0  0  0  0  0  0  0  0  0  0  0
    0.0797    0.0138   -0.0492 C   0  0  0  0  0  0  0  0  0  0  0  0
   -0.9267    0.8608    0.8758 C   0  0  0  0  0  0  0  0  0  0  0  0
   -2.2611    1.2203    0.1602 C   0  0  0  0  0  0  0  0  0  0  0  0
   -0.5502   -1.3384   -0.5154 C   0  0  0  0  0  0  0  0  0  0  0  0
    1.4004   -0.3891    0.6749 C   0  0  0  0  0  0  0  0  0  0  0  0
   -0.3041    2.1557    1.4482 C   0  0  0  0  0  0  0  0  0  0  0  0
    0.3410    0.9526   -1.2667 C   0  0  0  0  0  0  0  0  0  0  0  0
   -1.4011   -1.9618    0.3441 C   0  0  0  0  0  0  0  0  0  0  0  0
    2.5324   -0.4700   -0.0788 C   0  0  0  0  0  0  0  0  0  0  0  0
   -0.2045   -1.7982   -1.7485 C   0  0  0  0  0  0  0  0  0  0  0  0
    1.3356   -0.6332    2.0136 C   0  0  0  0  0  0  0  0  0  0  0  0
   -3.5805    0.9300    2.1470 C   0  0  0  0  0  0  0  0  0  0  0  0
   -4.4035    2.2918    0.3468 C   0  0  0  0  0  0  0  0  0  0  0  0
   -1.9635   -3.1686   -0.0718 C   0  0  0  0  0  0  0  0  0  0  0  0
    3.7141   -0.8301    0.5689 C   0  0  0  0  0  0  0  0  0  0  0  0
   -0.7671   -3.0049   -2.1643 C   0  0  0  0  0  0  0  0  0  0  0  0
    2.5174   -0.9933    2.6612 C   0  0  0  0  0  0  0  0  0  0  0  0
   -1.6466   -3.6900   -1.3260 C   0  0  0  0  0  0  0  0  0  0  0  0
    3.7066   -1.0917    1.9388 C   0  0  0  0  0  0  0  0  0  0  0  0
    1.6769    2.7430   -2.0647 C   0  0  0  0  0  0  0  0  0  0  0  0
    2.8758    3.5724   -1.6569 C   0  0  0  0  0  0  0  0  0  0  0  0
  1 10  1  0
  1 23  1  0
  2 10  2  0
  3  6  1  0
  3 15  1  0
  3 16  1  0
  4  5  1  0
  4  7  1  0
  4  8  1  0
  4 10  1  0
  5  6  1  0
  5  9  1  0
  7 11  2  0
  7 13  1  0
  8 12  2  0
  8 14  1  0
 11 17  1  0
 12 18  1  0
 13 19  2  0
 14 20  2  0
 17 21  2  0
 18 22  2  0
 19 21  1  0
 20 22  1  0
 23 24  1  0
M  END
>  <PUBCHEM_COMPOUND_CID>  (1) 
44846

>  <PUBCHEM_CONFORMER_RMSD>  (1) 
0.8

>  <PUBCHEM_CONFORMER_DIVERSEORDER>  (1) 
1
13
24
18
23
16
10
4
17
14
19
9
15
12
7
26
20
6
5
3
8
25
22
11
2
21

>  <PUBCHEM_MMFF94_PARTIAL_CHARGES>  (1) 
31
1 -0.43
10 0.66
11 -0.15
12 -0.15
13 -0.15
14 -0.15
15 0.27
16 0.27
17 -0.15
18 -0.15
19 -0.15
2 -0.57
20 -0.15
21 -0.15
22 -0.15
23 0.28
3 -0.81
31 0.15
32 0.15
33 0.15
34 0.15
4 0.35
41 0.15
42 0.15
43 0.15
44 0.15
45 0.15
46 0.15
6 0.27
7 -0.14
8 -0.14

>  <PUBCHEM_EFFECTIVE_ROTOR_COUNT>  (1) 
8

>  <PUBCHEM_PHARMACOPHORE_FEATURES>  (1) 
5
1 2 acceptor
1 3 cation
1 9 hydrophobe
6 7 11 13 17 19 21 rings
6 8 12 14 18 20 22 rings

>  <PUBCHEM_HEAVY_ATOM_COUNT>  (1) 
24

>  <PUBCHEM_ATOM_DEF_STEREO_COUNT>  (1) 
0

>  <PUBCHEM_ATOM_UDEF_STEREO_COUNT>  (1) 
1

>  <PUBCHEM_BOND_DEF_STEREO_COUNT>  (1) 
0

>  <PUBCHEM_BOND_UDEF_STEREO_COUNT>  (1) 
0

>  <PUBCHEM_ISOTOPIC_ATOM_COUNT>  (1) 
0

>  <PUBCHEM_COMPONENT_COUNT>  (1) 
1

>  <PUBCHEM_CACTVS_TAUTO_COUNT>  (1) 
1

>  <PUBCHEM_CONFORMER_ID>  (1) 
0000AF2E00000001

>  <PUBCHEM_MMFF94_ENERGY>  (1) 
90.0049

>  <PUBCHEM_FEATURE_SELFOVERLAP>  (1) 
25.371

>  <PUBCHEM_SHAPE_FINGERPRINT>  (1) 
10756046 70 18334296461302110100
11421498 54 17615416186986182331
11578080 2 17832667482611643597
11582403 64 17611232381843625901
12293681 160 17111852020469742773
12716301 132 17631467806831507867
12788726 201 18125437759638914759
133893 2 17315334067998965648
13583140 156 17530974596142711241
14817 1 16450944943973280646
14863182 85 18129107715072727173
14943834 7 18263645241394001012
15420108 30 18336838527970442421
16945 1 18261116222836885715
17980427 23 18261954021129008385
17980427 26 17386011714492680608
20600515 1 17249995563426787770
21033648 29 18055333774319920128
22112679 90 18261099786551126794
229495 10 17168421571717083556
22956985 138 17545597851938087683
23419403 2 15389406427810363395
23558518 356 17610647553764791444
23598288 3 18269557293994697498
25222932 49 17032517756175673227
266924 1 18119247517452688604
266924 78 17241889984944191391
394222 165 18117870817184197201
427121 178 17702953504878965107
5845 1 13742540938038316066
81228 2 18054191501739034771
9999458 23 17487609724151306872

>  <PUBCHEM_SHAPE_MULTIPOLES>  (1) 
477.19
5.45
4.27
2.64
0.53
0.59
0.09
-2.35
2.84
1.82
-2.64
-1.11
-0.21
-3.51

>  <PUBCHEM_SHAPE_SELFOVERLAP>  (1) 
1002.051

>  <PUBCHEM_SHAPE_VOLUME>  (1) 
269.1

>  <PUBCHEM_COORDINATE_TYPE>  (1) 
2
5
10

$$$$
