44850
     RDKit          3D

  8  7  0  0  1  0  0  0  0  0999 V2000
   -0.3134   -1.6443    0.0856 F   0  0  0  0  0  0  0  0  0  0  0  0
   -1.1104    0.6578   -1.3376 O   0  0  0  0  0  0  0  0  0  0  0  0
    1.6679    1.2760    0.6198 O   0  0  0  0  0  0  0  0  0  0  0  0
    2.0780   -0.5808   -0.6217 O   0  0  0  0  0  0  0  0  0  0  0  0
   -1.1267    0.5602    0.0853 C   0  0  0  0  0  0  0  0  0  0  0  0
   -0.0306   -0.3950    0.5547 C   0  0  0  0  0  0  0  0  0  0  0  0
   -2.5066    0.0666    0.4966 C   0  0  0  0  0  0  0  0  0  0  0  0
    1.3417    0.0595    0.1173 C   0  0  0  0  0  0  0  0  0  0  0  0
  1  6  1  0
  2  5  1  0
  3  8  1  0
  4  8  2  0
  5  6  1  0
  5  7  1  0
  6  8  1  0
M  END
>  <PUBCHEM_COMPOUND_CID>  (1) 
44850

>  <PUBCHEM_CONFORMER_RMSD>  (1) 
0.4

>  <PUBCHEM_CONFORMER_DIVERSEORDER>  (1) 
3
21
4
5
8
17
6
12
20
7
13
24
19
16
9
23
11
18
14
1
2
22
15
10

>  <PUBCHEM_MMFF94_PARTIAL_CHARGES>  (1) 
9
1 -0.34
14 0.4
15 0.5
2 -0.68
3 -0.65
4 -0.57
5 0.28
6 0.4
8 0.66

>  <PUBCHEM_EFFECTIVE_ROTOR_COUNT>  (1) 
2

>  <PUBCHEM_PHARMACOPHORE_FEATURES>  (1) 
5
1 2 acceptor
1 2 donor
1 3 acceptor
1 4 acceptor
3 3 4 8 anion

>  <PUBCHEM_HEAVY_ATOM_COUNT>  (1) 
8

>  <PUBCHEM_ATOM_DEF_STEREO_COUNT>  (1) 
0

>  <PUBCHEM_ATOM_UDEF_STEREO_COUNT>  (1) 
2

>  <PUBCHEM_BOND_DEF_STEREO_COUNT>  (1) 
0

>  <PUBCHEM_BOND_UDEF_STEREO_COUNT>  (1) 
0

>  <PUBCHEM_ISOTOPIC_ATOM_COUNT>  (1) 
0

>  <PUBCHEM_COMPONENT_COUNT>  (1) 
1

>  <PUBCHEM_CACTVS_TAUTO_COUNT>  (1) 
1

>  <PUBCHEM_CONFORMER_ID>  (1) 
0000AF3200000003

>  <PUBCHEM_MMFF94_ENERGY>  (1) 
5.4974

>  <PUBCHEM_FEATURE_SELFOVERLAP>  (1) 
25.43

>  <PUBCHEM_SHAPE_FINGERPRINT>  (1) 
10857977 72 17531535385716909881
16714656 1 17967546674113368823
20096714 4 18412824681195536248
21040471 1 18335703861870902074
24536 1 18058998592508518232
29004967 10 17846503578037136642
5084963 1 17749393619986626472

>  <PUBCHEM_SHAPE_MULTIPOLES>  (1) 
139.75
2.82
1.14
0.91
0.38
0.2
-0.2
-0.27
0.12
-0.19
0.05
0.12
-0.16
0.32

>  <PUBCHEM_SHAPE_SELFOVERLAP>  (1) 
263.001

>  <PUBCHEM_SHAPE_VOLUME>  (1) 
86.9

>  <PUBCHEM_COORDINATE_TYPE>  (1) 
2
5
10

$$$$
