44859
     RDKit          3D

 22 23  0  0  1  0  0  0  0  0999 V2000
    0.4790   -0.3982    0.1744 O   0  0  0  0  0  0  0  0  0  0  0  0
    1.9301    0.7425    1.5521 O   0  0  0  0  0  0  0  0  0  0  0  0
   -4.3602   -0.1517    0.1958 N   0  0  0  0  0  0  0  0  0  0  0  0
   -5.5855    0.2225    0.9278 C   0  0  0  0  0  0  0  0  0  0  0  0
   -6.8064   -0.4506    0.2718 C   0  0  0  0  0  0  0  0  0  0  0  0
   -4.4068    0.1883   -1.2307 C   0  0  0  0  0  0  0  0  0  0  0  0
   -6.9116   -0.1442   -1.2191 C   0  0  0  0  0  0  0  0  0  0  0  0
   -5.6001   -0.4724   -1.9214 C   0  0  0  0  0  0  0  0  0  0  0  0
   -3.1419    0.3592    0.8177 C   0  0  0  0  0  0  0  0  0  0  0  0
   -5.8136    1.7331    1.0942 C   0  0  0  0  0  0  0  0  0  0  0  0
   -1.9126   -0.2676    0.1675 C   0  0  0  0  0  0  0  0  0  0  0  0
   -0.6253    0.2301    0.8106 C   0  0  0  0  0  0  0  0  0  0  0  0
    2.7954   -0.8117   -0.1269 C   0  0  0  0  0  0  0  0  0  0  0  0
    1.7207   -0.0518    0.6445 C   0  0  0  0  0  0  0  0  0  0  0  0
    3.0153   -2.1913    0.5262 C   0  0  0  0  0  0  0  0  0  0  0  0
    4.0649    0.0132   -0.2727 C   0  0  0  0  0  0  0  0  0  0  0  0
    3.9730   -3.0772   -0.2609 C   0  0  0  0  0  0  0  0  0  0  0  0
    4.2041    0.8361   -1.3722 C   0  0  0  0  0  0  0  0  0  0  0  0
    5.0405   -0.0846    0.6991 C   0  0  0  0  0  0  0  0  0  0  0  0
    5.3682    1.5929   -1.5059 C   0  0  0  0  0  0  0  0  0  0  0  0
    6.2045    0.6723    0.5654 C   0  0  0  0  0  0  0  0  0  0  0  0
    6.3683    1.5111   -0.5371 C   0  0  0  0  0  0  0  0  0  0  0  0
  1 12  1  0
  1 14  1  0
  2 14  2  0
  3  4  1  0
  3  6  1  0
  3  9  1  0
  4  5  1  0
  4 10  1  0
  5  7  1  0
  6  8  1  0
  7  8  1  0
  9 11  1  0
 11 12  1  0
 13 14  1  0
 13 15  1  0
 13 16  1  0
 15 17  1  0
 16 18  2  0
 16 19  1  0
 18 20  1  0
 19 21  2  0
 20 22  2  0
 21 22  1  0
M  END
>  <PUBCHEM_COMPOUND_CID>  (1) 
44859

>  <PUBCHEM_CONFORMER_RMSD>  (1) 
1.2

>  <PUBCHEM_CONFORMER_DIVERSEORDER>  (1) 
1
92
5
97
180
148
138
111
89
120
109
73
173
119
37
162
82
116
27
67
168
25
139
96
158
137
161
151
179
78
45
6
128
30
54
156
100
35
133
33
122
50
87
172
41
102
166
160
13
20
132
125
184
21
70
28
165
60
52
134
142
39
72
153
175
16
53
149
71
69
145
11
112
106
176
183
143
159
114
4
150
146
182
127
59
19
90
170
55
107
57
3
103
124
44
117
144
79
94
104
62
121
17
26
81
24
48
99
157
18
31
147
77
171
129
85
108
9
169
47
66
178
88
22
12
65
23
167
15
7
91
10
8
152
34
105
135
63
61
49
101
51
93
115
163
2
86
84
58
68
110
29
14
118
74
46
136
43
76
64
126
83
75
98
95
56
177
181
40
36
155
164
140
38
174
123
32
141
113
131
42
154
130
80

>  <PUBCHEM_MMFF94_PARTIAL_CHARGES>  (1) 
20
1 -0.43
12 0.28
13 0.2
14 0.66
16 -0.14
18 -0.15
19 -0.15
2 -0.57
20 -0.15
21 -0.15
22 -0.15
3 -0.81
4 0.27
47 0.15
48 0.15
49 0.15
50 0.15
51 0.15
6 0.27
9 0.27

>  <PUBCHEM_EFFECTIVE_ROTOR_COUNT>  (1) 
9.2

>  <PUBCHEM_PHARMACOPHORE_FEATURES>  (1) 
5
1 17 hydrophobe
1 2 acceptor
1 3 cation
6 16 18 19 20 21 22 rings
6 3 4 5 6 7 8 rings

>  <PUBCHEM_HEAVY_ATOM_COUNT>  (1) 
22

>  <PUBCHEM_ATOM_DEF_STEREO_COUNT>  (1) 
0

>  <PUBCHEM_ATOM_UDEF_STEREO_COUNT>  (1) 
2

>  <PUBCHEM_BOND_DEF_STEREO_COUNT>  (1) 
0

>  <PUBCHEM_BOND_UDEF_STEREO_COUNT>  (1) 
0

>  <PUBCHEM_ISOTOPIC_ATOM_COUNT>  (1) 
0

>  <PUBCHEM_COMPONENT_COUNT>  (1) 
1

>  <PUBCHEM_CACTVS_TAUTO_COUNT>  (1) 
1

>  <PUBCHEM_CONFORMER_ID>  (1) 
0000AF3B00000001

>  <PUBCHEM_MMFF94_ENERGY>  (1) 
35.4618

>  <PUBCHEM_FEATURE_SELFOVERLAP>  (1) 
25.371

>  <PUBCHEM_SHAPE_FINGERPRINT>  (1) 
10 15 15285644329943990876
10595046 47 18342178830202373217
10638233 991 18341896333192803121
11315181 36 18261112998508702993
11524674 6 11095883779059207965
12166972 35 11167938065407770011
12236239 1 18059858337655618755
125118 31 16153707621922634317
13167372 99 17968096387241854132
13533116 47 18272651199598768762
13668630 136 15985106340403894197
13685833 64 13686304582105794548
14251758 9 13973960987492012381
14251764 18 17918274247512738763
15183329 4 18409167727181350317
15348495 7 14490767804754553133
15352257 5 14620798214645311965
15475509 35 13398357811783140894
15537594 2 17989484126122003495
1577012 14 18131634448754499585
16079462 125 17023179452968756837
17844677 252 17603866642201744381
18335252 114 18334579066789195260
18335252 98 18261681462873585155
18681886 176 16343696668808491144
18927931 339 17203607108665153637
20157964 124 18040997337036993706
20281389 69 16515401884801166037
21150785 3 18336261327894969415
220451 1 17775850099440577219
2215653 11 13830132767281479325
2297311 6 15769780156721555657
23035841 295 15985107409724124223
23081809 10 18201157663831641107
23522609 53 17916330301758937041
23559900 14 18269831068437626489
24771750 20 17535769703659105981
2916195 48 16515684467979607285
300161 21 18040433312904002563
3004659 81 18271529680843469298
34797466 226 17749111089012515431
4340502 62 18040719169148450922
465052 167 10663826278271838664
5104073 3 14562801107090620153
59755656 215 14836412419108651437
6025842 7 18409732833767763702
8863177 126 12679169548755187188

>  <PUBCHEM_SHAPE_MULTIPOLES>  (1) 
436.03
21.57
1.8
1.45
16.88
1.22
-0.4
-4.93
-4.04
-3.32
-0.16
1.14
-0.34
-1.55

>  <PUBCHEM_SHAPE_SELFOVERLAP>  (1) 
882.422

>  <PUBCHEM_SHAPE_VOLUME>  (1) 
254.2

>  <PUBCHEM_COORDINATE_TYPE>  (1) 
2
5
10

$$$$
