44852
     RDKit          3D

  8  7  0  0  1  0  0  0  0  0999 V2000
    1.0805   -0.5737   -1.3079 F   0  0  0  0  0  0  0  0  0  0  0  0
    0.2607    1.6866    0.1444 O   0  0  0  0  0  0  0  0  0  0  0  0
   -1.6743   -1.3060    0.5774 O   0  0  0  0  0  0  0  0  0  0  0  0
   -2.0615    0.5895   -0.6093 O   0  0  0  0  0  0  0  0  0  0  0  0
    1.1430   -0.5637    0.0553 C   0  0  0  0  0  0  0  0  0  0  0  0
    0.0428    0.3535    0.5848 C   0  0  0  0  0  0  0  0  0  0  0  0
    2.5371   -0.1059    0.4491 C   0  0  0  0  0  0  0  0  0  0  0  0
   -1.3282   -0.0803    0.1064 C   0  0  0  0  0  0  0  0  0  0  0  0
  1  5  1  0
  2  6  1  0
  3  8  1  0
  4  8  2  0
  5  6  1  0
  5  7  1  0
  6  8  1  0
M  END
>  <PUBCHEM_COMPOUND_CID>  (1) 
44852

>  <PUBCHEM_CONFORMER_RMSD>  (1) 
0.4

>  <PUBCHEM_CONFORMER_DIVERSEORDER>  (1) 
3
16
23
2
15
22
4
8
13
21
5
19
14
11
7
20
9
17
1
10
18
24
12
6

>  <PUBCHEM_MMFF94_PARTIAL_CHARGES>  (1) 
9
1 -0.34
14 0.4
15 0.5
2 -0.68
3 -0.65
4 -0.57
5 0.34
6 0.34
8 0.66

>  <PUBCHEM_EFFECTIVE_ROTOR_COUNT>  (1) 
2

>  <PUBCHEM_PHARMACOPHORE_FEATURES>  (1) 
5
1 2 acceptor
1 2 donor
1 3 acceptor
1 4 acceptor
3 3 4 8 anion

>  <PUBCHEM_HEAVY_ATOM_COUNT>  (1) 
8

>  <PUBCHEM_ATOM_DEF_STEREO_COUNT>  (1) 
0

>  <PUBCHEM_ATOM_UDEF_STEREO_COUNT>  (1) 
2

>  <PUBCHEM_BOND_DEF_STEREO_COUNT>  (1) 
0

>  <PUBCHEM_BOND_UDEF_STEREO_COUNT>  (1) 
0

>  <PUBCHEM_ISOTOPIC_ATOM_COUNT>  (1) 
0

>  <PUBCHEM_COMPONENT_COUNT>  (1) 
1

>  <PUBCHEM_CACTVS_TAUTO_COUNT>  (1) 
1

>  <PUBCHEM_CONFORMER_ID>  (1) 
0000AF3400000003

>  <PUBCHEM_MMFF94_ENERGY>  (1) 
2.8721

>  <PUBCHEM_FEATURE_SELFOVERLAP>  (1) 
25.438

>  <PUBCHEM_SHAPE_FINGERPRINT>  (1) 
20096714 4 13479142293096219111
21040471 1 18116996576780207393
24536 1 18131365110606352523
29004967 10 18202850958571567130

>  <PUBCHEM_SHAPE_MULTIPOLES>  (1) 
139.75
2.82
1.18
0.88
0.5
0.25
-0.18
-0.35
0.07
-0.24
0.1
0.11
-0.11
0.28

>  <PUBCHEM_SHAPE_SELFOVERLAP>  (1) 
263.19

>  <PUBCHEM_SHAPE_VOLUME>  (1) 
86.8

>  <PUBCHEM_COORDINATE_TYPE>  (1) 
2
5
10

$$$$
