44862
     RDKit          3D

 11 10  0  0  1  0  0  0  0  0999 V2000
   -0.9237    1.4402    1.1618 O   0  0  0  0  0  0  0  0  0  0  0  0
    2.2571    0.3400    0.0228 N   0  0  0  0  0  0  0  0  0  0  0  0
   -3.1913    0.1660   -0.9993 N   0  0  0  0  0  0  0  0  0  0  0  0
   -0.0275   -0.6921    0.3711 C   0  0  0  0  0  0  0  0  0  0  0  0
    1.3915   -0.3973    0.9393 C   0  0  0  0  0  0  0  0  0  0  0  0
   -0.7977    0.6151    0.0020 C   0  0  0  0  0  0  0  0  0  0  0  0
   -0.8034   -1.5115    1.4296 C   0  0  0  0  0  0  0  0  0  0  0  0
    0.0892   -1.5782   -0.8927 C   0  0  0  0  0  0  0  0  0  0  0  0
    1.6980    1.6623   -0.2590 C   0  0  0  0  0  0  0  0  0  0  0  0
    2.4453   -0.4090   -1.2199 C   0  0  0  0  0  0  0  0  0  0  0  0
   -2.1375    0.3646   -0.5558 C   0  0  0  0  0  0  0  0  0  0  0  0
  1  6  1  0
  2  5  1  0
  2  9  1  0
  2 10  1  0
  3 11  3  0
  4  5  1  0
  4  6  1  0
  4  7  1  0
  4  8  1  0
  6 11  1  0
M  END
>  <PUBCHEM_COMPOUND_CID>  (1) 
44862

>  <PUBCHEM_CONFORMER_RMSD>  (1) 
0.6

>  <PUBCHEM_CONFORMER_DIVERSEORDER>  (1) 
2
3
1

>  <PUBCHEM_MMFF94_PARTIAL_CHARGES>  (1) 
9
1 -0.68
10 0.27
11 0.36
2 -0.81
27 0.4
3 -0.56
5 0.27
6 0.48
9 0.27

>  <PUBCHEM_EFFECTIVE_ROTOR_COUNT>  (1) 
3

>  <PUBCHEM_PHARMACOPHORE_FEATURES>  (1) 
5
1 1 acceptor
1 1 donor
1 2 cation
1 3 acceptor
3 4 7 8 hydrophobe

>  <PUBCHEM_HEAVY_ATOM_COUNT>  (1) 
11

>  <PUBCHEM_ATOM_DEF_STEREO_COUNT>  (1) 
0

>  <PUBCHEM_ATOM_UDEF_STEREO_COUNT>  (1) 
1

>  <PUBCHEM_BOND_DEF_STEREO_COUNT>  (1) 
0

>  <PUBCHEM_BOND_UDEF_STEREO_COUNT>  (1) 
0

>  <PUBCHEM_ISOTOPIC_ATOM_COUNT>  (1) 
0

>  <PUBCHEM_COMPONENT_COUNT>  (1) 
1

>  <PUBCHEM_CACTVS_TAUTO_COUNT>  (1) 
1

>  <PUBCHEM_CONFORMER_ID>  (1) 
0000AF3E00000002

>  <PUBCHEM_MMFF94_ENERGY>  (1) 
63.3581

>  <PUBCHEM_FEATURE_SELFOVERLAP>  (1) 
25.371

>  <PUBCHEM_SHAPE_FINGERPRINT>  (1) 
12138202 97 18041292031327273847
12423570 1 9216516311309790826
12897270 3 18059570257019135525
14128692 85 16916503627718859518
15775835 57 17894908525077479788
16945 1 18408319969208546259
20653085 51 18409454699594594757
21028194 46 18186517700382128246
21040471 1 17748542653916293650
23552423 10 18058731269580975223
241688 4 17764027965249553482
2748010 2 18192443089067190764
29004967 10 12535336922177116222
5084963 1 18263071124551788954
59915604 170 18342452664432231533

>  <PUBCHEM_SHAPE_MULTIPOLES>  (1) 
210.54
3.41
1.62
1.31
0.71
0.08
0.02
-0.93
-1.3
-0.06
0.28
0.08
0.27
0.24

>  <PUBCHEM_SHAPE_SELFOVERLAP>  (1) 
400.304

>  <PUBCHEM_SHAPE_VOLUME>  (1) 
129.1

>  <PUBCHEM_COORDINATE_TYPE>  (1) 
2
5
10

$$$$
