44884
     RDKit          3D

 18 17  0  0  0  0  0  0  0  0999 V2000
    3.6556   -1.7801    0.4718 P   0  0  0  0  0  0  0  0  0  0  0  0
    2.2114   -2.1428   -0.1790 O   0  0  0  0  0  0  0  0  0  0  0  0
    3.5654   -0.1581    0.5562 O   0  0  0  0  0  0  0  0  0  0  0  0
    4.7940   -2.2205   -0.4115 O   0  0  0  0  0  0  0  0  0  0  0  0
   -2.6629   -1.5359   -0.4220 C   0  0  0  0  0  0  0  0  0  0  0  0
    1.0006    3.2919    0.1738 C   0  0  0  0  0  0  0  0  0  0  0  0
   -1.4410   -1.5727    0.4983 C   0  0  0  0  0  0  0  0  0  0  0  0
    1.5939    1.8938   -0.0127 C   0  0  0  0  0  0  0  0  0  0  0  0
   -3.9758   -1.2686    0.3198 C   0  0  0  0  0  0  0  0  0  0  0  0
   -0.4685    3.2772    0.6061 C   0  0  0  0  0  0  0  0  0  0  0  0
   -0.1584   -1.8189   -0.2950 C   0  0  0  0  0  0  0  0  0  0  0  0
    3.0646    1.9669   -0.4203 C   0  0  0  0  0  0  0  0  0  0  0  0
   -5.1867   -1.1585   -0.6077 C   0  0  0  0  0  0  0  0  0  0  0  0
   -1.4005    2.6454   -0.4286 C   0  0  0  0  0  0  0  0  0  0  0  0
    1.0587   -1.8990    0.6155 C   0  0  0  0  0  0  0  0  0  0  0  0
    3.6539    0.5822   -0.6491 C   0  0  0  0  0  0  0  0  0  0  0  0
   -6.4508   -0.8220    0.1688 C   0  0  0  0  0  0  0  0  0  0  0  0
   -2.8535    2.7199    0.0157 C   0  0  0  0  0  0  0  0  0  0  0  0
  1  2  1  0
  1  3  1  0
  1  4  2  0
  2 15  1  0
  3 16  1  0
  5  7  1  0
  5  9  1  0
  6  8  1  0
  6 10  1  0
  7 11  1  0
  8 12  1  0
  9 13  1  0
 10 14  1  0
 11 15  1  0
 12 16  1  0
 13 17  1  0
 14 18  1  0
M  END
>  <PUBCHEM_COMPOUND_CID>  (1) 
44884

>  <PUBCHEM_CONFORMER_RMSD>  (1) 
1.2

>  <PUBCHEM_CONFORMER_DIVERSEORDER>  (1) 
1
47
8
17
34
41
51
23
82
52
22
84
55
32
25
64
76
16
2
65
67
11
49
59
69
68
9
19
3
70
39
15
26
83
13
71
38
40
45
30
53
81
50
10
6
42
44
72
58
18
29
5
75
66
43
7
80
21
54
27
20
56
46
48
24
28
73
62
57
14
60
31
79
63
35
33
61
78
77
36
37
4
74
12

>  <PUBCHEM_MMFF94_PARTIAL_CHARGES>  (1) 
7
1 1.28
15 0.28
16 0.28
2 -0.55
3 -0.55
4 -0.7
49 -0.04

>  <PUBCHEM_EFFECTIVE_ROTOR_COUNT>  (1) 
14

>  <PUBCHEM_PHARMACOPHORE_FEATURES>  (1) 
5
1 17 hydrophobe
1 18 hydrophobe
1 4 acceptor
5 5 7 9 11 13 hydrophobe
5 6 8 10 12 14 hydrophobe

>  <PUBCHEM_HEAVY_ATOM_COUNT>  (1) 
18

>  <PUBCHEM_ATOM_DEF_STEREO_COUNT>  (1) 
0

>  <PUBCHEM_ATOM_UDEF_STEREO_COUNT>  (1) 
0

>  <PUBCHEM_BOND_DEF_STEREO_COUNT>  (1) 
0

>  <PUBCHEM_BOND_UDEF_STEREO_COUNT>  (1) 
0

>  <PUBCHEM_ISOTOPIC_ATOM_COUNT>  (1) 
0

>  <PUBCHEM_COMPONENT_COUNT>  (1) 
1

>  <PUBCHEM_CACTVS_TAUTO_COUNT>  (1) 
2

>  <PUBCHEM_CONFORMER_ID>  (1) 
0000AF5400000001

>  <PUBCHEM_MMFF94_ENERGY>  (1) 
-2.5605

>  <PUBCHEM_FEATURE_SELFOVERLAP>  (1) 
25.374

>  <PUBCHEM_SHAPE_FINGERPRINT>  (1) 
10688039 33 18113616785653492173
14464042 87 18201445787533738185
15210252 30 17824548706137886564
17093844 170 18122902289951614184
19930381 70 17761489596765386771
20621476 13 18050004690488648681
20621476 7 18411985775746668529
21041028 32 18411132515610067823
21279426 13 18335693919786808597
221357 26 18409730655438311206
23352939 185 18343586248510190987
23557571 272 18200033928140325390
3014063 31 18410572911773903413
338550 245 18334583408558246941

>  <PUBCHEM_SHAPE_MULTIPOLES>  (1) 
356.67
10.76
4.62
0.79
11.58
3.76
-0.01
-6.56
0.87
-1.48
-0.3
-0.05
-0.02
-0.29

>  <PUBCHEM_SHAPE_SELFOVERLAP>  (1) 
634.425

>  <PUBCHEM_SHAPE_VOLUME>  (1) 
231.2

>  <PUBCHEM_COORDINATE_TYPE>  (1) 
2
5
10

$$$$
