44882
     RDKit          3D

 21 22  0  0  1  0  0  0  0  0999 V2000
   -3.7158   -2.2291   -0.3767 O   0  0  0  0  0  0  0  0  0  0  0  0
   -4.0459   -1.5646    1.7912 O   0  0  0  0  0  0  0  0  0  0  0  0
    0.8031    0.6057    0.1989 N   0  0  0  0  0  0  0  0  0  0  0  0
    0.1695    2.8136   -0.3411 N   0  0  0  0  0  0  0  0  0  0  0  0
   -2.6459   -0.3174   -1.2120 C   0  0  0  0  0  0  0  0  0  0  0  0
   -1.1467   -0.5862   -1.0538 C   0  0  0  0  0  0  0  0  0  0  0  0
   -3.2879    0.0342    0.1259 C   0  0  0  0  0  0  0  0  0  0  0  0
   -0.4042    0.6233   -0.6105 C   0  0  0  0  0  0  0  0  0  0  0  0
    1.9250   -0.0780   -0.4884 C   0  0  0  0  0  0  0  0  0  0  0  0
   -3.3842   -1.5803   -1.6091 C   0  0  0  0  0  0  0  0  0  0  0  0
   -4.5029    0.9400   -0.0167 C   0  0  0  0  0  0  0  0  0  0  0  0
    0.4991    0.0425    1.5753 C   0  0  0  0  0  0  0  0  0  0  0  0
    3.2024    0.1342    0.3102 C   0  0  0  0  0  0  0  0  0  0  0  0
    1.0343    2.0918    0.2975 C   0  0  0  0  0  0  0  0  0  0  0  0
   -3.7168   -1.3162    0.6412 C   0  0  0  0  0  0  0  0  0  0  0  0
   -0.6951    1.9016   -0.8854 C   0  0  0  0  0  0  0  0  0  0  0  0
    4.3993   -0.5157   -0.3854 C   0  0  0  0  0  0  0  0  0  0  0  0
   -5.1926    1.1686    1.3179 C   0  0  0  0  0  0  0  0  0  0  0  0
    5.6812   -0.3379    0.4297 C   0  0  0  0  0  0  0  0  0  0  0  0
    6.8706   -1.0164   -0.2495 C   0  0  0  0  0  0  0  0  0  0  0  0
    8.1536   -0.8136    0.5408 C   0  0  0  0  0  0  0  0  0  0  0  0
  1 10  1  0
  1 15  1  0
  2 15  2  0
  3  8  1  0
  3  9  1  0
  3 12  1  0
  3 14  1  0
  4 14  2  0
  4 16  1  0
  5  6  1  0
  5  7  1  0
  5 10  1  0
  6  8  1  0
  7 11  1  0
  7 15  1  0
  8 16  2  0
  9 13  1  0
 11 18  1  0
 13 17  1  0
 17 19  1  0
 19 20  1  0
 20 21  1  0
M  CHG  1   3   1
M  END
>  <PUBCHEM_COMPOUND_CID>  (1) 
44882

>  <PUBCHEM_CONFORMER_RMSD>  (1) 
1

>  <PUBCHEM_CONFORMER_DIVERSEORDER>  (1) 
12
287
472
299
410
344
61
109
485
433
107
507
436
32
487
267
136
442
498
127
481
58
489
11
4
200
160
121
494
28
363
459
500
52
194
505
99
525
217
445
492
16
453
357
102
199
77
456
95
237
419
43
211
476
50
301
75
67
71
31
440
216
42
390
184
156
379
10
522
196
474
255
94
9
178
146
41
443
227
68
57
49
295
37
175
53
421
91
245
3
432
19
502
130
141
186
6
239
174
315
17
356
452
2
202
268
56
13
277
89
368
142
104
78
408
427
518
5
171
128
1
265
182
162
30
60
48
371
360
232
63
93
51
36
59
79
7
40
115
14
359
137
318
228
210
18
105
145
26
8
124
80

>  <PUBCHEM_MMFF94_PARTIAL_CHARGES>  (1) 
15
1 -0.43
10 0.28
12 0.5
14 0.79
15 0.66
16 0.02
2 -0.57
3 -0.76
37 0.06
38 0.15
4 -0.62
6 0.14
7 0.06
8 0.22
9 0.5

>  <PUBCHEM_EFFECTIVE_ROTOR_COUNT>  (1) 
9

>  <PUBCHEM_PHARMACOPHORE_FEATURES>  (1) 
7
1 18 hydrophobe
1 2 acceptor
1 21 hydrophobe
3 3 4 14 cation
4 13 17 19 20 hydrophobe
5 1 5 7 10 15 rings
5 3 4 8 14 16 rings

>  <PUBCHEM_HEAVY_ATOM_COUNT>  (1) 
21

>  <PUBCHEM_ATOM_DEF_STEREO_COUNT>  (1) 
0

>  <PUBCHEM_ATOM_UDEF_STEREO_COUNT>  (1) 
3

>  <PUBCHEM_BOND_DEF_STEREO_COUNT>  (1) 
0

>  <PUBCHEM_BOND_UDEF_STEREO_COUNT>  (1) 
0

>  <PUBCHEM_ISOTOPIC_ATOM_COUNT>  (1) 
0

>  <PUBCHEM_COMPONENT_COUNT>  (1) 
1

>  <PUBCHEM_CACTVS_TAUTO_COUNT>  (1) 
2

>  <PUBCHEM_CONFORMER_ID>  (1) 
0000AF520000000C

>  <PUBCHEM_MMFF94_ENERGY>  (1) 
36.7619

>  <PUBCHEM_FEATURE_SELFOVERLAP>  (1) 
35.522

>  <PUBCHEM_SHAPE_FINGERPRINT>  (1) 
11045515 52 17095239199044166580
11315181 36 18201715167534363869
12507557 5 14620790526991123835
12553582 1 18114167636588926065
12788726 201 18190453862068961336
13288520 33 18408038515780570686
13583140 156 14692280764048840367
13740256 8 18335983163995204446
13941219 33 18271808960780298206
14251764 30 18334576884202159554
15183329 4 15430031068187005674
15209289 33 18040719199117893075
15527383 91 18412828005690491073
15537594 2 18260544494266165530
17093844 174 18131624582623991258
17492 89 18051689151277743927
17780758 139 18131632278973147290
17980427 23 13758361089358774363
1813 80 18271820041922509940
18927931 339 18409728443936199502
19141452 34 18059855064674229191
19489759 90 9727628410565896308
200 152 17821728317352279096
20281389 69 10663813080058955550
21150785 3 12396590628738336482
21304253 13 17846215540720352056
21315763 191 18113909264151675166
21403212 168 18340494357763116537
22950370 63 18409168835467191228
23035841 295 18040436573116255690
23402539 116 18114180818064947556
23622692 88 18408891724673294213
2838139 119 12319734761113655698
312423 11 18192719062691780077
314173 85 18131074822747257708
4325135 7 11386372534681542289
4409770 3 18190171292160790717
5104073 3 18200877391002817904
5486654 36 18261398905227278307
56616090 284 17821447967730840312

>  <PUBCHEM_SHAPE_MULTIPOLES>  (1) 
410.47
15.38
2.05
1.33
31.97
0.68
0.23
-6.73
3.77
-1.87
-0.25
-1.45
-0.27
-0.33

>  <PUBCHEM_SHAPE_SELFOVERLAP>  (1) 
831.473

>  <PUBCHEM_SHAPE_VOLUME>  (1) 
242.7

>  <PUBCHEM_COORDINATE_TYPE>  (1) 
2
5
10

$$$$
