449
     RDKit          3D

 10  9  0  0  1  0  0  0  0  0999 V2000
   -0.4485    1.8141    0.9821 O   0  0  0  0  0  0  0  0  0  0  0  0
    2.8253   -1.6460    0.4486 O   0  0  0  0  0  0  0  0  0  0  0  0
   -1.6939   -1.8737   -0.6774 O   0  0  0  0  0  0  0  0  0  0  0  0
   -2.3192   -0.3944    0.9289 O   0  0  0  0  0  0  0  0  0  0  0  0
    0.1932    1.0572   -0.0538 C   0  0  0  0  0  0  0  0  0  0  0  0
    1.1693    0.0727    0.6214 C   0  0  0  0  0  0  0  0  0  0  0  0
   -0.9092    0.3747   -0.8807 C   0  0  0  0  0  0  0  0  0  0  0  0
    0.9380    2.0645   -0.9396 C   0  0  0  0  0  0  0  0  0  0  0  0
    1.9580   -0.8245   -0.3246 C   0  0  0  0  0  0  0  0  0  0  0  0
   -1.7133   -0.6446   -0.1050 C   0  0  0  0  0  0  0  0  0  0  0  0
  1  5  1  0
  2  9  1  0
  3 10  1  0
  4 10  2  0
  5  6  1  0
  5  7  1  0
  5  8  1  0
  6  9  1  0
  7 10  1  0
M  END
>  <PUBCHEM_COMPOUND_CID>  (1) 
449

>  <PUBCHEM_CONFORMER_RMSD>  (1) 
0.6

>  <PUBCHEM_CONFORMER_DIVERSEORDER>  (1) 
1
12
39
34
50
52
36
21
42
45
55
47
35
29
41
40
11
56
18
33
25
14
27
17
38
54
23
20
26
9
44
22
6
5
19
10
51
43
31
2
4
53
15
13
49
3
48
24
7
8
32
30
46
37
28
16

>  <PUBCHEM_MMFF94_PARTIAL_CHARGES>  (1) 
11
1 -0.68
10 0.66
2 -0.68
20 0.4
21 0.4
22 0.5
3 -0.65
4 -0.57
5 0.28
7 0.06
9 0.28

>  <PUBCHEM_EFFECTIVE_ROTOR_COUNT>  (1) 
4

>  <PUBCHEM_PHARMACOPHORE_FEATURES>  (1) 
7
1 1 acceptor
1 1 donor
1 2 acceptor
1 2 donor
1 3 acceptor
1 4 acceptor
3 3 4 10 anion

>  <PUBCHEM_HEAVY_ATOM_COUNT>  (1) 
10

>  <PUBCHEM_ATOM_DEF_STEREO_COUNT>  (1) 
0

>  <PUBCHEM_ATOM_UDEF_STEREO_COUNT>  (1) 
1

>  <PUBCHEM_BOND_DEF_STEREO_COUNT>  (1) 
0

>  <PUBCHEM_BOND_UDEF_STEREO_COUNT>  (1) 
0

>  <PUBCHEM_ISOTOPIC_ATOM_COUNT>  (1) 
0

>  <PUBCHEM_COMPONENT_COUNT>  (1) 
1

>  <PUBCHEM_CACTVS_TAUTO_COUNT>  (1) 
1

>  <PUBCHEM_CONFORMER_ID>  (1) 
000001C100000001

>  <PUBCHEM_MMFF94_ENERGY>  (1) 
16.4491

>  <PUBCHEM_FEATURE_SELFOVERLAP>  (1) 
35.583

>  <PUBCHEM_SHAPE_FINGERPRINT>  (1) 
13024252 1 15432029850828241664
137420 1 10972259758959708016
14128692 85 18338521949122970900
16945 1 18116996800018410068
18185500 45 18270684306255585839
20653085 51 10737566051589720210
20711985 344 17900237737773261944
20871998 184 18123471570723135686
23552423 10 18192716858698330439
29004967 10 18187926226427862016

>  <PUBCHEM_SHAPE_MULTIPOLES>  (1) 
182.32
3.02
2.1
1.02
0.28
0.35
0.03
-2.09
0.25
0.7
-0.22
-0.17
0.22
-0.43

>  <PUBCHEM_SHAPE_SELFOVERLAP>  (1) 
342.681

>  <PUBCHEM_SHAPE_VOLUME>  (1) 
113.7

>  <PUBCHEM_COORDINATE_TYPE>  (1) 
2
5
10

$$$$
