44904
     RDKit          3D

 12 13  0  0  1  0  0  0  0  0999 V2000
   -2.5437   -0.1783   -1.2355 O   0  0  0  0  0  0  0  0  0  0  0  0
    1.8187    1.7407    0.1496 O   0  0  0  0  0  0  0  0  0  0  0  0
   -2.5254    0.2157    0.1425 C   0  0  0  0  0  0  0  0  0  0  0  0
   -1.7029   -0.9252   -0.3573 C   0  0  0  0  0  0  0  0  0  0  0  0
   -0.2384   -0.7835   -0.6403 C   0  0  0  0  0  0  0  0  0  0  0  0
    0.6007   -0.9336    0.6318 C   0  0  0  0  0  0  0  0  0  0  0  0
   -1.9535    1.5612    0.3891 C   0  0  0  0  0  0  0  0  0  0  0  0
   -3.7923   -0.0567    0.8626 C   0  0  0  0  0  0  0  0  0  0  0  0
    2.6236    0.6105    0.4387 C   0  0  0  0  0  0  0  0  0  0  0  0
    2.0816   -0.7688    0.3635 C   0  0  0  0  0  0  0  0  0  0  0  0
    2.7892    1.3602   -0.8345 C   0  0  0  0  0  0  0  0  0  0  0  0
    2.8425   -1.8422    0.0898 C   0  0  0  0  0  0  0  0  0  0  0  0
  1  3  1  0
  1  4  1  0
  2  9  1  0
  2 11  1  0
  3  4  1  0
  3  7  1  0
  3  8  1  0
  4  5  1  0
  5  6  1  0
  6 10  1  0
  9 10  1  0
  9 11  1  0
 10 12  2  0
M  END
>  <PUBCHEM_COMPOUND_CID>  (1) 
44904

>  <PUBCHEM_CONFORMER_RMSD>  (1) 
0.6

>  <PUBCHEM_CONFORMER_DIVERSEORDER>  (1) 
2
163
179
204
100
7
33
114
164
81
56
190
168
200
189
117
75
165
144
205
73
99
84
153
155
108
188
198
37
202
55
169
150
193
54
125
113
137
201
76
69
194
167
197
132
187
85
123
98
43
58
10
21
192
124
67
57
70
146
119
59
161
116
199
191
120
162
140
178
122
148
39
184
186
48
30
13
173
93
77
111
158
61
174
25
118
64
41
180
166
14
138
53
159
149
94
176
36
172
105
92
24
6
141
4
203
52
177
91
90
128
147
183
139
28
142
181
1
45
185
182
97
66
38
196
20
51
40
60
152
121
134
83
171
110
18
136
32
101
78
47
151
130
126
34
154
112
170
49
12
160
31
71
44
68
19
96
3
127
103
106
15
109
9
131
16
72
82
11
143
29
26
5
79
8
89
80
195
62
22
63
102
115
145
88
46
133
74
104
35
27
129
135
86
87
157
156
65
175
50
95
107
42
23
17

>  <PUBCHEM_MMFF94_PARTIAL_CHARGES>  (1) 
18
1 -0.3
10 -0.18
11 -0.05
12 -0.3
13 0.1
2 -0.3
24 0.1
25 0.1
26 0.1
27 0.15
28 0.15
3 -0.04
4 -0.05
5 0.09
6 0.14
7 0.09
8 0.09
9 0.09

>  <PUBCHEM_EFFECTIVE_ROTOR_COUNT>  (1) 
5.2

>  <PUBCHEM_PHARMACOPHORE_FEATURES>  (1) 
4
1 1 acceptor
1 12 hydrophobe
1 2 acceptor
3 3 7 8 hydrophobe

>  <PUBCHEM_HEAVY_ATOM_COUNT>  (1) 
12

>  <PUBCHEM_ATOM_DEF_STEREO_COUNT>  (1) 
0

>  <PUBCHEM_ATOM_UDEF_STEREO_COUNT>  (1) 
2

>  <PUBCHEM_BOND_DEF_STEREO_COUNT>  (1) 
0

>  <PUBCHEM_BOND_UDEF_STEREO_COUNT>  (1) 
0

>  <PUBCHEM_ISOTOPIC_ATOM_COUNT>  (1) 
0

>  <PUBCHEM_COMPONENT_COUNT>  (1) 
1

>  <PUBCHEM_CACTVS_TAUTO_COUNT>  (1) 
1

>  <PUBCHEM_CONFORMER_ID>  (1) 
0000AF6800000002

>  <PUBCHEM_MMFF94_ENERGY>  (1) 
17.5859

>  <PUBCHEM_FEATURE_SELFOVERLAP>  (1) 
20.298

>  <PUBCHEM_SHAPE_FINGERPRINT>  (1) 
10857977 72 15864070974947145183
10922523 26 17915741976911422182
11031198 65 18262529190216257838
12162725 195 18341326721464933139
12696612 119 18409732824502089252
12932764 1 17775563160695532971
13380535 21 18263372536877912090
13618510 140 18335982060025163580
14144814 61 18341609304543180290
14250199 8 18409442587728784860
15775835 57 18272093828549116080
170605 34 18113899411591474832
17844478 74 17894352163762158813
18186145 218 18408040693186844086
19973954 147 18410291397804604138
20339313 130 18268997496884855474
20559304 39 18341894069649352154
20671657 1 18408888464492338854
20711983 171 17989208131391459645
20711985 344 13757261513301570922
20715346 28 17458339736824923951
230 275 18336819875153425912
23557571 272 16199574922032984314
3248919 1 18340192064014564794
45790113 50 18410018702041882783
63268167 104 18408036308230813824
7364860 26 18272930523155040322
8030462 33 18200867469628136278
9882013 296 16951136212616411115

>  <PUBCHEM_SHAPE_MULTIPOLES>  (1) 
235.22
6.02
1.75
0.95
1.95
0.31
0.12
0.41
-0.52
-1.31
0
0.28
0
-0.46

>  <PUBCHEM_SHAPE_SELFOVERLAP>  (1) 
464.268

>  <PUBCHEM_SHAPE_VOLUME>  (1) 
142.8

>  <PUBCHEM_COORDINATE_TYPE>  (1) 
2
5
10

$$$$
