44929
     RDKit          3D

  8  8  0  0  1  0  0  0  0  0999 V2000
    1.4228   -1.4521   -0.0461 O   0  0  0  0  0  0  0  0  0  0  0  0
    1.3903    0.8764   -0.0655 N   0  0  0  0  0  0  0  0  0  0  0  0
    2.7321    0.9935    0.2352 N   0  0  0  0  0  0  0  0  0  0  0  0
   -1.5399    0.3681    0.3948 C   0  0  0  0  0  0  0  0  0  0  0  0
   -0.6169   -0.3746   -0.5097 C   0  0  0  0  0  0  0  0  0  0  0  0
   -1.5458   -1.1323    0.3763 C   0  0  0  0  0  0  0  0  0  0  0  0
   -2.6821    1.1036   -0.2023 C   0  0  0  0  0  0  0  0  0  0  0  0
    0.8395   -0.3826   -0.1826 C   0  0  0  0  0  0  0  0  0  0  0  0
  1  8  2  0
  2  3  1  0
  2  8  1  0
  4  5  1  0
  4  6  1  0
  4  7  1  0
  5  6  1  0
  5  8  1  0
M  END
>  <PUBCHEM_COMPOUND_CID>  (1) 
44929

>  <PUBCHEM_CONFORMER_RMSD>  (1) 
0.4

>  <PUBCHEM_CONFORMER_DIVERSEORDER>  (1) 
1
7
8
6
5
3
9
10
12
11
2
4

>  <PUBCHEM_MMFF94_PARTIAL_CHARGES>  (1) 
15
1 -0.57
10 0.1
11 0.1
12 0.1
16 0.37
17 0.36
18 0.36
2 -0.42
3 -0.73
4 -0.19
5 -0.1
6 -0.2
7 0.09
8 0.63
9 0.1

>  <PUBCHEM_EFFECTIVE_ROTOR_COUNT>  (1) 
2.6

>  <PUBCHEM_PHARMACOPHORE_FEATURES>  (1) 
3
1 1 acceptor
1 2 donor
1 3 donor

>  <PUBCHEM_HEAVY_ATOM_COUNT>  (1) 
8

>  <PUBCHEM_ATOM_DEF_STEREO_COUNT>  (1) 
0

>  <PUBCHEM_ATOM_UDEF_STEREO_COUNT>  (1) 
2

>  <PUBCHEM_BOND_DEF_STEREO_COUNT>  (1) 
0

>  <PUBCHEM_BOND_UDEF_STEREO_COUNT>  (1) 
0

>  <PUBCHEM_ISOTOPIC_ATOM_COUNT>  (1) 
0

>  <PUBCHEM_COMPONENT_COUNT>  (1) 
1

>  <PUBCHEM_CACTVS_TAUTO_COUNT>  (1) 
2

>  <PUBCHEM_CONFORMER_ID>  (1) 
0000AF8100000001

>  <PUBCHEM_MMFF94_ENERGY>  (1) 
12.7346

>  <PUBCHEM_FEATURE_SELFOVERLAP>  (1) 
16.735

>  <PUBCHEM_SHAPE_FINGERPRINT>  (1) 
14390081 3 18343582953663911809
20096714 4 18413111636629637695
21040471 1 18335147474780522303
24536 1 18336817654349476091
29004967 10 17967822638668053296
5084963 1 17914622893201911864

>  <PUBCHEM_SHAPE_MULTIPOLES>  (1) 
148.8
3.53
1.38
0.68
0.48
0.15
0.01
-1.45
-0.19
0.09
-0.05
-0.12
0.02
0.22

>  <PUBCHEM_SHAPE_SELFOVERLAP>  (1) 
287.973

>  <PUBCHEM_SHAPE_VOLUME>  (1) 
92.1

>  <PUBCHEM_COORDINATE_TYPE>  (1) 
2
5
10

$$$$
