44921
     RDKit          3D

 27 29  0  0  0  0  0  0  0  0999 V2000
   -2.7445   -1.5775   -0.0227 O   0  0  0  0  0  0  0  0  0  0  0  0
    3.6797    0.0347    0.8055 O   0  0  0  0  0  0  0  0  0  0  0  0
   -4.3380    2.3765   -0.5538 O   0  0  0  0  0  0  0  0  0  0  0  0
    2.1624    0.4210   -0.8884 O   0  0  0  0  0  0  0  0  0  0  0  0
    7.1455   -0.4138   -0.3728 N   0  0  0  0  0  0  0  0  0  0  0  0
    6.0430   -0.3098    0.5713 C   0  0  0  0  0  0  0  0  0  0  0  0
    7.2819    0.8213   -1.1487 C   0  0  0  0  0  0  0  0  0  0  0  0
    8.3985   -0.7130    0.3248 C   0  0  0  0  0  0  0  0  0  0  0  0
    4.7357   -0.0424   -0.1575 C   0  0  0  0  0  0  0  0  0  0  0  0
   -2.6386    0.8923    0.1184 C   0  0  0  0  0  0  0  0  0  0  0  0
   -2.1024   -0.3980    0.2373 C   0  0  0  0  0  0  0  0  0  0  0  0
    0.0247    0.5281    0.9706 C   0  0  0  0  0  0  0  0  0  0  0  0
   -4.9774   -1.0743   -0.6395 C   0  0  0  0  0  0  0  0  0  0  0  0
   -5.1520    0.2407   -0.2016 C   0  0  0  0  0  0  0  0  0  0  0  0
    1.4289    0.3281    1.4293 C   0  0  0  0  0  0  0  0  0  0  0  0
   -3.6425   -1.5370   -1.1249 C   0  0  0  0  0  0  0  0  0  0  0  0
   -0.7818   -0.5694    0.6831 C   0  0  0  0  0  0  0  0  0  0  0  0
   -4.0495    1.2234   -0.2389 C   0  0  0  0  0  0  0  0  0  0  0  0
   -1.8062    1.9912    0.4076 C   0  0  0  0  0  0  0  0  0  0  0  0
   -0.4861    1.8106    0.8254 C   0  0  0  0  0  0  0  0  0  0  0  0
    8.3858    0.6994   -2.1853 C   0  0  0  0  0  0  0  0  0  0  0  0
    8.2826   -1.9913    1.1377 C   0  0  0  0  0  0  0  0  0  0  0  0
    2.4344    0.2731    0.2954 C   0  0  0  0  0  0  0  0  0  0  0  0
   -6.0683   -1.9548   -0.6104 C   0  0  0  0  0  0  0  0  0  0  0  0
   -6.4105    0.6748    0.2385 C   0  0  0  0  0  0  0  0  0  0  0  0
   -7.3171   -1.5244   -0.1616 C   0  0  0  0  0  0  0  0  0  0  0  0
   -7.4883   -0.2093    0.2613 C   0  0  0  0  0  0  0  0  0  0  0  0
  1 11  1  0
  1 16  1  0
  2  9  1  0
  2 23  1  0
  3 18  2  0
  4 23  2  0
  5  6  1  0
  5  7  1  0
  5  8  1  0
  6  9  1  0
  7 21  1  0
  8 22  1  0
 10 11  2  0
 10 18  1  0
 10 19  1  0
 11 17  1  0
 12 15  1  0
 12 17  2  0
 12 20  1  0
 13 14  2  0
 13 16  1  0
 13 24  1  0
 14 18  1  0
 14 25  1  0
 15 23  1  0
 19 20  2  0
 24 26  2  0
 25 27  2  0
 26 27  1  0
M  END
>  <PUBCHEM_COMPOUND_CID>  (1) 
44921

>  <PUBCHEM_CONFORMER_RMSD>  (1) 
1

>  <PUBCHEM_CONFORMER_DIVERSEORDER>  (1) 
1
55
104
173
33
35
135
192
116
32
208
38
89
158
177
16
46
47
100
176
205
21
159
209
14
86
156
61
110
113
71
40
6
44
78
148
92
186
37
111
152
45
51
199
203
146
139
84
10
74
115
23
105
27
187
17
88
82
49
11
144
167
169
165
8
138
94
29
13
140
160
194
190
60
50
107
28
103
145
134
174
36
119
67
172
81
76
108
184
121
56
91
79
64
22
4
193
18
93
122
96
106
129
98
183
161
19
175
73
75
112
77
83
54
162
195
48
178
164
191
15
26
101
25
200
41
12
202
39
149
68
166
155
85
126
118
80
7
97
128
168
137
30
43
201
123
117
197
5
20
70
69
62
87
150
127
189
95
182
99
151
120
204
142
185
65
102
124
31
42
170
133
180
9
24
171
157
188
196
153
143
211
210
66
207
3
131
212
198
154
72
136
58
206
130
163
63
34
132
2
179
53
90
52
181
57
109
147
141
125
59
114

>  <PUBCHEM_MMFF94_PARTIAL_CHARGES>  (1) 
32
1 -0.36
10 0.09
11 0.08
12 -0.14
13 -0.14
14 0.09
15 0.2
16 0.42
17 -0.15
18 0.4
19 -0.15
2 -0.43
20 -0.15
23 0.66
24 -0.15
25 -0.15
26 -0.15
27 -0.15
3 -0.57
4 -0.57
40 0.15
41 0.15
42 0.15
49 0.15
5 -0.81
50 0.15
51 0.15
52 0.15
6 0.27
7 0.27
8 0.27
9 0.28

>  <PUBCHEM_EFFECTIVE_ROTOR_COUNT>  (1) 
8.4

>  <PUBCHEM_PHARMACOPHORE_FEATURES>  (1) 
7
1 1 acceptor
1 3 acceptor
1 4 acceptor
1 5 cation
6 10 11 12 17 19 20 rings
6 13 14 24 25 26 27 rings
7 1 10 11 13 14 16 18 rings

>  <PUBCHEM_HEAVY_ATOM_COUNT>  (1) 
27

>  <PUBCHEM_ATOM_DEF_STEREO_COUNT>  (1) 
0

>  <PUBCHEM_ATOM_UDEF_STEREO_COUNT>  (1) 
0

>  <PUBCHEM_BOND_DEF_STEREO_COUNT>  (1) 
0

>  <PUBCHEM_BOND_UDEF_STEREO_COUNT>  (1) 
0

>  <PUBCHEM_ISOTOPIC_ATOM_COUNT>  (1) 
0

>  <PUBCHEM_COMPONENT_COUNT>  (1) 
1

>  <PUBCHEM_CACTVS_TAUTO_COUNT>  (1) 
1

>  <PUBCHEM_CONFORMER_ID>  (1) 
0000AF7900000001

>  <PUBCHEM_MMFF94_ENERGY>  (1) 
78.1436

>  <PUBCHEM_FEATURE_SELFOVERLAP>  (1) 
35.54

>  <PUBCHEM_SHAPE_FINGERPRINT>  (1) 
10 15 17203599403509772362
10076449 9 18272375291089090697
10299344 5 18334293163099620338
106641 1 11023822903501929567
10674148 151 18273494568193234643
11135926 11 16343699906966218373
11315181 36 17918276462956390505
11524674 6 16128654176142737511
11578080 2 17242993681051697655
11719270 70 18131068204794057038
12082328 90 18040433274106592702
12166972 35 18260547844314626788
12236239 1 17967810522496947553
13288520 33 18343299284765826585
13668630 136 17346885550764094254
13673619 4 17703789232236832056
13885169 127 16988568978478085337
14068700 675 18409449181074108284
14251764 18 18186522111804145278
15183329 4 17385718089480517346
15301273 46 15554451786552846242
15419008 47 17418368082803963512
15461852 350 18410862036651676052
15716309 27 13110964219477078468
1577012 14 17313377877334957385
16087824 20 18270681953822348737
18603816 31 16415184724824973911
18643901 69 18131638888949018844
18681886 176 18408879667956426144
20105231 36 18334859455081385267
20554085 129 13118277118674939484
21150785 3 17894630366200480808
21267235 1 18412262874531493347
21315763 28 18333448725553637776
21360443 120 18040997319562434034
22224240 67 13758353380229944684
2297311 6 18272368676950458345
23035841 295 18272650151372956168
23198884 109 17748544839954362090
23559900 14 18200864196995510744
23576562 1 15068916324518014302
24771293 8 10953727886370618707
3004659 81 18409726291978339816
3178227 256 16415476065378186954
335352 9 18413101763634117037
34797466 226 17632859750910715544
4107672 100 18409445848142258101
5265222 85 18200312246679706686
5283156 175 18409166598121656362
54039377 194 18335424603883572363
5470011 282 17967816072248873710
5758199 1 12391508694531903988
58902169 19 17676209104225106270
636775 8 18335145344925785947

>  <PUBCHEM_SHAPE_MULTIPOLES>  (1) 
527.19
27.3
1.87
1.22
43.96
0.05
-0.31
-9.49
-5.96
-1.94
-0.03
2.37
0.06
-2.07

>  <PUBCHEM_SHAPE_SELFOVERLAP>  (1) 
1121.29

>  <PUBCHEM_SHAPE_VOLUME>  (1) 
292.9

>  <PUBCHEM_COORDINATE_TYPE>  (1) 
2
5
10

$$$$
