44923
     RDKit          3D

 25 27  0  0  1  0  0  0  0  0999 V2000
    2.0856    1.5558    0.3094 O   0  0  0  0  0  0  0  0  0  0  0  0
   -4.4072    0.0131    0.4540 O   0  0  0  0  0  0  0  0  0  0  0  0
    3.6159   -2.2238   -1.0429 O   0  0  0  0  0  0  0  0  0  0  0  0
   -7.1062   -0.7627    0.7793 O   0  0  0  0  0  0  0  0  0  0  0  0
   -2.8135   -0.0266   -1.2131 O   0  0  0  0  0  0  0  0  0  0  0  0
   -9.0997    0.9372   -0.1288 O   0  0  0  0  0  0  0  0  0  0  0  0
    1.9176   -0.8761   -0.1254 C   0  0  0  0  0  0  0  0  0  0  0  0
    1.4048    0.3702    0.2622 C   0  0  0  0  0  0  0  0  0  0  0  0
    4.3357    1.1320   -0.3048 C   0  0  0  0  0  0  0  0  0  0  0  0
    4.4581   -0.2533   -0.1732 C   0  0  0  0  0  0  0  0  0  0  0  0
   -0.7775   -0.6269    0.6663 C   0  0  0  0  0  0  0  0  0  0  0  0
    3.0384    1.7378   -0.7309 C   0  0  0  0  0  0  0  0  0  0  0  0
    3.3374   -1.1640   -0.4850 C   0  0  0  0  0  0  0  0  0  0  0  0
    0.0672    0.4796    0.6753 C   0  0  0  0  0  0  0  0  0  0  0  0
   -2.1987   -0.4900    1.0947 C   0  0  0  0  0  0  0  0  0  0  0  0
    1.0469   -1.9834   -0.1343 C   0  0  0  0  0  0  0  0  0  0  0  0
   -0.2884   -1.8587    0.2537 C   0  0  0  0  0  0  0  0  0  0  0  0
    5.4430    1.9455   -0.0249 C   0  0  0  0  0  0  0  0  0  0  0  0
    5.6821   -0.8185    0.2118 C   0  0  0  0  0  0  0  0  0  0  0  0
   -6.7632    0.4867    0.1753 C   0  0  0  0  0  0  0  0  0  0  0  0
   -5.4103    0.3430   -0.5122 C   0  0  0  0  0  0  0  0  0  0  0  0
   -3.1428   -0.1437   -0.0406 C   0  0  0  0  0  0  0  0  0  0  0  0
    6.6569    1.3823    0.3690 C   0  0  0  0  0  0  0  0  0  0  0  0
    6.7767    0.0005    0.4858 C   0  0  0  0  0  0  0  0  0  0  0  0
   -7.8589    0.8438   -0.8206 C   0  0  0  0  0  0  0  0  0  0  0  0
  1  8  1  0
  1 12  1  0
  2 21  1  0
  2 22  1  0
  3 13  2  0
  4 20  1  0
  5 22  2  0
  6 25  1  0
  7  8  2  0
  7 13  1  0
  7 16  1  0
  8 14  1  0
  9 10  2  0
  9 12  1  0
  9 18  1  0
 10 13  1  0
 10 19  1  0
 11 14  2  0
 11 15  1  0
 11 17  1  0
 15 22  1  0
 16 17  2  0
 18 23  2  0
 19 24  2  0
 20 21  1  0
 20 25  1  0
 23 24  1  0
M  END
>  <PUBCHEM_COMPOUND_CID>  (1) 
44923

>  <PUBCHEM_CONFORMER_RMSD>  (1) 
0.8

>  <PUBCHEM_CONFORMER_DIVERSEORDER>  (1) 
1
155
50
167
79
199
51
57
87
387
413
218
150
105
405
230
70
300
10
28
250
373
236
324
368
126
338
134
154
325
416
49
46
78
297
225
221
27
252
249
95
408
273
16
81
147
189
113
347
125
136
149
264
11
386
168
260
143
303
310
43
201
19
20
74
424
131
280
166
239
73
180
345
315
179
41
144
417
211
102
127
397
210
399
258
64
214
83
395
138
48
224
115
282
82
59
388
111
183
173
339
159
242
322
6
371
67
241
76
321
141
13
206
301
2
281
164
193
212
341
17
25
292
256
176
54
22
66
263
96
336
75
186
23
129
71
208
130
4
385
197
108
7
284
216
353
237
94
228
152
171
34
390
120
157
287
194
128
356
271
226
29
295
415
36
163
37
137
33
328
352
123
40
270
254
12
60
269
185
266
412
420
85
334
198
320
15
174
215
107
402
294
290
77
99
35
135
342
257
363
156
3
14
38
205
346
302
372
112
389
181
84
53
98
103
331
132
21
335
362
233
217
220
42
80
312
86
24
366
337
203
365
376
316
162
18
323
382
370
139
190
407
101
93
311
110
89
184
231
307
238
251
202
133
88
31
172
344
65
52
229
178
343
119
333
223
369
142
207
406
32
288
278
97
253
396
68
299
380
403
296
409
213
100
61
9
293
392
234
305
122
160
327
56
175
114
255
317
374
410
219
277
355
332
268
289
267
245
196
349
378
329
146
45
279
72
274
104
5
63
244
262
326
170
106
357
169
151
259
8
116
401
222
90
391
140
39
91
276
265
121
314
44
62
177
227
109
243
411
47
187
351
377
232
313
26
350
195
192
30
153
383
235
200
69
118
400
348
360
246
158
272
55
247
124
240
384
117
304
58
375
291
161
306
358
298
330
393
367
359
309
92
364
248
319
379
182
283
422
398
285
394
165
261
188
209
286
418
318
381
404
148
340
423
354
361
204
421
191
419
275
414
308
145

>  <PUBCHEM_MMFF94_PARTIAL_CHARGES>  (1) 
34
1 -0.36
10 0.09
11 -0.14
12 0.42
13 0.4
14 -0.15
15 0.2
16 -0.15
17 -0.15
18 -0.15
19 -0.15
2 -0.43
20 0.28
21 0.28
22 0.66
23 -0.15
24 -0.15
25 0.28
28 0.15
3 -0.57
31 0.15
32 0.15
33 0.15
34 0.15
38 0.15
39 0.15
4 -0.68
42 0.4
43 0.4
5 -0.57
6 -0.68
7 0.09
8 0.08
9 -0.14

>  <PUBCHEM_EFFECTIVE_ROTOR_COUNT>  (1) 
6.4

>  <PUBCHEM_PHARMACOPHORE_FEATURES>  (1) 
10
1 1 acceptor
1 3 acceptor
1 4 acceptor
1 4 donor
1 5 acceptor
1 6 acceptor
1 6 donor
6 7 8 11 14 16 17 rings
6 9 10 18 19 23 24 rings
7 1 7 8 9 10 12 13 rings

>  <PUBCHEM_HEAVY_ATOM_COUNT>  (1) 
25

>  <PUBCHEM_ATOM_DEF_STEREO_COUNT>  (1) 
0

>  <PUBCHEM_ATOM_UDEF_STEREO_COUNT>  (1) 
1

>  <PUBCHEM_BOND_DEF_STEREO_COUNT>  (1) 
0

>  <PUBCHEM_BOND_UDEF_STEREO_COUNT>  (1) 
0

>  <PUBCHEM_ISOTOPIC_ATOM_COUNT>  (1) 
0

>  <PUBCHEM_COMPONENT_COUNT>  (1) 
1

>  <PUBCHEM_CACTVS_TAUTO_COUNT>  (1) 
1

>  <PUBCHEM_CONFORMER_ID>  (1) 
0000AF7B00000001

>  <PUBCHEM_MMFF94_ENERGY>  (1) 
78.2071

>  <PUBCHEM_FEATURE_SELFOVERLAP>  (1) 
50.774

>  <PUBCHEM_SHAPE_FINGERPRINT>  (1) 
10 15 17821449088021179960
10411042 1 17906734705576816622
106641 1 11602824609643963348
11135609 127 18269549601872326700
11719270 70 18342737403647942858
12166972 35 10881405331062076703
12236239 1 17561367261786409322
12730499 353 18187651276060673947
13533116 47 17274826809669698686
14117953 113 18413114966168425948
14170010 4 18411138039296745296
14251764 18 18186801413168746758
14294032 229 15265961870339520067
15142383 8 17603586335714795792
15183329 4 16845575318786796601
15439362 3 17841983678862277104
15510794 2 18260269655968559931
16120349 18 18342733040113930029
18335252 114 18410847768258973085
18608769 82 18335420201673820043
20157964 124 18413392016669594102
20715895 44 18409450301975305960
21033648 29 18115299111506016616
21150785 3 17060337427371257081
21792934 111 18410845548309241200
221357 26 18412263900533317973
22224240 67 17822008718624420531
23559900 14 17987510571263803440
255183 451 17700987535635402838
33532 11 9511462217027403093
335352 9 18412832378874254694
34797466 226 14333405666696531890
3633792 109 18201444635896946659
4072396 5 18411975872106114906
4073 2 18114467855024904579
4325135 7 18131913749628620732
4340502 62 17022619771559593658
5283156 175 16988846051398283710
5385378 56 16515676702673377867
59755656 520 17168139074939557483

>  <PUBCHEM_SHAPE_MULTIPOLES>  (1) 
479.27
21.91
1.82
0.89
40.61
0.23
-0.03
-8.63
-0.62
-2.27
-0.24
0.28
0.07
0.8

>  <PUBCHEM_SHAPE_SELFOVERLAP>  (1) 
1035.136

>  <PUBCHEM_SHAPE_VOLUME>  (1) 
260.1

>  <PUBCHEM_COORDINATE_TYPE>  (1) 
2
5
10

$$$$
