44930
     RDKit          3D

 14 13  0  0  0  0  0  0  0  0999 V2000
    1.8998   -0.3592    0.0055 N   0  0  0  0  0  0  0  0  0  0  0  0
    6.8220   -0.5597    0.0098 N   0  0  0  0  0  0  0  0  0  0  0  0
    7.9983    0.2481   -0.0182 N   0  0  0  0  0  0  0  0  0  0  0  0
   -1.8101    0.5033    0.0015 C   0  0  0  0  0  0  0  0  0  0  0  0
   -3.0773   -0.3547    0.0000 C   0  0  0  0  0  0  0  0  0  0  0  0
   -0.5512   -0.3676    0.0249 C   0  0  0  0  0  0  0  0  0  0  0  0
   -4.3694    0.4687    0.0003 C   0  0  0  0  0  0  0  0  0  0  0  0
    0.7136    0.4887   -0.0087 C   0  0  0  0  0  0  0  0  0  0  0  0
   -5.6355   -0.3917   -0.0276 C   0  0  0  0  0  0  0  0  0  0  0  0
   -6.9248    0.4314    0.0344 C   0  0  0  0  0  0  0  0  0  0  0  0
    3.1134    0.4449   -0.0157 C   0  0  0  0  0  0  0  0  0  0  0  0
    4.3467   -0.4598    0.0084 C   0  0  0  0  0  0  0  0  0  0  0  0
    5.6617    0.3229    0.0049 C   0  0  0  0  0  0  0  0  0  0  0  0
   -8.1872   -0.4150   -0.0195 C   0  0  0  0  0  0  0  0  0  0  0  0
  1  8  1  0
  1 11  1  0
  2  3  1  0
  2 13  1  0
  4  5  1  0
  4  6  1  0
  5  7  1  0
  6  8  1  0
  7  9  1  0
  9 10  1  0
 10 14  1  0
 11 12  1  0
 12 13  1  0
M  END
>  <PUBCHEM_COMPOUND_CID>  (1) 
44930

>  <PUBCHEM_CONFORMER_RMSD>  (1) 
1

>  <PUBCHEM_CONFORMER_DIVERSEORDER>  (1) 
1
67
70
9
13
40
15
63
55
57
83
69
87
51
49
35
38
42
12
62
34
39
60
4
16
84
18
22
21
37
68
45
82
36
77
11
58
53
78
89
23
41
32
85
44
17
81
27
80
31
50
47
24
7
10
33
14
26
30
64
72
29
65
43
3
61
28
73
19
2
74
52
46
79
71
76
8
54
6
75
88
25
20
5
86
56
59
66
48

>  <PUBCHEM_MMFF94_PARTIAL_CHARGES>  (1) 
10
1 -0.9
11 0.27
13 0.27
2 -0.63
27 0.36
3 -0.72
39 0.36
40 0.36
41 0.36
8 0.27

>  <PUBCHEM_EFFECTIVE_ROTOR_COUNT>  (1) 
11

>  <PUBCHEM_PHARMACOPHORE_FEATURES>  (1) 
7
1 1 cation
1 1 donor
1 14 hydrophobe
1 2 donor
1 3 donor
3 4 5 6 hydrophobe
3 7 9 10 hydrophobe

>  <PUBCHEM_HEAVY_ATOM_COUNT>  (1) 
14

>  <PUBCHEM_ATOM_DEF_STEREO_COUNT>  (1) 
0

>  <PUBCHEM_ATOM_UDEF_STEREO_COUNT>  (1) 
0

>  <PUBCHEM_BOND_DEF_STEREO_COUNT>  (1) 
0

>  <PUBCHEM_BOND_UDEF_STEREO_COUNT>  (1) 
0

>  <PUBCHEM_ISOTOPIC_ATOM_COUNT>  (1) 
0

>  <PUBCHEM_COMPONENT_COUNT>  (1) 
1

>  <PUBCHEM_CACTVS_TAUTO_COUNT>  (1) 
1

>  <PUBCHEM_CONFORMER_ID>  (1) 
0000AF8200000001

>  <PUBCHEM_MMFF94_ENERGY>  (1) 
-7.7829

>  <PUBCHEM_FEATURE_SELFOVERLAP>  (1) 
36.858

>  <PUBCHEM_SHAPE_FINGERPRINT>  (1) 
11315181 36 18202286922613763001
12091667 2 18187083954220389433
13533116 47 17095793339934799928
14123256 10 18410012130425272307
14251764 18 18411138021757991745
14251764 46 18410575088958059210
17834076 25 18410575084663078917
18006028 8 18202563977695060129
22224240 67 16128651955364940198
23521765 1 18341895190345678853
33684 2 18410573980856490347
42788 4 18410573985520820196
8209 1 18407477765013837605

>  <PUBCHEM_SHAPE_MULTIPOLES>  (1) 
273.17
25.11
0.78
0.6
3.24
0.01
0
-1.4
-0.07
-0.12
0
-0.11
0
-0.02

>  <PUBCHEM_SHAPE_SELFOVERLAP>  (1) 
483.076

>  <PUBCHEM_SHAPE_VOLUME>  (1) 
176.6

>  <PUBCHEM_COORDINATE_TYPE>  (1) 
2
5
10

$$$$
