44935
     RDKit          3D

 10 10  0  0  1  0  0  0  0  0999 V2000
   -0.0253    0.5477    1.1404 S   0  0  0  0  0  0  0  0  0  0  0  0
    2.0612    2.1521   -0.2228 S   0  0  0  0  0  0  0  0  0  0  0  0
   -3.1903   -0.9782   -0.0041 O   0  0  0  0  0  0  0  0  0  0  0  0
    2.1378   -0.6016   -0.0431 N   0  0  0  0  0  0  0  0  0  0  0  0
   -2.6042    0.2878    0.2561 C   0  0  0  0  0  0  0  0  0  0  0  0
   -3.7227    0.1513   -0.7083 C   0  0  0  0  0  0  0  0  0  0  0  0
   -1.1777    0.4047   -0.2463 C   0  0  0  0  0  0  0  0  0  0  0  0
    1.4994    0.6242    0.2305 C   0  0  0  0  0  0  0  0  0  0  0  0
    3.4031   -0.6805   -0.7771 C   0  0  0  0  0  0  0  0  0  0  0  0
    1.6186   -1.9075    0.3746 C   0  0  0  0  0  0  0  0  0  0  0  0
  1  7  1  0
  1  8  1  0
  2  8  2  0
  3  5  1  0
  3  6  1  0
  4  8  1  0
  4  9  1  0
  4 10  1  0
  5  6  1  0
  5  7  1  0
M  END
>  <PUBCHEM_COMPOUND_CID>  (1) 
44935

>  <PUBCHEM_CONFORMER_RMSD>  (1) 
0.6

>  <PUBCHEM_CONFORMER_DIVERSEORDER>  (1) 
8
52
39
46
35
36
24
40
29
16
25
44
45
49
38
27
14
43
41
48
15
11
26
21
2
23
50
22
28
12
19
53
34
13
30
54
3
33
10
9
32
37
18
31
47
5
1
42
51
6
4
7
20
17

>  <PUBCHEM_MMFF94_PARTIAL_CHARGES>  (1) 
13
1 -0.37
10 0.3
11 0.1
12 0.1
13 0.1
2 -0.38
3 -0.3
4 -0.66
5 -0.05
6 -0.05
7 0.32
8 0.58
9 0.3

>  <PUBCHEM_EFFECTIVE_ROTOR_COUNT>  (1) 
4.6

>  <PUBCHEM_PHARMACOPHORE_FEATURES>  (1) 
2
1 2 acceptor
1 3 acceptor

>  <PUBCHEM_HEAVY_ATOM_COUNT>  (1) 
10

>  <PUBCHEM_ATOM_DEF_STEREO_COUNT>  (1) 
0

>  <PUBCHEM_ATOM_UDEF_STEREO_COUNT>  (1) 
1

>  <PUBCHEM_BOND_DEF_STEREO_COUNT>  (1) 
0

>  <PUBCHEM_BOND_UDEF_STEREO_COUNT>  (1) 
0

>  <PUBCHEM_ISOTOPIC_ATOM_COUNT>  (1) 
0

>  <PUBCHEM_COMPONENT_COUNT>  (1) 
1

>  <PUBCHEM_CACTVS_TAUTO_COUNT>  (1) 
1

>  <PUBCHEM_CONFORMER_ID>  (1) 
0000AF8700000008

>  <PUBCHEM_MMFF94_ENERGY>  (1) 
27.5209

>  <PUBCHEM_FEATURE_SELFOVERLAP>  (1) 
10.149

>  <PUBCHEM_SHAPE_FINGERPRINT>  (1) 
12897270 3 18260829302015762529
12932764 1 17458335334768184513
14128692 85 18202286874878700440
14251717 144 18410574011269577060
14325111 11 18410854408288604585
15477762 27 18412265025724760398
15757776 16 18338234869335543790
170605 34 18042116738173267680
177051 138 17489866033796515559
18186145 218 18260546727701685873
19422 9 17988651821605073481
20201158 50 18408604738420184083
20645477 70 18343861130511759031
20671657 53 18341338790581445956
21293036 1 18336274483200364502
23552423 10 18411418406076909265
23598291 2 18129400244689258977
3248919 1 18338788001020068009
449060 23 17773611424830527990
581208 293 18339915021464884273
93112 12 18408599254168797357

>  <PUBCHEM_SHAPE_MULTIPOLES>  (1) 
202.64
6.12
1.78
0.92
4.18
0.2
-0.11
-0.98
1.85
-1.7
-0.01
-0.03
0.05
0.01

>  <PUBCHEM_SHAPE_SELFOVERLAP>  (1) 
357.509

>  <PUBCHEM_SHAPE_VOLUME>  (1) 
136.2

>  <PUBCHEM_COORDINATE_TYPE>  (1) 
2
5
10

$$$$
