44938
     RDKit          3D

 18 18  0  0  0  0  0  0  0  0999 V2000
   -1.1962    0.0841   -0.7164 O   0  0  0  0  0  0  0  0  0  0  0  0
    1.1877   -0.0302    0.7093 O   0  0  0  0  0  0  0  0  0  0  0  0
   -2.3453    0.0653    1.2932 O   0  0  0  0  0  0  0  0  0  0  0  0
    2.3485   -0.1336   -1.2897 O   0  0  0  0  0  0  0  0  0  0  0  0
   -2.6045    1.8523   -0.1727 N   0  0  0  0  0  0  0  0  0  0  0  0
    2.7787    1.6228    0.1731 N   0  0  0  0  0  0  0  0  0  0  0  0
   -0.6445   -1.1482   -0.3509 C   0  0  0  0  0  0  0  0  0  0  0  0
    0.5370   -1.1734    0.3552 C   0  0  0  0  0  0  0  0  0  0  0  0
   -1.3156   -2.2939   -0.7168 C   0  0  0  0  0  0  0  0  0  0  0  0
    1.0762   -2.4087    0.7144 C   0  0  0  0  0  0  0  0  0  0  0  0
   -0.7763   -3.5292   -0.3576 C   0  0  0  0  0  0  0  0  0  0  0  0
    0.4196   -3.5866    0.3580 C   0  0  0  0  0  0  0  0  0  0  0  0
   -2.0747    0.6211    0.2293 C   0  0  0  0  0  0  0  0  0  0  0  0
    2.1323    0.4479   -0.2270 C   0  0  0  0  0  0  0  0  0  0  0  0
   -3.5407    2.5619    0.6874 C   0  0  0  0  0  0  0  0  0  0  0  0
   -2.2742    2.5049   -1.4355 C   0  0  0  0  0  0  0  0  0  0  0  0
    3.7797    2.2366   -0.6877 C   0  0  0  0  0  0  0  0  0  0  0  0
    2.5123    2.3068    1.4343 C   0  0  0  0  0  0  0  0  0  0  0  0
  1  7  1  0
  1 13  1  0
  2  8  1  0
  2 14  1  0
  3 13  2  0
  4 14  2  0
  5 13  1  0
  5 15  1  0
  5 16  1  0
  6 14  1  0
  6 17  1  0
  6 18  1  0
  7  8  2  0
  7  9  1  0
  8 10  1  0
  9 11  2  0
 10 12  2  0
 11 12  1  0
M  END
>  <PUBCHEM_COMPOUND_CID>  (1) 
44938

>  <PUBCHEM_CONFORMER_RMSD>  (1) 
0.8

>  <PUBCHEM_CONFORMER_DIVERSEORDER>  (1) 
1
22
38
37
40
20
3
35
31
4
32
7
21
2
33
41
14
23
18
36
6
17
29
15
39
25
11
24
10
27
5
8
30
13
28
34
12
19
9
26
16

>  <PUBCHEM_MMFF94_PARTIAL_CHARGES>  (1) 
22
1 -0.23
10 -0.15
11 -0.15
12 -0.15
13 0.78
14 0.78
15 0.3
16 0.3
17 0.3
18 0.3
19 0.15
2 -0.23
20 0.15
21 0.15
22 0.15
3 -0.57
4 -0.57
5 -0.66
6 -0.66
7 0.08
8 0.08
9 -0.15

>  <PUBCHEM_EFFECTIVE_ROTOR_COUNT>  (1) 
6

>  <PUBCHEM_PHARMACOPHORE_FEATURES>  (1) 
3
1 3 acceptor
1 4 acceptor
6 7 8 9 10 11 12 rings

>  <PUBCHEM_HEAVY_ATOM_COUNT>  (1) 
18

>  <PUBCHEM_ATOM_DEF_STEREO_COUNT>  (1) 
0

>  <PUBCHEM_ATOM_UDEF_STEREO_COUNT>  (1) 
0

>  <PUBCHEM_BOND_DEF_STEREO_COUNT>  (1) 
0

>  <PUBCHEM_BOND_UDEF_STEREO_COUNT>  (1) 
0

>  <PUBCHEM_ISOTOPIC_ATOM_COUNT>  (1) 
0

>  <PUBCHEM_COMPONENT_COUNT>  (1) 
1

>  <PUBCHEM_CACTVS_TAUTO_COUNT>  (1) 
1

>  <PUBCHEM_CONFORMER_ID>  (1) 
0000AF8A00000001

>  <PUBCHEM_MMFF94_ENERGY>  (1) 
54.3286

>  <PUBCHEM_FEATURE_SELFOVERLAP>  (1) 
15.223

>  <PUBCHEM_SHAPE_FINGERPRINT>  (1) 
10165383 225 18266200390400523156
10670039 82 17254565314737654492
11578080 2 14941323712858625742
13134695 92 17399218760402399143
13294875 104 18270108007939363248
14178000 15 17403172595573270585
14648413 74 18046628893575484243
14955137 171 18124036719726790730
15490181 7 18410860957707873895
16945 1 17977661245060571402
17134986 127 18337674109435512188
18785283 64 18119541933303291473
20510252 161 17905599252902091090
20671657 1 18124597475072599685
21041028 32 17043455237585328945
21524375 3 18410570678026659202
21639500 275 18050272679584496245
23402539 116 17765142170219386270
23419403 2 16530113200141707026
23557571 272 17835806678766423348
23558518 356 18337381729774824250
238 59 17829300533405085869
305870 269 18335977589053658344
31174 14 17903651678897481401
350125 39 18410009927133839043
6442390 28 18339378434410966793
7364860 26 18050006588795361743
81228 2 17977674438915268258

>  <PUBCHEM_SHAPE_MULTIPOLES>  (1) 
336.99
5.01
4.7
1.19
1.94
2.62
0
-6.43
0.03
-1.48
-0.03
0.05
-0.54
-0.14

>  <PUBCHEM_SHAPE_SELFOVERLAP>  (1) 
688.235

>  <PUBCHEM_SHAPE_VOLUME>  (1) 
194.9

>  <PUBCHEM_COORDINATE_TYPE>  (1) 
2
5
10

$$$$
