4493
     RDKit          3D

 22 23  0  0  0  0  0  0  0  0999 V2000
   -1.8879    2.7220   -0.4414 F   0  0  0  0  0  0  0  0  0  0  0  0
   -3.4553    1.4838   -1.2994 F   0  0  0  0  0  0  0  0  0  0  0  0
   -3.3819    1.8058    0.8554 F   0  0  0  0  0  0  0  0  0  0  0  0
    2.0674    1.7805    0.7722 O   0  0  0  0  0  0  0  0  0  0  0  0
    2.4841   -2.5053   -0.8809 O   0  0  0  0  0  0  0  0  0  0  0  0
   -4.1570   -2.2094    0.4084 O   0  0  0  0  0  0  0  0  0  0  0  0
   -4.4517   -0.0558    0.0722 O   0  0  0  0  0  0  0  0  0  0  0  0
    1.8541   -0.4057   -0.0390 N   0  0  0  0  0  0  0  0  0  0  0  0
    4.0288   -0.8352   -0.3775 N   0  0  0  0  0  0  0  0  0  0  0  0
   -3.7096   -1.0556    0.2120 N   0  0  0  0  0  0  0  0  0  0  0  0
    4.0433    0.5170    0.1118 C   0  0  0  0  0  0  0  0  0  0  0  0
    2.5468    0.7404    0.3357 C   0  0  0  0  0  0  0  0  0  0  0  0
    4.5739    1.4809   -0.9416 C   0  0  0  0  0  0  0  0  0  0  0  0
    4.8021    0.6214    1.4282 C   0  0  0  0  0  0  0  0  0  0  0  0
    2.7483   -1.3786   -0.4794 C   0  0  0  0  0  0  0  0  0  0  0  0
    0.4739   -0.5607    0.0224 C   0  0  0  0  0  0  0  0  0  0  0  0
   -0.3650    0.5459   -0.1326 C   0  0  0  0  0  0  0  0  0  0  0  0
   -0.0817   -1.8244    0.2394 C   0  0  0  0  0  0  0  0  0  0  0  0
   -1.7498    0.3901   -0.0711 C   0  0  0  0  0  0  0  0  0  0  0  0
   -2.3005   -0.8730    0.1457 C   0  0  0  0  0  0  0  0  0  0  0  0
   -1.4665   -1.9803    0.3011 C   0  0  0  0  0  0  0  0  0  0  0  0
   -2.6157    1.5963   -0.2416 C   0  0  0  0  0  0  0  0  0  0  0  0
  1 22  1  0
  2 22  1  0
  3 22  1  0
  4 12  2  0
  5 15  2  0
  6 10  1  0
  7 10  2  0
  8 12  1  0
  8 15  1  0
  8 16  1  0
  9 11  1  0
  9 15  1  0
 10 20  1  0
 11 12  1  0
 11 13  1  0
 11 14  1  0
 16 17  2  0
 16 18  1  0
 17 19  1  0
 18 21  2  0
 19 20  2  0
 19 22  1  0
 20 21  1  0
M  CHG  2   6  -1  10   1
M  END
>  <PUBCHEM_COMPOUND_CID>  (1) 
4493

>  <PUBCHEM_CONFORMER_RMSD>  (1) 
0.6

>  <PUBCHEM_CONFORMER_DIVERSEORDER>  (1) 
1
4
6
3
2
5

>  <PUBCHEM_MMFF94_PARTIAL_CHARGES>  (1) 
24
1 -0.34
10 0.91
11 0.36
12 0.57
15 0.69
16 0.12
17 -0.15
18 -0.15
19 -0.14
2 -0.34
20 0.13
21 -0.15
22 1.16
23 0.37
3 -0.34
30 0.15
31 0.15
32 0.15
4 -0.57
5 -0.57
6 -0.52
7 -0.52
8 -0.24
9 -0.73

>  <PUBCHEM_EFFECTIVE_ROTOR_COUNT>  (1) 
3.6

>  <PUBCHEM_PHARMACOPHORE_FEATURES>  (1) 
9
1 4 acceptor
1 5 acceptor
1 6 acceptor
1 6 anion
1 7 acceptor
1 9 donor
3 11 13 14 hydrophobe
5 8 9 11 12 15 rings
6 16 17 18 19 20 21 rings

>  <PUBCHEM_HEAVY_ATOM_COUNT>  (1) 
22

>  <PUBCHEM_ATOM_DEF_STEREO_COUNT>  (1) 
0

>  <PUBCHEM_ATOM_UDEF_STEREO_COUNT>  (1) 
0

>  <PUBCHEM_BOND_DEF_STEREO_COUNT>  (1) 
0

>  <PUBCHEM_BOND_UDEF_STEREO_COUNT>  (1) 
0

>  <PUBCHEM_ISOTOPIC_ATOM_COUNT>  (1) 
0

>  <PUBCHEM_COMPONENT_COUNT>  (1) 
1

>  <PUBCHEM_CACTVS_TAUTO_COUNT>  (1) 
2

>  <PUBCHEM_CONFORMER_ID>  (1) 
0000118D00000001

>  <PUBCHEM_MMFF94_ENERGY>  (1) 
76.6104

>  <PUBCHEM_FEATURE_SELFOVERLAP>  (1) 
45.751

>  <PUBCHEM_SHAPE_FINGERPRINT>  (1) 
10366900 7 18338802350205130130
10498660 4 18187642470844824373
10608611 8 18411981347445527638
10646746 165 18335984181802239790
10670039 82 18261690241781236572
11132069 177 18260829263355938157
11405975 8 18267869389164336938
12107183 9 17682098999220891304
12173636 292 18338232652974040509
12236239 1 17022896878248218826
12390115 104 18199768984904141881
12403259 226 18412260657500290864
12403259 415 18130785698745016280
12596602 18 16733265758753358904
13140716 1 17907013233292592394
13224815 77 18334296448374860572
14790565 3 17979644429320514753
14866123 147 16542999296152044818
15042514 8 18192150627448904715
15196674 1 18411139125907504018
15219456 202 18342739593996413086
15536298 74 18342178830239452142
17349148 13 17967812794613813886
18186145 218 18268717112613202982
19049666 15 18340488859408424802
200 152 17632573872837833919
20510252 161 18411702084398086771
20645477 70 17704079456541875054
21267235 1 18410303523030459378
221490 88 18340776944440459606
22182937 141 18199193897336277393
22854114 59 18130787910252253466
23366157 5 17969507000610064914
23402539 116 18338507655567190503
23557571 272 18341909505561412574
23559900 14 18268429040978585070
23845131 108 17760943836036540953
2748010 2 18410015399111889871
350125 39 18338803423778350224
3545911 37 18412265008402427364
4028521 119 18334569119048442261
4214541 1 18409731742302075882
474 4 16372425898773792036
495365 180 17702646775599996682
5104073 3 18340487781334853986
5281201 14 18272097063155161054
633830 44 18127128580740974645
69090 78 18272086127778437791
77779 3 18411704270409924014
7808743 9 17836923770276298600
9709674 26 18411425015921321118

>  <PUBCHEM_SHAPE_MULTIPOLES>  (1) 
392.51
9.39
2.49
0.91
2.2
0.03
-0.04
-1.49
-0.48
-1.22
0.27
0.59
-0.18
0.77

>  <PUBCHEM_SHAPE_SELFOVERLAP>  (1) 
859.657

>  <PUBCHEM_SHAPE_VOLUME>  (1) 
215.1

>  <PUBCHEM_COORDINATE_TYPE>  (1) 
2
5
10

$$$$
