44934
     RDKit          3D

 16 16  0  0  0  0  0  0  0  0999 V2000
    1.1599   -0.0704    0.7802 O   0  0  0  0  0  0  0  0  0  0  0  0
    2.3462   -0.6975   -1.1186 O   0  0  0  0  0  0  0  0  0  0  0  0
   -1.6544    1.9034    0.0577 N   0  0  0  0  0  0  0  0  0  0  0  0
    3.2310    0.8311    0.3857 N   0  0  0  0  0  0  0  0  0  0  0  0
   -0.9084    0.9755   -0.8905 C   0  0  0  0  0  0  0  0  0  0  0  0
   -0.9812    1.8823    1.4224 C   0  0  0  0  0  0  0  0  0  0  0  0
   -1.6320    3.3203   -0.4973 C   0  0  0  0  0  0  0  0  0  0  0  0
   -3.0959    1.4355    0.1960 C   0  0  0  0  0  0  0  0  0  0  0  0
   -0.8809   -0.4484   -0.4189 C   0  0  0  0  0  0  0  0  0  0  0  0
    0.1535   -0.9032    0.3927 C   0  0  0  0  0  0  0  0  0  0  0  0
   -1.9040   -1.3078   -0.8073 C   0  0  0  0  0  0  0  0  0  0  0  0
    0.1653   -2.2308    0.8203 C   0  0  0  0  0  0  0  0  0  0  0  0
   -1.8927   -2.6355   -0.3795 C   0  0  0  0  0  0  0  0  0  0  0  0
   -0.8578   -3.0971    0.4342 C   0  0  0  0  0  0  0  0  0  0  0  0
    2.2678   -0.0360   -0.0876 C   0  0  0  0  0  0  0  0  0  0  0  0
    4.4837    1.0786   -0.2895 C   0  0  0  0  0  0  0  0  0  0  0  0
  1 10  1  0
  1 15  1  0
  2 15  2  0
  3  5  1  0
  3  6  1  0
  3  7  1  0
  3  8  1  0
  4 15  1  0
  4 16  1  0
  5  9  1  0
  9 10  2  0
  9 11  1  0
 10 12  1  0
 11 13  2  0
 12 14  2  0
 13 14  1  0
M  CHG  1   3   1
M  END
>  <PUBCHEM_COMPOUND_CID>  (1) 
44934

>  <PUBCHEM_CONFORMER_RMSD>  (1) 
0.6

>  <PUBCHEM_CONFORMER_DIVERSEORDER>  (1) 
2
17
15
20
19
16
18
1
11
8
12
10
9
5
13
7
14
6
21
4
3

>  <PUBCHEM_MMFF94_PARTIAL_CHARGES>  (1) 
21
1 -0.23
10 0.08
11 -0.15
12 -0.15
13 -0.15
14 -0.15
15 0.78
16 0.3
2 -0.57
28 0.15
29 0.15
3 -1.01
30 0.15
31 0.15
32 0.37
4 -0.73
5 0.65
6 0.5
7 0.5
8 0.5
9 -0.14

>  <PUBCHEM_EFFECTIVE_ROTOR_COUNT>  (1) 
5

>  <PUBCHEM_PHARMACOPHORE_FEATURES>  (1) 
4
1 2 acceptor
1 3 cation
1 4 donor
6 9 10 11 12 13 14 rings

>  <PUBCHEM_HEAVY_ATOM_COUNT>  (1) 
16

>  <PUBCHEM_ATOM_DEF_STEREO_COUNT>  (1) 
0

>  <PUBCHEM_ATOM_UDEF_STEREO_COUNT>  (1) 
0

>  <PUBCHEM_BOND_DEF_STEREO_COUNT>  (1) 
0

>  <PUBCHEM_BOND_UDEF_STEREO_COUNT>  (1) 
0

>  <PUBCHEM_ISOTOPIC_ATOM_COUNT>  (1) 
0

>  <PUBCHEM_COMPONENT_COUNT>  (1) 
1

>  <PUBCHEM_CACTVS_TAUTO_COUNT>  (1) 
2

>  <PUBCHEM_CONFORMER_ID>  (1) 
0000AF8600000002

>  <PUBCHEM_MMFF94_ENERGY>  (1) 
52.7922

>  <PUBCHEM_FEATURE_SELFOVERLAP>  (1) 
20.297

>  <PUBCHEM_SHAPE_FINGERPRINT>  (1) 
1 1 17904767669697340310
12173636 292 18410008797715624668
12532896 13 18338240370766598382
13027679 85 17976820110080461647
14614273 12 18114727279164413015
14787075 74 18273491291260216233
14817 1 8591434781169168056
15490181 7 18194125114066185367
16945 1 18410003368839902423
17134986 127 18048876290884453236
19837323 101 18408609149388507250
20510252 161 18410855507473282362
21029758 11 17905880736485002351
21041028 32 17831594432641258251
21061003 4 17836654389041133610
21501502 16 18410568483926475702
21524375 3 18269552728407161692
22802520 49 18202012009941164870
23402539 116 18268136742272806094
23419403 2 17626362864828376345
23557571 272 18198916979493505756
23559900 14 18272929381242508770
305870 269 18047467820931678872
31174 14 17185903596420293721
350125 39 18192994811791568499
353137 74 18336253609205859135
394222 165 17171766256324966411
430814 3 18194118516959319995
53812653 8 18336537248946261715
7364860 26 17473262076661178493
81228 2 18267036109415641354

>  <PUBCHEM_SHAPE_MULTIPOLES>  (1) 
307.57
4.8
3.71
1.04
6.91
0.01
0.1
2.19
-0.67
-3.21
0.24
-0.09
0.11
-0.19

>  <PUBCHEM_SHAPE_SELFOVERLAP>  (1) 
621.702

>  <PUBCHEM_SHAPE_VOLUME>  (1) 
180.3

>  <PUBCHEM_COORDINATE_TYPE>  (1) 
2
5
10

$$$$
