44949
     RDKit          3D

 18 18  0  0  0  0  0  0  0  0999 V2000
   -0.2613    0.7903    0.7129 O   0  0  0  0  0  0  0  0  0  0  0  0
   -0.5293    2.2185   -1.0892 O   0  0  0  0  0  0  0  0  0  0  0  0
   -0.4572   -1.8075   -0.1004 N   0  0  0  0  0  0  0  0  0  0  0  0
   -2.3431    1.7316    0.2828 N   0  0  0  0  0  0  0  0  0  0  0  0
    0.4669   -1.2872   -1.1086 C   0  0  0  0  0  0  0  0  0  0  0  0
    0.2771   -2.5120    0.9495 C   0  0  0  0  0  0  0  0  0  0  0  0
   -1.4416   -2.6937   -0.7196 C   0  0  0  0  0  0  0  0  0  0  0  0
    1.4555   -0.3286   -0.5311 C   0  0  0  0  0  0  0  0  0  0  0  0
    1.0825    0.6654    0.3456 C   0  0  0  0  0  0  0  0  0  0  0  0
   -0.6668   -3.0601    2.0064 C   0  0  0  0  0  0  0  0  0  0  0  0
   -2.2553   -1.9601   -1.7721 C   0  0  0  0  0  0  0  0  0  0  0  0
    2.7997   -0.4384   -0.8868 C   0  0  0  0  0  0  0  0  0  0  0  0
    1.9845    1.5558    0.8853 C   0  0  0  0  0  0  0  0  0  0  0  0
    3.7363    0.4490   -0.3565 C   0  0  0  0  0  0  0  0  0  0  0  0
    3.3287    1.4461    0.5295 C   0  0  0  0  0  0  0  0  0  0  0  0
   -1.0059    1.6331   -0.1175 C   0  0  0  0  0  0  0  0  0  0  0  0
   -3.2711    2.5676   -0.4654 C   0  0  0  0  0  0  0  0  0  0  0  0
   -2.8995    1.0302    1.4352 C   0  0  0  0  0  0  0  0  0  0  0  0
  1  9  1  0
  1 16  1  0
  2 16  2  0
  3  5  1  0
  3  6  1  0
  3  7  1  0
  4 16  1  0
  4 17  1  0
  4 18  1  0
  5  8  1  0
  6 10  1  0
  7 11  1  0
  8  9  2  0
  8 12  1  0
  9 13  1  0
 12 14  2  0
 13 15  2  0
 14 15  1  0
M  END
>  <PUBCHEM_COMPOUND_CID>  (1) 
44949

>  <PUBCHEM_CONFORMER_RMSD>  (1) 
0.8

>  <PUBCHEM_CONFORMER_DIVERSEORDER>  (1) 
1
61
24
12
43
59
52
11
35
36
38
30
54
3
37
13
49
23
26
2
55
44
15
20
5
40
21
53
56
60
45
57
9
34
27
33
28
29
25
14
16
22
58
7
6
41
31
10
51
4
32
18
8
47
17
48
50
19
46
42
39

>  <PUBCHEM_MMFF94_PARTIAL_CHARGES>  (1) 
20
1 -0.23
12 -0.15
13 -0.15
14 -0.15
15 -0.15
16 0.78
17 0.3
18 0.3
2 -0.57
3 -0.81
31 0.15
32 0.15
33 0.15
34 0.15
4 -0.66
5 0.41
6 0.27
7 0.27
8 -0.14
9 0.08

>  <PUBCHEM_EFFECTIVE_ROTOR_COUNT>  (1) 
7

>  <PUBCHEM_PHARMACOPHORE_FEATURES>  (1) 
3
1 2 acceptor
1 3 cation
6 8 9 12 13 14 15 rings

>  <PUBCHEM_HEAVY_ATOM_COUNT>  (1) 
18

>  <PUBCHEM_ATOM_DEF_STEREO_COUNT>  (1) 
0

>  <PUBCHEM_ATOM_UDEF_STEREO_COUNT>  (1) 
0

>  <PUBCHEM_BOND_DEF_STEREO_COUNT>  (1) 
0

>  <PUBCHEM_BOND_UDEF_STEREO_COUNT>  (1) 
0

>  <PUBCHEM_ISOTOPIC_ATOM_COUNT>  (1) 
0

>  <PUBCHEM_COMPONENT_COUNT>  (1) 
1

>  <PUBCHEM_CACTVS_TAUTO_COUNT>  (1) 
1

>  <PUBCHEM_CONFORMER_ID>  (1) 
0000AF9500000001

>  <PUBCHEM_MMFF94_ENERGY>  (1) 
46.3403

>  <PUBCHEM_FEATURE_SELFOVERLAP>  (1) 
15.223

>  <PUBCHEM_SHAPE_FINGERPRINT>  (1) 
104564 63 17910688879215693652
116883 192 18126562555406314084
12293681 4 17976251658380039835
12532896 13 18408602552482011088
12715332 25 18128543665338951734
12730499 353 18121503454064542129
13294875 104 18124577718265164984
14251745 187 18057594563288450467
14817 1 13442633787112137299
14955137 171 16176521745618315952
15490181 7 18265888073363444956
16945 1 17987803986418362460
17357779 13 17914042368084027734
18721546 61 18341612667513395482
20600515 1 17179077170835713488
20645476 183 17823726134079782238
20645477 70 17907578022072498821
20711985 344 18265325291156328442
21041028 32 17543645569704016963
21130352 189 17692521634580406278
21501502 16 18271524303596655628
21524375 3 18266463105049112564
23419403 2 17121200832722516126
23558518 356 18265887132992577352
238 59 17834092179330384733
25 1 18129389198223108708
2748010 2 18267888115026198165
3060560 45 18195525887495646068
495365 180 17837470978610285321
7364860 26 17761211012027229809
81228 2 18193548089515510648
8272917 22 17554053139289169645

>  <PUBCHEM_SHAPE_MULTIPOLES>  (1) 
348.73
4.89
3.71
1.53
2.19
1.17
-0.25
-2.81
0.35
-3.26
-0.52
-0.76
0.96
0.04

>  <PUBCHEM_SHAPE_SELFOVERLAP>  (1) 
703.094

>  <PUBCHEM_SHAPE_VOLUME>  (1) 
206.2

>  <PUBCHEM_COORDINATE_TYPE>  (1) 
2
5
10

$$$$
