44947
     RDKit          3D

 24 24  0  0  0  0  0  0  0  0999 V2000
   -0.0046   -0.7800    0.0114 O   0  0  0  0  0  0  0  0  0  0  0  0
   -2.4050    0.4869   -0.5428 O   0  0  0  0  0  0  0  0  0  0  0  0
    2.3844    0.5012   -0.5546 O   0  0  0  0  0  0  0  0  0  0  0  0
   -0.0095   -1.6622   -2.1277 O   0  0  0  0  0  0  0  0  0  0  0  0
   -2.3273    1.4562    1.5581 O   0  0  0  0  0  0  0  0  0  0  0  0
    2.3413    1.4534    1.5538 O   0  0  0  0  0  0  0  0  0  0  0  0
    0.0006   -3.1130   -0.3098 N   0  0  0  0  0  0  0  0  0  0  0  0
   -4.1183    0.0903    0.9779 N   0  0  0  0  0  0  0  0  0  0  0  0
    4.1377    0.0979    0.9665 N   0  0  0  0  0  0  0  0  0  0  0  0
   -0.0098    0.4682   -0.5371 C   0  0  0  0  0  0  0  0  0  0  0  0
   -1.1890    1.1199   -0.8209 C   0  0  0  0  0  0  0  0  0  0  0  0
    1.1955    1.1107   -0.8207 C   0  0  0  0  0  0  0  0  0  0  0  0
   -1.2262    2.3808   -1.3739 C   0  0  0  0  0  0  0  0  0  0  0  0
    1.1898    2.3881   -1.3809 C   0  0  0  0  0  0  0  0  0  0  0  0
   -0.0211    3.0231   -1.6575 C   0  0  0  0  0  0  0  0  0  0  0  0
   -0.0048   -1.8496   -0.9116 C   0  0  0  0  0  0  0  0  0  0  0  0
   -2.9023    0.7403    0.7389 C   0  0  0  0  0  0  0  0  0  0  0  0
    2.9171    0.7409    0.7324 C   0  0  0  0  0  0  0  0  0  0  0  0
    0.0098   -3.3245    1.1340 C   0  0  0  0  0  0  0  0  0  0  0  0
    0.0010   -4.3148   -1.1316 C   0  0  0  0  0  0  0  0  0  0  0  0
   -4.7939   -0.7539   -0.0020 C   0  0  0  0  0  0  0  0  0  0  0  0
   -4.7869    0.2384    2.2628 C   0  0  0  0  0  0  0  0  0  0  0  0
    4.8106    0.2500    2.2487 C   0  0  0  0  0  0  0  0  0  0  0  0
    4.8107   -0.7482   -0.0135 C   0  0  0  0  0  0  0  0  0  0  0  0
  1 10  1  0
  1 16  1  0
  2 11  1  0
  2 17  1  0
  3 12  1  0
  3 18  1  0
  4 16  2  0
  5 17  2  0
  6 18  2  0
  7 16  1  0
  7 19  1  0
  7 20  1  0
  8 17  1  0
  8 21  1  0
  8 22  1  0
  9 18  1  0
  9 23  1  0
  9 24  1  0
 10 11  2  0
 10 12  1  0
 11 13  1  0
 12 14  2  0
 13 15  2  0
 14 15  1  0
M  END
>  <PUBCHEM_COMPOUND_CID>  (1) 
44947

>  <PUBCHEM_CONFORMER_RMSD>  (1) 
1

>  <PUBCHEM_CONFORMER_DIVERSEORDER>  (1) 
1
23
16
11
21
28
30
27
17
29
18
15
19
33
25
22
34
4
32
10
13
2
7
14
20
6
26
8
5
36
35
24
31
9
12
3

>  <PUBCHEM_MMFF94_PARTIAL_CHARGES>  (1) 
27
1 -0.23
10 0.08
11 0.08
12 0.08
13 -0.15
14 -0.15
15 -0.15
16 0.78
17 0.78
18 0.78
19 0.3
2 -0.23
20 0.3
21 0.3
22 0.3
23 0.3
24 0.3
25 0.15
26 0.15
27 0.15
3 -0.23
4 -0.57
5 -0.57
6 -0.57
7 -0.66
8 -0.66
9 -0.66

>  <PUBCHEM_EFFECTIVE_ROTOR_COUNT>  (1) 
9

>  <PUBCHEM_PHARMACOPHORE_FEATURES>  (1) 
4
1 4 acceptor
1 5 acceptor
1 6 acceptor
6 10 11 12 13 14 15 rings

>  <PUBCHEM_HEAVY_ATOM_COUNT>  (1) 
24

>  <PUBCHEM_ATOM_DEF_STEREO_COUNT>  (1) 
0

>  <PUBCHEM_ATOM_UDEF_STEREO_COUNT>  (1) 
0

>  <PUBCHEM_BOND_DEF_STEREO_COUNT>  (1) 
0

>  <PUBCHEM_BOND_UDEF_STEREO_COUNT>  (1) 
0

>  <PUBCHEM_ISOTOPIC_ATOM_COUNT>  (1) 
0

>  <PUBCHEM_COMPONENT_COUNT>  (1) 
1

>  <PUBCHEM_CACTVS_TAUTO_COUNT>  (1) 
1

>  <PUBCHEM_CONFORMER_ID>  (1) 
0000AF9300000001

>  <PUBCHEM_MMFF94_ENERGY>  (1) 
74.6414

>  <PUBCHEM_FEATURE_SELFOVERLAP>  (1) 
20.298

>  <PUBCHEM_SHAPE_FINGERPRINT>  (1) 
10906281 52 17897439493850889445
11578080 2 17834130644778081033
12293681 25 17825104818972117285
12633257 1 17968674799367022785
12788726 201 17548707729860231583
12839892 36 18411421739225063435
12930653 34 18057889048011822993
13134695 92 17676773196845835853
13965767 371 16981851942339584721
14178342 30 18339095791477815441
14787075 74 17560231569823786425
14943834 7 17686907528045354445
15420108 30 18271239414121321447
18222031 100 18260267473022717557
19784866 34 11312059837620621285
20028762 73 18269840964127503847
20197701 30 18201429290179550331
21033648 29 18198880605189460920
22182313 1 18119813512933731037
22620623 9 12613293331705506922
22956985 138 17972040236361062371
2748010 2 17974572394817715605
3250762 1 17615121092467508317
392239 28 17702949274552690379
46194498 28 7924468876440943833
465052 167 17822305612195821609
81228 2 18051105271790011270

>  <PUBCHEM_SHAPE_MULTIPOLES>  (1) 
443.75
7.85
3.92
2.03
0.17
3.79
-0.65
-0.3
-6.75
-0.01
2.33
-0.02
-0.18
0.02

>  <PUBCHEM_SHAPE_SELFOVERLAP>  (1) 
906.291

>  <PUBCHEM_SHAPE_VOLUME>  (1) 
255.9

>  <PUBCHEM_COORDINATE_TYPE>  (1) 
2
5
10

$$$$
