44944
     RDKit          3D

 19 19  0  0  0  0  0  0  0  0999 V2000
    0.2088   -1.1392   -0.6729 O   0  0  0  0  0  0  0  0  0  0  0  0
   -0.7785    1.0468    0.7310 O   0  0  0  0  0  0  0  0  0  0  0  0
    0.6252   -2.2081    1.3367 O   0  0  0  0  0  0  0  0  0  0  0  0
   -1.0742    2.1496   -1.2828 O   0  0  0  0  0  0  0  0  0  0  0  0
   -0.8146   -3.2064   -0.1931 N   0  0  0  0  0  0  0  0  0  0  0  0
   -2.8998    1.7640    0.1057 N   0  0  0  0  0  0  0  0  0  0  0  0
    4.6393    0.7277   -0.4877 N   0  0  0  0  0  0  0  0  0  0  0  0
    1.0423   -0.1369   -0.2773 C   0  0  0  0  0  0  0  0  0  0  0  0
    0.5824    0.9571    0.4207 C   0  0  0  0  0  0  0  0  0  0  0  0
    2.4012   -0.2139   -0.5819 C   0  0  0  0  0  0  0  0  0  0  0  0
    3.2648    0.8052   -0.1807 C   0  0  0  0  0  0  0  0  0  0  0  0
    1.4106    1.9788    0.8299 C   0  0  0  0  0  0  0  0  0  0  0  0
    2.7695    1.9016    0.5252 C   0  0  0  0  0  0  0  0  0  0  0  0
    0.0482   -2.1976    0.2498 C   0  0  0  0  0  0  0  0  0  0  0  0
   -1.5460    1.6946   -0.2415 C   0  0  0  0  0  0  0  0  0  0  0  0
   -1.0800   -4.3641    0.6488 C   0  0  0  0  0  0  0  0  0  0  0  0
   -1.4968   -3.1827   -1.4829 C   0  0  0  0  0  0  0  0  0  0  0  0
   -3.8525    2.4057   -0.7890 C   0  0  0  0  0  0  0  0  0  0  0  0
   -3.4500    1.2178    1.3421 C   0  0  0  0  0  0  0  0  0  0  0  0
  1  8  1  0
  1 14  1  0
  2  9  1  0
  2 15  1  0
  3 14  2  0
  4 15  2  0
  5 14  1  0
  5 16  1  0
  5 17  1  0
  6 15  1  0
  6 18  1  0
  6 19  1  0
  7 11  1  0
  8  9  2  0
  8 10  1  0
  9 12  1  0
 10 11  2  0
 11 13  1  0
 12 13  2  0
M  END
>  <PUBCHEM_COMPOUND_CID>  (1) 
44944

>  <PUBCHEM_CONFORMER_RMSD>  (1) 
0.8

>  <PUBCHEM_CONFORMER_DIVERSEORDER>  (1) 
1
34
7
64
53
62
59
60
35
25
54
51
57
21
48
9
5
56
44
31
52
2
49
47
40
24
12
19
36
45
16
30
8
14
33
38
3
13
26
15
17
22
23
63
43
11
32
39
28
66
27
10
46
55
37
41
50
29
42
4
18
65
6
58
20
61

>  <PUBCHEM_MMFF94_PARTIAL_CHARGES>  (1) 
24
1 -0.23
10 -0.15
11 0.1
12 -0.15
13 -0.15
14 0.78
15 0.78
16 0.3
17 0.3
18 0.3
19 0.3
2 -0.23
20 0.15
21 0.15
22 0.15
3 -0.57
35 0.4
36 0.4
4 -0.57
5 -0.66
6 -0.66
7 -0.9
8 0.08
9 0.08

>  <PUBCHEM_EFFECTIVE_ROTOR_COUNT>  (1) 
6

>  <PUBCHEM_PHARMACOPHORE_FEATURES>  (1) 
5
1 3 acceptor
1 4 acceptor
1 7 cation
1 7 donor
6 8 9 10 11 12 13 rings

>  <PUBCHEM_HEAVY_ATOM_COUNT>  (1) 
19

>  <PUBCHEM_ATOM_DEF_STEREO_COUNT>  (1) 
0

>  <PUBCHEM_ATOM_UDEF_STEREO_COUNT>  (1) 
0

>  <PUBCHEM_BOND_DEF_STEREO_COUNT>  (1) 
0

>  <PUBCHEM_BOND_UDEF_STEREO_COUNT>  (1) 
0

>  <PUBCHEM_ISOTOPIC_ATOM_COUNT>  (1) 
0

>  <PUBCHEM_COMPONENT_COUNT>  (1) 
1

>  <PUBCHEM_CACTVS_TAUTO_COUNT>  (1) 
1

>  <PUBCHEM_CONFORMER_ID>  (1) 
0000AF9000000001

>  <PUBCHEM_MMFF94_ENERGY>  (1) 
67.1989

>  <PUBCHEM_FEATURE_SELFOVERLAP>  (1) 
25.371

>  <PUBCHEM_SHAPE_FINGERPRINT>  (1) 
10064457 181 18270982209688250817
104564 63 17765165251104395084
1100329 8 18266452101776183546
116883 192 17980478185012773964
12715332 25 18340489972142363218
12730499 353 18265054627071867621
13052359 8 18410008862240146138
13681431 1 17400637130185964928
14866123 147 18409162212844691410
15309172 13 18411142402714941105
16945 1 18268987760077658568
17134984 74 18123718008401099581
17357779 13 17767112481875670238
19591789 44 18410577253664099275
20344682 1 18041008292987350229
20600515 1 17105341752155253276
20645477 70 18049155567376108317
20711985 344 18120365712552257546
21041028 32 17545610410121156835
21452121 199 17257359748738400131
21524375 3 18335987471699663760
22620623 9 18055938699257009780
23419403 2 16552617089068003293
23530152 11 18411135792675252799
23558518 356 18044935920826541776
238 59 18121479294672444949
2748010 2 18265639622274150787
3060560 45 18336824165525509740
3250762 1 17983571090074562224
495365 180 18123731077217064089
58779409 8 18409455799269642638
59682541 52 17544717203686285997
6025842 7 18122052106023998957
6438718 38 17916309509837866407
7364860 26 17905606605727839641
81228 2 17976248355217366768
81539 233 18189055283046152364
8272917 22 17982171111393717773
9925002 15 17827655942908662893

>  <PUBCHEM_SHAPE_MULTIPOLES>  (1) 
352.59
5.54
4.8
1.17
2.61
5.42
0.01
-4.28
0.47
-5.06
-0.03
-0.58
0.15
0.2

>  <PUBCHEM_SHAPE_SELFOVERLAP>  (1) 
722.421

>  <PUBCHEM_SHAPE_VOLUME>  (1) 
203.5

>  <PUBCHEM_COORDINATE_TYPE>  (1) 
2
5
10

$$$$
