44955
     RDKit          3D

 17 17  0  0  0  0  0  0  0  0999 V2000
    2.5911    0.7867    0.0341 O   0  0  0  0  0  0  0  0  0  0  0  0
    2.5947   -1.5261   -0.0646 O   0  0  0  0  0  0  0  0  0  0  0  0
   -5.0252   -0.9259   -0.0607 N   0  0  0  0  0  0  0  0  0  0  0  0
    4.6097   -0.3657   -0.0154 N   0  0  0  0  0  0  0  0  0  0  0  0
   -3.0463    0.5605    0.0280 C   0  0  0  0  0  0  0  0  0  0  0  0
   -3.5671   -0.8825   -0.0334 C   0  0  0  0  0  0  0  0  0  0  0  0
   -1.5563    0.6199    0.0296 C   0  0  0  0  0  0  0  0  0  0  0  0
   -0.8586    0.5970    1.2371 C   0  0  0  0  0  0  0  0  0  0  0  0
   -0.8604    0.6993   -1.1767 C   0  0  0  0  0  0  0  0  0  0  0  0
   -5.5408   -0.1755   -1.2068 C   0  0  0  0  0  0  0  0  0  0  0  0
   -5.5793   -0.3947    1.1855 C   0  0  0  0  0  0  0  0  0  0  0  0
    0.5353    0.6534    1.2383 C   0  0  0  0  0  0  0  0  0  0  0  0
    0.5334    0.7556   -1.1755 C   0  0  0  0  0  0  0  0  0  0  0  0
    1.1935    0.7312    0.0320 C   0  0  0  0  0  0  0  0  0  0  0  0
    3.2139   -0.4638   -0.0194 C   0  0  0  0  0  0  0  0  0  0  0  0
    5.4279   -1.5690   -0.0668 C   0  0  0  0  0  0  0  0  0  0  0  0
    5.3346    0.8998    0.0349 C   0  0  0  0  0  0  0  0  0  0  0  0
  1 14  1  0
  1 15  1  0
  2 15  2  0
  3  6  1  0
  3 10  1  0
  3 11  1  0
  4 15  1  0
  4 16  1  0
  4 17  1  0
  5  6  1  0
  5  7  1  0
  7  8  2  0
  7  9  1  0
  8 12  1  0
  9 13  2  0
 12 14  2  0
 13 14  1  0
M  END
>  <PUBCHEM_COMPOUND_CID>  (1) 
44955

>  <PUBCHEM_CONFORMER_RMSD>  (1) 
0.8

>  <PUBCHEM_CONFORMER_DIVERSEORDER>  (1) 
1
19
11
10
30
27
12
13
29
24
32
25
15
20
3
21
16
14
18
31
22
4
5
23
28
2
17
26
8
7
6
9

>  <PUBCHEM_MMFF94_PARTIAL_CHARGES>  (1) 
21
1 -0.23
10 0.27
11 0.27
12 -0.15
13 -0.15
14 0.08
15 0.78
16 0.3
17 0.3
2 -0.57
22 0.15
23 0.15
3 -0.81
30 0.15
31 0.15
4 -0.66
5 0.14
6 0.27
7 -0.14
8 -0.15
9 -0.15

>  <PUBCHEM_EFFECTIVE_ROTOR_COUNT>  (1) 
6

>  <PUBCHEM_PHARMACOPHORE_FEATURES>  (1) 
3
1 2 acceptor
1 3 cation
6 7 8 9 12 13 14 rings

>  <PUBCHEM_HEAVY_ATOM_COUNT>  (1) 
17

>  <PUBCHEM_ATOM_DEF_STEREO_COUNT>  (1) 
0

>  <PUBCHEM_ATOM_UDEF_STEREO_COUNT>  (1) 
0

>  <PUBCHEM_BOND_DEF_STEREO_COUNT>  (1) 
0

>  <PUBCHEM_BOND_UDEF_STEREO_COUNT>  (1) 
0

>  <PUBCHEM_ISOTOPIC_ATOM_COUNT>  (1) 
0

>  <PUBCHEM_COMPONENT_COUNT>  (1) 
1

>  <PUBCHEM_CACTVS_TAUTO_COUNT>  (1) 
1

>  <PUBCHEM_CONFORMER_ID>  (1) 
0000AF9B00000001

>  <PUBCHEM_MMFF94_ENERGY>  (1) 
49.3044

>  <PUBCHEM_FEATURE_SELFOVERLAP>  (1) 
15.223

>  <PUBCHEM_SHAPE_FINGERPRINT>  (1) 
100836 57 9655570833792473802
10354089 29 10807933777833806790
106641 1 15482377750831723303
11045977 3 12751231528160471695
11287383 113 17894914065617017740
11401426 45 16298383573813491997
11796584 16 18342175566454827375
12119455 92 8574713494270329800
12236239 1 17632861932036436664
12251169 10 15697997452948062901
12507557 5 13542465380492294859
12596602 18 15841546388098787347
12670543 26 16081363016710805699
12815109 37 18186237342123385727
13288520 33 18408887321830493581
13533116 47 18131352986626163594
13675066 3 13542470877802429049
13685833 64 18334018315563461235
1420 363 18186525405606334754
14251752 14 15864618484529852871
14251764 18 17775009003463235315
14252887 29 16773805774882504030
14350574 20 16660371411124254153
14911166 2 15864072082916741201
15209294 21 12895360979811979451
15375462 189 17703498927086649214
17834072 33 18413108381202890828
17834072 8 17530956991577953039
18186145 218 16081363107617262701
187816 3 15936411134656571561
19489759 90 15267345120175407955
19784866 240 18410582751485781006
200 152 18411419505324779880
20871999 31 16878220874997120669
212847 35 11169914992067855510
21637258 2 18341883078612043010
22079108 93 18059847411844315344
22224240 67 14476956792385448431
22713019 99 17530686510810191202
23035841 295 17704076192271550366
23379529 103 17026865149485311683
23402539 116 16515399668460644437
23402655 69 15285904859150890205
23536379 177 18408041797320415401
23557571 272 17822008662314930004
23559900 14 18336822112747406977
26918003 58 18131633391802329803
2838139 119 8142084243100345787
2871803 45 18040150687097609050
33382 64 18409733936835653466
347723 3 14996278115383808997
351380 180 9511460017719155051
3759504 43 12612761228450033065
42 15 18130791161568759601
4325135 7 18408324410953764884
465052 167 17704072931853289631
4990 188 16950282914489593387
5104073 3 17845368856847652658
59682541 35 17703214231222239802
69474 34 14620788301844838699

>  <PUBCHEM_SHAPE_MULTIPOLES>  (1) 
328.15
13.31
1.25
1.14
1.33
0.32
0.04
4.94
-0.36
-1.02
-0.05
1.03
-0.18
0.2

>  <PUBCHEM_SHAPE_SELFOVERLAP>  (1) 
661.063

>  <PUBCHEM_SHAPE_VOLUME>  (1) 
194.6

>  <PUBCHEM_COORDINATE_TYPE>  (1) 
2
5
10

$$$$
