44972
     RDKit          3D

 16 16  0  0  0  0  0  0  0  0999 V2000
   -2.3980    0.4414   -0.8294 O   0  0  0  0  0  0  0  0  0  0  0  0
   -3.2095    0.2298    1.3147 O   0  0  0  0  0  0  0  0  0  0  0  0
   -4.5175    1.0527   -0.3879 N   0  0  0  0  0  0  0  0  0  0  0  0
    1.7839    0.5429   -0.2293 C   0  0  0  0  0  0  0  0  0  0  0  0
    3.2232    0.1852    0.1370 C   0  0  0  0  0  0  0  0  0  0  0  0
    1.2380   -0.4249   -1.2869 C   0  0  0  0  0  0  0  0  0  0  0  0
    0.8934    0.5512    1.0197 C   0  0  0  0  0  0  0  0  0  0  0  0
   -1.1360   -0.0781   -0.4030 C   0  0  0  0  0  0  0  0  0  0  0  0
   -0.2193   -0.1179   -1.6337 C   0  0  0  0  0  0  0  0  0  0  0  0
   -0.5637    0.8577    0.6719 C   0  0  0  0  0  0  0  0  0  0  0  0
    3.7635    1.1933    1.1652 C   0  0  0  0  0  0  0  0  0  0  0  0
    3.2694   -1.2282    0.7420 C   0  0  0  0  0  0  0  0  0  0  0  0
    4.1052    0.2254   -1.1221 C   0  0  0  0  0  0  0  0  0  0  0  0
   -1.3508   -1.4351    0.1335 C   0  0  0  0  0  0  0  0  0  0  0  0
   -3.3557    0.5443    0.1383 C   0  0  0  0  0  0  0  0  0  0  0  0
   -1.5260   -2.5396    0.5700 C   0  0  0  0  0  0  0  0  0  0  0  0
  1  8  1  0
  1 15  1  0
  2 15  2  0
  3 15  1  0
  4  5  1  0
  4  6  1  0
  4  7  1  0
  5 11  1  0
  5 12  1  0
  5 13  1  0
  6  9  1  0
  7 10  1  0
  8  9  1  0
  8 10  1  0
  8 14  1  0
 14 16  3  0
M  END
>  <PUBCHEM_COMPOUND_CID>  (1) 
44972

>  <PUBCHEM_CONFORMER_RMSD>  (1) 
0.6

>  <PUBCHEM_CONFORMER_DIVERSEORDER>  (1) 
1
9
5
10
3
4
12
8
11
2
7
6

>  <PUBCHEM_MMFF94_PARTIAL_CHARGES>  (1) 
10
1 -0.43
14 -0.2
15 0.78
16 -0.18
2 -0.57
3 -0.8
35 0.18
36 0.37
37 0.37
8 0.48

>  <PUBCHEM_EFFECTIVE_ROTOR_COUNT>  (1) 
4.2

>  <PUBCHEM_PHARMACOPHORE_FEATURES>  (1) 
5
1 16 hydrophobe
1 2 acceptor
1 3 donor
4 5 11 12 13 hydrophobe
6 4 6 7 8 9 10 rings

>  <PUBCHEM_HEAVY_ATOM_COUNT>  (1) 
16

>  <PUBCHEM_ATOM_DEF_STEREO_COUNT>  (1) 
0

>  <PUBCHEM_ATOM_UDEF_STEREO_COUNT>  (1) 
0

>  <PUBCHEM_BOND_DEF_STEREO_COUNT>  (1) 
0

>  <PUBCHEM_BOND_UDEF_STEREO_COUNT>  (1) 
0

>  <PUBCHEM_ISOTOPIC_ATOM_COUNT>  (1) 
0

>  <PUBCHEM_COMPONENT_COUNT>  (1) 
1

>  <PUBCHEM_CACTVS_TAUTO_COUNT>  (1) 
2

>  <PUBCHEM_CONFORMER_ID>  (1) 
0000AFAC00000001

>  <PUBCHEM_MMFF94_ENERGY>  (1) 
45.4645

>  <PUBCHEM_FEATURE_SELFOVERLAP>  (1) 
25.371

>  <PUBCHEM_SHAPE_FINGERPRINT>  (1) 
10618630 7 14851602172346375852
12119455 92 17894621522989386671
12251169 10 18187364354627192236
124424 183 18131915957415799570
12500047 106 18335700567815816590
12932764 1 17603576469942762820
13214271 11 18128527357437780064
13296908 3 17988365983094629346
13581323 91 17968098646188403823
13675066 3 17530684303329070905
13760787 19 18333735745137883966
14115302 16 18335708238838183070
14178342 30 18189038962645071130
14289901 80 18114464543325225808
14943859 89 18272083898969479257
15207287 21 17989203716049125855
15375358 24 17988639718381965208
15375462 478 16298389050223654085
15775835 57 18040437698234280234
15852999 172 18343029869377126215
16945 1 18260259772235792876
18175812 5 18059580225870448460
18186145 218 18272650134293540948
19422 9 16588033428245737331
200 152 12035722120007963496
20279233 1 17561366210088978166
20645477 56 18260822722120941156
21501502 16 18045505471569528165
23402539 116 18340758282923252485
23402655 69 16486691356221445705
23419403 2 13899626468103232719
23493267 7 18200047221475147302
23559900 14 18341338833984825718
23598291 2 17459765897763633006
296302 2 17988921206212039672
528886 8 16702293534290637797
57426455 114 18341606023214565939
57812782 119 9439407925860997600
633830 44 18059576841309806933
69090 78 18187359930853211527
74978 22 18337953497073960536
81228 2 17702681946860746688

>  <PUBCHEM_SHAPE_MULTIPOLES>  (1) 
312.55
7.26
1.54
1.35
0.07
1.01
0.22
-2.02
-0.48
-0.61
-0.48
0.42
-0.02
0.39

>  <PUBCHEM_SHAPE_SELFOVERLAP>  (1) 
632.755

>  <PUBCHEM_SHAPE_VOLUME>  (1) 
180.7

>  <PUBCHEM_COORDINATE_TYPE>  (1) 
2
5
10

$$$$
