44974
     RDKit          3D

 16 15  0  0  0  0  0  0  0  0999 V2000
   -2.4217   -1.3621   -0.0691 S   0  0  0  0  0  0  0  0  0  0  0  0
    1.4715   -0.6710   -0.2634 O   0  0  0  0  0  0  0  0  0  0  0  0
   -2.6481   -1.6725    1.3285 O   0  0  0  0  0  0  0  0  0  0  0  0
   -3.0926   -2.1071   -1.1167 O   0  0  0  0  0  0  0  0  0  0  0  0
   -0.0230    0.0929    1.3043 O   0  0  0  0  0  0  0  0  0  0  0  0
   -0.7482   -1.3361   -0.4015 N   0  0  0  0  0  0  0  0  0  0  0  0
   -2.7972    0.3567   -0.3139 C   0  0  0  0  0  0  0  0  0  0  0  0
   -4.2725    0.6405   -0.0777 C   0  0  0  0  0  0  0  0  0  0  0  0
    4.9714    0.6053    0.2245 C   0  0  0  0  0  0  0  0  0  0  0  0
   -4.5974    2.1151   -0.3082 C   0  0  0  0  0  0  0  0  0  0  0  0
    3.8086   -0.1669   -0.3949 C   0  0  0  0  0  0  0  0  0  0  0  0
    6.2595    0.4057   -0.5737 C   0  0  0  0  0  0  0  0  0  0  0  0
    2.5122    0.0601    0.3699 C   0  0  0  0  0  0  0  0  0  0  0  0
   -6.0635    2.4117   -0.0357 C   0  0  0  0  0  0  0  0  0  0  0  0
    7.4117    1.2001    0.0204 C   0  0  0  0  0  0  0  0  0  0  0  0
    0.2290   -0.5725    0.3071 C   0  0  0  0  0  0  0  0  0  0  0  0
  1  3  2  0
  1  4  2  0
  1  6  1  0
  1  7  1  0
  2 13  1  0
  2 16  1  0
  5 16  2  0
  6 16  1  0
  7  8  1  0
  8 10  1  0
  9 11  1  0
  9 12  1  0
 10 14  1  0
 11 13  1  0
 12 15  1  0
M  END
>  <PUBCHEM_COMPOUND_CID>  (1) 
44974

>  <PUBCHEM_CONFORMER_RMSD>  (1) 
1

>  <PUBCHEM_CONFORMER_DIVERSEORDER>  (1) 
1
85
93
83
111
188
7
34
89
59
65
159
115
31
104
98
183
125
32
80
146
196
30
88
42
112
4
148
92
86
169
38
70
78
41
57
48
79
97
10
44
136
164
142
58
177
45
147
154
40
63
54
192
163
56
114
9
123
76
55
202
197
174
47
25
180
176
20
175
94
50
108
170
151
33
134
179
113
72
135
71
140
91
161
132
16
102
189
117
24
137
64
77
156
39
152
153
66
74
166
144
139
21
194
109
27
15
107
126
185
100
200
3
67
60
193
133
191
11
172
35
69
106
167
143
122
141
82
99
43
165
96
26
81
118
51
160
128
61
84
145
6
14
190
73
36
158
155
105
49
22
120
116
198
23
168
199
182
130
103
8
62
127
178
195
95
157
149
173
129
46
110
181
29
201
90
19
124
119
52
171
101
75
186
5
150
2
12
17
87
68
13
184
187
138
37
121
162
53
131
18
28

>  <PUBCHEM_MMFF94_PARTIAL_CHARGES>  (1) 
10
1 1.33
13 0.28
16 0.96
2 -0.43
3 -0.65
31 0.42
4 -0.65
5 -0.57
6 -0.79
7 0.11

>  <PUBCHEM_EFFECTIVE_ROTOR_COUNT>  (1) 
10

>  <PUBCHEM_PHARMACOPHORE_FEATURES>  (1) 
6
1 14 hydrophobe
1 15 hydrophobe
1 3 acceptor
1 4 acceptor
1 5 acceptor
1 6 donor

>  <PUBCHEM_HEAVY_ATOM_COUNT>  (1) 
16

>  <PUBCHEM_ATOM_DEF_STEREO_COUNT>  (1) 
0

>  <PUBCHEM_ATOM_UDEF_STEREO_COUNT>  (1) 
0

>  <PUBCHEM_BOND_DEF_STEREO_COUNT>  (1) 
0

>  <PUBCHEM_BOND_UDEF_STEREO_COUNT>  (1) 
0

>  <PUBCHEM_ISOTOPIC_ATOM_COUNT>  (1) 
0

>  <PUBCHEM_COMPONENT_COUNT>  (1) 
1

>  <PUBCHEM_CACTVS_TAUTO_COUNT>  (1) 
2

>  <PUBCHEM_CONFORMER_ID>  (1) 
0000AFAE00000001

>  <PUBCHEM_MMFF94_ENERGY>  (1) 
-2.3394

>  <PUBCHEM_FEATURE_SELFOVERLAP>  (1) 
30.464

>  <PUBCHEM_SHAPE_FINGERPRINT>  (1) 
10014705 185 18413389838925619395
10680689 15 18341615979059859074
10912923 1 17458899440289335290
11315181 36 17531527706268047974
117890 112 18408322181749829828
12091667 2 18338237171775598570
12616971 3 15140685804155624678
12760667 363 9007048068373100877
14251752 14 18412825764323762776
14251764 75 17552650145220096257
14729087 3 18412822491458950176
15048467 5 18409166593341561188
15501527 16 18410014325217007041
155225 5 18267867168598653848
15716309 27 11241972581494356808
15778101 99 18408887334361948052
16079462 125 17917702531483788656
167882 2 17986674762239112015
17093844 174 18272366508044455114
17834072 8 17704352169347399464
18222031 100 13902183769103712250
20281389 69 18260265231313617572
20526848 3 18335706005054983620
20621476 66 18408608045608467860
20645477 56 18412544301873218823
20871999 31 18271516581071514151
21150785 3 12679175034256553416
21426921 1 18339922731517184983
22224240 67 15357702981018750993
23081809 10 18114459055053223750
23402539 116 18410571821178978710
23402655 69 18411979152886083486
23557571 272 18272374212746389607
23559900 14 17489582398825684848
270888 7 18264205804016122949
293599 30 18411699846794199085
300161 21 18411980256919596842
49783359 22 10159704594782385852
5283384 27 17750225921279832037
59682541 35 18260842488657670921
59755656 520 16950284005400783266
6327066 14 18337384929984233741
7062679 6 18260833683083267612
90127 26 18339642368941765872

>  <PUBCHEM_SHAPE_MULTIPOLES>  (1) 
304.66
17.1
2.08
0.9
21.89
0.26
0.12
13.06
-1.79
-4.17
-0.18
-0.24
-0.26
0.08

>  <PUBCHEM_SHAPE_SELFOVERLAP>  (1) 
553.07

>  <PUBCHEM_SHAPE_VOLUME>  (1) 
194

>  <PUBCHEM_COORDINATE_TYPE>  (1) 
2
5
10

$$$$
