44986
     RDKit          3D

 16 17  0  0  0  0  0  0  0  0999 V2000
   -0.0028   -0.7071    0.0260 N   0  0  0  0  0  0  0  0  0  0  0  0
   -1.2739    0.0210    0.0224 N   0  0  0  0  0  0  0  0  0  0  0  0
    1.2772    0.0321    0.0181 N   0  0  0  0  0  0  0  0  0  0  0  0
    1.1995   -2.7370   -0.0288 N   0  0  0  0  0  0  0  0  0  0  0  0
   -1.1268   -2.7907   -0.1255 N   0  0  0  0  0  0  0  0  0  0  0  0
   -1.8743    0.2784    1.1924 C   0  0  0  0  0  0  0  0  0  0  0  0
    1.7805    0.4132   -1.1567 C   0  0  0  0  0  0  0  0  0  0  0  0
   -1.7953    0.4045   -1.1510 C   0  0  0  0  0  0  0  0  0  0  0  0
    1.8704    0.2826    1.1860 C   0  0  0  0  0  0  0  0  0  0  0  0
   -0.0181   -2.0995   -0.0502 C   0  0  0  0  0  0  0  0  0  0  0  0
   -3.0797    0.9651    1.2193 C   0  0  0  0  0  0  0  0  0  0  0  0
    2.9813    1.1075   -1.1947 C   0  0  0  0  0  0  0  0  0  0  0  0
   -2.9990    1.0938   -1.1849 C   0  0  0  0  0  0  0  0  0  0  0  0
    3.0739    0.9728    1.2087 C   0  0  0  0  0  0  0  0  0  0  0  0
   -3.6445    1.3752    0.0155 C   0  0  0  0  0  0  0  0  0  0  0  0
    3.6315    1.3880    0.0032 C   0  0  0  0  0  0  0  0  0  0  0  0
  1  2  1  0
  1  3  1  0
  1 10  1  0
  2  6  2  0
  2  8  1  0
  3  7  2  0
  3  9  1  0
  4 10  1  0
  5 10  2  0
  6 11  1  0
  7 12  1  0
  8 13  2  0
  9 14  2  0
 11 15  2  0
 12 16  2  0
 13 15  1  0
 14 16  1  0
M  CHG  2   2   1   3   1
M  END
>  <PUBCHEM_COMPOUND_CID>  (1) 
44986

>  <PUBCHEM_CONFORMER_RMSD>  (1) 
0.6

>  <PUBCHEM_CONFORMER_DIVERSEORDER>  (1) 
1
5
2
4
3

>  <PUBCHEM_MMFF94_PARTIAL_CHARGES>  (1) 
29
1 0.4
10 0.55
11 -0.15
12 -0.15
13 -0.15
14 -0.15
15 -0.15
16 -0.15
17 0.15
18 0.15
19 0.15
2 0.05
20 0.15
21 0.15
22 0.15
23 0.15
24 0.15
25 0.15
26 0.15
27 0.4
28 0.4
29 0.4
3 0.05
4 -0.85
5 -0.85
6 0.21
7 0.21
8 0.21
9 0.21

>  <PUBCHEM_EFFECTIVE_ROTOR_COUNT>  (1) 
3

>  <PUBCHEM_PHARMACOPHORE_FEATURES>  (1) 
5
1 4 donor
1 5 donor
4 1 4 5 10 cation
6 2 6 8 11 13 15 rings
6 3 7 9 12 14 16 rings

>  <PUBCHEM_HEAVY_ATOM_COUNT>  (1) 
16

>  <PUBCHEM_ATOM_DEF_STEREO_COUNT>  (1) 
0

>  <PUBCHEM_ATOM_UDEF_STEREO_COUNT>  (1) 
0

>  <PUBCHEM_BOND_DEF_STEREO_COUNT>  (1) 
0

>  <PUBCHEM_BOND_UDEF_STEREO_COUNT>  (1) 
0

>  <PUBCHEM_ISOTOPIC_ATOM_COUNT>  (1) 
0

>  <PUBCHEM_COMPONENT_COUNT>  (1) 
1

>  <PUBCHEM_CACTVS_TAUTO_COUNT>  (1) 
1

>  <PUBCHEM_CONFORMER_ID>  (1) 
0000AFBA00000001

>  <PUBCHEM_MMFF94_ENERGY>  (1) 
59.0643

>  <PUBCHEM_FEATURE_SELFOVERLAP>  (1) 
25.416

>  <PUBCHEM_SHAPE_FINGERPRINT>  (1) 
12138202 97 18059293291926949166
12251169 10 16081089285534048245
12500047 106 18341048635908359596
12553582 1 9223231879198081125
13296908 3 9223229615781587921
13764800 53 18269847552194924273
15309172 13 18334861618932102765
15775835 57 18260544558558675968
1741750 31 18339921631836394832
1813 80 17266951935276643766
18186145 218 18201446856558770284
19765921 60 18060131020939743705
20510252 161 18053381294971306690
20671657 1 18340769221835832822
20871998 22 8430313537019895598
21061003 4 17615974309528290091
21524375 3 18335416885041273619
22079108 93 18059306443433307953
23402539 116 18060697286851056128
23419403 2 17107973695314249858
25 1 17988657267454955672
2748010 2 18336845112197076047
276578 36 18412269406459384154
305870 269 18340202986147702808
3082319 5 15554449591207743217
350125 39 18410583885088738827
458136 41 18267322974903511907
495365 180 18120363268884885533
633830 44 17988936543324339641
7364860 26 18126845988856670758
81228 2 17906455776544450122

>  <PUBCHEM_SHAPE_MULTIPOLES>  (1) 
304.37
6.08
2.27
1.35
0.05
2.54
0.04
-4.45
0.22
-0.02
-0.15
0.01
-0.48
-0.02

>  <PUBCHEM_SHAPE_SELFOVERLAP>  (1) 
642.221

>  <PUBCHEM_SHAPE_VOLUME>  (1) 
166.2

>  <PUBCHEM_COORDINATE_TYPE>  (1) 
2
5
10

$$$$
