44980
     RDKit          3D

 17 17  0  0  0  0  0  0  0  0999 V2000
   -1.9303    1.4725    0.8763 S   0  0  0  0  0  0  0  0  0  0  0  0
    4.6510   -0.5786    1.2265 O   0  0  0  0  0  0  0  0  0  0  0  0
    6.6069    0.5864   -0.2303 O   0  0  0  0  0  0  0  0  0  0  0  0
    5.4626    0.0559   -0.8405 N   0  0  0  0  0  0  0  0  0  0  0  0
   -5.4539   -0.5034   -0.0395 C   0  0  0  0  0  0  0  0  0  0  0  0
   -4.4690    0.6433    0.2037 C   0  0  0  0  0  0  0  0  0  0  0  0
   -6.8283    0.0218   -0.4539 C   0  0  0  0  0  0  0  0  0  0  0  0
   -3.0910    0.1074    0.5818 C   0  0  0  0  0  0  0  0  0  0  0  0
   -7.7993   -1.1153   -0.7291 C   0  0  0  0  0  0  0  0  0  0  0  0
   -0.3764    0.7264    0.3962 C   0  0  0  0  0  0  0  0  0  0  0  0
    2.0399   -0.4356   -0.3485 C   0  0  0  0  0  0  0  0  0  0  0  0
    0.0772   -0.4088    1.0602 C   0  0  0  0  0  0  0  0  0  0  0  0
    0.3687    1.2854   -0.6370 C   0  0  0  0  0  0  0  0  0  0  0  0
    3.3348   -1.0582   -0.7475 C   0  0  0  0  0  0  0  0  0  0  0  0
    1.2889   -0.9910    0.6874 C   0  0  0  0  0  0  0  0  0  0  0  0
    1.5796    0.7025   -1.0108 C   0  0  0  0  0  0  0  0  0  0  0  0
    4.5386   -0.5107    0.0051 C   0  0  0  0  0  0  0  0  0  0  0  0
  1  8  1  0
  1 10  1  0
  2 17  2  0
  3  4  1  0
  4 17  1  0
  5  6  1  0
  5  7  1  0
  6  8  1  0
  7  9  1  0
 10 12  2  0
 10 13  1  0
 11 14  1  0
 11 15  2  0
 11 16  1  0
 12 15  1  0
 13 16  2  0
 14 17  1  0
M  END
>  <PUBCHEM_COMPOUND_CID>  (1) 
44980

>  <PUBCHEM_CONFORMER_RMSD>  (1) 
0.8

>  <PUBCHEM_CONFORMER_DIVERSEORDER>  (1) 
1
218
188
172
232
70
81
2
30
211
66
24
51
231
60
158
94
150
76
173
27
167
37
69
50
228
152
96
197
86
26
28
155
140
169
180
149
5
182
134
186
34
178
114
54
189
233
209
133
219
160
131
33
25
191
19
136
203
7
193
9
214
57
67
32
165
71
132
198
75
137
105
113
15
88
39
166
72
18
187
229
104
162
225
58
204
159
92
3
85
52
185
61
223
23
36
216
43
49
222
84
128
35
183
215
90
212
161
73
176
120
181
101
40
192
179
151
48
31
87
112
53
127
174
121
230
95
20
16
201
227
107
144
141
55
147
116
207
13
77
79
145
138
6
82
102
157
199
91
59
98
65
200
148
4
93
117
196
124
63
206
97
213
12
10
106
14
221
47
170
153
21
89
111
164
41
62
42
146
194
226
175
17
119
29
115
126
22
217
208
195
171
143
205
11
139
156
8
184
103
125
163
46
80
168
44
64
110
109
78
210
224
202
68
129
100
83
38
56
154
177
130
220
99
108
118
122
45
123
142
74
190
135

>  <PUBCHEM_MMFF94_PARTIAL_CHARGES>  (1) 
19
1 -0.33
10 0.1
11 -0.14
12 -0.15
13 -0.15
14 0.2
15 -0.15
16 -0.15
17 0.57
2 -0.57
29 0.15
3 -0.44
30 0.15
33 0.15
34 0.15
35 0.37
36 0.4
4 -0.39
8 0.23

>  <PUBCHEM_EFFECTIVE_ROTOR_COUNT>  (1) 
8

>  <PUBCHEM_PHARMACOPHORE_FEATURES>  (1) 
5
1 2 acceptor
1 4 donor
1 9 hydrophobe
5 1 5 6 7 8 hydrophobe
6 10 11 12 13 15 16 rings

>  <PUBCHEM_HEAVY_ATOM_COUNT>  (1) 
17

>  <PUBCHEM_ATOM_DEF_STEREO_COUNT>  (1) 
0

>  <PUBCHEM_ATOM_UDEF_STEREO_COUNT>  (1) 
0

>  <PUBCHEM_BOND_DEF_STEREO_COUNT>  (1) 
0

>  <PUBCHEM_BOND_UDEF_STEREO_COUNT>  (1) 
0

>  <PUBCHEM_ISOTOPIC_ATOM_COUNT>  (1) 
0

>  <PUBCHEM_COMPONENT_COUNT>  (1) 
1

>  <PUBCHEM_CACTVS_TAUTO_COUNT>  (1) 
3

>  <PUBCHEM_CONFORMER_ID>  (1) 
0000AFB400000001

>  <PUBCHEM_MMFF94_ENERGY>  (1) 
29.2695

>  <PUBCHEM_FEATURE_SELFOVERLAP>  (1) 
25.372

>  <PUBCHEM_SHAPE_FINGERPRINT>  (1) 
10354089 29 10952048953304251151
106641 1 16056873663372121435
10968037 39 18343022194765933317
11089746 13 11746943117940450963
11401426 45 17530973474971455256
11796584 16 14129068019075547464
12236239 1 18410013195993873713
12516196 113 17703788124583291969
12714333 28 16443066097536926995
13533116 47 17386000621198583418
13968360 50 17023179405745723099
14123256 10 18202565081553954320
1420 363 16558751208894641471
14251718 22 18272370854324505033
14251764 46 18342458140932284894
14341114 176 14979953675136723499
14576447 43 18335701616146429171
15183329 4 15285355085729884289
17834072 8 17603305964370385905
18335252 98 16917072153293925726
200 152 18333734594039234273
20281389 69 9079115549077591111
21095086 128 17203334395036644270
21150785 3 18408041831627146445
21267235 1 13542473046950629212
22079108 93 17346589773419732842
22224240 67 18273210907183911386
22896161 15 18060420226604463697
23035841 295 13614239274100855357
23402539 116 18410576145773533469
23402655 69 17095240298850666241
23536379 177 13190344573371606024
23557571 272 17418103065788463504
23559900 14 18114744944950652169
23622692 88 12679456483242044001
246663 6 14692577615298705388
2838139 119 13767926845369604983
28498 318 12901538032253386232
3004659 81 18408599284681720841
3009799 131 17312822684208361093
347723 3 10665228163844127436
34797466 226 17346604097078006356
3545911 37 9439403528083667757
4072396 5 16660358182524755976
4325135 7 18202002135806024612
465052 167 15698001812429415974
5385378 56 7997704111972896601
59682541 35 17632285809502773538
59755656 215 11458416908346117817
59755656 520 8430311317223911177

>  <PUBCHEM_SHAPE_MULTIPOLES>  (1) 
336.98
17.66
1.24
1.06
17.62
0.17
-0.07
-5.58
3.61
0.64
0.02
-0.52
0.01
-0.64

>  <PUBCHEM_SHAPE_SELFOVERLAP>  (1) 
655.722

>  <PUBCHEM_SHAPE_VOLUME>  (1) 
203.9

>  <PUBCHEM_COORDINATE_TYPE>  (1) 
2
5
10

$$$$
