44994
     RDKit          3D

 18 19  0  0  0  0  0  0  0  0999 V2000
   -3.0752    0.0686   -0.5278 N   0  0  0  0  0  0  0  0  0  0  0  0
    3.0754   -0.0688   -0.5279 N   0  0  0  0  0  0  0  0  0  0  0  0
   -4.9454   -0.6507    0.6641 N   0  0  0  0  0  0  0  0  0  0  0  0
   -3.1441    0.0431    1.8815 N   0  0  0  0  0  0  0  0  0  0  0  0
    4.9452    0.6506    0.6649 N   0  0  0  0  0  0  0  0  0  0  0  0
    3.1432   -0.0426    1.8816 N   0  0  0  0  0  0  0  0  0  0  0  0
   -0.6496   -0.2803   -0.5276 C   0  0  0  0  0  0  0  0  0  0  0  0
    0.6499    0.2803   -0.5279 C   0  0  0  0  0  0  0  0  0  0  0  0
   -1.7654    0.5725   -0.5275 C   0  0  0  0  0  0  0  0  0  0  0  0
    1.7657   -0.5725   -0.5280 C   0  0  0  0  0  0  0  0  0  0  0  0
   -0.7950   -1.6772   -0.5274 C   0  0  0  0  0  0  0  0  0  0  0  0
    0.7952    1.6771   -0.5281 C   0  0  0  0  0  0  0  0  0  0  0  0
   -1.6025    1.9581   -0.5277 C   0  0  0  0  0  0  0  0  0  0  0  0
    1.6026   -1.9581   -0.5278 C   0  0  0  0  0  0  0  0  0  0  0  0
    0.3247   -2.5094   -0.5275 C   0  0  0  0  0  0  0  0  0  0  0  0
   -0.3245    2.5093   -0.5279 C   0  0  0  0  0  0  0  0  0  0  0  0
   -3.6628   -0.1572    0.6205 C   0  0  0  0  0  0  0  0  0  0  0  0
    3.6625    0.1572    0.6206 C   0  0  0  0  0  0  0  0  0  0  0  0
  1  9  1  0
  1 17  2  3
  2 10  1  0
  2 18  2  3
  3 17  1  0
  4 17  1  0
  5 18  1  0
  6 18  1  0
  7  8  1  0
  7  9  2  0
  7 11  1  0
  8 10  1  0
  8 12  2  0
  9 13  1  0
 10 14  2  0
 11 15  2  0
 12 16  1  0
 13 16  2  0
 14 15  1  0
M  END
>  <PUBCHEM_COMPOUND_CID>  (1) 
44994

>  <PUBCHEM_CONFORMER_RMSD>  (1) 
0.6

>  <PUBCHEM_CONFORMER_DIVERSEORDER>  (1) 
2
3
1

>  <PUBCHEM_MMFF94_PARTIAL_CHARGES>  (1) 
30
1 -0.63
10 0.18
11 -0.15
12 -0.15
13 -0.15
14 -0.15
15 -0.15
16 -0.15
17 0.55
18 0.55
19 0.15
2 -0.63
20 0.15
21 0.15
22 0.15
23 0.15
24 0.15
25 0.4
26 0.4
27 0.4
28 0.4
29 0.4
3 -0.85
30 0.4
31 0.4
32 0.4
4 -0.85
5 -0.85
6 -0.85
9 0.18

>  <PUBCHEM_EFFECTIVE_ROTOR_COUNT>  (1) 
2

>  <PUBCHEM_PHARMACOPHORE_FEATURES>  (1) 
8
1 3 donor
1 4 donor
1 5 donor
1 6 donor
4 1 3 4 17 cation
4 2 5 6 18 cation
6 7 8 10 11 14 15 rings
6 7 8 9 12 13 16 rings

>  <PUBCHEM_HEAVY_ATOM_COUNT>  (1) 
18

>  <PUBCHEM_ATOM_DEF_STEREO_COUNT>  (1) 
0

>  <PUBCHEM_ATOM_UDEF_STEREO_COUNT>  (1) 
0

>  <PUBCHEM_BOND_DEF_STEREO_COUNT>  (1) 
0

>  <PUBCHEM_BOND_UDEF_STEREO_COUNT>  (1) 
0

>  <PUBCHEM_ISOTOPIC_ATOM_COUNT>  (1) 
0

>  <PUBCHEM_COMPONENT_COUNT>  (1) 
1

>  <PUBCHEM_CACTVS_TAUTO_COUNT>  (1) 
3

>  <PUBCHEM_CONFORMER_ID>  (1) 
0000AFC200000002

>  <PUBCHEM_MMFF94_ENERGY>  (1) 
69.4975

>  <PUBCHEM_FEATURE_SELFOVERLAP>  (1) 
40.734

>  <PUBCHEM_SHAPE_FINGERPRINT>  (1) 
10967382 1 18410578408978361455
11132069 177 18412825793623811943
11471102 22 18336278876709204625
11796584 16 16298102095132574059
12382932 28 18411417327813368462
12633257 1 17969523630923181147
13140716 1 18194683893490122761
13172582 1 18410855503077834980
13583140 156 17023446621367174276
13965767 371 16839428928417857625
14022349 108 18192714664123821764
14178342 30 18192999214175485257
14223421 5 18194965127990967014
14252887 29 18339373984687990155
14790565 3 18338816596570219572
15209294 21 17775289348009056857
15295992 7 17202750631587609410
15309172 13 18413388734929237262
15375358 24 18262233314346222085
15375462 189 17894900871867640936
16945 1 18410573985151451614
18186145 218 17704069564978685534
19784866 170 18338238163216815725
200 152 14273453673962948548
20028762 73 18056204807016055799
20261772 1 18410853287196690802
20344682 10 18410855442948292917
20510252 161 18271520906082728968
21069387 34 13334747807692298587
21637258 2 15647322100063464067
22182313 1 18266458702586315479
22854114 59 18272934916463459507
2334 1 17906452482251299637
23402539 116 18339909493884231295
23559900 14 17972319512508858190
2748010 2 18122343475855753869
34934 24 18338789023401424775
350125 39 18197222443096652198
4072396 5 18261379015154232167
458136 41 18131075900800158918
465052 167 17968385649162694571
474 4 17417523721955078736
568465 68 18339657718838338161
58807428 26 18340474639041168522
81228 2 17910645968556486318

>  <PUBCHEM_SHAPE_MULTIPOLES>  (1) 
340.55
7.05
2.24
1.19
0
0
0.61
0
3.65
0
-0.73
0
0
0.52

>  <PUBCHEM_SHAPE_SELFOVERLAP>  (1) 
739.573

>  <PUBCHEM_SHAPE_VOLUME>  (1) 
181.2

>  <PUBCHEM_COORDINATE_TYPE>  (1) 
2
5
10

$$$$
