44996
     RDKit          3D

 13 12  0  0  0  0  0  0  0  0999 V2000
    3.3415   -0.2341   -0.3408 N   0  0  0  0  0  0  0  0  0  0  0  0
    4.8863   -1.9600   -0.4236 N   0  0  0  0  0  0  0  0  0  0  0  0
    5.4855   -0.0894    0.7327 N   0  0  0  0  0  0  0  0  0  0  0  0
   -1.9367    0.0516    0.2600 C   0  0  0  0  0  0  0  0  0  0  0  0
   -0.8576    1.0122   -0.2438 C   0  0  0  0  0  0  0  0  0  0  0  0
   -3.3520    0.4401   -0.1782 C   0  0  0  0  0  0  0  0  0  0  0  0
    0.5371    0.5587    0.1957 C   0  0  0  0  0  0  0  0  0  0  0  0
   -4.4738   -0.4979    0.2779 C   0  0  0  0  0  0  0  0  0  0  0  0
    1.6200    1.5036   -0.3334 C   0  0  0  0  0  0  0  0  0  0  0  0
   -5.8549   -0.0905   -0.2361 C   0  0  0  0  0  0  0  0  0  0  0  0
    3.0164    1.1110    0.1360 C   0  0  0  0  0  0  0  0  0  0  0  0
   -6.9172   -1.1015    0.1680 C   0  0  0  0  0  0  0  0  0  0  0  0
    4.5053   -0.7038   -0.0146 C   0  0  0  0  0  0  0  0  0  0  0  0
  1 11  1  0
  1 13  2  3
  2 13  1  0
  3 13  1  0
  4  5  1  0
  4  6  1  0
  5  7  1  0
  6  8  1  0
  7  9  1  0
  8 10  1  0
  9 11  1  0
 10 12  1  0
M  END
>  <PUBCHEM_COMPOUND_CID>  (1) 
44996

>  <PUBCHEM_CONFORMER_RMSD>  (1) 
0.8

>  <PUBCHEM_CONFORMER_DIVERSEORDER>  (1) 
1
309
276
82
52
217
2
129
305
102
255
292
205
175
44
93
30
100
41
311
101
239
168
13
237
64
59
206
264
189
106
247
308
18
182
138
224
4
277
279
155
21
123
61
262
287
167
23
306
86
50
16
230
65
208
183
275
20
75
249
80
265
98
19
12
161
42
176
148
45
94
192
63
79
263
187
222
60
146
181
15
126
252
141
105
203
153
242
218
140
280
3
88
99
233
215
5
34
254
74
307
211
14
214
293
221
10
107
157
11
33
200
212
185
147
193
240
92
273
29
251
127
124
282
69
288
223
150
281
271
43
133
58
142
244
226
135
291
6
165
260
35
39
95
166
48
160
90
122
272
97
120
284
178
8
24
186
113
250
213
289
87
56
207
261
70
156
232
173
243
55
246
162
300
194
299
136
49
235
77
172
40
110
196
191
51
31
114
278
134
180
66
112
245
170
171
9
115
54
137
227
274
37
163
248
241
103
78
225
294
25
228
283
73
89
145
258
209
67
238
267
158
76
164
266
231
57
22
116
71
310
81
149
236
111
38
286
68
84
119
91
202
190
198
117
85
257
154
285
32
159
270
131
234
7
204
62
72
219
220
298
109
253
83
46
296
256
96
139
197
304
195
128
151
290
53
17
216
188
229
177
108
174
26
28
130
144
143
297
184
125
301
268
269
121
132
201
47
199
152
295
302
104
259
27
36
179
210
303
118
169

>  <PUBCHEM_MMFF94_PARTIAL_CHARGES>  (1) 
9
1 -0.7
11 0.25
13 0.55
2 -0.85
3 -0.85
33 0.4
34 0.4
35 0.4
36 0.4

>  <PUBCHEM_EFFECTIVE_ROTOR_COUNT>  (1) 
8

>  <PUBCHEM_PHARMACOPHORE_FEATURES>  (1) 
4
1 12 hydrophobe
1 2 donor
1 3 donor
4 1 2 3 13 cation

>  <PUBCHEM_HEAVY_ATOM_COUNT>  (1) 
13

>  <PUBCHEM_ATOM_DEF_STEREO_COUNT>  (1) 
0

>  <PUBCHEM_ATOM_UDEF_STEREO_COUNT>  (1) 
0

>  <PUBCHEM_BOND_DEF_STEREO_COUNT>  (1) 
0

>  <PUBCHEM_BOND_UDEF_STEREO_COUNT>  (1) 
0

>  <PUBCHEM_ISOTOPIC_ATOM_COUNT>  (1) 
0

>  <PUBCHEM_COMPONENT_COUNT>  (1) 
1

>  <PUBCHEM_CACTVS_TAUTO_COUNT>  (1) 
2

>  <PUBCHEM_CONFORMER_ID>  (1) 
0000AFC400000001

>  <PUBCHEM_MMFF94_ENERGY>  (1) 
11.4852

>  <PUBCHEM_FEATURE_SELFOVERLAP>  (1) 
20.353

>  <PUBCHEM_SHAPE_FINGERPRINT>  (1) 
100836 57 10592039176604380792
10354089 29 12895352196656639162
117890 112 10663826278118591347
11858739 19 18410854356764698069
12714333 28 11746936494715791205
13533116 47 18201720669318943960
13690532 89 18410013229989823013
1420 363 17822014229135656379
14252887 29 17988931029208297662
14455015 7 18334019401952491899
15048467 5 9151176450387679103
15242439 84 17240201058402107553
15501527 16 9367340445019539397
17834072 8 17530683225661369507
17834076 25 7925915876518273689
20526848 3 9655567530989321802
20621476 30 18118122700843904099
20621476 38 18411420627060661631
20621476 8 18186798068602565821
20645477 70 18334576841468199044
20767249 213 9223232945087955109
21130983 4 9223236260903103423
21354914 88 18409449184798629205
23272321 79 9655568613584389169
23402539 116 18131348610128400581
23402655 69 11169912801101881873
23590187 198 18342177778420558703
28498 318 18410009919566803743
2916195 48 11024108737907407863
42788 4 18335138713548534677
465052 167 18341618126316478687
5374978 207 16343985822944328824
57483677 66 18411698816239340495
59345606 91 9583520915129901773
59682541 35 18271796957148202562
6025842 7 18335426824323805004

>  <PUBCHEM_SHAPE_MULTIPOLES>  (1) 
252.59
16.78
1.4
0.69
12.09
0.23
0.02
8.5
0.65
-1.4
-0.16
-0.14
0.01
0.41

>  <PUBCHEM_SHAPE_SELFOVERLAP>  (1) 
456.856

>  <PUBCHEM_SHAPE_VOLUME>  (1) 
159.7

>  <PUBCHEM_COORDINATE_TYPE>  (1) 
2
5
10

$$$$
