45005
     RDKit          3D

 17 17  0  0  0  0  0  0  0  0999 V2000
    0.0387   -0.5142    1.0689 O   0  0  0  0  0  0  0  0  0  0  0  0
    1.3870    2.6225    1.2311 O   0  0  0  0  0  0  0  0  0  0  0  0
   -2.5109   -0.2665   -0.1383 N   0  0  0  0  0  0  0  0  0  0  0  0
    0.4104    2.3602   -0.8271 N   0  0  0  0  0  0  0  0  0  0  0  0
   -2.2349   -1.2414    0.9163 C   0  0  0  0  0  0  0  0  0  0  0  0
   -3.9056    0.1692   -0.0791 C   0  0  0  0  0  0  0  0  0  0  0  0
   -2.2082   -0.8345   -1.4515 C   0  0  0  0  0  0  0  0  0  0  0  0
   -0.7752   -1.6654    0.8867 C   0  0  0  0  0  0  0  0  0  0  0  0
   -4.2383    0.7626    1.2794 C   0  0  0  0  0  0  0  0  0  0  0  0
   -2.4310    0.1853   -2.5554 C   0  0  0  0  0  0  0  0  0  0  0  0
    1.2812   -0.5380    0.4912 C   0  0  0  0  0  0  0  0  0  0  0  0
    1.8867    0.6389    0.0637 C   0  0  0  0  0  0  0  0  0  0  0  0
    1.9273   -1.7608    0.3403 C   0  0  0  0  0  0  0  0  0  0  0  0
    3.1522    0.5929   -0.5212 C   0  0  0  0  0  0  0  0  0  0  0  0
    3.1929   -1.8068   -0.2447 C   0  0  0  0  0  0  0  0  0  0  0  0
    3.8052   -0.6300   -0.6754 C   0  0  0  0  0  0  0  0  0  0  0  0
    1.2226    1.9261    0.2152 C   0  0  0  0  0  0  0  0  0  0  0  0
  1  8  1  0
  1 11  1  0
  2 17  2  0
  3  5  1  0
  3  6  1  0
  3  7  1  0
  4 17  1  0
  5  8  1  0
  6  9  1  0
  7 10  1  0
 11 12  2  0
 11 13  1  0
 12 14  1  0
 12 17  1  0
 13 15  2  0
 14 16  2  0
 15 16  1  0
M  END
>  <PUBCHEM_COMPOUND_CID>  (1) 
45005

>  <PUBCHEM_CONFORMER_RMSD>  (1) 
0.8

>  <PUBCHEM_CONFORMER_DIVERSEORDER>  (1) 
6
150
34
110
85
82
100
115
97
67
64
12
114
99
119
147
53
146
124
18
92
101
74
103
62
148
86
90
120
134
107
4
126
59
40
13
144
71
57
96
69
26
78
81
118
80
29
143
25
61
63
41
5
104
33
137
2
77
105
28
31
106
89
93
73
88
76
60
70
37
129
66
58
1
132
24
83
38
50
116
51
113
54
142
47
55
56
10
130
112
16
3
19
68
9
49
75
20
44
95
8
91
17
39
121
72
136
46
45
36
87
109
35
135
23
79
30
131
84
127
65
15
11
43
52
117
27
21
94
32
145
98
128
149
125
102
14
111
141
133
123
138
42
108
140
48
122
22
7
139

>  <PUBCHEM_MMFF94_PARTIAL_CHARGES>  (1) 
21
1 -0.36
11 0.08
12 0.09
13 -0.15
14 -0.15
15 -0.15
16 -0.15
17 0.54
2 -0.57
3 -0.81
32 0.15
33 0.15
34 0.15
35 0.15
36 0.37
37 0.37
4 -0.8
5 0.27
6 0.27
7 0.27
8 0.28

>  <PUBCHEM_EFFECTIVE_ROTOR_COUNT>  (1) 
7

>  <PUBCHEM_PHARMACOPHORE_FEATURES>  (1) 
5
1 1 acceptor
1 2 acceptor
1 3 cation
1 4 donor
6 11 12 13 14 15 16 rings

>  <PUBCHEM_HEAVY_ATOM_COUNT>  (1) 
17

>  <PUBCHEM_ATOM_DEF_STEREO_COUNT>  (1) 
0

>  <PUBCHEM_ATOM_UDEF_STEREO_COUNT>  (1) 
0

>  <PUBCHEM_BOND_DEF_STEREO_COUNT>  (1) 
0

>  <PUBCHEM_BOND_UDEF_STEREO_COUNT>  (1) 
0

>  <PUBCHEM_ISOTOPIC_ATOM_COUNT>  (1) 
0

>  <PUBCHEM_COMPONENT_COUNT>  (1) 
1

>  <PUBCHEM_CACTVS_TAUTO_COUNT>  (1) 
2

>  <PUBCHEM_CONFORMER_ID>  (1) 
0000AFCD00000006

>  <PUBCHEM_MMFF94_ENERGY>  (1) 
50.1285

>  <PUBCHEM_FEATURE_SELFOVERLAP>  (1) 
25.371

>  <PUBCHEM_SHAPE_FINGERPRINT>  (1) 
104564 63 18194686955912860432
10498660 4 16733253630087728303
116883 192 17911251520248058750
12654215 9 18408605889972196042
13134695 92 18343862225754890260
13693222 15 10592044648018500710
13764800 53 16370994171188065895
14386348 128 17822285799495821669
14787075 74 12975613302736733263
16945 1 18272090564848569050
17844478 74 17095248003589550087
18186145 218 18186800266439203306
18219364 16 18040428889451340091
20645476 183 17775568663023834927
21486144 27 18262232334903670411
232386 152 15697993080486862958
23402539 116 18202282485960453886
23419403 2 14937366166487765690
23493267 7 15575266589274630381
23598291 2 17989200482102068149
238 59 17753854381932376055
25 1 18261115157796260018
2748010 2 17974853079530791456
3286 77 18337397153086422911
3524813 1 17749387061708884655
3797600 57 13118294697442630497
6438718 38 17772477793745435617
74978 22 18272651298272019155
7832392 63 18273495684647451537
81228 2 18122640348944413210
84936 182 17701253874382191848

>  <PUBCHEM_SHAPE_MULTIPOLES>  (1) 
328.15
6.93
2.26
1.57
2.94
1.06
0.88
-0.63
0.44
-1.39
-0.51
1.56
0.17
0.17

>  <PUBCHEM_SHAPE_SELFOVERLAP>  (1) 
662.521

>  <PUBCHEM_SHAPE_VOLUME>  (1) 
194.1

>  <PUBCHEM_COORDINATE_TYPE>  (1) 
2
5
10

$$$$
