45010
     RDKit          3D

 21 21  0  0  0  0  0  0  0  0999 V2000
   -2.0246    0.8494    2.0553 O   0  0  0  0  0  0  0  0  0  0  0  0
    2.6381   -1.8436    1.2182 O   0  0  0  0  0  0  0  0  0  0  0  0
    2.2067    2.3494   -1.0561 O   0  0  0  0  0  0  0  0  0  0  0  0
   -1.4727   -2.9098   -2.2407 O   0  0  0  0  0  0  0  0  0  0  0  0
   -4.2104    2.1000    0.4070 O   0  0  0  0  0  0  0  0  0  0  0  0
    3.7817    0.2309   -0.2181 O   0  0  0  0  0  0  0  0  0  0  0  0
   -2.6012   -0.2623    0.0814 N   0  0  0  0  0  0  0  0  0  0  0  0
   -2.1651   -0.8764   -1.1709 C   0  0  0  0  0  0  0  0  0  0  0  0
   -4.0352   -0.2921    0.3325 C   0  0  0  0  0  0  0  0  0  0  0  0
   -1.6943    0.3201    0.9858 C   0  0  0  0  0  0  0  0  0  0  0  0
   -0.2745    0.2964    0.6723 C   0  0  0  0  0  0  0  0  0  0  0  0
   -1.8576   -2.3518   -0.9910 C   0  0  0  0  0  0  0  0  0  0  0  0
   -4.7254    0.9374   -0.2291 C   0  0  0  0  0  0  0  0  0  0  0  0
    0.2980    1.3431   -0.0504 C   0  0  0  0  0  0  0  0  0  0  0  0
    0.5152   -0.7724    1.0962 C   0  0  0  0  0  0  0  0  0  0  0  0
    1.8776   -0.7944    0.7975 C   0  0  0  0  0  0  0  0  0  0  0  0
    1.6605    1.3210   -0.3491 C   0  0  0  0  0  0  0  0  0  0  0  0
    2.4501    0.2521    0.0747 C   0  0  0  0  0  0  0  0  0  0  0  0
    2.7531   -2.9564    0.3337 C   0  0  0  0  0  0  0  0  0  0  0  0
    2.2184    2.2252   -2.4768 C   0  0  0  0  0  0  0  0  0  0  0  0
    4.6617    0.8343    0.7275 C   0  0  0  0  0  0  0  0  0  0  0  0
  1 10  2  0
  2 16  1  0
  2 19  1  0
  3 17  1  0
  3 20  1  0
  4 12  1  0
  5 13  1  0
  6 18  1  0
  6 21  1  0
  7  8  1  0
  7  9  1  0
  7 10  1  0
  8 12  1  0
  9 13  1  0
 10 11  1  0
 11 14  2  0
 11 15  1  0
 14 17  1  0
 15 16  2  0
 16 18  1  0
 17 18  2  0
M  END
>  <PUBCHEM_COMPOUND_CID>  (1) 
45010

>  <PUBCHEM_CONFORMER_RMSD>  (1) 
0.8

>  <PUBCHEM_CONFORMER_DIVERSEORDER>  (1) 
1
24
59
7
47
61
40
9
69
23
36
77
11
49
73
41
74
35
43
78
54
25
30
19
38
52
55
44
45
26
42
21
75
20
34
32
37
22
67
50
64
15
66
65
71
18
58
46
29
76
53
6
2
63
8
48
70
27
57
68
28
60
12
13
56
51
72
33
14
39
16
10
5
62
3
31
4
17

>  <PUBCHEM_MMFF94_PARTIAL_CHARGES>  (1) 
25
1 -0.57
10 0.54
11 0.09
12 0.28
13 0.28
14 -0.15
15 -0.15
16 0.08
17 0.08
18 0.08
19 0.28
2 -0.36
20 0.28
21 0.28
3 -0.36
30 0.15
31 0.15
32 0.4
33 0.4
4 -0.68
5 -0.68
6 -0.36
7 -0.66
8 0.3
9 0.3

>  <PUBCHEM_EFFECTIVE_ROTOR_COUNT>  (1) 
9

>  <PUBCHEM_PHARMACOPHORE_FEATURES>  (1) 
9
1 1 acceptor
1 2 acceptor
1 3 acceptor
1 4 acceptor
1 4 donor
1 5 acceptor
1 5 donor
1 6 acceptor
6 11 14 15 16 17 18 rings

>  <PUBCHEM_HEAVY_ATOM_COUNT>  (1) 
21

>  <PUBCHEM_ATOM_DEF_STEREO_COUNT>  (1) 
0

>  <PUBCHEM_ATOM_UDEF_STEREO_COUNT>  (1) 
0

>  <PUBCHEM_BOND_DEF_STEREO_COUNT>  (1) 
0

>  <PUBCHEM_BOND_UDEF_STEREO_COUNT>  (1) 
0

>  <PUBCHEM_ISOTOPIC_ATOM_COUNT>  (1) 
0

>  <PUBCHEM_COMPONENT_COUNT>  (1) 
1

>  <PUBCHEM_CACTVS_TAUTO_COUNT>  (1) 
1

>  <PUBCHEM_CONFORMER_ID>  (1) 
0000AFD200000001

>  <PUBCHEM_MMFF94_ENERGY>  (1) 
85.1245

>  <PUBCHEM_FEATURE_SELFOVERLAP>  (1) 
45.685

>  <PUBCHEM_SHAPE_FINGERPRINT>  (1) 
10906281 52 17676786300907002440
11578080 2 18054475158564796553
12236239 1 18342175566227571425
12403259 327 16629373905704184578
12500047 106 17988633116806234659
13140716 1 17896886662961327224
13538477 17 18130782395218976091
14115302 16 18202280333685589595
14178342 30 18125693889702382298
15279307 12 18342740749153010379
15375358 24 16200436896146688124
16752209 62 17775290430841988353
16945 1 18042140841930302352
1813 80 18118690911577978574
20645476 183 18342174492575736391
20645477 70 18262235508600036163
21486144 27 16732984271086905249
23402539 116 18187354451002164042
23419403 2 15751103868812273227
23557571 272 17202203121392575288
23598291 2 18336812122627108967
2748010 2 17825104814482107152
34934 24 18410288108023205448
474 4 17895759615886837400
81228 2 17318448692435394136
8272917 22 18187936040544028595
90525 40 18343022173196326703

>  <PUBCHEM_SHAPE_MULTIPOLES>  (1) 
391.97
7.81
2.84
1.7
2.87
1.27
-0.8
-2.07
0.7
-1.1
-1.46
0.06
-0.01
-2.11

>  <PUBCHEM_SHAPE_SELFOVERLAP>  (1) 
795.693

>  <PUBCHEM_SHAPE_VOLUME>  (1) 
229.8

>  <PUBCHEM_COORDINATE_TYPE>  (1) 
2
5
10

$$$$
