45016
     RDKit          3D

 15 15  0  0  0  0  0  0  0  0999 V2000
    4.8091   -0.9833   -0.8171 Br  0  0  0  0  0  0  0  0  0  0  0  0
   -0.9382   -0.2686    0.9059 O   0  0  0  0  0  0  0  0  0  0  0  0
   -5.5186   -0.2268   -0.5311 O   0  0  0  0  0  0  0  0  0  0  0  0
    0.5929    2.7839    1.0263 O   0  0  0  0  0  0  0  0  0  0  0  0
   -0.1128    2.4121   -1.1236 N   0  0  0  0  0  0  0  0  0  0  0  0
   -3.2405   -0.2545    0.2000 C   0  0  0  0  0  0  0  0  0  0  0  0
   -1.9141   -0.9978    0.1739 C   0  0  0  0  0  0  0  0  0  0  0  0
    0.3664   -0.4143    0.5120 C   0  0  0  0  0  0  0  0  0  0  0  0
    1.1056    0.6852    0.0885 C   0  0  0  0  0  0  0  0  0  0  0  0
   -4.3172   -0.9833   -0.5870 C   0  0  0  0  0  0  0  0  0  0  0  0
    0.9390   -1.6817    0.5429 C   0  0  0  0  0  0  0  0  0  0  0  0
    2.4321    0.5156   -0.3084 C   0  0  0  0  0  0  0  0  0  0  0  0
    2.2654   -1.8514    0.1461 C   0  0  0  0  0  0  0  0  0  0  0  0
    3.0119   -0.7526   -0.2796 C   0  0  0  0  0  0  0  0  0  0  0  0
    0.5188    2.0176    0.0511 C   0  0  0  0  0  0  0  0  0  0  0  0
  1 14  1  0
  2  7  1  0
  2  8  1  0
  3 10  1  0
  4 15  2  0
  5 15  1  0
  6  7  1  0
  6 10  1  0
  8  9  2  0
  8 11  1  0
  9 12  1  0
  9 15  1  0
 11 13  2  0
 12 14  2  0
 13 14  1  0
M  END
>  <PUBCHEM_COMPOUND_CID>  (1) 
45016

>  <PUBCHEM_CONFORMER_RMSD>  (1) 
0.6

>  <PUBCHEM_CONFORMER_DIVERSEORDER>  (1) 
1
125
129
128
57
77
78
4
87
70
114
117
76
103
108
111
115
109
71
132
113
130
27
23
92
122
99
44
85
131
118
127
13
97
133
79
112
56
41
110
98
123
53
58
81
84
15
121
52
89
72
102
59
20
134
95
75
88
67
21
26
82
28
126
49
116
94
63
135
119
107
43
55
25
6
68
24
54
105
3
64
93
19
35
62
9
120
74
2
33
18
60
10
124
106
39
61
5
66
86
22
8
7
65
101
46
45
48
51
91
73
30
12
17
80
32
104
34
16
42
47
83
14
100
50
90
38
29
69
37
40
31
11
36
96

>  <PUBCHEM_MMFF94_PARTIAL_CHARGES>  (1) 
20
1 -0.11
10 0.28
11 -0.15
12 -0.15
13 -0.15
14 0.11
15 0.54
2 -0.36
22 0.15
23 0.15
24 0.15
25 0.4
26 0.37
27 0.37
3 -0.68
4 -0.57
5 -0.8
7 0.28
8 0.08
9 0.09

>  <PUBCHEM_EFFECTIVE_ROTOR_COUNT>  (1) 
5

>  <PUBCHEM_PHARMACOPHORE_FEATURES>  (1) 
7
1 1 hydrophobe
1 2 acceptor
1 3 acceptor
1 3 donor
1 4 acceptor
1 5 donor
6 8 9 11 12 13 14 rings

>  <PUBCHEM_HEAVY_ATOM_COUNT>  (1) 
15

>  <PUBCHEM_ATOM_DEF_STEREO_COUNT>  (1) 
0

>  <PUBCHEM_ATOM_UDEF_STEREO_COUNT>  (1) 
0

>  <PUBCHEM_BOND_DEF_STEREO_COUNT>  (1) 
0

>  <PUBCHEM_BOND_UDEF_STEREO_COUNT>  (1) 
0

>  <PUBCHEM_ISOTOPIC_ATOM_COUNT>  (1) 
0

>  <PUBCHEM_COMPONENT_COUNT>  (1) 
1

>  <PUBCHEM_CACTVS_TAUTO_COUNT>  (1) 
2

>  <PUBCHEM_CONFORMER_ID>  (1) 
0000AFD800000001

>  <PUBCHEM_MMFF94_ENERGY>  (1) 
44.942

>  <PUBCHEM_FEATURE_SELFOVERLAP>  (1) 
35.522

>  <PUBCHEM_SHAPE_FINGERPRINT>  (1) 
11206711 2 18189915123288798782
11471102 20 18408603690458524815
116883 192 17981890735448236335
12654215 9 18334011734987533992
13134695 92 18272368719494098653
14251717 144 18411135870048188431
14576447 43 18341890796716123599
14911166 2 18334861623090121362
14993402 34 18343024393093434942
15210252 30 17095235891750550221
15477762 27 18341611555306750191
15848700 24 18411698781552385670
16945 1 18199767967033432682
18186145 218 18114730638635959543
18410436 195 18343863320507353400
187816 3 18113625573198887914
20606313 2 18335699472578076619
20645477 70 18270962453060137623
20871999 31 18261392183381686653
21029758 11 18413111675474286616
21256008 61 18343021103179868283
21501502 16 17974577892729385810
21637258 2 16558469682589788174
221357 26 18335692824659662981
221490 88 18121224435276180179
22289505 5 18261661598469908517
23402539 116 18342459192861824726
23402655 69 18334853884102158775
23557571 272 18199474277180398614
23622692 118 18048315549225268850
25147074 1 17899143711499471450
2748010 2 18048619280663913610
2871803 45 18335143051281023878
3060560 45 18341045293828256855
68521 5 18336550404520786220
7364860 26 18199746015176072889
7471813 234 17775280590929767801
81228 2 18192166897068929736

>  <PUBCHEM_SHAPE_MULTIPOLES>  (1) 
292.05
8.16
2.36
0.92
7.24
1.91
0.04
-4.44
3.15
-0.68
-0.16
-0.04
0.17
0.03

>  <PUBCHEM_SHAPE_SELFOVERLAP>  (1) 
583.701

>  <PUBCHEM_SHAPE_VOLUME>  (1) 
176.5

>  <PUBCHEM_COORDINATE_TYPE>  (1) 
2
5
10

$$$$
