45012
     RDKit          3D

 26 27  0  0  0  0  0  0  0  0999 V2000
    5.8075    0.1117   -1.6943 Br  0  0  0  0  0  0  0  0  0  0  0  0
    0.4239   -0.6253    0.9665 O   0  0  0  0  0  0  0  0  0  0  0  0
    1.5108   -3.6673   -0.0841 O   0  0  0  0  0  0  0  0  0  0  0  0
   -3.1044   -0.7031   -0.1022 N   0  0  0  0  0  0  0  0  0  0  0  0
    2.4459   -3.2258    1.9628 N   0  0  0  0  0  0  0  0  0  0  0  0
   -4.2036    0.2076    0.1949 C   0  0  0  0  0  0  0  0  0  0  0  0
   -3.5249   -2.0941    0.0755 C   0  0  0  0  0  0  0  0  0  0  0  0
   -1.9482   -0.4100    0.7468 C   0  0  0  0  0  0  0  0  0  0  0  0
   -3.9493    1.5708   -0.4434 C   0  0  0  0  0  0  0  0  0  0  0  0
   -4.3101   -2.5701   -1.1442 C   0  0  0  0  0  0  0  0  0  0  0  0
   -0.6716   -0.9465    0.1193 C   0  0  0  0  0  0  0  0  0  0  0  0
   -5.0727    2.5471   -0.1300 C   0  0  0  0  0  0  0  0  0  0  0  0
   -4.7776   -4.0075   -0.9753 C   0  0  0  0  0  0  0  0  0  0  0  0
    1.6419   -0.4521    0.3627 C   0  0  0  0  0  0  0  0  0  0  0  0
    2.0324    0.8092   -0.0872 C   0  0  0  0  0  0  0  0  0  0  0  0
    2.4928   -1.5453    0.1993 C   0  0  0  0  0  0  0  0  0  0  0  0
    1.1640    1.9586    0.0720 C   0  0  0  0  0  0  0  0  0  0  0  0
    3.2739    0.9773   -0.7002 C   0  0  0  0  0  0  0  0  0  0  0  0
    3.7344   -1.3772   -0.4138 C   0  0  0  0  0  0  0  0  0  0  0  0
    4.1250   -0.1158   -0.8636 C   0  0  0  0  0  0  0  0  0  0  0  0
    0.7270    2.6631   -1.0498 C   0  0  0  0  0  0  0  0  0  0  0  0
    0.7647    2.3602    1.3468 C   0  0  0  0  0  0  0  0  0  0  0  0
    2.1068   -2.8719    0.6613 C   0  0  0  0  0  0  0  0  0  0  0  0
   -0.1090    3.7692   -0.8970 C   0  0  0  0  0  0  0  0  0  0  0  0
   -0.0714    3.4663    1.4996 C   0  0  0  0  0  0  0  0  0  0  0  0
   -0.5082    4.1707    0.3776 C   0  0  0  0  0  0  0  0  0  0  0  0
  1 20  1  0
  2 11  1  0
  2 14  1  0
  3 23  2  0
  4  6  1  0
  4  7  1  0
  4  8  1  0
  5 23  1  0
  6  9  1  0
  7 10  1  0
  8 11  1  0
  9 12  1  0
 10 13  1  0
 14 15  2  0
 14 16  1  0
 15 17  1  0
 15 18  1  0
 16 19  2  0
 16 23  1  0
 17 21  2  0
 17 22  1  0
 18 20  2  0
 19 20  1  0
 21 24  1  0
 22 25  2  0
 24 26  2  0
 25 26  1  0
M  END
>  <PUBCHEM_COMPOUND_CID>  (1) 
45012

>  <PUBCHEM_CONFORMER_RMSD>  (1) 
1

>  <PUBCHEM_CONFORMER_DIVERSEORDER>  (1) 
1
42
4
23
19
35
12
36
30
15
25
27
8
5
11
7
34
24
6
38
17
26
14
32
2
41
20
22
31
37
16
29
21
3
39
33
10
9
18
40
13
28

>  <PUBCHEM_MMFF94_PARTIAL_CHARGES>  (1) 
29
1 -0.11
11 0.28
14 0.08
16 0.09
18 -0.15
19 -0.15
2 -0.36
20 0.11
21 -0.15
22 -0.15
23 0.54
24 -0.15
25 -0.15
26 -0.15
3 -0.57
4 -0.81
45 0.15
46 0.15
47 0.15
48 0.15
49 0.15
5 -0.8
50 0.15
51 0.15
52 0.37
53 0.37
6 0.27
7 0.27
8 0.27

>  <PUBCHEM_EFFECTIVE_ROTOR_COUNT>  (1) 
10

>  <PUBCHEM_PHARMACOPHORE_FEATURES>  (1) 
9
1 1 hydrophobe
1 12 hydrophobe
1 13 hydrophobe
1 2 acceptor
1 3 acceptor
1 4 cation
1 5 donor
6 14 15 16 18 19 20 rings
6 17 21 22 24 25 26 rings

>  <PUBCHEM_HEAVY_ATOM_COUNT>  (1) 
26

>  <PUBCHEM_ATOM_DEF_STEREO_COUNT>  (1) 
0

>  <PUBCHEM_ATOM_UDEF_STEREO_COUNT>  (1) 
0

>  <PUBCHEM_BOND_DEF_STEREO_COUNT>  (1) 
0

>  <PUBCHEM_BOND_UDEF_STEREO_COUNT>  (1) 
0

>  <PUBCHEM_ISOTOPIC_ATOM_COUNT>  (1) 
0

>  <PUBCHEM_COMPONENT_COUNT>  (1) 
1

>  <PUBCHEM_CACTVS_TAUTO_COUNT>  (1) 
2

>  <PUBCHEM_CONFORMER_ID>  (1) 
0000AFD400000001

>  <PUBCHEM_MMFF94_ENERGY>  (1) 
73.9567

>  <PUBCHEM_FEATURE_SELFOVERLAP>  (1) 
45.671

>  <PUBCHEM_SHAPE_FINGERPRINT>  (1) 
10366900 7 18042965557166283779
11513181 2 17767970835833071479
11578080 2 17843947166695872120
116883 192 17979355257239462022
12035759 4 18262531273375928516
12422481 6 17403481580243495673
12553582 1 18411135818635142699
12788726 201 18124881161725554416
13004483 165 18046341938110123921
1361 2 17329422261131404543
13911987 19 18043271213204172438
14251757 5 18267587905676780405
14790565 3 18262247741120972124
15210252 30 18040443195824613844
18681886 176 18057884834564671606
20775438 99 17546107222489847143
20775530 9 18412259575801547861
21421861 104 17824540764832513762
221357 26 18339364188078461295
22393880 68 18342176691118892094
23559900 14 18268135647599379751
238 59 17975697508539885907
283562 15 18409739452433198912
3027735 51 17405979662129265765
70251023 43 18125444356946103811
7164475 11 17976819787968379530

>  <PUBCHEM_SHAPE_MULTIPOLES>  (1) 
519.31
9.97
5.74
1.34
4.17
0.93
-0.15
-5.63
5.02
3.68
-0.5
-0.83
-0.1
-1.61

>  <PUBCHEM_SHAPE_SELFOVERLAP>  (1) 
1063.922

>  <PUBCHEM_SHAPE_VOLUME>  (1) 
306.9

>  <PUBCHEM_COORDINATE_TYPE>  (1) 
2
5
10

$$$$
