45017
     RDKit          3D

 19 20  0  0  0  0  0  0  0  0999 V2000
    1.3541    4.2185    0.1890 Br  0  0  0  0  0  0  0  0  0  0  0  0
    0.1096   -1.6819   -0.2476 O   0  0  0  0  0  0  0  0  0  0  0  0
    2.6634   -1.9196   -0.9089 O   0  0  0  0  0  0  0  0  0  0  0  0
    4.0160   -0.5102    0.3402 N   0  0  0  0  0  0  0  0  0  0  0  0
   -0.6549    0.5783   -0.0376 C   0  0  0  0  0  0  0  0  0  0  0  0
    0.3843   -0.3478   -0.1483 C   0  0  0  0  0  0  0  0  0  0  0  0
   -2.0367    0.1502   -0.0252 C   0  0  0  0  0  0  0  0  0  0  0  0
    1.7099    0.0866   -0.1579 C   0  0  0  0  0  0  0  0  0  0  0  0
   -0.3634    1.9401    0.0631 C   0  0  0  0  0  0  0  0  0  0  0  0
    1.9989    1.4476   -0.0574 C   0  0  0  0  0  0  0  0  0  0  0  0
    0.9622    2.3743    0.0530 C   0  0  0  0  0  0  0  0  0  0  0  0
   -2.7439    0.0415   -1.2227 C   0  0  0  0  0  0  0  0  0  0  0  0
   -2.6621   -0.1537    1.1840 C   0  0  0  0  0  0  0  0  0  0  0  0
    2.8092   -0.8623   -0.2727 C   0  0  0  0  0  0  0  0  0  0  0  0
   -4.0763   -0.3714   -1.2111 C   0  0  0  0  0  0  0  0  0  0  0  0
   -3.9946   -0.5663    1.1957 C   0  0  0  0  0  0  0  0  0  0  0  0
   -4.7017   -0.6756   -0.0018 C   0  0  0  0  0  0  0  0  0  0  0  0
    0.0230   -2.4148    0.9711 C   0  0  0  0  0  0  0  0  0  0  0  0
    5.2030   -1.3336    0.2951 C   0  0  0  0  0  0  0  0  0  0  0  0
  1 11  1  0
  2  6  1  0
  2 18  1  0
  3 14  2  0
  4 14  1  0
  4 19  1  0
  5  6  2  0
  5  7  1  0
  5  9  1  0
  6  8  1  0
  7 12  2  0
  7 13  1  0
  8 10  2  0
  8 14  1  0
  9 11  2  0
 10 11  1  0
 12 15  1  0
 13 16  2  0
 15 17  2  0
 16 17  1  0
M  END
>  <PUBCHEM_COMPOUND_CID>  (1) 
45017

>  <PUBCHEM_CONFORMER_RMSD>  (1) 
0.6

>  <PUBCHEM_CONFORMER_DIVERSEORDER>  (1) 
2
5
3
7
1
4
9
8
6

>  <PUBCHEM_MMFF94_PARTIAL_CHARGES>  (1) 
25
1 -0.11
10 -0.15
11 0.11
12 -0.15
13 -0.15
14 0.54
15 -0.15
16 -0.15
17 -0.15
18 0.28
19 0.3
2 -0.36
20 0.15
21 0.15
22 0.15
23 0.15
24 0.15
25 0.15
26 0.15
27 0.37
3 -0.57
4 -0.73
6 0.08
8 0.09
9 -0.15

>  <PUBCHEM_EFFECTIVE_ROTOR_COUNT>  (1) 
4

>  <PUBCHEM_PHARMACOPHORE_FEATURES>  (1) 
6
1 1 hydrophobe
1 2 acceptor
1 3 acceptor
1 4 donor
6 5 6 8 9 10 11 rings
6 7 12 13 15 16 17 rings

>  <PUBCHEM_HEAVY_ATOM_COUNT>  (1) 
19

>  <PUBCHEM_ATOM_DEF_STEREO_COUNT>  (1) 
0

>  <PUBCHEM_ATOM_UDEF_STEREO_COUNT>  (1) 
0

>  <PUBCHEM_BOND_DEF_STEREO_COUNT>  (1) 
0

>  <PUBCHEM_BOND_UDEF_STEREO_COUNT>  (1) 
0

>  <PUBCHEM_ISOTOPIC_ATOM_COUNT>  (1) 
0

>  <PUBCHEM_COMPONENT_COUNT>  (1) 
1

>  <PUBCHEM_CACTVS_TAUTO_COUNT>  (1) 
2

>  <PUBCHEM_CONFORMER_ID>  (1) 
0000AFD900000002

>  <PUBCHEM_MMFF94_ENERGY>  (1) 
68.0071

>  <PUBCHEM_FEATURE_SELFOVERLAP>  (1) 
30.455

>  <PUBCHEM_SHAPE_FINGERPRINT>  (1) 
108231 29 18335707130509793506
10906281 52 18339941371732765028
11680986 33 18193277618376744824
11796584 16 17022617546481671834
12236239 1 17704071811473421519
12363563 72 18337117773911048502
12403259 226 18261106413537913037
12553582 1 18341907272362989446
12707595 3 18334292067529278739
13134695 92 18410290332779809268
13140716 1 18266743665198133674
13862211 1 18410286987301069626
13965767 371 16765961704427497593
14252887 29 18130511842660753238
15848702 151 18060144193420148967
16945 1 18342182205856757213
17357779 13 18336535032537545557
1813 80 18130521746649415004
18186145 218 18270124642321482669
18222031 100 18342731910531873222
18785283 64 18118686762454973804
192875 21 18343586260999642273
200 152 18272364270408711175
20028762 73 18200598124146686703
20645477 70 18337943597675341029
20671657 1 18196658607836830748
21029758 11 18410852144746023972
21029758 27 18408890620349819084
21041028 32 18341058445102604025
21061003 4 18334864904909040897
21501502 16 18052258684903989119
21639500 275 18268425914004860861
221490 88 18192434284453137043
2255824 54 18199473327549676908
23175994 123 18408043991811131989
2334 1 17402614546315164788
23402539 116 18341889641659603518
23419403 2 17753079311975747897
23559900 14 18339075011755929552
2748010 2 18339631236096936068
283562 15 18192712250747009056
3286 77 18334862753082829541
34934 24 18122907521432354889
350125 39 17472990969709588320
3886686 26 16400809962664280040
458136 41 17976551829075122317
474 4 17983574392788426625
5104073 3 18268722761086015811
6049 1 17895193350693424061
7364860 26 18268711782654286216
7471813 234 17917137382201559025
77492 1 17560528412414898005
81228 2 17977955587738507216
84936 182 17771909591295366665
9981440 41 17335039643713531009

>  <PUBCHEM_SHAPE_MULTIPOLES>  (1) 
380.23
8.01
3.24
1.03
1.22
3.8
-0.01
-4.35
-0.03
-3.64
-0.42
0.9
-0.23
0.29

>  <PUBCHEM_SHAPE_SELFOVERLAP>  (1) 
802.744

>  <PUBCHEM_SHAPE_VOLUME>  (1) 
220

>  <PUBCHEM_COORDINATE_TYPE>  (1) 
2
5
10

$$$$
