45013
     RDKit          3D

 14 14  0  0  0  0  0  0  0  0999 V2000
    4.4269    0.7907    0.5121 Br  0  0  0  0  0  0  0  0  0  0  0  0
   -1.4989    0.4045   -0.6069 O   0  0  0  0  0  0  0  0  0  0  0  0
   -3.6298    0.0584    1.1500 O   0  0  0  0  0  0  0  0  0  0  0  0
   -1.2576   -2.1240   -0.3750 O   0  0  0  0  0  0  0  0  0  0  0  0
    0.7608   -3.0989    0.1092 N   0  0  0  0  0  0  0  0  0  0  0  0
   -0.1619    0.4753   -0.3521 C   0  0  0  0  0  0  0  0  0  0  0  0
    0.5845   -0.6794   -0.1162 C   0  0  0  0  0  0  0  0  0  0  0  0
   -2.2951    1.5157   -0.2013 C   0  0  0  0  0  0  0  0  0  0  0  0
    0.4598    1.7239   -0.3301 C   0  0  0  0  0  0  0  0  0  0  0  0
    1.9524   -0.5857    0.1408 C   0  0  0  0  0  0  0  0  0  0  0  0
    1.8277    1.8177   -0.0728 C   0  0  0  0  0  0  0  0  0  0  0  0
    2.5739    0.6629    0.1624 C   0  0  0  0  0  0  0  0  0  0  0  0
   -3.6970    1.0310    0.1142 C   0  0  0  0  0  0  0  0  0  0  0  0
   -0.0458   -1.9922   -0.1342 C   0  0  0  0  0  0  0  0  0  0  0  0
  1 12  1  0
  2  6  1  0
  2  8  1  0
  3 13  1  0
  4 14  2  0
  5 14  1  0
  6  7  2  0
  6  9  1  0
  7 10  1  0
  7 14  1  0
  8 13  1  0
  9 11  2  0
 10 12  2  0
 11 12  1  0
M  END
>  <PUBCHEM_COMPOUND_CID>  (1) 
45013

>  <PUBCHEM_CONFORMER_RMSD>  (1) 
0.6

>  <PUBCHEM_CONFORMER_DIVERSEORDER>  (1) 
15
34
45
31
16
44
23
46
38
37
50
39
24
29
25
49
43
42
40
33
48
18
12
26
47
2
27
28
4
36
10
41
30
13
11
21
3
1
9
20
35
17
14
32
19
5
7
22
8
6

>  <PUBCHEM_MMFF94_PARTIAL_CHARGES>  (1) 
20
1 -0.11
10 -0.15
11 -0.15
12 0.11
13 0.28
14 0.54
17 0.15
18 0.15
19 0.15
2 -0.36
22 0.37
23 0.37
24 0.4
3 -0.68
4 -0.57
5 -0.8
6 0.08
7 0.09
8 0.28
9 -0.15

>  <PUBCHEM_EFFECTIVE_ROTOR_COUNT>  (1) 
4

>  <PUBCHEM_PHARMACOPHORE_FEATURES>  (1) 
7
1 1 hydrophobe
1 2 acceptor
1 3 acceptor
1 3 donor
1 4 acceptor
1 5 donor
6 6 7 9 10 11 12 rings

>  <PUBCHEM_HEAVY_ATOM_COUNT>  (1) 
14

>  <PUBCHEM_ATOM_DEF_STEREO_COUNT>  (1) 
0

>  <PUBCHEM_ATOM_UDEF_STEREO_COUNT>  (1) 
0

>  <PUBCHEM_BOND_DEF_STEREO_COUNT>  (1) 
0

>  <PUBCHEM_BOND_UDEF_STEREO_COUNT>  (1) 
0

>  <PUBCHEM_ISOTOPIC_ATOM_COUNT>  (1) 
0

>  <PUBCHEM_COMPONENT_COUNT>  (1) 
1

>  <PUBCHEM_CACTVS_TAUTO_COUNT>  (1) 
2

>  <PUBCHEM_CONFORMER_ID>  (1) 
0000AFD50000000F

>  <PUBCHEM_MMFF94_ENERGY>  (1) 
45.1296

>  <PUBCHEM_FEATURE_SELFOVERLAP>  (1) 
35.54

>  <PUBCHEM_SHAPE_FINGERPRINT>  (1) 
10219947 1 18336827502646409677
10922049 32 18412549794978206390
10967382 1 18338794516300670636
11132069 177 18410008849070401060
11471102 22 18262813877723238489
12251169 10 18334856146975021152
13380535 76 18341609339040042854
15309172 13 18410012143352671081
15502708 68 18339359665039990073
16945 1 18410282606207275756
17990270 104 18047752598870031035
18380122 1 18042124267440659917
193761 8 17905323284137101676
19591789 44 18266460902100531614
204376 136 18410855477392732368
20645477 56 18410568531355862208
20645477 70 18126838297213711965
21501502 16 18121497131560952524
21524375 3 18272929453186061237
2334 1 18121777493703082284
23402539 116 18272640273011920764
2748010 2 17905033760291081500
305870 269 18268427945186853113
33824 294 18337108965286415905
53812653 166 18341890801263843752
568465 68 18338814389093536625
58807428 26 18337655469826216962
7364860 26 18125721188529910815
81228 2 17833252499990408850
81539 233 18260546667244842813

>  <PUBCHEM_SHAPE_MULTIPOLES>  (1) 
271.47
5.95
2.6
0.75
0.19
2.13
-0.09
-3.05
-1.75
-0.13
0.17
-0.2
-0.06
0

>  <PUBCHEM_SHAPE_SELFOVERLAP>  (1) 
548.416

>  <PUBCHEM_SHAPE_VOLUME>  (1) 
162.6

>  <PUBCHEM_COORDINATE_TYPE>  (1) 
2
5
10

$$$$
