45026
     RDKit          3D

 21 22  0  0  1  0  0  0  0  0999 V2000
    0.0155    2.0974   -2.0245 O   0  0  0  0  0  0  0  0  0  0  0  0
    0.9274   -0.7263    0.6247 O   0  0  0  0  0  0  0  0  0  0  0  0
    1.1199   -4.3725    0.4901 O   0  0  0  0  0  0  0  0  0  0  0  0
   -0.6874   -3.9438   -1.5686 O   0  0  0  0  0  0  0  0  0  0  0  0
   -0.9004    0.8517   -0.2964 N   0  0  0  0  0  0  0  0  0  0  0  0
   -2.2525    0.8225   -0.8086 C   0  0  0  0  0  0  0  0  0  0  0  0
   -3.0472    2.0444   -0.3357 C   0  0  0  0  0  0  0  0  0  0  0  0
   -2.9588   -0.4821   -0.4246 C   0  0  0  0  0  0  0  0  0  0  0  0
   -3.3920    1.9779    1.1522 C   0  0  0  0  0  0  0  0  0  0  0  0
   -3.3038   -0.5444    1.0634 C   0  0  0  0  0  0  0  0  0  0  0  0
   -4.1040    0.6763    1.5075 C   0  0  0  0  0  0  0  0  0  0  0  0
    0.1319    1.4968   -0.9596 C   0  0  0  0  0  0  0  0  0  0  0  0
    1.4683    1.4123   -0.3161 C   0  0  0  0  0  0  0  0  0  0  0  0
    1.7971    0.3071    0.4417 C   0  0  0  0  0  0  0  0  0  0  0  0
    2.3474    2.4602   -0.5054 C   0  0  0  0  0  0  0  0  0  0  0  0
    1.4920   -2.0222    0.8126 C   0  0  0  0  0  0  0  0  0  0  0  0
    0.5186   -3.0868    0.3197 C   0  0  0  0  0  0  0  0  0  0  0  0
    3.0573    0.2467    1.0364 C   0  0  0  0  0  0  0  0  0  0  0  0
    3.6076    2.4002    0.0895 C   0  0  0  0  0  0  0  0  0  0  0  0
    3.9624    1.2936    0.8610 C   0  0  0  0  0  0  0  0  0  0  0  0
    0.2006   -2.9090   -1.1592 C   0  0  0  0  0  0  0  0  0  0  0  0
  1 12  2  0
  2 14  1  0
  2 16  1  0
  3 17  1  0
  4 21  1  0
  5  6  1  0
  5 12  1  0
  6  7  1  0
  6  8  1  0
  7  9  1  0
  8 10  1  0
  9 11  1  0
 10 11  1  0
 12 13  1  0
 13 14  2  0
 13 15  1  0
 14 18  1  0
 15 19  2  0
 16 17  1  0
 17 21  1  0
 18 20  2  0
 19 20  1  0
M  END
>  <PUBCHEM_COMPOUND_CID>  (1) 
45026

>  <PUBCHEM_CONFORMER_RMSD>  (1) 
0.8

>  <PUBCHEM_CONFORMER_DIVERSEORDER>  (1) 
3
56
335
405
316
296
463
462
57
222
138
338
345
69
170
312
427
23
464
8
136
439
390
2
248
274
470
293
85
77
369
158
351
399
250
325
228
70
29
430
246
333
438
398
358
461
396
372
304
84
297
100
147
155
116
306
193
95
452
76
269
203
188
39
28
394
374
88
156
122
289
387
118
381
258
177
457
414
35
75
348
102
279
354
198
309
34
59
140
308
298
145
268
283
370
127
108
10
205
265
404
11
448
195
61
262
180
422
428
473
451
107
71
356
323
471
169
87
415
259
224
1
437
72
429
125
192
282
89
36
402
375
80
435
295
337
267
4
232
91
249
40
234
141
260
189
92
392
242
328
447
149
302
62
14
179
175
37
121
51
360
239
98
190
431
163
130
270
231
218
210
434
178
344
315
305
456
273
359
332
119
407
65
284
115
291
444
264
105
280
441
134
183
16
68
157
216
164
383
365
106
187
406
153
423
182
326
225
320
288
197
25
46
347
144
468
161
339
257
93
256
19
154
329
401
81
204
276
18
376
151
409
459
261
410
334
5
217
373
33
146
403
368
313
31
364
391
174
301
299
432
317
202
208
165
199
349
318
99
281
176
380
286
321
213
27
207
424
220
83
13
466
440
243
397
378
41
200
32
240
400
74
196
393
58
460
43
395
152
143
433
17
363
133
419
103
64
215
352
442
110
101
142
254
385
371
20
219
233
386
206
150
357
50
47
126
247
379
319
49
227
211
129
251
30
252
472
135
97
137
454
201
235
255
104
162
52
167
327
388
341
67
168
113
413
60
114
226
271
139
343
82
21
445
54
241
128
184
292
303
96
253
418
310
24
229
330
223
336
342
173
48
73
450
443
331
324
78
411
55
449
340
26
300
181
412
421
244
191
420
294
453
287
367
285
63
311
131
22
446
117
159
6
66
148
185
120
171
237
123
7
455
94
12
426
366
467
230
263
111
112
436
109
382
458
42
425
9
377
272
277
278
214
346
38
90
469
172
355
160
86
212
79
275
307
132
353
245
238
166
361
408
266
290
45
209
44
53
416
186
15
221
194
384
322
314
124
465
362
236
350
389
417

>  <PUBCHEM_MMFF94_PARTIAL_CHARGES>  (1) 
23
1 -0.57
12 0.54
13 0.09
14 0.08
15 -0.15
16 0.28
17 0.28
18 -0.15
19 -0.15
2 -0.36
20 -0.15
21 0.28
3 -0.68
33 0.37
34 0.15
38 0.15
39 0.15
4 -0.68
40 0.15
43 0.4
44 0.4
5 -0.73
6 0.3

>  <PUBCHEM_EFFECTIVE_ROTOR_COUNT>  (1) 
8.2

>  <PUBCHEM_PHARMACOPHORE_FEATURES>  (1) 
9
1 1 acceptor
1 2 acceptor
1 3 acceptor
1 3 donor
1 4 acceptor
1 4 donor
1 5 donor
6 13 14 15 18 19 20 rings
6 6 7 8 9 10 11 rings

>  <PUBCHEM_HEAVY_ATOM_COUNT>  (1) 
21

>  <PUBCHEM_ATOM_DEF_STEREO_COUNT>  (1) 
0

>  <PUBCHEM_ATOM_UDEF_STEREO_COUNT>  (1) 
1

>  <PUBCHEM_BOND_DEF_STEREO_COUNT>  (1) 
0

>  <PUBCHEM_BOND_UDEF_STEREO_COUNT>  (1) 
0

>  <PUBCHEM_ISOTOPIC_ATOM_COUNT>  (1) 
0

>  <PUBCHEM_COMPONENT_COUNT>  (1) 
1

>  <PUBCHEM_CACTVS_TAUTO_COUNT>  (1) 
2

>  <PUBCHEM_CONFORMER_ID>  (1) 
0000AFE200000003

>  <PUBCHEM_MMFF94_ENERGY>  (1) 
48.9325

>  <PUBCHEM_FEATURE_SELFOVERLAP>  (1) 
45.681

>  <PUBCHEM_SHAPE_FINGERPRINT>  (1) 
10064457 181 18340771558456304288
104564 63 17690281934000745726
10906281 52 16967700007934900528
1100329 8 17546165663719972027
11578080 2 14637373202468875162
12035758 1 18411135802183345618
12553582 1 17691400806945687054
12715332 25 18410566306615134848
12788726 201 17691975181453937806
12841375 5 18126299535909556638
13533116 47 18194410987954941057
14178342 30 18334868212065689393
14866123 147 18337377362399616082
15003188 3 17688322187868453995
15309172 13 18409444821122620329
17138139 8 17483074475427092647
19591789 44 18336539435548890934
20157964 124 18267299842943346317
20261772 1 18118688961314153722
20645477 70 18188755159690623341
20739085 24 18187655673870015820
20775438 99 14671136430104911126
21731228 192 18339646736369656569
22620623 9 17764900243670679340
2748010 2 17830707908515192892
458136 41 18409456855958386208
576247 118 17404873552867383279
6287921 2 18340781363866569215
6438718 38 17696484248701490942
7097593 13 18125164831657685993
7364860 26 18268150851023803009
81228 2 17687164797045171232
84936 31 18057036909029815403

>  <PUBCHEM_SHAPE_MULTIPOLES>  (1) 
403.71
6.53
4.59
1.42
1.85
6.49
-0.23
-5.15
2.96
-1.34
-1.14
0.55
0.01
-0.68

>  <PUBCHEM_SHAPE_SELFOVERLAP>  (1) 
832.669

>  <PUBCHEM_SHAPE_VOLUME>  (1) 
229.6

>  <PUBCHEM_COORDINATE_TYPE>  (1) 
2
5
10

$$$$
