45034
     RDKit          3D

 14 15  0  0  0  0  0  0  0  0999 V2000
    4.4838    1.2709   -0.0510 Cl  0  0  0  0  0  0  0  0  0  0  0  0
   -1.4531   -1.8078   -0.3941 O   0  0  0  0  0  0  0  0  0  0  0  0
   -2.1406    0.2645    0.3868 N   0  0  0  0  0  0  0  0  0  0  0  0
    3.6051   -1.6285    0.2445 N   0  0  0  0  0  0  0  0  0  0  0  0
   -3.5500   -0.0455    0.4664 C   0  0  0  0  0  0  0  0  0  0  0  0
   -4.4189    0.0768   -0.7368 C   0  0  0  0  0  0  0  0  0  0  0  0
   -4.5651    1.0423    0.4026 C   0  0  0  0  0  0  0  0  0  0  0  0
   -1.1706   -0.6481   -0.0438 C   0  0  0  0  0  0  0  0  0  0  0  0
    0.2105   -0.1926   -0.0446 C   0  0  0  0  0  0  0  0  0  0  0  0
    1.2500   -1.1119    0.0984 C   0  0  0  0  0  0  0  0  0  0  0  0
    0.4956    1.1653   -0.1883 C   0  0  0  0  0  0  0  0  0  0  0  0
    2.5743   -0.6735    0.0968 C   0  0  0  0  0  0  0  0  0  0  0  0
    1.8199    1.6038   -0.1896 C   0  0  0  0  0  0  0  0  0  0  0  0
    2.8592    0.6843   -0.0473 C   0  0  0  0  0  0  0  0  0  0  0  0
  1 14  1  0
  2  8  2  0
  3  5  1  0
  3  8  1  0
  4 12  1  0
  5  6  1  0
  5  7  1  0
  6  7  1  0
  8  9  1  0
  9 10  2  0
  9 11  1  0
 10 12  1  0
 11 13  2  0
 12 14  2  0
 13 14  1  0
M  END
>  <PUBCHEM_COMPOUND_CID>  (1) 
45034

>  <PUBCHEM_CONFORMER_RMSD>  (1) 
0.6

>  <PUBCHEM_CONFORMER_DIVERSEORDER>  (1) 
1
3
6
5
2
4

>  <PUBCHEM_MMFF94_PARTIAL_CHARGES>  (1) 
25
1 -0.18
10 -0.15
11 -0.15
12 0.1
13 -0.15
14 0.18
15 0.1
16 0.1
17 0.1
18 0.1
19 0.1
2 -0.57
20 0.37
21 0.15
22 0.15
23 0.15
24 0.4
25 0.4
3 -0.58
4 -0.9
5 0.05
6 -0.2
7 -0.2
8 0.54
9 0.09

>  <PUBCHEM_EFFECTIVE_ROTOR_COUNT>  (1) 
3.6

>  <PUBCHEM_PHARMACOPHORE_FEATURES>  (1) 
5
1 2 acceptor
1 3 donor
1 4 cation
1 4 donor
6 9 10 11 12 13 14 rings

>  <PUBCHEM_HEAVY_ATOM_COUNT>  (1) 
14

>  <PUBCHEM_ATOM_DEF_STEREO_COUNT>  (1) 
0

>  <PUBCHEM_ATOM_UDEF_STEREO_COUNT>  (1) 
0

>  <PUBCHEM_BOND_DEF_STEREO_COUNT>  (1) 
0

>  <PUBCHEM_BOND_UDEF_STEREO_COUNT>  (1) 
0

>  <PUBCHEM_ISOTOPIC_ATOM_COUNT>  (1) 
0

>  <PUBCHEM_COMPONENT_COUNT>  (1) 
1

>  <PUBCHEM_CACTVS_TAUTO_COUNT>  (1) 
2

>  <PUBCHEM_CONFORMER_ID>  (1) 
0000AFEA00000001

>  <PUBCHEM_MMFF94_ENERGY>  (1) 
45.9102

>  <PUBCHEM_FEATURE_SELFOVERLAP>  (1) 
25.371

>  <PUBCHEM_SHAPE_FINGERPRINT>  (1) 
10219947 1 18411421682983910159
10980938 120 18408040701786951418
11089746 13 17846210094722516536
11471102 20 18408319982235859948
12346645 6 18413109459497956702
12500047 106 18270396212670981586
13380535 76 18341333370153682095
13675066 3 18040437706544529609
13922767 16 18411698768614853177
14144814 61 18412548704024884281
14325111 11 18411139147572160145
14897335 6 18341048609415888799
14993402 34 18272937123939486621
15196674 1 18410293584338823993
15442244 35 18339644417087336176
15536298 74 18341896285942160466
15775835 57 18411421747276537876
17834072 33 18272366516017217639
18186145 218 18040715848974797635
200 152 18201712960406476885
20645477 70 18410293575395734478
212847 35 18272933791256147625
23402539 116 17775282759751147389
23402655 69 18343579625475720733
23559900 14 17917996109657142672
34934 24 18411978100640220892
3545911 37 18411141376132711617
449060 50 18260833738543055437
449060 62 18411139151883081584
5104073 3 18409450297274255139
522135 26 18334577919204322926
69090 78 18413102875139161431
7832392 63 18341329010740511244

>  <PUBCHEM_SHAPE_MULTIPOLES>  (1) 
274.15
8.94
1.63
0.7
4.87
0.19
-0.02
-2.27
0.15
-1.08
-0.04
0.3
-0.02
-0.36

>  <PUBCHEM_SHAPE_SELFOVERLAP>  (1) 
566.121

>  <PUBCHEM_SHAPE_VOLUME>  (1) 
158.5

>  <PUBCHEM_COORDINATE_TYPE>  (1) 
2
5
10

$$$$
