45032
     RDKit          3D

 19 21  0  0  0  0  0  0  0  0999 V2000
    0.7593   -1.8140    0.2627 O   0  0  0  0  0  0  0  0  0  0  0  0
   -1.8381   -0.7880    0.1045 N   0  0  0  0  0  0  0  0  0  0  0  0
    0.1830    0.4525   -0.0298 N   0  0  0  0  0  0  0  0  0  0  0  0
   -2.0242    1.4093   -0.1734 N   0  0  0  0  0  0  0  0  0  0  0  0
    6.5609    0.6527   -0.1103 N   0  0  0  0  0  0  0  0  0  0  0  0
   -3.1856   -0.5377    0.0593 C   0  0  0  0  0  0  0  0  0  0  0  0
   -3.2757    0.8407   -0.1147 C   0  0  0  0  0  0  0  0  0  0  0  0
   -1.1867    0.4054   -0.0390 C   0  0  0  0  0  0  0  0  0  0  0  0
   -4.2993   -1.3730    0.1528 C   0  0  0  0  0  0  0  0  0  0  0  0
   -4.5444    1.4383   -0.2025 C   0  0  0  0  0  0  0  0  0  0  0  0
    2.5064   -0.2962    0.0585 C   0  0  0  0  0  0  0  0  0  0  0  0
    1.0594   -0.6341    0.1171 C   0  0  0  0  0  0  0  0  0  0  0  0
   -5.5541   -0.7612    0.0631 C   0  0  0  0  0  0  0  0  0  0  0  0
   -5.6766    0.6191   -0.1112 C   0  0  0  0  0  0  0  0  0  0  0  0
    3.3970   -1.2587   -0.3671 C   0  0  0  0  0  0  0  0  0  0  0  0
    2.9092    0.9690    0.4308 C   0  0  0  0  0  0  0  0  0  0  0  0
    5.1888    0.3311   -0.0522 C   0  0  0  0  0  0  0  0  0  0  0  0
    4.7542   -0.9414   -0.4231 C   0  0  0  0  0  0  0  0  0  0  0  0
    4.2664    1.2862    0.3746 C   0  0  0  0  0  0  0  0  0  0  0  0
  1 12  2  0
  2  6  1  0
  2  8  1  0
  3  8  1  0
  3 12  1  0
  4  7  1  0
  4  8  2  0
  5 17  1  0
  6  7  2  0
  6  9  1  0
  7 10  1  0
  9 13  2  0
 10 14  2  0
 11 12  1  0
 11 15  2  0
 11 16  1  0
 13 14  1  0
 15 18  1  0
 16 19  2  0
 17 18  2  0
 17 19  1  0
M  END
>  <PUBCHEM_COMPOUND_CID>  (1) 
45032

>  <PUBCHEM_CONFORMER_RMSD>  (1) 
0.6

>  <PUBCHEM_CONFORMER_DIVERSEORDER>  (1) 
1
2

>  <PUBCHEM_MMFF94_PARTIAL_CHARGES>  (1) 
31
1 -0.57
10 -0.15
11 0.09
12 0.54
13 -0.15
14 -0.15
15 -0.15
16 -0.15
17 0.1
18 -0.15
19 -0.15
2 0.03
20 0.27
21 0.15
22 0.37
23 0.15
24 0.15
25 0.15
26 0.15
27 0.15
28 0.15
29 0.15
3 -0.49
30 0.4
31 0.4
4 -0.57
5 -0.9
6 -0.15
7 0.23
8 0.25
9 -0.15

>  <PUBCHEM_EFFECTIVE_ROTOR_COUNT>  (1) 
3

>  <PUBCHEM_PHARMACOPHORE_FEATURES>  (1) 
8
1 1 acceptor
1 2 donor
1 3 donor
1 5 cation
1 5 donor
5 2 4 6 7 8 rings
6 11 15 16 17 18 19 rings
6 6 7 9 10 13 14 rings

>  <PUBCHEM_HEAVY_ATOM_COUNT>  (1) 
19

>  <PUBCHEM_ATOM_DEF_STEREO_COUNT>  (1) 
0

>  <PUBCHEM_ATOM_UDEF_STEREO_COUNT>  (1) 
0

>  <PUBCHEM_BOND_DEF_STEREO_COUNT>  (1) 
0

>  <PUBCHEM_BOND_UDEF_STEREO_COUNT>  (1) 
0

>  <PUBCHEM_ISOTOPIC_ATOM_COUNT>  (1) 
0

>  <PUBCHEM_COMPONENT_COUNT>  (1) 
1

>  <PUBCHEM_CACTVS_TAUTO_COUNT>  (1) 
8

>  <PUBCHEM_CONFORMER_ID>  (1) 
0000AFE800000001

>  <PUBCHEM_MMFF94_ENERGY>  (1) 
58.646

>  <PUBCHEM_FEATURE_SELFOVERLAP>  (1) 
40.738

>  <PUBCHEM_SHAPE_FINGERPRINT>  (1) 
10 15 18338788031718043600
10968037 39 18409166623949378415
11287383 113 18412826897535771922
11315181 36 18273217508511683345
11719270 70 18272929389690570758
12107183 9 17618221702435965881
12236239 1 18410011022313140959
12403259 415 18411972576927702200
12730499 353 18272375287037027906
12916748 109 18411984650549723864
13288520 33 18412544336755222703
13533116 47 13686029661771385332
1420 363 18335144202184351771
14251718 22 18410293618276302855
14251764 18 18186796985975271738
14341114 176 18412832369160596156
14528608 73 18411417323470746606
14933364 13 18412830183011894361
15196674 1 18410573972282419011
17834072 33 18202280316410807479
17834076 25 16805040722320524185
17844677 252 18342745112918891569
19489759 90 17530682109012109361
200 152 17988923362396249153
20645477 70 18130229251182566862
21267235 1 18336835268638072011
21709351 56 18334570265593915429
221357 26 18202846530829881368
22224240 67 13840265927495933736
23402539 116 18261107491421704087
23402655 69 18273494563908757590
23557571 272 18114463362145974821
23559900 14 18412257363624683657
239999 70 18272092673952071398
2916195 48 18340481253311533144
300161 21 17821722811024948531
3004659 81 18335423414293838326
34797466 226 17775012314123755196
351380 180 18408603669236733600
3545911 37 18412545414053600588
4073 2 18114187466506056290
4214541 1 18411700963538476057
42788 4 18410856559639789573
4325135 7 18412262860908184791
474229 33 18410012160490504603
5104073 3 18409449146333724587
542803 24 17095245812765780613
59755656 215 18411704257926247902
59755656 520 17749103417943079362
67856867 119 18114750459045290213
7495541 125 17418087771404322754
77779 3 18412826867312732233

>  <PUBCHEM_SHAPE_MULTIPOLES>  (1) 
365.22
15.15
1.53
0.64
2.88
0.1
0
-1.6
0.66
-0.27
-0.02
0.09
0
0.55

>  <PUBCHEM_SHAPE_SELFOVERLAP>  (1) 
811.232

>  <PUBCHEM_SHAPE_VOLUME>  (1) 
196.1

>  <PUBCHEM_COORDINATE_TYPE>  (1) 
2
5
10

$$$$
