45046
     RDKit          3D

 15 15  0  0  0  0  0  0  0  0999 V2000
    3.1397    2.5701   -0.4176 Cl  0  0  0  0  0  0  0  0  0  0  0  0
    2.6086   -2.8533   -0.0918 Cl  0  0  0  0  0  0  0  0  0  0  0  0
   -1.7818    1.3727    1.2128 O   0  0  0  0  0  0  0  0  0  0  0  0
   -2.2146   -0.7265    0.3281 N   0  0  0  0  0  0  0  0  0  0  0  0
    4.1302   -0.2812   -0.5308 N   0  0  0  0  0  0  0  0  0  0  0  0
    0.0466    0.1727    0.3672 C   0  0  0  0  0  0  0  0  0  0  0  0
    0.6062   -1.1027    0.2900 C   0  0  0  0  0  0  0  0  0  0  0  0
    0.8414    1.2975    0.1462 C   0  0  0  0  0  0  0  0  0  0  0  0
    2.7553   -0.1283   -0.2287 C   0  0  0  0  0  0  0  0  0  0  0  0
    2.1957    1.1470   -0.1516 C   0  0  0  0  0  0  0  0  0  0  0  0
    1.9606   -1.2532   -0.0079 C   0  0  0  0  0  0  0  0  0  0  0  0
   -1.3655    0.3297    0.6784 C   0  0  0  0  0  0  0  0  0  0  0  0
   -3.6426   -0.7108    0.5499 C   0  0  0  0  0  0  0  0  0  0  0  0
   -4.3484   -0.1478   -0.6008 C   0  0  0  0  0  0  0  0  0  0  0  0
   -4.9314    0.3140   -1.5432 C   0  0  0  0  0  0  0  0  0  0  0  0
  1 10  1  0
  2 11  1  0
  3 12  2  0
  4 12  1  0
  4 13  1  0
  5  9  1  0
  6  7  2  0
  6  8  1  0
  6 12  1  0
  7 11  1  0
  8 10  2  0
  9 10  1  0
  9 11  2  0
 13 14  1  0
 14 15  3  0
M  END
>  <PUBCHEM_COMPOUND_CID>  (1) 
45046

>  <PUBCHEM_CONFORMER_RMSD>  (1) 
0.6

>  <PUBCHEM_CONFORMER_DIVERSEORDER>  (1) 
1
5
4
3
2

>  <PUBCHEM_MMFF94_PARTIAL_CHARGES>  (1) 
21
1 -0.18
10 0.18
11 0.18
12 0.54
13 0.5
14 -0.2
15 -0.18
16 0.15
17 0.15
18 0.37
2 -0.18
21 0.4
22 0.4
23 0.18
3 -0.57
4 -0.73
5 -0.9
6 0.09
7 -0.15
8 -0.15
9 0.1

>  <PUBCHEM_EFFECTIVE_ROTOR_COUNT>  (1) 
3

>  <PUBCHEM_PHARMACOPHORE_FEATURES>  (1) 
6
1 15 hydrophobe
1 3 acceptor
1 4 donor
1 5 cation
1 5 donor
6 6 7 8 9 10 11 rings

>  <PUBCHEM_HEAVY_ATOM_COUNT>  (1) 
15

>  <PUBCHEM_ATOM_DEF_STEREO_COUNT>  (1) 
0

>  <PUBCHEM_ATOM_UDEF_STEREO_COUNT>  (1) 
0

>  <PUBCHEM_BOND_DEF_STEREO_COUNT>  (1) 
0

>  <PUBCHEM_BOND_UDEF_STEREO_COUNT>  (1) 
0

>  <PUBCHEM_ISOTOPIC_ATOM_COUNT>  (1) 
0

>  <PUBCHEM_COMPONENT_COUNT>  (1) 
1

>  <PUBCHEM_CACTVS_TAUTO_COUNT>  (1) 
3

>  <PUBCHEM_CONFORMER_ID>  (1) 
0000AFF600000001

>  <PUBCHEM_MMFF94_ENERGY>  (1) 
41.2078

>  <PUBCHEM_FEATURE_SELFOVERLAP>  (1) 
30.446

>  <PUBCHEM_SHAPE_FINGERPRINT>  (1) 
11471102 20 18410012156527431028
13760787 5 18202007655123745529
14251717 144 18411703188189019646
14415576 193 18187929524910082477
14576447 43 18273208703448996343
15442244 35 18124323704929692648
16945 1 18337409179168593890
18186145 218 17822013082237041499
18619055 16 18341890814312327787
18915474 69 17703504480342180839
200 152 18202281394648065201
20233049 118 14057001619890088078
20281475 54 18201719548828540115
20645477 56 17676487251060662519
20645477 70 18411986870641945871
20671657 53 18338517413548075695
21499 59 18193560184169828852
21501502 16 18270127794479357441
21501925 9 18340482262475970890
221490 88 18335995258233200754
23402539 116 17704075070863183649
23402655 69 18410854365275602365
23557571 272 17240492433320522903
23559900 14 18410008845160582002
23598291 2 18055644914455979634
2748010 2 17976282419146167250
3060560 45 18411139143325062318
4072396 5 18261376850817860474
5281201 14 18114181913350180151
53917941 68 17839168959633863076
57096353 35 18131078176869062077
58051976 378 18342460343849698110
602551 16 15123501536476344253
603831 33 17989207074892931677
633830 44 17985578703405916328
7364860 26 18341619213560207410
7615 1 18060145288837081457
81539 233 18262238936257789900

>  <PUBCHEM_SHAPE_MULTIPOLES>  (1) 
296.6
8.43
2.3
0.97
9.23
0.37
-0.1
-0.26
-3.26
-3.3
-0.13
0.98
-0.17
0.05

>  <PUBCHEM_SHAPE_SELFOVERLAP>  (1) 
597.524

>  <PUBCHEM_SHAPE_VOLUME>  (1) 
175.4

>  <PUBCHEM_COORDINATE_TYPE>  (1) 
2
5
10

$$$$
