45042
     RDKit          3D

 15 15  0  0  0  0  0  0  0  0999 V2000
    2.2119   -2.9838    0.0269 Cl  0  0  0  0  0  0  0  0  0  0  0  0
    3.4258    2.3303   -0.2695 Cl  0  0  0  0  0  0  0  0  0  0  0  0
   -1.7124    1.7530    0.8581 O   0  0  0  0  0  0  0  0  0  0  0  0
   -2.3076   -0.2937   -0.0556 N   0  0  0  0  0  0  0  0  0  0  0  0
    4.0698   -0.6207   -0.2693 N   0  0  0  0  0  0  0  0  0  0  0  0
   -3.7358   -0.1029    0.0190 C   0  0  0  0  0  0  0  0  0  0  0  0
   -4.4372   -1.4364    0.2427 C   0  0  0  0  0  0  0  0  0  0  0  0
   -4.2496    0.5869   -1.2387 C   0  0  0  0  0  0  0  0  0  0  0  0
    0.0327    0.3281    0.2079 C   0  0  0  0  0  0  0  0  0  0  0  0
   -1.4041    0.6657    0.3772 C   0  0  0  0  0  0  0  0  0  0  0  0
    0.9456    1.3526    0.0665 C   0  0  0  0  0  0  0  0  0  0  0  0
    0.4084   -0.9992    0.1973 C   0  0  0  0  0  0  0  0  0  0  0  0
    2.7005   -0.2989   -0.1072 C   0  0  0  0  0  0  0  0  0  0  0  0
    1.7574   -1.3163    0.0378 C   0  0  0  0  0  0  0  0  0  0  0  0
    2.2947    1.0355   -0.0929 C   0  0  0  0  0  0  0  0  0  0  0  0
  1 14  1  0
  2 15  1  0
  3 10  2  0
  4  6  1  0
  4 10  1  0
  5 13  1  0
  6  7  1  0
  6  8  1  0
  9 10  1  0
  9 11  2  0
  9 12  1  0
 11 15  1  0
 12 14  2  0
 13 14  1  0
 13 15  2  0
M  END
>  <PUBCHEM_COMPOUND_CID>  (1) 
45042

>  <PUBCHEM_CONFORMER_RMSD>  (1) 
0.6

>  <PUBCHEM_CONFORMER_DIVERSEORDER>  (1) 
1
3
4
2

>  <PUBCHEM_MMFF94_PARTIAL_CHARGES>  (1) 
18
1 -0.18
10 0.54
11 -0.15
12 -0.15
13 0.1
14 0.18
15 0.18
17 0.37
2 -0.18
24 0.15
25 0.15
26 0.4
27 0.4
3 -0.57
4 -0.73
5 -0.9
6 0.3
9 0.09

>  <PUBCHEM_EFFECTIVE_ROTOR_COUNT>  (1) 
3

>  <PUBCHEM_PHARMACOPHORE_FEATURES>  (1) 
6
1 3 acceptor
1 4 donor
1 5 cation
1 5 donor
3 6 7 8 hydrophobe
6 9 11 12 13 14 15 rings

>  <PUBCHEM_HEAVY_ATOM_COUNT>  (1) 
15

>  <PUBCHEM_ATOM_DEF_STEREO_COUNT>  (1) 
0

>  <PUBCHEM_ATOM_UDEF_STEREO_COUNT>  (1) 
0

>  <PUBCHEM_BOND_DEF_STEREO_COUNT>  (1) 
0

>  <PUBCHEM_BOND_UDEF_STEREO_COUNT>  (1) 
0

>  <PUBCHEM_ISOTOPIC_ATOM_COUNT>  (1) 
0

>  <PUBCHEM_COMPONENT_COUNT>  (1) 
1

>  <PUBCHEM_CACTVS_TAUTO_COUNT>  (1) 
3

>  <PUBCHEM_CONFORMER_ID>  (1) 
0000AFF200000001

>  <PUBCHEM_MMFF94_ENERGY>  (1) 
42.6381

>  <PUBCHEM_FEATURE_SELFOVERLAP>  (1) 
30.446

>  <PUBCHEM_SHAPE_FINGERPRINT>  (1) 
11471102 20 18410852183147424748
11806522 49 18411139121544114354
12553582 1 17688035210380105227
13296908 3 18409165515684305099
13380535 76 18335422434587244186
13705890 14 18260266364926105105
13760787 5 18201720678304562693
13862211 1 18337392635350760514
14178342 30 18125151646086403834
14251717 144 18411136935447835326
14252887 29 17560808714401384886
14415576 193 18260829319016556796
14576447 43 18342168968841618431
15375462 189 18060136570227569387
15442244 35 18052260591853527465
15477762 27 18410856529817955958
15757776 16 18335137557790920946
16945 1 18337402547712643562
18186145 218 17967248672598323329
200 152 18272928310940973189
20281475 54 18343581824620172123
20645477 56 17822569418236479597
20645477 70 18413388730866541143
21267235 1 18341061760616603959
21499 59 18265050408796330524
21501502 16 18269843012420104761
21501925 9 18339914905843775874
221490 88 18408329882004030723
2255824 54 18410298008286773862
23402655 69 18411698785831782197
23557571 272 17385441012592334229
23559900 14 18338508647456573178
25610 137 18340773731888921961
2748010 2 18120111704107643482
2871803 45 18410573976603766687
3060560 45 18409168835715039972
3071541 37 18334581269674459332
33824 294 18409166640501805450
5104073 3 18409731776825533921
57096353 35 18272373108982291437
58051976 100 18339929195236990325
58051976 378 18341892974248374198
581208 293 18411978083159697424
603831 33 18060132163327457645
7364860 26 18413389813525171714
7832392 63 17981051816650509496
81539 233 18334011739577854988
9709674 26 18408046195351433651

>  <PUBCHEM_SHAPE_MULTIPOLES>  (1) 
296.6
8.04
2.47
0.78
6.92
0.98
-0.09
0.22
-1.46
-2.41
0.05
0.48
-0.14
0.11

>  <PUBCHEM_SHAPE_SELFOVERLAP>  (1) 
594.237

>  <PUBCHEM_SHAPE_VOLUME>  (1) 
178.1

>  <PUBCHEM_COORDINATE_TYPE>  (1) 
2
5
10

$$$$
