45043
     RDKit          3D

 13 13  0  0  0  0  0  0  0  0999 V2000
    1.8523    2.8759   -0.1487 Cl  0  0  0  0  0  0  0  0  0  0  0  0
    2.5424   -2.5267    0.2195 Cl  0  0  0  0  0  0  0  0  0  0  0  0
   -2.6103   -1.4544   -0.5628 O   0  0  0  0  0  0  0  0  0  0  0  0
   -2.9265    0.6632    0.3277 N   0  0  0  0  0  0  0  0  0  0  0  0
    3.4791    0.3417    0.0860 N   0  0  0  0  0  0  0  0  0  0  0  0
   -0.6883   -0.2017   -0.0782 C   0  0  0  0  0  0  0  0  0  0  0  0
    0.1555   -1.3072    0.0304 C   0  0  0  0  0  0  0  0  0  0  0  0
   -0.1499    1.0840   -0.1324 C   0  0  0  0  0  0  0  0  0  0  0  0
    2.0759    0.1588    0.0308 C   0  0  0  0  0  0  0  0  0  0  0  0
    1.2323    1.2641   -0.0779 C   0  0  0  0  0  0  0  0  0  0  0  0
    1.5375   -1.1269    0.0850 C   0  0  0  0  0  0  0  0  0  0  0  0
   -2.1293   -0.3897   -0.1361 C   0  0  0  0  0  0  0  0  0  0  0  0
   -4.3708    0.6189    0.3566 C   0  0  0  0  0  0  0  0  0  0  0  0
  1 10  1  0
  2 11  1  0
  3 12  2  0
  4 12  1  0
  4 13  1  0
  5  9  1  0
  6  7  2  0
  6  8  1  0
  6 12  1  0
  7 11  1  0
  8 10  2  0
  9 10  1  0
  9 11  2  0
M  END
>  <PUBCHEM_COMPOUND_CID>  (1) 
45043

>  <PUBCHEM_CONFORMER_RMSD>  (1) 
0.6

>  <PUBCHEM_CONFORMER_DIVERSEORDER>  (1) 
1

>  <PUBCHEM_MMFF94_PARTIAL_CHARGES>  (1) 
18
1 -0.18
10 0.18
11 0.18
12 0.54
13 0.3
14 0.15
15 0.15
16 0.37
17 0.4
18 0.4
2 -0.18
3 -0.57
4 -0.73
5 -0.9
6 0.09
7 -0.15
8 -0.15
9 0.1

>  <PUBCHEM_EFFECTIVE_ROTOR_COUNT>  (1) 
2

>  <PUBCHEM_PHARMACOPHORE_FEATURES>  (1) 
5
1 3 acceptor
1 4 donor
1 5 cation
1 5 donor
6 6 7 8 9 10 11 rings

>  <PUBCHEM_HEAVY_ATOM_COUNT>  (1) 
13

>  <PUBCHEM_ATOM_DEF_STEREO_COUNT>  (1) 
0

>  <PUBCHEM_ATOM_UDEF_STEREO_COUNT>  (1) 
0

>  <PUBCHEM_BOND_DEF_STEREO_COUNT>  (1) 
0

>  <PUBCHEM_BOND_UDEF_STEREO_COUNT>  (1) 
0

>  <PUBCHEM_ISOTOPIC_ATOM_COUNT>  (1) 
0

>  <PUBCHEM_COMPONENT_COUNT>  (1) 
1

>  <PUBCHEM_CACTVS_TAUTO_COUNT>  (1) 
3

>  <PUBCHEM_CONFORMER_ID>  (1) 
0000AFF300000001

>  <PUBCHEM_MMFF94_ENERGY>  (1) 
40.0946

>  <PUBCHEM_FEATURE_SELFOVERLAP>  (1) 
25.371

>  <PUBCHEM_SHAPE_FINGERPRINT>  (1) 
10130415 120 18262516966328143291
10465860 228 18412270536057232849
10967382 1 18410573950802268780
10980938 120 18410577266517021299
11471102 20 18409163277668681917
12251169 10 18411982455631479585
12346645 6 18342459214041119215
12932764 1 17531234072233446199
13140716 1 18192709162365115824
13380535 76 17906729564051706356
13380536 305 18337116782042810492
14144814 61 18341333301697559707
14178342 30 18269254902395438787
14325111 11 18267304420502335757
14648413 74 18335706082416454003
15442244 35 18268431231037067353
15501101 241 18187366514779444885
15775835 57 18340774822647032781
16945 1 18408879659445274700
193761 8 17472698508670231918
20645477 70 18337947883995199767
20871998 22 18053665772357341774
21501502 16 18266739258714317743
21524375 3 17981886655287450684
2334 1 17832424576604241900
23402655 69 18341885252635686965
23463225 33 18339360760272630742
23552423 10 18339078297516583199
241688 4 18121217567828442296
25 1 18334297616827693084
2748010 2 18121486965283393364
3071541 12 18338802320362021820
528886 8 18411695499923136443
53812653 166 18341889714600149232
54173680 148 17400077474730961546
63268167 104 18410577258027359201
7364860 26 18413108368375829244
7832392 63 18341894082481564797
84936 182 18057603372224891529

>  <PUBCHEM_SHAPE_MULTIPOLES>  (1) 
255.44
5.73
2.56
0.65
5.52
0.61
0
-0.08
-0.59
-2.44
0.06
0.08
-0.02
-0.4

>  <PUBCHEM_SHAPE_SELFOVERLAP>  (1) 
514.146

>  <PUBCHEM_SHAPE_VOLUME>  (1) 
153.1

>  <PUBCHEM_COORDINATE_TYPE>  (1) 
2
5
10

$$$$
