45049
     RDKit          3D

 14 14  0  0  1  0  0  0  0  0999 V2000
   -0.2500   -1.2692   -1.7874 O   0  0  0  0  0  0  0  0  0  0  0  0
   -2.2898   -0.7950    0.2562 N   0  0  0  0  0  0  0  0  0  0  0  0
   -1.0089   -1.4623    0.4943 C   0  0  0  0  0  0  0  0  0  0  0  0
   -2.1667    0.6345    0.3323 C   0  0  0  0  0  0  0  0  0  0  0  0
   -3.4948    1.3446    0.0991 C   0  0  0  0  0  0  0  0  0  0  0  0
   -0.0487   -1.0112   -0.6010 C   0  0  0  0  0  0  0  0  0  0  0  0
   -1.2011   -2.9721    0.4377 C   0  0  0  0  0  0  0  0  0  0  0  0
    1.1815   -0.2497   -0.2335 C   0  0  0  0  0  0  0  0  0  0  0  0
   -3.3693    2.8605    0.1564 C   0  0  0  0  0  0  0  0  0  0  0  0
    1.7608   -0.4857    0.9922 C   0  0  0  0  0  0  0  0  0  0  0  0
    1.6886    0.6580   -1.1348 C   0  0  0  0  0  0  0  0  0  0  0  0
    2.9105    0.2255    1.3357 C   0  0  0  0  0  0  0  0  0  0  0  0
    2.8384    1.3692   -0.7912 C   0  0  0  0  0  0  0  0  0  0  0  0
    3.4493    1.1529    0.4440 C   0  0  0  0  0  0  0  0  0  0  0  0
  1  6  2  0
  2  3  1  0
  2  4  1  0
  3  6  1  0
  3  7  1  0
  4  5  1  0
  5  9  1  0
  6  8  1  0
  8 10  2  0
  8 11  1  0
 10 12  1  0
 11 13  2  0
 12 14  2  0
 13 14  1  0
M  END
>  <PUBCHEM_COMPOUND_CID>  (1) 
45049

>  <PUBCHEM_CONFORMER_RMSD>  (1) 
0.6

>  <PUBCHEM_CONFORMER_DIVERSEORDER>  (1) 
1
39
102
55
96
73
41
92
112
50
17
62
68
114
94
13
101
74
98
69
38
117
86
63
34
51
88
48
14
42
53
56
108
115
28
99
107
97
29
58
67
103
81
57
100
105
87
83
5
76
52
111
70
10
85
89
61
35
93
36
54
118
49
113
82
16
78
40
95
79
109
104
12
30
23
65
77
46
26
9
116
91
43
19
20
45
64
6
59
25
3
31
33
32
90
75
110
7
71
37
15
84
80
18
8
72
106
47
21
24
27
22
66
4
44
2
60
11

>  <PUBCHEM_MMFF94_PARTIAL_CHARGES>  (1) 
17
1 -0.57
10 -0.15
11 -0.15
12 -0.15
13 -0.15
14 -0.15
18 0.36
2 -0.9
27 0.15
28 0.15
29 0.15
3 0.33
30 0.15
31 0.15
4 0.27
6 0.42
8 0.09

>  <PUBCHEM_EFFECTIVE_ROTOR_COUNT>  (1) 
5

>  <PUBCHEM_PHARMACOPHORE_FEATURES>  (1) 
5
1 1 acceptor
1 2 cation
1 2 donor
1 9 hydrophobe
6 8 10 11 12 13 14 rings

>  <PUBCHEM_HEAVY_ATOM_COUNT>  (1) 
14

>  <PUBCHEM_ATOM_DEF_STEREO_COUNT>  (1) 
0

>  <PUBCHEM_ATOM_UDEF_STEREO_COUNT>  (1) 
1

>  <PUBCHEM_BOND_DEF_STEREO_COUNT>  (1) 
0

>  <PUBCHEM_BOND_UDEF_STEREO_COUNT>  (1) 
0

>  <PUBCHEM_ISOTOPIC_ATOM_COUNT>  (1) 
0

>  <PUBCHEM_COMPONENT_COUNT>  (1) 
1

>  <PUBCHEM_CACTVS_TAUTO_COUNT>  (1) 
2

>  <PUBCHEM_CONFORMER_ID>  (1) 
0000AFF900000001

>  <PUBCHEM_MMFF94_ENERGY>  (1) 
25.5882

>  <PUBCHEM_FEATURE_SELFOVERLAP>  (1) 
25.371

>  <PUBCHEM_SHAPE_FINGERPRINT>  (1) 
11471102 22 15141233386499464460
12138202 97 16845003632363292030
12400797 292 11527649921505168938
124424 183 17632861936647707242
12932764 1 17344919739821911030
13294875 104 18050014289677375167
13538477 17 18116710905541398714
13571099 52 18270115708741819713
13764800 53 18270693063825628569
13839132 238 18411430500588815775
14178342 30 18189319325336229978
14787075 74 15951347244316538318
15276787 5 16153710860633994713
15775835 57 18334860510693585393
15852999 172 18201442441242589163
15906896 17 18340761654256607199
16945 1 18266186217029213963
18186145 218 17060345110408464129
201361 129 17967817180271275656
20510252 161 18341059604927734385
20671657 1 17979360759530067343
21452121 199 10159117386283944943
21524375 3 18270956852269451789
21947302 44 18058176033277989175
23402539 116 18269265936878611063
23419403 2 16404471873413076570
305870 269 18264204716924640755
568465 68 13912321295764862656
6333272 397 18335707105193871633
7364860 26 17764306146398070995
81228 2 18053397757908376763

>  <PUBCHEM_SHAPE_MULTIPOLES>  (1) 
277.26
5.84
2.68
1.21
1.06
0.48
-0.23
-4.99
1.21
2.72
0.15
-0.72
0.15
-0.29

>  <PUBCHEM_SHAPE_SELFOVERLAP>  (1) 
558.615

>  <PUBCHEM_SHAPE_VOLUME>  (1) 
163.6

>  <PUBCHEM_COORDINATE_TYPE>  (1) 
2
5
10

$$$$
