45045
     RDKit          3D

 15 15  0  0  0  0  0  0  0  0999 V2000
   -1.9116   -3.0509   -0.0568 Cl  0  0  0  0  0  0  0  0  0  0  0  0
   -3.6651    2.1159    0.1104 Cl  0  0  0  0  0  0  0  0  0  0  0  0
    1.6244    2.0152    0.4539 O   0  0  0  0  0  0  0  0  0  0  0  0
    2.2650    0.0952   -0.6794 N   0  0  0  0  0  0  0  0  0  0  0  0
   -4.0128   -0.8841    0.0542 N   0  0  0  0  0  0  0  0  0  0  0  0
    3.6648    0.4066   -0.7674 C   0  0  0  0  0  0  0  0  0  0  0  0
    4.4526   -0.1191    0.4265 C   0  0  0  0  0  0  0  0  0  0  0  0
   -0.0614    0.4603   -0.0347 C   0  0  0  0  0  0  0  0  0  0  0  0
    1.3449    0.9383   -0.0663 C   0  0  0  0  0  0  0  0  0  0  0  0
    4.3799   -1.6337    0.5584 C   0  0  0  0  0  0  0  0  0  0  0  0
   -1.0800    1.3893    0.0161 C   0  0  0  0  0  0  0  0  0  0  0  0
   -0.3038   -0.8978   -0.0572 C   0  0  0  0  0  0  0  0  0  0  0  0
   -2.6724   -0.4281    0.0240 C   0  0  0  0  0  0  0  0  0  0  0  0
   -1.6241   -1.3469   -0.0278 C   0  0  0  0  0  0  0  0  0  0  0  0
   -2.4003    0.9398    0.0461 C   0  0  0  0  0  0  0  0  0  0  0  0
  1 14  1  0
  2 15  1  0
  3  9  2  0
  4  6  1  0
  4  9  1  0
  5 13  1  0
  6  7  1  0
  7 10  1  0
  8  9  1  0
  8 11  2  0
  8 12  1  0
 11 15  1  0
 12 14  2  0
 13 14  1  0
 13 15  2  0
M  END
>  <PUBCHEM_COMPOUND_CID>  (1) 
45045

>  <PUBCHEM_CONFORMER_RMSD>  (1) 
0.6

>  <PUBCHEM_CONFORMER_DIVERSEORDER>  (1) 
3
6
8
5
4
7
9
1
2

>  <PUBCHEM_MMFF94_PARTIAL_CHARGES>  (1) 
18
1 -0.18
11 -0.15
12 -0.15
13 0.1
14 0.18
15 0.18
2 -0.18
20 0.37
24 0.15
25 0.15
26 0.4
27 0.4
3 -0.57
4 -0.73
5 -0.9
6 0.3
8 0.09
9 0.54

>  <PUBCHEM_EFFECTIVE_ROTOR_COUNT>  (1) 
4

>  <PUBCHEM_PHARMACOPHORE_FEATURES>  (1) 
6
1 10 hydrophobe
1 3 acceptor
1 4 donor
1 5 cation
1 5 donor
6 8 11 12 13 14 15 rings

>  <PUBCHEM_HEAVY_ATOM_COUNT>  (1) 
15

>  <PUBCHEM_ATOM_DEF_STEREO_COUNT>  (1) 
0

>  <PUBCHEM_ATOM_UDEF_STEREO_COUNT>  (1) 
0

>  <PUBCHEM_BOND_DEF_STEREO_COUNT>  (1) 
0

>  <PUBCHEM_BOND_UDEF_STEREO_COUNT>  (1) 
0

>  <PUBCHEM_ISOTOPIC_ATOM_COUNT>  (1) 
0

>  <PUBCHEM_COMPONENT_COUNT>  (1) 
1

>  <PUBCHEM_CACTVS_TAUTO_COUNT>  (1) 
3

>  <PUBCHEM_CONFORMER_ID>  (1) 
0000AFF500000003

>  <PUBCHEM_MMFF94_ENERGY>  (1) 
37.9739

>  <PUBCHEM_FEATURE_SELFOVERLAP>  (1) 
30.446

>  <PUBCHEM_SHAPE_FINGERPRINT>  (1) 
10062212 137 18336257959907607106
10608611 8 18271243936131222328
10616163 171 18338521940781651102
12500047 106 18411695469942865204
13380535 76 18342459184229497391
13690532 89 18408322189669695479
13760787 19 18333740117620150836
13862211 1 18340205306264057575
14965852 173 18339080496439540420
15042514 8 18337397162067020563
15196674 1 18410011001313233538
15375358 24 17989487386007254476
15442244 35 18409449197973804868
16945 1 18338515365186071137
17804303 29 18412548716788648620
17859628 97 18189896413815834170
19422 9 18113343019984614036
20281475 54 18335138726311909542
20510252 161 18273220789713814249
20711985 365 18411703231091271877
21478907 32 18194960979686315191
21501502 16 18266464376518084084
21524375 3 18262520286917994605
21665056 4 18407476656960144271
22485316 2 18408884036407443328
23402539 116 18343576361537654031
23463225 33 18335421240670803238
23559900 14 18272375227160342924
23598291 2 17821739312247290636
2748010 2 17764304346922558655
3084891 72 18197777708900108041
5104073 3 18410857655189059176
54173680 148 18193841663763435491
559249 180 18189047612682987146
573450 72 18335695027386957394
57426455 114 18343577434768034664
58051976 100 18186806846349875188
5902787 121 18341895242449769376
6430166 295 18336547105748785805
74978 22 18410290354243862056
81228 2 18118960545471824449
8809292 202 18337394966631525643
9709674 26 18343308063178235774

>  <PUBCHEM_SHAPE_MULTIPOLES>  (1) 
296.6
8.08
2.55
0.72
6.89
1.28
0.03
0.48
-0.64
-1.98
-0.15
0.35
-0.01
-0.41

>  <PUBCHEM_SHAPE_SELFOVERLAP>  (1) 
591.971

>  <PUBCHEM_SHAPE_VOLUME>  (1) 
178.1

>  <PUBCHEM_COORDINATE_TYPE>  (1) 
2
5
10

$$$$
