45044
     RDKit          3D

 15 15  0  0  0  0  0  0  0  0999 V2000
    3.0719   -2.6422    0.3249 Cl  0  0  0  0  0  0  0  0  0  0  0  0
    2.7235    2.8005    0.0897 Cl  0  0  0  0  0  0  0  0  0  0  0  0
   -1.8611   -1.2488   -1.1034 O   0  0  0  0  0  0  0  0  0  0  0  0
   -2.1851    0.8516   -0.1761 N   0  0  0  0  0  0  0  0  0  0  0  0
    4.1674    0.1703    0.4382 N   0  0  0  0  0  0  0  0  0  0  0  0
    0.0394   -0.1260   -0.3122 C   0  0  0  0  0  0  0  0  0  0  0  0
    0.6467    1.1276   -0.2394 C   0  0  0  0  0  0  0  0  0  0  0  0
    0.8010   -1.2815   -0.1361 C   0  0  0  0  0  0  0  0  0  0  0  0
   -1.3880   -0.2289   -0.5717 C   0  0  0  0  0  0  0  0  0  0  0  0
    2.7775    0.0704    0.1857 C   0  0  0  0  0  0  0  0  0  0  0  0
    2.1700   -1.1832    0.1131 C   0  0  0  0  0  0  0  0  0  0  0  0
    2.0159    1.2257    0.0092 C   0  0  0  0  0  0  0  0  0  0  0  0
   -3.6201    0.8894   -0.3439 C   0  0  0  0  0  0  0  0  0  0  0  0
   -4.2685    0.3152    0.8717 C   0  0  0  0  0  0  0  0  0  0  0  0
   -5.0905   -0.7401    0.8502 C   0  0  0  0  0  0  0  0  0  0  0  0
  1 11  1  0
  2 12  1  0
  3  9  2  0
  4  9  1  0
  4 13  1  0
  5 10  1  0
  6  7  2  0
  6  8  1  0
  6  9  1  0
  7 12  1  0
  8 11  2  0
 10 11  1  0
 10 12  2  0
 13 14  1  0
 14 15  2  0
M  END
>  <PUBCHEM_COMPOUND_CID>  (1) 
45044

>  <PUBCHEM_CONFORMER_RMSD>  (1) 
0.6

>  <PUBCHEM_CONFORMER_DIVERSEORDER>  (1) 
1
8
7
6
11
9
10
3
5
4
2

>  <PUBCHEM_MMFF94_PARTIAL_CHARGES>  (1) 
23
1 -0.18
10 0.1
11 0.18
12 0.18
13 0.44
14 -0.29
15 -0.3
16 0.15
17 0.15
18 0.37
2 -0.18
21 0.15
22 0.4
23 0.4
24 0.15
25 0.15
3 -0.57
4 -0.73
5 -0.9
6 0.09
7 -0.15
8 -0.15
9 0.54

>  <PUBCHEM_EFFECTIVE_ROTOR_COUNT>  (1) 
4

>  <PUBCHEM_PHARMACOPHORE_FEATURES>  (1) 
6
1 15 hydrophobe
1 3 acceptor
1 4 donor
1 5 cation
1 5 donor
6 6 7 8 10 11 12 rings

>  <PUBCHEM_HEAVY_ATOM_COUNT>  (1) 
15

>  <PUBCHEM_ATOM_DEF_STEREO_COUNT>  (1) 
0

>  <PUBCHEM_ATOM_UDEF_STEREO_COUNT>  (1) 
0

>  <PUBCHEM_BOND_DEF_STEREO_COUNT>  (1) 
0

>  <PUBCHEM_BOND_UDEF_STEREO_COUNT>  (1) 
0

>  <PUBCHEM_ISOTOPIC_ATOM_COUNT>  (1) 
0

>  <PUBCHEM_COMPONENT_COUNT>  (1) 
1

>  <PUBCHEM_CACTVS_TAUTO_COUNT>  (1) 
3

>  <PUBCHEM_CONFORMER_ID>  (1) 
0000AFF400000001

>  <PUBCHEM_MMFF94_ENERGY>  (1) 
41.0869

>  <PUBCHEM_FEATURE_SELFOVERLAP>  (1) 
30.446

>  <PUBCHEM_SHAPE_FINGERPRINT>  (1) 
10980938 120 18413669106115125132
11471102 20 18338227181074811996
12032990 46 18263084310012009191
12251169 10 18412824689938386583
12390115 104 17835818760494446920
12507560 40 18334576798618882877
12644460 14 18408609158199773864
13140716 1 18265889349459251584
13675066 3 18337102384858604145
14252887 29 18260831471011170546
15375462 189 18413383224559971594
15442244 35 18269552732696945160
16945 1 18337093627963522276
17844478 74 17968093084385279309
17959699 21 10447931659525310075
18186145 218 18273213105616213045
18785283 64 18187928438879650172
20233049 118 17060339612881987264
20339313 130 18269556035785388566
20559304 39 18411984637401357164
20645477 70 18266444435101038623
20871998 22 17983013350042967502
21041028 32 18196086651700720264
21065198 57 18335423426972745665
21065199 12 18334017194466071265
21501502 16 18269828881856206263
21637258 2 15068885444504568168
22854114 111 18411419548348546097
23402539 116 13406787822629797319
23557571 272 16950556667305185989
23559900 14 17748832891016697767
2748010 2 17974847582352441182
31174 14 18334010579667809164
42 15 18333735693518947155
474 4 18266174118249051872
5104073 3 18338515218846123025
6049 1 17822566110436383165
7364860 26 18413668011478732860

>  <PUBCHEM_SHAPE_MULTIPOLES>  (1) 
296.6
8.54
2.35
0.83
9.51
0.19
0
-0.53
-2.58
-3.1
-0.13
0.52
-0.11
0.03

>  <PUBCHEM_SHAPE_SELFOVERLAP>  (1) 
595.066

>  <PUBCHEM_SHAPE_VOLUME>  (1) 
176.8

>  <PUBCHEM_COORDINATE_TYPE>  (1) 
2
5
10

$$$$
