45052
     RDKit          3D

 17 17  0  0  0  0  0  0  0  0999 V2000
   -0.1966    1.7162    0.7221 O   0  0  0  0  0  0  0  0  0  0  0  0
    0.3423   -1.2866    2.1201 O   0  0  0  0  0  0  0  0  0  0  0  0
    1.1957   -1.3819   -0.0541 N   0  0  0  0  0  0  0  0  0  0  0  0
    2.4871   -1.9487    0.3080 C   0  0  0  0  0  0  0  0  0  0  0  0
    0.9908   -1.1336   -1.4796 C   0  0  0  0  0  0  0  0  0  0  0  0
    0.2098   -1.0921    0.9054 C   0  0  0  0  0  0  0  0  0  0  0  0
   -1.0508   -0.5108    0.4650 C   0  0  0  0  0  0  0  0  0  0  0  0
   -1.2131    0.8724    0.3874 C   0  0  0  0  0  0  0  0  0  0  0  0
    3.5044   -0.8575    0.5956 C   0  0  0  0  0  0  0  0  0  0  0  0
    0.3835   -2.3452   -2.1661 C   0  0  0  0  0  0  0  0  0  0  0  0
   -2.1040   -1.3571    0.1185 C   0  0  0  0  0  0  0  0  0  0  0  0
   -2.4286    1.4093   -0.0367 C   0  0  0  0  0  0  0  0  0  0  0  0
   -3.3196   -0.8202   -0.3055 C   0  0  0  0  0  0  0  0  0  0  0  0
   -3.4820    0.5629   -0.3831 C   0  0  0  0  0  0  0  0  0  0  0  0
    0.2727    2.5998   -0.2940 C   0  0  0  0  0  0  0  0  0  0  0  0
    1.7057    2.9207   -0.0264 C   0  0  0  0  0  0  0  0  0  0  0  0
    2.7028    2.6523   -0.8767 C   0  0  0  0  0  0  0  0  0  0  0  0
  1  8  1  0
  1 15  1  0
  2  6  2  0
  3  4  1  0
  3  5  1  0
  3  6  1  0
  4  9  1  0
  5 10  1  0
  6  7  1  0
  7  8  2  0
  7 11  1  0
  8 12  1  0
 11 13  2  0
 12 14  2  0
 13 14  1  0
 15 16  1  0
 16 17  2  0
M  END
>  <PUBCHEM_COMPOUND_CID>  (1) 
45052

>  <PUBCHEM_CONFORMER_RMSD>  (1) 
0.8

>  <PUBCHEM_CONFORMER_DIVERSEORDER>  (1) 
1
5
28
43
33
46
34
32
2
18
12
45
29
42
47
24
21
8
23
15
41
17
20
38
37
39
25
44
10
27
30
7
14
31
11
36
6
13
26
16
4
40
3
19
22
9
35

>  <PUBCHEM_MMFF94_PARTIAL_CHARGES>  (1) 
22
1 -0.36
11 -0.15
12 -0.15
13 -0.15
14 -0.15
15 0.42
16 -0.29
17 -0.3
2 -0.57
28 0.15
29 0.15
3 -0.66
30 0.15
31 0.15
34 0.15
35 0.15
36 0.15
4 0.3
5 0.3
6 0.54
7 0.09
8 0.08

>  <PUBCHEM_EFFECTIVE_ROTOR_COUNT>  (1) 
7

>  <PUBCHEM_PHARMACOPHORE_FEATURES>  (1) 
4
1 1 acceptor
1 17 hydrophobe
1 2 acceptor
6 7 8 11 12 13 14 rings

>  <PUBCHEM_HEAVY_ATOM_COUNT>  (1) 
17

>  <PUBCHEM_ATOM_DEF_STEREO_COUNT>  (1) 
0

>  <PUBCHEM_ATOM_UDEF_STEREO_COUNT>  (1) 
0

>  <PUBCHEM_BOND_DEF_STEREO_COUNT>  (1) 
0

>  <PUBCHEM_BOND_UDEF_STEREO_COUNT>  (1) 
0

>  <PUBCHEM_ISOTOPIC_ATOM_COUNT>  (1) 
0

>  <PUBCHEM_COMPONENT_COUNT>  (1) 
1

>  <PUBCHEM_CACTVS_TAUTO_COUNT>  (1) 
1

>  <PUBCHEM_CONFORMER_ID>  (1) 
0000AFFC00000001

>  <PUBCHEM_MMFF94_ENERGY>  (1) 
45.6084

>  <PUBCHEM_FEATURE_SELFOVERLAP>  (1) 
20.297

>  <PUBCHEM_SHAPE_FINGERPRINT>  (1) 
11578080 2 17024280042580668207
12035759 4 17552616459363286335
12592029 89 18120661498085737537
14817 1 14803293887528903170
15490181 7 17623843930796560377
16945 1 18120934172806177843
20344682 1 17916289546497415583
20473742 2 18261658376632695054
20645476 183 17174621975532226876
20905425 154 18409732888831984589
21501502 16 18411702131885495177
23402539 116 18052522284216316303
23419403 2 16013480251138295378
23557571 272 17983014449132192670
23559900 14 17982157925722988306
23728640 28 17546155772362882080
2748010 2 17403184698738590577
7364860 26 18411977000981127545
81228 2 17765448547252617545
90316 7 17902779765780782680
9925002 15 17699539714437569982

>  <PUBCHEM_SHAPE_MULTIPOLES>  (1) 
333.13
4.75
3.4
1.41
0.97
2
0.25
0.32
0.19
-2.53
0.84
-0.45
-1
-0.48

>  <PUBCHEM_SHAPE_SELFOVERLAP>  (1) 
672.224

>  <PUBCHEM_SHAPE_VOLUME>  (1) 
195.6

>  <PUBCHEM_COORDINATE_TYPE>  (1) 
2
5
10

$$$$
