45059
     RDKit          3D

 24 25  0  0  0  0  0  0  0  0999 V2000
    3.6189    1.0299    0.7728 O   0  0  0  0  0  0  0  0  0  0  0  0
   -3.5111    0.9520    0.7815 O   0  0  0  0  0  0  0  0  0  0  0  0
    0.0266    0.4332    0.8497 O   0  0  0  0  0  0  0  0  0  0  0  0
   -1.2239    2.3547    0.5804 O   0  0  0  0  0  0  0  0  0  0  0  0
    4.7143    0.3818    0.2657 C   0  0  0  0  0  0  0  0  0  0  0  0
    6.7834    0.4372   -0.9652 C   0  0  0  0  0  0  0  0  0  0  0  0
    5.9748   -1.6463   -0.0478 C   0  0  0  0  0  0  0  0  0  0  0  0
   -6.6883    0.3933   -0.9446 C   0  0  0  0  0  0  0  0  0  0  0  0
   -5.8556   -1.7133   -0.1049 C   0  0  0  0  0  0  0  0  0  0  0  0
    4.8599   -0.9859    0.4687 C   0  0  0  0  0  0  0  0  0  0  0  0
    5.6692    1.0978   -0.4475 C   0  0  0  0  0  0  0  0  0  0  0  0
    6.9365   -0.9348   -0.7652 C   0  0  0  0  0  0  0  0  0  0  0  0
   -4.5991    0.3167    0.2662 C   0  0  0  0  0  0  0  0  0  0  0  0
   -6.8297   -0.9856   -0.7883 C   0  0  0  0  0  0  0  0  0  0  0  0
    2.4217    0.2705    0.8883 C   0  0  0  0  0  0  0  0  0  0  0  0
   -5.5726    1.0444   -0.4180 C   0  0  0  0  0  0  0  0  0  0  0  0
   -4.7407   -1.0620    0.4230 C   0  0  0  0  0  0  0  0  0  0  0  0
    1.2311    1.2003    0.7540 C   0  0  0  0  0  0  0  0  0  0  0  0
    7.8129    1.1984   -1.7299 C   0  0  0  0  0  0  0  0  0  0  0  0
    6.1402   -3.1126    0.1682 C   0  0  0  0  0  0  0  0  0  0  0  0
   -7.7285    1.1710   -1.6777 C   0  0  0  0  0  0  0  0  0  0  0  0
   -6.0059   -3.1879    0.0598 C   0  0  0  0  0  0  0  0  0  0  0  0
   -2.3006    0.2015    0.8656 C   0  0  0  0  0  0  0  0  0  0  0  0
   -1.1335    1.1457    0.7450 C   0  0  0  0  0  0  0  0  0  0  0  0
  1  5  1  0
  1 15  1  0
  2 13  1  0
  2 23  1  0
  3 18  1  0
  3 24  1  0
  4 24  2  0
  5 10  2  0
  5 11  1  0
  6 11  2  0
  6 12  1  0
  6 19  1  0
  7 10  1  0
  7 12  2  0
  7 20  1  0
  8 14  2  0
  8 16  1  0
  8 21  1  0
  9 14  1  0
  9 17  2  0
  9 22  1  0
 13 16  2  0
 13 17  1  0
 15 18  1  0
 23 24  1  0
M  END
>  <PUBCHEM_COMPOUND_CID>  (1) 
45059

>  <PUBCHEM_CONFORMER_RMSD>  (1) 
1

>  <PUBCHEM_CONFORMER_DIVERSEORDER>  (1) 
2
104
23
79
246
115
263
176
16
133
235
241
44
7
227
87
211
249
20
134
53
118
26
100
272
132
30
259
66
208
95
19
252
129
52
121
15
109
77
6
58
250
220
86
165
47
247
70
40
257
64
245
25
67
207
226
156
125
232
48
203
258
192
60
184
231
205
216
126
81
34
269
178
128
148
159
4
69
45
158
183
152
191
233
75
131
12
242
136
219
182
213
89
57
145
137
221
107
138
78
180
130
143
31
186
5
222
32
273
11
270
271
177
268
212
164
173
240
169
14
59
255
65
214
1
153
215
68
170
108
120
71
224
185
124
200
190
43
160
55
256
13
166
139
80
111
175
114
197
74
84
18
116
50
187
251
96
46
102
38
10
21
209
150
210
154
37
94
72
168
237
274
51
127
117
35
253
163
56
76
28
82
195
27
93
103
135
228
33
99
92
162
229
62
54
179
265
236
266
174
119
194
105
217
36
243
91
261
264
29
22
110
98
248
267
223
141
61
234
41
83
193
106
17
172
8
147
204
39
73
181
142
113
199
112
206
262
88
155
171
225
144
260
24
149
239
196
202
90
97
218
101
123
3
49
146
189
63
157
161
151
140
167
201
188
85
122
42
238
230
9
244
198
254

>  <PUBCHEM_MMFF94_PARTIAL_CHARGES>  (1) 
30
1 -0.36
10 -0.15
11 -0.15
12 -0.15
13 0.08
14 -0.15
15 0.28
16 -0.15
17 -0.15
18 0.28
19 0.14
2 -0.36
20 0.14
21 0.14
22 0.14
23 0.34
24 0.66
25 0.15
26 0.15
27 0.15
28 0.15
3 -0.43
31 0.15
32 0.15
4 -0.57
5 0.08
6 -0.14
7 -0.14
8 -0.14
9 -0.14

>  <PUBCHEM_EFFECTIVE_ROTOR_COUNT>  (1) 
8

>  <PUBCHEM_PHARMACOPHORE_FEATURES>  (1) 
5
1 1 acceptor
1 2 acceptor
1 4 acceptor
6 5 6 7 10 11 12 rings
6 8 9 13 14 16 17 rings

>  <PUBCHEM_HEAVY_ATOM_COUNT>  (1) 
24

>  <PUBCHEM_ATOM_DEF_STEREO_COUNT>  (1) 
0

>  <PUBCHEM_ATOM_UDEF_STEREO_COUNT>  (1) 
0

>  <PUBCHEM_BOND_DEF_STEREO_COUNT>  (1) 
0

>  <PUBCHEM_BOND_UDEF_STEREO_COUNT>  (1) 
0

>  <PUBCHEM_ISOTOPIC_ATOM_COUNT>  (1) 
0

>  <PUBCHEM_COMPONENT_COUNT>  (1) 
1

>  <PUBCHEM_CACTVS_TAUTO_COUNT>  (1) 
1

>  <PUBCHEM_CONFORMER_ID>  (1) 
0000B00300000002

>  <PUBCHEM_MMFF94_ENERGY>  (1) 
69.7481

>  <PUBCHEM_FEATURE_SELFOVERLAP>  (1) 
25.38

>  <PUBCHEM_SHAPE_FINGERPRINT>  (1) 
10 15 9511455645779843481
10454371 7 17604142619731872749
10554248 39 14490735871782984498
10595046 47 18410301281437332744
11315181 36 18341615936727215425
11475781 23 16081093688645244776
11524674 6 16056879143845188215
12082328 90 16805040723101330803
125118 31 8286207153801498514
13668630 136 17560810914025923172
13673619 4 17203891859810952760
13782708 43 17560799926718832440
14123256 34 17489594475867772824
14178184 131 17631167670808343007
14251764 18 9727627311043797089
14598715 104 11602811454170016903
15183329 4 18408322168184270859
15348495 7 11455877075520416788
15352257 5 18343301465813056727
15519825 34 13973382687415049237
1577012 14 18271534104559330608
15979999 66 18334294309814717332
1768 4 12829496926315274461
1818759 1 17346601902528689863
2026 5 17989203755390277543
20281389 69 9079114470681726971
21150785 3 18114184159428398820
21585481 104 17749670675526801796
23081809 10 18271252629640570800
23522609 53 17984454942989536600
23559900 14 18270387413195979513
2748736 6 10953453050584783115
2838139 119 11602823539922910539
3004659 81 18334571356304540376
4107672 100 18187078435061171293
439807 62 18341331111143153186
445580 160 18271526498420318255
465052 167 17703794717526993516
5470011 282 18261115187981967212
59682541 35 8718537355722177205
9953998 17 10087641529578589253

>  <PUBCHEM_SHAPE_MULTIPOLES>  (1) 
470.43
28.42
2.5
1.21
3.2
2.17
0.32
6.57
13.71
-0.25
0.01
0.09
-0.45
-0.23

>  <PUBCHEM_SHAPE_SELFOVERLAP>  (1) 
980.903

>  <PUBCHEM_SHAPE_VOLUME>  (1) 
270.2

>  <PUBCHEM_COORDINATE_TYPE>  (1) 
2
5
10

$$$$
