45054
     RDKit          3D

 15 15  0  0  0  0  0  0  0  0999 V2000
   -1.1371   -0.9456   -0.7947 O   0  0  0  0  0  0  0  0  0  0  0  0
    1.3266   -0.9398    0.1975 O   0  0  0  0  0  0  0  0  0  0  0  0
    2.4251    1.0702   -0.1627 N   0  0  0  0  0  0  0  0  0  0  0  0
    0.0021    0.9894    0.0497 C   0  0  0  0  0  0  0  0  0  0  0  0
   -1.1642    0.3489   -0.3692 C   0  0  0  0  0  0  0  0  0  0  0  0
    1.2808    0.2926    0.0442 C   0  0  0  0  0  0  0  0  0  0  0  0
    3.7616    0.5232   -0.2183 C   0  0  0  0  0  0  0  0  0  0  0  0
   -0.0466    2.3154    0.4801 C   0  0  0  0  0  0  0  0  0  0  0  0
   -2.3790    1.0344   -0.3574 C   0  0  0  0  0  0  0  0  0  0  0  0
   -1.2615    3.0007    0.4918 C   0  0  0  0  0  0  0  0  0  0  0  0
   -2.4276    2.3604    0.0730 C   0  0  0  0  0  0  0  0  0  0  0  0
    3.7548   -0.9792   -0.0255 C   0  0  0  0  0  0  0  0  0  0  0  0
   -1.9336   -1.8816   -0.0716 C   0  0  0  0  0  0  0  0  0  0  0  0
   -1.3117   -3.2333   -0.1903 C   0  0  0  0  0  0  0  0  0  0  0  0
   -0.8897   -3.9557    0.8534 C   0  0  0  0  0  0  0  0  0  0  0  0
  1  5  1  0
  1 13  1  0
  2  6  2  0
  3  6  1  0
  3  7  1  0
  4  5  2  0
  4  6  1  0
  4  8  1  0
  5  9  1  0
  7 12  1  0
  8 10  2  0
  9 11  2  0
 10 11  1  0
 13 14  1  0
 14 15  2  0
M  END
>  <PUBCHEM_COMPOUND_CID>  (1) 
45054

>  <PUBCHEM_CONFORMER_RMSD>  (1) 
0.8

>  <PUBCHEM_CONFORMER_DIVERSEORDER>  (1) 
1
10
11
5
7
9
4
3
8
14
13
15
12
2
6

>  <PUBCHEM_MMFF94_PARTIAL_CHARGES>  (1) 
22
1 -0.36
10 -0.15
11 -0.15
13 0.42
14 -0.29
15 -0.3
18 0.15
19 0.37
2 -0.57
20 0.15
21 0.15
22 0.15
28 0.15
29 0.15
3 -0.73
30 0.15
4 0.09
5 0.08
6 0.54
7 0.3
8 -0.15
9 -0.15

>  <PUBCHEM_EFFECTIVE_ROTOR_COUNT>  (1) 
6

>  <PUBCHEM_PHARMACOPHORE_FEATURES>  (1) 
5
1 1 acceptor
1 15 hydrophobe
1 2 acceptor
1 3 donor
6 4 5 8 9 10 11 rings

>  <PUBCHEM_HEAVY_ATOM_COUNT>  (1) 
15

>  <PUBCHEM_ATOM_DEF_STEREO_COUNT>  (1) 
0

>  <PUBCHEM_ATOM_UDEF_STEREO_COUNT>  (1) 
0

>  <PUBCHEM_BOND_DEF_STEREO_COUNT>  (1) 
0

>  <PUBCHEM_BOND_UDEF_STEREO_COUNT>  (1) 
0

>  <PUBCHEM_ISOTOPIC_ATOM_COUNT>  (1) 
0

>  <PUBCHEM_COMPONENT_COUNT>  (1) 
1

>  <PUBCHEM_CACTVS_TAUTO_COUNT>  (1) 
2

>  <PUBCHEM_CONFORMER_ID>  (1) 
0000AFFE00000001

>  <PUBCHEM_MMFF94_ENERGY>  (1) 
49.3351

>  <PUBCHEM_FEATURE_SELFOVERLAP>  (1) 
25.38

>  <PUBCHEM_SHAPE_FINGERPRINT>  (1) 
10967382 1 17763181336874682421
12553582 1 18122628528746501958
12592029 89 17834684794342883161
12644460 14 17044033593686798233
13380535 76 18127970810990297532
14022349 108 17187851917659113171
14115302 16 18115866467831717591
15279307 12 18188206494845855786
15309172 13 18195817258098157513
16945 1 18411694404722767745
193761 8 18051971716954523453
19591789 44 18267027163215184315
20510252 161 18271525312333890609
20645476 183 18189917356239438708
20871998 22 17763181744986155401
21524375 3 17984979297849195045
21665056 4 18337108952000925294
23366157 5 17252883654049977045
23402539 116 18200298936391758581
23552423 10 17620472407276031373
23557571 272 18271818977124139084
23559900 14 18272647910587015616
23728640 28 18338226064552666042
25147074 1 17122245189145687317
2748010 2 17693079074133030309
305870 269 17834397813102281412
3091708 16 9056728405334520138
43471831 8 18050004389924989633
54173680 148 18339080492323914678
58807428 26 18052257293439931232
7364860 26 17402894418957272537
81228 2 18270385209149444073
8809292 202 18413107268901098814
9709674 26 18201439147588288054

>  <PUBCHEM_SHAPE_MULTIPOLES>  (1) 
291.97
4.64
4.48
0.74
4.6
5.79
-0.03
-3.16
0.31
-1.57
-1.03
-0.1
0.16
-0.44

>  <PUBCHEM_SHAPE_SELFOVERLAP>  (1) 
596.833

>  <PUBCHEM_SHAPE_VOLUME>  (1) 
168.8

>  <PUBCHEM_COORDINATE_TYPE>  (1) 
2
5
10

$$$$
