45060
     RDKit          3D

 16 17  0  0  0  0  0  0  0  0999 V2000
   -1.9218   -1.2556   -0.1747 S   0  0  0  0  0  0  0  0  0  0  0  0
    0.4085   -0.0721   -1.5602 S   0  0  0  0  0  0  0  0  0  0  0  0
   -2.0513   -2.2308   -1.2606 O   0  0  0  0  0  0  0  0  0  0  0  0
   -2.2428   -1.6598    1.1947 O   0  0  0  0  0  0  0  0  0  0  0  0
   -2.9223    0.1013   -0.5655 N   0  0  0  0  0  0  0  0  0  0  0  0
    0.5314   -0.8087    0.9086 N   0  0  0  0  0  0  0  0  0  0  0  0
   -2.8868    1.2577    0.3505 C   0  0  0  0  0  0  0  0  0  0  0  0
   -0.2628   -0.7360   -0.1340 C   0  0  0  0  0  0  0  0  0  0  0  0
   -4.2636    1.4948    0.9574 C   0  0  0  0  0  0  0  0  0  0  0  0
   -2.3821    2.4989   -0.3748 C   0  0  0  0  0  0  0  0  0  0  0  0
    1.9079    0.1513   -0.7385 C   0  0  0  0  0  0  0  0  0  0  0  0
    1.7802   -0.3035    0.5774 C   0  0  0  0  0  0  0  0  0  0  0  0
    3.1104    0.6902   -1.2236 C   0  0  0  0  0  0  0  0  0  0  0  0
    2.8972   -0.2148    1.4362 C   0  0  0  0  0  0  0  0  0  0  0  0
    4.2004    0.7666   -0.3529 C   0  0  0  0  0  0  0  0  0  0  0  0
    4.0975    0.3206    0.9601 C   0  0  0  0  0  0  0  0  0  0  0  0
  1  3  2  0
  1  4  2  0
  1  5  1  0
  1  8  1  0
  2  8  1  0
  2 11  1  0
  5  7  1  0
  6  8  2  0
  6 12  1  0
  7  9  1  0
  7 10  1  0
 11 12  2  0
 11 13  1  0
 12 14  1  0
 13 15  2  0
 14 16  2  0
 15 16  1  0
M  END
>  <PUBCHEM_COMPOUND_CID>  (1) 
45060

>  <PUBCHEM_CONFORMER_RMSD>  (1) 
0.6

>  <PUBCHEM_CONFORMER_DIVERSEORDER>  (1) 
2
9
10
16
19
6
17
11
3
15
7
18
8
5
13
12
14
4
1

>  <PUBCHEM_MMFF94_PARTIAL_CHARGES>  (1) 
19
1 1.5
11 0.04
12 0.23
13 -0.15
14 -0.15
15 -0.15
16 -0.15
18 0.42
2 -0.08
25 0.15
26 0.15
27 0.15
28 0.15
3 -0.65
4 -0.65
5 -0.91
6 -0.57
7 0.36
8 0.32

>  <PUBCHEM_EFFECTIVE_ROTOR_COUNT>  (1) 
3

>  <PUBCHEM_PHARMACOPHORE_FEATURES>  (1) 
7
1 3 acceptor
1 4 acceptor
1 5 donor
1 6 acceptor
3 7 9 10 hydrophobe
5 2 6 8 11 12 rings
6 11 12 13 14 15 16 rings

>  <PUBCHEM_HEAVY_ATOM_COUNT>  (1) 
16

>  <PUBCHEM_ATOM_DEF_STEREO_COUNT>  (1) 
0

>  <PUBCHEM_ATOM_UDEF_STEREO_COUNT>  (1) 
0

>  <PUBCHEM_BOND_DEF_STEREO_COUNT>  (1) 
0

>  <PUBCHEM_BOND_UDEF_STEREO_COUNT>  (1) 
0

>  <PUBCHEM_ISOTOPIC_ATOM_COUNT>  (1) 
0

>  <PUBCHEM_COMPONENT_COUNT>  (1) 
1

>  <PUBCHEM_CACTVS_TAUTO_COUNT>  (1) 
1

>  <PUBCHEM_CONFORMER_ID>  (1) 
0000B00400000002

>  <PUBCHEM_MMFF94_ENERGY>  (1) 
23.197

>  <PUBCHEM_FEATURE_SELFOVERLAP>  (1) 
35.61

>  <PUBCHEM_SHAPE_FINGERPRINT>  (1) 
10465860 228 18188771639495884314
10498660 4 18130220433572678769
10646746 165 18343861130543550192
11471102 22 15357698582723955892
12251169 10 17675926477832889848
12491281 212 18113622295906388240
12500047 106 18060418023534388406
12670546 56 18338783572882243050
12730499 353 17060068004120245519
12932764 1 17988928911367843110
13583140 156 17489006259007143794
13764800 53 18271534134476102985
14144814 61 17385996317240412374
14289901 80 18270395126545480466
14445660 50 17822010925815305586
15209294 21 18260541238965694040
15309172 13 16877940542439577514
15775835 57 18336833000484084537
16945 1 18267583692298116598
1741750 31 18201158763174366235
18186145 218 16917080992062443958
19862831 5 13542458739771195885
200 152 17605267583272436387
20261772 1 18187089420653921884
20645477 56 18202568379898979097
20645477 70 16009564955099893826
20711983 171 18411699898317716102
21524375 3 18267300937679218299
23402539 116 18200581610175898447
23493267 7 17917711305537621082
23500284 214 18202006491055811193
23557571 272 17845941834884986637
23559900 14 17775289335947100646
25 1 16845016697685461069
3268164 11 17988628723381862333
4028521 119 17274824597735070265
4175511 318 17917992801719824551
6992083 37 17385722508368933639
77492 1 18040991877816938966

>  <PUBCHEM_SHAPE_MULTIPOLES>  (1) 
315.27
7.74
1.89
1.43
1.21
0.11
-0.07
3.46
1.72
-2.53
-0.17
0.5
-0.17
-0.62

>  <PUBCHEM_SHAPE_SELFOVERLAP>  (1) 
635.3

>  <PUBCHEM_SHAPE_VOLUME>  (1) 
186.5

>  <PUBCHEM_COORDINATE_TYPE>  (1) 
2
5
10

$$$$
