45063
     RDKit          3D

 10  9  0  0  0  0  0  0  0  0999 V2000
    4.5646   -0.1916    0.0566 F   0  0  0  0  0  0  0  0  0  0  0  0
   -1.3814    0.6589   -0.0232 O   0  0  0  0  0  0  0  0  0  0  0  0
   -0.3267   -1.3363   -0.5022 O   0  0  0  0  0  0  0  0  0  0  0  0
   -2.6537    0.0395   -0.2377 C   0  0  0  0  0  0  0  0  0  0  0  0
    0.9593    0.6469    0.0709 C   0  0  0  0  0  0  0  0  0  0  0  0
    2.2205   -0.2029   -0.0750 C   0  0  0  0  0  0  0  0  0  0  0  0
   -0.2960   -0.1537   -0.1913 C   0  0  0  0  0  0  0  0  0  0  0  0
   -2.8068   -1.1339    0.7182 C   0  0  0  0  0  0  0  0  0  0  0  0
   -3.7528    1.0734   -0.0463 C   0  0  0  0  0  0  0  0  0  0  0  0
    3.4731    0.5997    0.2300 C   0  0  0  0  0  0  0  0  0  0  0  0
  1 10  1  0
  2  4  1  0
  2  7  1  0
  3  7  2  0
  4  8  1  0
  4  9  1  0
  5  6  1  0
  5  7  1  0
  6 10  1  0
M  END
>  <PUBCHEM_COMPOUND_CID>  (1) 
45063

>  <PUBCHEM_CONFORMER_RMSD>  (1) 
0.6

>  <PUBCHEM_CONFORMER_DIVERSEORDER>  (1) 
10
125
123
14
73
124
114
67
113
101
98
17
7
35
118
37
69
90
77
76
84
120
36
130
105
68
82
18
122
62
66
81
96
40
97
65
128
27
39
13
131
63
92
103
11
129
127
102
12
60
121
106
50
71
111
75
47
53
59
126
55
116
107
19
109
1
41
72
8
108
119
115
52
117
6
24
110
58
2
20
54
45
61
112
25
31
5
15
94
93
3
4
28
22
89
88
42
38
78
30
33
44
34
32
85
64
43
57
56
51
48
79
49
83
70
74
95
16
80
87
29
23
9
21
46
104
26
91
99
100
86

>  <PUBCHEM_MMFF94_PARTIAL_CHARGES>  (1) 
7
1 -0.34
10 0.34
2 -0.43
3 -0.57
4 0.28
5 0.06
7 0.66

>  <PUBCHEM_EFFECTIVE_ROTOR_COUNT>  (1) 
5

>  <PUBCHEM_PHARMACOPHORE_FEATURES>  (1) 
2
1 3 acceptor
3 4 8 9 hydrophobe

>  <PUBCHEM_HEAVY_ATOM_COUNT>  (1) 
10

>  <PUBCHEM_ATOM_DEF_STEREO_COUNT>  (1) 
0

>  <PUBCHEM_ATOM_UDEF_STEREO_COUNT>  (1) 
0

>  <PUBCHEM_BOND_DEF_STEREO_COUNT>  (1) 
0

>  <PUBCHEM_BOND_UDEF_STEREO_COUNT>  (1) 
0

>  <PUBCHEM_ISOTOPIC_ATOM_COUNT>  (1) 
0

>  <PUBCHEM_COMPONENT_COUNT>  (1) 
1

>  <PUBCHEM_CACTVS_TAUTO_COUNT>  (1) 
1

>  <PUBCHEM_CONFORMER_ID>  (1) 
0000B0070000000A

>  <PUBCHEM_MMFF94_ENERGY>  (1) 
9.456

>  <PUBCHEM_FEATURE_SELFOVERLAP>  (1) 
10.148

>  <PUBCHEM_SHAPE_FINGERPRINT>  (1) 
11062470 55 12895356598903100520
12932764 1 17560793351239822990
14325111 11 18411418422971766260
190213 19 18187362151467192200
20279233 1 18272939314441522431
20645464 45 18411989052907052487
20645477 70 17703229490592222014
22485316 2 17749103396557159858
23402539 116 17703781509732548636

>  <PUBCHEM_SHAPE_MULTIPOLES>  (1) 
186.78
7.39
1.12
0.68
4.61
0.14
-0.03
-1.01
-0.68
-0.78
-0.03
-0.16
0.08
0.28

>  <PUBCHEM_SHAPE_SELFOVERLAP>  (1) 
344.905

>  <PUBCHEM_SHAPE_VOLUME>  (1) 
118.5

>  <PUBCHEM_COORDINATE_TYPE>  (1) 
2
5
10

$$$$
