45075
     RDKit          3D

 10  9  0  0  0  0  0  0  0  0999 V2000
   -0.7529   -0.1849   -0.3939 O   0  0  0  0  0  0  0  0  0  0  0  0
    2.0203    0.7000   -0.1426 N   0  0  0  0  0  0  0  0  0  0  0  0
    1.3584   -0.1929    0.8079 C   0  0  0  0  0  0  0  0  0  0  0  0
    0.2371   -0.9634    0.1750 C   0  0  0  0  0  0  0  0  0  0  0  0
    2.5828   -0.0644   -1.2553 C   0  0  0  0  0  0  0  0  0  0  0  0
    3.0655    1.4741    0.5258 C   0  0  0  0  0  0  0  0  0  0  0  0
   -1.7831    0.0739    0.5389 C   0  0  0  0  0  0  0  0  0  0  0  0
    0.2007   -2.3022    0.1267 C   0  0  0  0  0  0  0  0  0  0  0  0
   -2.8258    0.9152   -0.1191 C   0  0  0  0  0  0  0  0  0  0  0  0
   -4.1029    0.5448   -0.2636 C   0  0  0  0  0  0  0  0  0  0  0  0
  1  4  1  0
  1  7  1  0
  2  3  1  0
  2  5  1  0
  2  6  1  0
  3  4  1  0
  4  8  2  0
  7  9  1  0
  9 10  2  0
M  END
>  <PUBCHEM_COMPOUND_CID>  (1) 
45075

>  <PUBCHEM_CONFORMER_RMSD>  (1) 
0.6

>  <PUBCHEM_CONFORMER_DIVERSEORDER>  (1) 
1
62
29
15
17
45
12
37
5
34
11
40
63
41
27
38
25
43
42
60
30
66
59
51
32
49
19
70
56
26
4
69
68
36
18
21
28
23
58
48
14
55
67
9
8
47
7
16
31
13
24
39
46
52
50
54
33
10
61
20
6
64
57
44
65
53
2
35
22
3

>  <PUBCHEM_MMFF94_PARTIAL_CHARGES>  (1) 
15
1 -0.36
10 -0.3
2 -0.81
21 0.15
22 0.15
23 0.15
24 0.15
25 0.15
3 0.41
4 -0.06
5 0.27
6 0.27
7 0.42
8 -0.3
9 -0.29

>  <PUBCHEM_EFFECTIVE_ROTOR_COUNT>  (1) 
5

>  <PUBCHEM_PHARMACOPHORE_FEATURES>  (1) 
3
1 1 acceptor
1 10 hydrophobe
1 2 cation

>  <PUBCHEM_HEAVY_ATOM_COUNT>  (1) 
10

>  <PUBCHEM_ATOM_DEF_STEREO_COUNT>  (1) 
0

>  <PUBCHEM_ATOM_UDEF_STEREO_COUNT>  (1) 
0

>  <PUBCHEM_BOND_DEF_STEREO_COUNT>  (1) 
0

>  <PUBCHEM_BOND_UDEF_STEREO_COUNT>  (1) 
0

>  <PUBCHEM_ISOTOPIC_ATOM_COUNT>  (1) 
0

>  <PUBCHEM_COMPONENT_COUNT>  (1) 
1

>  <PUBCHEM_CACTVS_TAUTO_COUNT>  (1) 
1

>  <PUBCHEM_CONFORMER_ID>  (1) 
0000B01300000001

>  <PUBCHEM_MMFF94_ENERGY>  (1) 
21.8469

>  <PUBCHEM_FEATURE_SELFOVERLAP>  (1) 
15.223

>  <PUBCHEM_SHAPE_FINGERPRINT>  (1) 
1 1 18337952290257027478
12932764 1 17702650074282553401
14252887 29 9007053573824667020
14325111 11 18410855481787647147
14390081 3 18410292493364370329
15775835 57 18261387879661016440
170605 34 18343299262557637103
18186145 218 18201732746598181488
18342897 55 18411408527804953453
21028194 46 18333734602191091617
21040471 1 18335986458134965146
21293036 1 17846777433889641777
21499 59 18410283735904721085
21524375 3 18409161129968840554
23402539 116 18201426021904512948
81228 2 17833276689220437611

>  <PUBCHEM_SHAPE_MULTIPOLES>  (1) 
194.94
5.82
1.65
0.92
4.19
0.88
-0.13
-3.35
-0.74
-0.64
0.18
-0.52
-0.02
0.3

>  <PUBCHEM_SHAPE_SELFOVERLAP>  (1) 
358.845

>  <PUBCHEM_SHAPE_VOLUME>  (1) 
125.2

>  <PUBCHEM_COORDINATE_TYPE>  (1) 
2
5
10

$$$$
