45072
     RDKit          3D

 12 11  0  0  1  0  0  0  0  0999 V2000
    0.6493    2.8841    0.0875 Br  0  0  0  0  0  0  0  0  0  0  0  0
    3.3565    0.9417    0.7299 Br  0  0  0  0  0  0  0  0  0  0  0  0
    1.3810   -2.1545    0.8189 O   0  0  0  0  0  0  0  0  0  0  0  0
   -3.6118   -0.4485    1.1815 O   0  0  0  0  0  0  0  0  0  0  0  0
    2.3361   -1.5139   -1.1345 O   0  0  0  0  0  0  0  0  0  0  0  0
   -3.2744   -0.3859   -1.0638 O   0  0  0  0  0  0  0  0  0  0  0  0
    0.7896    1.0326   -0.6021 C   0  0  0  0  0  0  0  0  0  0  0  0
   -0.6385    0.5113   -0.8537 C   0  0  0  0  0  0  0  0  0  0  0  0
    1.5597    0.1925    0.4223 C   0  0  0  0  0  0  0  0  0  0  0  0
   -1.5037    0.3587    0.3998 C   0  0  0  0  0  0  0  0  0  0  0  0
    1.8241   -1.2195   -0.0617 C   0  0  0  0  0  0  0  0  0  0  0  0
   -2.8678   -0.1987    0.0760 C   0  0  0  0  0  0  0  0  0  0  0  0
  1  7  1  0
  2  9  1  0
  3 11  1  0
  4 12  1  0
  5 11  2  0
  6 12  2  0
  7  8  1  0
  7  9  1  0
  8 10  1  0
  9 11  1  0
 10 12  1  0
M  END
>  <PUBCHEM_COMPOUND_CID>  (1) 
45072

>  <PUBCHEM_CONFORMER_RMSD>  (1) 
0.6

>  <PUBCHEM_CONFORMER_DIVERSEORDER>  (1) 
2
64
51
73
125
38
126
72
131
113
19
90
98
13
109
136
148
135
80
106
162
103
99
69
114
83
41
137
45
110
152
43
87
130
128
93
102
168
9
124
122
166
79
159
104
85
105
48
158
94
89
112
144
54
149
95
115
31
84
33
153
141
91
101
156
81
71
145
20
120
147
21
154
167
14
32
92
170
150
44
47
121
63
142
56
155
138
116
25
119
169
40
49
151
157
16
117
34
15
127
77
163
39
129
30
17
66
53
57
76
55
65
118
4
8
140
62
26
50
108
146
82
164
24
68
37
134
61
58
96
75
6
36
67
86
161
52
143
100
29
133
165
123
35
3
22
12
28
160
78
11
42
46
88
74
107
5
23
97
59
111
1
139
18
7
10
132
27
60
70

>  <PUBCHEM_MMFF94_PARTIAL_CHARGES>  (1) 
13
1 -0.23
10 0.06
11 0.66
12 0.66
19 0.5
2 -0.23
20 0.5
3 -0.65
4 -0.65
5 -0.57
6 -0.57
7 0.23
9 0.29

>  <PUBCHEM_EFFECTIVE_ROTOR_COUNT>  (1) 
5

>  <PUBCHEM_PHARMACOPHORE_FEATURES>  (1) 
8
1 1 hydrophobe
1 2 hydrophobe
1 3 acceptor
1 4 acceptor
1 5 acceptor
1 6 acceptor
3 3 5 11 anion
3 4 6 12 anion

>  <PUBCHEM_HEAVY_ATOM_COUNT>  (1) 
12

>  <PUBCHEM_ATOM_DEF_STEREO_COUNT>  (1) 
0

>  <PUBCHEM_ATOM_UDEF_STEREO_COUNT>  (1) 
2

>  <PUBCHEM_BOND_DEF_STEREO_COUNT>  (1) 
0

>  <PUBCHEM_BOND_UDEF_STEREO_COUNT>  (1) 
0

>  <PUBCHEM_ISOTOPIC_ATOM_COUNT>  (1) 
0

>  <PUBCHEM_COMPONENT_COUNT>  (1) 
1

>  <PUBCHEM_CACTVS_TAUTO_COUNT>  (1) 
1

>  <PUBCHEM_CONFORMER_ID>  (1) 
0000B01000000002

>  <PUBCHEM_MMFF94_ENERGY>  (1) 
18.446

>  <PUBCHEM_FEATURE_SELFOVERLAP>  (1) 
40.715

>  <PUBCHEM_SHAPE_FINGERPRINT>  (1) 
10219947 1 18337381742743732424
11132069 177 18267289001886156920
12932764 1 18131637785511857573
14251717 144 18338507655213398805
14252887 29 18341339937026581547
15775835 57 17203614808628996195
161256 15 18270964531871612628
16945 1 18340207500153264021
20201158 50 18114455717045859891
20279233 1 17895187810021782763
20645477 70 18341884152712557215
20711985 344 17906454324792483676
20871998 22 18339084795823278972
21061003 4 18409439306495492544
23419403 2 14430704701585976641
2748010 2 18267575815185612676
581208 293 18411130368300317502
81228 2 17973439910373099421

>  <PUBCHEM_SHAPE_MULTIPOLES>  (1) 
235.36
5.37
2.31
1.07
3.82
0.78
0.03
-0.9
-1.03
-1.76
-0.01
0.2
-0.17
0.32

>  <PUBCHEM_SHAPE_SELFOVERLAP>  (1) 
424.135

>  <PUBCHEM_SHAPE_VOLUME>  (1) 
154.1

>  <PUBCHEM_COORDINATE_TYPE>  (1) 
2
5
10

$$$$
