45074
     RDKit          3D

 24 25  0  0  1  0  0  0  0  0999 V2000
    1.9424    0.9998    2.6623 Cl  0  0  0  0  0  0  0  0  0  0  0  0
    5.2025   -1.2566   -0.9836 Cl  0  0  0  0  0  0  0  0  0  0  0  0
    1.0253    2.6583    0.3283 O   0  0  0  0  0  0  0  0  0  0  0  0
   -4.4468    1.6900   -1.0603 O   0  0  0  0  0  0  0  0  0  0  0  0
   -5.4425   -0.0115    0.0461 O   0  0  0  0  0  0  0  0  0  0  0  0
   -1.1517    1.5594    1.6237 O   0  0  0  0  0  0  0  0  0  0  0  0
   -2.0133    0.9607   -0.4529 N   0  0  0  0  0  0  0  0  0  0  0  0
   -3.0245    0.0449    0.0130 C   0  0  0  0  0  0  0  0  0  0  0  0
   -2.8227   -1.3576   -0.5754 C   0  0  0  0  0  0  0  0  0  0  0  0
   -1.4716   -1.9456   -0.2465 C   0  0  0  0  0  0  0  0  0  0  0  0
   -4.4184    0.5539   -0.3232 C   0  0  0  0  0  0  0  0  0  0  0  0
   -0.4066   -1.7232   -1.1050 C   0  0  0  0  0  0  0  0  0  0  0  0
   -1.3211   -2.6980    0.9074 C   0  0  0  0  0  0  0  0  0  0  0  0
   -1.1569    1.6448    0.3986 C   0  0  0  0  0  0  0  0  0  0  0  0
   -0.1988    2.5348   -0.3640 C   0  0  0  0  0  0  0  0  0  0  0  0
    0.8415   -2.2676   -0.8018 C   0  0  0  0  0  0  0  0  0  0  0  0
   -0.0728   -3.2412    1.2113 C   0  0  0  0  0  0  0  0  0  0  0  0
    1.0086   -3.0262    0.3567 C   0  0  0  0  0  0  0  0  0  0  0  0
    2.0032    1.7346    0.0438 C   0  0  0  0  0  0  0  0  0  0  0  0
    2.5114    0.9067    1.0363 C   0  0  0  0  0  0  0  0  0  0  0  0
    2.4694    1.6502   -1.2623 C   0  0  0  0  0  0  0  0  0  0  0  0
    3.5030   -0.0212    0.7180 C   0  0  0  0  0  0  0  0  0  0  0  0
    3.4617    0.7229   -1.5804 C   0  0  0  0  0  0  0  0  0  0  0  0
    3.9785   -0.1125   -0.5902 C   0  0  0  0  0  0  0  0  0  0  0  0
  1 20  1  0
  2 24  1  0
  3 15  1  0
  3 19  1  0
  4 11  1  0
  5 11  2  0
  6 14  2  0
  7  8  1  0
  7 14  1  0
  8  9  1  0
  8 11  1  0
  9 10  1  0
 10 12  2  0
 10 13  1  0
 12 16  1  0
 13 17  2  0
 14 15  1  0
 16 18  2  0
 17 18  1  0
 19 20  2  0
 19 21  1  0
 20 22  1  0
 21 23  2  0
 22 24  2  0
 23 24  1  0
M  END
>  <PUBCHEM_COMPOUND_CID>  (1) 
45074

>  <PUBCHEM_CONFORMER_RMSD>  (1) 
1

>  <PUBCHEM_CONFORMER_DIVERSEORDER>  (1) 
2
203
85
231
188
145
182
30
36
9
60
259
273
103
13
206
107
172
223
80
159
246
111
154
100
214
240
241
86
69
38
199
201
252
274
289
144
219
15
141
104
124
16
150
270
183
169
177
279
119
121
232
102
17
105
165
130
23
234
127
162
236
229
226
210
63
131
196
156
109
173
256
146
211
243
189
283
39
253
89
79
70
82
97
10
41
71
271
190
112
52
275
113
267
18
122
192
26
163
278
205
42
88
56
218
248
44
249
261
59
292
6
225
21
151
152
96
284
160
115
129
235
1
75
170
161
136
14
288
217
37
268
118
178
193
233
263
22
48
186
187
50
266
254
68
46
64
99
91
133
62
32
120
221
255
194
138
285
83
238
25
185
143
291
87
53
140
8
222
260
72
224
67
76
171
208
40
34
125
58
4
61
250
12
237
98
33
258
11
276
204
43
280
155
147
167
54
247
198
28
55
95
257
142
108
265
212
51
180
128
116
174
3
272
78
262
149
27
66
290
73
47
92
184
244
181
94
281
202
175
84
216
29
228
153
195
24
176
239
20
157
77
90
164
132
135
101
114
57
19
168
230
287
137
31
264
134
110
286
35
139
49
269
93
227
277
282
197
191
106
74
45
123
209
7
158
166
207
126
213
117
215
65
242
220
5
245
81
200
251
179
148

>  <PUBCHEM_MMFF94_PARTIAL_CHARGES>  (1) 
34
1 -0.18
10 -0.14
11 0.66
12 -0.15
13 -0.15
14 0.57
15 0.34
16 -0.15
17 -0.15
18 -0.15
19 0.08
2 -0.18
20 0.18
21 -0.15
22 -0.15
23 -0.15
24 0.18
28 0.37
29 0.15
3 -0.36
30 0.15
33 0.15
34 0.15
35 0.15
36 0.5
37 0.15
38 0.15
39 0.15
4 -0.65
5 -0.57
6 -0.57
7 -0.73
8 0.36
9 0.14

>  <PUBCHEM_EFFECTIVE_ROTOR_COUNT>  (1) 
8

>  <PUBCHEM_PHARMACOPHORE_FEATURES>  (1) 
8
1 3 acceptor
1 4 acceptor
1 5 acceptor
1 6 acceptor
1 7 donor
3 4 5 11 anion
6 10 12 13 16 17 18 rings
6 19 20 21 22 23 24 rings

>  <PUBCHEM_HEAVY_ATOM_COUNT>  (1) 
24

>  <PUBCHEM_ATOM_DEF_STEREO_COUNT>  (1) 
0

>  <PUBCHEM_ATOM_UDEF_STEREO_COUNT>  (1) 
1

>  <PUBCHEM_BOND_DEF_STEREO_COUNT>  (1) 
0

>  <PUBCHEM_BOND_UDEF_STEREO_COUNT>  (1) 
0

>  <PUBCHEM_ISOTOPIC_ATOM_COUNT>  (1) 
0

>  <PUBCHEM_COMPONENT_COUNT>  (1) 
1

>  <PUBCHEM_CACTVS_TAUTO_COUNT>  (1) 
2

>  <PUBCHEM_CONFORMER_ID>  (1) 
0000B01200000002

>  <PUBCHEM_MMFF94_ENERGY>  (1) 
60.5979

>  <PUBCHEM_FEATURE_SELFOVERLAP>  (1) 
40.662

>  <PUBCHEM_SHAPE_FINGERPRINT>  (1) 
11458722 379 18411704261783111838
11578080 2 16985183775396866064
12011746 2 18339645546837776142
12156800 1 15109062827322156206
12592029 89 18335421266598791361
12788726 201 17987818374269310152
13140716 1 18268425909593810105
13402501 40 18342460331144086022
14251740 79 18269289975905284830
14251745 187 18342742910075064994
14931854 50 18267311941227520246
16752209 62 18265325295229905375
17093844 170 18412260640884897976
17492 54 18263936453415031990
19591789 44 18265615562548022339
20465049 17 18259992577814585274
20600515 1 18195506285581528648
20691752 17 18263624299249361023
20832881 197 17917715682119988457
20905425 154 18054789473060996390
23559900 14 18130223873894165456
2637199 183 17894914040068896714
3298306 158 18336253566820643381
3680242 22 18263366897432722595
474 4 18333449824712104231
484985 159 14039888662513802660
6138700 20 18339364063266141886

>  <PUBCHEM_SHAPE_MULTIPOLES>  (1) 
469.19
8.21
3.64
1.6
2.74
1.8
0.8
-1.3
-2.7
0.3
0.49
-1.18
-0.28
0.59

>  <PUBCHEM_SHAPE_SELFOVERLAP>  (1) 
973.294

>  <PUBCHEM_SHAPE_VOLUME>  (1) 
266.8

>  <PUBCHEM_COORDINATE_TYPE>  (1) 
2
5
10

$$$$
