45079
     RDKit          3D

 11 10  0  0  0  0  0  0  0  0999 V2000
    0.5183   -3.9517   -0.0300 Cl  0  0  0  0  0  0  0  0  0  0  0  0
   -4.0339    1.2342   -0.1496 Cl  0  0  0  0  0  0  0  0  0  0  0  0
    2.2420    1.5965    1.5130 Cl  0  0  0  0  0  0  0  0  0  0  0  0
   -0.2089    0.0063    0.1406 N   0  0  0  0  0  0  0  0  0  0  0  0
    0.4350   -1.2489   -0.2448 C   0  0  0  0  0  0  0  0  0  0  0  0
   -1.6316   -0.0243   -0.1968 C   0  0  0  0  0  0  0  0  0  0  0  0
    0.4470    1.1387   -0.5123 C   0  0  0  0  0  0  0  0  0  0  0  0
   -0.2714   -2.4210    0.4186 C   0  0  0  0  0  0  0  0  0  0  0  0
   -2.2977    1.2713    0.2400 C   0  0  0  0  0  0  0  0  0  0  0  0
    1.8983    1.2500   -0.1500 C   0  0  0  0  0  0  0  0  0  0  0  0
    2.9028    1.1488   -1.0288 C   0  0  0  0  0  0  0  0  0  0  0  0
  1  8  1  0
  2  9  1  0
  3 10  1  0
  4  5  1  0
  4  6  1  0
  4  7  1  0
  5  8  1  0
  6  9  1  0
  7 10  1  0
 10 11  2  0
M  END
>  <PUBCHEM_COMPOUND_CID>  (1) 
45079

>  <PUBCHEM_CONFORMER_RMSD>  (1) 
0.6

>  <PUBCHEM_CONFORMER_DIVERSEORDER>  (1) 
1
33
16
19
11
48
24
60
31
10
25
8
41
23
17
35
32
28
4
36
44
61
34
12
18
27
20
6
15
56
45
7
46
63
47
52
55
2
29
3
40
5
37
59
13
42
43
14
22
58
53
50
57
21
26
62
39
9
51
38
64
54
30
49

>  <PUBCHEM_MMFF94_PARTIAL_CHARGES>  (1) 
12
1 -0.29
11 -0.3
2 -0.29
22 0.15
23 0.15
3 -0.14
4 -0.81
5 0.27
6 0.27
7 0.41
8 0.29
9 0.29

>  <PUBCHEM_EFFECTIVE_ROTOR_COUNT>  (1) 
6

>  <PUBCHEM_PHARMACOPHORE_FEATURES>  (1) 
1
1 4 cation

>  <PUBCHEM_HEAVY_ATOM_COUNT>  (1) 
11

>  <PUBCHEM_ATOM_DEF_STEREO_COUNT>  (1) 
0

>  <PUBCHEM_ATOM_UDEF_STEREO_COUNT>  (1) 
0

>  <PUBCHEM_BOND_DEF_STEREO_COUNT>  (1) 
0

>  <PUBCHEM_BOND_UDEF_STEREO_COUNT>  (1) 
0

>  <PUBCHEM_ISOTOPIC_ATOM_COUNT>  (1) 
0

>  <PUBCHEM_COMPONENT_COUNT>  (1) 
1

>  <PUBCHEM_CACTVS_TAUTO_COUNT>  (1) 
1

>  <PUBCHEM_CONFORMER_ID>  (1) 
0000B01700000001

>  <PUBCHEM_MMFF94_ENERGY>  (1) 
17.0762

>  <PUBCHEM_FEATURE_SELFOVERLAP>  (1) 
5.074

>  <PUBCHEM_SHAPE_FINGERPRINT>  (1) 
1 1 18338233769459666055
12532896 13 18270390723729138061
14817 1 9612325207351963602
15279308 132 18342178894874912712
18410436 195 17619905059186064303
19021347 4 18338232781712393163
20645476 183 18115316703491432076
20645477 70 18190456057561588085
20671657 1 18199182897950905467
20711985 344 17758962910465313898
21040471 1 18337954601002011276
21524375 3 18272089396332692805
21930827 45 18196093459076314720
23526113 38 17916607374631045396
23530152 11 18409732876226566471
23598294 1 18045502168766019049
2748010 2 18336278910895175071
305870 269 18339070510762149977
3071541 236 18048579697575108291
7364860 26 18197212542964880659
81228 2 17764025061920454011
81539 233 18260267413198922861
88987 49 18121215652278848388

>  <PUBCHEM_SHAPE_MULTIPOLES>  (1) 
227
4.61
3.76
1
4.4
6.13
0.21
-4.36
-0.29
-1.53
0.36
-0.76
-0.48
0.16

>  <PUBCHEM_SHAPE_SELFOVERLAP>  (1) 
394.359

>  <PUBCHEM_SHAPE_VOLUME>  (1) 
151

>  <PUBCHEM_COORDINATE_TYPE>  (1) 
2
5
10

$$$$
