45087
     RDKit          3D

 25 26  0  0  0  0  0  0  0  0999 V2000
   -5.3049   -2.5690   -0.9148 Cl  0  0  0  0  0  0  0  0  0  0  0  0
   -2.9956    3.0349    0.7370 Cl  0  0  0  0  0  0  0  0  0  0  0  0
   -7.2295   -0.0375   -0.8590 Cl  0  0  0  0  0  0  0  0  0  0  0  0
   -6.0709    2.7738   -0.0320 Cl  0  0  0  0  0  0  0  0  0  0  0  0
   -1.0872   -1.2251    0.5781 N   0  0  0  0  0  0  0  0  0  0  0  0
    6.1932    0.3893    0.0850 N   0  0  0  0  0  0  0  0  0  0  0  0
    0.1757   -1.5136   -0.2099 C   0  0  0  0  0  0  0  0  0  0  0  0
   -2.3295   -1.9010   -0.0771 C   0  0  0  0  0  0  0  0  0  0  0  0
   -1.4243    0.2966    0.5694 C   0  0  0  0  0  0  0  0  0  0  0  0
    1.3505   -0.7175    0.3451 C   0  0  0  0  0  0  0  0  0  0  0  0
   -3.3948   -0.8564   -0.1039 C   0  0  0  0  0  0  0  0  0  0  0  0
   -2.8816    0.3893    0.2627 C   0  0  0  0  0  0  0  0  0  0  0  0
   -0.9166   -1.7167    2.0104 C   0  0  0  0  0  0  0  0  0  0  0  0
    2.6640   -0.9699   -0.4007 C   0  0  0  0  0  0  0  0  0  0  0  0
    5.1046   -0.3818   -0.5622 C   0  0  0  0  0  0  0  0  0  0  0  0
    3.8097   -0.1554    0.2041 C   0  0  0  0  0  0  0  0  0  0  0  0
    5.8571    1.8871    0.1180 C   0  0  0  0  0  0  0  0  0  0  0  0
    7.5143    0.2147   -0.6777 C   0  0  0  0  0  0  0  0  0  0  0  0
   -4.7259   -1.0061   -0.4544 C   0  0  0  0  0  0  0  0  0  0  0  0
   -3.6874    1.5150    0.2875 C   0  0  0  0  0  0  0  0  0  0  0  0
    6.4119   -0.0812    1.5300 C   0  0  0  0  0  0  0  0  0  0  0  0
   -5.5488    0.1218   -0.4264 C   0  0  0  0  0  0  0  0  0  0  0  0
   -5.0330    1.3740   -0.0578 C   0  0  0  0  0  0  0  0  0  0  0  0
    5.6360    2.3794   -1.2955 C   0  0  0  0  0  0  0  0  0  0  0  0
    7.9131   -1.2447   -0.6559 C   0  0  0  0  0  0  0  0  0  0  0  0
  1 19  1  0
  2 20  1  0
  3 22  1  0
  4 23  1  0
  5  7  1  0
  5  8  1  0
  5  9  1  0
  5 13  1  0
  6 15  1  0
  6 17  1  0
  6 18  1  0
  6 21  1  0
  7 10  1  0
  8 11  1  0
  9 12  1  0
 10 14  1  0
 11 12  2  0
 11 19  1  0
 12 20  1  0
 14 16  1  0
 15 16  1  0
 17 24  1  0
 18 25  1  0
 19 22  2  0
 20 23  2  0
 22 23  1  0
M  CHG  2   5   1   6   1
M  END
>  <PUBCHEM_COMPOUND_CID>  (1) 
45087

>  <PUBCHEM_CONFORMER_RMSD>  (1) 
1

>  <PUBCHEM_CONFORMER_DIVERSEORDER>  (1) 
10
24
22
41
7
48
2
30
12
23
36
6
9
19
42
32
21
25
34
3
28
20
15
16
33
8
18
44
38
43
35
1
26
29
39
47
5
40
45
46
11
31
17
13
27
14
37
4

>  <PUBCHEM_MMFF94_PARTIAL_CHARGES>  (1) 
20
1 -0.18
11 -0.14
12 -0.14
13 0.5
15 0.5
17 0.5
18 0.5
19 0.18
2 -0.18
20 0.18
21 0.5
22 0.18
23 0.18
3 -0.18
4 -0.18
5 -1.01
6 -1.01
7 0.5
8 0.65
9 0.65

>  <PUBCHEM_EFFECTIVE_ROTOR_COUNT>  (1) 
8.6

>  <PUBCHEM_PHARMACOPHORE_FEATURES>  (1) 
4
1 5 cation
1 6 cation
5 5 8 9 11 12 rings
6 11 12 19 20 22 23 rings

>  <PUBCHEM_HEAVY_ATOM_COUNT>  (1) 
25

>  <PUBCHEM_ATOM_DEF_STEREO_COUNT>  (1) 
0

>  <PUBCHEM_ATOM_UDEF_STEREO_COUNT>  (1) 
0

>  <PUBCHEM_BOND_DEF_STEREO_COUNT>  (1) 
0

>  <PUBCHEM_BOND_UDEF_STEREO_COUNT>  (1) 
0

>  <PUBCHEM_ISOTOPIC_ATOM_COUNT>  (1) 
0

>  <PUBCHEM_COMPONENT_COUNT>  (1) 
1

>  <PUBCHEM_CACTVS_TAUTO_COUNT>  (1) 
1

>  <PUBCHEM_CONFORMER_ID>  (1) 
0000B01F0000000A

>  <PUBCHEM_MMFF94_ENERGY>  (1) 
84.5112

>  <PUBCHEM_FEATURE_SELFOVERLAP>  (1) 
20.373

>  <PUBCHEM_SHAPE_FINGERPRINT>  (1) 
10 15 13262399964355133050
10076449 9 17846777439097251475
10087517 78 18335699421175879197
10411042 1 18124873723982219647
10595046 47 18411416211201194106
10669705 176 18412262804963041527
10670039 82 18411697647386101289
10730089 173 18413670197416548361
11089746 13 18260831510277831574
11315181 36 18040438810773195711
11719270 70 17775002354854693070
11991303 11 16845005827329062126
12166972 35 18342460378747714664
12596602 18 17385723638172121344
13167372 99 18335420167140053692
13533116 47 17385712570727325234
13911987 19 16200148768735206367
13914758 101 18410011014372364786
15183329 4 18410856547287689904
15348495 7 12396592857346302550
15352257 5 9367351431567208900
15419008 47 17560793342761114112
15461852 350 18343308097880631822
15716309 27 9799691493925553734
1577012 14 18187080638004659210
15778101 99 18341334409894087049
16989713 51 17488453269062102279
17780758 139 8214139651526862583
17980427 23 18187370947496950727
19427546 20 18411132546729880319
19489759 90 18410013243027790234
19611394 137 18115884060482343195
20281389 69 17676201368798737868
21315763 129 18342740732653285500
21315763 28 18411981373532135030
23035841 295 10664098956458973942
23198884 109 18408604768516623098
23559900 14 18199178663092663649
2838139 119 18410292514659852396
3004659 81 18408886240147795984
351380 3 11959729356790231764
394071 54 15864358008455277286
397830 11 12324540778178368510
4073 2 17968384541583800506
4325135 7 18342455945971784375
59755656 520 17749104512896008690
9981440 41 18334021587848948051
999808 66 11599718519671712013

>  <PUBCHEM_SHAPE_MULTIPOLES>  (1) 
512.01
23.26
2.8
1.14
31.42
1.46
0.33
5.22
-6.02
-3.26
-0.08
0.65
-0.18
-1.21

>  <PUBCHEM_SHAPE_SELFOVERLAP>  (1) 
1002.226

>  <PUBCHEM_SHAPE_VOLUME>  (1) 
312.8

>  <PUBCHEM_COORDINATE_TYPE>  (1) 
2
5
10

$$$$
