45100
     RDKit          3D

 15 16  0  0  1  0  0  0  0  0999 V2000
   -2.3329    0.3176   -1.0674 O   0  0  0  0  0  0  0  0  0  0  0  0
    0.7550   -0.8076    0.1510 N   0  0  0  0  0  0  0  0  0  0  0  0
    0.9078    1.4463   -0.5652 N   0  0  0  0  0  0  0  0  0  0  0  0
    2.2015    1.0155    0.0085 C   0  0  0  0  0  0  0  0  0  0  0  0
    2.1682   -0.5127   -0.0967 C   0  0  0  0  0  0  0  0  0  0  0  0
    0.0611    0.2343   -0.6230 C   0  0  0  0  0  0  0  0  0  0  0  0
    0.4016   -2.1629   -0.2542 C   0  0  0  0  0  0  0  0  0  0  0  0
    2.3238    1.4844    1.4681 C   0  0  0  0  0  0  0  0  0  0  0  0
    3.3447    1.6074   -0.8178 C   0  0  0  0  0  0  0  0  0  0  0  0
   -1.3546    0.5001   -0.1480 C   0  0  0  0  0  0  0  0  0  0  0  0
   -1.0819   -2.4157   -0.0198 C   0  0  0  0  0  0  0  0  0  0  0  0
    1.2590   -3.1825    0.4850 C   0  0  0  0  0  0  0  0  0  0  0  0
   -1.8744    0.8997    1.0543 C   0  0  0  0  0  0  0  0  0  0  0  0
   -3.2753    0.9698    0.8661 C   0  0  0  0  0  0  0  0  0  0  0  0
   -3.5036    0.6063   -0.4407 C   0  0  0  0  0  0  0  0  0  0  0  0
  1 10  1  0
  1 15  1  0
  2  5  1  0
  2  6  1  0
  2  7  1  0
  3  4  1  0
  3  6  1  0
  4  5  1  0
  4  8  1  0
  4  9  1  0
  6 10  1  0
  7 11  1  0
  7 12  1  0
 10 13  2  0
 13 14  1  0
 14 15  2  0
M  END
>  <PUBCHEM_COMPOUND_CID>  (1) 
45100

>  <PUBCHEM_CONFORMER_RMSD>  (1) 
0.6

>  <PUBCHEM_CONFORMER_DIVERSEORDER>  (1) 
5
21
16
23
7
18
15
22
12
17
24
20
13
10
19
25
14
11
8
6
1
9
2
3
4

>  <PUBCHEM_MMFF94_PARTIAL_CHARGES>  (1) 
15
1 -0.28
10 -0.04
13 -0.15
14 -0.15
15 -0.01
19 0.36
2 -0.81
3 -0.9
33 0.15
34 0.15
35 0.15
4 0.27
5 0.27
6 0.72
7 0.27

>  <PUBCHEM_EFFECTIVE_ROTOR_COUNT>  (1) 
3

>  <PUBCHEM_PHARMACOPHORE_FEATURES>  (1) 
8
1 1 acceptor
1 2 cation
1 3 cation
1 3 donor
3 4 8 9 hydrophobe
3 7 11 12 hydrophobe
5 1 10 13 14 15 rings
5 2 3 4 5 6 rings

>  <PUBCHEM_HEAVY_ATOM_COUNT>  (1) 
15

>  <PUBCHEM_ATOM_DEF_STEREO_COUNT>  (1) 
0

>  <PUBCHEM_ATOM_UDEF_STEREO_COUNT>  (1) 
1

>  <PUBCHEM_BOND_DEF_STEREO_COUNT>  (1) 
0

>  <PUBCHEM_BOND_UDEF_STEREO_COUNT>  (1) 
0

>  <PUBCHEM_ISOTOPIC_ATOM_COUNT>  (1) 
0

>  <PUBCHEM_COMPONENT_COUNT>  (1) 
1

>  <PUBCHEM_CACTVS_TAUTO_COUNT>  (1) 
1

>  <PUBCHEM_CONFORMER_ID>  (1) 
0000B02C00000005

>  <PUBCHEM_MMFF94_ENERGY>  (1) 
20.6821

>  <PUBCHEM_FEATURE_SELFOVERLAP>  (1) 
40.631

>  <PUBCHEM_SHAPE_FINGERPRINT>  (1) 
1 1 18408606928943019950
11680611 10 17752469126145805128
12202030 40 17026882496635926611
13140716 1 18409443700500114346
13380535 21 18337683008924266998
13764800 53 18198063783675756881
14648413 74 17901100815783556733
14787075 74 17411600786292589825
14817 1 10827597877587238842
15309172 13 18334582372874724189
15502708 68 18409445851872170604
15775835 57 18130794446971282513
15852999 172 18113891672150195227
16752209 62 18048308143994327262
16945 1 18263647268766231798
17357990 137 16985766207733424377
18186145 218 18202565094186168325
201361 129 18198639738816874969
20388701 513 17477191100011586544
204376 136 18335988665442297628
20510252 161 17908986852348072058
20559304 39 17986954038022982017
20645477 70 18190736445642631999
20671657 1 18341892952921256562
20711985 344 17761495094534522154
21061003 4 17761208821794622243
21501502 16 18337670940293122414
21524375 3 18343581862815779484
2255824 54 18339367335909817534
2334 1 18265613363129179982
23419403 2 17188760367778094078
23526113 38 17631754728449378836
23557571 272 17766018459907864172
25 1 18201169792624183908
2748010 2 18337400442815080894
276578 36 18413116056087805264
305870 269 18340487768312749305
3071541 236 18049425226385759914
458136 41 18337409170088172139
528862 383 18336826368864590923
7364860 26 18128254489069134855
7615 1 17844235230194696257
77492 1 17845647037341833885
81228 2 17762335121048871554
8272917 22 18195816172156869949
84936 182 18200867366728847761
9981440 41 16697208495160993760

>  <PUBCHEM_SHAPE_MULTIPOLES>  (1) 
292.86
4.98
2.8
1.07
1.88
3
0.2
-3.17
-0.04
-1.37
0.38
-0.05
-0.4
-0.31

>  <PUBCHEM_SHAPE_SELFOVERLAP>  (1) 
604.333

>  <PUBCHEM_SHAPE_VOLUME>  (1) 
172.4

>  <PUBCHEM_COORDINATE_TYPE>  (1) 
2
5
10

$$$$
