45108
     RDKit          3D

 14 15  0  0  0  0  0  0  0  0999 V2000
   -1.2582   -1.7593   -0.1979 O   0  0  0  0  0  0  0  0  0  0  0  0
   -2.9554    0.3748    0.2005 O   0  0  0  0  0  0  0  0  0  0  0  0
    3.4550    0.0346    0.2165 N   0  0  0  0  0  0  0  0  0  0  0  0
    0.6434   -0.2990   -0.0865 C   0  0  0  0  0  0  0  0  0  0  0  0
    1.5764   -1.4687   -0.2701 C   0  0  0  0  0  0  0  0  0  0  0  0
    1.1602    0.9957    0.0979 C   0  0  0  0  0  0  0  0  0  0  0  0
    2.9903   -1.0371   -0.6634 C   0  0  0  0  0  0  0  0  0  0  0  0
    2.6468    1.2442    0.0245 C   0  0  0  0  0  0  0  0  0  0  0  0
   -0.7412   -0.5060   -0.0405 C   0  0  0  0  0  0  0  0  0  0  0  0
    0.2804    2.0694    0.2887 C   0  0  0  0  0  0  0  0  0  0  0  0
   -1.6074    0.5684    0.1609 C   0  0  0  0  0  0  0  0  0  0  0  0
   -1.0973    1.8546    0.3229 C   0  0  0  0  0  0  0  0  0  0  0  0
   -1.4331   -2.5385    0.9824 C   0  0  0  0  0  0  0  0  0  0  0  0
   -3.6599    0.4670   -1.0361 C   0  0  0  0  0  0  0  0  0  0  0  0
  1  9  1  0
  1 13  1  0
  2 11  1  0
  2 14  1  0
  3  7  1  0
  3  8  1  0
  4  5  1  0
  4  6  2  0
  4  9  1  0
  5  7  1  0
  6  8  1  0
  6 10  1  0
  9 11  2  0
 10 12  2  0
 11 12  1  0
M  END
>  <PUBCHEM_COMPOUND_CID>  (1) 
45108

>  <PUBCHEM_CONFORMER_RMSD>  (1) 
0.6

>  <PUBCHEM_CONFORMER_DIVERSEORDER>  (1) 
1
3
2

>  <PUBCHEM_MMFF94_PARTIAL_CHARGES>  (1) 
17
1 -0.36
10 -0.15
11 0.08
12 -0.15
13 0.28
14 0.28
2 -0.36
21 0.36
22 0.15
23 0.15
3 -0.9
4 -0.14
5 0.14
6 -0.14
7 0.27
8 0.41
9 0.08

>  <PUBCHEM_EFFECTIVE_ROTOR_COUNT>  (1) 
2.8

>  <PUBCHEM_PHARMACOPHORE_FEATURES>  (1) 
6
1 1 acceptor
1 2 acceptor
1 3 cation
1 3 donor
6 3 4 5 6 7 8 rings
6 4 6 9 10 11 12 rings

>  <PUBCHEM_HEAVY_ATOM_COUNT>  (1) 
14

>  <PUBCHEM_ATOM_DEF_STEREO_COUNT>  (1) 
0

>  <PUBCHEM_ATOM_UDEF_STEREO_COUNT>  (1) 
0

>  <PUBCHEM_BOND_DEF_STEREO_COUNT>  (1) 
0

>  <PUBCHEM_BOND_UDEF_STEREO_COUNT>  (1) 
0

>  <PUBCHEM_ISOTOPIC_ATOM_COUNT>  (1) 
0

>  <PUBCHEM_COMPONENT_COUNT>  (1) 
1

>  <PUBCHEM_CACTVS_TAUTO_COUNT>  (1) 
1

>  <PUBCHEM_CONFORMER_ID>  (1) 
0000B03400000001

>  <PUBCHEM_MMFF94_ENERGY>  (1) 
52.8381

>  <PUBCHEM_FEATURE_SELFOVERLAP>  (1) 
30.473

>  <PUBCHEM_SHAPE_FINGERPRINT>  (1) 
10967382 1 18411983546363275146
11206711 2 18194126213461937892
11680986 33 18269272533394255800
12032990 46 18412270523219504727
12138202 97 18187642548212036751
12382932 28 18340768238541101194
12423570 1 11896465575068133384
12524768 44 18343027665990006502
12730499 353 17970336020230692549
13140716 1 18267868457135185472
13380535 21 18265913512349075144
13380535 76 18412258437118470654
13897977 150 18269272524804470456
14115302 16 18187938269748164998
14648413 74 18194398020488467953
14790565 3 16462224314874023225
14911166 2 18410292484420832764
16945 1 18410583863803254168
18186145 218 18336262332532305357
193761 8 17979074108674809217
20201158 50 18413388722250005190
20511035 2 18198338665898903436
20588541 1 18411700997502497572
20645476 183 17604161366846971598
21501502 16 18192717966757701063
22802520 49 18200615613120705150
2334 1 18051415359669919256
23402539 116 18270387300677055188
23402655 69 18272362032462075725
23552423 10 18262242251941004300
23559900 14 18411986871585899252
25 1 18190451667751804653
2748010 2 18124878116630625436
3312278 4 18337679723326955000
353137 74 18337950073979822289
5084963 1 17987232227170395561
528886 8 18341326764630760616
81228 2 18269845228781563072
8809292 202 18408328791367063698

>  <PUBCHEM_SHAPE_MULTIPOLES>  (1) 
271.39
4.88
2.35
0.82
0.02
0.62
0.04
-0.07
1.09
-0.38
-0.54
-0.3
0.16
0.52

>  <PUBCHEM_SHAPE_SELFOVERLAP>  (1) 
570.268

>  <PUBCHEM_SHAPE_VOLUME>  (1) 
152.7

>  <PUBCHEM_COORDINATE_TYPE>  (1) 
2
5
10

$$$$
