45101
     RDKit          3D

 16 17  0  0  0  0  0  0  0  0999 V2000
    2.2407   -2.3457    0.0002 O   0  0  0  0  0  0  0  0  0  0  0  0
    3.7779    0.0622    0.0002 C   0  0  0  0  0  0  0  0  0  0  0  0
    2.2848    0.0506   -0.0001 C   0  0  0  0  0  0  0  0  0  0  0  0
    1.5811   -1.1538    0.0001 C   0  0  0  0  0  0  0  0  0  0  0  0
    4.3596    0.7284    1.2606 C   0  0  0  0  0  0  0  0  0  0  0  0
    4.3602    0.7278   -1.2604 C   0  0  0  0  0  0  0  0  0  0  0  0
   -0.5048    0.0651   -0.0002 C   0  0  0  0  0  0  0  0  0  0  0  0
    1.5936    1.2622   -0.0004 C   0  0  0  0  0  0  0  0  0  0  0  0
    0.1863   -1.1465    0.0001 C   0  0  0  0  0  0  0  0  0  0  0  0
    0.1988    1.2694   -0.0005 C   0  0  0  0  0  0  0  0  0  0  0  0
   -1.9515    0.0729   -0.0003 C   0  0  0  0  0  0  0  0  0  0  0  0
   -2.6486    0.0767    1.2078 C   0  0  0  0  0  0  0  0  0  0  0  0
   -2.6493    0.0763   -1.2082 C   0  0  0  0  0  0  0  0  0  0  0  0
   -4.0435    0.0837    1.2082 C   0  0  0  0  0  0  0  0  0  0  0  0
   -4.0441    0.0834   -1.2077 C   0  0  0  0  0  0  0  0  0  0  0  0
   -4.7413    0.0872    0.0004 C   0  0  0  0  0  0  0  0  0  0  0  0
  1  4  1  0
  2  3  1  0
  2  5  1  0
  2  6  1  0
  3  4  2  0
  3  8  1  0
  4  9  1  0
  7  9  2  0
  7 10  1  0
  7 11  1  0
  8 10  2  0
 11 12  2  0
 11 13  1  0
 12 14  1  0
 13 15  2  0
 14 16  2  0
 15 16  1  0
M  END
>  <PUBCHEM_COMPOUND_CID>  (1) 
45101

>  <PUBCHEM_CONFORMER_RMSD>  (1) 
0.6

>  <PUBCHEM_CONFORMER_DIVERSEORDER>  (1) 
1
2

>  <PUBCHEM_MMFF94_PARTIAL_CHARGES>  (1) 
21
1 -0.53
10 -0.15
12 -0.15
13 -0.15
14 -0.15
15 -0.15
16 -0.15
2 0.14
24 0.15
25 0.15
26 0.15
27 0.15
28 0.15
29 0.45
3 -0.14
30 0.15
31 0.15
32 0.15
4 0.08
8 -0.15
9 -0.15

>  <PUBCHEM_EFFECTIVE_ROTOR_COUNT>  (1) 
2

>  <PUBCHEM_PHARMACOPHORE_FEATURES>  (1) 
4
1 1 donor
3 2 5 6 hydrophobe
6 11 12 13 14 15 16 rings
6 3 4 7 8 9 10 rings

>  <PUBCHEM_HEAVY_ATOM_COUNT>  (1) 
16

>  <PUBCHEM_ATOM_DEF_STEREO_COUNT>  (1) 
0

>  <PUBCHEM_ATOM_UDEF_STEREO_COUNT>  (1) 
0

>  <PUBCHEM_BOND_DEF_STEREO_COUNT>  (1) 
0

>  <PUBCHEM_BOND_UDEF_STEREO_COUNT>  (1) 
0

>  <PUBCHEM_ISOTOPIC_ATOM_COUNT>  (1) 
0

>  <PUBCHEM_COMPONENT_COUNT>  (1) 
1

>  <PUBCHEM_CACTVS_TAUTO_COUNT>  (1) 
3

>  <PUBCHEM_CONFORMER_ID>  (1) 
0000B02D00000001

>  <PUBCHEM_MMFF94_ENERGY>  (1) 
52.2491

>  <PUBCHEM_FEATURE_SELFOVERLAP>  (1) 
20.297

>  <PUBCHEM_SHAPE_FINGERPRINT>  (1) 
10354089 29 18272379667782065041
10465860 250 17022894653434359189
10980938 120 18412261709983738038
11132069 177 18409442618094210058
11401426 45 18342448261874527237
11471102 20 18409449180746118684
11543360 7 15769492127260805976
12236239 1 17632295675221714017
124424 183 17385434427896019425
12670546 56 17489586736194326097
13140716 1 18194117645402959512
13167823 11 15985107405165471700
13296908 3 18040719108749584171
13581323 91 15213017163149727995
13760787 5 18409732850556645228
14289901 80 15647341891557970388
14576447 43 18129930282672022023
14993402 34 17989204854294353301
15219456 202 17967533437351262103
15309172 13 18411982468400570775
15375358 24 17894911819475599187
16945 1 18410573998342438052
17834072 33 16487253304872253200
18186145 218 18131349730560807820
19026448 4 16298104285254521448
19026448 5 16272210790720658188
19784866 240 14332589786514993404
200 152 18271801337698358573
20279233 1 17676489432487505963
204376 136 18336265734025149162
20645477 70 18264200331784500879
22094290 60 15482954956039757737
22854114 59 18413385453721994248
23402539 116 16298658456600894495
23402655 69 18341045229788472949
23536379 177 15841559561343057180
23557571 272 16732983089691194709
23559900 14 17313661530282041354
2748010 2 18120930612463003340
296302 2 17530969093983441997
300161 21 17918268728179115385
4072396 5 18261657217413323408
474 4 17915728976283093328
4990 188 17132123433209774236
5104073 3 18338799992616004529
633830 44 18131358548144601364
7495541 125 17241053213751340593
77492 1 17703789206814725959
81539 233 18113338604974842906

>  <PUBCHEM_SHAPE_MULTIPOLES>  (1) 
323.4
9.49
1.3
1.18
1.19
0.56
0
-1.39
0
-1.15
0
0.35
-0.17
0

>  <PUBCHEM_SHAPE_SELFOVERLAP>  (1) 
693.458

>  <PUBCHEM_SHAPE_VOLUME>  (1) 
180.5

>  <PUBCHEM_COORDINATE_TYPE>  (1) 
2
5
10

$$$$
