45110
     RDKit          3D

 28 30  0  0  1  0  0  0  0  0999 V2000
    7.0368   -2.6271   -0.3564 Cl  0  0  0  0  0  0  0  0  0  0  0  0
   -2.4989   -1.8383    1.1470 O   0  0  0  0  0  0  0  0  0  0  0  0
   -3.9062   -0.8882   -1.0510 O   0  0  0  0  0  0  0  0  0  0  0  0
   -1.0222   -2.9284   -0.3057 O   0  0  0  0  0  0  0  0  0  0  0  0
   -5.3473    0.2299    0.4161 O   0  0  0  0  0  0  0  0  0  0  0  0
    0.7884    3.3508    0.3386 N   0  0  0  0  0  0  0  0  0  0  0  0
    0.4728    2.0953    1.0723 C   0  0  0  0  0  0  0  0  0  0  0  0
   -0.7045    1.3017    0.4995 C   0  0  0  0  0  0  0  0  0  0  0  0
   -0.4161    4.0194   -0.1673 C   0  0  0  0  0  0  0  0  0  0  0  0
    1.7364    1.2135    1.0774 C   0  0  0  0  0  0  0  0  0  0  0  0
   -1.1110    3.1243   -1.1881 C   0  0  0  0  0  0  0  0  0  0  0  0
   -1.4564    1.7959   -0.5804 C   0  0  0  0  0  0  0  0  0  0  0  0
    2.1125    0.8048   -0.3393 C   0  0  0  0  0  0  0  0  0  0  0  0
    1.5456    4.2916    1.1733 C   0  0  0  0  0  0  0  0  0  0  0  0
   -1.0908    0.0814    1.0809 C   0  0  0  0  0  0  0  0  0  0  0  0
   -2.5180    1.0439   -1.1045 C   0  0  0  0  0  0  0  0  0  0  0  0
   -2.1590   -0.6543    0.5650 C   0  0  0  0  0  0  0  0  0  0  0  0
   -2.8664   -0.1776   -0.5334 C   0  0  0  0  0  0  0  0  0  0  0  0
    3.3494   -0.0568   -0.3422 C   0  0  0  0  0  0  0  0  0  0  0  0
    4.5964    0.5410   -0.4472 C   0  0  0  0  0  0  0  0  0  0  0  0
    3.2205   -1.4342   -0.2412 C   0  0  0  0  0  0  0  0  0  0  0  0
    5.7408   -0.2567   -0.4512 C   0  0  0  0  0  0  0  0  0  0  0  0
    4.3649   -2.2318   -0.2451 C   0  0  0  0  0  0  0  0  0  0  0  0
    5.6249   -1.6430   -0.3501 C   0  0  0  0  0  0  0  0  0  0  0  0
   -1.8378   -2.9527    0.6064 C   0  0  0  0  0  0  0  0  0  0  0  0
   -5.1507   -0.5859   -0.4747 C   0  0  0  0  0  0  0  0  0  0  0  0
   -2.2780   -4.2016    1.3111 C   0  0  0  0  0  0  0  0  0  0  0  0
   -6.2259   -1.4169   -1.1098 C   0  0  0  0  0  0  0  0  0  0  0  0
  1 24  1  0
  2 17  1  0
  2 25  1  0
  3 18  1  0
  3 26  1  0
  4 25  2  0
  5 26  2  0
  6  7  1  0
  6  9  1  0
  6 14  1  0
  7  8  1  0
  7 10  1  0
  8 12  2  0
  8 15  1  0
  9 11  1  0
 10 13  1  0
 11 12  1  0
 12 16  1  0
 13 19  1  0
 15 17  2  0
 16 18  2  0
 17 18  1  0
 19 20  2  0
 19 21  1  0
 20 22  1  0
 21 23  2  0
 22 24  2  0
 23 24  1  0
 25 27  1  0
 26 28  1  0
M  END
>  <PUBCHEM_COMPOUND_CID>  (1) 
45110

>  <PUBCHEM_CONFORMER_RMSD>  (1) 
0.8

>  <PUBCHEM_CONFORMER_DIVERSEORDER>  (1) 
1
44
67
60
97
81
45
92
50
51
37
58
47
55
91
89
72
61
78
56
57
64
65
83
38
5
36
93
80
49
86
98
25
53
19
23
48
66
82
31
46
24
90
52
17
16
30
94
68
63
87
99
43
12
27
75
95
26
54
59
6
20
79
35
4
29
76
85
13
77
3
69
32
100
33
41
11
73
84
42
96
9
62
28
21
71
22
74
70
18
2
10
88
7
34
39
8
15
40
14

>  <PUBCHEM_MMFF94_PARTIAL_CHARGES>  (1) 
33
1 -0.18
11 0.14
12 -0.14
13 0.14
14 0.27
15 -0.15
16 -0.15
17 0.08
18 0.08
19 -0.14
2 -0.23
20 -0.15
21 -0.15
22 -0.15
23 -0.15
24 0.18
25 0.66
26 0.66
27 0.06
28 0.06
3 -0.23
4 -0.57
41 0.15
42 0.15
43 0.15
44 0.15
45 0.15
46 0.15
5 -0.57
6 -0.81
7 0.41
8 -0.14
9 0.27

>  <PUBCHEM_EFFECTIVE_ROTOR_COUNT>  (1) 
7.8

>  <PUBCHEM_PHARMACOPHORE_FEATURES>  (1) 
6
1 4 acceptor
1 5 acceptor
1 6 cation
6 19 20 21 22 23 24 rings
6 6 7 8 9 11 12 rings
6 8 12 15 16 17 18 rings

>  <PUBCHEM_HEAVY_ATOM_COUNT>  (1) 
28

>  <PUBCHEM_ATOM_DEF_STEREO_COUNT>  (1) 
0

>  <PUBCHEM_ATOM_UDEF_STEREO_COUNT>  (1) 
1

>  <PUBCHEM_BOND_DEF_STEREO_COUNT>  (1) 
0

>  <PUBCHEM_BOND_UDEF_STEREO_COUNT>  (1) 
0

>  <PUBCHEM_ISOTOPIC_ATOM_COUNT>  (1) 
0

>  <PUBCHEM_COMPONENT_COUNT>  (1) 
1

>  <PUBCHEM_CACTVS_TAUTO_COUNT>  (1) 
1

>  <PUBCHEM_CONFORMER_ID>  (1) 
0000B03600000001

>  <PUBCHEM_MMFF94_ENERGY>  (1) 
79.3149

>  <PUBCHEM_FEATURE_SELFOVERLAP>  (1) 
30.469

>  <PUBCHEM_SHAPE_FINGERPRINT>  (1) 
10483366 6 18265042553870676533
10693767 8 18199164314008010599
12107183 9 18130797720474951209
12166972 35 18186524285205212628
12553582 1 18410000040139865528
12760667 363 18411986823513168250
12788726 201 18264763260204686810
13402501 40 18412262835054465534
13533116 47 17985826163064361177
13544592 145 18337103583613461169
13631057 29 18339924797738780398
14068700 675 17775001301611031585
14251757 5 18335140847936355850
14347332 77 18265612083529515158
14394314 77 18340770321511004368
14863182 85 16966901212098959352
14866123 147 18268435642274844945
14931854 50 18188770539990135606
15064986 266 18261690172713410884
15351339 4 18044084670887870066
15475509 8 18409444774632386669
17492 89 18052816146575313871
19319366 153 17458612411213705642
20775438 99 17763995332278735623
20832881 197 18342737408290628217
21307412 95 18409449211006822439
23559900 14 18267580389167358441
23569943 247 18341047424580883323
3004659 81 18259983752310802574
3027735 51 18195529181782820123
3383291 50 18409164411488346875
3421961 26 18270956963575306169
3729539 64 18261947458376827427
394222 165 13827575488192920113
4280585 95 18335692893131278072
437815 12 18342458144831639277
46194498 28 17822569529156868268
463206 1 18410013260292347718
563151 74 16914802897963231240
6138700 20 18411135801724604159
9709674 26 18049998098130275283

>  <PUBCHEM_SHAPE_MULTIPOLES>  (1) 
549.64
12.78
5.14
1.17
10.57
1.98
0.12
-12.48
-4.33
-0.32
1.41
-0.71
0.1
1.29

>  <PUBCHEM_SHAPE_SELFOVERLAP>  (1) 
1160.572

>  <PUBCHEM_SHAPE_VOLUME>  (1) 
308.8

>  <PUBCHEM_COORDINATE_TYPE>  (1) 
2
5
10

$$$$
