45116
     RDKit          3D

 13 14  0  0  0  0  0  0  0  0999 V2000
   -2.6948   -0.5304   -0.3926 O   0  0  0  0  0  0  0  0  0  0  0  0
    3.6026    0.2200    0.5729 N   0  0  0  0  0  0  0  0  0  0  0  0
    2.0651   -1.6254    0.0662 C   0  0  0  0  0  0  0  0  0  0  0  0
    0.9557   -0.6134   -0.0656 C   0  0  0  0  0  0  0  0  0  0  0  0
    1.2431    0.7621   -0.0130 C   0  0  0  0  0  0  0  0  0  0  0  0
    3.4468   -1.0197   -0.1870 C   0  0  0  0  0  0  0  0  0  0  0  0
    2.6702    1.2427    0.0851 C   0  0  0  0  0  0  0  0  0  0  0  0
   -0.3734   -1.0401   -0.1826 C   0  0  0  0  0  0  0  0  0  0  0  0
    0.1983    1.6900   -0.1156 C   0  0  0  0  0  0  0  0  0  0  0  0
   -1.4067   -0.1078   -0.2731 C   0  0  0  0  0  0  0  0  0  0  0  0
   -1.1210    1.2553   -0.2419 C   0  0  0  0  0  0  0  0  0  0  0  0
   -3.7081    0.3114    0.1555 C   0  0  0  0  0  0  0  0  0  0  0  0
   -4.8778   -0.5447    0.5917 C   0  0  0  0  0  0  0  0  0  0  0  0
  1 10  1  0
  1 12  1  0
  2  6  1  0
  2  7  1  0
  3  4  1  0
  3  6  1  0
  4  5  2  0
  4  8  1  0
  5  7  1  0
  5  9  1  0
  8 10  2  0
  9 11  2  0
 10 11  1  0
 12 13  1  0
M  END
>  <PUBCHEM_COMPOUND_CID>  (1) 
45116

>  <PUBCHEM_CONFORMER_RMSD>  (1) 
0.6

>  <PUBCHEM_CONFORMER_DIVERSEORDER>  (1) 
1
4
2
3

>  <PUBCHEM_MMFF94_PARTIAL_CHARGES>  (1) 
16
1 -0.36
10 0.08
11 -0.15
12 0.28
2 -0.9
20 0.36
21 0.15
22 0.15
23 0.15
3 0.14
4 -0.14
5 -0.14
6 0.27
7 0.41
8 -0.15
9 -0.15

>  <PUBCHEM_EFFECTIVE_ROTOR_COUNT>  (1) 
2.8

>  <PUBCHEM_PHARMACOPHORE_FEATURES>  (1) 
5
1 1 acceptor
1 2 cation
1 2 donor
6 2 3 4 5 6 7 rings
6 4 5 8 9 10 11 rings

>  <PUBCHEM_HEAVY_ATOM_COUNT>  (1) 
13

>  <PUBCHEM_ATOM_DEF_STEREO_COUNT>  (1) 
0

>  <PUBCHEM_ATOM_UDEF_STEREO_COUNT>  (1) 
0

>  <PUBCHEM_BOND_DEF_STEREO_COUNT>  (1) 
0

>  <PUBCHEM_BOND_UDEF_STEREO_COUNT>  (1) 
0

>  <PUBCHEM_ISOTOPIC_ATOM_COUNT>  (1) 
0

>  <PUBCHEM_COMPONENT_COUNT>  (1) 
1

>  <PUBCHEM_CACTVS_TAUTO_COUNT>  (1) 
1

>  <PUBCHEM_CONFORMER_ID>  (1) 
0000B03C00000001

>  <PUBCHEM_MMFF94_ENERGY>  (1) 
31.9893

>  <PUBCHEM_FEATURE_SELFOVERLAP>  (1) 
25.393

>  <PUBCHEM_SHAPE_FINGERPRINT>  (1) 
10219947 1 18341896290105310999
11132069 177 18341883108602753202
11471102 20 18410851070713861445
11543360 7 15285652005192901951
12032990 46 18408888403829955759
12251169 10 18343022207413601303
12346645 6 18202004326038866094
13675066 3 18412261748859911873
14251717 144 18411415133290795583
14252887 29 18271534121332991339
14325111 11 18411416206832139981
15219456 202 18336538331251692221
15501101 241 18409164432767296061
15536298 74 18272932721835358980
16945 1 18410564098516595996
17844478 74 18113334193800531733
19026448 5 16343694452383904557
193761 8 17617657000304672708
200 152 18202272624994636695
20201158 50 18334012787217793186
20645477 70 18340196406790906495
20871998 22 18270407066032369694
21267235 1 18411709763530898174
21501925 9 18409445882163821025
23402539 116 18342164566457688679
23463225 33 18411136922283404156
23552423 10 18261955150720529844
25610 137 18408886221949828036
2748010 2 18194953059365103876
42 15 18410015433777303987
449060 62 18342177799568405960
5104073 3 18338795611253724289
53655031 270 18343585131317735105
537710 114 18409454712506110772
53812653 166 18272082863661048888
7364860 26 18341332292507365324
8809292 202 18186525431450323043

>  <PUBCHEM_SHAPE_MULTIPOLES>  (1) 
256.68
7.16
1.59
0.68
6.12
0.18
-0.02
-1.54
-1.34
-0.81
0.04
0.07
-0.01
0.19

>  <PUBCHEM_SHAPE_SELFOVERLAP>  (1) 
535.291

>  <PUBCHEM_SHAPE_VOLUME>  (1) 
145.3

>  <PUBCHEM_COORDINATE_TYPE>  (1) 
2
5
10

$$$$
