45127
     RDKit          3D

 13 13  0  0  1  0  0  0  0  0999 V2000
   -1.1408   -0.9922    0.1267 S   0  0  0  0  0  0  0  0  0  0  0  0
    1.3428   -2.6224   -0.0923 O   0  0  0  0  0  0  0  0  0  0  0  0
    2.5061    2.5758    0.0971 O   0  0  0  0  0  0  0  0  0  0  0  0
   -4.4028    0.9251   -0.7521 O   0  0  0  0  0  0  0  0  0  0  0  0
   -3.9363   -0.5201    0.9387 O   0  0  0  0  0  0  0  0  0  0  0  0
    0.4909   -0.3655   -0.3749 C   0  0  0  0  0  0  0  0  0  0  0  0
    0.7949    0.9186    0.3836 C   0  0  0  0  0  0  0  0  0  0  0  0
    1.5643   -1.4141   -0.1423 C   0  0  0  0  0  0  0  0  0  0  0  0
    2.2094    1.3833    0.1275 C   0  0  0  0  0  0  0  0  0  0  0  0
    2.9707   -0.9426   -0.0776 C   0  0  0  0  0  0  0  0  0  0  0  0
    3.2690    0.3558    0.0050 C   0  0  0  0  0  0  0  0  0  0  0  0
   -2.1121    0.4742   -0.2832 C   0  0  0  0  0  0  0  0  0  0  0  0
   -3.5561    0.2240    0.0437 C   0  0  0  0  0  0  0  0  0  0  0  0
  1  6  1  0
  1 12  1  0
  2  8  2  0
  3  9  2  0
  4 13  1  0
  5 13  2  0
  6  7  1  0
  6  8  1  0
  7  9  1  0
  8 10  1  0
  9 11  1  0
 10 11  2  0
 12 13  1  0
M  END
>  <PUBCHEM_COMPOUND_CID>  (1) 
45127

>  <PUBCHEM_CONFORMER_RMSD>  (1) 
0.6

>  <PUBCHEM_CONFORMER_DIVERSEORDER>  (1) 
1
22
27
19
32
28
13
2
21
30
33
20
15
29
26
3
25
10
9
16
4
8
24
5
31
14
23
6
18
12
17
7
11

>  <PUBCHEM_MMFF94_PARTIAL_CHARGES>  (1) 
16
1 -0.46
10 -0.14
11 -0.14
12 0.29
13 0.66
17 0.15
18 0.15
2 -0.57
21 0.5
3 -0.57
4 -0.65
5 -0.57
6 0.29
7 0.06
8 0.49
9 0.49

>  <PUBCHEM_EFFECTIVE_ROTOR_COUNT>  (1) 
3.4

>  <PUBCHEM_PHARMACOPHORE_FEATURES>  (1) 
6
1 2 acceptor
1 3 acceptor
1 4 acceptor
1 5 acceptor
3 4 5 13 anion
6 6 7 8 9 10 11 rings

>  <PUBCHEM_HEAVY_ATOM_COUNT>  (1) 
13

>  <PUBCHEM_ATOM_DEF_STEREO_COUNT>  (1) 
0

>  <PUBCHEM_ATOM_UDEF_STEREO_COUNT>  (1) 
1

>  <PUBCHEM_BOND_DEF_STEREO_COUNT>  (1) 
0

>  <PUBCHEM_BOND_UDEF_STEREO_COUNT>  (1) 
0

>  <PUBCHEM_ISOTOPIC_ATOM_COUNT>  (1) 
0

>  <PUBCHEM_COMPONENT_COUNT>  (1) 
1

>  <PUBCHEM_CACTVS_TAUTO_COUNT>  (1) 
4

>  <PUBCHEM_CONFORMER_ID>  (1) 
0000B04700000001

>  <PUBCHEM_MMFF94_ENERGY>  (1) 
23.0663

>  <PUBCHEM_FEATURE_SELFOVERLAP>  (1) 
30.506

>  <PUBCHEM_SHAPE_FINGERPRINT>  (1) 
10608611 8 18335137596582718173
10980938 120 18413106156172337670
11471102 20 18411978035841106756
11615757 297 18202569479679599875
12654215 9 18336824204353846716
13380535 76 18409728490790748067
13380536 305 18411985793047941420
13922767 16 18410851057987189016
14123255 52 18123187080854093064
14251717 144 18341890770898398815
14325111 11 18410574028417693665
14415576 193 18408042930880590813
14897335 6 18270955851299504743
15219456 202 18334859437236149667
15442244 35 17981610359935524737
15501101 241 18260832566153919596
15775835 57 18129383850703696404
16945 1 18411978036052213662
18186145 218 18272097097229919459
20201158 50 18409450250040215491
20279233 1 18186804660654665443
20606313 2 18411417289369438500
20645477 70 18342452587444788415
20871998 22 17912366429418272894
21501502 16 18268142243930713718
21639500 275 18341883117356322189
21730867 7 18408041801319704199
22096605 113 18412820313609395925
22854114 111 18412262848002202981
22892500 29 18409722941719050909
23402655 69 18343298141782416525
23532345 1 18410571795277325437
23557571 272 17385441008403030869
25 1 18410011052657551902
2748010 2 18195254531836034494
3060560 45 18273215266391198558
581208 293 18341324561027707581
7364860 26 18342177726453923670
81539 233 18335138713115758324

>  <PUBCHEM_SHAPE_MULTIPOLES>  (1) 
247.91
6.98
2.07
0.72
7.55
0.05
0.02
-1.63
-0.03
-1.91
0
0.34
0
0.47

>  <PUBCHEM_SHAPE_SELFOVERLAP>  (1) 
491.076

>  <PUBCHEM_SHAPE_VOLUME>  (1) 
147

>  <PUBCHEM_COORDINATE_TYPE>  (1) 
2
5
10

$$$$
