45122
     RDKit          3D

 23 24  0  0  1  0  0  0  0  0999 V2000
   -0.2204   -0.4968    1.5375 O   0  0  0  0  0  0  0  0  0  0  0  0
   -0.0208   -2.6904    0.8412 O   0  0  0  0  0  0  0  0  0  0  0  0
   -3.5737   -0.6354   -0.9969 N   0  0  0  0  0  0  0  0  0  0  0  0
    0.0930   -0.0467    0.2027 C   0  0  0  0  0  0  0  0  0  0  0  0
   -1.0897   -0.6087   -0.6919 C   0  0  0  0  0  0  0  0  0  0  0  0
   -2.4704   -0.0653   -0.2262 C   0  0  0  0  0  0  0  0  0  0  0  0
    1.4931   -0.5641   -0.1875 C   0  0  0  0  0  0  0  0  0  0  0  0
    0.1426    1.4941    0.2103 C   0  0  0  0  0  0  0  0  0  0  0  0
   -0.9000   -0.2670   -2.1875 C   0  0  0  0  0  0  0  0  0  0  0  0
    2.5809    0.1966    0.1516 C   0  0  0  0  0  0  0  0  0  0  0  0
    0.4696    2.1372   -0.9549 C   0  0  0  0  0  0  0  0  0  0  0  0
    1.5783   -1.7580   -0.8539 C   0  0  0  0  0  0  0  0  0  0  0  0
   -0.1424    2.1451    1.3822 C   0  0  0  0  0  0  0  0  0  0  0  0
   -3.5946   -2.0916   -0.8613 C   0  0  0  0  0  0  0  0  0  0  0  0
   -4.8491   -0.0642   -0.5646 C   0  0  0  0  0  0  0  0  0  0  0  0
   -0.2391   -1.8454    1.6988 C   0  0  0  0  0  0  0  0  0  0  0  0
    3.8467   -0.2709   -0.2017 C   0  0  0  0  0  0  0  0  0  0  0  0
    0.5149    3.5314   -0.9479 C   0  0  0  0  0  0  0  0  0  0  0  0
    2.8441   -2.2257   -1.2070 C   0  0  0  0  0  0  0  0  0  0  0  0
   -0.0972    3.5393    1.3893 C   0  0  0  0  0  0  0  0  0  0  0  0
    3.9783   -1.4820   -0.8809 C   0  0  0  0  0  0  0  0  0  0  0  0
    0.2314    4.2323    0.2241 C   0  0  0  0  0  0  0  0  0  0  0  0
   -0.5756   -2.1637    3.1242 C   0  0  0  0  0  0  0  0  0  0  0  0
  1  4  1  0
  1 16  1  0
  2 16  2  0
  3  6  1  0
  3 14  1  0
  3 15  1  0
  4  5  1  0
  4  7  1  0
  4  8  1  0
  5  6  1  0
  5  9  1  0
  7 10  2  0
  7 12  1  0
  8 11  2  0
  8 13  1  0
 10 17  1  0
 11 18  1  0
 12 19  2  0
 13 20  2  0
 16 23  1  0
 17 21  2  0
 18 22  2  0
 19 21  1  0
 20 22  1  0
M  END
>  <PUBCHEM_COMPOUND_CID>  (1) 
45122

>  <PUBCHEM_CONFORMER_RMSD>  (1) 
0.8

>  <PUBCHEM_CONFORMER_DIVERSEORDER>  (1) 
3
4
13
9
12
1
2
11
5
10
8
6
7

>  <PUBCHEM_MMFF94_PARTIAL_CHARGES>  (1) 
31
1 -0.43
10 -0.15
11 -0.15
12 -0.15
13 -0.15
14 0.27
15 0.27
16 0.66
17 -0.15
18 -0.15
19 -0.15
2 -0.57
20 -0.15
21 -0.15
22 -0.15
23 0.06
3 -0.81
30 0.15
31 0.15
32 0.15
33 0.15
4 0.57
40 0.15
41 0.15
42 0.15
43 0.15
44 0.15
45 0.15
6 0.27
7 -0.14
8 -0.14

>  <PUBCHEM_EFFECTIVE_ROTOR_COUNT>  (1) 
7

>  <PUBCHEM_PHARMACOPHORE_FEATURES>  (1) 
5
1 2 acceptor
1 3 cation
1 9 hydrophobe
6 7 10 12 17 19 21 rings
6 8 11 13 18 20 22 rings

>  <PUBCHEM_HEAVY_ATOM_COUNT>  (1) 
23

>  <PUBCHEM_ATOM_DEF_STEREO_COUNT>  (1) 
0

>  <PUBCHEM_ATOM_UDEF_STEREO_COUNT>  (1) 
1

>  <PUBCHEM_BOND_DEF_STEREO_COUNT>  (1) 
0

>  <PUBCHEM_BOND_UDEF_STEREO_COUNT>  (1) 
0

>  <PUBCHEM_ISOTOPIC_ATOM_COUNT>  (1) 
0

>  <PUBCHEM_COMPONENT_COUNT>  (1) 
1

>  <PUBCHEM_CACTVS_TAUTO_COUNT>  (1) 
1

>  <PUBCHEM_CONFORMER_ID>  (1) 
0000B04200000003

>  <PUBCHEM_MMFF94_ENERGY>  (1) 
98.7957

>  <PUBCHEM_FEATURE_SELFOVERLAP>  (1) 
25.371

>  <PUBCHEM_SHAPE_FINGERPRINT>  (1) 
10906281 52 18336558208714064536
12035758 1 18116709814614476952
12035759 4 17830166905348860045
121448 382 17897731955448322838
12293681 4 18408892823551913067
12788726 201 18336551495637508776
13004483 165 18199180698585174695
13134695 92 18059848502391897341
13149001 5 18115029743635846875
13544592 271 18266735981970814648
13681431 1 18339931540099190764
14713325 29 17698729099574290814
14787075 74 18335138721610890500
15490181 7 17397837782614849408
16945 1 18200308947923108245
17876694 64 16844748519711416643
18785283 64 17977102684468644669
20197701 30 8214134140825417693
20511035 2 17541082608210577240
20600515 1 17967247628947748212
20602899 9 17168718422740660362
21285901 2 17487616312931612181
21524375 3 17399486401527202597
22907989 373 17827117006555145902
229495 10 17478907429052147811
23402539 116 18410006603277434534
23419403 2 17754758326229008707
23526113 38 18261672683094950274
23558518 356 18121227480792439236
23559900 14 18129644423056071591
238 59 17764589111322115375
283562 15 18265333911229563890
3250762 1 17756434020541147794
3380486 77 17676477325080213264
497634 4 16630256814448026222
5845 1 13023446817268494012
6443956 14 18342453768191561949
68419 9 17541362554099517058
70251023 43 18199478670853340830
7164475 11 18123748643495745614
7364860 26 18127121107587751613
81228 2 18264501598181228648
9981440 41 17261297615416415009

>  <PUBCHEM_SHAPE_MULTIPOLES>  (1) 
456.61
5.35
4.37
1.99
2.12
5.33
-1.29
-4.18
2.83
-0.3
-0.98
0.52
-1.04
0.19

>  <PUBCHEM_SHAPE_SELFOVERLAP>  (1) 
968.232

>  <PUBCHEM_SHAPE_VOLUME>  (1) 
253.8

>  <PUBCHEM_COORDINATE_TYPE>  (1) 
2
5
10

$$$$
