45124
     RDKit          3D

 31 34  0  0  0  0  0  0  0  0999 V2000
    1.7688    0.3661   -0.0441 O   0  0  0  0  0  0  0  0  0  0  0  0
    0.6586    1.9309    1.2280 O   0  0  0  0  0  0  0  0  0  0  0  0
    5.3990    0.9673   -0.2910 N   0  0  0  0  0  0  0  0  0  0  0  0
   -0.5796    0.1063    0.1373 C   0  0  0  0  0  0  0  0  0  0  0  0
   -0.5297   -1.3385    0.5288 C   0  0  0  0  0  0  0  0  0  0  0  0
   -1.8790    0.7956    0.5692 C   0  0  0  0  0  0  0  0  0  0  0  0
   -1.0598   -2.3501   -0.2887 C   0  0  0  0  0  0  0  0  0  0  0  0
   -2.4154    1.8312   -0.1798 C   0  0  0  0  0  0  0  0  0  0  0  0
    0.6599    0.9222    0.5338 C   0  0  0  0  0  0  0  0  0  0  0  0
    4.1230    0.3005   -0.5036 C   0  0  0  0  0  0  0  0  0  0  0  0
   -0.9809   -3.6971    0.1384 C   0  0  0  0  0  0  0  0  0  0  0  0
   -3.6173    2.4258    0.2724 C   0  0  0  0  0  0  0  0  0  0  0  0
    0.0690   -1.6504    1.7498 C   0  0  0  0  0  0  0  0  0  0  0  0
   -2.4587    0.3214    1.7276 C   0  0  0  0  0  0  0  0  0  0  0  0
    3.0034    1.0452    0.2059 C   0  0  0  0  0  0  0  0  0  0  0  0
    5.7132    1.0419    1.1379 C   0  0  0  0  0  0  0  0  0  0  0  0
    6.4718    0.2742   -1.0086 C   0  0  0  0  0  0  0  0  0  0  0  0
   -1.6660   -2.0546   -1.5206 C   0  0  0  0  0  0  0  0  0  0  0  0
   -1.8153    2.3053   -1.3578 C   0  0  0  0  0  0  0  0  0  0  0  0
   -0.3744   -3.9928    1.3702 C   0  0  0  0  0  0  0  0  0  0  0  0
   -4.2176    1.9516    1.4503 C   0  0  0  0  0  0  0  0  0  0  0  0
    0.1468   -2.9749    2.1696 C   0  0  0  0  0  0  0  0  0  0  0  0
   -3.6410    0.9062    2.1720 C   0  0  0  0  0  0  0  0  0  0  0  0
   -1.5107   -4.7088   -0.6788 C   0  0  0  0  0  0  0  0  0  0  0  0
   -4.1838    3.4772   -0.4665 C   0  0  0  0  0  0  0  0  0  0  0  0
   -2.1873   -3.0724   -2.3197 C   0  0  0  0  0  0  0  0  0  0  0  0
   -2.3920    3.3510   -2.0792 C   0  0  0  0  0  0  0  0  0  0  0  0
   -2.1099   -4.3970   -1.8997 C   0  0  0  0  0  0  0  0  0  0  0  0
   -3.5740    3.9359   -1.6345 C   0  0  0  0  0  0  0  0  0  0  0  0
    7.0098    1.7970    1.3762 C   0  0  0  0  0  0  0  0  0  0  0  0
    6.1689    0.1838   -2.4947 C   0  0  0  0  0  0  0  0  0  0  0  0
  1  9  1  0
  1 15  1  0
  2  9  2  0
  3 10  1  0
  3 16  1  0
  3 17  1  0
  4  5  1  0
  4  6  1  0
  4  9  1  0
  5  7  1  0
  5 13  2  0
  6  8  1  0
  6 14  2  0
  7 11  2  0
  7 18  1  0
  8 12  2  0
  8 19  1  0
 10 15  1  0
 11 20  1  0
 11 24  1  0
 12 21  1  0
 12 25  1  0
 13 22  1  0
 14 23  1  0
 16 30  1  0
 17 31  1  0
 18 26  2  0
 19 27  2  0
 20 22  2  0
 21 23  2  0
 24 28  2  0
 25 29  2  0
 26 28  1  0
 27 29  1  0
M  END
>  <PUBCHEM_COMPOUND_CID>  (1) 
45124

>  <PUBCHEM_CONFORMER_RMSD>  (1) 
1

>  <PUBCHEM_CONFORMER_DIVERSEORDER>  (1) 
1
47
155
103
143
44
142
145
46
70
150
109
104
67
94
64
19
92
136
110
24
111
27
22
12
33
118
126
52
21
127
68
133
123
137
11
71
140
86
152
117
69
81
30
99
55
79
125
98
91
49
116
129
41
53
37
151
87
61
31
157
78
62
95
147
38
75
72
77
107
114
122
156
134
5
50
34
153
108
3
43
40
115
97
51
106
66
138
54
139
36
132
57
154
39
149
83
65
8
16
2
93
105
25
131
26
80
59
45
113
58
4
82
7
28
120
112
32
35
100
96
9
14
17
29
124
158
89
141
146
148
76
119
63
73
128
42
85
101
88
74
13
90
23
10
84
121
130
102
18
20
135
56
144
60
15
48
6

>  <PUBCHEM_MMFF94_PARTIAL_CHARGES>  (1) 
39
1 -0.43
10 0.27
13 -0.15
14 -0.15
15 0.28
16 0.27
17 0.27
18 -0.15
19 -0.15
2 -0.57
20 -0.15
21 -0.15
22 -0.15
23 -0.15
24 -0.15
25 -0.15
26 -0.15
27 -0.15
28 -0.15
29 -0.15
3 -0.81
35 0.15
36 0.15
4 0.35
43 0.15
44 0.15
45 0.15
46 0.15
47 0.15
48 0.15
49 0.15
5 -0.14
50 0.15
51 0.15
52 0.15
53 0.15
54 0.15
6 -0.14
9 0.66

>  <PUBCHEM_EFFECTIVE_ROTOR_COUNT>  (1) 
9

>  <PUBCHEM_PHARMACOPHORE_FEATURES>  (1) 
6
1 2 acceptor
1 3 cation
6 5 7 11 13 20 22 rings
6 6 8 12 14 21 23 rings
6 7 11 18 24 26 28 rings
6 8 12 19 25 27 29 rings

>  <PUBCHEM_HEAVY_ATOM_COUNT>  (1) 
31

>  <PUBCHEM_ATOM_DEF_STEREO_COUNT>  (1) 
0

>  <PUBCHEM_ATOM_UDEF_STEREO_COUNT>  (1) 
0

>  <PUBCHEM_BOND_DEF_STEREO_COUNT>  (1) 
0

>  <PUBCHEM_BOND_UDEF_STEREO_COUNT>  (1) 
0

>  <PUBCHEM_ISOTOPIC_ATOM_COUNT>  (1) 
0

>  <PUBCHEM_COMPONENT_COUNT>  (1) 
1

>  <PUBCHEM_CACTVS_TAUTO_COUNT>  (1) 
1

>  <PUBCHEM_CONFORMER_ID>  (1) 
0000B04400000001

>  <PUBCHEM_MMFF94_ENERGY>  (1) 
96.6822

>  <PUBCHEM_FEATURE_SELFOVERLAP>  (1) 
30.499

>  <PUBCHEM_SHAPE_FINGERPRINT>  (1) 
10254770 206 17834678194045026206
10369192 42 18264790773839622429
11007060 377 18341888610477302768
11578080 2 16668845102205062885
11720765 8 17333357404525093639
11991303 11 18338249205814935846
12160290 23 18195556849919735130
12788726 201 18192971906652247675
13540713 4 17390806466375920473
13681431 1 17260184394257700323
13911987 19 18269838618658420493
140371 6 17038944512475190209
14659021 117 18122894589538865546
14856354 85 17240780492234646896
15463212 79 18334563634190627720
18470217 77 18053354859917670616
19958102 18 18343018882945430166
20600515 1 17398073511768043417
21033648 29 18336546028261088376
21133665 82 18193855743309823614
21304303 282 18263624269121760718
21756936 100 18040158418302388624
23559900 14 11439115132936272337
255183 313 18411709806812725137
3298306 158 18118126879207902538
3388396 114 17396438559732810228
3610482 184 17896055372415447308
3729539 64 17981626870307113326
376196 1 17899700059312413249
38695281 34 18195521502338863026
4015057 19 17203605995820868136
44802255 64 18116740476934616262
46194498 28 17470429748311063021
5080951 261 18200297935970021466
508706 21 18339652256283989774
5219985 13 18188772734602171388
57527452 28 18059583533728716515
57527585 103 16810390052564227984
59755656 520 18059301976008203065
6669772 16 18198913508864992998
6698420 124 17845951636296171776
70251023 43 17697595850868043810
81228 2 18050557749374844313

>  <PUBCHEM_SHAPE_MULTIPOLES>  (1) 
621.25
11.5
6.32
2.37
30.89
6.12
0.41
-12.57
1.39
-8.54
2.5
-0.37
0.58
0.19

>  <PUBCHEM_SHAPE_SELFOVERLAP>  (1) 
1353.076

>  <PUBCHEM_SHAPE_VOLUME>  (1) 
339.5

>  <PUBCHEM_COORDINATE_TYPE>  (1) 
2
5
10

$$$$
