45126
     RDKit          3D

 31 34  0  0  0  0  0  0  0  0999 V2000
    1.3335   -2.1729   -0.1241 O   0  0  0  0  0  0  0  0  0  0  0  0
   -0.6031   -2.6174    1.0382 O   0  0  0  0  0  0  0  0  0  0  0  0
    4.0836   -1.7195    0.3821 N   0  0  0  0  0  0  0  0  0  0  0  0
   -0.6216   -1.0625   -0.8731 C   0  0  0  0  0  0  0  0  0  0  0  0
    0.1698    0.2518   -0.9313 C   0  0  0  0  0  0  0  0  0  0  0  0
   -2.0915   -0.8536   -0.7281 C   0  0  0  0  0  0  0  0  0  0  0  0
    3.5160   -3.0587    0.3338 C   0  0  0  0  0  0  0  0  0  0  0  0
   -0.0052   -2.0508    0.1320 C   0  0  0  0  0  0  0  0  0  0  0  0
    0.6424    0.7832    0.2440 C   0  0  0  0  0  0  0  0  0  0  0  0
   -2.5976   -0.2230    0.4087 C   0  0  0  0  0  0  0  0  0  0  0  0
    2.0559   -3.0386    0.7572 C   0  0  0  0  0  0  0  0  0  0  0  0
    0.3709    0.8375   -2.1539 C   0  0  0  0  0  0  0  0  0  0  0  0
   -2.9573   -1.2874   -1.7275 C   0  0  0  0  0  0  0  0  0  0  0  0
    1.3681    1.9850    0.2074 C   0  0  0  0  0  0  0  0  0  0  0  0
   -3.9789   -0.0188    0.5601 C   0  0  0  0  0  0  0  0  0  0  0  0
    3.9921   -1.1663    1.7355 C   0  0  0  0  0  0  0  0  0  0  0  0
    5.4784   -1.7313   -0.0656 C   0  0  0  0  0  0  0  0  0  0  0  0
    1.5956    2.6186   -1.0374 C   0  0  0  0  0  0  0  0  0  0  0  0
   -4.8592   -0.4598   -0.4563 C   0  0  0  0  0  0  0  0  0  0  0  0
    1.0902    2.0317   -2.2090 C   0  0  0  0  0  0  0  0  0  0  0  0
   -4.3323   -1.0925   -1.5940 C   0  0  0  0  0  0  0  0  0  0  0  0
    1.8739    2.5714    1.3791 C   0  0  0  0  0  0  0  0  0  0  0  0
   -4.5056    0.6142    1.6979 C   0  0  0  0  0  0  0  0  0  0  0  0
    4.5189    0.2580    1.7831 C   0  0  0  0  0  0  0  0  0  0  0  0
    5.5998   -2.3015   -1.4687 C   0  0  0  0  0  0  0  0  0  0  0  0
    2.3215    3.8203   -1.0739 C   0  0  0  0  0  0  0  0  0  0  0  0
   -6.2404   -0.2556   -0.3048 C   0  0  0  0  0  0  0  0  0  0  0  0
    2.5928    3.7658    1.3243 C   0  0  0  0  0  0  0  0  0  0  0  0
   -5.8806    0.8089    1.8318 C   0  0  0  0  0  0  0  0  0  0  0  0
    2.8160    4.3891    0.1002 C   0  0  0  0  0  0  0  0  0  0  0  0
   -6.7463    0.3746    0.8324 C   0  0  0  0  0  0  0  0  0  0  0  0
  1  8  1  0
  1 11  1  0
  2  8  2  0
  3  7  1  0
  3 16  1  0
  3 17  1  0
  4  5  1  0
  4  6  1  0
  4  8  1  0
  5  9  2  0
  5 12  1  0
  6 10  2  0
  6 13  1  0
  7 11  1  0
  9 14  1  0
 10 15  1  0
 12 20  2  0
 13 21  2  0
 14 18  2  0
 14 22  1  0
 15 19  2  0
 15 23  1  0
 16 24  1  0
 17 25  1  0
 18 20  1  0
 18 26  1  0
 19 21  1  0
 19 27  1  0
 22 28  2  0
 23 29  2  0
 26 30  2  0
 27 31  2  0
 28 30  1  0
 29 31  1  0
M  END
>  <PUBCHEM_COMPOUND_CID>  (1) 
45126

>  <PUBCHEM_CONFORMER_RMSD>  (1) 
1

>  <PUBCHEM_CONFORMER_DIVERSEORDER>  (1) 
10
76
219
170
204
231
106
187
39
89
124
142
30
173
194
84
21
90
176
211
100
119
108
221
203
177
109
132
40
120
178
220
55
103
70
74
121
137
147
75
158
49
217
45
94
32
47
82
127
86
117
87
192
148
175
200
190
79
114
163
196
12
152
67
101
50
93
8
155
28
133
198
195
191
143
167
78
118
113
52
85
63
96
139
17
210
88
57
91
44
212
62
115
135
29
102
122
16
56
77
19
171
36
174
33
141
227
125
222
185
104
73
146
214
202
123
181
1
172
83
35
92
130
156
205
183
209
38
128
48
34
161
157
151
26
225
69
136
31
111
129
154
180
149
188
9
116
215
169
164
95
61
207
2
199
150
138
213
41
189
197
59
145
153
229
66
126
166
134
46
14
228
186
54
22
13
159
233
97
72
107
216
3
98
37
27
201
184
105
162
193
60
65
99
11
51
144
68
5
160
18
179
112
140
232
208
25
64
226
182
43
80
71
131
110
168
53
58
6
206
81
24
42
4
165
20
230
224
15
7
223
23
218

>  <PUBCHEM_MMFF94_PARTIAL_CHARGES>  (1) 
39
1 -0.43
10 -0.15
11 0.28
12 -0.15
13 -0.15
16 0.27
17 0.27
2 -0.57
20 -0.15
21 -0.15
22 -0.15
23 -0.15
26 -0.15
27 -0.15
28 -0.15
29 -0.15
3 -0.81
30 -0.15
31 -0.15
35 0.15
36 0.15
39 0.15
4 0.35
40 0.15
45 0.15
46 0.15
47 0.15
48 0.15
5 -0.14
55 0.15
56 0.15
57 0.15
58 0.15
59 0.15
6 -0.14
60 0.15
7 0.27
8 0.66
9 -0.15

>  <PUBCHEM_EFFECTIVE_ROTOR_COUNT>  (1) 
9

>  <PUBCHEM_PHARMACOPHORE_FEATURES>  (1) 
6
1 2 acceptor
1 3 cation
6 14 18 22 26 28 30 rings
6 15 19 23 27 29 31 rings
6 5 9 12 14 18 20 rings
6 6 10 13 15 19 21 rings

>  <PUBCHEM_HEAVY_ATOM_COUNT>  (1) 
31

>  <PUBCHEM_ATOM_DEF_STEREO_COUNT>  (1) 
0

>  <PUBCHEM_ATOM_UDEF_STEREO_COUNT>  (1) 
0

>  <PUBCHEM_BOND_DEF_STEREO_COUNT>  (1) 
0

>  <PUBCHEM_BOND_UDEF_STEREO_COUNT>  (1) 
0

>  <PUBCHEM_ISOTOPIC_ATOM_COUNT>  (1) 
0

>  <PUBCHEM_COMPONENT_COUNT>  (1) 
1

>  <PUBCHEM_CACTVS_TAUTO_COUNT>  (1) 
1

>  <PUBCHEM_CONFORMER_ID>  (1) 
0000B0460000000A

>  <PUBCHEM_MMFF94_ENERGY>  (1) 
84.7978

>  <PUBCHEM_FEATURE_SELFOVERLAP>  (1) 
30.501

>  <PUBCHEM_SHAPE_FINGERPRINT>  (1) 
102385 1 18048039859079071130
10764073 3 16484170076926119260
10838868 217 17835240044101503017
11049842 53 17754188788355250020
11582403 64 15549919818582285400
12035758 1 18040986358683893122
12156800 1 17056435144814606880
12166972 35 18272934895152121371
12788726 201 16820209310382018067
13140716 1 18189891105241264450
13590594 115 18338801083364039281
13899415 154 18335994077481002694
14020679 6 17967816067358197875
14739800 52 17559383867622903761
14840074 17 18410012100382237367
14849402 71 18410022052121784865
14955137 171 18341063908105754183
15081414 286 18410849924226975894
15328829 1 17988343928812475287
15475509 8 18058744498191426174
15840311 113 17775000168177502523
15927050 60 18050853513876878558
16992787 43 18261123980376212364
17818456 19 17703789227857091505
17980427 23 17917985045515504991
17980427 26 18127401465846741676
1813 80 18334288726350690462
18365409 1 17417230148467725695
18785283 64 18187365492582437906
20642791 268 18201708566148576334
20739085 24 18270400473336990202
22849341 161 18411706452110995980
23559900 14 16950572078001290903
24771293 8 18200297914806161922
25147074 1 18130782408810721167
394071 54 18409721885631836720
474 4 18266462186543601541
5104073 3 18339653342989609923
5171179 24 18265028306699641781
5265222 85 17252046312286418764
57307002 182 18270701809170341249
5895379 119 16915684526337949897
67856867 119 18341613733435086771
6823239 73 15936417762176302849
9981440 41 17907290314638740979

>  <PUBCHEM_SHAPE_MULTIPOLES>  (1) 
621.25
13.06
4.59
1.96
14.85
3.55
0.26
-4.09
-3.75
-8.59
-0.15
0
0.52
-0.99

>  <PUBCHEM_SHAPE_SELFOVERLAP>  (1) 
1350.942

>  <PUBCHEM_SHAPE_VOLUME>  (1) 
339.8

>  <PUBCHEM_COORDINATE_TYPE>  (1) 
2
5
10

$$$$
