45132
     RDKit          3D

 25 27  0  0  1  0  0  0  0  0999 V2000
    0.7524   -0.0362   -0.9280 O   0  0  0  0  0  0  0  0  0  0  0  0
   -0.0788    1.7100    0.3206 O   0  0  0  0  0  0  0  0  0  0  0  0
    4.7459   -0.1316    0.3498 N   0  0  0  0  0  0  0  0  0  0  0  0
    3.8511    0.7926    1.0802 C   0  0  0  0  0  0  0  0  0  0  0  0
    4.5177   -0.1394   -1.1126 C   0  0  0  0  0  0  0  0  0  0  0  0
    2.0766    0.4361   -0.7081 C   0  0  0  0  0  0  0  0  0  0  0  0
    2.3773    0.4561    0.7858 C   0  0  0  0  0  0  0  0  0  0  0  0
    3.0535   -0.4911   -1.4194 C   0  0  0  0  0  0  0  0  0  0  0  0
    4.0532    0.7398    2.6026 C   0  0  0  0  0  0  0  0  0  0  0  0
    4.9411    1.1443   -1.8446 C   0  0  0  0  0  0  0  0  0  0  0  0
    6.1603    0.0553    0.6743 C   0  0  0  0  0  0  0  0  0  0  0  0
   -0.2509    0.7008   -0.3513 C   0  0  0  0  0  0  0  0  0  0  0  0
   -1.6096    0.1133   -0.7204 C   0  0  0  0  0  0  0  0  0  0  0  0
   -1.7842   -1.3419   -0.3068 C   0  0  0  0  0  0  0  0  0  0  0  0
   -2.7763    0.9799   -0.2634 C   0  0  0  0  0  0  0  0  0  0  0  0
   -2.6043   -2.1549   -1.0615 C   0  0  0  0  0  0  0  0  0  0  0  0
   -3.3146    0.7650    0.9882 C   0  0  0  0  0  0  0  0  0  0  0  0
   -1.1167   -1.8020    0.8093 C   0  0  0  0  0  0  0  0  0  0  0  0
   -3.2571    1.9521   -1.1154 C   0  0  0  0  0  0  0  0  0  0  0  0
   -2.7641   -3.4878   -0.6829 C   0  0  0  0  0  0  0  0  0  0  0  0
   -4.3827    1.5584    1.4068 C   0  0  0  0  0  0  0  0  0  0  0  0
   -1.2765   -3.1351    1.1877 C   0  0  0  0  0  0  0  0  0  0  0  0
   -4.3251    2.7455   -0.6966 C   0  0  0  0  0  0  0  0  0  0  0  0
   -2.1002   -3.9779    0.4414 C   0  0  0  0  0  0  0  0  0  0  0  0
   -4.8880    2.5487    0.5645 C   0  0  0  0  0  0  0  0  0  0  0  0
  1  6  1  0
  1 12  1  0
  2 12  2  0
  3  4  1  0
  3  5  1  0
  3 11  1  0
  4  7  1  0
  4  9  1  0
  5  8  1  0
  5 10  1  0
  6  7  1  0
  6  8  1  0
 12 13  1  0
 13 14  1  0
 13 15  1  0
 14 16  2  0
 14 18  1  0
 15 17  2  0
 15 19  1  0
 16 20  1  0
 17 21  1  0
 18 22  2  0
 19 23  2  0
 20 24  2  0
 21 25  2  0
 22 24  1  0
 23 25  1  0
M  END
>  <PUBCHEM_COMPOUND_CID>  (1) 
45132

>  <PUBCHEM_CONFORMER_RMSD>  (1) 
0.8

>  <PUBCHEM_CONFORMER_DIVERSEORDER>  (1) 
1
53
31
113
32
126
30
123
27
10
146
120
93
134
55
154
114
153
88
79
86
165
166
181
37
13
84
98
17
144
80
184
158
131
177
24
26
73
138
3
61
25
47
143
122
130
162
65
18
49
20
102
150
168
189
12
5
109
99
91
42
23
155
141
36
60
159
4
105
169
34
50
160
54
52
161
14
21
83
85
6
152
46
11
96
139
74
136
111
33
142
57
188
128
95
156
147
15
63
137
76
64
135
38
9
187
67
183
171
100
8
94
112
39
127
78
118
180
115
116
56
7
151
121
81
40
89
174
28
2
68
110
170
129
66
124
62
77
119
82
172
90
186
175
58
178
140
133
106
145
22
45
69
48
182
97
164
41
16
87
104
70
51
157
132
71
101
72
148
59
179
35
163
185
108
92
29
125
19
167
176
44
117
103
149
107
43
75
173

>  <PUBCHEM_MMFF94_PARTIAL_CHARGES>  (1) 
31
1 -0.43
11 0.27
12 0.66
13 0.35
14 -0.14
15 -0.14
16 -0.15
17 -0.15
18 -0.15
19 -0.15
2 -0.57
20 -0.15
21 -0.15
22 -0.15
23 -0.15
24 -0.15
25 -0.15
3 -0.81
4 0.27
43 0.15
44 0.15
45 0.15
46 0.15
47 0.15
48 0.15
49 0.15
5 0.27
50 0.15
51 0.15
52 0.15
6 0.28

>  <PUBCHEM_EFFECTIVE_ROTOR_COUNT>  (1) 
6.2

>  <PUBCHEM_PHARMACOPHORE_FEATURES>  (1) 
5
1 2 acceptor
1 3 cation
6 14 16 18 20 22 24 rings
6 15 17 19 21 23 25 rings
6 3 4 5 6 7 8 rings

>  <PUBCHEM_HEAVY_ATOM_COUNT>  (1) 
25

>  <PUBCHEM_ATOM_DEF_STEREO_COUNT>  (1) 
0

>  <PUBCHEM_ATOM_UDEF_STEREO_COUNT>  (1) 
2

>  <PUBCHEM_BOND_DEF_STEREO_COUNT>  (1) 
0

>  <PUBCHEM_BOND_UDEF_STEREO_COUNT>  (1) 
0

>  <PUBCHEM_ISOTOPIC_ATOM_COUNT>  (1) 
0

>  <PUBCHEM_COMPONENT_COUNT>  (1) 
1

>  <PUBCHEM_CACTVS_TAUTO_COUNT>  (1) 
1

>  <PUBCHEM_CONFORMER_ID>  (1) 
0000B04C00000001

>  <PUBCHEM_MMFF94_ENERGY>  (1) 
64.8305

>  <PUBCHEM_FEATURE_SELFOVERLAP>  (1) 
25.373

>  <PUBCHEM_SHAPE_FINGERPRINT>  (1) 
11405975 8 18342454868172499760
11545043 162 18130787906347708578
11578080 2 17559964392418456881
11796584 16 18340772560038421302
12549972 3 17917992793536455610
12597179 24 18272375221937467783
12616971 3 17385723608719208020
12623949 98 13552055238635752001
12633257 1 18334852823050304788
12788726 201 18117844519394530627
13004483 165 17980202208132843983
13135754 10 17678767689236938443
13583140 156 17632291315719373022
13726171 33 18194988420295692340
14178342 30 18337103557511646746
14251757 5 18338249231490059892
14468879 13 17489011738852234587
14790565 3 18194412095239202365
14866123 147 18409448115916801435
15131766 46 15432318154623768766
15806764 133 17416984983233600796
15842332 3 17676767686212202068
17913733 40 18125176952645875601
20554085 129 18267292141723970153
20681677 155 18408046204151812500
21033648 29 18340762620498050913
21065201 7 18341330080604255246
21120745 212 17829915452610221613
212916 134 18337944593717707681
21424621 283 17987525801482046777
22224240 67 18341343193672355177
23557571 272 18201154455306285624
23558518 356 18044101382320177420
23559900 14 18272376335172228174
23598288 3 16879049885189608364
3027735 51 18341330084762767639
3411729 13 17899983725471810177
3729539 64 17836104272434474334
3759504 43 18334022661869631813
4015057 19 17203314624537848416
4073 2 18342454864262582762
5104073 3 18341321293406980576
5385378 56 18049450240898167481
59755656 520 18341608175457301101
602551 16 18409166645229159426
6669772 16 18198347251850232767
7226269 152 18272366426161034424
81228 2 18193838369818613255
9862522 239 17896027768249334789

>  <PUBCHEM_SHAPE_MULTIPOLES>  (1) 
497.77
11.74
3.71
1.71
12.85
3.89
-0.45
-6.68
-1
-7.21
-0.19
1.64
-0.32
-0.12

>  <PUBCHEM_SHAPE_SELFOVERLAP>  (1) 
1055.867

>  <PUBCHEM_SHAPE_VOLUME>  (1) 
277.1

>  <PUBCHEM_COORDINATE_TYPE>  (1) 
2
5
10

$$$$
