4513
     RDKit          3D

 21 21  0  0  0  0  0  0  0  0999 V2000
    0.2984   -2.2630    1.1070 S   0  0  0  0  0  0  0  0  0  0  0  0
    4.9348   -1.2239   -0.2744 S   0  0  0  0  0  0  0  0  0  0  0  0
   -4.4210    2.3178   -1.1210 O   0  0  0  0  0  0  0  0  0  0  0  0
   -6.0777    0.9005   -1.4335 O   0  0  0  0  0  0  0  0  0  0  0  0
    4.3615    2.1664    0.4213 N   0  0  0  0  0  0  0  0  0  0  0  0
    2.5553   -0.3161   -0.7176 N   0  0  0  0  0  0  0  0  0  0  0  0
   -2.5833   -1.0113    0.7361 N   0  0  0  0  0  0  0  0  0  0  0  0
   -3.6949    1.0570    1.2990 N   0  0  0  0  0  0  0  0  0  0  0  0
   -4.9024    1.1754   -1.1490 N   0  0  0  0  0  0  0  0  0  0  0  0
    4.3264    1.4060   -0.8353 C   0  0  0  0  0  0  0  0  0  0  0  0
    3.8208    0.0301   -0.6366 C   0  0  0  0  0  0  0  0  0  0  0  0
   -1.2638   -3.0761    0.6511 C   0  0  0  0  0  0  0  0  0  0  0  0
    2.4473   -1.6720   -0.4769 C   0  0  0  0  0  0  0  0  0  0  0  0
    1.0896   -2.2936   -0.5171 C   0  0  0  0  0  0  0  0  0  0  0  0
   -2.2110   -2.1383   -0.0870 C   0  0  0  0  0  0  0  0  0  0  0  0
    3.6288   -2.3341   -0.2175 C   0  0  0  0  0  0  0  0  0  0  0  0
    3.0291    2.6687    0.7442 C   0  0  0  0  0  0  0  0  0  0  0  0
    5.3171    3.2656    0.3192 C   0  0  0  0  0  0  0  0  0  0  0  0
   -3.4397    0.0328    0.3800 C   0  0  0  0  0  0  0  0  0  0  0  0
   -4.0387    0.0954   -0.8289 C   0  0  0  0  0  0  0  0  0  0  0  0
   -3.1765    1.2127    2.6369 C   0  0  0  0  0  0  0  0  0  0  0  0
  1 12  1  0
  1 14  1  0
  2 11  1  0
  2 16  1  0
  3  9  1  0
  4  9  2  0
  5 10  1  0
  5 17  1  0
  5 18  1  0
  6 11  2  0
  6 13  1  0
  7 15  1  0
  7 19  1  0
  8 19  1  0
  8 21  1  0
  9 20  1  0
 10 11  1  0
 12 15  1  0
 13 14  1  0
 13 16  2  0
 19 20  2  0
M  CHG  2   3  -1   9   1
M  END
>  <PUBCHEM_COMPOUND_CID>  (1) 
4513

>  <PUBCHEM_CONFORMER_RMSD>  (1) 
1

>  <PUBCHEM_CONFORMER_DIVERSEORDER>  (1) 
1
14
61
55
75
69
39
16
90
83
25
93
86
137
31
130
119
133
38
128
79
100
155
54
59
149
63
60
48
92
96
153
19
126
118
105
18
45
21
35
114
3
44
43
74
41
57
143
80
111
94
147
46
17
101
67
135
151
20
136
36
142
152
42
89
73
40
32
122
148
72
115
30
141
56
113
150
9
64
116
129
49
23
5
120
47
34
87
68
28
138
62
37
134
12
84
103
121
15
145
112
139
146
132
77
140
10
154
106
109
131
95
98
70
71
76
26
156
110
24
82
125
127
52
50
117
97
66
99
29
144
22
65
124
88
104
108
6
91
7
11
123
53
85
33
2
13
78
102
81
27
4
157
58
107
8
51

>  <PUBCHEM_MMFF94_PARTIAL_CHARGES>  (1) 
25
1 -0.46
10 0.45
11 0.2
12 0.23
13 0.05
14 0.41
15 0.37
16 -0.11
17 0.27
18 0.27
19 0.2
2 -0.08
20 0.05
21 0.37
3 -0.52
30 0.15
31 0.4
38 0.4
39 0.15
4 -0.52
5 -0.81
6 -0.57
7 -0.87
8 -0.87
9 0.84

>  <PUBCHEM_EFFECTIVE_ROTOR_COUNT>  (1) 
10

>  <PUBCHEM_PHARMACOPHORE_FEATURES>  (1) 
10
1 3 acceptor
1 3 anion
1 4 acceptor
1 5 cation
1 6 acceptor
1 7 cation
1 7 donor
1 8 cation
1 8 donor
5 2 6 11 13 16 rings

>  <PUBCHEM_HEAVY_ATOM_COUNT>  (1) 
21

>  <PUBCHEM_ATOM_DEF_STEREO_COUNT>  (1) 
0

>  <PUBCHEM_ATOM_UDEF_STEREO_COUNT>  (1) 
0

>  <PUBCHEM_BOND_DEF_STEREO_COUNT>  (1) 
0

>  <PUBCHEM_BOND_UDEF_STEREO_COUNT>  (1) 
1

>  <PUBCHEM_ISOTOPIC_ATOM_COUNT>  (1) 
0

>  <PUBCHEM_COMPONENT_COUNT>  (1) 
1

>  <PUBCHEM_CACTVS_TAUTO_COUNT>  (1) 
2

>  <PUBCHEM_CONFORMER_ID>  (1) 
000011A100000001

>  <PUBCHEM_MMFF94_ENERGY>  (1) 
48.4281

>  <PUBCHEM_FEATURE_SELFOVERLAP>  (1) 
50.883

>  <PUBCHEM_SHAPE_FINGERPRINT>  (1) 
11089746 13 18262230036885768358
12769317 202 18342737438286528706
133061 13 17480278502872473120
14251740 57 10375863117035145076
14251764 38 18271813462206464840
14848178 96 18411984689104183400
15003188 100 18409727344240046367
15342816 4 13254801200962576822
1768 210 18270390715424365061
17868525 174 18261669282409520122
20398071 114 18338794649239175416
20621476 13 18410854382460934524
21033648 144 18411989086939678438
21033648 29 17749394771027325221
21095088 737 18412825807020351635
21279426 13 18270696376173978148
21315763 76 18339919320933038506
21388113 180 18334289872759494133
23559900 14 18342747278352938138
2838139 119 18336820914425092895
312425 83 16987742132954766228
5104073 3 18261962941855165106

>  <PUBCHEM_SHAPE_MULTIPOLES>  (1) 
403.23
13.72
4.02
1.49
4.83
0.54
-0.64
10.55
3.56
-3.41
-0.65
2.28
0.7
1.37

>  <PUBCHEM_SHAPE_SELFOVERLAP>  (1) 
770.778

>  <PUBCHEM_SHAPE_VOLUME>  (1) 
250.3

>  <PUBCHEM_COORDINATE_TYPE>  (1) 
2
5
10

$$$$
