45130
     RDKit          3D

 26 28  0  0  1  0  0  0  0  0999 V2000
   -0.1425   -1.2240   -1.1518 O   0  0  0  0  0  0  0  0  0  0  0  0
    1.1549   -2.2858    0.4257 O   0  0  0  0  0  0  0  0  0  0  0  0
   -3.4018   -0.4889   -0.2231 N   0  0  0  0  0  0  0  0  0  0  0  0
   -3.7793    0.8647    0.2269 C   0  0  0  0  0  0  0  0  0  0  0  0
   -4.1634    0.8259    1.7185 C   0  0  0  0  0  0  0  0  0  0  0  0
   -4.4534   -1.4890   -0.0078 C   0  0  0  0  0  0  0  0  0  0  0  0
   -5.2508   -0.2024    2.0154 C   0  0  0  0  0  0  0  0  0  0  0  0
   -4.8542   -1.5667    1.4655 C   0  0  0  0  0  0  0  0  0  0  0  0
   -2.9204   -0.5218   -1.6012 C   0  0  0  0  0  0  0  0  0  0  0  0
   -4.8743    1.5500   -0.6054 C   0  0  0  0  0  0  0  0  0  0  0  0
   -2.3136   -1.8850   -1.9177 C   0  0  0  0  0  0  0  0  0  0  0  0
   -1.1528   -2.2095   -0.9871 C   0  0  0  0  0  0  0  0  0  0  0  0
    1.9958   -0.2865   -0.7021 C   0  0  0  0  0  0  0  0  0  0  0  0
    0.9798   -1.3767   -0.3759 C   0  0  0  0  0  0  0  0  0  0  0  0
    3.3359   -0.4953   -0.0081 C   0  0  0  0  0  0  0  0  0  0  0  0
    1.4663    1.1278   -0.5054 C   0  0  0  0  0  0  0  0  0  0  0  0
    3.5321    0.0583    1.2400 C   0  0  0  0  0  0  0  0  0  0  0  0
    1.9650    2.1417   -1.2968 C   0  0  0  0  0  0  0  0  0  0  0  0
    4.3101   -1.2314   -0.6493 C   0  0  0  0  0  0  0  0  0  0  0  0
    0.5041    1.3508    0.4576 C   0  0  0  0  0  0  0  0  0  0  0  0
    4.7589   -0.1330    1.8757 C   0  0  0  0  0  0  0  0  0  0  0  0
    1.4799    3.4371   -1.1169 C   0  0  0  0  0  0  0  0  0  0  0  0
    5.5369   -1.4226   -0.0134 C   0  0  0  0  0  0  0  0  0  0  0  0
    0.0189    2.6463    0.6373 C   0  0  0  0  0  0  0  0  0  0  0  0
    5.7611   -0.8734    1.2492 C   0  0  0  0  0  0  0  0  0  0  0  0
    0.5068    3.6893   -0.1499 C   0  0  0  0  0  0  0  0  0  0  0  0
  1 12  1  0
  1 14  1  0
  2 14  2  0
  3  4  1  0
  3  6  1  0
  3  9  1  0
  4  5  1  0
  4 10  1  0
  5  7  1  0
  6  8  1  0
  7  8  1  0
  9 11  1  0
 11 12  1  0
 13 14  1  0
 13 15  1  0
 13 16  1  0
 15 17  2  0
 15 19  1  0
 16 18  2  0
 16 20  1  0
 17 21  1  0
 18 22  1  0
 19 23  2  0
 20 24  2  0
 21 25  2  0
 22 26  2  0
 23 25  1  0
 24 26  1  0
M  END
>  <PUBCHEM_COMPOUND_CID>  (1) 
45130

>  <PUBCHEM_CONFORMER_RMSD>  (1) 
1

>  <PUBCHEM_CONFORMER_DIVERSEORDER>  (1) 
1
311
234
155
209
22
208
162
170
186
164
305
303
8
296
180
255
346
122
333
143
21
299
188
124
297
37
270
306
309
174
335
269
233
135
63
319
344
241
235
301
263
111
336
223
321
54
232
338
317
11
210
26
42
23
53
149
332
184
373
84
2
369
231
259
4
110
112
288
133
27
343
108
274
316
35
272
284
51
94
95
352
271
127
368
115
119
266
205
290
65
163
69
328
246
101
80
361
166
58
64
245
148
249
362
40
355
347
176
36
236
18
10
118
190
71
151
360
314
331
325
73
29
350
207
356
275
351
204
165
308
185
354
139
50
106
243
178
183
15
339
283
49
215
293
78
375
169
74
105
261
34
358
372
116
359
286
141
114
345
93
276
154
313
291
100
177
287
206
349
300
219
142
254
222
214
13
55
327
334
192
129
68
39
200
85
91
45
191
57
229
172
46
67
323
99
370
258
28
72
295
353
81
282
194
43
312
14
252
77
371
5
157
123
171
41
211
47
348
322
247
367
357
285
136
76
144
60
83
52
92
363
240
267
175
199
9
6
48
20
265
212
152
12
121
280
260
203
126
250
278
315
158
137
216
364
376
128
251
104
66
130
32
292
257
86
239
198
366
310
75
217
226
82
304
138
281
253
146
31
131
318
341
189
168
17
326
59
248
238
227
44
98
374
181
307
19
145
195
337
16
242
201
132
89
302
96
279
61
193
264
197
187
230
159
244
24
150
38
329
56
117
179
218
107
277
173
273
320
221
90
3
289
97
268
224
262
7
330
30
213
324
134
182
25
196
113
228
225
237
79
147
153
125
88
103
294
87
256
298
160
70
156
365
62
120
167
33
202
220
161
102
140
340
109
342

>  <PUBCHEM_MMFF94_PARTIAL_CHARGES>  (1) 
31
1 -0.43
12 0.28
13 0.35
14 0.66
15 -0.14
16 -0.14
17 -0.15
18 -0.15
19 -0.15
2 -0.57
20 -0.15
21 -0.15
22 -0.15
23 -0.15
24 -0.15
25 -0.15
26 -0.15
3 -0.81
4 0.27
46 0.15
47 0.15
48 0.15
49 0.15
50 0.15
51 0.15
52 0.15
53 0.15
54 0.15
55 0.15
6 0.27
9 0.27

>  <PUBCHEM_EFFECTIVE_ROTOR_COUNT>  (1) 
9.2

>  <PUBCHEM_PHARMACOPHORE_FEATURES>  (1) 
5
1 2 acceptor
1 3 cation
6 15 17 19 21 23 25 rings
6 16 18 20 22 24 26 rings
6 3 4 5 6 7 8 rings

>  <PUBCHEM_HEAVY_ATOM_COUNT>  (1) 
26

>  <PUBCHEM_ATOM_DEF_STEREO_COUNT>  (1) 
0

>  <PUBCHEM_ATOM_UDEF_STEREO_COUNT>  (1) 
1

>  <PUBCHEM_BOND_DEF_STEREO_COUNT>  (1) 
0

>  <PUBCHEM_BOND_UDEF_STEREO_COUNT>  (1) 
0

>  <PUBCHEM_ISOTOPIC_ATOM_COUNT>  (1) 
0

>  <PUBCHEM_COMPONENT_COUNT>  (1) 
1

>  <PUBCHEM_CACTVS_TAUTO_COUNT>  (1) 
1

>  <PUBCHEM_CONFORMER_ID>  (1) 
0000B04A00000001

>  <PUBCHEM_MMFF94_ENERGY>  (1) 
54.825

>  <PUBCHEM_FEATURE_SELFOVERLAP>  (1) 
25.373

>  <PUBCHEM_SHAPE_FINGERPRINT>  (1) 
10006869 2 17978495447762641871
10366900 7 17458052773275745247
10764073 3 17059500617349712332
10906281 52 18339082709413386166
11545043 162 17095520721391753303
11578080 2 14692024633542664084
11646440 116 18202004313554826089
12104220 4 14977469843994243507
12107698 1 18334016112329426705
12166972 35 18201141252824802621
12403259 118 18342749524677999019
12422481 6 18059573525695203350
12507557 5 18411419506005151307
12633257 1 18261690250154879995
12788726 201 18336552629804631380
13257819 101 14405185071138705088
13583140 156 18186802461932298263
13782708 43 16877948256180002507
13965767 371 17699028196706767513
14466204 15 18408321077241991723
14840074 17 18341613676935964752
14950920 106 18042984227758073499
14955137 171 18410580586753665970
15238133 3 18188501185141329343
17980427 23 17489017275107563180
1813 80 18334008389783114460
18336668 15 18412538838205820136
18785283 64 17970073442191965300
20739085 24 18409168844199933876
21033648 29 17917414411501568531
21298829 104 17986952943566821281
21796203 349 18121533286390273432
22849341 161 18410579500390794580
312423 11 18124875917818717815
339767 52 18337948996122463753
3493558 16 17131259285789930440
392239 28 17703500017892344096
513202 73 18120378649163077770
5895379 119 17631466702951176781
6009941 240 17386560246098081293
7064713 232 17846228713163021865
7495541 125 17095242553191811430
9981440 41 17114926246422601664

>  <PUBCHEM_SHAPE_MULTIPOLES>  (1) 
518.35
12.26
3.34
1.77
0.92
3.07
-0.34
-5.24
-6.1
-0.41
1.02
0.94
-0.29
-0.73

>  <PUBCHEM_SHAPE_SELFOVERLAP>  (1) 
1089.082

>  <PUBCHEM_SHAPE_VOLUME>  (1) 
290.6

>  <PUBCHEM_COORDINATE_TYPE>  (1) 
2
5
10

$$$$
