45135
     RDKit          3D

 12 11  0  0  1  0  0  0  0  0999 V2000
    4.7107   -0.1084    0.2368 F   0  0  0  0  0  0  0  0  0  0  0  0
    1.2357    0.3454   -0.2641 O   0  0  0  0  0  0  0  0  0  0  0  0
    2.4543   -1.5603    0.2044 O   0  0  0  0  0  0  0  0  0  0  0  0
   -1.1632    0.5067   -0.5686 C   0  0  0  0  0  0  0  0  0  0  0  0
   -2.4528   -0.3224   -0.7459 C   0  0  0  0  0  0  0  0  0  0  0  0
   -1.2632    1.6233    0.4934 C   0  0  0  0  0  0  0  0  0  0  0  0
    0.0321   -0.4132   -0.2725 C   0  0  0  0  0  0  0  0  0  0  0  0
   -2.9040   -1.0965    0.4955 C   0  0  0  0  0  0  0  0  0  0  0  0
   -2.3681    2.6338    0.2192 C   0  0  0  0  0  0  0  0  0  0  0  0
   -4.2218   -1.8161    0.2471 C   0  0  0  0  0  0  0  0  0  0  0  0
    2.3802   -0.3581   -0.0110 C   0  0  0  0  0  0  0  0  0  0  0  0
    3.5600    0.5657   -0.0343 C   0  0  0  0  0  0  0  0  0  0  0  0
  1 12  1  0
  2  7  1  0
  2 11  1  0
  3 11  2  0
  4  5  1  0
  4  6  1  0
  4  7  1  0
  5  8  1  0
  6  9  1  0
  8 10  1  0
 11 12  1  0
M  END
>  <PUBCHEM_COMPOUND_CID>  (1) 
45135

>  <PUBCHEM_CONFORMER_RMSD>  (1) 
0.8

>  <PUBCHEM_CONFORMER_DIVERSEORDER>  (1) 
2
113
130
117
127
3
100
95
5
132
50
103
86
142
93
25
66
128
37
145
131
102
138
39
55
121
120
87
65
73
115
143
114
104
125
42
88
16
30
89
56
43
72
71
134
18
139
96
29
17
133
112
122
110
44
124
52
118
68
36
97
90
101
45
135
84
53
136
64
126
76
91
70
46
108
8
48
69
40
31
13
34
74
119
62
63
83
140
141
129
10
107
58
92
98
146
32
60
41
106
123
111
80
7
109
57
49
82
85
33
14
81
144
147
78
9
1
4
51
35
27
22
148
21
99
77
19
67
15
149
94
24
20
61
6
79
105
28
75
11
23
47
12
116
54
38
137
26
59

>  <PUBCHEM_MMFF94_PARTIAL_CHARGES>  (1) 
6
1 -0.34
11 0.66
12 0.4
2 -0.43
3 -0.57
7 0.28

>  <PUBCHEM_EFFECTIVE_ROTOR_COUNT>  (1) 
7

>  <PUBCHEM_PHARMACOPHORE_FEATURES>  (1) 
4
1 10 hydrophobe
1 3 acceptor
1 9 hydrophobe
4 4 5 6 8 hydrophobe

>  <PUBCHEM_HEAVY_ATOM_COUNT>  (1) 
12

>  <PUBCHEM_ATOM_DEF_STEREO_COUNT>  (1) 
0

>  <PUBCHEM_ATOM_UDEF_STEREO_COUNT>  (1) 
1

>  <PUBCHEM_BOND_DEF_STEREO_COUNT>  (1) 
0

>  <PUBCHEM_BOND_UDEF_STEREO_COUNT>  (1) 
0

>  <PUBCHEM_ISOTOPIC_ATOM_COUNT>  (1) 
0

>  <PUBCHEM_COMPONENT_COUNT>  (1) 
1

>  <PUBCHEM_CACTVS_TAUTO_COUNT>  (1) 
1

>  <PUBCHEM_CONFORMER_ID>  (1) 
0000B04F00000002

>  <PUBCHEM_MMFF94_ENERGY>  (1) 
7.7818

>  <PUBCHEM_FEATURE_SELFOVERLAP>  (1) 
20.317

>  <PUBCHEM_SHAPE_FINGERPRINT>  (1) 
12932764 1 17274808152220585654
14252887 29 18058747903879010519
14325111 11 18340204086044335508
200 152 18261107512833327895
20510252 161 18343023272349180699
20671657 53 17095802226153699543
20871998 184 18202566159675142085
21061003 4 18271242845757518705
21524375 3 17481418279992455297
22959321 105 18186515510138796045
23380061 127 18409727348460958760
23402539 116 18409441518340164775
23557571 272 18201447943264734548
23598294 1 18342735178759217267
25610 137 18337955700386947581
3086196 2 18410012139368732289
3248919 1 18266444435010977630
3312278 4 18335135393296065863
58734987 124 18413669110826960217
68521 5 18410857664143002853

>  <PUBCHEM_SHAPE_MULTIPOLES>  (1) 
227.94
7.66
2.11
0.74
5.4
1.19
-0.04
-2.94
0.88
-2.45
0.37
-0.29
0.01
0

>  <PUBCHEM_SHAPE_SELFOVERLAP>  (1) 
419.506

>  <PUBCHEM_SHAPE_VOLUME>  (1) 
144.2

>  <PUBCHEM_COORDINATE_TYPE>  (1) 
2
5
10

$$$$
