45142
     RDKit          3D

  8  7  0  0  0  0  0  0  0  0999 V2000
    3.8080   -0.3901    0.1192 I   0  0  0  0  0  0  0  0  0  0  0  0
   -0.4179   -0.2130   -0.2452 O   0  0  0  0  0  0  0  0  0  0  0  0
   -2.9907   -0.9417    0.5374 O   0  0  0  0  0  0  0  0  0  0  0  0
    1.1751    1.3593    0.2947 O   0  0  0  0  0  0  0  0  0  0  0  0
   -1.4420    0.7744   -0.0852 C   0  0  0  0  0  0  0  0  0  0  0  0
   -2.7901    0.1389   -0.3655 C   0  0  0  0  0  0  0  0  0  0  0  0
    0.8622    0.2206   -0.0220 C   0  0  0  0  0  0  0  0  0  0  0  0
    1.7955   -0.9485   -0.2334 C   0  0  0  0  0  0  0  0  0  0  0  0
  1  8  1  0
  2  5  1  0
  2  7  1  0
  3  6  1  0
  4  7  2  0
  5  6  1  0
  7  8  1  0
M  END
>  <PUBCHEM_COMPOUND_CID>  (1) 
45142

>  <PUBCHEM_CONFORMER_RMSD>  (1) 
0.6

>  <PUBCHEM_CONFORMER_DIVERSEORDER>  (1) 
1
22
45
25
43
13
49
4
40
19
48
3
9
26
23
39
38
24
30
8
44
41
50
16
42
36
17
31
18
11
14
34
2
35
32
20
21
12
47
46
28
29
6
15
33
5
10
27
37
7

>  <PUBCHEM_MMFF94_PARTIAL_CHARGES>  (1) 
9
1 -0.19
15 0.4
2 -0.43
3 -0.68
4 -0.57
5 0.28
6 0.28
7 0.66
8 0.25

>  <PUBCHEM_EFFECTIVE_ROTOR_COUNT>  (1) 
4

>  <PUBCHEM_PHARMACOPHORE_FEATURES>  (1) 
4
1 1 hydrophobe
1 3 acceptor
1 3 donor
1 4 acceptor

>  <PUBCHEM_HEAVY_ATOM_COUNT>  (1) 
8

>  <PUBCHEM_ATOM_DEF_STEREO_COUNT>  (1) 
0

>  <PUBCHEM_ATOM_UDEF_STEREO_COUNT>  (1) 
0

>  <PUBCHEM_BOND_DEF_STEREO_COUNT>  (1) 
0

>  <PUBCHEM_BOND_UDEF_STEREO_COUNT>  (1) 
0

>  <PUBCHEM_ISOTOPIC_ATOM_COUNT>  (1) 
0

>  <PUBCHEM_COMPONENT_COUNT>  (1) 
1

>  <PUBCHEM_CACTVS_TAUTO_COUNT>  (1) 
1

>  <PUBCHEM_CONFORMER_ID>  (1) 
0000B05600000001

>  <PUBCHEM_MMFF94_ENERGY>  (1) 
8.5887

>  <PUBCHEM_FEATURE_SELFOVERLAP>  (1) 
20.297

>  <PUBCHEM_SHAPE_FINGERPRINT>  (1) 
10219947 1 17704351052808597582
10857977 72 18341321215585729314
11062470 55 17313386699661565070
12932764 1 16343408519494813142
14325111 11 18408603639219422268
20201158 50 18409729538831268547
21293036 1 18410017637227395758
29004967 10 18271806778915585346
5460574 1 8502365646500533686

>  <PUBCHEM_SHAPE_MULTIPOLES>  (1) 
158.96
6.23
1.1
0.69
1.17
0.1
0
-1.35
0.32
0.02
0.09
0.06
-0.04
0.26

>  <PUBCHEM_SHAPE_SELFOVERLAP>  (1) 
271.434

>  <PUBCHEM_SHAPE_VOLUME>  (1) 
108.8

>  <PUBCHEM_COORDINATE_TYPE>  (1) 
2
5
10

$$$$
