45145
     RDKit          3D

 14 13  0  0  1  0  0  0  0  0999 V2000
   -3.2450   -0.7315   -0.8720 S   0  0  0  0  0  0  0  0  0  0  0  0
   -0.0330    0.2118   -0.3125 S   0  0  0  0  0  0  0  0  0  0  0  0
   -1.5185   -2.1385    1.8157 S   0  0  0  0  0  0  0  0  0  0  0  0
   -1.4138   -1.3796    0.0074 P   0  0  0  0  0  0  0  0  0  0  0  0
    3.8842    0.0224    0.1606 O   0  0  0  0  0  0  0  0  0  0  0  0
    2.5044    1.7472   -0.4953 O   0  0  0  0  0  0  0  0  0  0  0  0
   -3.8959    0.5439    0.2260 C   0  0  0  0  0  0  0  0  0  0  0  0
   -5.2171    1.0856   -0.3084 C   0  0  0  0  0  0  0  0  0  0  0  0
   -0.8530   -2.6524   -1.1734 C   0  0  0  0  0  0  0  0  0  0  0  0
   -5.7803    2.1600    0.6102 C   0  0  0  0  0  0  0  0  0  0  0  0
    1.6030   -0.4527    0.0547 C   0  0  0  0  0  0  0  0  0  0  0  0
    2.6751    0.5903   -0.1373 C   0  0  0  0  0  0  0  0  0  0  0  0
    5.0202    0.8837    0.0308 C   0  0  0  0  0  0  0  0  0  0  0  0
    6.2697    0.1098    0.3935 C   0  0  0  0  0  0  0  0  0  0  0  0
  1  4  1  0
  1  7  1  0
  2  4  1  0
  2 11  1  0
  3  4  2  0
  4  9  1  0
  5 12  1  0
  5 13  1  0
  6 12  2  0
  7  8  1  0
  8 10  1  0
 11 12  1  0
 13 14  1  0
M  END
>  <PUBCHEM_COMPOUND_CID>  (1) 
45145

>  <PUBCHEM_CONFORMER_RMSD>  (1) 
1

>  <PUBCHEM_CONFORMER_DIVERSEORDER>  (1) 
3
397
576
88
186
379
268
10
15
111
29
137
337
555
296
559
413
300
315
156
17
24
440
292
130
483
2
239
8
588
127
361
4
504
533
171
150
543
547
5
7
585
19
427
14
189
115
380
484
591
152
177
401
36
217
191
364
218
471
297
45
51
41
124
291
540
1
371
78
148
77
212
587
128
517
33
369
509
133
464
204
11
389
192
257
512
6
298
594
213
313
126
123
468
599
598
282
400
245
12
554
384
431
455
70
25
341
184
112
432
303
107
180
262
60
586
461
89
61
450
48
532
592
278
287
236
86
62
501
214
536
392
46
478
32
22
535
101
81
489
348
604
58
154
18
39
205
444
352
72
193
38
272
66
396
185
34
44
433
55
40
31
570
403
49
196
467
52
328
30
181
187
50
47
23
69
250
73
572

>  <PUBCHEM_MMFF94_PARTIAL_CHARGES>  (1) 
10
1 -0.48
11 0.29
12 0.66
13 0.28
2 -0.48
3 -0.68
4 1.17
5 -0.43
6 -0.57
7 0.23

>  <PUBCHEM_EFFECTIVE_ROTOR_COUNT>  (1) 
8

>  <PUBCHEM_PHARMACOPHORE_FEATURES>  (1) 
2
1 10 hydrophobe
1 6 acceptor

>  <PUBCHEM_HEAVY_ATOM_COUNT>  (1) 
14

>  <PUBCHEM_ATOM_DEF_STEREO_COUNT>  (1) 
0

>  <PUBCHEM_ATOM_UDEF_STEREO_COUNT>  (1) 
1

>  <PUBCHEM_BOND_DEF_STEREO_COUNT>  (1) 
0

>  <PUBCHEM_BOND_UDEF_STEREO_COUNT>  (1) 
0

>  <PUBCHEM_ISOTOPIC_ATOM_COUNT>  (1) 
0

>  <PUBCHEM_COMPONENT_COUNT>  (1) 
1

>  <PUBCHEM_CACTVS_TAUTO_COUNT>  (1) 
1

>  <PUBCHEM_CONFORMER_ID>  (1) 
0000B05900000003

>  <PUBCHEM_MMFF94_ENERGY>  (1) 
4.0053

>  <PUBCHEM_FEATURE_SELFOVERLAP>  (1) 
10.148

>  <PUBCHEM_SHAPE_FINGERPRINT>  (1) 
117890 112 18272930527218126368
122479 349 18335144228064951207
12500047 106 18059570347224394422
13740256 8 8286190652784631997
14251718 22 9511463329676659640
14251732 17 18412266125051824015
15501527 16 18412263947714466197
15501527 24 11095880484301670504
167882 2 18059017163826651398
187816 3 14405183976117249223
200 152 10159702399516007871
20112054 13 18186524285242180727
20621476 21 12973883650534456760
20621476 66 18411704287447803604
20724930 69 18411699885438082461
21524375 3 18408038516408350599
2297311 6 11674874459961312570
23402539 116 18131344224091013813
23402655 69 18130785646640906181
23598288 3 18192158315302714239
293599 30 18342455924391491533
351380 3 7997961371971380753
5104073 3 17750228287495302696
59755656 520 18113333124728572067

>  <PUBCHEM_SHAPE_MULTIPOLES>  (1) 
291.77
13.54
2.39
1.14
8.37
0.9
-0.29
-10.08
-1.67
-2.71
-0.17
-0.79
0.79
-0.47

>  <PUBCHEM_SHAPE_SELFOVERLAP>  (1) 
481.938

>  <PUBCHEM_SHAPE_VOLUME>  (1) 
203.3

>  <PUBCHEM_COORDINATE_TYPE>  (1) 
2
5
10

$$$$
