45144
     RDKit          3D

  8  7  0  0  0  0  0  0  0  0999 V2000
   -3.1259    1.1236   -0.5665 Cl  0  0  0  0  0  0  0  0  0  0  0  0
    3.5618    0.5084   -0.0857 S   0  0  0  0  0  0  0  0  0  0  0  0
   -0.3585    0.1466    0.2897 O   0  0  0  0  0  0  0  0  0  0  0  0
    1.2531   -1.3346   -0.4298 O   0  0  0  0  0  0  0  0  0  0  0  0
   -1.3656   -0.8481    0.0772 C   0  0  0  0  0  0  0  0  0  0  0  0
   -2.7261   -0.2866    0.4469 C   0  0  0  0  0  0  0  0  0  0  0  0
    0.9215   -0.2356   -0.0079 C   0  0  0  0  0  0  0  0  0  0  0  0
    1.8397    0.9263    0.2760 C   0  0  0  0  0  0  0  0  0  0  0  0
  1  6  1  0
  2  8  1  0
  3  5  1  0
  3  7  1  0
  4  7  2  0
  5  6  1  0
  7  8  1  0
M  END
>  <PUBCHEM_COMPOUND_CID>  (1) 
45144

>  <PUBCHEM_CONFORMER_RMSD>  (1) 
0.6

>  <PUBCHEM_CONFORMER_DIVERSEORDER>  (1) 
1
49
35
37
45
12
50
43
34
47
31
6
48
4
40
29
42
25
23
44
24
5
8
17
3
20
13
32
41
2
27
14
22
18
26
46
38
36
39
15
16
28
9
21
7
10
11
33
19
30

>  <PUBCHEM_MMFF94_PARTIAL_CHARGES>  (1) 
9
1 -0.29
15 0.18
2 -0.41
3 -0.43
4 -0.57
5 0.28
6 0.29
7 0.66
8 0.29

>  <PUBCHEM_EFFECTIVE_ROTOR_COUNT>  (1) 
4

>  <PUBCHEM_PHARMACOPHORE_FEATURES>  (1) 
1
1 4 acceptor

>  <PUBCHEM_HEAVY_ATOM_COUNT>  (1) 
8

>  <PUBCHEM_ATOM_DEF_STEREO_COUNT>  (1) 
0

>  <PUBCHEM_ATOM_UDEF_STEREO_COUNT>  (1) 
0

>  <PUBCHEM_BOND_DEF_STEREO_COUNT>  (1) 
0

>  <PUBCHEM_BOND_UDEF_STEREO_COUNT>  (1) 
0

>  <PUBCHEM_ISOTOPIC_ATOM_COUNT>  (1) 
0

>  <PUBCHEM_COMPONENT_COUNT>  (1) 
1

>  <PUBCHEM_CACTVS_TAUTO_COUNT>  (1) 
1

>  <PUBCHEM_CONFORMER_ID>  (1) 
0000B05800000001

>  <PUBCHEM_MMFF94_ENERGY>  (1) 
6.0881

>  <PUBCHEM_FEATURE_SELFOVERLAP>  (1) 
5.074

>  <PUBCHEM_SHAPE_FINGERPRINT>  (1) 
12932764 1 18342736359706554787
14325111 11 18340487875987313152
14390081 3 18410290315778956521
18342897 55 17418367008644997892
20651381 32 18272370845623748718
20765181 27 18341324552406332456
21293036 1 17203604912945283277
23402655 69 18199738173151619349
5460574 1 8358266925186950347

>  <PUBCHEM_SHAPE_MULTIPOLES>  (1) 
158.62
5.86
1.21
0.72
0.62
0.01
-0.01
1.93
-0.3
-0.27
-0.14
-0.1
0.03
0.42

>  <PUBCHEM_SHAPE_SELFOVERLAP>  (1) 
271.517

>  <PUBCHEM_SHAPE_VOLUME>  (1) 
107.8

>  <PUBCHEM_COORDINATE_TYPE>  (1) 
2
5
10

$$$$
