45141
     RDKit          3D

 18 19  0  0  0  0  0  0  0  0999 V2000
    2.0876    0.4542   -0.5721 O   0  0  0  0  0  0  0  0  0  0  0  0
    0.6276    0.2356    1.1999 O   0  0  0  0  0  0  0  0  0  0  0  0
   -3.3762    1.7822    0.5212 N   0  0  0  0  0  0  0  0  0  0  0  0
    5.6101   -0.1847    0.3140 N   0  0  0  0  0  0  0  0  0  0  0  0
   -1.5517    0.9531   -0.4331 C   0  0  0  0  0  0  0  0  0  0  0  0
   -2.5083   -0.0941   -0.3175 C   0  0  0  0  0  0  0  0  0  0  0  0
   -3.6437    0.4526    0.2844 C   0  0  0  0  0  0  0  0  0  0  0  0
   -0.1959    0.8466   -1.0094 C   0  0  0  0  0  0  0  0  0  0  0  0
   -2.1144    2.0940    0.0909 C   0  0  0  0  0  0  0  0  0  0  0  0
    4.4657    0.1372   -0.5255 C   0  0  0  0  0  0  0  0  0  0  0  0
    3.1810    0.1162    0.2873 C   0  0  0  0  0  0  0  0  0  0  0  0
   -2.5172   -1.4588   -0.6680 C   0  0  0  0  0  0  0  0  0  0  0  0
   -4.7921   -0.3002    0.5542 C   0  0  0  0  0  0  0  0  0  0  0  0
    0.8567    0.4763    0.0223 C   0  0  0  0  0  0  0  0  0  0  0  0
   -3.6589   -2.2241   -0.4042 C   0  0  0  0  0  0  0  0  0  0  0  0
   -4.7778   -1.6516    0.1976 C   0  0  0  0  0  0  0  0  0  0  0  0
    6.8531   -0.1236   -0.4588 C   0  0  0  0  0  0  0  0  0  0  0  0
    5.4543   -1.5108    0.9166 C   0  0  0  0  0  0  0  0  0  0  0  0
  1 11  1  0
  1 14  1  0
  2 14  2  0
  3  7  1  0
  3  9  1  0
  4 10  1  0
  4 17  1  0
  4 18  1  0
  5  6  1  0
  5  8  1  0
  5  9  2  0
  6  7  2  0
  6 12  1  0
  7 13  1  0
  8 14  1  0
 10 11  1  0
 12 15  2  0
 13 16  2  0
 15 16  1  0
M  END
>  <PUBCHEM_COMPOUND_CID>  (1) 
45141

>  <PUBCHEM_CONFORMER_RMSD>  (1) 
0.8

>  <PUBCHEM_CONFORMER_DIVERSEORDER>  (1) 
1
46
154
81
124
99
41
94
102
145
159
49
114
47
56
84
78
160
157
53
156
70
128
63
122
66
139
86
32
55
135
161
130
60
29
74
126
9
67
152
22
58
107
105
26
8
17
164
72
12
146
65
18
48
11
166
27
6
30
68
75
112
14
132
158
138
2
142
61
39
150
95
137
140
19
34
88
45
21
40
148
33
163
143
167
44
85
136
82
13
43
108
76
23
103
113
7
131
16
50
118
101
110
4
141
144
71
42
31
90
121
109
129
62
64
10
5
111
52
3
36
83
93
79
127
119
28
20
91
134
15
106
73
37
133
116
125
165
59
24
120
87
104
51
123
117
92
89
35
57
162
69
153
115
151
97
100
96
54
155
25
149
98
80
77
147
38

>  <PUBCHEM_MMFF94_PARTIAL_CHARGES>  (1) 
23
1 -0.43
10 0.27
11 0.28
12 -0.15
13 -0.15
14 0.66
15 -0.15
16 -0.15
17 0.27
18 0.27
2 -0.57
21 0.15
22 0.27
27 0.15
28 0.15
29 0.15
3 0.03
30 0.15
4 -0.81
5 -0.18
7 -0.15
8 0.24
9 -0.3

>  <PUBCHEM_EFFECTIVE_ROTOR_COUNT>  (1) 
6

>  <PUBCHEM_PHARMACOPHORE_FEATURES>  (1) 
6
1 2 acceptor
1 3 cation
1 3 donor
1 4 cation
5 3 5 6 7 9 rings
6 6 7 12 13 15 16 rings

>  <PUBCHEM_HEAVY_ATOM_COUNT>  (1) 
18

>  <PUBCHEM_ATOM_DEF_STEREO_COUNT>  (1) 
0

>  <PUBCHEM_ATOM_UDEF_STEREO_COUNT>  (1) 
0

>  <PUBCHEM_BOND_DEF_STEREO_COUNT>  (1) 
0

>  <PUBCHEM_BOND_UDEF_STEREO_COUNT>  (1) 
0

>  <PUBCHEM_ISOTOPIC_ATOM_COUNT>  (1) 
0

>  <PUBCHEM_COMPONENT_COUNT>  (1) 
1

>  <PUBCHEM_CACTVS_TAUTO_COUNT>  (1) 
1

>  <PUBCHEM_CONFORMER_ID>  (1) 
0000B05500000001

>  <PUBCHEM_MMFF94_ENERGY>  (1) 
29.8677

>  <PUBCHEM_FEATURE_SELFOVERLAP>  (1) 
30.538

>  <PUBCHEM_SHAPE_FINGERPRINT>  (1) 
10595046 47 18334297583000834660
10912923 1 18187365407500958008
11046707 91 18408038533203078341
11089746 13 10447925062681993870
11128504 68 17530969115969981636
11315181 36 18408605872344343100
11524674 6 16917067767389025239
117890 112 9727636103226947562
12091667 2 17095244692391486468
12107183 9 17688025315339094024
12236239 1 18040157326916465269
12633257 1 16988010525819938515
13167823 11 18335417942204582650
13288520 33 18410013247322517173
13551218 46 18410575046093535894
13675066 3 17346877841113298516
14251732 16 18339641248203487320
14341114 176 18272933855870716936
15209289 33 18334012808750587195
15348495 7 17060047194967123938
15716309 27 18260830393438537674
17804303 29 18201159944527807773
17834072 33 18261114089013775124
17844677 252 18343588447523448928
17857418 61 18334009493399902658
1813 80 17676499310743475918
18927931 339 18342741831864194335
19784866 240 17603589668530335295
200 152 16877940537965300948
20645477 70 14707474859947304024
21267235 1 18335425720532923387
220451 1 18334863779885883832
22061861 79 14490466453354596562
22950370 63 18335701624847172364
2297311 6 18273222992931777564
23402539 116 17531245041553689612
23466295 7 16083080608972517003
23522609 53 18043841735285800020
23559900 14 18340195401473309265
23596394 208 13984931884601944240
270888 7 9510649682662395863
2838139 119 13396696419580514395
335352 9 18411417320151875053
351380 3 18113897177981952434
4214541 1 18412545392526237468
4325135 7 18260832605441718870
5104073 3 18272934963534319504
559249 180 18261107444424866687
573450 72 18336823109200528776
57483677 66 18334011675422526730
5924683 9 17059763546394077239
67856867 119 18263367048237041748
7062679 117 18334860536932582066
7495541 125 18272649082628044400
7970288 3 18120373413577358195

>  <PUBCHEM_SHAPE_MULTIPOLES>  (1) 
348.73
14.48
1.85
0.91
24.06
0.27
-0.02
5.66
-1.23
-2.39
-0.02
0.21
0.04
-0.86

>  <PUBCHEM_SHAPE_SELFOVERLAP>  (1) 
731.287

>  <PUBCHEM_SHAPE_VOLUME>  (1) 
199.4

>  <PUBCHEM_COORDINATE_TYPE>  (1) 
2
5
10

$$$$
