4514
     RDKit          3D

 29 31  0  0  0  0  0  0  0  0999 V2000
   -3.9535    1.9511    1.7966 Cl  0  0  0  0  0  0  0  0  0  0  0  0
   -0.8857    1.9496    1.3106 O   0  0  0  0  0  0  0  0  0  0  0  0
   -1.0847   -4.9966    0.4404 O   0  0  0  0  0  0  0  0  0  0  0  0
   -2.8251   -3.7273    0.0170 O   0  0  0  0  0  0  0  0  0  0  0  0
    3.3954    0.0796   -1.2373 N   0  0  0  0  0  0  0  0  0  0  0  0
    1.4831    0.6778    1.3502 N   0  0  0  0  0  0  0  0  0  0  0  0
    2.8598    2.3875    1.0133 N   0  0  0  0  0  0  0  0  0  0  0  0
   -1.6200   -3.8661    0.3381 N   0  0  0  0  0  0  0  0  0  0  0  0
    2.3021    1.0173   -0.9841 C   0  0  0  0  0  0  0  0  0  0  0  0
    2.2317    1.3861    0.4727 C   0  0  0  0  0  0  0  0  0  0  0  0
    3.4143   -0.3151   -2.6454 C   0  0  0  0  0  0  0  0  0  0  0  0
    4.6764    0.6727   -0.8555 C   0  0  0  0  0  0  0  0  0  0  0  0
    0.6946   -0.4423    1.0956 C   0  0  0  0  0  0  0  0  0  0  0  0
   -0.6425   -0.3051    0.7380 C   0  0  0  0  0  0  0  0  0  0  0  0
    1.6422    1.2757    2.5685 C   0  0  0  0  0  0  0  0  0  0  0  0
    2.1124   -0.9893   -3.0441 C   0  0  0  0  0  0  0  0  0  0  0  0
    5.8247   -0.2885   -1.1119 C   0  0  0  0  0  0  0  0  0  0  0  0
    1.2720   -1.7030    1.2044 C   0  0  0  0  0  0  0  0  0  0  0  0
    2.4963    2.3279    2.3353 C   0  0  0  0  0  0  0  0  0  0  0  0
   -1.4112   -1.4415    0.4865 C   0  0  0  0  0  0  0  0  0  0  0  0
   -1.2752    1.0030    0.6144 C   0  0  0  0  0  0  0  0  0  0  0  0
   -0.8383   -2.7089    0.5939 C   0  0  0  0  0  0  0  0  0  0  0  0
    0.5033   -2.8395    0.9528 C   0  0  0  0  0  0  0  0  0  0  0  0
   -2.3969    1.2589   -0.3356 C   0  0  0  0  0  0  0  0  0  0  0  0
   -3.6237    1.6862    0.1221 C   0  0  0  0  0  0  0  0  0  0  0  0
   -2.1389    1.0485   -1.6740 C   0  0  0  0  0  0  0  0  0  0  0  0
   -4.6433    1.9147   -0.8021 C   0  0  0  0  0  0  0  0  0  0  0  0
   -3.1586    1.2769   -2.5981 C   0  0  0  0  0  0  0  0  0  0  0  0
   -4.4107    1.7099   -2.1621 C   0  0  0  0  0  0  0  0  0  0  0  0
  1 25  1  0
  2 21  2  0
  3  8  1  0
  4  8  2  0
  5  9  1  0
  5 11  1  0
  5 12  1  0
  6 10  1  0
  6 13  1  0
  6 15  1  0
  7 10  2  0
  7 19  1  0
  8 22  1  0
  9 10  1  0
 11 16  1  0
 12 17  1  0
 13 14  1  0
 13 18  2  0
 14 20  2  0
 14 21  1  0
 15 19  2  0
 18 23  1  0
 20 22  1  0
 21 24  1  0
 22 23  2  0
 24 25  2  0
 24 26  1  0
 25 27  1  0
 26 28  2  0
 27 29  2  0
 28 29  1  0
M  CHG  2   3  -1   8   1
M  END
>  <PUBCHEM_COMPOUND_CID>  (1) 
4514

>  <PUBCHEM_CONFORMER_RMSD>  (1) 
1

>  <PUBCHEM_CONFORMER_DIVERSEORDER>  (1) 
1
52
15
53
47
44
16
38
31
34
50
33
30
21
25
36
42
8
20
22
46
18
41
48
5
49
6
19
43
51
10
29
40
45
39
28
23
9
24
14
13
11
7
12
32
17
26
4
3
27
2
37
35

>  <PUBCHEM_MMFF94_PARTIAL_CHARGES>  (1) 
36
1 -0.18
10 0.01
11 0.27
12 0.27
13 -0.02
14 0.09
15 -0.3
18 -0.15
19 0.08
2 -0.57
20 -0.15
21 0.4
22 0.13
23 -0.15
24 0.09
25 0.18
26 -0.15
27 -0.15
28 -0.15
29 -0.15
3 -0.52
36 0.15
4 -0.52
43 0.15
44 0.15
45 0.15
46 0.15
47 0.15
48 0.15
49 0.15
5 -0.81
50 0.15
6 0.33
7 -0.57
8 0.91
9 0.45

>  <PUBCHEM_EFFECTIVE_ROTOR_COUNT>  (1) 
8

>  <PUBCHEM_PHARMACOPHORE_FEATURES>  (1) 
9
1 2 acceptor
1 3 acceptor
1 3 anion
1 4 acceptor
1 5 cation
3 6 7 10 cation
5 6 7 10 15 19 rings
6 13 14 18 20 22 23 rings
6 24 25 26 27 28 29 rings

>  <PUBCHEM_HEAVY_ATOM_COUNT>  (1) 
29

>  <PUBCHEM_ATOM_DEF_STEREO_COUNT>  (1) 
0

>  <PUBCHEM_ATOM_UDEF_STEREO_COUNT>  (1) 
0

>  <PUBCHEM_BOND_DEF_STEREO_COUNT>  (1) 
0

>  <PUBCHEM_BOND_UDEF_STEREO_COUNT>  (1) 
0

>  <PUBCHEM_ISOTOPIC_ATOM_COUNT>  (1) 
0

>  <PUBCHEM_COMPONENT_COUNT>  (1) 
1

>  <PUBCHEM_CACTVS_TAUTO_COUNT>  (1) 
1

>  <PUBCHEM_CONFORMER_ID>  (1) 
000011A200000001

>  <PUBCHEM_MMFF94_ENERGY>  (1) 
103.5036

>  <PUBCHEM_FEATURE_SELFOVERLAP>  (1) 
45.755

>  <PUBCHEM_SHAPE_FINGERPRINT>  (1) 
10165383 225 18263945279499102425
10190108 129 17970657240386725219
108634 29 18053361465281224767
11578080 2 18193009312371832404
11582403 64 17052399013052826696
12160290 23 18116431629941417643
12293681 25 17917720114847770142
12788726 201 17610333114607758189
13149001 5 18272379667544713890
133893 2 17463698575888655385
13681431 1 17396972462489448619
15775530 1 17915178138300847208
17899979 19 17244422990186201042
1813 80 17469892546053565067
19319366 153 17695650466890294481
21285901 2 17837779189320277790
21716022 299 17693376633635937239
22182313 1 17986666189631380400
23419403 2 17844536710764762922
23557571 272 17978781634202269354
238 59 17346029095277424324
244849 19 17845647200577056256
27425 322 18341315778337338613
350125 39 18408041814563731491
3729539 64 18048050570885418822
44802255 64 16955398925341944222
469060 322 17750515260124707683
633830 44 18131062711093054865
6523845 18 18410015412392586593
6669772 16 18199446866862528906
7399639 24 17338154547734250968
81228 2 17901669589701660083

>  <PUBCHEM_SHAPE_MULTIPOLES>  (1) 
561.14
8.52
4.15
2.79
1.55
7.16
1.25
-5.77
5.15
-2.27
-1.84
0.85
-1.28
1.51

>  <PUBCHEM_SHAPE_SELFOVERLAP>  (1) 
1206.274

>  <PUBCHEM_SHAPE_VOLUME>  (1) 
313

>  <PUBCHEM_COORDINATE_TYPE>  (1) 
2
5
10

$$$$
