45148
     RDKit          3D

 21 22  0  0  0  0  0  0  0  0999 V2000
    2.4646    0.5575   -0.6570 O   0  0  0  0  0  0  0  0  0  0  0  0
   -0.0289   -1.3986   -1.7227 O   0  0  0  0  0  0  0  0  0  0  0  0
    5.3927   -0.5377    1.1009 O   0  0  0  0  0  0  0  0  0  0  0  0
    4.2256   -1.5198   -0.5905 O   0  0  0  0  0  0  0  0  0  0  0  0
    0.3296   -1.8358    0.5261 N   0  0  0  0  0  0  0  0  0  0  0  0
   -1.0991    1.0940    0.0433 C   0  0  0  0  0  0  0  0  0  0  0  0
    0.0953    0.4477   -0.2824 C   0  0  0  0  0  0  0  0  0  0  0  0
   -2.3522    0.3739    0.1135 C   0  0  0  0  0  0  0  0  0  0  0  0
    1.2876    1.1692   -0.3427 C   0  0  0  0  0  0  0  0  0  0  0  0
   -1.0955    2.4652    0.3083 C   0  0  0  0  0  0  0  0  0  0  0  0
    1.2882    2.5387   -0.0776 C   0  0  0  0  0  0  0  0  0  0  0  0
    0.0966    3.1866    0.2480 C   0  0  0  0  0  0  0  0  0  0  0  0
    0.1168   -0.9857   -0.5619 C   0  0  0  0  0  0  0  0  0  0  0  0
   -3.1521    0.2537   -1.0230 C   0  0  0  0  0  0  0  0  0  0  0  0
   -2.7603   -0.2004    1.3175 C   0  0  0  0  0  0  0  0  0  0  0  0
   -4.3599   -0.4407   -0.9556 C   0  0  0  0  0  0  0  0  0  0  0  0
   -3.9682   -0.8949    1.3848 C   0  0  0  0  0  0  0  0  0  0  0  0
   -4.7680   -1.0150    0.2482 C   0  0  0  0  0  0  0  0  0  0  0  0
    3.5046    0.6158    0.3168 C   0  0  0  0  0  0  0  0  0  0  0  0
    0.4009   -3.2744    0.4078 C   0  0  0  0  0  0  0  0  0  0  0  0
    4.3818   -0.5995    0.1980 C   0  0  0  0  0  0  0  0  0  0  0  0
  1  9  1  0
  1 19  1  0
  2 13  2  0
  3 21  1  0
  4 21  2  0
  5 13  1  0
  5 20  1  0
  6  7  2  0
  6  8  1  0
  6 10  1  0
  7  9  1  0
  7 13  1  0
  8 14  2  0
  8 15  1  0
  9 11  2  0
 10 12  2  0
 11 12  1  0
 14 16  1  0
 15 17  2  0
 16 18  2  0
 17 18  1  0
 19 21  1  0
M  END
>  <PUBCHEM_COMPOUND_CID>  (1) 
45148

>  <PUBCHEM_CONFORMER_RMSD>  (1) 
0.8

>  <PUBCHEM_CONFORMER_DIVERSEORDER>  (1) 
1
7
15
11
10
9
14
13
12
3
5
6
4
2
8

>  <PUBCHEM_MMFF94_PARTIAL_CHARGES>  (1) 
29
1 -0.36
10 -0.15
11 -0.15
12 -0.15
13 0.54
14 -0.15
15 -0.15
16 -0.15
17 -0.15
18 -0.15
19 0.34
2 -0.57
20 0.3
21 0.66
22 0.15
23 0.15
24 0.15
25 0.15
26 0.15
27 0.15
28 0.15
29 0.37
3 -0.65
30 0.15
36 0.5
4 -0.57
5 -0.73
7 0.09
9 0.08

>  <PUBCHEM_EFFECTIVE_ROTOR_COUNT>  (1) 
6

>  <PUBCHEM_PHARMACOPHORE_FEATURES>  (1) 
8
1 1 acceptor
1 2 acceptor
1 3 acceptor
1 4 acceptor
1 5 donor
3 3 4 21 anion
6 6 7 9 10 11 12 rings
6 8 14 15 16 17 18 rings

>  <PUBCHEM_HEAVY_ATOM_COUNT>  (1) 
21

>  <PUBCHEM_ATOM_DEF_STEREO_COUNT>  (1) 
0

>  <PUBCHEM_ATOM_UDEF_STEREO_COUNT>  (1) 
0

>  <PUBCHEM_BOND_DEF_STEREO_COUNT>  (1) 
0

>  <PUBCHEM_BOND_UDEF_STEREO_COUNT>  (1) 
0

>  <PUBCHEM_ISOTOPIC_ATOM_COUNT>  (1) 
0

>  <PUBCHEM_COMPONENT_COUNT>  (1) 
1

>  <PUBCHEM_CACTVS_TAUTO_COUNT>  (1) 
2

>  <PUBCHEM_CONFORMER_ID>  (1) 
0000B05C00000001

>  <PUBCHEM_MMFF94_ENERGY>  (1) 
66.6408

>  <PUBCHEM_FEATURE_SELFOVERLAP>  (1) 
40.659

>  <PUBCHEM_SHAPE_FINGERPRINT>  (1) 
1100329 8 18337951319473112338
11578080 2 16737486530468338870
11796584 16 17458341961707530987
12236239 1 17632299008279846599
12363563 72 18336838540749251184
12403259 226 18190459553322276845
12553582 1 18341619247877968820
12633257 1 18265637518325855675
12788726 201 18411146818547722872
13134695 92 18338237192871166333
13140716 1 18197499734200125643
13464514 151 18115856413830729261
13862211 1 18410568496320773694
13965767 371 16910642080224413185
14178342 30 18056495970794842617
14787075 74 18260272979302705330
16945 1 18059027167042295045
17862501 102 17989488549843008765
1813 80 18201733850468470228
192875 21 18201443631344357825
200 152 18343580759568424949
20028762 73 18129382773079291159
20510252 161 18271523088189801256
20905425 154 18053949454931028750
22182313 1 17986965037286826821
23175994 123 18334577953791233013
23184049 59 18271528692488944056
23402539 116 18343578529799922909
23559900 14 17386283310923349717
2748010 2 17983870990086179685
3286 77 18336269058577808293
34934 24 18196655095096947017
43471831 8 18191865622383005842
465052 167 18335711593018016611

>  <PUBCHEM_SHAPE_MULTIPOLES>  (1) 
403.71
8.52
2.94
1.13
3.11
0.53
-0.03
-3.8
1.33
1.06
0.31
-0.61
-0.32
0.15

>  <PUBCHEM_SHAPE_SELFOVERLAP>  (1) 
865.148

>  <PUBCHEM_SHAPE_VOLUME>  (1) 
223.6

>  <PUBCHEM_COORDINATE_TYPE>  (1) 
2
5
10

$$$$
