45154
     RDKit          3D

 16 16  0  0  0  0  0  0  0  0999 V2000
    1.7149   -0.2676    0.3472 O   0  0  0  0  0  0  0  0  0  0  0  0
   -1.7158    0.6641    0.6903 O   0  0  0  0  0  0  0  0  0  0  0  0
    0.6930    1.8022    0.3575 O   0  0  0  0  0  0  0  0  0  0  0  0
    5.3759   -0.1419   -0.0610 N   0  0  0  0  0  0  0  0  0  0  0  0
    4.0507   -0.7321    0.1237 C   0  0  0  0  0  0  0  0  0  0  0  0
    2.9848    0.3504    0.1849 C   0  0  0  0  0  0  0  0  0  0  0  0
    5.4130    0.6584   -1.2845 C   0  0  0  0  0  0  0  0  0  0  0  0
    6.3993   -1.1859   -0.1019 C   0  0  0  0  0  0  0  0  0  0  0  0
   -0.6193   -0.2227    0.5910 C   0  0  0  0  0  0  0  0  0  0  0  0
    0.6425    0.5813    0.4200 C   0  0  0  0  0  0  0  0  0  0  0  0
   -2.9318    0.2082    0.2417 C   0  0  0  0  0  0  0  0  0  0  0  0
   -3.2231   -1.1475    0.3119 C   0  0  0  0  0  0  0  0  0  0  0  0
   -3.8519    1.1097   -0.2766 C   0  0  0  0  0  0  0  0  0  0  0  0
   -4.4573   -1.6105   -0.1445 C   0  0  0  0  0  0  0  0  0  0  0  0
   -5.0862    0.6469   -0.7330 C   0  0  0  0  0  0  0  0  0  0  0  0
   -5.3887   -0.7132   -0.6669 C   0  0  0  0  0  0  0  0  0  0  0  0
  1  6  1  0
  1 10  1  0
  2  9  1  0
  2 11  1  0
  3 10  2  0
  4  5  1  0
  4  7  1  0
  4  8  1  0
  5  6  1  0
  9 10  1  0
 11 12  2  0
 11 13  1  0
 12 14  1  0
 13 15  2  0
 14 16  2  0
 15 16  1  0
M  END
>  <PUBCHEM_COMPOUND_CID>  (1) 
45154

>  <PUBCHEM_CONFORMER_RMSD>  (1) 
0.8

>  <PUBCHEM_CONFORMER_DIVERSEORDER>  (1) 
1
171
56
62
160
168
19
42
113
18
33
188
4
177
70
87
36
20
3
77
151
150
97
137
138
139
2
43
165
74
125
81
107
31
24
185
48
162
47
102
85
147
92
63
121
75
51
11
55
52
65
57
46
82
186
50
116
96
129
136
110
153
88
117
115
134
120
61
79
73
111
95
126
132
169
135
163
158
44
124
156
8
27
83
100
15
91
182
152
128
106
23
49
90
78
59
30
76
68
17
41
145
114
103
34
127
80
67
22
176
133
94
14
175
26
54
32
60
86
21
130
9
6
29
40
38
5
140
105
89
66
167
37
142
179
84
154
7
173
98
180
123
99
178
187
39
45
72
181
155
170
13
35
172
164
149
144
69
159
71
12
109
119
189
183
146
174
141
161
28
104
93
112
64
108
25
143
10
148
157
166
53
122
16
118
184
58
101
131

>  <PUBCHEM_MMFF94_PARTIAL_CHARGES>  (1) 
21
1 -0.43
10 0.66
11 0.08
12 -0.15
13 -0.15
14 -0.15
15 -0.15
16 -0.15
2 -0.36
29 0.15
3 -0.57
30 0.15
31 0.15
32 0.15
33 0.15
4 -0.81
5 0.27
6 0.28
7 0.27
8 0.27
9 0.34

>  <PUBCHEM_EFFECTIVE_ROTOR_COUNT>  (1) 
7

>  <PUBCHEM_PHARMACOPHORE_FEATURES>  (1) 
4
1 2 acceptor
1 3 acceptor
1 4 cation
6 11 12 13 14 15 16 rings

>  <PUBCHEM_HEAVY_ATOM_COUNT>  (1) 
16

>  <PUBCHEM_ATOM_DEF_STEREO_COUNT>  (1) 
0

>  <PUBCHEM_ATOM_UDEF_STEREO_COUNT>  (1) 
0

>  <PUBCHEM_BOND_DEF_STEREO_COUNT>  (1) 
0

>  <PUBCHEM_BOND_UDEF_STEREO_COUNT>  (1) 
0

>  <PUBCHEM_ISOTOPIC_ATOM_COUNT>  (1) 
0

>  <PUBCHEM_COMPONENT_COUNT>  (1) 
1

>  <PUBCHEM_CACTVS_TAUTO_COUNT>  (1) 
1

>  <PUBCHEM_CONFORMER_ID>  (1) 
0000B06200000001

>  <PUBCHEM_MMFF94_ENERGY>  (1) 
40.2729

>  <PUBCHEM_FEATURE_SELFOVERLAP>  (1) 
20.305

>  <PUBCHEM_SHAPE_FINGERPRINT>  (1) 
100836 57 10953460721913058970
10354089 29 11239995660067631002
10803635 8 18410289207698649311
10968037 39 18413108372354252966
11315181 36 17988925578340989281
12091667 2 17967255282025490856
12670543 26 18186800253706898886
12714333 28 16587742049280170436
13288520 33 18343019995600259469
13533116 47 12679192587761486292
13668630 136 17131834287242307087
13862211 1 18060698394667541590
13964095 4 18335699408506936805
1420 363 17203611492909066214
14251718 22 18408041831579667086
14251731 8 18410571786471151999
14251752 14 18113892719948018550
14350574 20 18336265734431123355
14528608 73 18113621209654156820
14848160 23 17989202646897564194
15183329 4 17821725009863691754
15242439 84 18410570695322651121
15501527 16 11025799794779507666
15716309 27 14764347132915982726
17834072 33 18408605889756041636
17834072 8 18410849958739259949
17834076 25 16370725924425588530
17844677 252 17346600776825551200
17870717 6 18342179968780124263
18222031 100 17775569741197542032
19489759 90 18410292493147878169
200 152 17846495937527551169
20281389 69 8646772188009997286
20374829 77 18411697677608718544
20621476 66 18263648377385239453
20645477 56 12396300365514687899
21267235 1 18336548304956953211
22224240 67 10231750094039674333
2297311 6 18412546522624713329
23035841 295 18342177756544951635
23198884 109 17095521794917260411
23402539 116 18334011679158305452
23402655 69 18040428859207422265
23536379 177 17894911815265001794
23559900 14 18269546290467872561
23590187 198 14979958081641274309
2767999 5 13912320205096058878
2916195 48 11819283277750208406
293599 30 12324241663507131200
29717793 49 18335144164041316694
300161 21 15285354041931551432
3004659 81 18187645774455357578
351380 3 17988922279632311758
4214541 1 18411698773094625169
42788 4 18186520999254595562
465052 167 17775569745534532254
49783359 22 13686297971882152757
542803 24 16588021307679249000
559249 180 18341610387270655599

>  <PUBCHEM_SHAPE_MULTIPOLES>  (1) 
306.68
16.11
1.38
0.86
13.9
0.05
0.14
3.87
4.92
-0.62
0.02
0.16
-0.1
-0.23

>  <PUBCHEM_SHAPE_SELFOVERLAP>  (1) 
614.578

>  <PUBCHEM_SHAPE_VOLUME>  (1) 
181.8

>  <PUBCHEM_COORDINATE_TYPE>  (1) 
2
5
10

$$$$
