45152
     RDKit          3D

 20 21  0  0  0  0  0  0  0  0999 V2000
    3.1595    0.5333   -0.1439 O   0  0  0  0  0  0  0  0  0  0  0  0
   -0.1957   -0.3284   -1.0328 O   0  0  0  0  0  0  0  0  0  0  0  0
    2.1971   -1.5007   -0.6588 O   0  0  0  0  0  0  0  0  0  0  0  0
    6.7598    0.3314    0.6296 N   0  0  0  0  0  0  0  0  0  0  0  0
    5.4561    0.9426    0.4186 C   0  0  0  0  0  0  0  0  0  0  0  0
   -3.7116   -0.5994   -0.0048 C   0  0  0  0  0  0  0  0  0  0  0  0
    4.4261   -0.1083    0.0363 C   0  0  0  0  0  0  0  0  0  0  0  0
   -4.0380    0.7678    0.1590 C   0  0  0  0  0  0  0  0  0  0  0  0
   -1.4499    0.0295   -0.6441 C   0  0  0  0  0  0  0  0  0  0  0  0
   -2.4128   -0.9520   -0.4068 C   0  0  0  0  0  0  0  0  0  0  0  0
   -3.0563    1.7424   -0.0838 C   0  0  0  0  0  0  0  0  0  0  0  0
   -1.7709    1.3741   -0.4827 C   0  0  0  0  0  0  0  0  0  0  0  0
   -4.6934   -1.5737    0.2384 C   0  0  0  0  0  0  0  0  0  0  0  0
    7.2395   -0.3040   -0.6002 C   0  0  0  0  0  0  0  0  0  0  0  0
    6.7027   -0.6498    1.7160 C   0  0  0  0  0  0  0  0  0  0  0  0
   -5.3365    1.1206    0.5611 C   0  0  0  0  0  0  0  0  0  0  0  0
    0.8747    0.5310   -0.6436 C   0  0  0  0  0  0  0  0  0  0  0  0
   -5.9785   -1.2053    0.6370 C   0  0  0  0  0  0  0  0  0  0  0  0
   -6.2996    0.1393    0.7980 C   0  0  0  0  0  0  0  0  0  0  0  0
    2.1278   -0.2905   -0.4925 C   0  0  0  0  0  0  0  0  0  0  0  0
  1  7  1  0
  1 20  1  0
  2  9  1  0
  2 17  1  0
  3 20  2  0
  4  5  1  0
  4 14  1  0
  4 15  1  0
  5  7  1  0
  6  8  2  0
  6 10  1  0
  6 13  1  0
  8 11  1  0
  8 16  1  0
  9 10  2  0
  9 12  1  0
 11 12  2  0
 13 18  2  0
 16 19  2  0
 17 20  1  0
 18 19  1  0
M  END
>  <PUBCHEM_COMPOUND_CID>  (1) 
45152

>  <PUBCHEM_CONFORMER_RMSD>  (1) 
0.8

>  <PUBCHEM_CONFORMER_DIVERSEORDER>  (1) 
1
247
332
58
149
146
337
125
30
7
217
325
351
114
233
302
334
46
122
382
304
380
263
242
200
265
150
354
232
14
103
193
261
107
195
32
158
218
348
68
366
283
375
6
313
42
226
132
327
59
72
275
391
97
102
3
175
355
214
157
140
386
401
16
317
346
254
34
230
222
69
15
60
260
50
378
145
208
171
363
330
398
257
36
91
322
252
238
62
279
31
136
370
183
142
128
406
100
9
400
13
328
117
290
105
385
274
71
224
76
340
82
53
268
45
360
83
356
379
281
196
159
108
106
27
80
43
33
395
190
310
297
249
397
207
280
210
90
256
73
189
225
156
296
41
213
324
101
338
192
255
87
10
362
288
221
26
147
329
74
173
206
167
267
384
185
367
2
331
129
399
75
78
172
264
359
110
180
5
55
65
188
309
47
220
22
151
246
194
79
394
135
311
139
37
308
347
209
116
341
162
17
168
57
339
94
223
350
67
112
24
64
285
239
253
335
323
155
178
152
96
52
368
93
35
81
305
8
369
182
177
138
164
160
388
84
235
118
326
199
243
184
115
88
215
174
295
211
314
29
166
229
258
234
111
28
201
119
396
241
389
104
49
407
251
109
48
127
403
85
95
318
320
4
270
121
294
342
240
63
18
205
89
153
316
25
44
278
390
377
124
179
387
176
271
54
272
287
392
300
148
23
306
352
286
186
345
282
405
303
11
12
203
61
70
21
134
371
92
161
204
393
191
236
262
402
51
364
99
349
212
198
38
365
56
113
344
40
381
165
216
315
276
219
333
228
133
144
130
373
244
293
383
39
357
163
126
181
169
131
299
154
284
376
141
187
273
259
86
321
20
307
98
353
19
237
336
301
361
298
319
277
231
343
408
358
266
291
248
123
77
66
292
143
404
312
137
170
197
372
202
269
250
227
289
245
374
120

>  <PUBCHEM_MMFF94_PARTIAL_CHARGES>  (1) 
25
1 -0.43
10 -0.15
11 -0.15
12 -0.15
13 -0.15
14 0.27
15 0.27
16 -0.15
17 0.34
18 -0.15
19 -0.15
2 -0.36
20 0.66
25 0.15
26 0.15
27 0.15
3 -0.57
34 0.15
35 0.15
38 0.15
39 0.15
4 -0.81
5 0.27
7 0.28
9 0.08

>  <PUBCHEM_EFFECTIVE_ROTOR_COUNT>  (1) 
7

>  <PUBCHEM_PHARMACOPHORE_FEATURES>  (1) 
5
1 2 acceptor
1 3 acceptor
1 4 cation
6 6 8 13 16 18 19 rings
6 6 8 9 10 11 12 rings

>  <PUBCHEM_HEAVY_ATOM_COUNT>  (1) 
20

>  <PUBCHEM_ATOM_DEF_STEREO_COUNT>  (1) 
0

>  <PUBCHEM_ATOM_UDEF_STEREO_COUNT>  (1) 
0

>  <PUBCHEM_BOND_DEF_STEREO_COUNT>  (1) 
0

>  <PUBCHEM_BOND_UDEF_STEREO_COUNT>  (1) 
0

>  <PUBCHEM_ISOTOPIC_ATOM_COUNT>  (1) 
0

>  <PUBCHEM_COMPONENT_COUNT>  (1) 
1

>  <PUBCHEM_CACTVS_TAUTO_COUNT>  (1) 
1

>  <PUBCHEM_CONFORMER_ID>  (1) 
0000B06000000001

>  <PUBCHEM_MMFF94_ENERGY>  (1) 
58.1481

>  <PUBCHEM_FEATURE_SELFOVERLAP>  (1) 
25.405

>  <PUBCHEM_SHAPE_FINGERPRINT>  (1) 
10 15 18343862247345706560
10299344 5 17967253092425658562
10638233 991 17168437034185230444
106641 1 17060341855851999247
11315181 36 18041000665620745885
11524674 6 17704071815093818966
11646440 116 17346881161207609808
12091667 2 17703789223846973821
12166972 35 18040719182212980156
12236239 1 17603587434561772388
12596602 18 18186515497560083336
12616971 3 17988636445812538980
12670543 26 8790891778268790084
12954195 1 11674864594722432743
13288520 33 16153708735046793237
13403585 85 18343302561462103985
13533116 47 17313379007913137248
13631057 29 15194985203447622501
13668630 136 14634871941947725880
13685833 64 15068623786026789064
13964095 4 9367350335796348640
14251764 18 18186800301579189176
14341114 176 18343586226861274268
14849402 71 18263367065596609564
14933364 13 18272936029450936708
15048467 5 13398630563354133938
15348495 7 17988074621108523978
15461852 350 17918268771340006509
15716309 27 17531246153886688186
17834072 8 8214144049072077364
18222031 100 14201394980998838638
200 152 14707206626127796133
20281389 69 15698000725987319530
21150785 3 12396302556639208970
22224240 67 17561362898484875831
23035841 295 17894347787317006962
23081809 10 16370725890561891508
23402539 116 17894907434187467589
23522609 53 17605302638679651148
23559900 14 18411417337036435713
29717793 49 12829208854443064750
300161 21 11167943554808029556
3009799 131 10737285758045533822
328311 84 17917437501979000526
3545911 37 18131071519880379764
5104073 3 18340497651438712211
542803 24 13758076285639847309
559249 180 17821444660700935159
59682541 35 18342458200460421266
6328613 192 11743832590924266826
67856867 119 18115595979334507429

>  <PUBCHEM_SHAPE_MULTIPOLES>  (1) 
389
20.34
1.43
1.01
26.32
0.05
0.2
-2.31
7.3
-1.61
0.03
0.92
-0.13
-0.09

>  <PUBCHEM_SHAPE_SELFOVERLAP>  (1) 
815.731

>  <PUBCHEM_SHAPE_VOLUME>  (1) 
221.1

>  <PUBCHEM_COORDINATE_TYPE>  (1) 
2
5
10

$$$$
