45157
     RDKit          3D

 19 20  0  0  1  0  0  0  0  0999 V2000
   -1.1231    2.9869    0.9436 O   0  0  0  0  0  0  0  0  0  0  0  0
   -1.2279    2.1621   -1.1598 O   0  0  0  0  0  0  0  0  0  0  0  0
    0.0550   -0.1175    0.3317 N   0  0  0  0  0  0  0  0  0  0  0  0
   -1.2066    0.5698    0.6589 C   0  0  0  0  0  0  0  0  0  0  0  0
    1.1895    0.6909    0.7367 C   0  0  0  0  0  0  0  0  0  0  0  0
    2.4988    0.0139    0.4299 C   0  0  0  0  0  0  0  0  0  0  0  0
   -2.4112   -0.2113    0.2548 C   0  0  0  0  0  0  0  0  0  0  0  0
    3.1275    0.2147   -0.7919 C   0  0  0  0  0  0  0  0  0  0  0  0
    3.0614   -0.8136    1.3934 C   0  0  0  0  0  0  0  0  0  0  0  0
   -1.2065    1.9697    0.0519 C   0  0  0  0  0  0  0  0  0  0  0  0
   -3.5694   -0.1579    1.0303 C   0  0  0  0  0  0  0  0  0  0  0  0
   -2.3799   -0.9948   -0.8989 C   0  0  0  0  0  0  0  0  0  0  0  0
    4.3401   -0.4227   -1.0550 C   0  0  0  0  0  0  0  0  0  0  0  0
    2.5329    1.1009   -1.8369 C   0  0  0  0  0  0  0  0  0  0  0  0
    4.2740   -1.4509    1.1303 C   0  0  0  0  0  0  0  0  0  0  0  0
    4.9132   -1.2555   -0.0938 C   0  0  0  0  0  0  0  0  0  0  0  0
   -4.6962   -0.8882    0.6525 C   0  0  0  0  0  0  0  0  0  0  0  0
   -3.5068   -1.7249   -1.2767 C   0  0  0  0  0  0  0  0  0  0  0  0
   -4.6648   -1.6716   -0.5010 C   0  0  0  0  0  0  0  0  0  0  0  0
  1 10  1  0
  2 10  2  0
  3  4  1  0
  3  5  1  0
  4  7  1  0
  4 10  1  0
  5  6  1  0
  6  8  2  0
  6  9  1  0
  7 11  2  0
  7 12  1  0
  8 13  1  0
  8 14  1  0
  9 15  2  0
 11 17  1  0
 12 18  2  0
 13 16  2  0
 15 16  1  0
 17 19  2  0
 18 19  1  0
M  END
>  <PUBCHEM_COMPOUND_CID>  (1) 
45157

>  <PUBCHEM_CONFORMER_RMSD>  (1) 
0.6

>  <PUBCHEM_CONFORMER_DIVERSEORDER>  (1) 
1
17
24
41
26
21
34
45
27
15
36
30
10
25
18
16
44
43
13
32
35
20
12
38
11
37
28
19
39
7
4
29
33
2
8
22
5
9
40
31
23
14
42
3
6

>  <PUBCHEM_MMFF94_PARTIAL_CHARGES>  (1) 
30
1 -0.65
10 0.66
11 -0.15
12 -0.15
13 -0.15
14 0.14
15 -0.15
16 -0.15
17 -0.15
18 -0.15
19 -0.15
2 -0.57
23 0.36
24 0.15
25 0.15
26 0.15
27 0.15
3 -0.9
31 0.15
32 0.15
33 0.15
34 0.15
35 0.15
36 0.5
4 0.47
5 0.41
6 -0.14
7 -0.14
8 -0.14
9 -0.15

>  <PUBCHEM_EFFECTIVE_ROTOR_COUNT>  (1) 
5

>  <PUBCHEM_PHARMACOPHORE_FEATURES>  (1) 
7
1 1 acceptor
1 2 acceptor
1 3 cation
1 3 donor
3 1 2 10 anion
6 6 8 9 13 15 16 rings
6 7 11 12 17 18 19 rings

>  <PUBCHEM_HEAVY_ATOM_COUNT>  (1) 
19

>  <PUBCHEM_ATOM_DEF_STEREO_COUNT>  (1) 
0

>  <PUBCHEM_ATOM_UDEF_STEREO_COUNT>  (1) 
1

>  <PUBCHEM_BOND_DEF_STEREO_COUNT>  (1) 
0

>  <PUBCHEM_BOND_UDEF_STEREO_COUNT>  (1) 
0

>  <PUBCHEM_ISOTOPIC_ATOM_COUNT>  (1) 
0

>  <PUBCHEM_COMPONENT_COUNT>  (1) 
1

>  <PUBCHEM_CACTVS_TAUTO_COUNT>  (1) 
1

>  <PUBCHEM_CONFORMER_ID>  (1) 
0000B06500000001

>  <PUBCHEM_MMFF94_ENERGY>  (1) 
52.4172

>  <PUBCHEM_FEATURE_SELFOVERLAP>  (1) 
35.581

>  <PUBCHEM_SHAPE_FINGERPRINT>  (1) 
11045515 52 17095525101915666933
11046707 91 18343018895814461675
11578080 2 18263625368517961020
12363563 72 18272367606981108635
12553582 1 18412541033097521875
12596602 18 11743838079707809439
12633257 1 17203337723177499027
12714826 92 18342453708056654105
12788726 201 18340504299605117209
12892183 10 14476972202601784859
13583140 156 17487596564930531610
13675066 3 15339124528258362634
14123260 362 8574710221447143255
14178342 30 17630899209280805810
14251757 17 15502642836937651247
14251764 30 17895764014529584355
14251764 38 8645326317614664806
14576447 43 18040718044104213986
15342816 4 18270962474086340903
15422964 175 16486707882796314060
16752209 62 18189319226103283579
17804303 29 17703795859777200411
1813 80 18340773731825612053
18186145 218 15864066585495726433
18222031 100 18201715210721498151
18915474 69 18335140946372534926
19141452 34 17632577171610256671
192875 21 17603575318917791008
19862831 5 17095238116268762714
200 152 17967814946365847354
204376 136 10303819791321569069
20645477 70 16226045544903769194
20671657 53 17603867814348151165
221357 26 16515396374342411935
22646028 1 18408602552534979482
22646028 28 18410292518928510746
22950370 63 18336271231831253555
23402539 116 18333450923906811458
235170 7 16008741416295210507
23557571 272 18130793308762432756
23559900 14 17531250616584711640
23596394 208 15936405628904195842
23598288 3 18263372395249603305
23622692 88 10519719856192572444
3004659 81 18259981591330524382
31174 14 17845641677033147712
312423 11 18261406524425265180
314173 85 18202279217057357339
351380 3 18410295821600352731
4028521 119 13262671539242426407
4325135 7 18201438134065806536
465052 167 18340495563916080087
5104073 3 17560242573825697227
5281201 14 16153706526853796254
602551 16 17918276454572385158
7164475 11 18188204308507048396
7471813 234 18334294275691497996
7970288 3 18411416241250829539
960060 61 18114177596612869279

>  <PUBCHEM_SHAPE_MULTIPOLES>  (1) 
374.29
10.48
2.12
1.45
1.15
1.35
-0.27
-6.96
-0.41
-1.08
-0.07
0.55
0.03
-1.33

>  <PUBCHEM_SHAPE_SELFOVERLAP>  (1) 
793.994

>  <PUBCHEM_SHAPE_VOLUME>  (1) 
208.9

>  <PUBCHEM_COORDINATE_TYPE>  (1) 
2
5
10

$$$$
