45150
     RDKit          3D

 20 21  0  0  0  0  0  0  0  0999 V2000
    0.7349    0.6605    1.0545 O   0  0  0  0  0  0  0  0  0  0  0  0
   -2.7030    0.6322    0.0776 O   0  0  0  0  0  0  0  0  0  0  0  0
   -1.5181   -0.7362    1.5099 O   0  0  0  0  0  0  0  0  0  0  0  0
   -6.2690   -0.2567   -0.2319 N   0  0  0  0  0  0  0  0  0  0  0  0
   -5.0372    0.4846   -0.4590 C   0  0  0  0  0  0  0  0  0  0  0  0
    2.7974   -0.1974    0.1352 C   0  0  0  0  0  0  0  0  0  0  0  0
    4.0366    0.0710   -0.4935 C   0  0  0  0  0  0  0  0  0  0  0  0
   -3.8941   -0.1152    0.3440 C   0  0  0  0  0  0  0  0  0  0  0  0
    1.9403    0.8705    0.4472 C   0  0  0  0  0  0  0  0  0  0  0  0
    2.4519   -1.5257    0.4332 C   0  0  0  0  0  0  0  0  0  0  0  0
    4.3821    1.3991   -0.7919 C   0  0  0  0  0  0  0  0  0  0  0  0
    2.2998    2.1841    0.1438 C   0  0  0  0  0  0  0  0  0  0  0  0
    4.8937   -0.9968   -0.8056 C   0  0  0  0  0  0  0  0  0  0  0  0
   -6.0998   -1.6660   -0.5940 C   0  0  0  0  0  0  0  0  0  0  0  0
   -7.3751    0.3310   -0.9918 C   0  0  0  0  0  0  0  0  0  0  0  0
    3.5183    2.4479   -0.4747 C   0  0  0  0  0  0  0  0  0  0  0  0
   -0.4258    1.0905    0.3494 C   0  0  0  0  0  0  0  0  0  0  0  0
    3.3159   -2.5742    0.1162 C   0  0  0  0  0  0  0  0  0  0  0  0
    4.5346   -2.3102   -0.5020 C   0  0  0  0  0  0  0  0  0  0  0  0
   -1.5833    0.2071    0.7334 C   0  0  0  0  0  0  0  0  0  0  0  0
  1  9  1  0
  1 17  1  0
  2  8  1  0
  2 20  1  0
  3 20  2  0
  4  5  1  0
  4 14  1  0
  4 15  1  0
  5  8  1  0
  6  7  1  0
  6  9  2  0
  6 10  1  0
  7 11  2  0
  7 13  1  0
  9 12  1  0
 10 18  2  0
 11 16  1  0
 12 16  2  0
 13 19  2  0
 17 20  1  0
 18 19  1  0
M  END
>  <PUBCHEM_COMPOUND_CID>  (1) 
45150

>  <PUBCHEM_CONFORMER_RMSD>  (1) 
0.8

>  <PUBCHEM_CONFORMER_DIVERSEORDER>  (1) 
1
64
181
145
168
70
246
302
71
258
57
244
47
34
294
80
224
24
49
184
125
172
85
29
22
273
155
157
60
300
268
15
228
95
236
90
73
259
111
171
97
54
316
178
108
134
220
146
163
89
43
195
119
126
127
317
35
264
235
203
13
198
154
174
28
275
137
45
299
20
147
33
210
256
62
17
39
179
272
82
239
2
177
208
320
63
232
8
262
170
131
295
23
100
136
76
261
221
102
269
331
305
56
330
135
290
196
84
319
99
31
93
112
312
175
52
4
140
41
26
306
106
98
307
36
169
87
308
55
113
92
162
201
311
223
27
241
30
123
304
75
216
9
161
322
291
267
296
132
288
255
248
197
143
3
42
260
5
86
192
144
110
329
105
79
257
281
83
283
81
279
129
16
153
217
96
67
94
78
156
38
301
278
189
46
321
222
211
237
19
176
130
151
314
10
91
72
21
266
214
128
14
139
326
313
18
109
240
124
230
58
202
284
243
309
115
50
234
142
51
44
120
212
251
188
37
298
61
141
218
180
150
253
7
250
324
194
173
32
53
122
117
107
289
285
325
40
226
287
160
207
152
191
219
265
282
165
116
11
215
277
286
164
249
185
69
247
133
121
103
186
149
323
200
183
254
276
213
77
318
242
233
148
205
158
25
101
297
6
65
104
204
199
159
206
327
315
182
238
271
328
48
303
263
167
74
190
59
209
12
114
270
274
138
225
88
187
245
227
310
66
68
280
252
193
118
292
231
229
166
293

>  <PUBCHEM_MMFF94_PARTIAL_CHARGES>  (1) 
25
1 -0.36
10 -0.15
11 -0.15
12 -0.15
13 -0.15
14 0.27
15 0.27
16 -0.15
17 0.34
18 -0.15
19 -0.15
2 -0.43
20 0.66
25 0.15
26 0.15
27 0.15
28 0.15
3 -0.57
35 0.15
38 0.15
39 0.15
4 -0.81
5 0.27
8 0.28
9 0.08

>  <PUBCHEM_EFFECTIVE_ROTOR_COUNT>  (1) 
7

>  <PUBCHEM_PHARMACOPHORE_FEATURES>  (1) 
5
1 1 acceptor
1 3 acceptor
1 4 cation
6 6 7 10 13 18 19 rings
6 6 7 9 11 12 16 rings

>  <PUBCHEM_HEAVY_ATOM_COUNT>  (1) 
20

>  <PUBCHEM_ATOM_DEF_STEREO_COUNT>  (1) 
0

>  <PUBCHEM_ATOM_UDEF_STEREO_COUNT>  (1) 
0

>  <PUBCHEM_BOND_DEF_STEREO_COUNT>  (1) 
0

>  <PUBCHEM_BOND_UDEF_STEREO_COUNT>  (1) 
0

>  <PUBCHEM_ISOTOPIC_ATOM_COUNT>  (1) 
0

>  <PUBCHEM_COMPONENT_COUNT>  (1) 
1

>  <PUBCHEM_CACTVS_TAUTO_COUNT>  (1) 
1

>  <PUBCHEM_CONFORMER_ID>  (1) 
0000B05E00000001

>  <PUBCHEM_MMFF94_ENERGY>  (1) 
57.1384

>  <PUBCHEM_FEATURE_SELFOVERLAP>  (1) 
25.405

>  <PUBCHEM_SHAPE_FINGERPRINT>  (1) 
10378564 45 18261668190875799765
10595046 47 18341614849900165553
10670039 82 15285915797699656391
11796584 16 17561085847551067087
12236239 1 17775290447520795009
125118 31 11098122350658165799
12670543 26 18334854988119685269
12730499 353 18041003955164807451
12788726 201 17489597753233586737
13167823 11 18343863329614096583
13533116 47 18343584053307440953
13668630 136 17847066579688402119
13836976 161 18342741823358668662
14251740 57 16772964584068463142
14528608 73 18186516618683404811
14576447 43 18341337695760443678
14863182 85 16558756672288390630
15183329 4 18410855430854746489
17844677 252 18410016511983472037
17857418 61 18060698386393949079
19784866 240 17846222120229771707
20028762 73 18130788906696144966
20369508 70 17704348883723870184
20554085 129 17915451908744954736
20645477 70 18410013230216494434
21285901 2 17894908507940081748
220451 1 18202006568813387739
22061861 79 18409444778831914999
221357 26 18334292033365212997
2215653 11 18334013882998748055
22224240 67 18200304537899433728
22289505 5 18187081741500329708
23081809 10 17846781819684299217
23424782 7 17968384554515947787
23522609 53 17844274958853727249
23559900 14 18334297612263902016
23622692 118 18271811151414118264
2871803 45 18260834774078358864
29717793 49 18273217478177834797
3004659 81 18411979143837433858
3472631 163 15719684267691814836
34797466 226 17458068200908828101
351380 3 17560798836271821359
4073 2 18187368787423896971
42630746 31 18413107282255668096
439807 62 18200870799346850655
46194498 28 18040154032687313716
465052 167 17989209243640329127
5281201 14 18259985942116623252
5385378 56 9151168728437264966
59682541 52 18409440367837302415
6025842 7 18411139173400343692
6327066 14 17828493793151732732
960060 61 18410577296666285917
9841814 1 16200425905399049611

>  <PUBCHEM_SHAPE_MULTIPOLES>  (1) 
389
16.35
2.41
0.98
33.96
0.42
0.08
3.97
-6.56
-3.92
-0.24
0.21
0.02
-0.16

>  <PUBCHEM_SHAPE_SELFOVERLAP>  (1) 
815.027

>  <PUBCHEM_SHAPE_VOLUME>  (1) 
221.4

>  <PUBCHEM_COORDINATE_TYPE>  (1) 
2
5
10

$$$$
