45167
     RDKit          3D

 13 13  0  0  0  0  0  0  0  0999 V2000
    1.1693    0.4327    0.3836 O   0  0  0  0  0  0  0  0  0  0  0  0
    3.9529    0.1889    0.5721 O   0  0  0  0  0  0  0  0  0  0  0  0
    0.7034   -2.0708    0.1980 O   0  0  0  0  0  0  0  0  0  0  0  0
   -1.4161   -2.8745   -0.1493 N   0  0  0  0  0  0  0  0  0  0  0  0
   -0.1706    0.6126    0.2123 C   0  0  0  0  0  0  0  0  0  0  0  0
   -1.0233   -0.4772    0.0366 C   0  0  0  0  0  0  0  0  0  0  0  0
    2.0320    1.0367   -0.5779 C   0  0  0  0  0  0  0  0  0  0  0  0
   -0.6865    1.9086    0.2150 C   0  0  0  0  0  0  0  0  0  0  0  0
   -2.3920   -0.2710   -0.1367 C   0  0  0  0  0  0  0  0  0  0  0  0
    3.3002    0.2128   -0.6915 C   0  0  0  0  0  0  0  0  0  0  0  0
   -2.0553    2.1148    0.0415 C   0  0  0  0  0  0  0  0  0  0  0  0
   -2.9081    1.0250   -0.1346 C   0  0  0  0  0  0  0  0  0  0  0  0
   -0.5057   -1.8384    0.0310 C   0  0  0  0  0  0  0  0  0  0  0  0
  1  5  1  0
  1  7  1  0
  2 10  1  0
  3 13  2  0
  4 13  1  0
  5  6  2  0
  5  8  1  0
  6  9  1  0
  6 13  1  0
  7 10  1  0
  8 11  2  0
  9 12  2  0
 11 12  1  0
M  END
>  <PUBCHEM_COMPOUND_CID>  (1) 
45167

>  <PUBCHEM_CONFORMER_RMSD>  (1) 
0.6

>  <PUBCHEM_CONFORMER_DIVERSEORDER>  (1) 
10
39
32
38
47
13
1
43
29
50
40
16
20
35
46
52
37
27
49
25
12
30
44
34
22
42
19
23
48
28
11
4
33
41
31
36
3
15
45
9
2
18
51
21
24
26
17
8
14
6
5
7

>  <PUBCHEM_MMFF94_PARTIAL_CHARGES>  (1) 
20
1 -0.36
10 0.28
11 -0.15
12 -0.15
13 0.54
16 0.15
17 0.15
2 -0.68
20 0.15
21 0.15
22 0.37
23 0.37
24 0.4
3 -0.57
4 -0.8
5 0.08
6 0.09
7 0.28
8 -0.15
9 -0.15

>  <PUBCHEM_EFFECTIVE_ROTOR_COUNT>  (1) 
4

>  <PUBCHEM_PHARMACOPHORE_FEATURES>  (1) 
6
1 1 acceptor
1 2 acceptor
1 2 donor
1 3 acceptor
1 4 donor
6 5 6 8 9 11 12 rings

>  <PUBCHEM_HEAVY_ATOM_COUNT>  (1) 
13

>  <PUBCHEM_ATOM_DEF_STEREO_COUNT>  (1) 
0

>  <PUBCHEM_ATOM_UDEF_STEREO_COUNT>  (1) 
0

>  <PUBCHEM_BOND_DEF_STEREO_COUNT>  (1) 
0

>  <PUBCHEM_BOND_UDEF_STEREO_COUNT>  (1) 
0

>  <PUBCHEM_ISOTOPIC_ATOM_COUNT>  (1) 
0

>  <PUBCHEM_COMPONENT_COUNT>  (1) 
1

>  <PUBCHEM_CACTVS_TAUTO_COUNT>  (1) 
2

>  <PUBCHEM_CONFORMER_ID>  (1) 
0000B06F0000000A

>  <PUBCHEM_MMFF94_ENERGY>  (1) 
44.3237

>  <PUBCHEM_FEATURE_SELFOVERLAP>  (1) 
30.465

>  <PUBCHEM_SHAPE_FINGERPRINT>  (1) 
12716758 59 18340767130244587176
13024252 1 14201396101389560949
13380535 76 18337671914744185879
14614273 12 18189050893932694813
14648413 74 17543073377244861593
15669948 3 18337113479218033316
16945 1 18411139155745564693
193761 8 17690000033611516397
20510252 161 18272374161159692744
20645476 183 17677352600591633798
20871998 184 18128825324645750462
20871998 22 17546446034515443979
21501502 16 18051128099720608921
21524375 3 18187928326693399353
2334 1 17834677475628842073
23402539 116 18342447158226227173
23463225 33 18188769414739533778
23526114 1 18050005484883284836
23552423 10 17906169551797724317
23559900 14 18272371971733647620
241688 4 16032956691170525507
257057 1 17621591044224365022
2748010 2 18193567666018448935
305870 269 18191307065716657740
43471831 8 18335983052030883147
528862 383 18044654200477246691
54173680 148 18265616665674226459
5706482 22 18411132507051651683
7364860 26 17837491847465258903
81228 2 18121497122685824249

>  <PUBCHEM_SHAPE_MULTIPOLES>  (1) 
244.94
4.72
2.58
0.7
4.44
1.59
0.03
-1.56
0.25
-1.43
-0.01
0.22
-0.07
-0.16

>  <PUBCHEM_SHAPE_SELFOVERLAP>  (1) 
506.426

>  <PUBCHEM_SHAPE_VOLUME>  (1) 
140

>  <PUBCHEM_COORDINATE_TYPE>  (1) 
2
5
10

$$$$
