45168
     RDKit          3D

 20 21  0  0  0  0  0  0  0  0999 V2000
    1.7065   -1.4687    0.7220 O   0  0  0  0  0  0  0  0  0  0  0  0
    3.5466    0.4246    1.0061 O   0  0  0  0  0  0  0  0  0  0  0  0
    4.0165   -2.2656   -0.6463 O   0  0  0  0  0  0  0  0  0  0  0  0
    3.3209    2.1261   -0.5529 N   0  0  0  0  0  0  0  0  0  0  0  0
   -1.3609    0.3991    0.0516 C   0  0  0  0  0  0  0  0  0  0  0  0
    0.8780   -0.4278    0.4255 C   0  0  0  0  0  0  0  0  0  0  0  0
    1.3883    0.8497    0.1941 C   0  0  0  0  0  0  0  0  0  0  0  0
   -0.4968   -0.6531    0.3541 C   0  0  0  0  0  0  0  0  0  0  0  0
   -2.7870    0.1658   -0.0224 C   0  0  0  0  0  0  0  0  0  0  0  0
   -0.8507    1.6765   -0.1795 C   0  0  0  0  0  0  0  0  0  0  0  0
    0.5239    1.9018   -0.1083 C   0  0  0  0  0  0  0  0  0  0  0  0
   -3.5771    0.3079    1.1185 C   0  0  0  0  0  0  0  0  0  0  0  0
   -3.3721   -0.2006   -1.2346 C   0  0  0  0  0  0  0  0  0  0  0  0
    2.8201    1.1067    0.2636 C   0  0  0  0  0  0  0  0  0  0  0  0
    1.6920   -2.5819   -0.1690 C   0  0  0  0  0  0  0  0  0  0  0  0
   -4.9519    0.0834    1.0474 C   0  0  0  0  0  0  0  0  0  0  0  0
   -4.7470   -0.4250   -1.3057 C   0  0  0  0  0  0  0  0  0  0  0  0
    3.0677   -3.2201   -0.1859 C   0  0  0  0  0  0  0  0  0  0  0  0
   -5.5368   -0.2830   -0.1647 C   0  0  0  0  0  0  0  0  0  0  0  0
    4.7198    2.4843   -0.6137 C   0  0  0  0  0  0  0  0  0  0  0  0
  1  6  1  0
  1 15  1  0
  2 14  2  0
  3 18  1  0
  4 14  1  0
  4 20  1  0
  5  8  2  0
  5  9  1  0
  5 10  1  0
  6  7  2  0
  6  8  1  0
  7 11  1  0
  7 14  1  0
  9 12  2  0
  9 13  1  0
 10 11  2  0
 12 16  1  0
 13 17  2  0
 15 18  1  0
 16 19  2  0
 17 19  1  0
M  END
>  <PUBCHEM_COMPOUND_CID>  (1) 
45168

>  <PUBCHEM_CONFORMER_RMSD>  (1) 
0.8

>  <PUBCHEM_CONFORMER_DIVERSEORDER>  (1) 
1
16
3
13
17
14
11
2
18
4
10
19
6
22
8
5
9
15
21
12
20
7

>  <PUBCHEM_MMFF94_PARTIAL_CHARGES>  (1) 
28
1 -0.36
10 -0.15
11 -0.15
12 -0.15
13 -0.15
14 0.54
15 0.28
16 -0.15
17 -0.15
18 0.28
19 -0.15
2 -0.57
20 0.3
21 0.15
22 0.15
23 0.15
24 0.15
25 0.15
28 0.15
29 0.15
3 -0.68
32 0.15
33 0.37
37 0.4
4 -0.73
6 0.08
7 0.09
8 -0.15

>  <PUBCHEM_EFFECTIVE_ROTOR_COUNT>  (1) 
6

>  <PUBCHEM_PHARMACOPHORE_FEATURES>  (1) 
7
1 1 acceptor
1 2 acceptor
1 3 acceptor
1 3 donor
1 4 donor
6 5 6 7 8 10 11 rings
6 9 12 13 16 17 19 rings

>  <PUBCHEM_HEAVY_ATOM_COUNT>  (1) 
20

>  <PUBCHEM_ATOM_DEF_STEREO_COUNT>  (1) 
0

>  <PUBCHEM_ATOM_UDEF_STEREO_COUNT>  (1) 
0

>  <PUBCHEM_BOND_DEF_STEREO_COUNT>  (1) 
0

>  <PUBCHEM_BOND_UDEF_STEREO_COUNT>  (1) 
0

>  <PUBCHEM_ISOTOPIC_ATOM_COUNT>  (1) 
0

>  <PUBCHEM_COMPONENT_COUNT>  (1) 
1

>  <PUBCHEM_CACTVS_TAUTO_COUNT>  (1) 
2

>  <PUBCHEM_CONFORMER_ID>  (1) 
0000B07000000001

>  <PUBCHEM_MMFF94_ENERGY>  (1) 
65.4384

>  <PUBCHEM_FEATURE_SELFOVERLAP>  (1) 
35.534

>  <PUBCHEM_SHAPE_FINGERPRINT>  (1) 
11471102 20 18335135427350115489
12107183 9 17768260011818246489
12236239 1 18060139856294145793
12553582 1 18194115214367645419
13140716 1 18122338244617677432
13533116 47 18272930527692873723
13631057 29 17983571103302362031
13760787 5 18335416898084638801
13911882 115 18042985331274699995
13955234 65 18412262844013249834
14252887 29 18408040702082350921
14576447 43 18129084797111619775
14790565 3 18121788484562062908
15375358 24 17676200295378849137
15475509 35 14189581810088473668
15502722 9 18409168796691179214
17818456 19 17486501390892937433
1813 80 18057051198365280903
18186145 218 17530967930548354323
200 152 18340198700661969273
20281475 54 18201993327123447527
20388580 30 18271528572673088486
204376 136 18262518229074765489
20612939 158 18411700971785402535
20645477 70 18334288769015539827
21054139 6 18127400374856313895
21065198 48 18130793348208260545
21065201 7 15052014580900307197
221490 88 18263926548808763388
22182313 1 18189879942636937164
2255824 54 18339923718853345146
23557571 272 16877660141389262013
23559900 14 18264759965753605067
23566358 27 18413111640982958902
23598291 2 18131067100401373087
25147074 1 18058461923418082249
266924 1 18059588948648651936
2748010 2 18119513354580341220
3071541 37 18409450306111972260
312423 11 18200320922408052065
34797466 226 16588321500476993863
42630746 31 18413106165300309954
465052 167 17894904127621637336
5104073 3 18130511851677774587
59755656 215 18407763634232741740
633830 44 18188204304660285627
7364860 26 18412265013050770610
81539 233 18260546762040130238
8272917 22 18410294713561626213
9709674 26 18334011666642590747
9981440 41 15761587961180808768

>  <PUBCHEM_SHAPE_MULTIPOLES>  (1) 
389
10.56
2.8
1.03
7.03
1.62
-0.05
-0.45
-1.16
-5.78
-0.51
0.82
0.01
-0.42

>  <PUBCHEM_SHAPE_SELFOVERLAP>  (1) 
827.78

>  <PUBCHEM_SHAPE_VOLUME>  (1) 
217.3

>  <PUBCHEM_COORDINATE_TYPE>  (1) 
2
5
10

$$$$
