4516
     RDKit          3D

 12 11  0  0  1  0  0  0  0  0999 V2000
    1.6177    0.4715    1.9795 O   0  0  0  0  0  0  0  0  0  0  0  0
    1.4295    1.9279   -1.2607 O   0  0  0  0  0  0  0  0  0  0  0  0
   -2.6071   -0.5400    0.0086 N   0  0  0  0  0  0  0  0  0  0  0  0
    1.1213   -0.6056   -0.2719 N   0  0  0  0  0  0  0  0  0  0  0  0
    1.4499    0.5869    0.5664 N   0  0  0  0  0  0  0  0  0  0  0  0
    1.6011    1.9237   -0.0367 N   0  0  0  0  0  0  0  0  0  0  0  0
   -1.2378    0.0147   -0.1245 C   0  0  0  0  0  0  0  0  0  0  0  0
   -0.2358   -1.1272   -0.0950 C   0  0  0  0  0  0  0  0  0  0  0  0
   -3.6917    0.4768   -0.0633 C   0  0  0  0  0  0  0  0  0  0  0  0
    2.0830   -1.7094   -0.2701 C   0  0  0  0  0  0  0  0  0  0  0  0
   -5.0330   -0.2187    0.0197 C   0  0  0  0  0  0  0  0  0  0  0  0
    3.5030   -1.2006   -0.4521 C   0  0  0  0  0  0  0  0  0  0  0  0
  1  5  1  0
  2  6  2  0
  3  7  1  0
  3  9  1  0
  4  5  1  0
  4  8  1  0
  4 10  1  0
  5  6  1  0
  7  8  1  0
  9 11  1  0
 10 12  1  0
M  CHG  2   1  -1   3   1
M  END
>  <PUBCHEM_COMPOUND_CID>  (1) 
4516

>  <PUBCHEM_CONFORMER_RMSD>  (1) 
0.8

>  <PUBCHEM_CONFORMER_DIVERSEORDER>  (1) 
1
84
64
50
49
154
117
101
62
3
54
92
55
142
112
129
8
70
115
152
17
126
67
31
82
85
124
151
2
116
139
24
157
26
81
34
111
143
140
30
98
11
161
36
105
146
61
93
29
22
45
131
130
159
72
132
75
109
53
145
120
6
94
104
52
114
71
160
118
37
42
141
44
38
91
89
21
110
4
153
51
78
43
47
158
102
108
113
121
63
119
58
56
16
9
122
156
97
87
57
18
127
68
32
133
33
147
99
66
83
134
100
128
96
25
74
13
76
95
65
12
46
137
138
80
35
41
155
107
149
7
150
86
136
5
125
48
90
73
144
28
59
103
106
40
135
88
10
60
79
27
148
69
39
23
77
15
19
14
20
123

>  <PUBCHEM_MMFF94_PARTIAL_CHARGES>  (1) 
12
1 -0.86
10 0.27
17 0.45
18 0.45
2 -0.16
3 -0.91
4 -0.69
5 0.34
6 -0.17
7 0.5
8 0.27
9 0.5

>  <PUBCHEM_EFFECTIVE_ROTOR_COUNT>  (1) 
7

>  <PUBCHEM_PHARMACOPHORE_FEATURES>  (1) 
2
1 3 cation
1 3 donor

>  <PUBCHEM_HEAVY_ATOM_COUNT>  (1) 
12

>  <PUBCHEM_ATOM_DEF_STEREO_COUNT>  (1) 
0

>  <PUBCHEM_ATOM_UDEF_STEREO_COUNT>  (1) 
0

>  <PUBCHEM_BOND_DEF_STEREO_COUNT>  (1) 
0

>  <PUBCHEM_BOND_UDEF_STEREO_COUNT>  (1) 
0

>  <PUBCHEM_ISOTOPIC_ATOM_COUNT>  (1) 
0

>  <PUBCHEM_COMPONENT_COUNT>  (1) 
1

>  <PUBCHEM_CACTVS_TAUTO_COUNT>  (1) 
1

>  <PUBCHEM_CONFORMER_ID>  (1) 
000011A400000001

>  <PUBCHEM_MMFF94_ENERGY>  (1) 
10.6571

>  <PUBCHEM_FEATURE_SELFOVERLAP>  (1) 
10.148

>  <PUBCHEM_SHAPE_FINGERPRINT>  (1) 
12932764 1 16878214334078582423
14648413 74 18189344626550414858
170605 34 17896040017116364909
18186145 218 17894907434862499103
20339313 130 18411706456384643477
20671657 1 18341898540641923837
20708731 107 18411143545096490462
23380061 81 18408610275038898569
23526113 38 17969514714112723019
3248919 1 18337096982338462887
7364860 26 18341332283548003172

>  <PUBCHEM_SHAPE_MULTIPOLES>  (1) 
215.29
7.27
1.73
1
9.96
0.63
-0.38
-1.53
0.36
-1.71
0.38
-0.68
0.39
0.13

>  <PUBCHEM_SHAPE_SELFOVERLAP>  (1) 
379.349

>  <PUBCHEM_SHAPE_VOLUME>  (1) 
141.4

>  <PUBCHEM_COORDINATE_TYPE>  (1) 
2
5
10

$$$$
