4517
     RDKit          3D

 12 11  0  0  1  0  0  0  0  0999 V2000
    1.5596   -0.4858   -1.9849 O   0  0  0  0  0  0  0  0  0  0  0  0
    1.3824   -1.9346    1.2593 O   0  0  0  0  0  0  0  0  0  0  0  0
    1.1306    0.6061    0.2733 N   0  0  0  0  0  0  0  0  0  0  0  0
   -2.5968    0.6133    0.0372 N   0  0  0  0  0  0  0  0  0  0  0  0
    1.4115   -0.5957   -0.5692 N   0  0  0  0  0  0  0  0  0  0  0  0
    1.5342   -1.9359    0.0326 N   0  0  0  0  0  0  0  0  0  0  0  0
   -0.2138    1.1660    0.1177 C   0  0  0  0  0  0  0  0  0  0  0  0
   -1.2566    0.0536    0.1743 C   0  0  0  0  0  0  0  0  0  0  0  0
    2.1234    1.6820    0.2549 C   0  0  0  0  0  0  0  0  0  0  0  0
   -3.6030   -0.4386    0.0627 C   0  0  0  0  0  0  0  0  0  0  0  0
    3.5310    1.1329    0.4144 C   0  0  0  0  0  0  0  0  0  0  0  0
   -5.0026    0.1369   -0.0723 C   0  0  0  0  0  0  0  0  0  0  0  0
  1  5  1  0
  2  6  2  0
  3  5  1  0
  3  7  1  0
  3  9  1  0
  4  8  1  0
  4 10  1  0
  5  6  1  0
  7  8  1  0
  9 11  1  0
 10 12  1  0
M  CHG  1   1  -1
M  END
>  <PUBCHEM_COMPOUND_CID>  (1) 
4517

>  <PUBCHEM_CONFORMER_RMSD>  (1) 
0.8

>  <PUBCHEM_CONFORMER_DIVERSEORDER>  (1) 
1
131
53
101
69
134
87
117
143
41
3
121
129
133
135
44
49
63
54
4
102
112
153
140
123
147
103
113
90
30
119
28
141
75
32
92
124
91
130
45
22
64
138
36
8
31
38
98
107
47
23
115
142
122
146
65
132
128
6
60
97
94
17
33
145
156
29
34
70
100
59
62
40
48
95
120
5
2
20
42
152
26
10
56
74
78
39
24
21
126
72
58
88
61
148
57
83
46
82
76
71
137
27
104
19
89
66
55
68
52
11
108
14
155
105
51
12
144
37
110
139
43
136
114
16
84
7
81
86
118
77
79
9
150
111
18
116
35
15
25
109
13
67
93
73
149
99
80
154
106
85
125
50
96
127
151

>  <PUBCHEM_MMFF94_PARTIAL_CHARGES>  (1) 
11
1 -0.86
10 0.27
19 0.36
2 -0.16
3 -0.69
4 -0.9
5 0.34
6 -0.17
7 0.27
8 0.27
9 0.27

>  <PUBCHEM_EFFECTIVE_ROTOR_COUNT>  (1) 
7

>  <PUBCHEM_PHARMACOPHORE_FEATURES>  (1) 
2
1 4 cation
1 4 donor

>  <PUBCHEM_HEAVY_ATOM_COUNT>  (1) 
12

>  <PUBCHEM_ATOM_DEF_STEREO_COUNT>  (1) 
0

>  <PUBCHEM_ATOM_UDEF_STEREO_COUNT>  (1) 
0

>  <PUBCHEM_BOND_DEF_STEREO_COUNT>  (1) 
0

>  <PUBCHEM_BOND_UDEF_STEREO_COUNT>  (1) 
0

>  <PUBCHEM_ISOTOPIC_ATOM_COUNT>  (1) 
0

>  <PUBCHEM_COMPONENT_COUNT>  (1) 
1

>  <PUBCHEM_CACTVS_TAUTO_COUNT>  (1) 
1

>  <PUBCHEM_CONFORMER_ID>  (1) 
000011A500000001

>  <PUBCHEM_MMFF94_ENERGY>  (1) 
4.0712

>  <PUBCHEM_FEATURE_SELFOVERLAP>  (1) 
10.148

>  <PUBCHEM_SHAPE_FINGERPRINT>  (1) 
10219947 1 18187925131317001800
12346645 6 17846782914093883813
12932764 1 18264784181317478321
14251717 144 18411133636675594811
14252887 29 18059870479765456763
170605 34 18201721794458060788
20201158 50 18335139817043770249
20279233 1 18187368757438006683
20645477 70 18342736287362140895
20653091 64 18270966717688154648
21730867 7 18333729117591694643
22485316 2 18410852171048272479
23557571 272 17241034440887140261
3248919 1 16950575363255685257
366044 4 17845653780593696652
528862 383 18411973654874322362
58051976 378 18341890835723899813
581208 293 18410571816488495769
7364860 26 18341331098121218218
81539 233 18410008879267125604

>  <PUBCHEM_SHAPE_MULTIPOLES>  (1) 
215.29
7.17
1.72
1
9.48
0.66
-0.38
-1.45
0.25
-1.64
0.37
-0.65
0.4
0.12

>  <PUBCHEM_SHAPE_SELFOVERLAP>  (1) 
380.654

>  <PUBCHEM_SHAPE_VOLUME>  (1) 
141

>  <PUBCHEM_COORDINATE_TYPE>  (1) 
2
5
10

$$$$
