45173
     RDKit          3D

 23 23  0  0  0  0  0  0  0  0999 V2000
   -1.9052    1.3560    0.1917 O   0  0  0  0  0  0  0  0  0  0  0  0
   -3.8030   -0.2995   -0.9493 O   0  0  0  0  0  0  0  0  0  0  0  0
   -0.1020    1.4473    2.1156 O   0  0  0  0  0  0  0  0  0  0  0  0
    1.4499   -0.2684    1.9480 N   0  0  0  0  0  0  0  0  0  0  0  0
    3.9145    0.2556    0.5551 N   0  0  0  0  0  0  0  0  0  0  0  0
    2.8430   -1.0416   -2.5050 C   0  0  0  0  0  0  0  0  0  0  0  0
    4.0238   -0.4069   -1.7750 C   0  0  0  0  0  0  0  0  0  0  0  0
    2.0101   -1.9459   -1.5935 C   0  0  0  0  0  0  0  0  0  0  0  0
   -0.8379   -0.5589    1.1501 C   0  0  0  0  0  0  0  0  0  0  0  0
   -1.8392    0.0077    0.3874 C   0  0  0  0  0  0  0  0  0  0  0  0
    2.5468    0.4326    2.5590 C   0  0  0  0  0  0  0  0  0  0  0  0
    3.3758    1.1908    1.5369 C   0  0  0  0  0  0  0  0  0  0  0  0
    3.5528    0.4847   -0.6573 C   0  0  0  0  0  0  0  0  0  0  0  0
    0.1964    0.3059    1.7741 C   0  0  0  0  0  0  0  0  0  0  0  0
   -1.2117    1.8800   -0.9380 C   0  0  0  0  0  0  0  0  0  0  0  0
    0.8799   -2.6162   -2.3589 C   0  0  0  0  0  0  0  0  0  0  0  0
   -2.7999   -0.8225   -0.1904 C   0  0  0  0  0  0  0  0  0  0  0  0
   -1.3895    3.3902   -0.9672 C   0  0  0  0  0  0  0  0  0  0  0  0
   -0.7567   -1.9215    1.3592 C   0  0  0  0  0  0  0  0  0  0  0  0
   -2.7389   -2.2020    0.0067 C   0  0  0  0  0  0  0  0  0  0  0  0
   -1.7173   -2.7515    0.7814 C   0  0  0  0  0  0  0  0  0  0  0  0
   -0.6872    4.0186   -2.1574 C   0  0  0  0  0  0  0  0  0  0  0  0
   -5.0045    0.0655   -0.2731 C   0  0  0  0  0  0  0  0  0  0  0  0
  1 10  1  0
  1 15  1  0
  2 17  1  0
  2 23  1  0
  3 14  2  0
  4 11  1  0
  4 14  1  0
  5 12  1  0
  5 13  2  0
  6  7  1  0
  6  8  1  0
  7 13  1  0
  8 16  1  0
  9 10  2  0
  9 14  1  0
  9 19  1  0
 10 17  1  0
 11 12  1  0
 15 18  1  0
 17 20  2  0
 18 22  1  0
 19 21  2  0
 20 21  1  0
M  END
>  <PUBCHEM_COMPOUND_CID>  (1) 
45173

>  <PUBCHEM_CONFORMER_RMSD>  (1) 
1

>  <PUBCHEM_CONFORMER_DIVERSEORDER>  (1) 
1
56
216
91
218
147
179
194
217
47
134
132
69
170
28
36
14
187
16
139
142
183
95
92
182
100
174
154
37
110
137
80
87
75
195
106
20
205
136
88
192
101
107
39
35
212
208
141
176
33
186
70
57
157
140
66
203
130
32
86
26
162
126
125
53
213
163
122
6
9
219
199
211
121
166
200
215
74
222
204
158
120
185
12
155
149
178
191
111
24
102
17
112
103
18
135
209
81
50
31
115
161
29
45
116
94
68
3
97
54
184
62
113
43
133
27
104
63
89
59
138
108
52
221
77
160
21
41
90
38
23
78
206
96
84
214
198
169
51
71
145
151
76
8
175
148
64
224
72
5
119
93
128
124
127
168
171
123
196
220
167
146
109
67
165
11
48
153
15
22
189
10
55
150
190
49
173
42
144
73
105
82
131
181
118
210
19
61
40
83
143
223
79
159
172
34
188
30
117
156
197
180
4
152
201
193
85
44
7
60
98
202
2
65
129
25
164
58
207
99
114
46
177
13

>  <PUBCHEM_MMFF94_PARTIAL_CHARGES>  (1) 
23
1 -0.36
10 0.08
11 0.3
12 0.25
13 0.33
14 0.54
15 0.28
17 0.08
19 -0.15
2 -0.36
20 -0.15
21 -0.15
23 0.28
3 -0.57
34 0.06
37 0.37
4 -0.73
43 0.15
44 0.15
45 0.15
5 -0.7
7 0.06
9 0.09

>  <PUBCHEM_EFFECTIVE_ROTOR_COUNT>  (1) 
12

>  <PUBCHEM_PHARMACOPHORE_FEATURES>  (1) 
8
1 1 acceptor
1 16 hydrophobe
1 2 acceptor
1 22 hydrophobe
1 3 acceptor
1 4 donor
1 5 acceptor
6 9 10 17 19 20 21 rings

>  <PUBCHEM_HEAVY_ATOM_COUNT>  (1) 
23

>  <PUBCHEM_ATOM_DEF_STEREO_COUNT>  (1) 
0

>  <PUBCHEM_ATOM_UDEF_STEREO_COUNT>  (1) 
0

>  <PUBCHEM_BOND_DEF_STEREO_COUNT>  (1) 
0

>  <PUBCHEM_BOND_UDEF_STEREO_COUNT>  (1) 
0

>  <PUBCHEM_ISOTOPIC_ATOM_COUNT>  (1) 
0

>  <PUBCHEM_COMPONENT_COUNT>  (1) 
1

>  <PUBCHEM_CACTVS_TAUTO_COUNT>  (1) 
2

>  <PUBCHEM_CONFORMER_ID>  (1) 
0000B07500000001

>  <PUBCHEM_MMFF94_ENERGY>  (1) 
56.7261

>  <PUBCHEM_FEATURE_SELFOVERLAP>  (1) 
40.611

>  <PUBCHEM_SHAPE_FINGERPRINT>  (1) 
11582403 64 16473104694931234568
11640471 11 16732989725626844862
12788726 201 18041006115370379300
15664445 248 18189905385912214200
20600515 1 18189882292126622273
21285901 2 18341328916536002821
23419403 2 17773305734849470421
23557571 272 18412818084426956776
23559900 14 18341048601401025898
238 59 17202179868872353084
3323516 105 17560798818770341427
3493558 16 11644859691109609127
3524813 1 18059868276484508470
474 4 15140954084723458514
5262128 65 17973466552360782436

>  <PUBCHEM_SHAPE_MULTIPOLES>  (1) 
445.76
6.95
3.6
2.78
0.5
3.03
0.07
-0.72
-1.63
-2.11
-2.43
2.87
-0.1
1.88

>  <PUBCHEM_SHAPE_SELFOVERLAP>  (1) 
888.02

>  <PUBCHEM_SHAPE_VOLUME>  (1) 
264.2

>  <PUBCHEM_COORDINATE_TYPE>  (1) 
2
5
10

$$$$
