45187
     RDKit          3D

 10 11  0  0  1  0  0  0  0  0999 V2000
   -1.0358   -1.5575   -1.1273 N   0  0  0  0  0  0  0  0  0  0  0  0
    0.5190   -0.8871    0.7470 C   0  0  0  0  0  0  0  0  0  0  0  0
    0.8698    1.1881    0.0088 C   0  0  0  0  0  0  0  0  0  0  0  0
   -0.7916   -0.5942   -0.0482 C   0  0  0  0  0  0  0  0  0  0  0  0
   -0.5098    0.8375   -0.6155 C   0  0  0  0  0  0  0  0  0  0  0  0
    0.8257    0.4825    1.3648 C   0  0  0  0  0  0  0  0  0  0  0  0
    1.7342   -1.0464   -0.1921 C   0  0  0  0  0  0  0  0  0  0  0  0
    1.9587    0.3772   -0.7170 C   0  0  0  0  0  0  0  0  0  0  0  0
   -2.0114   -0.7034    0.8857 C   0  0  0  0  0  0  0  0  0  0  0  0
   -1.5587    1.9033   -0.3062 C   0  0  0  0  0  0  0  0  0  0  0  0
  1  4  1  0
  2  4  1  0
  2  6  1  0
  2  7  1  0
  3  5  1  0
  3  6  1  0
  3  8  1  0
  4  5  1  0
  4  9  1  0
  5 10  1  0
  7  8  1  0
M  END
>  <PUBCHEM_COMPOUND_CID>  (1) 
45187

>  <PUBCHEM_CONFORMER_RMSD>  (1) 
0.4

>  <PUBCHEM_CONFORMER_DIVERSEORDER>  (1) 
6
1
8
3
5
2
7
4

>  <PUBCHEM_MMFF94_PARTIAL_CHARGES>  (1) 
4
1 -0.99
26 0.36
27 0.36
4 0.27

>  <PUBCHEM_EFFECTIVE_ROTOR_COUNT>  (1) 
1

>  <PUBCHEM_PHARMACOPHORE_FEATURES>  (1) 
3
1 1 cation
1 1 donor
7 2 3 4 5 6 7 8 rings

>  <PUBCHEM_HEAVY_ATOM_COUNT>  (1) 
10

>  <PUBCHEM_ATOM_DEF_STEREO_COUNT>  (1) 
0

>  <PUBCHEM_ATOM_UDEF_STEREO_COUNT>  (1) 
4

>  <PUBCHEM_BOND_DEF_STEREO_COUNT>  (1) 
0

>  <PUBCHEM_BOND_UDEF_STEREO_COUNT>  (1) 
0

>  <PUBCHEM_ISOTOPIC_ATOM_COUNT>  (1) 
0

>  <PUBCHEM_COMPONENT_COUNT>  (1) 
1

>  <PUBCHEM_CACTVS_TAUTO_COUNT>  (1) 
1

>  <PUBCHEM_CONFORMER_ID>  (1) 
0000B08300000006

>  <PUBCHEM_MMFF94_ENERGY>  (1) 
35.5214

>  <PUBCHEM_FEATURE_SELFOVERLAP>  (1) 
15.223

>  <PUBCHEM_SHAPE_FINGERPRINT>  (1) 
12423570 1 14225881563619464430
13024252 1 17024904621235843732
137420 1 9686339983510927754
16945 1 18262537955854118818
18185500 45 17981322609990586519
21040471 1 18047459041723360561
241688 4 18124872623182727178
24536 1 17822555166659115858
2748010 2 18337393725475420652
29004967 10 18116449221763373770
5084963 1 17829591882390140589
528886 8 18047767175746401520
68250623 7 17897469218939028202

>  <PUBCHEM_SHAPE_MULTIPOLES>  (1) 
200.81
2.33
1.7
1.14
0.02
0.28
-0.15
-0.01
0.1
0.58
0.24
-0.01
-0.16
0.08

>  <PUBCHEM_SHAPE_SELFOVERLAP>  (1) 
419.383

>  <PUBCHEM_SHAPE_VOLUME>  (1) 
119.7

>  <PUBCHEM_COORDINATE_TYPE>  (1) 
2
5
10

$$$$
