45186
     RDKit          3D

 10 11  0  0  1  0  0  0  0  0999 V2000
    1.6007   -0.5206    0.7948 N   0  0  0  0  0  0  0  0  0  0  0  0
   -0.1941   -0.2546   -0.9655 C   0  0  0  0  0  0  0  0  0  0  0  0
    0.6961    0.4154    0.1258 C   0  0  0  0  0  0  0  0  0  0  0  0
   -1.7027    0.5924    0.4395 C   0  0  0  0  0  0  0  0  0  0  0  0
   -1.3813    0.7156   -1.0492 C   0  0  0  0  0  0  0  0  0  0  0  0
   -0.3659    0.9966    1.0957 C   0  0  0  0  0  0  0  0  0  0  0  0
   -0.9145   -1.5079   -0.4255 C   0  0  0  0  0  0  0  0  0  0  0  0
   -1.9015   -0.9252    0.5957 C   0  0  0  0  0  0  0  0  0  0  0  0
    1.5750    1.5261   -0.4721 C   0  0  0  0  0  0  0  0  0  0  0  0
    2.5881   -1.0377   -0.1391 C   0  0  0  0  0  0  0  0  0  0  0  0
  1  3  1  0
  1 10  1  0
  2  3  1  0
  2  5  1  0
  2  7  1  0
  3  6  1  0
  3  9  1  0
  4  5  1  0
  4  6  1  0
  4  8  1  0
  7  8  1  0
M  END
>  <PUBCHEM_COMPOUND_CID>  (1) 
45186

>  <PUBCHEM_CONFORMER_RMSD>  (1) 
0.4

>  <PUBCHEM_CONFORMER_DIVERSEORDER>  (1) 
1
2
4
3

>  <PUBCHEM_MMFF94_PARTIAL_CHARGES>  (1) 
4
1 -0.9
10 0.27
24 0.36
3 0.27

>  <PUBCHEM_EFFECTIVE_ROTOR_COUNT>  (1) 
2

>  <PUBCHEM_PHARMACOPHORE_FEATURES>  (1) 
3
1 1 cation
1 1 donor
7 2 3 4 5 6 7 8 rings

>  <PUBCHEM_HEAVY_ATOM_COUNT>  (1) 
10

>  <PUBCHEM_ATOM_DEF_STEREO_COUNT>  (1) 
0

>  <PUBCHEM_ATOM_UDEF_STEREO_COUNT>  (1) 
3

>  <PUBCHEM_BOND_DEF_STEREO_COUNT>  (1) 
0

>  <PUBCHEM_BOND_UDEF_STEREO_COUNT>  (1) 
0

>  <PUBCHEM_ISOTOPIC_ATOM_COUNT>  (1) 
0

>  <PUBCHEM_COMPONENT_COUNT>  (1) 
1

>  <PUBCHEM_CACTVS_TAUTO_COUNT>  (1) 
1

>  <PUBCHEM_CONFORMER_ID>  (1) 
0000B08200000001

>  <PUBCHEM_MMFF94_ENERGY>  (1) 
35.6624

>  <PUBCHEM_FEATURE_SELFOVERLAP>  (1) 
15.223

>  <PUBCHEM_SHAPE_FINGERPRINT>  (1) 
12423570 1 11855260977390296957
13024252 1 15069199856899538906
137420 1 12871999046397588749
14128692 85 18336833086399079294
15310529 11 17168149983776310202
16945 1 18042115479873963217
18185500 45 18196932394858666926
21040471 1 17632029554331229961
21922407 69 18197499738505577416
23552423 10 18335702796893248318
24536 1 18343010116727183200
29004967 10 18186799158490238600
369184 2 15841254970351361938
5084963 1 18272645714840563789
68250623 7 18263098741291716065

>  <PUBCHEM_SHAPE_MULTIPOLES>  (1) 
200.81
2.76
1.51
1.09
1.15
0.06
0.04
0.58
-0.15
0.19
0.06
-0.2
-0.14
-0.09

>  <PUBCHEM_SHAPE_SELFOVERLAP>  (1) 
418.205

>  <PUBCHEM_SHAPE_VOLUME>  (1) 
120.1

>  <PUBCHEM_COORDINATE_TYPE>  (1) 
2
5
10

$$$$
