45181
     RDKit          3D

 13 12  0  0  0  0  0  0  0  0999 V2000
    5.6071   -1.2043   -0.4653 N   0  0  0  0  0  0  0  0  0  0  0  0
   -5.5841    1.2012   -0.4551 N   0  0  0  0  0  0  0  0  0  0  0  0
    5.5116    1.1495   -0.5999 N   0  0  0  0  0  0  0  0  0  0  0  0
   -5.5401   -1.1536   -0.6012 N   0  0  0  0  0  0  0  0  0  0  0  0
    0.0004    0.0378   -0.1284 C   0  0  0  0  0  0  0  0  0  0  0  0
    1.2637    0.0207    0.7351 C   0  0  0  0  0  0  0  0  0  0  0  0
   -1.2633    0.0039    0.7337 C   0  0  0  0  0  0  0  0  0  0  0  0
    2.5270    0.0210   -0.1301 C   0  0  0  0  0  0  0  0  0  0  0  0
   -2.5256   -0.0129   -0.1329 C   0  0  0  0  0  0  0  0  0  0  0  0
    3.8106    0.0305    0.6994 C   0  0  0  0  0  0  0  0  0  0  0  0
   -3.8088   -0.0778    0.6946 C   0  0  0  0  0  0  0  0  0  0  0  0
    5.0516    0.0133   -0.1733 C   0  0  0  0  0  0  0  0  0  0  0  0
   -5.0502   -0.0293   -0.1765 C   0  0  0  0  0  0  0  0  0  0  0  0
  1 12  1  0
  2 13  1  0
  3 12  2  0
  4 13  2  0
  5  6  1  0
  5  7  1  0
  6  8  1  0
  7  9  1  0
  8 10  1  0
  9 11  1  0
 10 12  1  0
 11 13  1  0
M  END
>  <PUBCHEM_COMPOUND_CID>  (1) 
45181

>  <PUBCHEM_CONFORMER_RMSD>  (1) 
0.8

>  <PUBCHEM_CONFORMER_DIVERSEORDER>  (1) 
1
20
17
16
44
53
3
26
10
36
37
83
27
70
41
4
84
18
11
67
87
88
28
62
71
34
47
21
57
52
58
12
5
89
80
73
30
79
9
86
60
40
82
45
63
6
68
2
14
56
49
46
13
85
31
23
35
25
15
19
42
77
65
33
81
22
66
8
55
72
61
43
24
38
64
74
76
7
54
59
39
48
78
29
51
32
50
75
69

>  <PUBCHEM_MMFF94_PARTIAL_CHARGES>  (1) 
14
1 -0.85
10 0.06
11 0.06
12 0.44
13 0.44
2 -0.85
28 0.4
29 0.4
3 -0.85
30 0.4
31 0.4
32 0.4
33 0.4
4 -0.85

>  <PUBCHEM_EFFECTIVE_ROTOR_COUNT>  (1) 
8

>  <PUBCHEM_PHARMACOPHORE_FEATURES>  (1) 
6
1 1 donor
1 2 donor
1 3 donor
1 4 donor
3 1 3 12 cation
3 2 4 13 cation

>  <PUBCHEM_HEAVY_ATOM_COUNT>  (1) 
13

>  <PUBCHEM_ATOM_DEF_STEREO_COUNT>  (1) 
0

>  <PUBCHEM_ATOM_UDEF_STEREO_COUNT>  (1) 
0

>  <PUBCHEM_BOND_DEF_STEREO_COUNT>  (1) 
0

>  <PUBCHEM_BOND_UDEF_STEREO_COUNT>  (1) 
0

>  <PUBCHEM_ISOTOPIC_ATOM_COUNT>  (1) 
0

>  <PUBCHEM_COMPONENT_COUNT>  (1) 
1

>  <PUBCHEM_CACTVS_TAUTO_COUNT>  (1) 
1

>  <PUBCHEM_CONFORMER_ID>  (1) 
0000B07D00000001

>  <PUBCHEM_MMFF94_ENERGY>  (1) 
13.803

>  <PUBCHEM_FEATURE_SELFOVERLAP>  (1) 
30.525

>  <PUBCHEM_SHAPE_FINGERPRINT>  (1) 
11401426 45 15791449344286605771
117890 112 17022901241898191652
12091667 2 18333733520360421569
12714333 28 17385441033534504704
12815109 37 15863787304972841540
13533116 47 16588013573197523720
13862211 1 15770053917224826478
14123238 8 18410573993741385801
1420 363 16200435788282405135
14251718 22 18411699906796965291
14251731 8 17561361799004701471
15242439 84 18409448098155884547
15501527 16 14129062521390268241
15716309 27 8358253744507578713
17834072 33 18272650181464126820
17834076 25 16370444453469525648
20281389 69 16081081567910165485
20621476 66 18188774934237473333
20645477 56 14201114622128263771
20645477 70 18341052913738504254
20767249 13 16056879126122005747
20767249 213 13406794428315722819
220451 1 18272373070533242459
23402539 116 18410570682817550837
300161 21 15791725330052447850
42788 4 18187083957460380401
49783359 22 11672059744638554717
522135 26 18272371971569792600
542803 24 17458061560161342465
57483677 66 17775000193562528407

>  <PUBCHEM_SHAPE_MULTIPOLES>  (1) 
247.61
16.36
0.94
0.84
0.02
0
-0.09
-0.13
3.79
0
0.18
0
0
-0.07

>  <PUBCHEM_SHAPE_SELFOVERLAP>  (1) 
456

>  <PUBCHEM_SHAPE_VOLUME>  (1) 
151.2

>  <PUBCHEM_COORDINATE_TYPE>  (1) 
2
5
10

$$$$
