45182
     RDKit          3D

 19 18  0  0  1  0  0  0  0  0999 V2000
   -1.1408   -1.1148   -0.4428 O   0  0  0  0  0  0  0  0  0  0  0  0
   -0.6114   -2.2907    1.4893 O   0  0  0  0  0  0  0  0  0  0  0  0
   -3.7413    1.3264   -0.1683 O   0  0  0  0  0  0  0  0  0  0  0  0
   -2.3952   -0.4002    1.3740 O   0  0  0  0  0  0  0  0  0  0  0  0
    3.6239   -0.3688   -0.6878 C   0  0  0  0  0  0  0  0  0  0  0  0
    4.5588    0.2308    0.3674 C   0  0  0  0  0  0  0  0  0  0  0  0
    2.4976   -1.2135   -0.0870 C   0  0  0  0  0  0  0  0  0  0  0  0
    5.7289    1.0128   -0.2339 C   0  0  0  0  0  0  0  0  0  0  0  0
    1.5953   -1.8626   -1.1436 C   0  0  0  0  0  0  0  0  0  0  0  0
    6.6228    1.5988    0.8598 C   0  0  0  0  0  0  0  0  0  0  0  0
    0.5100   -2.7797   -0.5852 C   0  0  0  0  0  0  0  0  0  0  0  0
    7.7696    2.4041    0.2699 C   0  0  0  0  0  0  0  0  0  0  0  0
   -0.4731   -2.0483    0.2975 C   0  0  0  0  0  0  0  0  0  0  0  0
   -2.7144    0.5907   -0.8150 C   0  0  0  0  0  0  0  0  0  0  0  0
   -2.0777   -0.3474    0.1930 C   0  0  0  0  0  0  0  0  0  0  0  0
   -1.7028    1.5788   -1.3689 C   0  0  0  0  0  0  0  0  0  0  0  0
   -4.9360    0.5644   -0.0490 C   0  0  0  0  0  0  0  0  0  0  0  0
   -5.9686    1.3956    0.6371 C   0  0  0  0  0  0  0  0  0  0  0  0
   -7.1458    1.7237    0.0934 C   0  0  0  0  0  0  0  0  0  0  0  0
  1 13  1  0
  1 15  1  0
  2 13  2  0
  3 14  1  0
  3 17  1  0
  4 15  2  0
  5  6  1  0
  5  7  1  0
  6  8  1  0
  7  9  1  0
  8 10  1  0
  9 11  1  0
 10 12  1  0
 11 13  1  0
 14 15  1  0
 14 16  1  0
 17 18  1  0
 18 19  2  0
M  END
>  <PUBCHEM_COMPOUND_CID>  (1) 
45182

>  <PUBCHEM_CONFORMER_RMSD>  (1) 
1.2

>  <PUBCHEM_CONFORMER_DIVERSEORDER>  (1) 
1
37
13
36
44
45
32
61
96
42
33
102
65
43
50
80
68
83
30
98
78
55
77
86
25
101
19
62
48
52
91
3
75
17
64
18
15
2
97
34
56
16
81
59
84
8
95
76
11
38
14
94
88
60
74
49
58
40
87
73
24
66
69
92
79
6
47
72
82
28
70
20
39
22
85
67
53
41
89
99
100
63
26
54
29
10
5
93
90
31
27
7
9
4
23
46
12
35
71
21
51
57

>  <PUBCHEM_MMFF94_PARTIAL_CHARGES>  (1) 
14
1 -0.3
11 0.06
13 0.66
14 0.34
15 0.66
17 0.42
18 -0.29
19 -0.3
2 -0.57
3 -0.56
4 -0.57
43 0.15
44 0.15
45 0.15

>  <PUBCHEM_EFFECTIVE_ROTOR_COUNT>  (1) 
13

>  <PUBCHEM_PHARMACOPHORE_FEATURES>  (1) 
5
1 12 hydrophobe
1 19 hydrophobe
1 2 acceptor
1 3 acceptor
1 4 acceptor

>  <PUBCHEM_HEAVY_ATOM_COUNT>  (1) 
19

>  <PUBCHEM_ATOM_DEF_STEREO_COUNT>  (1) 
0

>  <PUBCHEM_ATOM_UDEF_STEREO_COUNT>  (1) 
1

>  <PUBCHEM_BOND_DEF_STEREO_COUNT>  (1) 
0

>  <PUBCHEM_BOND_UDEF_STEREO_COUNT>  (1) 
0

>  <PUBCHEM_ISOTOPIC_ATOM_COUNT>  (1) 
0

>  <PUBCHEM_COMPONENT_COUNT>  (1) 
1

>  <PUBCHEM_CACTVS_TAUTO_COUNT>  (1) 
1

>  <PUBCHEM_CONFORMER_ID>  (1) 
0000B07E00000001

>  <PUBCHEM_MMFF94_ENERGY>  (1) 
13.4491

>  <PUBCHEM_FEATURE_SELFOVERLAP>  (1) 
25.391

>  <PUBCHEM_SHAPE_FINGERPRINT>  (1) 
10753850 27 8935000360959212644
11273773 42 17418106398735722721
12035758 1 17822591451302702553
12760667 363 9223236264596541326
12895836 83 17346590881157246711
12895837 130 18130504257695754812
13955234 65 18047196246135115739
14123256 34 9079115565940838620
14216079 64 8358259241485553321
15475509 8 12247679357946820579
15519825 34 16371296660991337705
1768 4 18272098218491132809
18643901 69 10159712321301931496
20621476 66 18410856603444433660
21307412 95 11312048860053861149
21401589 2 18334572451684685458
2215653 11 10663521683412080101
22224240 67 18333449833438708021
23559900 14 17315659304408452907
270888 7 18341893004734923832
2838139 119 18341040836005053406
3004659 81 11743838058554362030
3014063 24 11674883311567429393
3246875 12 18411139151862190627
34797466 226 17774728533371741597
4107672 100 12391251386988535123
465052 167 10809637994823201546
5207 123 9367339336638512467
5283384 27 18261666013448732709
543368 44 18202283572745357369
59682541 35 18261402156912900633
59682541 52 16630256818647996548
6327066 14 18343301496362643908
77188 2 17547856248821623958

>  <PUBCHEM_SHAPE_MULTIPOLES>  (1) 
367.53
18.56
2.87
1.11
11.88
1.08
-0.04
-22.03
-3.33
1.54
-0.03
-0.21
0.16
1

>  <PUBCHEM_SHAPE_SELFOVERLAP>  (1) 
692.484

>  <PUBCHEM_SHAPE_VOLUME>  (1) 
227.2

>  <PUBCHEM_COORDINATE_TYPE>  (1) 
2
5
10

$$$$
