452
     RDKit          3D

 12 12  0  0  1  0  0  0  0  0999 V2000
   -0.1520    2.6834   -0.5898 O   0  0  0  0  0  0  0  0  0  0  0  0
   -2.4549    1.2956    0.3143 O   0  0  0  0  0  0  0  0  0  0  0  0
    2.3302    1.5070    0.3247 O   0  0  0  0  0  0  0  0  0  0  0  0
   -2.3176   -1.5621   -0.1013 O   0  0  0  0  0  0  0  0  0  0  0  0
    2.4589   -1.3093   -0.1234 O   0  0  0  0  0  0  0  0  0  0  0  0
    0.1303   -2.5812   -0.4145 O   0  0  0  0  0  0  0  0  0  0  0  0
   -0.0730    1.4623    0.1519 C   0  0  0  0  0  0  0  0  0  0  0  0
   -1.3036    0.6253   -0.2069 C   0  0  0  0  0  0  0  0  0  0  0  0
    1.2369    0.7501   -0.2031 C   0  0  0  0  0  0  0  0  0  0  0  0
   -1.2458   -0.7763    0.3935 C   0  0  0  0  0  0  0  0  0  0  0  0
    1.3177   -0.6491    0.3998 C   0  0  0  0  0  0  0  0  0  0  0  0
    0.0729   -1.4458    0.0547 C   0  0  0  0  0  0  0  0  0  0  0  0
  1  7  1  0
  2  8  1  0
  3  9  1  0
  4 10  1  0
  5 11  1  0
  6 12  2  0
  7  8  1  0
  7  9  1  0
  8 10  1  0
  9 11  1  0
 10 12  1  0
 11 12  1  0
M  END
>  <PUBCHEM_COMPOUND_CID>  (1) 
452

>  <PUBCHEM_CONFORMER_RMSD>  (1) 
0.4

>  <PUBCHEM_CONFORMER_DIVERSEORDER>  (1) 
2
13
16
18
14
7
8
17
20
3
5
15
1
19
11
9
10
6
12
4

>  <PUBCHEM_MMFF94_PARTIAL_CHARGES>  (1) 
17
1 -0.68
10 0.34
11 0.34
12 0.45
18 0.4
19 0.4
2 -0.68
20 0.4
21 0.4
22 0.4
3 -0.68
4 -0.68
5 -0.68
6 -0.57
7 0.28
8 0.28
9 0.28

>  <PUBCHEM_EFFECTIVE_ROTOR_COUNT>  (1) 
1

>  <PUBCHEM_PHARMACOPHORE_FEATURES>  (1) 
12
1 1 acceptor
1 1 donor
1 2 acceptor
1 2 donor
1 3 acceptor
1 3 donor
1 4 acceptor
1 4 donor
1 5 acceptor
1 5 donor
1 6 acceptor
6 7 8 9 10 11 12 rings

>  <PUBCHEM_HEAVY_ATOM_COUNT>  (1) 
12

>  <PUBCHEM_ATOM_DEF_STEREO_COUNT>  (1) 
0

>  <PUBCHEM_ATOM_UDEF_STEREO_COUNT>  (1) 
4

>  <PUBCHEM_BOND_DEF_STEREO_COUNT>  (1) 
0

>  <PUBCHEM_BOND_UDEF_STEREO_COUNT>  (1) 
0

>  <PUBCHEM_ISOTOPIC_ATOM_COUNT>  (1) 
0

>  <PUBCHEM_COMPONENT_COUNT>  (1) 
1

>  <PUBCHEM_CACTVS_TAUTO_COUNT>  (1) 
2

>  <PUBCHEM_CONFORMER_ID>  (1) 
000001C400000002

>  <PUBCHEM_MMFF94_ENERGY>  (1) 
17.7642

>  <PUBCHEM_FEATURE_SELFOVERLAP>  (1) 
60.936

>  <PUBCHEM_SHAPE_FINGERPRINT>  (1) 
12423570 1 8819441894742979672
12524768 44 18336830766979504905
16945 1 18122056507615877530
18185500 45 17690560109983643530
193761 8 18338233743621322794
20588541 1 18122914126775395475
21040471 1 18339081604694200552
2334 1 18410292557419387282
23552423 10 18260551138469425514
241688 4 18409166593098604489
2748010 2 18410292527359897503
5084963 1 18131633395670386626
66348 1 18410292527354609672

>  <PUBCHEM_SHAPE_MULTIPOLES>  (1) 
211.74
2.79
2.69
0.66
0.02
0.14
0.01
-0.03
0.2
-0.04
-0.4
0
0.03
0.04

>  <PUBCHEM_SHAPE_SELFOVERLAP>  (1) 
430.899

>  <PUBCHEM_SHAPE_VOLUME>  (1) 
121.4

>  <PUBCHEM_COORDINATE_TYPE>  (1) 
2
5
10

$$$$
