45213
     RDKit          3D

 20 21  0  0  0  0  0  0  0  0999 V2000
    0.8941   -3.4920   -0.4038 Cl  0  0  0  0  0  0  0  0  0  0  0  0
   -0.0045   -0.5423   -0.1731 N   0  0  0  0  0  0  0  0  0  0  0  0
   -1.0031   -1.5648   -0.4757 C   0  0  0  0  0  0  0  0  0  0  0  0
   -0.7155   -2.9256    0.1929 C   0  0  0  0  0  0  0  0  0  0  0  0
   -0.3757    0.7338   -0.7847 C   0  0  0  0  0  0  0  0  0  0  0  0
    1.3177   -0.9640   -0.6357 C   0  0  0  0  0  0  0  0  0  0  0  0
   -0.6293   -2.8126    1.7195 C   0  0  0  0  0  0  0  0  0  0  0  0
   -1.7547   -3.9823   -0.1991 C   0  0  0  0  0  0  0  0  0  0  0  0
   -1.7336    1.1996   -0.3304 C   0  0  0  0  0  0  0  0  0  0  0  0
    2.3820    0.0410   -0.2837 C   0  0  0  0  0  0  0  0  0  0  0  0
   -2.8607    0.8200   -1.0458 C   0  0  0  0  0  0  0  0  0  0  0  0
    2.6776    1.0637   -1.1744 C   0  0  0  0  0  0  0  0  0  0  0  0
   -1.8391    2.0014    0.7975 C   0  0  0  0  0  0  0  0  0  0  0  0
    3.0523   -0.0689    0.9267 C   0  0  0  0  0  0  0  0  0  0  0  0
   -4.1188    1.2512   -0.6250 C   0  0  0  0  0  0  0  0  0  0  0  0
    3.6635    1.9949   -0.8483 C   0  0  0  0  0  0  0  0  0  0  0  0
   -3.0972    2.4325    1.2183 C   0  0  0  0  0  0  0  0  0  0  0  0
    4.0382    0.8625    1.2527 C   0  0  0  0  0  0  0  0  0  0  0  0
   -4.2370    2.0574    0.5070 C   0  0  0  0  0  0  0  0  0  0  0  0
    4.3436    1.8945    0.3652 C   0  0  0  0  0  0  0  0  0  0  0  0
  1  4  1  0
  2  3  1  0
  2  5  1  0
  2  6  1  0
  3  4  1  0
  4  7  1  0
  4  8  1  0
  5  9  1  0
  6 10  1  0
  9 11  2  0
  9 13  1  0
 10 12  2  0
 10 14  1  0
 11 15  1  0
 12 16  1  0
 13 17  2  0
 14 18  2  0
 15 19  2  0
 16 20  2  0
 17 19  1  0
 18 20  1  0
M  END
>  <PUBCHEM_COMPOUND_CID>  (1) 
45213

>  <PUBCHEM_CONFORMER_RMSD>  (1) 
0.8

>  <PUBCHEM_CONFORMER_DIVERSEORDER>  (1) 
2
4
1
3

>  <PUBCHEM_MMFF94_PARTIAL_CHARGES>  (1) 
28
1 -0.29
10 -0.14
11 -0.15
12 -0.15
13 -0.15
14 -0.15
15 -0.15
16 -0.15
17 -0.15
18 -0.15
19 -0.15
2 -0.81
20 -0.15
3 0.27
33 0.15
34 0.15
35 0.15
36 0.15
37 0.15
38 0.15
39 0.15
4 0.29
40 0.15
41 0.15
42 0.15
5 0.41
6 0.41
9 -0.14

>  <PUBCHEM_EFFECTIVE_ROTOR_COUNT>  (1) 
6

>  <PUBCHEM_PHARMACOPHORE_FEATURES>  (1) 
4
1 2 cation
3 4 7 8 hydrophobe
6 10 12 14 16 18 20 rings
6 9 11 13 15 17 19 rings

>  <PUBCHEM_HEAVY_ATOM_COUNT>  (1) 
20

>  <PUBCHEM_ATOM_DEF_STEREO_COUNT>  (1) 
0

>  <PUBCHEM_ATOM_UDEF_STEREO_COUNT>  (1) 
0

>  <PUBCHEM_BOND_DEF_STEREO_COUNT>  (1) 
0

>  <PUBCHEM_BOND_UDEF_STEREO_COUNT>  (1) 
0

>  <PUBCHEM_ISOTOPIC_ATOM_COUNT>  (1) 
0

>  <PUBCHEM_COMPONENT_COUNT>  (1) 
1

>  <PUBCHEM_CACTVS_TAUTO_COUNT>  (1) 
1

>  <PUBCHEM_CONFORMER_ID>  (1) 
0000B09D00000002

>  <PUBCHEM_MMFF94_ENERGY>  (1) 
97.3027

>  <PUBCHEM_FEATURE_SELFOVERLAP>  (1) 
20.297

>  <PUBCHEM_SHAPE_FINGERPRINT>  (1) 
10090160 65 18337102381138981301
12160290 23 18189631603391073935
12553582 1 17617102846677083862
12788726 201 17975416025031425050
13052359 8 18335696212972244655
13140716 1 18264491685233322115
13583140 156 16588012524492611197
136203 1 18194404613257674155
13764800 53 18270687574963178880
13878862 14 17543627531459598197
13965767 371 18188200997277596004
14081887 123 18052249889100870648
14251757 17 15482377690670630977
14468879 13 17632296817250732500
14787075 74 18272079552758156941
14955137 171 17620484510362444343
16752209 62 18193273220520436614
17138139 8 17910637116945206367
1741750 31 18412262874030508612
17868525 174 17042335939070107697
18186145 218 18268995288844384860
19765921 60 18058725802098312881
204376 136 18408322164137573925
20510252 161 18196373843120750174
21524375 3 18272083847171551948
21731228 192 18334574616326954178
22182937 141 18269276918593009096
2255824 54 18051139085819638943
23419403 2 17124012318451511263
23557571 272 18127414668823894892
23558518 356 18334574698296018106
23559900 14 17833830474330561081
23598288 3 18191024715046913378
25147074 1 17823411777303166180
283562 15 17902793295197010818
3091708 16 9195220690982989167
352729 6 18338239370054893582
4340502 62 18335144134076928081
458136 41 18194700184512157605
474 4 18339362946495542837
49207404 50 18189634781803659273
5486654 2 18340490062489761341
550186 83 14715449699219378025
58807428 26 18262231127643366026
59755656 520 18410291398110585484
6333272 397 18411139108443110037
633830 44 18129665184157827509
7364860 26 17907858401389157855
7808743 9 18338241591181544836
81228 2 18117566338409614718
84936 182 18057604261319655096
9981440 41 17917133001402950018

>  <PUBCHEM_SHAPE_MULTIPOLES>  (1) 
408.48
7.55
4.5
1.28
2
5.45
-0.29
-8.22
-0.79
-2.27
-0.63
0.13
-0.09
-0.44

>  <PUBCHEM_SHAPE_SELFOVERLAP>  (1) 
845.358

>  <PUBCHEM_SHAPE_VOLUME>  (1) 
233.6

>  <PUBCHEM_COORDINATE_TYPE>  (1) 
2
5
10

$$$$
