45223
     RDKit          3D

 21 23  0  0  0  0  0  0  0  0999 V2000
    3.2492   -1.5761   -0.2937 O   0  0  0  0  0  0  0  0  0  0  0  0
   -2.8491   -1.4896    1.2846 O   0  0  0  0  0  0  0  0  0  0  0  0
   -4.1488    0.5492   -0.0302 N   0  0  0  0  0  0  0  0  0  0  0  0
   -2.7308    0.7007    0.2767 C   0  0  0  0  0  0  0  0  0  0  0  0
    1.5438   -0.1582    0.1482 C   0  0  0  0  0  0  0  0  0  0  0  0
   -0.7286   -0.9282    0.4435 C   0  0  0  0  0  0  0  0  0  0  0  0
    2.7430    0.6038    0.0314 C   0  0  0  0  0  0  0  0  0  0  0  0
   -4.3406   -0.4133   -1.1160 C   0  0  0  0  0  0  0  0  0  0  0  0
   -4.7394    1.8406   -0.3854 C   0  0  0  0  0  0  0  0  0  0  0  0
    1.9106   -1.4843   -0.0595 C   0  0  0  0  0  0  0  0  0  0  0  0
   -2.1311   -0.6463    0.7089 C   0  0  0  0  0  0  0  0  0  0  0  0
    0.1907    0.1289    0.4065 C   0  0  0  0  0  0  0  0  0  0  0  0
    3.7545   -0.3124   -0.2391 C   0  0  0  0  0  0  0  0  0  0  0  0
   -0.3187   -2.2463    0.2298 C   0  0  0  0  0  0  0  0  0  0  0  0
    1.0197   -2.5559   -0.0284 C   0  0  0  0  0  0  0  0  0  0  0  0
    3.0820    1.9663    0.1250 C   0  0  0  0  0  0  0  0  0  0  0  0
   -5.8138   -0.5815   -1.4468 C   0  0  0  0  0  0  0  0  0  0  0  0
   -4.6089    2.8362    0.7548 C   0  0  0  0  0  0  0  0  0  0  0  0
    5.0921    0.0321   -0.4253 C   0  0  0  0  0  0  0  0  0  0  0  0
    4.4194    2.3431   -0.0573 C   0  0  0  0  0  0  0  0  0  0  0  0
    5.4050    1.3912   -0.3277 C   0  0  0  0  0  0  0  0  0  0  0  0
  1 10  1  0
  1 13  1  0
  2 11  2  0
  3  4  1  0
  3  8  1  0
  3  9  1  0
  4 11  1  0
  5  7  1  0
  5 10  2  0
  5 12  1  0
  6 11  1  0
  6 12  2  0
  6 14  1  0
  7 13  2  0
  7 16  1  0
  8 17  1  0
  9 18  1  0
 10 15  1  0
 13 19  1  0
 14 15  2  0
 16 20  2  0
 19 21  2  0
 20 21  1  0
M  END
>  <PUBCHEM_COMPOUND_CID>  (1) 
45223

>  <PUBCHEM_CONFORMER_RMSD>  (1) 
0.8

>  <PUBCHEM_CONFORMER_DIVERSEORDER>  (1) 
1
16
11
8
7
23
28
10
19
15
26
6
5
4
21
9
13
12
20
30
22
25
18
27
33
24
29
17
14
2
3
32
31

>  <PUBCHEM_MMFF94_PARTIAL_CHARGES>  (1) 
24
1 -0.28
10 0.14
11 0.42
12 -0.15
13 0.14
14 -0.15
15 -0.15
16 -0.15
19 -0.15
2 -0.57
20 -0.15
21 -0.15
28 0.15
29 0.15
3 -0.81
30 0.15
31 0.15
38 0.15
39 0.15
4 0.33
40 0.15
6 0.09
8 0.27
9 0.27

>  <PUBCHEM_EFFECTIVE_ROTOR_COUNT>  (1) 
5

>  <PUBCHEM_PHARMACOPHORE_FEATURES>  (1) 
6
1 1 acceptor
1 2 acceptor
1 3 cation
5 1 5 7 10 13 rings
6 5 6 10 12 14 15 rings
6 7 13 16 19 20 21 rings

>  <PUBCHEM_HEAVY_ATOM_COUNT>  (1) 
21

>  <PUBCHEM_ATOM_DEF_STEREO_COUNT>  (1) 
0

>  <PUBCHEM_ATOM_UDEF_STEREO_COUNT>  (1) 
0

>  <PUBCHEM_BOND_DEF_STEREO_COUNT>  (1) 
0

>  <PUBCHEM_BOND_UDEF_STEREO_COUNT>  (1) 
0

>  <PUBCHEM_ISOTOPIC_ATOM_COUNT>  (1) 
0

>  <PUBCHEM_COMPONENT_COUNT>  (1) 
1

>  <PUBCHEM_CACTVS_TAUTO_COUNT>  (1) 
2

>  <PUBCHEM_CONFORMER_ID>  (1) 
0000B0A700000001

>  <PUBCHEM_MMFF94_ENERGY>  (1) 
46.9596

>  <PUBCHEM_FEATURE_SELFOVERLAP>  (1) 
30.647

>  <PUBCHEM_SHAPE_FINGERPRINT>  (1) 
10411042 1 17473265371018204498
10595046 47 18342452630578707189
10693767 8 17916311541969737166
11089746 13 18408317787824017734
12236239 1 17632578249103469094
12403259 415 18336280019144287642
12403260 363 18338790105290220986
12670546 177 17989204875764090575
12730499 353 18335708234395997051
12769317 202 18339353068023347816
12969540 114 18115572846566460359
13583140 156 16515684472506729041
13740256 8 9655576309828108576
14251757 5 17487887029026595031
14251764 38 18335707190639952869
14528608 73 18413103970150041821
14848178 96 18409728443583154537
15003188 100 18337104678371387469
15196674 1 18410014316568887800
15537594 2 11167951272410969669
16994733 274 16444168839824584349
17780758 139 11458419146256083573
17834072 32 18408889550765643304
17959699 21 18412263904622440113
193927 3 12751240345543473519
200 152 17917711305511071875
20645477 70 18272654511118663926
21033648 144 18186515493132941807
21033648 29 18339641251923630680
21521239 73 18060698407531526886
21709351 56 18341326682894558983
221357 26 18202558506149311529
22182313 1 18265639699747664018
22393880 68 18060132146110353349
22950370 63 9295289456266603880
23402539 116 18272086084833792732
23402655 69 18272368629346822901
23559900 14 18339925901171433434
268830 7 18116145585156231939
2838139 119 18410291419517103268
335352 9 18410013243956062470
3472631 163 18127129676643950485
474 4 18336828602442646881
5104073 3 18114186306584922195
543358 83 18268433429859791458
5924683 9 11169923792672389097
6328613 192 18115316695666733036
633830 44 18338797806351387367

>  <PUBCHEM_SHAPE_MULTIPOLES>  (1) 
415.45
12.9
2.73
0.93
4.95
0.56
0.08
7.45
3.67
0.2
-0.35
1.12
-0.1
-0.5

>  <PUBCHEM_SHAPE_SELFOVERLAP>  (1) 
902.75

>  <PUBCHEM_SHAPE_VOLUME>  (1) 
231.1

>  <PUBCHEM_COORDINATE_TYPE>  (1) 
2
5
10

$$$$
