4522
     RDKit          3D

 11 10  0  0  1  0  0  0  0  0999 V2000
   -1.9644    0.0675   -1.9065 O   0  0  0  0  0  0  0  0  0  0  0  0
   -1.8005    1.7972    1.1978 O   0  0  0  0  0  0  0  0  0  0  0  0
    3.2725    0.5885   -0.0629 N   0  0  0  0  0  0  0  0  0  0  0  0
   -1.4016   -0.7981    0.4222 N   0  0  0  0  0  0  0  0  0  0  0  0
   -1.7894    0.3070   -0.5099 N   0  0  0  0  0  0  0  0  0  0  0  0
   -1.9870    1.6830   -0.0187 N   0  0  0  0  0  0  0  0  0  0  0  0
    0.9368   -0.0977    0.1977 C   0  0  0  0  0  0  0  0  0  0  0  0
    2.3724   -0.5836    0.0564 C   0  0  0  0  0  0  0  0  0  0  0  0
   -0.0316   -1.2764    0.2775 C   0  0  0  0  0  0  0  0  0  0  0  0
    4.7167    0.2459   -0.1769 C   0  0  0  0  0  0  0  0  0  0  0  0
   -2.3239   -1.9335    0.5234 C   0  0  0  0  0  0  0  0  0  0  0  0
  1  5  1  0
  2  6  2  0
  3  8  1  0
  3 10  1  0
  4  5  1  0
  4  9  1  0
  4 11  1  0
  5  6  1  0
  7  8  1  0
  7  9  1  0
M  CHG  2   1  -1   3   1
M  END
>  <PUBCHEM_COMPOUND_CID>  (1) 
4522

>  <PUBCHEM_CONFORMER_RMSD>  (1) 
0.6

>  <PUBCHEM_CONFORMER_DIVERSEORDER>  (1) 
1
344
161
62
81
237
355
51
352
104
324
3
326
55
204
134
359
33
129
228
328
235
145
259
323
128
64
286
252
175
329
222
47
285
41
268
159
208
209
173
45
276
239
23
291
210
31
293
206
304
270
136
201
11
308
230
149
255
254
266
184
317
85
93
135
151
238
32
244
279
77
177
256
178
264
58
240
180
167
207
327
353
7
101
199
53
89
341
294
205
97
5
115
315
229
227
169
74
321
165
211
221
197
278
194
25
218
127
110
331
348
148
49
350
150
8
189
306
288
190
281
120
334
345
166
72
132
260
296
236
156
92
224
242
257
168
157
202
299
103
131
106
34
109
48
133
246
251
284
27
310
96
10
29
319
46
63
65
280
171
119
214
15
67
191
243
220
203
164
16
185
138
108
290
87
111
162
351
59
146
30
322
100
9
196
282
273
76
216
335
198
200
225
311
301
346
94
80
358
249
267
147
19
66
26
303
253
182
14
121
44
37
261
234
193
22
330
360
277
176
186
339
336
73
183
2
140
223
28
233
349
318
289
250
91
50
137
83
316
265
179
112
99
86
262
71
155
24
116
130
356
333
36
320
20
287
332
142
69
117
78
357
125
302
21
139
35
122
141
215
340
154
79
52
105
113
312
305
347
18
245
144
60
298
143
43
54
163
309
174
158
114
39
272
295
292
258
241
343
212
226
170
102
195
297
247
354
274
337
232
107
188
98
38
82
192
118
17
6
172
300
231
13
342
217
181
95
4
314
248
307
70
160
338
283
263
275
40
187
325
152
269
219
88
12
126
90
123
56
313
271
153
42
124
75
84
68
61
213
57

>  <PUBCHEM_MMFF94_PARTIAL_CHARGES>  (1) 
12
1 -0.86
10 0.5
11 0.27
18 0.45
19 0.45
2 -0.16
3 -0.91
4 -0.69
5 0.34
6 -0.17
8 0.5
9 0.27

>  <PUBCHEM_EFFECTIVE_ROTOR_COUNT>  (1) 
6

>  <PUBCHEM_PHARMACOPHORE_FEATURES>  (1) 
2
1 3 cation
1 3 donor

>  <PUBCHEM_HEAVY_ATOM_COUNT>  (1) 
11

>  <PUBCHEM_ATOM_DEF_STEREO_COUNT>  (1) 
0

>  <PUBCHEM_ATOM_UDEF_STEREO_COUNT>  (1) 
0

>  <PUBCHEM_BOND_DEF_STEREO_COUNT>  (1) 
0

>  <PUBCHEM_BOND_UDEF_STEREO_COUNT>  (1) 
0

>  <PUBCHEM_ISOTOPIC_ATOM_COUNT>  (1) 
0

>  <PUBCHEM_COMPONENT_COUNT>  (1) 
1

>  <PUBCHEM_CACTVS_TAUTO_COUNT>  (1) 
1

>  <PUBCHEM_CONFORMER_ID>  (1) 
000011AA00000001

>  <PUBCHEM_MMFF94_ENERGY>  (1) 
16.0151

>  <PUBCHEM_FEATURE_SELFOVERLAP>  (1) 
10.148

>  <PUBCHEM_SHAPE_FINGERPRINT>  (1) 
12932764 1 17132110247697390882
13024252 1 13479130203180116143
14123260 362 18334870398235717588
14325111 11 18335140899686901402
15775835 57 17603861178760711468
18342897 96 18200026231695840501
1986462 14 18333737927160741830
20112054 60 18412543236758278752
20653085 51 17701266815023084779
2306618 200 17968086525764450804
23380061 127 18410575115192242634
23402539 116 18341044211401364295
3248919 1 18338787936643083106

>  <PUBCHEM_SHAPE_MULTIPOLES>  (1) 
194.71
6.28
1.72
1.02
9.24
0.11
-0.38
0.7
-0.41
-1.85
0.49
-0.85
0.27
-0.02

>  <PUBCHEM_SHAPE_SELFOVERLAP>  (1) 
340.987

>  <PUBCHEM_SHAPE_VOLUME>  (1) 
128.8

>  <PUBCHEM_COORDINATE_TYPE>  (1) 
2
5
10

$$$$
