45239
     RDKit          3D

 21 22  0  0  0  0  0  0  0  0999 V2000
   -0.9183   -1.0512    0.2428 O   0  0  0  0  0  0  0  0  0  0  0  0
   -1.7318   -0.4259    2.3035 O   0  0  0  0  0  0  0  0  0  0  0  0
    2.4946   -0.3567   -0.5749 N   0  0  0  0  0  0  0  0  0  0  0  0
    3.8728    1.7836    0.5442 C   0  0  0  0  0  0  0  0  0  0  0  0
    1.0697   -2.4077   -0.1963 C   0  0  0  0  0  0  0  0  0  0  0  0
    1.6376   -1.3628   -1.1948 C   0  0  0  0  0  0  0  0  0  0  0  0
    3.0493    0.5666   -1.5620 C   0  0  0  0  0  0  0  0  0  0  0  0
    1.7835    0.3532    0.4994 C   0  0  0  0  0  0  0  0  0  0  0  0
    4.1482    1.4315   -0.9289 C   0  0  0  0  0  0  0  0  0  0  0  0
    2.3706    1.7351    0.8262 C   0  0  0  0  0  0  0  0  0  0  0  0
    0.1540   -1.7509    0.8612 C   0  0  0  0  0  0  0  0  0  0  0  0
    4.4697    3.1393    0.9103 C   0  0  0  0  0  0  0  0  0  0  0  0
    2.2072   -3.1521    0.5283 C   0  0  0  0  0  0  0  0  0  0  0  0
    0.2559   -3.4385   -1.0068 C   0  0  0  0  0  0  0  0  0  0  0  0
   -1.7914   -0.4313    1.0837 C   0  0  0  0  0  0  0  0  0  0  0  0
   -2.8598    0.2586    0.3176 C   0  0  0  0  0  0  0  0  0  0  0  0
   -4.1094    0.3919    0.8874 C   0  0  0  0  0  0  0  0  0  0  0  0
   -2.5701    0.7447   -0.9408 C   0  0  0  0  0  0  0  0  0  0  0  0
   -5.1132    1.0398    0.1674 C   0  0  0  0  0  0  0  0  0  0  0  0
   -3.5737    1.3927   -1.6608 C   0  0  0  0  0  0  0  0  0  0  0  0
   -4.8453    1.5401   -1.1067 C   0  0  0  0  0  0  0  0  0  0  0  0
  1 11  1  0
  1 15  1  0
  2 15  2  0
  3  6  1  0
  3  7  1  0
  3  8  1  0
  4  9  1  0
  4 10  1  0
  4 12  1  0
  5  6  1  0
  5 11  1  0
  5 13  1  0
  5 14  1  0
  7  9  1  0
  8 10  1  0
 15 16  1  0
 16 17  2  0
 16 18  1  0
 17 19  1  0
 18 20  2  0
 19 21  2  0
 20 21  1  0
M  END
>  <PUBCHEM_COMPOUND_CID>  (1) 
45239

>  <PUBCHEM_CONFORMER_RMSD>  (1) 
0.8

>  <PUBCHEM_CONFORMER_DIVERSEORDER>  (1) 
1
36
21
37
26
35
55
56
18
14
28
44
49
52
48
38
46
15
34
45
30
12
2
41
27
19
31
3
32
23
54
53
51
42
9
7
17
39
25
50
6
4
33
47
10
16
20
29
43
8
13
5
24
40
22
11

>  <PUBCHEM_MMFF94_PARTIAL_CHARGES>  (1) 
19
1 -0.43
11 0.28
15 0.63
16 0.09
17 -0.15
18 -0.15
19 -0.15
2 -0.57
20 -0.15
21 -0.15
3 -0.81
44 0.15
45 0.15
46 0.15
47 0.15
48 0.15
6 0.27
7 0.27
8 0.27

>  <PUBCHEM_EFFECTIVE_ROTOR_COUNT>  (1) 
7.2

>  <PUBCHEM_PHARMACOPHORE_FEATURES>  (1) 
5
1 2 acceptor
1 3 cation
3 5 13 14 hydrophobe
6 16 17 18 19 20 21 rings
6 3 4 7 8 9 10 rings

>  <PUBCHEM_HEAVY_ATOM_COUNT>  (1) 
21

>  <PUBCHEM_ATOM_DEF_STEREO_COUNT>  (1) 
0

>  <PUBCHEM_ATOM_UDEF_STEREO_COUNT>  (1) 
0

>  <PUBCHEM_BOND_DEF_STEREO_COUNT>  (1) 
0

>  <PUBCHEM_BOND_UDEF_STEREO_COUNT>  (1) 
0

>  <PUBCHEM_ISOTOPIC_ATOM_COUNT>  (1) 
0

>  <PUBCHEM_COMPONENT_COUNT>  (1) 
1

>  <PUBCHEM_CACTVS_TAUTO_COUNT>  (1) 
1

>  <PUBCHEM_CONFORMER_ID>  (1) 
0000B0B700000001

>  <PUBCHEM_MMFF94_ENERGY>  (1) 
70.5756

>  <PUBCHEM_FEATURE_SELFOVERLAP>  (1) 
25.371

>  <PUBCHEM_SHAPE_FINGERPRINT>  (1) 
10498660 4 18341053003178313489
105312 117 18268430316467808052
11595378 159 14851610942764501303
11725454 13 18259982690852494067
11954058 11 8142076589837720889
12403259 415 18339374070687367992
12549972 3 17242193261317120691
12633257 1 16081365297454575564
12730499 353 18411147926448539555
12769317 202 18341889692925138488
12788726 201 17543912768483761902
13134695 92 17976809896611854206
13294875 104 18343293787107623594
13955234 65 18337957762230115675
14468879 13 18187369848064391857
14957384 54 18190732236464392968
15664445 248 14116929440468965451
16120349 189 18190450744023132620
17134986 127 18413109489425746430
17980427 23 17912076153863428610
1813 80 17197990587452172918
18219364 16 18268447878140377040
192875 21 18058165016613327426
19784866 34 18343863337813855489
21033648 29 18336549438438435816
21304303 282 17769062942943146726
21524375 3 18338244867961724410
21639500 275 18341615854510952323
21756936 100 16953393570851533676
22393880 68 18342181071985625279
23557571 272 17531832206812255371
23559900 14 17459760220202027919
238 59 18271529714669834102
341906 21 16443070465560975853
43658 37 18412262847981117039
469060 322 17974011944762587627
474 4 18344143700235722513
495365 180 18336543828604070055
574716 61 17561363976505940133
5895379 119 17198265469574605393
633830 44 17774461424227393937
7399639 24 18335145319192366419
7471813 234 17914047595302131410
7808743 9 17898022462709881940
81228 2 17475243869351516586

>  <PUBCHEM_SHAPE_MULTIPOLES>  (1) 
415.45
9.71
3.5
1.59
6.16
2.24
0.01
-9.6
-0.99
-4.04
-0.03
0.43
-0.15
1.38

>  <PUBCHEM_SHAPE_SELFOVERLAP>  (1) 
852.52

>  <PUBCHEM_SHAPE_VOLUME>  (1) 
238.6

>  <PUBCHEM_COORDINATE_TYPE>  (1) 
2
5
10

$$$$
