45233
     RDKit          3D

 20 22  0  0  1  0  0  0  0  0999 V2000
    0.4439    0.2332   -0.0014 O   0  0  0  0  0  0  0  0  0  0  0  0
    1.2554   -0.1551    2.1176 O   0  0  0  0  0  0  0  0  0  0  0  0
   -2.9123    1.8538    0.1397 N   0  0  0  0  0  0  0  0  0  0  0  0
   -1.7806   -0.1227   -0.8878 C   0  0  0  0  0  0  0  0  0  0  0  0
   -3.0849   -0.9357   -0.7566 C   0  0  0  0  0  0  0  0  0  0  0  0
   -0.7918   -0.4314    0.2564 C   0  0  0  0  0  0  0  0  0  0  0  0
   -2.8028   -2.4335   -0.5752 C   0  0  0  0  0  0  0  0  0  0  0  0
   -3.9673   -0.3738    0.3699 C   0  0  0  0  0  0  0  0  0  0  0  0
   -2.1057    1.3825   -0.9952 C   0  0  0  0  0  0  0  0  0  0  0  0
   -0.5237   -1.9319    0.3746 C   0  0  0  0  0  0  0  0  0  0  0  0
   -1.8091   -2.7298    0.5443 C   0  0  0  0  0  0  0  0  0  0  0  0
   -4.1895    1.1316    0.2089 C   0  0  0  0  0  0  0  0  0  0  0  0
   -3.1451    3.2945    0.0396 C   0  0  0  0  0  0  0  0  0  0  0  0
    1.4217    0.0475    0.9248 C   0  0  0  0  0  0  0  0  0  0  0  0
    2.7621    0.1244    0.2910 C   0  0  0  0  0  0  0  0  0  0  0  0
    3.8279    0.5820    1.0386 C   0  0  0  0  0  0  0  0  0  0  0  0
    2.9007   -0.2645   -1.0257 C   0  0  0  0  0  0  0  0  0  0  0  0
    5.0873    0.6542    0.4434 C   0  0  0  0  0  0  0  0  0  0  0  0
    4.1602   -0.1923   -1.6207 C   0  0  0  0  0  0  0  0  0  0  0  0
    5.2535    0.2671   -0.8861 C   0  0  0  0  0  0  0  0  0  0  0  0
  1  6  1  0
  1 14  1  0
  2 14  2  0
  3  9  1  0
  3 12  1  0
  3 13  1  0
  4  5  1  0
  4  6  1  0
  4  9  1  0
  5  7  1  0
  5  8  1  0
  6 10  1  0
  7 11  1  0
  8 12  1  0
 10 11  1  0
 14 15  1  0
 15 16  2  0
 15 17  1  0
 16 18  1  0
 17 19  2  0
 18 20  2  0
 19 20  1  0
M  END
>  <PUBCHEM_COMPOUND_CID>  (1) 
45233

>  <PUBCHEM_CONFORMER_RMSD>  (1) 
0.6

>  <PUBCHEM_CONFORMER_DIVERSEORDER>  (1) 
6
5
1
21
22
23
29
26
28
17
25
4
27
3
31
19
9
16
30
10
33
34
12
20
8
7
32
2
24
18
13
11
14
15

>  <PUBCHEM_MMFF94_PARTIAL_CHARGES>  (1) 
19
1 -0.43
12 0.27
13 0.27
14 0.63
15 0.09
16 -0.15
17 -0.15
18 -0.15
19 -0.15
2 -0.57
20 -0.15
3 -0.81
39 0.15
40 0.15
41 0.15
42 0.15
43 0.15
6 0.28
9 0.27

>  <PUBCHEM_EFFECTIVE_ROTOR_COUNT>  (1) 
4.6

>  <PUBCHEM_PHARMACOPHORE_FEATURES>  (1) 
5
1 2 acceptor
1 3 cation
6 15 16 17 18 19 20 rings
6 3 4 5 8 9 12 rings
6 4 5 6 7 10 11 rings

>  <PUBCHEM_HEAVY_ATOM_COUNT>  (1) 
20

>  <PUBCHEM_ATOM_DEF_STEREO_COUNT>  (1) 
2

>  <PUBCHEM_ATOM_UDEF_STEREO_COUNT>  (1) 
1

>  <PUBCHEM_BOND_DEF_STEREO_COUNT>  (1) 
0

>  <PUBCHEM_BOND_UDEF_STEREO_COUNT>  (1) 
0

>  <PUBCHEM_ISOTOPIC_ATOM_COUNT>  (1) 
0

>  <PUBCHEM_COMPONENT_COUNT>  (1) 
1

>  <PUBCHEM_CACTVS_TAUTO_COUNT>  (1) 
1

>  <PUBCHEM_CONFORMER_ID>  (1) 
0000B0B100000006

>  <PUBCHEM_MMFF94_ENERGY>  (1) 
48.5825

>  <PUBCHEM_FEATURE_SELFOVERLAP>  (1) 
25.429

>  <PUBCHEM_SHAPE_FINGERPRINT>  (1) 
10498660 4 18337101259704344941
10615611 76 17531832167620005973
10680689 15 18411985788272997730
11615757 297 16081085991467854860
11796584 16 18342741776710646950
12173636 292 18337948991937954525
12236239 1 17458340857848129350
12390115 104 18199197200398268881
12403814 3 17095235921820088663
12507557 5 14129054842168104350
12916748 109 18409733958326021552
13140716 1 18118406387211021507
14251751 93 18409450258709368845
14251757 17 17917438557833930244
14251764 38 18190744335509013628
14386348 63 17775010124012141958
15375358 24 17917710227722271950
15961568 22 18048867787314210016
17844677 252 18341055202723795488
18186145 218 17989486307817339426
200 152 15430031084891854279
20325693 3 18411704304854175527
20510252 161 18341890779989480513
20645477 56 18413109454754713237
20645477 70 16630533908215015494
20871999 31 18411422847236500182
21033650 10 18264230057648412100
21065201 7 18342173388848184594
22094290 60 18412262873682407454
22122407 14 16008756775372406245
2297311 6 18339931518703430175
23175994 123 17275392031254280632
23198884 109 18335712637148510044
23402539 116 18336538399833895614
23526113 38 17632573855600072706
23557571 272 18343585161730821556
23559900 14 18201441346880503686
3268164 11 18337943575678245837
474 4 16588025740660478998
4921388 177 18337396031746595734
5161694 15 17632857516604113544
5281201 14 17988645220451764892
5283173 99 18272089383917458360
6049 1 17774432910013245576
7399639 24 16983189270062975658
9709674 26 18201437034147769550

>  <PUBCHEM_SHAPE_MULTIPOLES>  (1) 
394.87
10.17
2.48
1.29
9.99
0.35
0.09
2.9
-1.44
-4.35
0.08
1.08
-0.07
0.18

>  <PUBCHEM_SHAPE_SELFOVERLAP>  (1) 
833.723

>  <PUBCHEM_SHAPE_VOLUME>  (1) 
218.2

>  <PUBCHEM_COORDINATE_TYPE>  (1) 
2
5
10

$$$$
