45238
     RDKit          3D

 21 22  0  0  1  0  0  0  0  0999 V2000
    0.9712   -0.4423    0.0852 O   0  0  0  0  0  0  0  0  0  0  0  0
    1.4033    0.9067    1.8997 O   0  0  0  0  0  0  0  0  0  0  0  0
   -2.4797   -0.2264   -0.5784 N   0  0  0  0  0  0  0  0  0  0  0  0
   -5.0618    1.0442   -0.0185 C   0  0  0  0  0  0  0  0  0  0  0  0
   -4.4034    0.0572    0.9513 C   0  0  0  0  0  0  0  0  0  0  0  0
   -3.9891    1.7091   -0.8880 C   0  0  0  0  0  0  0  0  0  0  0  0
   -3.4987   -0.9305    0.2115 C   0  0  0  0  0  0  0  0  0  0  0  0
   -3.0987    0.6665   -1.5672 C   0  0  0  0  0  0  0  0  0  0  0  0
   -1.5918   -1.1836   -1.2380 C   0  0  0  0  0  0  0  0  0  0  0  0
   -0.8267   -2.0576   -0.2216 C   0  0  0  0  0  0  0  0  0  0  0  0
   -5.8825    2.0878    0.7340 C   0  0  0  0  0  0  0  0  0  0  0  0
   -0.0032   -1.2154    0.7820 C   0  0  0  0  0  0  0  0  0  0  0  0
    0.0998   -3.0495   -0.9434 C   0  0  0  0  0  0  0  0  0  0  0  0
    0.6990   -2.0545    1.8440 C   0  0  0  0  0  0  0  0  0  0  0  0
    1.7398    0.3759    0.8527 C   0  0  0  0  0  0  0  0  0  0  0  0
    3.0823    0.5541    0.2440 C   0  0  0  0  0  0  0  0  0  0  0  0
    4.1642    0.7819    1.0696 C   0  0  0  0  0  0  0  0  0  0  0  0
    3.2063    0.4868   -1.1286 C   0  0  0  0  0  0  0  0  0  0  0  0
    5.4253    0.9496    0.4977 C   0  0  0  0  0  0  0  0  0  0  0  0
    4.4674    0.6544   -1.7005 C   0  0  0  0  0  0  0  0  0  0  0  0
    5.5769    0.8858   -0.8874 C   0  0  0  0  0  0  0  0  0  0  0  0
  1 12  1  0
  1 15  1  0
  2 15  2  0
  3  7  1  0
  3  8  1  0
  3  9  1  0
  4  5  1  0
  4  6  1  0
  4 11  1  0
  5  7  1  0
  6  8  1  0
  9 10  1  0
 10 12  1  0
 10 13  1  0
 12 14  1  0
 15 16  1  0
 16 17  2  0
 16 18  1  0
 17 19  1  0
 18 20  2  0
 19 21  2  0
 20 21  1  0
M  END
>  <PUBCHEM_COMPOUND_CID>  (1) 
45238

>  <PUBCHEM_CONFORMER_RMSD>  (1) 
0.8

>  <PUBCHEM_CONFORMER_DIVERSEORDER>  (1) 
1
182
169
161
200
147
30
235
139
223
92
177
3
18
129
76
245
157
113
50
191
110
255
202
170
179
36
211
130
148
87
154
23
192
193
111
90
20
58
57
238
221
81
94
134
123
160
210
114
97
199
46
73
166
84
14
156
55
91
246
77
244
262
40
80
117
189
100
126
43
12
56
174
115
13
206
70
33
146
237
240
71
28
22
21
143
5
89
254
259
176
184
260
136
144
65
173
49
183
158
44
98
104
152
229
234
62
188
167
242
124
101
205
127
83
15
106
263
251
252
95
196
248
243
137
86
2
164
197
190
230
116
225
168
102
79
82
103
64
162
233
8
218
75
181
72
150
256
149
247
7
151
214
232
135
219
85
4
186
69
112
67
231
52
39
59
195
140
51
180
121
217
105
145
132
216
118
175
131
194
261
257
74
236
66
171
250
42
220
47
201
155
163
258
48
204
209
215
53
125
159
224
35
60
41
27
45
187
141
227
222
99
11
34
198
109
108
208
264
142
54
24
19
32
213
203
63
17
10
26
9
122
68
133
212
172
6
249
29
239
16
61
226
31
37
185
25
165
93
88
38
207
120
96
178
128
228
107
153
241
253
138
119
78

>  <PUBCHEM_MMFF94_PARTIAL_CHARGES>  (1) 
19
1 -0.43
12 0.28
15 0.63
16 0.09
17 -0.15
18 -0.15
19 -0.15
2 -0.57
20 -0.15
21 -0.15
3 -0.81
44 0.15
45 0.15
46 0.15
47 0.15
48 0.15
7 0.27
8 0.27
9 0.27

>  <PUBCHEM_EFFECTIVE_ROTOR_COUNT>  (1) 
7.2

>  <PUBCHEM_PHARMACOPHORE_FEATURES>  (1) 
5
1 13 hydrophobe
1 2 acceptor
1 3 cation
6 16 17 18 19 20 21 rings
6 3 4 5 6 7 8 rings

>  <PUBCHEM_HEAVY_ATOM_COUNT>  (1) 
21

>  <PUBCHEM_ATOM_DEF_STEREO_COUNT>  (1) 
0

>  <PUBCHEM_ATOM_UDEF_STEREO_COUNT>  (1) 
2

>  <PUBCHEM_BOND_DEF_STEREO_COUNT>  (1) 
0

>  <PUBCHEM_BOND_UDEF_STEREO_COUNT>  (1) 
0

>  <PUBCHEM_ISOTOPIC_ATOM_COUNT>  (1) 
0

>  <PUBCHEM_COMPONENT_COUNT>  (1) 
1

>  <PUBCHEM_CACTVS_TAUTO_COUNT>  (1) 
1

>  <PUBCHEM_CONFORMER_ID>  (1) 
0000B0B600000001

>  <PUBCHEM_MMFF94_ENERGY>  (1) 
46.1732

>  <PUBCHEM_FEATURE_SELFOVERLAP>  (1) 
25.371

>  <PUBCHEM_SHAPE_FINGERPRINT>  (1) 
10165383 225 18343025488953108347
10366900 7 18187074096990922585
10447042 23 13254797932576555068
105312 117 18343021120333539510
10613725 11 14692575403517148249
10681291 71 18411980239470604869
10730089 43 17896591783518305765
11045977 3 13984659269536265748
11370993 144 14708028991689138229
11552529 35 16227182593806928995
11796584 16 12175625079059168573
11823591 26 18335693940781291447
12166972 35 11023817379804786841
12363563 72 8934998213443851031
12390115 104 18341338838153185667
12516196 113 8286197245016119006
12596602 18 15574718006082305329
12623949 98 14129331833030491480
12633257 1 16370448869075980449
12788726 201 17274831212052895024
12892183 10 14851877024330548141
12895836 83 18265062490876899132
13544653 18 8646773313096003031
13583140 156 14563072754496062795
14251751 18 11311471607927851149
14251752 14 18341336617755177646
14341114 176 15791731888578531496
14341114 328 16950004729384355189
14713325 29 18265618869035166971
14848160 23 8142087537445315085
15099037 37 8358273548026754594
15183329 4 15985109574350958389
15188451 53 11455619734286890996
15415430 10 8142085372960860163
1601671 61 18334575732971426548
17349148 13 9799692635843548537
18186145 218 17846211197975022211
18222031 100 9439403540731063152
18785283 64 17168414957795093362
193927 3 9367342682365158653
19784866 240 8214134175754757525
200 152 14548748330416311010
20511986 3 13758075147763735732
20567600 70 8862641500582585413
20621476 66 18334018328459010052
20626108 58 11023818479237462123
20645477 70 16415211117414506734
21250096 35 12895356594539561548
21756936 100 17968656128896422746
23402539 116 17917708028466914216
23559900 14 17774725368244575176
2637199 183 18410009944350215843
293599 30 18413390934047418745
3009799 131 14045737114984746282
312425 54 13262669293138405429
3729539 64 17986413100062563150
38570 142 17845948325134647313
392239 28 15647062576997496793
439807 62 13613940254948346765
46194498 28 16986860483379445213
5104073 3 16589426600453730192
5161694 15 17775004652038956582
5283173 99 18130221683465872704
5385378 56 18340775818974125875
56616090 163 18343590620528857479
59682541 52 16056598695134104477
633830 44 17917981802456603813
7226269 152 18272362092844773712
7808743 9 18335139791432254301
960060 61 14764346050652886840

>  <PUBCHEM_SHAPE_MULTIPOLES>  (1) 
415.45
12.91
2.31
1.65
0.19
1.54
0.07
-10.49
-0.37
1.54
-0.12
-0.65
0.08
-0.38

>  <PUBCHEM_SHAPE_SELFOVERLAP>  (1) 
848.999

>  <PUBCHEM_SHAPE_VOLUME>  (1) 
240.6

>  <PUBCHEM_COORDINATE_TYPE>  (1) 
2
5
10

$$$$
