45244
     RDKit          3D

 20 21  0  0  0  0  0  0  0  0999 V2000
    4.1087    3.2148   -1.1006 I   0  0  0  0  0  0  0  0  0  0  0  0
    6.3114    1.4420    0.4167 F   0  0  0  0  0  0  0  0  0  0  0  0
   -6.6164    1.1638    0.6769 O   0  0  0  0  0  0  0  0  0  0  0  0
    0.5392   -0.7759   -0.1066 O   0  0  0  0  0  0  0  0  0  0  0  0
    1.6439   -2.7931   -0.2045 O   0  0  0  0  0  0  0  0  0  0  0  0
   -4.2413   -0.0177   -0.3549 N   0  0  0  0  0  0  0  0  0  0  0  0
   -4.2416    0.7258    0.9128 C   0  0  0  0  0  0  0  0  0  0  0  0
   -5.5619   -0.6190   -0.5862 C   0  0  0  0  0  0  0  0  0  0  0  0
   -3.1979   -1.0409   -0.3558 C   0  0  0  0  0  0  0  0  0  0  0  0
   -5.3462    1.7787    0.8956 C   0  0  0  0  0  0  0  0  0  0  0  0
   -6.6347    0.4661   -0.5690 C   0  0  0  0  0  0  0  0  0  0  0  0
   -1.8234   -0.3958   -0.2106 C   0  0  0  0  0  0  0  0  0  0  0  0
   -0.7125   -1.4369   -0.2304 C   0  0  0  0  0  0  0  0  0  0  0  0
    1.6416   -1.5758   -0.1077 C   0  0  0  0  0  0  0  0  0  0  0  0
    2.8794   -0.7672    0.0285 C   0  0  0  0  0  0  0  0  0  0  0  0
    2.8971    0.5171   -0.4755 C   0  0  0  0  0  0  0  0  0  0  0  0
    3.9745   -1.3265    0.6547 C   0  0  0  0  0  0  0  0  0  0  0  0
    4.0607    1.2756   -0.3476 C   0  0  0  0  0  0  0  0  0  0  0  0
    5.1382   -0.5681    0.7826 C   0  0  0  0  0  0  0  0  0  0  0  0
    5.1812    0.7330    0.2814 C   0  0  0  0  0  0  0  0  0  0  0  0
  1 18  1  0
  2 20  1  0
  3 10  1  0
  3 11  1  0
  4 13  1  0
  4 14  1  0
  5 14  2  0
  6  7  1  0
  6  8  1  0
  6  9  1  0
  7 10  1  0
  8 11  1  0
  9 12  1  0
 12 13  1  0
 14 15  1  0
 15 16  2  0
 15 17  1  0
 16 18  1  0
 17 19  2  0
 18 20  2  0
 19 20  1  0
M  END
>  <PUBCHEM_COMPOUND_CID>  (1) 
45244

>  <PUBCHEM_CONFORMER_RMSD>  (1) 
0.8

>  <PUBCHEM_CONFORMER_DIVERSEORDER>  (1) 
1
83
74
85
174
175
205
140
102
120
30
96
94
224
186
40
197
79
103
262
198
70
249
260
160
42
255
189
245
265
243
6
86
9
239
164
128
88
241
206
202
129
185
212
22
127
67
244
56
211
223
7
218
36
178
3
98
187
263
264
157
47
68
15
82
253
25
145
131
169
165
11
116
32
246
248
10
209
132
49
87
199
122
99
41
172
151
238
60
61
117
166
134
136
183
232
100
4
146
62
48
168
2
176
138
184
52
256
54
13
258
204
23
233
180
230
29
73
250
55
118
75
93
71
81
167
257
219
63
152
201
72
188
254
215
171
95
91
144
259
123
101
236
213
216
231
266
59
76
78
44
240
135
20
173
124
170
33
252
147
137
208
92
222
112
64
26
195
162
8
191
77
247
142
105
237
97
196
194
43
193
66
38
21
104
190
139
114
228
58
141
110
50
207
125
65
45
16
261
148
161
108
150
143
192
84
235
69
225
24
214
158
53
89
229
14
109
27
153
19
107
37
251
113
226
130
227
221
234
28
203
17
39
46
121
220
177
34
149
210
163
126
5
242
181
182
35
155
179
111
80
154
200
217
119
156
90
51
12
18
159
133
57
31
115
106

>  <PUBCHEM_MMFF94_PARTIAL_CHARGES>  (1) 
22
1 -0.08
10 0.28
11 0.28
13 0.28
14 0.63
15 0.09
16 -0.15
17 -0.15
18 0.08
19 -0.15
2 -0.19
20 0.19
3 -0.56
35 0.15
36 0.15
37 0.15
4 -0.43
5 -0.57
6 -0.81
7 0.27
8 0.27
9 0.27

>  <PUBCHEM_EFFECTIVE_ROTOR_COUNT>  (1) 
7.2

>  <PUBCHEM_PHARMACOPHORE_FEATURES>  (1) 
6
1 1 hydrophobe
1 3 acceptor
1 5 acceptor
1 6 cation
6 15 16 17 18 19 20 rings
6 3 6 7 8 10 11 rings

>  <PUBCHEM_HEAVY_ATOM_COUNT>  (1) 
20

>  <PUBCHEM_ATOM_DEF_STEREO_COUNT>  (1) 
0

>  <PUBCHEM_ATOM_UDEF_STEREO_COUNT>  (1) 
0

>  <PUBCHEM_BOND_DEF_STEREO_COUNT>  (1) 
0

>  <PUBCHEM_BOND_UDEF_STEREO_COUNT>  (1) 
0

>  <PUBCHEM_ISOTOPIC_ATOM_COUNT>  (1) 
0

>  <PUBCHEM_COMPONENT_COUNT>  (1) 
1

>  <PUBCHEM_CACTVS_TAUTO_COUNT>  (1) 
1

>  <PUBCHEM_CONFORMER_ID>  (1) 
0000B0BC00000001

>  <PUBCHEM_MMFF94_ENERGY>  (1) 
40.0397

>  <PUBCHEM_FEATURE_SELFOVERLAP>  (1) 
30.446

>  <PUBCHEM_SHAPE_FINGERPRINT>  (1) 
10411042 1 17976253535935265762
10595046 47 18272084977402312199
10688039 33 17385719167106300876
10693767 8 9366527940972875080
11524674 6 15068624886129170665
12236239 1 18201716245571460487
12596602 18 18040156232190168835
13167372 99 18340486673059055185
13533116 47 17385998404489394362
13631057 29 18269548507441650015
13668630 136 8718828699689643625
13785724 45 17907012873017337282
14251764 75 17971766724796803764
14347332 77 9871478595044437279
14429380 56 18261661645799055525
14464042 87 18131072614802174128
14528608 73 18273495684721213527
15142526 21 18115025337009756186
15183329 4 17918274255754884321
15348495 7 17313110790777990473
15537594 2 8790884077408545097
1768 23 17986982715926378057
17810953 82 18335422413323859076
19427546 62 18408323310899636270
20157964 124 18409729547426477835
20281389 69 18260264127659743597
20526848 3 18412828014449100704
20645477 70 11815905556681425260
21033648 29 16443328901942759991
221357 26 11095884856536465787
23272321 79 18342457032915059995
245318 6 17824842262514781149
2767999 5 18413386540496399949
300161 21 18409726236666023743
312425 54 16805325474879534889
3472631 163 18272373117682658236
34797466 226 15697997483123584537
397830 11 17023761142054570361
4073 2 18187087290498187434
465052 167 10881404214143128642
474 4 18335703870714258538
5104073 3 17968094282554580658
543368 44 18272931627204306433
960060 61 11600002167521922842
999808 66 11383538050104707453

>  <PUBCHEM_SHAPE_MULTIPOLES>  (1) 
393.66
18.38
2.68
0.94
19.73
1.32
-0.04
9.34
-2.28
-3.54
0.52
0.25
0.3
-1.96

>  <PUBCHEM_SHAPE_SELFOVERLAP>  (1) 
792.391

>  <PUBCHEM_SHAPE_VOLUME>  (1) 
234.6

>  <PUBCHEM_COORDINATE_TYPE>  (1) 
2
5
10

$$$$
