45248
     RDKit          3D

 20 21  0  0  1  0  0  0  0  0999 V2000
    0.6461   -1.7240    0.4866 O   0  0  0  0  0  0  0  0  0  0  0  0
    0.3450    0.3430    1.4543 O   0  0  0  0  0  0  0  0  0  0  0  0
    2.7807    1.4325    1.9667 O   0  0  0  0  0  0  0  0  0  0  0  0
   -2.4012   -0.2883   -0.3507 N   0  0  0  0  0  0  0  0  0  0  0  0
   -2.5654    0.9277   -1.1804 C   0  0  0  0  0  0  0  0  0  0  0  0
   -3.2246    2.0526   -0.3568 C   0  0  0  0  0  0  0  0  0  0  0  0
   -3.6957   -0.7466    0.1839 C   0  0  0  0  0  0  0  0  0  0  0  0
   -4.5525    1.6132    0.2460 C   0  0  0  0  0  0  0  0  0  0  0  0
   -4.3697    0.3265    1.0356 C   0  0  0  0  0  0  0  0  0  0  0  0
   -1.7681   -1.3879   -1.0849 C   0  0  0  0  0  0  0  0  0  0  0  0
   -1.2315    1.4553   -1.7279 C   0  0  0  0  0  0  0  0  0  0  0  0
   -1.5040   -2.5649   -0.1515 C   0  0  0  0  0  0  0  0  0  0  0  0
   -0.5996   -2.1670    1.0072 C   0  0  0  0  0  0  0  0  0  0  0  0
    0.9989   -0.4431    0.7865 C   0  0  0  0  0  0  0  0  0  0  0  0
    2.3136   -0.1041    0.1856 C   0  0  0  0  0  0  0  0  0  0  0  0
    3.1366    0.8148    0.8052 C   0  0  0  0  0  0  0  0  0  0  0  0
    2.6712   -0.7314   -0.9920 C   0  0  0  0  0  0  0  0  0  0  0  0
    4.3676    1.1194    0.2242 C   0  0  0  0  0  0  0  0  0  0  0  0
    3.9022   -0.4266   -1.5729 C   0  0  0  0  0  0  0  0  0  0  0  0
    4.7504    0.4987   -0.9649 C   0  0  0  0  0  0  0  0  0  0  0  0
  1 13  1  0
  1 14  1  0
  2 14  2  0
  3 16  1  0
  4  5  1  0
  4  7  1  0
  4 10  1  0
  5  6  1  0
  5 11  1  0
  6  8  1  0
  7  9  1  0
  8  9  1  0
 10 12  1  0
 12 13  1  0
 14 15  1  0
 15 16  2  0
 15 17  1  0
 16 18  1  0
 17 19  2  0
 18 20  2  0
 19 20  1  0
M  END
>  <PUBCHEM_COMPOUND_CID>  (1) 
45248

>  <PUBCHEM_CONFORMER_RMSD>  (1) 
1

>  <PUBCHEM_CONFORMER_DIVERSEORDER>  (1) 
50
19
392
621
502
179
170
311
535
667
15
438
181
219
827
670
46
583
321
336
23
832
289
476
756
249
350
121
16
511
128
727
536
347
5
769
765
100
47
262
14
215
22
174
712
381
113
13
295
737
238
330
172
404
839
514
9
234
106
503
445
176
337
122
306
214
567
98
743
61
649
8
111
592
598
469
677
382
538
682
55
213
248
606
348
696
199
747
659
800
53
740
4
24
134
845
415
523
557
124
277
374
56
64
751
587
166
144
334
331
226
280
486
443
778
680
158
107
442
36
94
21
11
52
379
45
693
556
752
72
240
541
145
90
18
259
12
68
473
178
138
32
20
125
760
7
201
73
244
788
305
189
149
85
703
303
451
545
2
191
135
343
309
6
759
54
169
263
139
129
29
351
43
467
398
676
631
322
89
130
103
34
643
612
206
356
308
1
353
447
470
231
766
230
78
83
3
101
93
62
69

>  <PUBCHEM_MMFF94_PARTIAL_CHARGES>  (1) 
20
1 -0.43
10 0.27
13 0.28
14 0.63
15 0.09
16 0.08
17 -0.15
18 -0.15
19 -0.15
2 -0.57
20 -0.15
3 -0.53
39 0.15
4 -0.81
40 0.15
41 0.15
42 0.15
43 0.45
5 0.27
7 0.27

>  <PUBCHEM_EFFECTIVE_ROTOR_COUNT>  (1) 
7.2

>  <PUBCHEM_PHARMACOPHORE_FEATURES>  (1) 
5
1 2 acceptor
1 3 donor
1 4 cation
6 15 16 17 18 19 20 rings
6 4 5 6 7 8 9 rings

>  <PUBCHEM_HEAVY_ATOM_COUNT>  (1) 
20

>  <PUBCHEM_ATOM_DEF_STEREO_COUNT>  (1) 
0

>  <PUBCHEM_ATOM_UDEF_STEREO_COUNT>  (1) 
1

>  <PUBCHEM_BOND_DEF_STEREO_COUNT>  (1) 
0

>  <PUBCHEM_BOND_UDEF_STEREO_COUNT>  (1) 
0

>  <PUBCHEM_ISOTOPIC_ATOM_COUNT>  (1) 
0

>  <PUBCHEM_COMPONENT_COUNT>  (1) 
1

>  <PUBCHEM_CACTVS_TAUTO_COUNT>  (1) 
4

>  <PUBCHEM_CONFORMER_ID>  (1) 
0000B0C000000032

>  <PUBCHEM_MMFF94_ENERGY>  (1) 
36.9102

>  <PUBCHEM_FEATURE_SELFOVERLAP>  (1) 
25.372

>  <PUBCHEM_SHAPE_FINGERPRINT>  (1) 
10165383 225 18339370677652570161
10498660 4 18261381222699175813
12173636 292 18339353068418772581
12596602 18 16371016238202615512
12670545 2 14764355915871051564
128993 33 18266446629713002613
13224815 77 17313381210250437653
13583140 156 14779535820580150158
14251757 17 18060144227721676706
14289901 80 14273449288521764556
14341114 328 16443357455022733437
14386348 128 18336537214654945813
14787075 74 15792312516807000593
17834072 14 9223221940838456639
18186145 218 18273492373127296610
200 152 15626233411735854202
20261772 1 17894915135000532148
20600515 1 17108146602123391611
20645477 56 18410858788891417998
20645477 70 16845303752114970022
20671657 53 11815603190836307995
21486144 27 18131063865794970952
21756936 100 16878233038792843524
221357 26 17704352156721025689
23227448 37 18337394970921127525
23419403 2 17548188434292244179
23557571 272 18049156967092347962
23559900 14 18131072637110050690
24859131 72 8646776581571279664
25 1 18272651216541001018
2637199 183 18130509609272062289
3027735 51 11671518729072584029
3323516 105 18131071532448724840
351380 180 10881398759497771796
3729539 64 17911260329020865950
3797600 57 16588036700831644236
4028521 119 18272654536640138409
469060 322 17677048061867403211
5161694 15 17846502538771037270
5281201 14 17917714642690098372
6287921 2 18053098716119948780
633830 44 17988920025228051381
6442390 28 18335146384075691715
7399639 24 17196838703245909426
7808743 9 18261396688828922708
81228 2 18045772648853740283
9882013 296 14851609877185395309

>  <PUBCHEM_SHAPE_MULTIPOLES>  (1) 
389
9.5
2.21
1.55
2.12
0.76
-0.03
-4.37
0.3
-1.7
0.01
0.72
-0.32
0.63

>  <PUBCHEM_SHAPE_SELFOVERLAP>  (1) 
802.355

>  <PUBCHEM_SHAPE_VOLUME>  (1) 
222.5

>  <PUBCHEM_COORDINATE_TYPE>  (1) 
2
5
10

$$$$
