45240
     RDKit          3D

 22 23  0  0  1  0  0  0  0  0999 V2000
    0.4588    1.5290    0.3448 O   0  0  0  0  0  0  0  0  0  0  0  0
   -0.2633    2.3228   -1.6918 O   0  0  0  0  0  0  0  0  0  0  0  0
   -5.2907   -0.8325    0.5860 O   0  0  0  0  0  0  0  0  0  0  0  0
    3.4369   -0.2698    0.3940 N   0  0  0  0  0  0  0  0  0  0  0  0
    3.5816   -1.7385    0.5197 C   0  0  0  0  0  0  0  0  0  0  0  0
    4.2584   -2.3191   -0.7385 C   0  0  0  0  0  0  0  0  0  0  0  0
    4.7434    0.3775    0.1799 C   0  0  0  0  0  0  0  0  0  0  0  0
    5.6002   -1.6554   -1.0203 C   0  0  0  0  0  0  0  0  0  0  0  0
    5.4361   -0.1447   -1.0766 C   0  0  0  0  0  0  0  0  0  0  0  0
    2.7879    0.3327    1.5622 C   0  0  0  0  0  0  0  0  0  0  0  0
    2.2354   -2.4519    0.7102 C   0  0  0  0  0  0  0  0  0  0  0  0
    2.6098    1.8332    1.3536 C   0  0  0  0  0  0  0  0  0  0  0  0
    1.7314    2.1290    0.1455 C   0  0  0  0  0  0  0  0  0  0  0  0
   -0.4488    1.7040   -0.6555 C   0  0  0  0  0  0  0  0  0  0  0  0
   -1.7317    1.0330   -0.3262 C   0  0  0  0  0  0  0  0  0  0  0  0
   -2.5147    0.5506   -1.3549 C   0  0  0  0  0  0  0  0  0  0  0  0
   -2.1014    0.9119    0.9979 C   0  0  0  0  0  0  0  0  0  0  0  0
   -3.7198   -0.0804   -1.0461 C   0  0  0  0  0  0  0  0  0  0  0  0
   -3.3065    0.2809    1.3065 C   0  0  0  0  0  0  0  0  0  0  0  0
   -4.1158   -0.2153    0.2846 C   0  0  0  0  0  0  0  0  0  0  0  0
   -6.0684   -1.3180   -0.5073 C   0  0  0  0  0  0  0  0  0  0  0  0
   -7.3189   -1.9790    0.0323 C   0  0  0  0  0  0  0  0  0  0  0  0
  1 13  1  0
  1 14  1  0
  2 14  2  0
  3 20  1  0
  3 21  1  0
  4  5  1  0
  4  7  1  0
  4 10  1  0
  5  6  1  0
  5 11  1  0
  6  8  1  0
  7  9  1  0
  8  9  1  0
 10 12  1  0
 12 13  1  0
 14 15  1  0
 15 16  2  0
 15 17  1  0
 16 18  1  0
 17 19  2  0
 18 20  2  0
 19 20  1  0
 21 22  1  0
M  END
>  <PUBCHEM_COMPOUND_CID>  (1) 
45240

>  <PUBCHEM_CONFORMER_RMSD>  (1) 
1

>  <PUBCHEM_CONFORMER_DIVERSEORDER>  (1) 
7
121
33
74
99
91
132
134
80
112
16
8
57
63
36
83
88
135
113
106
45
89
32
29
129
39
82
52
25
65
1
108
69
66
68
40
81
119
115
35
47
27
124
30
130
105
6
26
9
53
10
3
56
44
64
62
128
24
42
78
17
118
50
136
15
75
86
18
133
2
67
131
79
94
87
72
28
71
114
34
61
117
111
14
19
102
49
100
12
84
23
137
48
60
20
95
138
122
43
21
127
4
103
76
85
58
97
125
101
98
126
90
109
46
13
92
123
116
70
31
38
104
51
120
55
37
11
22
110
73
5
41
96
107
54
59
77
93

>  <PUBCHEM_MMFF94_PARTIAL_CHARGES>  (1) 
20
1 -0.43
10 0.27
13 0.28
14 0.63
15 0.09
16 -0.15
17 -0.15
18 -0.15
19 -0.15
2 -0.57
20 0.08
21 0.28
3 -0.36
4 -0.81
41 0.15
42 0.15
43 0.15
44 0.15
5 0.27
7 0.27

>  <PUBCHEM_EFFECTIVE_ROTOR_COUNT>  (1) 
9.2

>  <PUBCHEM_PHARMACOPHORE_FEATURES>  (1) 
5
1 2 acceptor
1 3 acceptor
1 4 cation
6 15 16 17 18 19 20 rings
6 4 5 6 7 8 9 rings

>  <PUBCHEM_HEAVY_ATOM_COUNT>  (1) 
22

>  <PUBCHEM_ATOM_DEF_STEREO_COUNT>  (1) 
0

>  <PUBCHEM_ATOM_UDEF_STEREO_COUNT>  (1) 
1

>  <PUBCHEM_BOND_DEF_STEREO_COUNT>  (1) 
0

>  <PUBCHEM_BOND_UDEF_STEREO_COUNT>  (1) 
0

>  <PUBCHEM_ISOTOPIC_ATOM_COUNT>  (1) 
0

>  <PUBCHEM_COMPONENT_COUNT>  (1) 
1

>  <PUBCHEM_CACTVS_TAUTO_COUNT>  (1) 
1

>  <PUBCHEM_CONFORMER_ID>  (1) 
0000B0B800000007

>  <PUBCHEM_MMFF94_ENERGY>  (1) 
45.9595

>  <PUBCHEM_FEATURE_SELFOVERLAP>  (1) 
25.371

>  <PUBCHEM_SHAPE_FINGERPRINT>  (1) 
10316853 100 18335701697281998123
10319926 262 15913064100942685957
10366900 7 18041002821246001034
10692045 39 12319469744520149964
10928967 22 18058156250970562334
11954058 11 18342744043482305221
11991303 11 17754170887063929085
12596602 18 17561085821264266385
12633257 1 12031490070062383730
12778500 126 17203338792682469187
12895836 83 12540694851662407169
13103583 49 17489318433845343840
13402501 40 18334862722681078634
13464513 79 18411702084698747354
13533116 47 18201718517830550513
14251740 57 18341048609700998267
14251764 30 17988090967801960694
14341114 176 17418374701052640224
14617045 38 18335703861971622523
15183329 4 15140674787764860295
15238133 3 11527939085111701314
15537594 2 18273210915515292702
15635459 17 18186795876934712840
15721738 202 17917715707816082347
1813 80 18187364332931348980
18222031 100 18187362155683252729
193927 3 18334016107633734025
19784866 240 18409452518473862293
20397935 70 18342174522698276307
20645477 70 18187076308197953401
20715895 44 8430598310610792982
20871999 31 16805323275529659601
21150785 3 13334734666047226443
21713013 43 18118686522437543276
2215653 11 18337097987292290733
22849339 104 16298677178447845171
22950370 63 18201164243827124344
23016692 55 18113337513979037045
235170 7 17168425952805537846
23559900 14 17968381268364643569
2838139 119 8935008036192611435
2871803 45 18187928335747193978
3472631 163 11386365950269850579
351380 3 18131070419962725822
3737641 26 17772197414497192398
3886686 26 16624929538424012191
445580 126 8862952654083875167
46194498 28 17894629309259173220
465052 167 17988927773164171068
54039377 194 18129668479263173542
57724786 102 11815597702158436442
8509985 295 12175621763776529674

>  <PUBCHEM_SHAPE_MULTIPOLES>  (1) 
430.16
15.53
2.62
1.4
13.44
0.44
-0.06
12.35
-1.61
-1.47
-0.13
-0.31
-0.35
0.82

>  <PUBCHEM_SHAPE_SELFOVERLAP>  (1) 
876.787

>  <PUBCHEM_SHAPE_VOLUME>  (1) 
249.8

>  <PUBCHEM_COORDINATE_TYPE>  (1) 
2
5
10

$$$$
