45247
     RDKit          3D

 20 21  0  0  1  0  0  0  0  0999 V2000
    0.4503    1.1112   -0.5753 O   0  0  0  0  0  0  0  0  0  0  0  0
    1.3893    2.0123    1.3235 O   0  0  0  0  0  0  0  0  0  0  0  0
    6.0924    0.0035    0.7316 O   0  0  0  0  0  0  0  0  0  0  0  0
   -2.8343   -0.0153   -0.3537 N   0  0  0  0  0  0  0  0  0  0  0  0
   -3.2828   -1.4243   -0.2669 C   0  0  0  0  0  0  0  0  0  0  0  0
   -4.0215   -1.6699    1.0642 C   0  0  0  0  0  0  0  0  0  0  0  0
   -3.9715    0.9137   -0.2290 C   0  0  0  0  0  0  0  0  0  0  0  0
   -5.1873   -0.7081    1.2537 C   0  0  0  0  0  0  0  0  0  0  0  0
   -4.7138    0.7279    1.0923 C   0  0  0  0  0  0  0  0  0  0  0  0
   -2.1154    0.2698   -1.5988 C   0  0  0  0  0  0  0  0  0  0  0  0
   -2.1197   -2.4224   -0.3590 C   0  0  0  0  0  0  0  0  0  0  0  0
   -1.6249    1.7141   -1.6082 C   0  0  0  0  0  0  0  0  0  0  0  0
   -0.6639    1.9853   -0.4586 C   0  0  0  0  0  0  0  0  0  0  0  0
    1.4079    1.2302    0.3858 C   0  0  0  0  0  0  0  0  0  0  0  0
    2.5132    0.2671    0.1506 C   0  0  0  0  0  0  0  0  0  0  0  0
    3.7882    0.6016    0.5590 C   0  0  0  0  0  0  0  0  0  0  0  0
    2.2313   -0.9328   -0.4700 C   0  0  0  0  0  0  0  0  0  0  0  0
    4.8263   -0.3033    0.3376 C   0  0  0  0  0  0  0  0  0  0  0  0
    3.2694   -1.8376   -0.6915 C   0  0  0  0  0  0  0  0  0  0  0  0
    4.5669   -1.5228   -0.2876 C   0  0  0  0  0  0  0  0  0  0  0  0
  1 13  1  0
  1 14  1  0
  2 14  2  0
  3 18  1  0
  4  5  1  0
  4  7  1  0
  4 10  1  0
  5  6  1  0
  5 11  1  0
  6  8  1  0
  7  9  1  0
  8  9  1  0
 10 12  1  0
 12 13  1  0
 14 15  1  0
 15 16  2  0
 15 17  1  0
 16 18  1  0
 17 19  2  0
 18 20  2  0
 19 20  1  0
M  END
>  <PUBCHEM_COMPOUND_CID>  (1) 
45247

>  <PUBCHEM_CONFORMER_RMSD>  (1) 
1

>  <PUBCHEM_CONFORMER_DIVERSEORDER>  (1) 
11
721
804
364
2
88
847
877
323
52
724
214
283
356
466
866
305
27
396
48
455
662
857
296
253
78
776
329
139
13
112
729
611
63
9
741
175
698
270
32
800
100
12
96
608
143
169
154
473
192
573
189
725
474
324
229
60
425
860
620
40
319
820
545
577
43
245
636
397
459
74
531
162
480
118
128
643
16
50
510
159
182
365
677
202
353
102
694
89
797
351
503
103
579
95
612
18
8
104
563
140
7
747
241
266
28
239
498
471
401
308
278
865
673
218
205
368
853
122
17
21
778
99
834
344
272
66
294
213
6
1
292
781
701
696
812
859
379
259
14
621
492
821
750
168
20
215
33
138
822
176
84
157
68
709
264
868
15
31
25
65
92
5
158
885
85
592
248
349
204
690
58
34
437
370
679
23
414
572
593
93
39
380
132
24
785
4
347
49
360
46
583
641
419
449
367
540
201
73
101
113
570
53
758
743
22
582
180
45
79

>  <PUBCHEM_MMFF94_PARTIAL_CHARGES>  (1) 
20
1 -0.43
10 0.27
13 0.28
14 0.63
15 0.09
16 -0.15
17 -0.15
18 0.08
19 -0.15
2 -0.57
20 -0.15
3 -0.53
39 0.15
4 -0.81
40 0.15
41 0.15
42 0.15
43 0.45
5 0.27
7 0.27

>  <PUBCHEM_EFFECTIVE_ROTOR_COUNT>  (1) 
7.2

>  <PUBCHEM_PHARMACOPHORE_FEATURES>  (1) 
5
1 2 acceptor
1 3 donor
1 4 cation
6 15 16 17 18 19 20 rings
6 4 5 6 7 8 9 rings

>  <PUBCHEM_HEAVY_ATOM_COUNT>  (1) 
20

>  <PUBCHEM_ATOM_DEF_STEREO_COUNT>  (1) 
0

>  <PUBCHEM_ATOM_UDEF_STEREO_COUNT>  (1) 
1

>  <PUBCHEM_BOND_DEF_STEREO_COUNT>  (1) 
0

>  <PUBCHEM_BOND_UDEF_STEREO_COUNT>  (1) 
0

>  <PUBCHEM_ISOTOPIC_ATOM_COUNT>  (1) 
0

>  <PUBCHEM_COMPONENT_COUNT>  (1) 
1

>  <PUBCHEM_CACTVS_TAUTO_COUNT>  (1) 
3

>  <PUBCHEM_CONFORMER_ID>  (1) 
0000B0BF0000000B

>  <PUBCHEM_MMFF94_ENERGY>  (1) 
35.4472

>  <PUBCHEM_FEATURE_SELFOVERLAP>  (1) 
25.371

>  <PUBCHEM_SHAPE_FINGERPRINT>  (1) 
105312 117 17025417917373407605
11128504 68 15502384434535524356
11370993 144 18130228168349167231
11552529 35 17702092780321474671
12596602 18 16271923848013592723
12633257 1 18130792295340093903
12670546 177 12107788518829094609
12714826 92 17458616809813519389
12892183 10 18057609965669038393
13103583 49 17988657302115179947
13402501 40 18409732850177447563
14123255 352 11384115245409081362
14251764 30 16660942074833730051
14386348 63 18410009918643799990
14617045 38 18410019805653584966
14765038 42 18271536342105234554
14790565 3 17692529335974460320
14957384 54 13901900115987777930
15209289 33 18113340829683376603
15238133 3 17774457026376445041
15527383 91 18272370888373332017
15537594 2 17821730507400732195
16110190 28 18410299150210023902
16126227 98 17547568645148394448
16994733 274 13973096849479995106
17349148 13 14923940120665012200
1813 80 17530689831126009349
18785283 64 18266454502816006224
19141452 34 18412828006049096319
20403669 9 18333168379673427483
21403212 168 18338241454221983657
21503847 285 14189278388530558146
221490 88 18339920421087984646
23402539 116 15357693050916965620
2838139 119 10159700161859360082
328317 168 10807937046498967867
341906 21 12535623877595354572
3737641 26 18189621552999075594
4325135 7 17749394801751772084
5924683 9 17774153634709072279
7097593 13 18127133193984515949
7495541 125 18113897178567644588

>  <PUBCHEM_SHAPE_MULTIPOLES>  (1) 
389
12.26
2.28
1.28
5.01
0.31
0.11
3.96
-4.16
-0.75
0.24
-0.9
-0.28
1.19

>  <PUBCHEM_SHAPE_SELFOVERLAP>  (1) 
800.063

>  <PUBCHEM_SHAPE_VOLUME>  (1) 
223.4

>  <PUBCHEM_COORDINATE_TYPE>  (1) 
2
5
10

$$$$
