45258
     RDKit          3D

 15 14  0  0  0  0  0  0  0  0999 V2000
   -5.4115   -0.6938    1.3149 Cl  0  0  0  0  0  0  0  0  0  0  0  0
    5.2722    1.5900    1.1521 Cl  0  0  0  0  0  0  0  0  0  0  0  0
   -1.0387   -1.9699   -0.0472 Cl  0  0  0  0  0  0  0  0  0  0  0  0
   -2.8904    0.1262   -0.2081 O   0  0  0  0  0  0  0  0  0  0  0  0
    2.9810    0.0814   -0.1976 O   0  0  0  0  0  0  0  0  0  0  0  0
   -1.4613    1.9197   -0.3448 O   0  0  0  0  0  0  0  0  0  0  0  0
    1.9124   -1.9558   -0.0441 O   0  0  0  0  0  0  0  0  0  0  0  0
   -4.0122    1.0134   -0.2752 C   0  0  0  0  0  0  0  0  0  0  0  0
    4.2531   -0.5734   -0.1448 C   0  0  0  0  0  0  0  0  0  0  0  0
   -5.3011    0.2147   -0.2142 C   0  0  0  0  0  0  0  0  0  0  0  0
    5.3635    0.4581   -0.2213 C   0  0  0  0  0  0  0  0  0  0  0  0
   -0.5842   -0.3102   -0.1738 C   0  0  0  0  0  0  0  0  0  0  0  0
   -1.6647    0.7164   -0.2533 C   0  0  0  0  0  0  0  0  0  0  0  0
    0.6863    0.1230   -0.2053 C   0  0  0  0  0  0  0  0  0  0  0  0
    1.8956   -0.7400   -0.1371 C   0  0  0  0  0  0  0  0  0  0  0  0
  1 10  1  0
  2 11  1  0
  3 12  1  0
  4  8  1  0
  4 13  1  0
  5  9  1  0
  5 15  1  0
  6 13  2  0
  7 15  2  0
  8 10  1  0
  9 11  1  0
 12 13  1  0
 12 14  2  0
 14 15  1  0
M  END
>  <PUBCHEM_COMPOUND_CID>  (1) 
45258

>  <PUBCHEM_CONFORMER_RMSD>  (1) 
0.8

>  <PUBCHEM_CONFORMER_DIVERSEORDER>  (1) 
1
119
159
179
208
81
222
8
225
42
21
35
205
79
214
78
245
137
199
120
111
4
196
28
68
206
33
15
113
197
31
91
101
10
29
84
36
108
221
98
128
54
12
201
224
109
16
198
230
20
235
146
192
44
80
210
34
123
239
19
226
110
64
129
215
11
200
162
13
7
121
58
188
242
147
145
30
118
26
77
178
187
32
122
47
60
102
96
75
23
152
50
61
142
246
69
150
219
180
24
62
52
25
38
244
87
195
115
43
5
86
49
2
22
125
141
88
183
92
158
67
186
105
217
17
134
220
172
140
203
94
238
170
154
117
163
14
232
167
155
93
74
48
169
41
72
160
27
182
151
104
76
85
46
100
135
66
243
37
227
212
218
40
236
65
143
189
55
56
166
190
70
174
53
181
127
83
106
89
45
59
95
82
99
237
229
90
213
9
133
63
103
164
144
3
202
191
171
107
204
184
97
71
148
233
124
228
161
39
51
18
149
165
231
175
241
57
209
194
176
156
112
193
234
114
6
177
168
132
223
216
173
131
240
130
73
185
153
126
138
136
139
157
116
207
211

>  <PUBCHEM_MMFF94_PARTIAL_CHARGES>  (1) 
16
1 -0.29
10 0.29
11 0.29
12 0.15
13 0.71
14 -0.14
15 0.71
2 -0.29
24 0.15
3 -0.14
4 -0.43
5 -0.43
6 -0.57
7 -0.57
8 0.28
9 0.28

>  <PUBCHEM_EFFECTIVE_ROTOR_COUNT>  (1) 
8

>  <PUBCHEM_PHARMACOPHORE_FEATURES>  (1) 
2
1 6 acceptor
1 7 acceptor

>  <PUBCHEM_HEAVY_ATOM_COUNT>  (1) 
15

>  <PUBCHEM_ATOM_DEF_STEREO_COUNT>  (1) 
0

>  <PUBCHEM_ATOM_UDEF_STEREO_COUNT>  (1) 
0

>  <PUBCHEM_BOND_DEF_STEREO_COUNT>  (1) 
0

>  <PUBCHEM_BOND_UDEF_STEREO_COUNT>  (1) 
1

>  <PUBCHEM_ISOTOPIC_ATOM_COUNT>  (1) 
0

>  <PUBCHEM_COMPONENT_COUNT>  (1) 
1

>  <PUBCHEM_CACTVS_TAUTO_COUNT>  (1) 
1

>  <PUBCHEM_CONFORMER_ID>  (1) 
0000B0CA00000001

>  <PUBCHEM_MMFF94_ENERGY>  (1) 
23.698

>  <PUBCHEM_FEATURE_SELFOVERLAP>  (1) 
10.149

>  <PUBCHEM_SHAPE_FINGERPRINT>  (1) 
11287383 113 18187087264627487264
11858739 19 11025790999040043472
12596602 18 16877938360981637896
12730499 353 18273221898047582350
13081056 2 18342455920476455876
13237642 15 18334860515141156841
13533116 47 18114174178151529682
13955234 65 18201718406473169570
14123238 8 18260550013119311863
1420 363 18335146379537611375
14251752 14 13182752407021870728
14366163 111 15051726517459634434
15048467 5 17131837551691628401
15501527 16 18342738545871230186
17834072 33 17561077029461001140
17834076 25 15410896253826401357
18785283 64 18118687848844654164
19489759 90 16153425035076842541
20645477 56 18411416224407466286
21354914 88 7925912590910438292
22079108 93 18412539942323203314
22224240 67 18342182176768107771
23402539 116 18410005542262055751
23557571 272 17677334892161794052
2916195 48 18342171172117578193
3545911 37 18410576189239820462
366044 4 18409166597615520367
42788 4 18413388722170903444
449060 50 18412825780928697142
474229 33 18335423465342815999
5104073 3 18263363586239576761
542803 24 16630527332060993449
59682541 35 18262244434058548577

>  <PUBCHEM_SHAPE_MULTIPOLES>  (1) 
290.83
13.21
1.71
0.87
1.59
0.26
-0.29
-3.54
-3.33
0.43
-0.08
-0.26
-0.1
1.21

>  <PUBCHEM_SHAPE_SELFOVERLAP>  (1) 
535.27

>  <PUBCHEM_SHAPE_VOLUME>  (1) 
184.8

>  <PUBCHEM_COORDINATE_TYPE>  (1) 
2
5
10

$$$$
