45254
     RDKit          3D

 23 24  0  0  1  0  0  0  0  0999 V2000
   -0.6969   -1.5524   -0.4825 O   0  0  0  0  0  0  0  0  0  0  0  0
    5.0609    0.7922   -0.6906 O   0  0  0  0  0  0  0  0  0  0  0  0
    0.0673   -2.4933    1.4745 O   0  0  0  0  0  0  0  0  0  0  0  0
   -3.6622    0.2361   -0.2981 N   0  0  0  0  0  0  0  0  0  0  0  0
   -3.6597    1.7087   -0.2058 C   0  0  0  0  0  0  0  0  0  0  0  0
   -4.1924    2.1418    1.1736 C   0  0  0  0  0  0  0  0  0  0  0  0
   -4.9827   -0.3600   -0.0672 C   0  0  0  0  0  0  0  0  0  0  0  0
   -5.5640    1.5490    1.4827 C   0  0  0  0  0  0  0  0  0  0  0  0
   -5.5411    0.0368    1.2996 C   0  0  0  0  0  0  0  0  0  0  0  0
   -3.0707   -0.2621   -1.5367 C   0  0  0  0  0  0  0  0  0  0  0  0
   -4.4034    2.4371   -1.3361 C   0  0  0  0  0  0  0  0  0  0  0  0
   -2.8730   -1.7725   -1.4589 C   0  0  0  0  0  0  0  0  0  0  0  0
   -1.9685   -2.1584   -0.2963 C   0  0  0  0  0  0  0  0  0  0  0  0
    0.2328   -1.8030    0.4808 C   0  0  0  0  0  0  0  0  0  0  0  0
    1.5114   -1.1146    0.1712 C   0  0  0  0  0  0  0  0  0  0  0  0
    2.6941   -1.6807    0.6010 C   0  0  0  0  0  0  0  0  0  0  0  0
    1.4779    0.0693   -0.5372 C   0  0  0  0  0  0  0  0  0  0  0  0
    5.8683    1.1945    0.4148 C   0  0  0  0  0  0  0  0  0  0  0  0
    3.8884    0.1629   -0.4049 C   0  0  0  0  0  0  0  0  0  0  0  0
    3.8957   -1.0348    0.3098 C   0  0  0  0  0  0  0  0  0  0  0  0
    2.6795    0.7151   -0.8283 C   0  0  0  0  0  0  0  0  0  0  0  0
    7.2098    0.4814    0.3406 C   0  0  0  0  0  0  0  0  0  0  0  0
    6.0285    2.7070    0.3940 C   0  0  0  0  0  0  0  0  0  0  0  0
  1 13  1  0
  1 14  1  0
  2 18  1  0
  2 19  1  0
  3 14  2  0
  4  5  1  0
  4  7  1  0
  4 10  1  0
  5  6  1  0
  5 11  1  0
  6  8  1  0
  7  9  1  0
  8  9  1  0
 10 12  1  0
 12 13  1  0
 14 15  1  0
 15 16  2  0
 15 17  1  0
 16 20  1  0
 17 21  2  0
 18 22  1  0
 18 23  1  0
 19 20  2  0
 19 21  1  0
M  END
>  <PUBCHEM_COMPOUND_CID>  (1) 
45254

>  <PUBCHEM_CONFORMER_RMSD>  (1) 
1

>  <PUBCHEM_CONFORMER_DIVERSEORDER>  (1) 
4
27
52
69
123
85
136
94
131
96
91
137
133
103
88
9
15
35
19
111
115
61
55
72
7
118
122
170
26
12
54
145
47
77
24
130
100
28
165
135
121
152
140
32
42
49
40
160
153
97
17
128
39
106
125
51
148
41
150
38
142
1
95
139
29
163
62
65
159
116
13
155
108
168
138
31
43
33
102
67
99
57
5
21
134
104
80
73
158
78
147
76
60
169
127
50
34
113
107
30
162
144
98
93
132
74
156
23
3
11
110
87
112
101
10
36
58
16
84
109
53
22
151
89
81
154
66
20
6
56
82
141
166
146
18
161
14
167
75
64
157
86
59
46
71
68
164
124
48
92
2
143
126
37
120
83
79
44
129
8
25
114
45
70
149
105
119
63
117
90

>  <PUBCHEM_MMFF94_PARTIAL_CHARGES>  (1) 
20
1 -0.43
10 0.27
13 0.28
14 0.63
15 0.09
16 -0.15
17 -0.15
18 0.28
19 0.08
2 -0.36
20 -0.15
21 -0.15
3 -0.57
4 -0.81
42 0.15
43 0.15
45 0.15
46 0.15
5 0.27
7 0.27

>  <PUBCHEM_EFFECTIVE_ROTOR_COUNT>  (1) 
9.2

>  <PUBCHEM_PHARMACOPHORE_FEATURES>  (1) 
6
1 2 acceptor
1 3 acceptor
1 4 cation
3 18 22 23 hydrophobe
6 15 16 17 19 20 21 rings
6 4 5 6 7 8 9 rings

>  <PUBCHEM_HEAVY_ATOM_COUNT>  (1) 
23

>  <PUBCHEM_ATOM_DEF_STEREO_COUNT>  (1) 
0

>  <PUBCHEM_ATOM_UDEF_STEREO_COUNT>  (1) 
1

>  <PUBCHEM_BOND_DEF_STEREO_COUNT>  (1) 
0

>  <PUBCHEM_BOND_UDEF_STEREO_COUNT>  (1) 
0

>  <PUBCHEM_ISOTOPIC_ATOM_COUNT>  (1) 
0

>  <PUBCHEM_COMPONENT_COUNT>  (1) 
1

>  <PUBCHEM_CACTVS_TAUTO_COUNT>  (1) 
1

>  <PUBCHEM_CONFORMER_ID>  (1) 
0000B0C600000004

>  <PUBCHEM_MMFF94_ENERGY>  (1) 
50.4224

>  <PUBCHEM_FEATURE_SELFOVERLAP>  (1) 
30.446

>  <PUBCHEM_SHAPE_FINGERPRINT>  (1) 
10 15 17603588560096359356
10087517 78 18341325690831414580
105312 117 17132114649764427055
10906281 52 18188501276211316358
11135609 201 18337952397599406026
11393246 34 11026058171876255784
12760667 363 8286199448867000655
12788726 201 16773242768799232889
12895836 83 17561083609746608863
12895837 130 17987520479711384108
13167372 99 18342174492981638896
13782708 43 12685083792269200136
14251764 38 18125719239095443008
14341114 328 18336836290972196611
14713325 29 18271810193647571623
14765038 42 18200889408511709705
14848178 5 8862935065738844173
14950920 106 14851895763215254669
15081414 286 18259704480699593260
15183329 4 17917996040531640334
15188451 53 13118001128027898987
15880784 105 11530485527707577966
17913733 40 17530681000641853850
18222031 100 10592046843358738374
20281389 69 18408319991073818268
20621476 66 18060144227753240657
21033648 29 16805600314121463679
21401589 2 18334859437067546363
21756936 100 18412544327543321987
23198884 109 17275109431386482743
23559900 14 9006762169195272167
2838139 119 18341606045227511556
2916195 48 18409445907965286308
312425 54 14779821599372761793
328310 18 17275390914699842841
3459 39 18338497695538083280
392239 28 17458641037860965257
397830 11 12829489316113202644
4098825 35 17632303358417541062
441001 317 18342172319211248398
445580 125 18410856590337706540
46194498 28 14044014189286368929
5104073 3 17749947743940627353
5283173 99 18130785707129339440
543368 44 18343580767863025309
57724786 102 17840312117019740891
59682541 35 18335433391702990051
59755656 520 18186802500054501002
6126387 218 17846778482922218414
6299153 45 18336820880624432866
636775 72 18125997403106263840
7226269 152 18341893000413979256
7808743 9 18273494568108935187
7970288 3 8502068765582595201

>  <PUBCHEM_SHAPE_MULTIPOLES>  (1) 
450.74
17
2.81
1.33
13.5
0.38
-0.01
12.32
3.03
-0.7
0.29
-1.8
0.07
-0.78

>  <PUBCHEM_SHAPE_SELFOVERLAP>  (1) 
917.387

>  <PUBCHEM_SHAPE_VOLUME>  (1) 
262.9

>  <PUBCHEM_COORDINATE_TYPE>  (1) 
2
5
10

$$$$
