4525
     RDKit          3D

 14 13  0  0  1  0  0  0  0  0999 V2000
   -3.4245   -0.3832   -1.9426 O   0  0  0  0  0  0  0  0  0  0  0  0
   -3.1210   -1.8775    1.2714 O   0  0  0  0  0  0  0  0  0  0  0  0
   -3.0586    0.6952    0.3361 N   0  0  0  0  0  0  0  0  0  0  0  0
    5.6745    0.2191   -0.0928 N   0  0  0  0  0  0  0  0  0  0  0  0
   -3.2459   -0.5102   -0.5318 N   0  0  0  0  0  0  0  0  0  0  0  0
   -3.2688   -1.8670    0.0443 N   0  0  0  0  0  0  0  0  0  0  0  0
    0.7325    0.9993    0.1364 C   0  0  0  0  0  0  0  0  0  0  0  0
    1.8612   -0.0342    0.1423 C   0  0  0  0  0  0  0  0  0  0  0  0
   -0.6374    0.3248    0.2489 C   0  0  0  0  0  0  0  0  0  0  0  0
    3.2580    0.5898    0.0627 C   0  0  0  0  0  0  0  0  0  0  0  0
   -1.7649    1.3549    0.2069 C   0  0  0  0  0  0  0  0  0  0  0  0
    4.3789   -0.4467   -0.0094 C   0  0  0  0  0  0  0  0  0  0  0  0
   -4.1355    1.6903    0.3286 C   0  0  0  0  0  0  0  0  0  0  0  0
    6.7515   -0.7545   -0.2009 C   0  0  0  0  0  0  0  0  0  0  0  0
  1  5  1  0
  2  6  2  0
  3  5  1  0
  3 11  1  0
  3 13  1  0
  4 12  1  0
  4 14  1  0
  5  6  1  0
  7  8  1  0
  7  9  1  0
  8 10  1  0
  9 11  1  0
 10 12  1  0
M  CHG  1   1  -1
M  END
>  <PUBCHEM_COMPOUND_CID>  (1) 
4525

>  <PUBCHEM_CONFORMER_RMSD>  (1) 
1

>  <PUBCHEM_CONFORMER_DIVERSEORDER>  (1) 
1
125
17
139
167
86
117
106
12
191
96
158
5
148
111
104
8
97
182
45
185
22
3
84
7
47
171
33
108
133
173
181
154
2
60
121
137
157
184
63
21
23
85
98
64
149
175
153
112
95
44
50
170
94
20
163
152
62
188
110
4
156
74
79
100
81
168
162
42
166
144
88
14
9
172
161
135
69
183
82
71
107
151
126
25
55
11
169
38
24
160
83
180
141
124
35
48
127
134
87
66
80
26
92
30
52
146
132
101
32
10
114
91
29
178
46
43
136
142
123
65
105
147
113
67
31
70
40
140
119
6
130
15
164
61
51
28
179
36
176
73
56
68
103
143
128
115
59
76
150
116
187
129
122
145
190
39
53
58
93
75
165
120
16
37
131
19
159
34
174
138
72
77
57
89
155
78
13
177
109
18
99
41
49
189
54
90
27
186
102
118

>  <PUBCHEM_MMFF94_PARTIAL_CHARGES>  (1) 
11
1 -0.86
11 0.27
12 0.27
13 0.27
14 0.27
2 -0.16
27 0.36
3 -0.69
4 -0.9
5 0.34
6 -0.17

>  <PUBCHEM_EFFECTIVE_ROTOR_COUNT>  (1) 
9

>  <PUBCHEM_PHARMACOPHORE_FEATURES>  (1) 
3
1 4 cation
1 4 donor
4 7 8 9 10 hydrophobe

>  <PUBCHEM_HEAVY_ATOM_COUNT>  (1) 
14

>  <PUBCHEM_ATOM_DEF_STEREO_COUNT>  (1) 
0

>  <PUBCHEM_ATOM_UDEF_STEREO_COUNT>  (1) 
0

>  <PUBCHEM_BOND_DEF_STEREO_COUNT>  (1) 
0

>  <PUBCHEM_BOND_UDEF_STEREO_COUNT>  (1) 
0

>  <PUBCHEM_ISOTOPIC_ATOM_COUNT>  (1) 
0

>  <PUBCHEM_COMPONENT_COUNT>  (1) 
1

>  <PUBCHEM_CACTVS_TAUTO_COUNT>  (1) 
1

>  <PUBCHEM_CONFORMER_ID>  (1) 
000011AD00000001

>  <PUBCHEM_MMFF94_ENERGY>  (1) 
11.1527

>  <PUBCHEM_FEATURE_SELFOVERLAP>  (1) 
15.223

>  <PUBCHEM_SHAPE_FINGERPRINT>  (1) 
10680689 15 17847061086198480616
11315181 36 17632294570824678384
12091667 2 18060700585575369180
12757275 245 18408606989046233835
13288520 33 18342458149184570301
14251740 79 16661214783149576851
17834072 33 18261118500029636140
17834076 25 17676492718116557216
17844677 252 17346600781526804144
18186145 218 17749103426384982728
20279233 1 16845858979332376373
20645477 70 16701181855126150780
20681677 155 18337391543658629217
20828058 44 18343303656530908920
220451 1 17822014181996641122
22485316 2 18411700950727251896
2306618 200 16200434672039216993
23402539 116 18408885118676034884
23402655 69 16877933902646893628
23557571 272 18271528577005342860
23559900 14 18411974789284194368
300161 21 18337383851593643856
42788 4 18341896260478662672
49783359 22 17560797732565466094
57483677 66 18130506345577134190
7062679 117 18335143107268261098

>  <PUBCHEM_SHAPE_MULTIPOLES>  (1) 
256.45
13.61
1.59
0.93
21.4
0.43
0.29
2.5
1.04
-2.4
-0.33
-1.13
0.31
0.07

>  <PUBCHEM_SHAPE_SELFOVERLAP>  (1) 
455.673

>  <PUBCHEM_SHAPE_VOLUME>  (1) 
167.4

>  <PUBCHEM_COORDINATE_TYPE>  (1) 
2
5
10

$$$$
