45256
     RDKit          3D

 21 22  0  0  1  0  0  0  0  0999 V2000
    1.6264   -1.1039    0.4032 O   0  0  0  0  0  0  0  0  0  0  0  0
    3.3432   -2.4661   -0.3010 O   0  0  0  0  0  0  0  0  0  0  0  0
   -2.5136   -0.2890    0.5362 N   0  0  0  0  0  0  0  0  0  0  0  0
   -3.0433    0.8352   -0.2609 C   0  0  0  0  0  0  0  0  0  0  0  0
   -3.6336    0.3995   -1.6146 C   0  0  0  0  0  0  0  0  0  0  0  0
   -4.0618    1.6339    0.5650 C   0  0  0  0  0  0  0  0  0  0  0  0
   -3.4667   -1.4021    0.6572 C   0  0  0  0  0  0  0  0  0  0  0  0
   -4.6331   -0.7453   -1.4809 C   0  0  0  0  0  0  0  0  0  0  0  0
   -4.0348   -1.8921   -0.6758 C   0  0  0  0  0  0  0  0  0  0  0  0
   -1.2153   -0.7447    0.0379 C   0  0  0  0  0  0  0  0  0  0  0  0
   -3.4627    2.0211    1.9118 C   0  0  0  0  0  0  0  0  0  0  0  0
   -4.5138    2.8694   -0.2046 C   0  0  0  0  0  0  0  0  0  0  0  0
   -0.5998   -1.7499    1.0061 C   0  0  0  0  0  0  0  0  0  0  0  0
    0.7638   -2.2265    0.5246 C   0  0  0  0  0  0  0  0  0  0  0  0
    2.8939   -1.3657   -0.0210 C   0  0  0  0  0  0  0  0  0  0  0  0
    3.6906   -0.1155   -0.1041 C   0  0  0  0  0  0  0  0  0  0  0  0
    5.0529   -0.1773    0.1063 C   0  0  0  0  0  0  0  0  0  0  0  0
    3.0438    1.0695   -0.3889 C   0  0  0  0  0  0  0  0  0  0  0  0
    5.8012    0.9973    0.0284 C   0  0  0  0  0  0  0  0  0  0  0  0
    3.7920    2.2442   -0.4669 C   0  0  0  0  0  0  0  0  0  0  0  0
    5.1707    2.2079   -0.2581 C   0  0  0  0  0  0  0  0  0  0  0  0
  1 14  1  0
  1 15  1  0
  2 15  2  0
  3  4  1  0
  3  7  1  0
  3 10  1  0
  4  5  1  0
  4  6  1  0
  5  8  1  0
  6 11  1  0
  6 12  1  0
  7  9  1  0
  8  9  1  0
 10 13  1  0
 13 14  1  0
 15 16  1  0
 16 17  2  0
 16 18  1  0
 17 19  1  0
 18 20  2  0
 19 21  2  0
 20 21  1  0
M  END
>  <PUBCHEM_COMPOUND_CID>  (1) 
45256

>  <PUBCHEM_CONFORMER_RMSD>  (1) 
0.8

>  <PUBCHEM_CONFORMER_DIVERSEORDER>  (1) 
1
288
214
275
18
107
156
304
277
96
137
179
173
65
192
58
272
237
41
308
63
300
162
82
257
207
44
247
147
152
301
75
271
146
273
289
160
11
296
171
51
151
169
209
254
284
72
135
154
115
86
208
309
278
240
290
3
53
161
100
283
264
62
180
42
281
203
215
6
31
249
286
217
183
210
16
172
120
71
124
299
195
59
219
250
294
27
61
131
142
8
184
303
67
157
138
141
117
234
158
10
206
261
103
68
143
190
118
144
77
222
167
122
266
46
13
185
274
76
224
188
164
112
170
297
298
306
54
295
241
64
97
221
9
57
262
205
252
84
108
220
50
139
186
98
19
163
253
126
48
216
30
255
236
199
155
242
245
263
128
83
43
21
187
25
133
114
116
232
140
121
129
159
90
45
293
70
259
91
191
35
14
176
26
258
69
316
212
182
101
79
60
233
49
7
105
111
15
204
56
269
81
34
311
305
315
109
177
267
38
74
256
223
312
132
153
55
24
150
136
213
226
29
196
106
102
52
28
145
123
119
189
78
178
174
12
148
279
193
93
168
291
248
225
313
87
2
265
282
80
47
92
23
73
292
244
314
310
285
165
228
85
229
166
37
20
246
239
4
197
104
113
99
268
134
88
231
39
251
201
22
130
218
270
260
5
238
36
32
307
17
66
181
40
33
198
127
175
287
243
280
200
194
125
202
94
95
302
276
230
110
211
227
235
149
89

>  <PUBCHEM_MMFF94_PARTIAL_CHARGES>  (1) 
19
1 -0.43
10 0.27
14 0.28
15 0.63
16 0.09
17 -0.15
18 -0.15
19 -0.15
2 -0.57
20 -0.15
21 -0.15
3 -0.81
4 0.27
44 0.15
45 0.15
46 0.15
47 0.15
48 0.15
7 0.27

>  <PUBCHEM_EFFECTIVE_ROTOR_COUNT>  (1) 
8.2

>  <PUBCHEM_PHARMACOPHORE_FEATURES>  (1) 
5
1 2 acceptor
1 3 cation
3 6 11 12 hydrophobe
6 16 17 18 19 20 21 rings
6 3 4 5 7 8 9 rings

>  <PUBCHEM_HEAVY_ATOM_COUNT>  (1) 
21

>  <PUBCHEM_ATOM_DEF_STEREO_COUNT>  (1) 
0

>  <PUBCHEM_ATOM_UDEF_STEREO_COUNT>  (1) 
1

>  <PUBCHEM_BOND_DEF_STEREO_COUNT>  (1) 
0

>  <PUBCHEM_BOND_UDEF_STEREO_COUNT>  (1) 
0

>  <PUBCHEM_ISOTOPIC_ATOM_COUNT>  (1) 
0

>  <PUBCHEM_COMPONENT_COUNT>  (1) 
1

>  <PUBCHEM_CACTVS_TAUTO_COUNT>  (1) 
1

>  <PUBCHEM_CONFORMER_ID>  (1) 
0000B0C800000001

>  <PUBCHEM_MMFF94_ENERGY>  (1) 
43.2422

>  <PUBCHEM_FEATURE_SELFOVERLAP>  (1) 
25.371

>  <PUBCHEM_SHAPE_FINGERPRINT>  (1) 
10595046 47 18341326768651837175
11036077 4 11097848571982722277
12107183 9 17908424654040424962
13402501 40 18113891706441595940
14251764 38 18335424611903860004
14848178 96 18408321077632108888
15183329 4 18333730209346909058
15196674 1 18408887339084222232
16994733 274 16299487411739257431
17844677 252 18341339915657623350
1813 80 13973967631411008274
20554085 129 14851870423804773077
21033648 144 18187078429959160487
21095088 737 18339922718331135089
21623110 236 18260832635179773669
21709351 56 18341613655561842406
21864079 5 18262519178462952737
22907989 373 18059842953742303703
22950370 63 9799697017158641858
23227448 37 18338237064232591805
23402655 69 18341894087035235382
245318 6 17171818169568742148
2838139 119 18340767135093370828
312425 83 17988651731083875750
3472631 163 18268991990900176325
351380 3 11023834980665194404
474 4 18335985281023678450
5104073 3 18040999514116025578
6328613 192 17896326977789777436
633830 44 18338235951319532615

>  <PUBCHEM_SHAPE_MULTIPOLES>  (1) 
415.45
13.97
3.06
1.19
9.36
0.67
0.05
6.61
-2.12
-0.7
0.34
-1.77
0.21
-1.21

>  <PUBCHEM_SHAPE_SELFOVERLAP>  (1) 
847.626

>  <PUBCHEM_SHAPE_VOLUME>  (1) 
240.4

>  <PUBCHEM_COORDINATE_TYPE>  (1) 
2
5
10

$$$$
