45261
     RDKit          3D

 17 16  0  0  1  0  0  0  0  0999 V2000
    1.9211    0.1093    0.1740 O   0  0  0  0  0  0  0  0  0  0  0  0
   -2.8676    0.1659    0.2743 O   0  0  0  0  0  0  0  0  0  0  0  0
    0.8199   -0.8500   -1.5990 O   0  0  0  0  0  0  0  0  0  0  0  0
   -1.8504   -0.8129   -1.5356 O   0  0  0  0  0  0  0  0  0  0  0  0
   -0.4681    0.2016    0.2028 C   0  0  0  0  0  0  0  0  0  0  0  0
   -0.4218   -0.4559    1.6149 C   0  0  0  0  0  0  0  0  0  0  0  0
   -0.5105    1.7463    0.3890 C   0  0  0  0  0  0  0  0  0  0  0  0
    0.8072   -0.2326   -0.5409 C   0  0  0  0  0  0  0  0  0  0  0  0
   -1.7886   -0.1955   -0.4776 C   0  0  0  0  0  0  0  0  0  0  0  0
    3.1712   -0.3021   -0.3880 C   0  0  0  0  0  0  0  0  0  0  0  0
   -0.5315   -1.9791    1.6141 C   0  0  0  0  0  0  0  0  0  0  0  0
   -0.6965    2.5449   -0.8984 C   0  0  0  0  0  0  0  0  0  0  0  0
    4.3084    0.1670    0.5219 C   0  0  0  0  0  0  0  0  0  0  0  0
    3.1704   -1.8180   -0.5326 C   0  0  0  0  0  0  0  0  0  0  0  0
    4.3072    1.6777    0.7148 C   0  0  0  0  0  0  0  0  0  0  0  0
   -4.1454   -0.2211   -0.2413 C   0  0  0  0  0  0  0  0  0  0  0  0
   -5.2247    0.2545    0.7077 C   0  0  0  0  0  0  0  0  0  0  0  0
  1  8  1  0
  1 10  1  0
  2  9  1  0
  2 16  1  0
  3  8  2  0
  4  9  2  0
  5  6  1  0
  5  7  1  0
  5  8  1  0
  5  9  1  0
  6 11  1  0
  7 12  1  0
 10 13  1  0
 10 14  1  0
 13 15  1  0
 16 17  1  0
M  END
>  <PUBCHEM_COMPOUND_CID>  (1) 
45261

>  <PUBCHEM_CONFORMER_RMSD>  (1) 
1

>  <PUBCHEM_CONFORMER_DIVERSEORDER>  (1) 
1
153
182
404
313
39
46
336
251
116
637
37
206
187
253
56
172
455
414
165
460
269
5
126
163
164
260
152
175
50
352
585
242
4
342
124
349
257
141
67
104
428
40
32
330
622
341
323
102
11
610
556
475
63
3
420
394
74
34
80
373
2
390
381
69
235
100
331
345
38
9
209
155
65
51
183
268
291
81
29
118
356
7
10
620
372
191
49
112
429
33
85
177
148
8
208
24
631
53
335
6
14
31
28
25

>  <PUBCHEM_MMFF94_PARTIAL_CHARGES>  (1) 
9
1 -0.43
10 0.28
16 0.28
2 -0.43
3 -0.57
4 -0.57
5 0.12
8 0.66
9 0.66

>  <PUBCHEM_EFFECTIVE_ROTOR_COUNT>  (1) 
9

>  <PUBCHEM_PHARMACOPHORE_FEATURES>  (1) 
5
1 11 hydrophobe
1 12 hydrophobe
1 15 hydrophobe
1 3 acceptor
1 4 acceptor

>  <PUBCHEM_HEAVY_ATOM_COUNT>  (1) 
17

>  <PUBCHEM_ATOM_DEF_STEREO_COUNT>  (1) 
0

>  <PUBCHEM_ATOM_UDEF_STEREO_COUNT>  (1) 
1

>  <PUBCHEM_BOND_DEF_STEREO_COUNT>  (1) 
0

>  <PUBCHEM_BOND_UDEF_STEREO_COUNT>  (1) 
0

>  <PUBCHEM_ISOTOPIC_ATOM_COUNT>  (1) 
0

>  <PUBCHEM_COMPONENT_COUNT>  (1) 
1

>  <PUBCHEM_CACTVS_TAUTO_COUNT>  (1) 
1

>  <PUBCHEM_CONFORMER_ID>  (1) 
0000B0CD00000001

>  <PUBCHEM_MMFF94_ENERGY>  (1) 
25.169

>  <PUBCHEM_FEATURE_SELFOVERLAP>  (1) 
25.381

>  <PUBCHEM_SHAPE_FINGERPRINT>  (1) 
10366900 7 18409740551876125058
12403814 3 18201710739423140261
13533116 47 18114736050226324354
13675066 3 18333454231363847885
13690532 89 12468352453288536525
13760787 19 17418089948915838094
14115302 16 17531543056111768943
14993402 34 11599999951466328657
15048467 5 17275105033271445561
15775835 57 17846778537980859028
16945 1 18271789220925716620
17862501 102 12973596742492284761
18186145 218 18040433256910918782
187816 3 18041001730271371395
18785283 64 17753060676260862693
200 152 17561081393569779874
21524375 3 17471865705611107188
23402539 116 18335413582401216623
23419403 2 16814308746555399910
23557571 272 18339089180895438652
23559900 14 18187092767229731710
296302 2 17703794729868362039
3250762 1 17465679174666852561
5374978 207 18408318878698400848
537710 114 16415480449901629194
57426455 19 18040716969702799185
69090 78 17530962518378267858
81228 2 18188787041117095992

>  <PUBCHEM_SHAPE_MULTIPOLES>  (1) 
326.37
8.06
1.93
1.35
1.54
0.66
0
0.67
-1.29
-0.71
-0.13
0.09
-0.41
0.72

>  <PUBCHEM_SHAPE_SELFOVERLAP>  (1) 
625.712

>  <PUBCHEM_SHAPE_VOLUME>  (1) 
200.7

>  <PUBCHEM_COORDINATE_TYPE>  (1) 
2
5
10

$$$$
