45276
     RDKit          3D

 16 16  0  0  0  0  0  0  0  0999 V2000
    1.5257    0.3143   -1.4708 O   0  0  0  0  0  0  0  0  0  0  0  0
    0.5414    0.3254    0.6607 N   0  0  0  0  0  0  0  0  0  0  0  0
    3.9943   -0.0010   -0.2794 N   0  0  0  0  0  0  0  0  0  0  0  0
   -0.8322    0.1361    0.3776 C   0  0  0  0  0  0  0  0  0  0  0  0
   -1.3427   -1.1519    0.3143 C   0  0  0  0  0  0  0  0  0  0  0  0
   -1.6445    1.2409    0.1697 C   0  0  0  0  0  0  0  0  0  0  0  0
   -3.5250   -0.2369   -0.1739 C   0  0  0  0  0  0  0  0  0  0  0  0
   -2.6970   -1.3395    0.0369 C   0  0  0  0  0  0  0  0  0  0  0  0
   -2.9985    1.0533   -0.1078 C   0  0  0  0  0  0  0  0  0  0  0  0
    2.9078    0.6113    0.4844 C   0  0  0  0  0  0  0  0  0  0  0  0
    1.5942    0.4021   -0.2490 C   0  0  0  0  0  0  0  0  0  0  0  0
   -0.4827   -2.3535    0.5385 C   0  0  0  0  0  0  0  0  0  0  0  0
   -1.1086    2.6347    0.2328 C   0  0  0  0  0  0  0  0  0  0  0  0
   -4.9725   -0.4375   -0.4721 C   0  0  0  0  0  0  0  0  0  0  0  0
    3.7614   -1.4359   -0.4390 C   0  0  0  0  0  0  0  0  0  0  0  0
    5.2789    0.2384    0.3772 C   0  0  0  0  0  0  0  0  0  0  0  0
  1 11  2  0
  2  4  1  0
  2 11  1  0
  3 10  1  0
  3 15  1  0
  3 16  1  0
  4  5  2  0
  4  6  1  0
  5  8  1  0
  5 12  1  0
  6  9  2  0
  6 13  1  0
  7  8  2  0
  7  9  1  0
  7 14  1  0
 10 11  1  0
M  END
>  <PUBCHEM_COMPOUND_CID>  (1) 
45276

>  <PUBCHEM_CONFORMER_RMSD>  (1) 
0.6

>  <PUBCHEM_CONFORMER_DIVERSEORDER>  (1) 
1
4
2
5
3

>  <PUBCHEM_MMFF94_PARTIAL_CHARGES>  (1) 
19
1 -0.57
10 0.33
11 0.57
12 0.14
13 0.14
14 0.14
15 0.27
16 0.27
17 0.15
18 0.15
19 0.37
2 -0.55
3 -0.81
4 0.12
5 -0.14
6 -0.14
7 -0.14
8 -0.15
9 -0.15

>  <PUBCHEM_EFFECTIVE_ROTOR_COUNT>  (1) 
4

>  <PUBCHEM_PHARMACOPHORE_FEATURES>  (1) 
4
1 1 acceptor
1 2 donor
1 3 cation
6 4 5 6 7 8 9 rings

>  <PUBCHEM_HEAVY_ATOM_COUNT>  (1) 
16

>  <PUBCHEM_ATOM_DEF_STEREO_COUNT>  (1) 
0

>  <PUBCHEM_ATOM_UDEF_STEREO_COUNT>  (1) 
0

>  <PUBCHEM_BOND_DEF_STEREO_COUNT>  (1) 
0

>  <PUBCHEM_BOND_UDEF_STEREO_COUNT>  (1) 
0

>  <PUBCHEM_ISOTOPIC_ATOM_COUNT>  (1) 
0

>  <PUBCHEM_COMPONENT_COUNT>  (1) 
1

>  <PUBCHEM_CACTVS_TAUTO_COUNT>  (1) 
2

>  <PUBCHEM_CONFORMER_ID>  (1) 
0000B0DC00000001

>  <PUBCHEM_MMFF94_ENERGY>  (1) 
66.0467

>  <PUBCHEM_FEATURE_SELFOVERLAP>  (1) 
20.297

>  <PUBCHEM_SHAPE_FINGERPRINT>  (1) 
10366900 7 18202568406143491288
11315181 36 18113902680568210016
11680986 33 18050564346587185105
12032990 46 18338801216739822315
12236239 1 17603299358357360880
13288520 33 18412545409515916828
13690532 89 18333731316556953819
13862211 1 18410005572643649387
14115302 16 18114467863107858519
14614273 12 18187925007142635213
14911166 2 18337101354825900607
14993402 34 17748543744779919133
15048467 5 12035447224747213734
15196674 1 18339079285301220810
15207287 21 17989210364547847398
15375358 24 18341896316239332458
15536298 74 18340205177040433882
16945 1 18409724097919633169
18186145 218 17095796736942667829
187816 3 18408882953853956787
19141452 34 17846499279344813247
200 152 17060337422474883587
20279233 1 18271813436484282682
20344682 1 17775566455025334373
20510252 161 18342458097444795456
20645476 183 17458339780001599795
20645477 70 17632302225231769214
21029758 11 18343016722651070513
21267235 1 18409175423577933491
21637258 2 16056582288891316183
23402539 116 18341887494012425445
23557571 272 18202287982764322605
23559900 14 18339920536841481856
2748010 2 17903347458063692659
2838139 119 15936949874507087551
3286 77 16988556939816714185
351380 180 18343861121689585548
4214541 1 18339643339630897464
43471831 8 18261671454861242203
5104073 3 18342458084839222050
69090 78 18272649060467457478
81228 2 18198646387563477217
9709674 26 18341901775037478694

>  <PUBCHEM_SHAPE_MULTIPOLES>  (1) 
313.44
8.93
2
0.83
6.19
0.15
-0.12
-1.01
-0.9
-0.84
0.27
0.21
-0.02
0.17

>  <PUBCHEM_SHAPE_SELFOVERLAP>  (1) 
636.884

>  <PUBCHEM_SHAPE_VOLUME>  (1) 
186.1

>  <PUBCHEM_COORDINATE_TYPE>  (1) 
2
5
10

$$$$
