45282
     RDKit          3D

 13 14  0  0  1  0  0  0  0  0999 V2000
    0.7333    0.1417   -0.8013 O   0  0  0  0  0  0  0  0  0  0  0  0
    1.1384   -1.4581    0.8651 O   0  0  0  0  0  0  0  0  0  0  0  0
    2.7283    0.9054    0.1919 O   0  0  0  0  0  0  0  0  0  0  0  0
    0.1334   -0.6391    0.2471 C   0  0  0  0  0  0  0  0  0  0  0  0
   -0.9466   -1.5386   -0.3627 C   0  0  0  0  0  0  0  0  0  0  0  0
   -0.4628    0.2907    1.3072 C   0  0  0  0  0  0  0  0  0  0  0  0
   -2.7223    0.1888    0.1683 C   0  0  0  0  0  0  0  0  0  0  0  0
   -2.1294   -0.7359   -0.9035 C   0  0  0  0  0  0  0  0  0  0  0  0
   -1.6421    1.0990    0.7681 C   0  0  0  0  0  0  0  0  0  0  0  0
    2.1391   -0.0598   -0.6702 C   0  0  0  0  0  0  0  0  0  0  0  0
    2.2445   -1.4253   -0.0395 C   0  0  0  0  0  0  0  0  0  0  0  0
   -3.8669    1.0191   -0.4095 C   0  0  0  0  0  0  0  0  0  0  0  0
    2.6531    2.2121   -0.3610 C   0  0  0  0  0  0  0  0  0  0  0  0
  1  4  1  0
  1 10  1  0
  2  4  1  0
  2 11  1  0
  3 10  1  0
  3 13  1  0
  4  5  1  0
  4  6  1  0
  5  8  1  0
  6  9  1  0
  7  8  1  0
  7  9  1  0
  7 12  1  0
 10 11  1  0
M  END
>  <PUBCHEM_COMPOUND_CID>  (1) 
45282

>  <PUBCHEM_CONFORMER_RMSD>  (1) 
0.6

>  <PUBCHEM_CONFORMER_DIVERSEORDER>  (1) 
1
6
2
4
5
9
3
8
7

>  <PUBCHEM_MMFF94_PARTIAL_CHARGES>  (1) 
7
1 -0.56
10 0.56
11 0.28
13 0.28
2 -0.56
3 -0.56
4 0.56

>  <PUBCHEM_EFFECTIVE_ROTOR_COUNT>  (1) 
2.8

>  <PUBCHEM_PHARMACOPHORE_FEATURES>  (1) 
5
1 1 acceptor
1 2 acceptor
1 3 acceptor
5 1 2 4 10 11 rings
6 4 5 6 7 8 9 rings

>  <PUBCHEM_HEAVY_ATOM_COUNT>  (1) 
13

>  <PUBCHEM_ATOM_DEF_STEREO_COUNT>  (1) 
0

>  <PUBCHEM_ATOM_UDEF_STEREO_COUNT>  (1) 
1

>  <PUBCHEM_BOND_DEF_STEREO_COUNT>  (1) 
0

>  <PUBCHEM_BOND_UDEF_STEREO_COUNT>  (1) 
0

>  <PUBCHEM_ISOTOPIC_ATOM_COUNT>  (1) 
0

>  <PUBCHEM_COMPONENT_COUNT>  (1) 
1

>  <PUBCHEM_CACTVS_TAUTO_COUNT>  (1) 
1

>  <PUBCHEM_CONFORMER_ID>  (1) 
0000B0E200000001

>  <PUBCHEM_MMFF94_ENERGY>  (1) 
26.1786

>  <PUBCHEM_FEATURE_SELFOVERLAP>  (1) 
25.464

>  <PUBCHEM_SHAPE_FINGERPRINT>  (1) 
10857977 72 14996293504657734471
12491281 212 18336270131871148220
12897270 3 17417819486293205412
12932764 1 17676486099471629739
13571099 52 17530679922567839565
14897335 6 18413103987340323804
14993402 34 18268155244991891158
15775835 57 18408890637165658973
16945 1 18267874895122402155
18186145 218 18342464703331031373
18619055 16 18273210876797055589
20645476 183 18343298150372578703
20653085 51 18335994137219764949
20820808 20 18410853278443148225
230 275 18411703196831682416
23402539 116 17345462696148538509
23419403 2 15654375686731949747
23552423 10 18343582906387850463
23557571 272 17202471367949375794
23559900 14 17704066275445563570
305870 269 18186795907199982506
353137 74 18272938236473510865
369184 2 18334581252067361099
5084963 1 17630892594693709051
528886 8 18334290955196208419
63268167 104 18335708208546682000
7364860 26 18272651204130826806
9939556 21 18343017774606568319

>  <PUBCHEM_SHAPE_MULTIPOLES>  (1) 
249.93
5.03
1.81
1.01
1.77
0.34
-0.13
2.09
0.98
-1.03
0.09
0.14
0.01
-0.42

>  <PUBCHEM_SHAPE_SELFOVERLAP>  (1) 
506.686

>  <PUBCHEM_SHAPE_VOLUME>  (1) 
145.5

>  <PUBCHEM_COORDINATE_TYPE>  (1) 
2
5
10

$$$$
