45285
     RDKit          3D

 20 20  0  0  1  0  0  0  0  0999 V2000
    2.3200   -0.6615   -0.3771 O   0  0  0  0  0  0  0  0  0  0  0  0
    2.7372   -2.8333    0.4164 O   0  0  0  0  0  0  0  0  0  0  0  0
    4.1739    1.5254   -0.4016 O   0  0  0  0  0  0  0  0  0  0  0  0
    4.9691    3.0761    1.1026 O   0  0  0  0  0  0  0  0  0  0  0  0
    4.5451    3.6457   -1.0843 N   0  0  0  0  0  0  0  0  0  0  0  0
    1.8047   -2.0003   -0.2922 C   0  0  0  0  0  0  0  0  0  0  0  0
    0.4841   -1.9647    0.4667 C   0  0  0  0  0  0  0  0  0  0  0  0
   -0.5592   -1.1230   -0.2696 C   0  0  0  0  0  0  0  0  0  0  0  0
    3.6885   -0.7748    0.0233 C   0  0  0  0  0  0  0  0  0  0  0  0
   -1.9033   -1.0456    0.4616 C   0  0  0  0  0  0  0  0  0  0  0  0
    3.6613   -1.9187    1.0078 C   0  0  0  0  0  0  0  0  0  0  0  0
   -2.9688   -0.2653   -0.3130 C   0  0  0  0  0  0  0  0  0  0  0  0
    1.6213   -2.5601   -1.6970 C   0  0  0  0  0  0  0  0  0  0  0  0
   -4.3299   -0.2385    0.3901 C   0  0  0  0  0  0  0  0  0  0  0  0
    4.1806    0.5304    0.6111 C   0  0  0  0  0  0  0  0  0  0  0  0
   -5.3898    0.5623   -0.3696 C   0  0  0  0  0  0  0  0  0  0  0  0
   -6.7236    0.5675    0.3809 C   0  0  0  0  0  0  0  0  0  0  0  0
   -7.7946    1.3346   -0.3941 C   0  0  0  0  0  0  0  0  0  0  0  0
   -9.1122    1.3706    0.3638 C   0  0  0  0  0  0  0  0  0  0  0  0
    4.5957    2.7731   -0.0257 C   0  0  0  0  0  0  0  0  0  0  0  0
  1  6  1  0
  1  9  1  0
  2  6  1  0
  2 11  1  0
  3 15  1  0
  3 20  1  0
  4 20  2  0
  5 20  1  0
  6  7  1  0
  6 13  1  0
  7  8  1  0
  8 10  1  0
  9 11  1  0
  9 15  1  0
 10 12  1  0
 12 14  1  0
 14 16  1  0
 16 17  1  0
 17 18  1  0
 18 19  1  0
M  END
>  <PUBCHEM_COMPOUND_CID>  (1) 
45285

>  <PUBCHEM_CONFORMER_RMSD>  (1) 
1.2

>  <PUBCHEM_CONFORMER_DIVERSEORDER>  (1) 
1
79
22
188
83
286
126
240
75
222
265
6
143
111
89
278
43
66
204
283
44
182
151
52
249
288
7
71
194
243
174
183
2
245
219
53
15
290
214
125
33
253
242
54
77
233
3
251
271
104
261
28
48
76
218
201
184
29
192
81
130
250
62
270
154
21
268
41
181
153
86
163
255
8
67
131
244
217
246
264
164
236
78
116
25
11
150
287
258
16
190
171
272
189
118
128
167
39
263
57
224
30
256
72
273
13
223
168
45
36
110
4
114
103
80
24
14
199
123
37
198
40
284
212
196
137
166
291
211
47
161
64
197
70
65
169
147
162
61
191
23
59
157
277
232
234
94
56
121
97
32
289
117
281
93
279
124
113
141
120
20
228
17
109
115
107
247
18
292
112
63
231
193
35
275
73
100
269
260
187
68
158
227
216
180
178
207
203
172
241
267
46
95
165
134
239
215
26
220
12
27
5
85
229
285
257
195
274
156
50
237
74
145
10
186
119
238
51
175
82
179
9
248
108
149
49
96
266
90
202
206
160
102
122
99
101
132
225
42
146
173
140
91
87
155
19
60
34
210
31
205
185
177
213
55
84
176
230
259
276
38
208
235
136
262
200
209
280
221
159
135
129
105
88
69
252
127
92
106
142
58
282
98
144
148
226
254
139
152
138
170
133

>  <PUBCHEM_MMFF94_PARTIAL_CHARGES>  (1) 
12
1 -0.56
11 0.28
15 0.28
2 -0.56
20 0.78
3 -0.43
4 -0.57
48 0.37
49 0.37
5 -0.8
6 0.56
9 0.28

>  <PUBCHEM_EFFECTIVE_ROTOR_COUNT>  (1) 
12

>  <PUBCHEM_PHARMACOPHORE_FEATURES>  (1) 
6
1 1 acceptor
1 19 hydrophobe
1 2 acceptor
1 4 acceptor
1 5 donor
5 1 2 6 9 11 rings

>  <PUBCHEM_HEAVY_ATOM_COUNT>  (1) 
20

>  <PUBCHEM_ATOM_DEF_STEREO_COUNT>  (1) 
0

>  <PUBCHEM_ATOM_UDEF_STEREO_COUNT>  (1) 
2

>  <PUBCHEM_BOND_DEF_STEREO_COUNT>  (1) 
0

>  <PUBCHEM_BOND_UDEF_STEREO_COUNT>  (1) 
0

>  <PUBCHEM_ISOTOPIC_ATOM_COUNT>  (1) 
0

>  <PUBCHEM_COMPONENT_COUNT>  (1) 
1

>  <PUBCHEM_CACTVS_TAUTO_COUNT>  (1) 
2

>  <PUBCHEM_CONFORMER_ID>  (1) 
0000B0E500000001

>  <PUBCHEM_MMFF94_ENERGY>  (1) 
25.7129

>  <PUBCHEM_FEATURE_SELFOVERLAP>  (1) 
30.487

>  <PUBCHEM_SHAPE_FINGERPRINT>  (1) 
10411042 1 17906170651595241138
10673678 19 18343024427795603449
125118 31 18338235947952902225
12821665 9 18268986652730717519
13533116 47 17387128681105269475
13878862 14 18263906813444789717
13955234 65 18042117657565756339
14142895 15 18411980304702151613
14251732 16 18408887365371354595
14251764 75 18264771145881167404
14344974 204 9940766494045655236
14429380 56 18337379479828555453
14565420 104 18114178631890171419
14598715 104 17313654955504873733
14774955 27 18412823616033207719
15342168 16 18340204188965574654
15475509 35 16153974739456755482
155225 6 18117003388441142708
17810953 82 18335422408812574940
18335252 114 18272653433297767052
19427546 62 18411138034875911527
20157964 124 18411419475792921099
20281389 69 18187365369088721933
21304303 94 11599998860555250500
21315764 268 18116146684726063981
21344244 181 11527942375062516645
21641784 216 16415487013181175771
22849339 104 15338826630091526061
270888 7 18267865158853736648
328310 630 18201723938723025161
33532 11 9079106762286659897
345986 75 12324229568874204838
3472631 163 18343303678000639991
34797466 226 18201723899872919831
397830 11 18187940508143733059
444735 82 18335986390043827197
44555599 121 18201162028014741177
445580 126 18342448257964734416
445580 167 18341322367554830247
465052 167 7925915884839124963
5104073 3 18040994076777443883
5312510 48 18342174500997125913
59682541 52 16773811281025582532
6327066 14 18270400637025671972

>  <PUBCHEM_SHAPE_MULTIPOLES>  (1) 
383.13
20.74
3.69
1.01
54.33
2.65
0.18
18.45
-1.72
-8.95
0.5
-0.79
-0.18
-0.2

>  <PUBCHEM_SHAPE_SELFOVERLAP>  (1) 
737.923

>  <PUBCHEM_SHAPE_VOLUME>  (1) 
234.2

>  <PUBCHEM_COORDINATE_TYPE>  (1) 
2
5
10

$$$$
