45292
     RDKit          3D

 27 29  0  0  1  0  0  0  0  0999 V2000
   -1.6672   -0.8903   -2.3276 O   0  0  0  0  0  0  0  0  0  0  0  0
   -1.3010    1.3818   -2.4471 O   0  0  0  0  0  0  0  0  0  0  0  0
    2.5003    0.2378   -0.0373 N   0  0  0  0  0  0  0  0  0  0  0  0
   -1.2937    0.2957   -0.2397 C   0  0  0  0  0  0  0  0  0  0  0  0
    0.1107    0.7047    0.1943 C   0  0  0  0  0  0  0  0  0  0  0  0
    1.1698   -0.1590   -0.4822 C   0  0  0  0  0  0  0  0  0  0  0  0
   -1.5555   -1.1556   -0.0218 C   0  0  0  0  0  0  0  0  0  0  0  0
   -2.3269    1.1696    0.3946 C   0  0  0  0  0  0  0  0  0  0  0  0
   -1.4141    0.3650   -1.7749 C   0  0  0  0  0  0  0  0  0  0  0  0
    3.4544   -0.8565   -0.2255 C   0  0  0  0  0  0  0  0  0  0  0  0
    2.9494    1.4319   -0.7555 C   0  0  0  0  0  0  0  0  0  0  0  0
   -1.7550   -1.7565   -1.2523 C   0  0  0  0  0  0  0  0  0  0  0  0
   -1.6099   -1.8990    1.1456 C   0  0  0  0  0  0  0  0  0  0  0  0
    3.3276   -1.8721    0.9087 C   0  0  0  0  0  0  0  0  0  0  0  0
    4.0691    2.1264    0.0176 C   0  0  0  0  0  0  0  0  0  0  0  0
   -1.9543    2.0969    1.3677 C   0  0  0  0  0  0  0  0  0  0  0  0
   -3.6642    1.0577    0.0136 C   0  0  0  0  0  0  0  0  0  0  0  0
   -2.0178   -3.1082   -1.3748 C   0  0  0  0  0  0  0  0  0  0  0  0
    4.3017   -3.0357    0.7201 C   0  0  0  0  0  0  0  0  0  0  0  0
    4.5681    3.3656   -0.7264 C   0  0  0  0  0  0  0  0  0  0  0  0
   -1.8750   -3.2673    1.0472 C   0  0  0  0  0  0  0  0  0  0  0  0
   -2.0779   -3.8681   -0.2058 C   0  0  0  0  0  0  0  0  0  0  0  0
   -2.9189    2.9123    1.9598 C   0  0  0  0  0  0  0  0  0  0  0  0
   -4.6287    1.8732    0.6057 C   0  0  0  0  0  0  0  0  0  0  0  0
   -4.2561    2.8003    1.5787 C   0  0  0  0  0  0  0  0  0  0  0  0
    4.2066   -4.0332    1.8636 C   0  0  0  0  0  0  0  0  0  0  0  0
    5.6585    4.0826    0.0535 C   0  0  0  0  0  0  0  0  0  0  0  0
  1  9  1  0
  1 12  1  0
  2  9  2  0
  3  6  1  0
  3 10  1  0
  3 11  1  0
  4  5  1  0
  4  7  1  0
  4  8  1  0
  4  9  1  0
  5  6  1  0
  7 12  2  0
  7 13  1  0
  8 16  2  0
  8 17  1  0
 10 14  1  0
 11 15  1  0
 12 18  1  0
 13 21  2  0
 14 19  1  0
 15 20  1  0
 16 23  1  0
 17 24  2  0
 18 22  2  0
 19 26  1  0
 20 27  1  0
 21 22  1  0
 23 25  2  0
 24 25  1  0
M  END
>  <PUBCHEM_COMPOUND_CID>  (1) 
45292

>  <PUBCHEM_CONFORMER_RMSD>  (1) 
1

>  <PUBCHEM_CONFORMER_DIVERSEORDER>  (1) 
1
59
27
71
43
36
60
26
9
32
85
58
3
80
63
40
22
84
69
52
18
44
61
81
5
62
78
46
38
31
16
75
86
76
83
67
64
56
55
25
65
37
30
20
50
23
4
82
72
28
8
45
42
2
66
17
14
77
53
73
39
11
24
68
79
33
57
34
47
13
12
70
54
10
19
74
29
15
51
7
35
48
6
49
41
21

>  <PUBCHEM_MMFF94_PARTIAL_CHARGES>  (1) 
29
1 -0.23
10 0.27
11 0.27
12 0.08
13 -0.15
16 -0.15
17 -0.15
18 -0.15
2 -0.57
21 -0.15
22 -0.15
23 -0.15
24 -0.15
25 -0.15
3 -0.81
4 0.35
40 0.15
41 0.15
42 0.15
43 0.15
48 0.15
49 0.15
50 0.15
51 0.15
52 0.15
6 0.27
7 -0.14
8 -0.14
9 0.66

>  <PUBCHEM_EFFECTIVE_ROTOR_COUNT>  (1) 
10.4

>  <PUBCHEM_PHARMACOPHORE_FEATURES>  (1) 
7
1 2 acceptor
1 26 hydrophobe
1 27 hydrophobe
1 3 cation
5 1 4 7 9 12 rings
6 7 12 13 18 21 22 rings
6 8 16 17 23 24 25 rings

>  <PUBCHEM_HEAVY_ATOM_COUNT>  (1) 
27

>  <PUBCHEM_ATOM_DEF_STEREO_COUNT>  (1) 
0

>  <PUBCHEM_ATOM_UDEF_STEREO_COUNT>  (1) 
1

>  <PUBCHEM_BOND_DEF_STEREO_COUNT>  (1) 
0

>  <PUBCHEM_BOND_UDEF_STEREO_COUNT>  (1) 
0

>  <PUBCHEM_ISOTOPIC_ATOM_COUNT>  (1) 
0

>  <PUBCHEM_COMPONENT_COUNT>  (1) 
1

>  <PUBCHEM_CACTVS_TAUTO_COUNT>  (1) 
1

>  <PUBCHEM_CONFORMER_ID>  (1) 
0000B0EC00000001

>  <PUBCHEM_MMFF94_ENERGY>  (1) 
62.85

>  <PUBCHEM_FEATURE_SELFOVERLAP>  (1) 
35.618

>  <PUBCHEM_SHAPE_FINGERPRINT>  (1) 
10764073 3 17463708484958494883
12422481 6 17044285368753849074
12633257 1 18264773147293527822
12788726 201 18130221679086398775
12930653 34 18266467692464691724
13140716 1 18407762525804339434
14142880 1 18190460648111858237
14178342 30 18262523735629235244
14466204 15 17689719658194114576
14739800 52 17989193864054130184
14787075 74 18272651260382035653
14955137 171 17902799561391025658
20101258 96 17698450158486320849
21403212 168 17764581028446793883
21524375 3 17915181213539557073
21796203 349 17827939325589182170
23559900 14 17703517571608136468
23598288 3 18130790113269789734
23728640 28 18129653102314901955
283562 15 17977667833534797578
469060 322 16154271766140558115
474 4 17983873181052289321
497634 4 18044938119707665332
5171179 24 15889688870415580922
57527295 17 17910084118304623671

>  <PUBCHEM_SHAPE_MULTIPOLES>  (1) 
538.93
9.81
5.84
1.83
11.03
1.83
0.4
-7.12
-2.84
4.34
-2.04
-1.09
0.2
-4.11

>  <PUBCHEM_SHAPE_SELFOVERLAP>  (1) 
1136.239

>  <PUBCHEM_SHAPE_VOLUME>  (1) 
305.3

>  <PUBCHEM_COORDINATE_TYPE>  (1) 
2
5
10

$$$$
