45300
     RDKit          3D

 24 26  0  0  1  0  0  0  0  0999 V2000
    0.6987    0.6393   -1.7752 O   0  0  0  0  0  0  0  0  0  0  0  0
    0.1234   -1.5920   -1.7375 O   0  0  0  0  0  0  0  0  0  0  0  0
    2.2926   -1.0470    0.0617 N   0  0  0  0  0  0  0  0  0  0  0  0
   -0.5325   -0.1678    0.1582 C   0  0  0  0  0  0  0  0  0  0  0  0
    0.1651   -0.9523    1.2653 C   0  0  0  0  0  0  0  0  0  0  0  0
    1.6727   -0.6820    1.3186 C   0  0  0  0  0  0  0  0  0  0  0  0
   -0.2573    1.2951    0.2386 C   0  0  0  0  0  0  0  0  0  0  0  0
   -1.9937   -0.4786    0.1196 C   0  0  0  0  0  0  0  0  0  0  0  0
    0.1118   -0.4901   -1.2044 C   0  0  0  0  0  0  0  0  0  0  0  0
    0.4446    1.6737   -0.8924 C   0  0  0  0  0  0  0  0  0  0  0  0
    2.3293   -1.4846    2.4369 C   0  0  0  0  0  0  0  0  0  0  0  0
    2.1244   -2.4792   -0.2107 C   0  0  0  0  0  0  0  0  0  0  0  0
    3.7191   -0.7026    0.0598 C   0  0  0  0  0  0  0  0  0  0  0  0
   -0.5816    2.2235    1.2140 C   0  0  0  0  0  0  0  0  0  0  0  0
   -2.7830    0.0212   -0.9143 C   0  0  0  0  0  0  0  0  0  0  0  0
   -2.5627   -1.2678    1.1172 C   0  0  0  0  0  0  0  0  0  0  0  0
    0.8481    2.9791   -1.1026 C   0  0  0  0  0  0  0  0  0  0  0  0
   -0.1851    3.5496    1.0233 C   0  0  0  0  0  0  0  0  0  0  0  0
    2.7057   -2.8526   -1.5638 C   0  0  0  0  0  0  0  0  0  0  0  0
    3.9273    0.7761    0.3395 C   0  0  0  0  0  0  0  0  0  0  0  0
    0.5252    3.9250   -0.1285 C   0  0  0  0  0  0  0  0  0  0  0  0
   -4.1469   -0.2690   -0.9506 C   0  0  0  0  0  0  0  0  0  0  0  0
   -3.9265   -1.5582    1.0807 C   0  0  0  0  0  0  0  0  0  0  0  0
   -4.7186   -1.0587    0.0468 C   0  0  0  0  0  0  0  0  0  0  0  0
  1  9  1  0
  1 10  1  0
  2  9  2  0
  3  6  1  0
  3 12  1  0
  3 13  1  0
  4  5  1  0
  4  7  1  0
  4  8  1  0
  4  9  1  0
  5  6  1  0
  6 11  1  0
  7 10  2  0
  7 14  1  0
  8 15  2  0
  8 16  1  0
 10 17  1  0
 12 19  1  0
 13 20  1  0
 14 18  2  0
 15 22  1  0
 16 23  2  0
 17 21  2  0
 18 21  1  0
 22 24  2  0
 23 24  1  0
M  END
>  <PUBCHEM_COMPOUND_CID>  (1) 
45300

>  <PUBCHEM_CONFORMER_RMSD>  (1) 
0.8

>  <PUBCHEM_CONFORMER_DIVERSEORDER>  (1) 
1
18
5
8
17
12
7
13
16
2
9
10
6
14
11
15
3
4

>  <PUBCHEM_MMFF94_PARTIAL_CHARGES>  (1) 
29
1 -0.23
10 0.08
12 0.27
13 0.27
14 -0.15
15 -0.15
16 -0.15
17 -0.15
18 -0.15
2 -0.57
21 -0.15
22 -0.15
23 -0.15
24 -0.15
3 -0.81
35 0.15
36 0.15
37 0.15
38 0.15
39 0.15
4 0.35
46 0.15
47 0.15
48 0.15
49 0.15
6 0.27
7 -0.14
8 -0.14
9 0.66

>  <PUBCHEM_EFFECTIVE_ROTOR_COUNT>  (1) 
6.4

>  <PUBCHEM_PHARMACOPHORE_FEATURES>  (1) 
5
1 2 acceptor
1 3 cation
5 1 4 7 9 10 rings
6 7 10 14 17 18 21 rings
6 8 15 16 22 23 24 rings

>  <PUBCHEM_HEAVY_ATOM_COUNT>  (1) 
24

>  <PUBCHEM_ATOM_DEF_STEREO_COUNT>  (1) 
0

>  <PUBCHEM_ATOM_UDEF_STEREO_COUNT>  (1) 
2

>  <PUBCHEM_BOND_DEF_STEREO_COUNT>  (1) 
0

>  <PUBCHEM_BOND_UDEF_STEREO_COUNT>  (1) 
0

>  <PUBCHEM_ISOTOPIC_ATOM_COUNT>  (1) 
0

>  <PUBCHEM_COMPONENT_COUNT>  (1) 
1

>  <PUBCHEM_CACTVS_TAUTO_COUNT>  (1) 
1

>  <PUBCHEM_CONFORMER_ID>  (1) 
0000B0F400000001

>  <PUBCHEM_MMFF94_ENERGY>  (1) 
86.0507

>  <PUBCHEM_FEATURE_SELFOVERLAP>  (1) 
25.469

>  <PUBCHEM_SHAPE_FINGERPRINT>  (1) 
10863032 1 17842561743289661420
1100329 8 18052822743507592428
11112241 14 16981803933190336384
11578080 2 15911113519643480601
12788726 201 18118956997243444448
13004483 165 18268142055221262415
13132413 78 18335416829576243089
13134695 92 18340758330104588981
13140716 1 17906454677053473161
13294875 104 17697598049664628041
13681431 1 18410013255944249669
14223421 5 18197776609773205846
14787075 74 18042973266605712578
14955137 171 18198352942581100898
15230672 131 17323801545017400332
15238133 3 18265915600579257777
16945 1 18265067987891575797
1813 80 18201173065331364799
18785283 64 17899421075638656657
18981168 100 17626925514402787864
20600515 1 18041827411943332547
21033648 29 17632000980272714251
21524375 3 17472419223858070361
22112679 90 18051443727929182265
229495 10 17387943530943062326
23419403 2 17681513139379448484
23557571 272 18265326210279355566
23558518 356 17691671299685474180
23559900 14 18192423070277819910
35225 105 17472991601043082961
5265222 85 16746233627121767484
5895379 119 17630634270350795561
6442390 28 17116643138129973049
70251023 43 18267592290712217794
7364860 26 18265052625110094977
81228 2 18049998900930626225
84936 31 18199176480942821665
9981440 41 16260033570752549538

>  <PUBCHEM_SHAPE_MULTIPOLES>  (1) 
477.19
6.16
3.79
1.75
4.54
3.89
-0.19
-4.42
-0.27
-1.9
0.13
-0.57
-0.58
0.33

>  <PUBCHEM_SHAPE_SELFOVERLAP>  (1) 
1037.299

>  <PUBCHEM_SHAPE_VOLUME>  (1) 
261.5

>  <PUBCHEM_COORDINATE_TYPE>  (1) 
2
5
10

$$$$
