45308
     RDKit          3D

 24 27  0  0  1  0  0  0  0  0999 V2000
    0.9857   -1.5081    1.9744 O   0  0  0  0  0  0  0  0  0  0  0  0
   -5.6947    0.8690    0.0401 O   0  0  0  0  0  0  0  0  0  0  0  0
    0.5348    0.6595    2.6139 O   0  0  0  0  0  0  0  0  0  0  0  0
   -2.9800    0.1227   -0.3779 N   0  0  0  0  0  0  0  0  0  0  0  0
    0.7761    0.1580    0.2175 C   0  0  0  0  0  0  0  0  0  0  0  0
   -0.5930    0.6508   -0.2420 C   0  0  0  0  0  0  0  0  0  0  0  0
   -1.6830   -0.3628    0.0889 C   0  0  0  0  0  0  0  0  0  0  0  0
    1.1053   -1.1910   -0.3246 C   0  0  0  0  0  0  0  0  0  0  0  0
    1.8360    1.1707   -0.0728 C   0  0  0  0  0  0  0  0  0  0  0  0
    0.7456   -0.1566    1.7262 C   0  0  0  0  0  0  0  0  0  0  0  0
   -3.3366    1.3824    0.2896 C   0  0  0  0  0  0  0  0  0  0  0  0
   -4.0269   -0.8825   -0.1483 C   0  0  0  0  0  0  0  0  0  0  0  0
    1.2053   -2.0781    0.7329 C   0  0  0  0  0  0  0  0  0  0  0  0
   -4.6984    1.8628   -0.2037 C   0  0  0  0  0  0  0  0  0  0  0  0
   -5.3721   -0.3487   -0.6323 C   0  0  0  0  0  0  0  0  0  0  0  0
    1.2965   -1.6196   -1.6278 C   0  0  0  0  0  0  0  0  0  0  0  0
    3.1312    0.9762    0.4029 C   0  0  0  0  0  0  0  0  0  0  0  0
    1.5261    2.3062   -0.8186 C   0  0  0  0  0  0  0  0  0  0  0  0
    1.4996   -3.4155    0.5435 C   0  0  0  0  0  0  0  0  0  0  0  0
    1.5959   -2.9671   -1.8444 C   0  0  0  0  0  0  0  0  0  0  0  0
    1.6972   -3.8595   -0.7648 C   0  0  0  0  0  0  0  0  0  0  0  0
    4.1207    1.9212    0.1318 C   0  0  0  0  0  0  0  0  0  0  0  0
    2.5157    3.2512   -1.0898 C   0  0  0  0  0  0  0  0  0  0  0  0
    3.8130    3.0586   -0.6145 C   0  0  0  0  0  0  0  0  0  0  0  0
  1 10  1  0
  1 13  1  0
  2 14  1  0
  2 15  1  0
  3 10  2  0
  4  7  1  0
  4 11  1  0
  4 12  1  0
  5  6  1  0
  5  8  1  0
  5  9  1  0
  5 10  1  0
  6  7  1  0
  8 13  2  0
  8 16  1  0
  9 17  2  0
  9 18  1  0
 11 14  1  0
 12 15  1  0
 13 19  1  0
 16 20  2  0
 17 22  1  0
 18 23  2  0
 19 21  2  0
 20 21  1  0
 22 24  2  0
 23 24  1  0
M  END
>  <PUBCHEM_COMPOUND_CID>  (1) 
45308

>  <PUBCHEM_CONFORMER_RMSD>  (1) 
0.8

>  <PUBCHEM_CONFORMER_DIVERSEORDER>  (1) 
1
13
10
3
7
15
12
4
5
2
9
8
6
11
14

>  <PUBCHEM_MMFF94_PARTIAL_CHARGES>  (1) 
32
1 -0.23
10 0.66
11 0.27
12 0.27
13 0.08
14 0.28
15 0.28
16 -0.15
17 -0.15
18 -0.15
19 -0.15
2 -0.56
20 -0.15
21 -0.15
22 -0.15
23 -0.15
24 -0.15
3 -0.57
37 0.15
38 0.15
39 0.15
4 -0.81
40 0.15
41 0.15
42 0.15
43 0.15
44 0.15
45 0.15
5 0.35
7 0.27
8 -0.14
9 -0.14

>  <PUBCHEM_EFFECTIVE_ROTOR_COUNT>  (1) 
5.6

>  <PUBCHEM_PHARMACOPHORE_FEATURES>  (1) 
7
1 2 acceptor
1 3 acceptor
1 4 cation
5 1 5 8 10 13 rings
6 2 4 11 12 14 15 rings
6 8 13 16 19 20 21 rings
6 9 17 18 22 23 24 rings

>  <PUBCHEM_HEAVY_ATOM_COUNT>  (1) 
24

>  <PUBCHEM_ATOM_DEF_STEREO_COUNT>  (1) 
0

>  <PUBCHEM_ATOM_UDEF_STEREO_COUNT>  (1) 
1

>  <PUBCHEM_BOND_DEF_STEREO_COUNT>  (1) 
0

>  <PUBCHEM_BOND_UDEF_STEREO_COUNT>  (1) 
0

>  <PUBCHEM_ISOTOPIC_ATOM_COUNT>  (1) 
0

>  <PUBCHEM_COMPONENT_COUNT>  (1) 
1

>  <PUBCHEM_CACTVS_TAUTO_COUNT>  (1) 
1

>  <PUBCHEM_CONFORMER_ID>  (1) 
0000B0FC00000001

>  <PUBCHEM_MMFF94_ENERGY>  (1) 
70.5149

>  <PUBCHEM_FEATURE_SELFOVERLAP>  (1) 
35.621

>  <PUBCHEM_SHAPE_FINGERPRINT>  (1) 
10764073 3 17023724763718301842
10948715 1 18263363762327836970
11421498 54 18059868276474024169
11488393 25 18269574826188810930
12422481 6 17980164575650177778
12592029 89 18409166632170099994
13009979 54 17557714555573500771
133893 2 18127716866627477146
13681431 1 18198351645501094386
14004458 79 17257381739018474086
14251757 17 15625390188890026884
14863182 85 17417802899151172694
15131766 46 14348612089040924412
15163728 17 18116736168518104196
15502722 9 18412551993764150231
15664445 248 17981619173251192654
15849732 13 18337378414776814808
15906896 17 17759243281888643574
1813 80 17910116802346323318
18681886 176 18267296706910280272
20197701 30 18270677688106595640
20567600 347 18336550524479229270
20600515 1 17337871526162832474
20602899 9 17842581775101591100
21054139 6 18127961108944207759
21524375 3 18117274967976051084
2255824 54 18339643335109375767
23419403 2 17761544400680316354
23559900 14 18199744748656456247
298252 57 18193838365138693296
3060560 45 18409728491244078164
38695281 34 18340204184564904382
394222 165 18260820553225579040
4017518 198 18131358540572915566
4280585 95 18052543166690642838
46194498 28 18339083688196386287
474 4 18187364380418549493
57724786 102 18268717108994053625
59755656 215 18335140864704957140
60123966 16 18119229698314321501
6138700 20 18338242566528829414
7364860 26 18410855417178488855
8272917 22 18410012122136089685
9709674 26 18408606938208408483
9841814 1 18043809784300768283
9999458 23 16298379206253940048

>  <PUBCHEM_SHAPE_MULTIPOLES>  (1) 
471.32
8.4
4.28
1.53
15.34
2.35
0.59
-6.37
-1.5
-5.12
-1.52
-0.86
0.59
-0.27

>  <PUBCHEM_SHAPE_SELFOVERLAP>  (1) 
1035.464

>  <PUBCHEM_SHAPE_VOLUME>  (1) 
254.4

>  <PUBCHEM_COORDINATE_TYPE>  (1) 
2
5
10

$$$$
