45302
     RDKit          3D

 24 26  0  0  1  0  0  0  0  0999 V2000
   -1.5132    1.6187   -1.9556 O   0  0  0  0  0  0  0  0  0  0  0  0
   -1.4021   -0.5105   -2.8303 O   0  0  0  0  0  0  0  0  0  0  0  0
    3.5231   -0.4971    0.0950 N   0  0  0  0  0  0  0  0  0  0  0  0
   -0.7614   -0.1606   -0.4810 C   0  0  0  0  0  0  0  0  0  0  0  0
    0.6613   -0.7051   -0.5649 C   0  0  0  0  0  0  0  0  0  0  0  0
   -0.8256    1.1560    0.2152 C   0  0  0  0  0  0  0  0  0  0  0  0
    1.6073    0.3091   -1.2040 C   0  0  0  0  0  0  0  0  0  0  0  0
   -1.6888   -1.1720    0.1109 C   0  0  0  0  0  0  0  0  0  0  0  0
   -1.2535    0.2501   -1.8827 C   0  0  0  0  0  0  0  0  0  0  0  0
    3.0359   -0.2300   -1.2532 C   0  0  0  0  0  0  0  0  0  0  0  0
   -1.2580    2.1110   -0.6882 C   0  0  0  0  0  0  0  0  0  0  0  0
   -0.5279    1.5024    1.5228 C   0  0  0  0  0  0  0  0  0  0  0  0
   -3.0600   -0.9256    0.1374 C   0  0  0  0  0  0  0  0  0  0  0  0
   -1.1796   -2.3584    0.6352 C   0  0  0  0  0  0  0  0  0  0  0  0
   -1.4147    3.4381   -0.3341 C   0  0  0  0  0  0  0  0  0  0  0  0
    3.5172    0.7274    0.8972 C   0  0  0  0  0  0  0  0  0  0  0  0
    4.8698   -1.0696    0.0525 C   0  0  0  0  0  0  0  0  0  0  0  0
   -0.6794    2.8378    1.9046 C   0  0  0  0  0  0  0  0  0  0  0  0
   -1.1205    3.7997    0.9814 C   0  0  0  0  0  0  0  0  0  0  0  0
   -3.9257   -1.8694    0.6903 C   0  0  0  0  0  0  0  0  0  0  0  0
   -2.0451   -3.3024    1.1879 C   0  0  0  0  0  0  0  0  0  0  0  0
    3.9599    0.4511    2.3240 C   0  0  0  0  0  0  0  0  0  0  0  0
    4.8992   -2.3428   -0.7759 C   0  0  0  0  0  0  0  0  0  0  0  0
   -3.4182   -3.0578    1.2155 C   0  0  0  0  0  0  0  0  0  0  0  0
  1  9  1  0
  1 11  1  0
  2  9  2  0
  3 10  1  0
  3 16  1  0
  3 17  1  0
  4  5  1  0
  4  6  1  0
  4  8  1  0
  4  9  1  0
  5  7  1  0
  6 11  2  0
  6 12  1  0
  7 10  1  0
  8 13  2  0
  8 14  1  0
 11 15  1  0
 12 18  2  0
 13 20  1  0
 14 21  2  0
 15 19  2  0
 16 22  1  0
 17 23  1  0
 18 19  1  0
 20 24  2  0
 21 24  1  0
M  END
>  <PUBCHEM_COMPOUND_CID>  (1) 
45302

>  <PUBCHEM_CONFORMER_RMSD>  (1) 
0.8

>  <PUBCHEM_CONFORMER_DIVERSEORDER>  (1) 
2
35
36
6
17
34
18
23
28
16
31
12
30
4
33
26
14
5
13
19
15
25
22
24
9
32
20
11
10
21
1
8
29
27
7
3

>  <PUBCHEM_MMFF94_PARTIAL_CHARGES>  (1) 
29
1 -0.23
10 0.27
11 0.08
12 -0.15
13 -0.15
14 -0.15
15 -0.15
16 0.27
17 0.27
18 -0.15
19 -0.15
2 -0.57
20 -0.15
21 -0.15
24 -0.15
3 -0.81
31 0.15
32 0.15
33 0.15
34 0.15
39 0.15
4 0.35
40 0.15
41 0.15
42 0.15
49 0.15
6 -0.14
8 -0.14
9 0.66

>  <PUBCHEM_EFFECTIVE_ROTOR_COUNT>  (1) 
7.4

>  <PUBCHEM_PHARMACOPHORE_FEATURES>  (1) 
5
1 2 acceptor
1 3 cation
5 1 4 6 9 11 rings
6 6 11 12 15 18 19 rings
6 8 13 14 20 21 24 rings

>  <PUBCHEM_HEAVY_ATOM_COUNT>  (1) 
24

>  <PUBCHEM_ATOM_DEF_STEREO_COUNT>  (1) 
0

>  <PUBCHEM_ATOM_UDEF_STEREO_COUNT>  (1) 
1

>  <PUBCHEM_BOND_DEF_STEREO_COUNT>  (1) 
0

>  <PUBCHEM_BOND_UDEF_STEREO_COUNT>  (1) 
0

>  <PUBCHEM_ISOTOPIC_ATOM_COUNT>  (1) 
0

>  <PUBCHEM_COMPONENT_COUNT>  (1) 
1

>  <PUBCHEM_CACTVS_TAUTO_COUNT>  (1) 
1

>  <PUBCHEM_CONFORMER_ID>  (1) 
0000B0F600000002

>  <PUBCHEM_MMFF94_ENERGY>  (1) 
66.0982

>  <PUBCHEM_FEATURE_SELFOVERLAP>  (1) 
25.469

>  <PUBCHEM_SHAPE_FINGERPRINT>  (1) 
10764073 3 17558297356976553771
107951 10 17909273481327891708
11578080 2 17534322725076859781
12082328 90 18198085646462417606
12403814 3 17203603778942022302
12549972 3 18058436613819378882
12714826 92 17968084378259866071
12788726 201 18265075628759597740
12969540 37 17615693272348372695
13004483 165 18337966674070781811
13134695 92 18127701645853957405
133893 2 17335317815965690749
14178342 30 18189047621541947098
14787075 74 18127116495178328805
15131766 46 16271065177346626762
15422964 175 18268709592215158232
16945 1 18260277368948848359
17980427 23 17488484008358530915
19765921 60 17551789218587132353
20510252 161 18408884040354205586
20600515 1 18263380216400542663
21330990 113 18335419054495396747
21524375 3 17624416372517228516
23419403 2 17975111447625829813
23557571 272 18336537296470288730
23559900 14 18335423491260085846
2818148 4 18194993853407936996
3027735 51 17603300427667691786
3380486 145 17915441986293599972
4340502 62 18050575032640403653
497634 4 18187662288483058302
59755656 520 18048321041759810404
81228 2 18196963039645470321
9981440 41 17700380660649887938

>  <PUBCHEM_SHAPE_MULTIPOLES>  (1) 
477.19
7.24
4.24
2.06
10.3
1.8
-0.39
-6.51
1.6
-3.8
1.79
0.12
0.52
1.67

>  <PUBCHEM_SHAPE_SELFOVERLAP>  (1) 
1025.034

>  <PUBCHEM_SHAPE_VOLUME>  (1) 
265.8

>  <PUBCHEM_COORDINATE_TYPE>  (1) 
2
5
10

$$$$
