45316
     RDKit          3D

 26 28  0  0  1  0  0  0  0  0999 V2000
    1.0237   -1.9267   -0.9704 O   0  0  0  0  0  0  0  0  0  0  0  0
    3.7153   -1.7606   -0.8140 O   0  0  0  0  0  0  0  0  0  0  0  0
    4.9220    0.4505    0.3089 O   0  0  0  0  0  0  0  0  0  0  0  0
   -4.3179   -0.7694   -1.7168 O   0  0  0  0  0  0  0  0  0  0  0  0
   -1.4691    3.3209   -1.8040 N   0  0  0  0  0  0  0  0  0  0  0  0
   -4.9521   -1.3432    0.9296 N   0  0  0  0  0  0  0  0  0  0  0  0
   -0.7501    2.3689   -0.9436 C   0  0  0  0  0  0  0  0  0  0  0  0
   -0.2299    3.1886    0.2654 C   0  0  0  0  0  0  0  0  0  0  0  0
    0.5488    2.4237    1.3462 C   0  0  0  0  0  0  0  0  0  0  0  0
   -1.5107    1.0789   -0.5639 C   0  0  0  0  0  0  0  0  0  0  0  0
    1.3926    1.3015    0.7960 C   0  0  0  0  0  0  0  0  0  0  0  0
    0.7697    0.1673    0.2313 C   0  0  0  0  0  0  0  0  0  0  0  0
   -0.7192    0.0941    0.1996 C   0  0  0  0  0  0  0  0  0  0  0  0
    1.5557   -0.8611   -0.3083 C   0  0  0  0  0  0  0  0  0  0  0  0
    2.7904    1.3795    0.8207 C   0  0  0  0  0  0  0  0  0  0  0  0
   -2.7572    0.8389   -1.0147 C   0  0  0  0  0  0  0  0  0  0  0  0
   -1.2342   -0.8428    1.0190 C   0  0  0  0  0  0  0  0  0  0  0  0
    2.9470   -0.7698   -0.2756 C   0  0  0  0  0  0  0  0  0  0  0  0
    3.5625    0.3463    0.2887 C   0  0  0  0  0  0  0  0  0  0  0  0
   -3.6029   -0.3627   -0.8030 C   0  0  0  0  0  0  0  0  0  0  0  0
   -2.6145   -1.1022    1.3366 C   0  0  0  0  0  0  0  0  0  0  0  0
   -3.6950   -0.9517    0.5592 C   0  0  0  0  0  0  0  0  0  0  0  0
    0.8575   -1.7887   -2.3765 C   0  0  0  0  0  0  0  0  0  0  0  0
    3.5832   -3.0621   -0.2483 C   0  0  0  0  0  0  0  0  0  0  0  0
    5.5965   -0.0854    1.4457 C   0  0  0  0  0  0  0  0  0  0  0  0
   -5.4122   -1.3329    2.2921 C   0  0  0  0  0  0  0  0  0  0  0  0
  1 14  1  0
  1 23  1  0
  2 18  1  0
  2 24  1  0
  3 19  1  0
  3 25  1  0
  4 20  2  0
  5  7  1  0
  6 22  1  0
  6 26  1  0
  7  8  1  0
  7 10  1  0
  8  9  1  0
  9 11  1  0
 10 13  1  0
 10 16  2  0
 11 12  2  0
 11 15  1  0
 12 13  1  0
 12 14  1  0
 13 17  2  0
 14 18  2  0
 15 19  2  0
 16 20  1  0
 17 21  1  0
 18 19  1  0
 20 22  1  0
 21 22  2  0
M  END
>  <PUBCHEM_COMPOUND_CID>  (1) 
45316

>  <PUBCHEM_CONFORMER_RMSD>  (1) 
0.8

>  <PUBCHEM_CONFORMER_DIVERSEORDER>  (1) 
5
6
3
9
2
7
4
8
1

>  <PUBCHEM_MMFF94_PARTIAL_CHARGES>  (1) 
32
1 -0.36
10 -0.14
11 -0.14
12 0.03
13 -0.03
14 0.08
15 -0.15
16 -0.14
17 -0.15
18 0.08
19 0.08
2 -0.36
20 0.54
21 -0.15
22 0.11
23 0.28
24 0.28
25 0.28
26 0.37
3 -0.36
32 0.15
33 0.15
34 0.36
35 0.36
36 0.15
37 0.15
38 0.4
4 -0.57
5 -0.99
6 -0.87
7 0.41
9 0.14

>  <PUBCHEM_EFFECTIVE_ROTOR_COUNT>  (1) 
4.6

>  <PUBCHEM_PHARMACOPHORE_FEATURES>  (1) 
11
1 1 acceptor
1 2 acceptor
1 3 acceptor
1 4 acceptor
1 5 cation
1 5 donor
1 6 cation
1 6 donor
6 11 12 14 15 18 19 rings
7 10 13 16 17 20 21 22 rings
7 7 8 9 10 11 12 13 rings

>  <PUBCHEM_HEAVY_ATOM_COUNT>  (1) 
26

>  <PUBCHEM_ATOM_DEF_STEREO_COUNT>  (1) 
0

>  <PUBCHEM_ATOM_UDEF_STEREO_COUNT>  (1) 
1

>  <PUBCHEM_BOND_DEF_STEREO_COUNT>  (1) 
0

>  <PUBCHEM_BOND_UDEF_STEREO_COUNT>  (1) 
0

>  <PUBCHEM_ISOTOPIC_ATOM_COUNT>  (1) 
0

>  <PUBCHEM_COMPONENT_COUNT>  (1) 
1

>  <PUBCHEM_CACTVS_TAUTO_COUNT>  (1) 
1

>  <PUBCHEM_CONFORMER_ID>  (1) 
0000B10400000005

>  <PUBCHEM_MMFF94_ENERGY>  (1) 
129.5556

>  <PUBCHEM_FEATURE_SELFOVERLAP>  (1) 
55.849

>  <PUBCHEM_SHAPE_FINGERPRINT>  (1) 
1100329 8 13579919603419742267
11796584 16 17458612389875648514
12035758 1 18338515360332071882
12166972 35 16153429479909025566
12236239 1 16200155416917136906
12633257 1 18340771558366646595
13140716 1 17914040157030373616
13544653 18 18413107251462766829
13965767 371 15621777043689817603
16945 1 18200032991805598521
17357779 13 18409157827381946885
1813 80 18115324352965407537
20600515 1 18113630005325400077
20642791 268 17274825800030520768
20739085 24 17987537981618277538
221490 88 18269274552540600814
22182313 1 18200868462546316468
23402539 116 18114169822389805981
23557571 272 18040152915868994529
23558518 356 18053663569192242800
23559900 14 18190173495604970286
2748010 2 18057604266447857436
3380486 145 18343294873502175965
5104073 3 18198903617786996890
6913067 236 18269254881363278330
7495541 125 17896608460469750883
81228 2 18046089093464419121
9709674 26 18337103450448187556

>  <PUBCHEM_SHAPE_MULTIPOLES>  (1) 
501.63
9.46
3.1
1.78
0.48
1.54
0.22
-5.52
-3.92
-0.64
0.77
1.4
-0.3
2.14

>  <PUBCHEM_SHAPE_SELFOVERLAP>  (1) 
1076.347

>  <PUBCHEM_SHAPE_VOLUME>  (1) 
274.7

>  <PUBCHEM_COORDINATE_TYPE>  (1) 
2
5
10

$$$$
