45319
     RDKit          3D

 21 21  0  0  0  0  0  0  0  0999 V2000
   -2.7281    0.1326    0.2013 O   0  0  0  0  0  0  0  0  0  0  0  0
    2.0298   -0.4933    0.0738 O   0  0  0  0  0  0  0  0  0  0  0  0
    3.1864   -2.4814    0.1693 O   0  0  0  0  0  0  0  0  0  0  0  0
   -6.4111    0.0858    0.3402 N   0  0  0  0  0  0  0  0  0  0  0  0
    7.8183    1.9684   -0.2439 N   0  0  0  0  0  0  0  0  0  0  0  0
   -5.0630    0.6480    0.2679 C   0  0  0  0  0  0  0  0  0  0  0  0
   -6.8175   -0.4365   -0.9639 C   0  0  0  0  0  0  0  0  0  0  0  0
   -7.3616    1.0951    0.8053 C   0  0  0  0  0  0  0  0  0  0  0  0
   -4.0187   -0.4568    0.2904 C   0  0  0  0  0  0  0  0  0  0  0  0
   -1.7032   -0.8516    0.2174 C   0  0  0  0  0  0  0  0  0  0  0  0
   -0.3420   -0.1807    0.1203 C   0  0  0  0  0  0  0  0  0  0  0  0
   -8.1920   -1.0799   -0.8934 C   0  0  0  0  0  0  0  0  0  0  0  0
   -7.4431    2.2611   -0.1653 C   0  0  0  0  0  0  0  0  0  0  0  0
    0.7939   -1.1898    0.1534 C   0  0  0  0  0  0  0  0  0  0  0  0
    3.1533   -1.2630    0.0918 C   0  0  0  0  0  0  0  0  0  0  0  0
    4.3718   -0.4192    0.0047 C   0  0  0  0  0  0  0  0  0  0  0  0
    5.6337   -1.0135    0.0090 C   0  0  0  0  0  0  0  0  0  0  0  0
    4.2545    0.9681   -0.0818 C   0  0  0  0  0  0  0  0  0  0  0  0
    6.6610    1.1666   -0.1596 C   0  0  0  0  0  0  0  0  0  0  0  0
    6.7784   -0.2207   -0.0732 C   0  0  0  0  0  0  0  0  0  0  0  0
    5.3992    1.7610   -0.1639 C   0  0  0  0  0  0  0  0  0  0  0  0
  1  9  1  0
  1 10  1  0
  2 14  1  0
  2 15  1  0
  3 15  2  0
  4  6  1  0
  4  7  1  0
  4  8  1  0
  5 19  1  0
  6  9  1  0
  7 12  1  0
  8 13  1  0
 10 11  1  0
 11 14  1  0
 15 16  1  0
 16 17  2  0
 16 18  1  0
 17 20  1  0
 18 21  2  0
 19 20  2  0
 19 21  1  0
M  END
>  <PUBCHEM_COMPOUND_CID>  (1) 
45319

>  <PUBCHEM_CONFORMER_RMSD>  (1) 
1.2

>  <PUBCHEM_CONFORMER_DIVERSEORDER>  (1) 
1
9
23
27
6
12
16
7
38
22
40
32
17
34
10
18
30
8
35
33
39
15
4
21
24
11
41
5
37
20
29
3
13
19
28
2
26
36
25
31
14

>  <PUBCHEM_MMFF94_PARTIAL_CHARGES>  (1) 
24
1 -0.56
10 0.28
14 0.28
15 0.63
16 0.09
17 -0.15
18 -0.15
19 0.1
2 -0.43
20 -0.15
21 -0.15
3 -0.57
4 -0.81
42 0.15
43 0.15
44 0.15
45 0.15
46 0.4
47 0.4
5 -0.9
6 0.27
7 0.27
8 0.27
9 0.28

>  <PUBCHEM_EFFECTIVE_ROTOR_COUNT>  (1) 
11

>  <PUBCHEM_PHARMACOPHORE_FEATURES>  (1) 
6
1 1 acceptor
1 3 acceptor
1 4 cation
1 5 cation
1 5 donor
6 16 17 18 19 20 21 rings

>  <PUBCHEM_HEAVY_ATOM_COUNT>  (1) 
21

>  <PUBCHEM_ATOM_DEF_STEREO_COUNT>  (1) 
0

>  <PUBCHEM_ATOM_UDEF_STEREO_COUNT>  (1) 
0

>  <PUBCHEM_BOND_DEF_STEREO_COUNT>  (1) 
0

>  <PUBCHEM_BOND_UDEF_STEREO_COUNT>  (1) 
0

>  <PUBCHEM_ISOTOPIC_ATOM_COUNT>  (1) 
0

>  <PUBCHEM_COMPONENT_COUNT>  (1) 
1

>  <PUBCHEM_CACTVS_TAUTO_COUNT>  (1) 
2

>  <PUBCHEM_CONFORMER_ID>  (1) 
0000B10700000001

>  <PUBCHEM_MMFF94_ENERGY>  (1) 
52.925

>  <PUBCHEM_FEATURE_SELFOVERLAP>  (1) 
30.446

>  <PUBCHEM_SHAPE_FINGERPRINT>  (1) 
10066227 49 16773527564076151614
10299344 5 18131350808877141599
10411042 1 17905045851722330770
10595046 47 18342739577212072515
10835480 77 18333450962725281539
11315181 36 18412544311370495243
12091667 2 18411139122414390195
125118 31 18187650175947769821
13533116 47 17096079187141024506
13668630 136 11527943444208282689
14251764 18 18411418418961791525
14251764 46 18335138699998903674
14429380 56 18334286604368048821
14729087 3 17894346666705166949
14933364 13 18410013221827058945
15183329 4 17704357662526065105
15419008 47 16515677853914751477
1577012 14 18341330012148366739
16989713 51 17131537458728211159
17093844 174 17458065950905108073
18335252 114 18342455946351748212
195137 175 17988931042230739777
20157964 124 18409731747119704914
20281389 69 18040997315008184764
21150785 3 18131912680762142559
21315763 28 18411699859293914202
22224240 67 17748826327837561106
23035841 295 10015863180796212317
246663 6 13183025133139662895
255183 451 17913498939749659718
33532 11 10159701283046420708
335352 9 18410862054253798246
4073 2 18186526535141172690
4325135 7 18342737433886170455
5758199 1 18113901546485847643
59682541 35 17822296816013427225
59682541 52 17632031771425743198
6438161 24 12175626136259147820
67123 10 18410575102824285835

>  <PUBCHEM_SHAPE_MULTIPOLES>  (1) 
404.6
29.08
1.93
0.74
24.3
0.41
0.05
11.2
3.49
-0.99
0.06
0.91
-0.02
-1.17

>  <PUBCHEM_SHAPE_SELFOVERLAP>  (1) 
803.533

>  <PUBCHEM_SHAPE_VOLUME>  (1) 
241.9

>  <PUBCHEM_COORDINATE_TYPE>  (1) 
2
5
10

$$$$
