45314
     RDKit          3D

 29 31  0  0  1  0  0  0  0  0999 V2000
    0.5622    1.9177   -1.4766 O   0  0  0  0  0  0  0  0  0  0  0  0
    3.2719    2.2454   -1.2722 O   0  0  0  0  0  0  0  0  0  0  0  0
    4.6689    1.0377    0.7852 O   0  0  0  0  0  0  0  0  0  0  0  0
   -4.3947   -0.4432   -1.7872 O   0  0  0  0  0  0  0  0  0  0  0  0
    0.4731   -4.6888   -0.3588 O   0  0  0  0  0  0  0  0  0  0  0  0
    0.3305   -2.3689   -0.4771 N   0  0  0  0  0  0  0  0  0  0  0  0
   -5.3666    1.2864    0.1551 N   0  0  0  0  0  0  0  0  0  0  0  0
   -0.6527   -2.1797    0.5699 C   0  0  0  0  0  0  0  0  0  0  0  0
   -0.0150   -2.2222    1.9768 C   0  0  0  0  0  0  0  0  0  0  0  0
    0.5367   -0.9157    2.5624 C   0  0  0  0  0  0  0  0  0  0  0  0
   -1.5143   -0.9639    0.2252 C   0  0  0  0  0  0  0  0  0  0  0  0
    1.2597   -0.0574    1.5583 C   0  0  0  0  0  0  0  0  0  0  0  0
    0.5409    0.5653    0.5166 C   0  0  0  0  0  0  0  0  0  0  0  0
   -0.9335    0.3722    0.4226 C   0  0  0  0  0  0  0  0  0  0  0  0
    1.2271    1.3353   -0.4349 C   0  0  0  0  0  0  0  0  0  0  0  0
    2.6479    0.1127    1.6360 C   0  0  0  0  0  0  0  0  0  0  0  0
   -2.7213   -1.1946   -0.3239 C   0  0  0  0  0  0  0  0  0  0  0  0
   -1.6495    1.4927    0.6377 C   0  0  0  0  0  0  0  0  0  0  0  0
    2.6094    1.4966   -0.3444 C   0  0  0  0  0  0  0  0  0  0  0  0
    3.3178    0.8882    0.6897 C   0  0  0  0  0  0  0  0  0  0  0  0
   -3.7318   -0.2097   -0.7786 C   0  0  0  0  0  0  0  0  0  0  0  0
   -3.0794    1.6489    0.7210 C   0  0  0  0  0  0  0  0  0  0  0  0
    0.8062   -3.6124   -0.8478 C   0  0  0  0  0  0  0  0  0  0  0  0
   -4.0391    0.9623    0.0856 C   0  0  0  0  0  0  0  0  0  0  0  0
    1.7990   -3.5259   -1.9759 C   0  0  0  0  0  0  0  0  0  0  0  0
    0.4400    1.1520   -2.6716 C   0  0  0  0  0  0  0  0  0  0  0  0
    3.9952    3.3765   -0.7933 C   0  0  0  0  0  0  0  0  0  0  0  0
    5.4763    0.0758    0.1097 C   0  0  0  0  0  0  0  0  0  0  0  0
   -5.8648    2.4170    0.8905 C   0  0  0  0  0  0  0  0  0  0  0  0
  1 15  1  0
  1 26  1  0
  2 19  1  0
  2 27  1  0
  3 20  1  0
  3 28  1  0
  4 21  2  0
  5 23  2  0
  6  8  1  0
  6 23  1  0
  7 24  1  0
  7 29  1  0
  8  9  1  0
  8 11  1  0
  9 10  1  0
 10 12  1  0
 11 14  1  0
 11 17  2  0
 12 13  2  0
 12 16  1  0
 13 14  1  0
 13 15  1  0
 14 18  2  0
 15 19  2  0
 16 20  2  0
 17 21  1  0
 18 22  1  0
 19 20  1  0
 21 24  1  0
 22 24  2  0
 23 25  1  0
M  END
>  <PUBCHEM_COMPOUND_CID>  (1) 
45314

>  <PUBCHEM_CONFORMER_RMSD>  (1) 
0.8

>  <PUBCHEM_CONFORMER_DIVERSEORDER>  (1) 
1
10
7
23
17
25
16
14
9
15
19
20
2
3
24
8
5
4
13
27
12
6
21
11
22
26
18
28

>  <PUBCHEM_MMFF94_PARTIAL_CHARGES>  (1) 
34
1 -0.36
10 0.14
11 -0.14
12 -0.14
13 0.03
14 -0.03
15 0.08
16 -0.15
17 -0.14
18 -0.15
19 0.08
2 -0.36
20 0.08
21 0.54
22 -0.15
23 0.57
24 0.11
25 0.06
26 0.28
27 0.28
28 0.28
29 0.37
3 -0.36
35 0.37
36 0.15
37 0.15
38 0.15
39 0.15
4 -0.57
43 0.4
5 -0.57
6 -0.73
7 -0.87
8 0.44

>  <PUBCHEM_EFFECTIVE_ROTOR_COUNT>  (1) 
6.6

>  <PUBCHEM_PHARMACOPHORE_FEATURES>  (1) 
11
1 1 acceptor
1 2 acceptor
1 3 acceptor
1 4 acceptor
1 5 acceptor
1 6 donor
1 7 cation
1 7 donor
6 12 13 15 16 19 20 rings
7 11 14 17 18 21 22 24 rings
7 8 9 10 11 12 13 14 rings

>  <PUBCHEM_HEAVY_ATOM_COUNT>  (1) 
29

>  <PUBCHEM_ATOM_DEF_STEREO_COUNT>  (1) 
0

>  <PUBCHEM_ATOM_UDEF_STEREO_COUNT>  (1) 
1

>  <PUBCHEM_BOND_DEF_STEREO_COUNT>  (1) 
0

>  <PUBCHEM_BOND_UDEF_STEREO_COUNT>  (1) 
0

>  <PUBCHEM_ISOTOPIC_ATOM_COUNT>  (1) 
0

>  <PUBCHEM_COMPONENT_COUNT>  (1) 
1

>  <PUBCHEM_CACTVS_TAUTO_COUNT>  (1) 
2

>  <PUBCHEM_CONFORMER_ID>  (1) 
0000B10200000001

>  <PUBCHEM_MMFF94_ENERGY>  (1) 
131.9963

>  <PUBCHEM_FEATURE_SELFOVERLAP>  (1) 
55.848

>  <PUBCHEM_SHAPE_FINGERPRINT>  (1) 
10382601 240 18042680620350448155
11115154 58 17040062711833667087
11370993 70 18272931661247624758
11488393 25 17974835186681764178
12236239 1 18335136501187080233
12422481 6 17976790144120271874
12788726 201 17686612854872065786
13140716 1 17386284436895962808
133893 2 17984444956820528315
13583140 156 17271725294016679624
14790565 3 18411140259911551369
15163728 17 18339936998954898029
15664445 248 17411914872761489567
17980427 26 17272250688105917864
1813 80 17833830465487685611
20691752 17 17968657095106178971
20775438 99 16259783277259877231
21033648 144 18041272270472953949
22149856 69 18270137747194858681
23366157 5 18265613174288015859
23419403 2 17831012429848493278
23559900 14 18202003218391114016
23598288 3 17973728266245764066
38695281 34 18413387622802051263
4017518 198 17989209240532961086
404807 14 16980423590883477078
474 4 18259983760731899985
5104073 3 17677327363390787488
5265222 85 18199195173384311964
59755656 215 18268995288839038381

>  <PUBCHEM_SHAPE_MULTIPOLES>  (1) 
557.5
8.93
4.16
1.98
5.67
4.25
-0.17
-8.07
-0.01
-2.15
-1.67
-0.62
0.47
-0.8

>  <PUBCHEM_SHAPE_SELFOVERLAP>  (1) 
1190.78

>  <PUBCHEM_SHAPE_VOLUME>  (1) 
306

>  <PUBCHEM_COORDINATE_TYPE>  (1) 
2
5
10

$$$$
