45320
     RDKit          3D

 19 19  0  0  0  0  0  0  0  0999 V2000
   -3.5448    0.2944    0.1548 O   0  0  0  0  0  0  0  0  0  0  0  0
    1.1961   -0.4418   -0.0108 O   0  0  0  0  0  0  0  0  0  0  0  0
    2.2984   -2.4564   -0.1702 O   0  0  0  0  0  0  0  0  0  0  0  0
   -7.2292    0.3324    0.2524 N   0  0  0  0  0  0  0  0  0  0  0  0
    7.0276    1.8589    0.0520 N   0  0  0  0  0  0  0  0  0  0  0  0
   -5.8658    0.8614    0.2680 C   0  0  0  0  0  0  0  0  0  0  0  0
   -4.8516   -0.2653    0.1530 C   0  0  0  0  0  0  0  0  0  0  0  0
   -1.1669   -0.0720    0.0549 C   0  0  0  0  0  0  0  0  0  0  0  0
   -2.5465   -0.7115    0.0493 C   0  0  0  0  0  0  0  0  0  0  0  0
   -0.0586   -1.1080   -0.0361 C   0  0  0  0  0  0  0  0  0  0  0  0
   -8.2003    1.4182    0.3807 C   0  0  0  0  0  0  0  0  0  0  0  0
   -7.4692   -0.4257   -0.9750 C   0  0  0  0  0  0  0  0  0  0  0  0
    3.5400   -0.4245   -0.0479 C   0  0  0  0  0  0  0  0  0  0  0  0
    2.2985   -1.2381   -0.0852 C   0  0  0  0  0  0  0  0  0  0  0  0
    4.6808   -0.9731    0.5014 C   0  0  0  0  0  0  0  0  0  0  0  0
    3.5149    0.8548   -0.5647 C   0  0  0  0  0  0  0  0  0  0  0  0
    5.8478    1.0868    0.0192 C   0  0  0  0  0  0  0  0  0  0  0  0
    5.8474   -0.2090    0.5352 C   0  0  0  0  0  0  0  0  0  0  0  0
    4.6815    1.6187   -0.5309 C   0  0  0  0  0  0  0  0  0  0  0  0
  1  7  1  0
  1  9  1  0
  2 10  1  0
  2 14  1  0
  3 14  2  0
  4  6  1  0
  4 11  1  0
  4 12  1  0
  5 17  1  0
  6  7  1  0
  8  9  1  0
  8 10  1  0
 13 14  1  0
 13 15  2  0
 13 16  1  0
 15 18  1  0
 16 19  2  0
 17 18  2  0
 17 19  1  0
M  END
>  <PUBCHEM_COMPOUND_CID>  (1) 
45320

>  <PUBCHEM_CONFORMER_RMSD>  (1) 
1

>  <PUBCHEM_CONFORMER_DIVERSEORDER>  (1) 
1
32
532
183
5
89
422
2
137
551
190
91
456
388
3
120
301
55
387
233
158
550
134
33
66
14
4
82
28
308
87
16
21
473
401
375
172
330
140
508
22
154
297
239
179
121
136
277
413
514
64
9
11
114
116
138
220
109
104
378
7
486
396
203
492
20
52
358
352
38
261
269
86
331
191
348
215
95
353
139
92
124
314
58
45

>  <PUBCHEM_MMFF94_PARTIAL_CHARGES>  (1) 
24
1 -0.56
10 0.28
11 0.27
12 0.27
13 0.09
14 0.63
15 -0.15
16 -0.15
17 0.1
18 -0.15
19 -0.15
2 -0.43
3 -0.57
36 0.15
37 0.15
38 0.15
39 0.15
4 -0.81
40 0.4
41 0.4
5 -0.9
6 0.27
7 0.28
9 0.28

>  <PUBCHEM_EFFECTIVE_ROTOR_COUNT>  (1) 
9

>  <PUBCHEM_PHARMACOPHORE_FEATURES>  (1) 
6
1 1 acceptor
1 3 acceptor
1 4 cation
1 5 cation
1 5 donor
6 13 15 16 17 18 19 rings

>  <PUBCHEM_HEAVY_ATOM_COUNT>  (1) 
19

>  <PUBCHEM_ATOM_DEF_STEREO_COUNT>  (1) 
0

>  <PUBCHEM_ATOM_UDEF_STEREO_COUNT>  (1) 
0

>  <PUBCHEM_BOND_DEF_STEREO_COUNT>  (1) 
0

>  <PUBCHEM_BOND_UDEF_STEREO_COUNT>  (1) 
0

>  <PUBCHEM_ISOTOPIC_ATOM_COUNT>  (1) 
0

>  <PUBCHEM_COMPONENT_COUNT>  (1) 
1

>  <PUBCHEM_CACTVS_TAUTO_COUNT>  (1) 
2

>  <PUBCHEM_CONFORMER_ID>  (1) 
0000B10800000001

>  <PUBCHEM_MMFF94_ENERGY>  (1) 
55.1588

>  <PUBCHEM_FEATURE_SELFOVERLAP>  (1) 
30.446

>  <PUBCHEM_SHAPE_FINGERPRINT>  (1) 
10411042 1 17977102354738280226
10595046 47 18343301432159823275
10688039 33 17312819355946655452
11315181 36 18343582942176565929
11638347 137 16805321072168745795
11724838 91 18261392286360726855
125118 31 18040437659838440637
13073987 5 16805876282992077613
13167372 99 18337954489137773824
13668630 136 9007063460855284425
13685833 64 9871750191295297015
14123256 10 17917993875947088217
14251764 18 18410572899036642637
14251764 46 18272932722542234226
14429380 56 18335128826396767365
14461889 52 18113907095494229059
14729087 3 17530960264459233029
15048467 5 18412826893351567889
15183329 4 17846782905894417649
15348495 7 16226341416283755889
15475509 35 15792276117824246842
155225 6 17680159757131868812
19427546 62 18336267924727982674
20157964 124 18408886218045348314
20281389 69 18114180813622560021
20735858 18 14851604384233453961
21130983 4 18413109455171301849
21150785 3 16917067780811496141
220451 1 17060336302385556247
221357 26 11384116332115415778
22224240 67 17749388174427427587
23035841 295 8502653706168654109
23081809 10 17203333260991633219
246663 6 11815898972702353533
28498 318 9583524205322764107
300161 21 18335138696258097099
33532 11 9655577405156032457
335352 9 18411142429586979902
3472631 163 18059578048432916340
4073 2 18114467846013165267
4325135 7 18342738511991565885
4340502 62 17240202122974060555
465052 167 8070026675232408064
58260988 587 12180426694637238390
59682541 35 18041283248799375849
67123 10 18410573982317622641

>  <PUBCHEM_SHAPE_MULTIPOLES>  (1) 
363.44
24.49
1.68
0.73
36.68
0.07
-0.05
-11.48
0.68
-1.99
-0.07
0.24
-0.02
-0.91

>  <PUBCHEM_SHAPE_SELFOVERLAP>  (1) 
726.302

>  <PUBCHEM_SHAPE_VOLUME>  (1) 
216.4

>  <PUBCHEM_COORDINATE_TYPE>  (1) 
2
5
10

$$$$
