45323
     RDKit          3D

 18 18  0  0  0  0  0  0  0  0999 V2000
   -0.3365    0.0257   -0.2110 O   0  0  0  0  0  0  0  0  0  0  0  0
    0.4402   -1.6625   -1.5695 O   0  0  0  0  0  0  0  0  0  0  0  0
   -4.0096    0.2857   -0.0483 N   0  0  0  0  0  0  0  0  0  0  0  0
    5.7814    1.1225    0.6161 N   0  0  0  0  0  0  0  0  0  0  0  0
   -2.6124    0.6057    0.2422 C   0  0  0  0  0  0  0  0  0  0  0  0
   -4.9013    1.2162    0.6430 C   0  0  0  0  0  0  0  0  0  0  0  0
   -4.3095   -1.0923    0.3384 C   0  0  0  0  0  0  0  0  0  0  0  0
   -1.6799   -0.3315   -0.5086 C   0  0  0  0  0  0  0  0  0  0  0  0
   -4.6037    2.6541    0.2528 C   0  0  0  0  0  0  0  0  0  0  0  0
   -5.7408   -1.4620   -0.0124 C   0  0  0  0  0  0  0  0  0  0  0  0
    1.9812   -0.2531   -0.4188 C   0  0  0  0  0  0  0  0  0  0  0  0
    2.6047   -0.7832    0.6930 C   0  0  0  0  0  0  0  0  0  0  0  0
    0.6289   -0.7245   -0.8106 C   0  0  0  0  0  0  0  0  0  0  0  0
    2.5767    0.7192   -1.1989 C   0  0  0  0  0  0  0  0  0  0  0  0
    3.8750   -0.3231    1.0396 C   0  0  0  0  0  0  0  0  0  0  0  0
    4.4963    0.6581    0.2670 C   0  0  0  0  0  0  0  0  0  0  0  0
    3.8471    1.1791   -0.8523 C   0  0  0  0  0  0  0  0  0  0  0  0
    1.9620   -1.8340    1.5384 C   0  0  0  0  0  0  0  0  0  0  0  0
  1  8  1  0
  1 13  1  0
  2 13  2  0
  3  5  1  0
  3  6  1  0
  3  7  1  0
  4 16  1  0
  5  8  1  0
  6  9  1  0
  7 10  1  0
 11 12  2  0
 11 13  1  0
 11 14  1  0
 12 15  1  0
 12 18  1  0
 14 17  2  0
 15 16  2  0
 16 17  1  0
M  END
>  <PUBCHEM_COMPOUND_CID>  (1) 
45323

>  <PUBCHEM_CONFORMER_RMSD>  (1) 
0.8

>  <PUBCHEM_CONFORMER_DIVERSEORDER>  (1) 
1
105
21
104
14
58
78
61
76
47
113
17
63
99
73
80
32
51
107
29
36
16
87
20
69
38
102
39
55
92
24
26
108
79
57
8
3
30
89
86
46
65
54
81
72
4
49
11
64
84
94
96
2
6
93
42
22
117
56
111
50
18
62
109
53
95
74
7
10
97
19
85
67
15
116
106
83
37
110
75
88
98
34
48
77
60
82
33
23
70
44
35
103
25
9
28
27
31
112
13
43
59
115
100
114
12
68
71
41
101
45
52
90
66
5
118
40
91

>  <PUBCHEM_MMFF94_PARTIAL_CHARGES>  (1) 
21
1 -0.43
11 0.09
12 -0.14
13 0.63
14 -0.15
15 -0.15
16 0.1
17 -0.15
18 0.14
2 -0.57
3 -0.81
33 0.15
34 0.15
35 0.15
39 0.4
4 -0.9
40 0.4
5 0.27
6 0.27
7 0.27
8 0.28

>  <PUBCHEM_EFFECTIVE_ROTOR_COUNT>  (1) 
7

>  <PUBCHEM_PHARMACOPHORE_FEATURES>  (1) 
5
1 2 acceptor
1 3 cation
1 4 cation
1 4 donor
6 11 12 14 15 16 17 rings

>  <PUBCHEM_HEAVY_ATOM_COUNT>  (1) 
18

>  <PUBCHEM_ATOM_DEF_STEREO_COUNT>  (1) 
0

>  <PUBCHEM_ATOM_UDEF_STEREO_COUNT>  (1) 
0

>  <PUBCHEM_BOND_DEF_STEREO_COUNT>  (1) 
0

>  <PUBCHEM_BOND_UDEF_STEREO_COUNT>  (1) 
0

>  <PUBCHEM_ISOTOPIC_ATOM_COUNT>  (1) 
0

>  <PUBCHEM_COMPONENT_COUNT>  (1) 
1

>  <PUBCHEM_CACTVS_TAUTO_COUNT>  (1) 
2

>  <PUBCHEM_CONFORMER_ID>  (1) 
0000B10B00000001

>  <PUBCHEM_MMFF94_ENERGY>  (1) 
52.9697

>  <PUBCHEM_FEATURE_SELFOVERLAP>  (1) 
25.371

>  <PUBCHEM_SHAPE_FINGERPRINT>  (1) 
10354089 29 18333731342933483988
10366900 7 17313111864361617084
10498660 4 17632298938911894065
10912923 1 18114184137906018169
12107183 9 17684642130866272921
12236239 1 18409729565112430976
12403259 118 18410008845028979301
12596602 18 18410009944281793849
12633257 1 16877944966403689240
12730499 353 16056606486167589910
12916748 109 17632584868027880360
13167823 11 18260829285173847907
13583140 156 18114449133214423303
14252887 29 15864352406973903690
14341114 328 18261111859218905881
15183329 4 11383840350601901697
15188451 53 15792026618562965617
15788980 27 13118002218975810019
18222031 100 15213018245909170278
19050596 39 18041001730514061893
19377110 9 18261404355809438713
20645477 56 17203325645634497567
21033648 29 16415472719414021563
21065198 48 18333727992484518435
22079108 93 18189046659315902258
221357 26 13614245862575581987
22224240 67 17240758536793910920
22289505 5 14333131832208106520
23402539 116 18113332020895116197
23402655 69 13039183727938778268
23559900 14 17912933781607638783
26918003 58 16370722651544516329
2838139 119 17559377266923061392
2916195 48 17846211202644607472
300161 21 18261107453215280733
3060560 45 13182733741516313780
314173 85 15140678055612447759
32948 21 8935004763348390831
341906 21 18272367534315006457
5104073 3 18339932511115202115
573450 72 18334009459388064363

>  <PUBCHEM_SHAPE_MULTIPOLES>  (1) 
348.73
13.33
1.92
1.18
8.12
0.44
0.09
3.75
-2.98
1.82
-0.29
-0.87
-0.3
-1.07

>  <PUBCHEM_SHAPE_SELFOVERLAP>  (1) 
703.922

>  <PUBCHEM_SHAPE_VOLUME>  (1) 
206.9

>  <PUBCHEM_COORDINATE_TYPE>  (1) 
2
5
10

$$$$
