45324
     RDKit          3D

 22 22  0  0  0  0  0  0  0  0999 V2000
   -1.3261   -3.4229    0.6550 S   0  0  0  0  0  0  0  0  0  0  0  0
   -0.1859   -1.7495   -0.9705 O   0  0  0  0  0  0  0  0  0  0  0  0
    2.6132    0.2781   -0.6625 N   0  0  0  0  0  0  0  0  0  0  0  0
   -5.0621    2.1783    0.4012 N   0  0  0  0  0  0  0  0  0  0  0  0
    2.7705    1.5380   -1.3794 C   0  0  0  0  0  0  0  0  0  0  0  0
    3.7393    0.0583    0.2467 C   0  0  0  0  0  0  0  0  0  0  0  0
    2.4940   -0.8382   -1.6022 C   0  0  0  0  0  0  0  0  0  0  0  0
    2.8321    2.7047   -0.3951 C   0  0  0  0  0  0  0  0  0  0  0  0
    3.5678   -1.2630    0.9941 C   0  0  0  0  0  0  0  0  0  0  0  0
    1.2812   -0.6421   -2.5062 C   0  0  0  0  0  0  0  0  0  0  0  0
    1.5467    2.8021    0.4274 C   0  0  0  0  0  0  0  0  0  0  0  0
    2.2917   -1.2597    1.8366 C   0  0  0  0  0  0  0  0  0  0  0  0
   -0.0067   -0.5432   -1.6997 C   0  0  0  0  0  0  0  0  0  0  0  0
    1.6142    3.9393    1.4344 C   0  0  0  0  0  0  0  0  0  0  0  0
    2.0952   -2.5846    2.5560 C   0  0  0  0  0  0  0  0  0  0  0  0
   -1.2454   -1.9584   -0.1387 C   0  0  0  0  0  0  0  0  0  0  0  0
   -2.2348   -0.8866    0.0016 C   0  0  0  0  0  0  0  0  0  0  0  0
   -3.3295   -0.8472   -0.8529 C   0  0  0  0  0  0  0  0  0  0  0  0
   -2.0664    0.0782    0.9871 C   0  0  0  0  0  0  0  0  0  0  0  0
   -4.2709    0.1735   -0.7198 C   0  0  0  0  0  0  0  0  0  0  0  0
   -3.0079    1.0987    1.1202 C   0  0  0  0  0  0  0  0  0  0  0  0
   -4.1103    1.1464    0.2668 C   0  0  0  0  0  0  0  0  0  0  0  0
  1 16  2  0
  2 13  1  0
  2 16  1  0
  3  5  1  0
  3  6  1  0
  3  7  1  0
  4 22  1  0
  5  8  1  0
  6  9  1  0
  7 10  1  0
  8 11  1  0
  9 12  1  0
 10 13  1  0
 11 14  1  0
 12 15  1  0
 16 17  1  0
 17 18  2  0
 17 19  1  0
 18 20  1  0
 19 21  2  0
 20 22  2  0
 21 22  1  0
M  END
>  <PUBCHEM_COMPOUND_CID>  (1) 
45324

>  <PUBCHEM_CONFORMER_RMSD>  (1) 
1

>  <PUBCHEM_CONFORMER_DIVERSEORDER>  (1) 
1
62
71
30
302
154
133
54
189
135
78
152
77
91
46
11
111
48
2
289
119
210
200
73
188
278
179
265
109
89
216
67
282
39
222
285
305
104
269
248
280
120
107
171
127
294
51
220
161
87
125
271
199
299
261
249
140
258
287
310
83
98
155
203
95
308
134
288
5
80
239
279
283
190
68
284
224
131
22
201
186
163
16
31
129
166
25
40
88
175
17
93
58
149
303
255
10
100
35
167
20
238
69
306
82
204
126
44
47
304
219
233
227
293
259
143
202
52
172
34
275
21
79
92
237
251
6
158
207
141
301
85
36
64
7
160
139
270
63
312
300
116
236
212
263
108
173
245
213
60
81
231
146
211
266
148
23
178
272
162
137
264
110
28
232
256
157
185
244
187
260
74
168
215
229
252
180
311
76
208
37
165
147
209
170
130
103
42
13
53
57
3
75
176
291
247
205
99
191
174
153
169
8
307
225
14
253
106
193
33
138
144
196
223
26
114
41
123
214
268
206
298
96
290
122
267
50
45
276
70
145
124
241
235
118
121
296
243
159
43
221
4
132
90
240
55
197
181
15
61
254
273
9
32
295
72
102
105
136
313
156
309
128
217
257
12
27
86
230
94
262
281
66
226
65
59
49
184
292
234
29
115
246
277
274
84
19
177
182
250
38
142
297
151
198
195
228
24
117
56
183
150
97
18
164
218
113
286
192
194
242
112
101

>  <PUBCHEM_MMFF94_PARTIAL_CHARGES>  (1) 
21
1 -0.38
13 0.28
16 0.44
17 0.09
18 -0.15
19 -0.15
2 -0.43
20 -0.15
21 -0.15
22 0.1
3 -0.81
4 -0.9
47 0.15
48 0.15
49 0.15
5 0.27
50 0.15
51 0.4
52 0.4
6 0.27
7 0.27

>  <PUBCHEM_EFFECTIVE_ROTOR_COUNT>  (1) 
12

>  <PUBCHEM_PHARMACOPHORE_FEATURES>  (1) 
7
1 1 acceptor
1 14 hydrophobe
1 15 hydrophobe
1 3 cation
1 4 cation
1 4 donor
6 17 18 19 20 21 22 rings

>  <PUBCHEM_HEAVY_ATOM_COUNT>  (1) 
22

>  <PUBCHEM_ATOM_DEF_STEREO_COUNT>  (1) 
0

>  <PUBCHEM_ATOM_UDEF_STEREO_COUNT>  (1) 
0

>  <PUBCHEM_BOND_DEF_STEREO_COUNT>  (1) 
0

>  <PUBCHEM_BOND_UDEF_STEREO_COUNT>  (1) 
0

>  <PUBCHEM_ISOTOPIC_ATOM_COUNT>  (1) 
0

>  <PUBCHEM_COMPONENT_COUNT>  (1) 
1

>  <PUBCHEM_CACTVS_TAUTO_COUNT>  (1) 
2

>  <PUBCHEM_CONFORMER_ID>  (1) 
0000B10C00000001

>  <PUBCHEM_MMFF94_ENERGY>  (1) 
58.201

>  <PUBCHEM_FEATURE_SELFOVERLAP>  (1) 
35.52

>  <PUBCHEM_SHAPE_FINGERPRINT>  (1) 
10064457 181 17532386429386875786
11221954 11 18129112288638177069
12403259 327 18407760334959458094
12633257 1 18409446968669305708
12670546 177 13254495558114681589
13583140 156 18040719190659853155
14081887 123 17324925249551369218
14178342 30 17533778470868228894
14251764 38 18272366525140376325
14957384 54 18342737463755684724
15238133 3 18409453570556357284
15848702 68 18409725158196774356
17980427 23 17915997162440702392
192875 21 18131627885443467773
20600515 1 18200867384066381354
22749437 52 18060426845249586069
23419403 2 14083989575851084614
23557571 272 17203315729003787151
23558518 356 18047757280342185627
23559900 14 17988088781199311991
3052486 1 17835532522314089196
345986 75 17681536057699214082
35225 105 17319898183361758506
3680242 22 18195536896029569241
474 4 18201731617448914311
5895379 119 17845943935140332088
5939293 188 18272936024634145772
7097593 13 18334283267468811066
8509985 295 18263359200998994961

>  <PUBCHEM_SHAPE_MULTIPOLES>  (1) 
440.77
7.98
3.96
2.11
6.19
1.56
0.15
3.52
-0.64
-1.47
-2.31
-1.63
-0.81
-1.08

>  <PUBCHEM_SHAPE_SELFOVERLAP>  (1) 
860.833

>  <PUBCHEM_SHAPE_VOLUME>  (1) 
267.9

>  <PUBCHEM_COORDINATE_TYPE>  (1) 
2
5
10

$$$$
