45337
     RDKit          3D

 20 21  0  0  1  0  0  0  0  0999 V2000
    0.6989    3.6495   -2.3579 Cl  0  0  0  0  0  0  0  0  0  0  0  0
   -0.6637   -1.2165   -0.0687 O   0  0  0  0  0  0  0  0  0  0  0  0
   -4.3389   -0.9962   -0.2438 N   0  0  0  0  0  0  0  0  0  0  0  0
    0.3542   -0.5606    0.6749 C   0  0  0  0  0  0  0  0  0  0  0  0
    0.2705    0.9471    0.5351 C   0  0  0  0  0  0  0  0  0  0  0  0
    1.7128   -1.1128    0.2966 C   0  0  0  0  0  0  0  0  0  0  0  0
   -1.9540   -0.7206    0.2631 C   0  0  0  0  0  0  0  0  0  0  0  0
   -2.9905   -1.4627   -0.5653 C   0  0  0  0  0  0  0  0  0  0  0  0
    0.4975    1.5220   -0.7017 C   0  0  0  0  0  0  0  0  0  0  0  0
   -0.0318    1.7095    1.6483 C   0  0  0  0  0  0  0  0  0  0  0  0
    2.7237   -1.1225    1.2413 C   0  0  0  0  0  0  0  0  0  0  0  0
    1.9117   -1.5956   -0.9846 C   0  0  0  0  0  0  0  0  0  0  0  0
   -5.3306   -1.7006   -1.0554 C   0  0  0  0  0  0  0  0  0  0  0  0
   -4.6179   -1.1822    1.1797 C   0  0  0  0  0  0  0  0  0  0  0  0
    0.4195    2.9088   -0.8298 C   0  0  0  0  0  0  0  0  0  0  0  0
   -0.1097    3.0961    1.5202 C   0  0  0  0  0  0  0  0  0  0  0  0
    3.9748   -1.6313    0.8931 C   0  0  0  0  0  0  0  0  0  0  0  0
    3.1630   -2.1046   -1.3326 C   0  0  0  0  0  0  0  0  0  0  0  0
    0.1159    3.6958    0.2812 C   0  0  0  0  0  0  0  0  0  0  0  0
    4.1945   -2.1223   -0.3937 C   0  0  0  0  0  0  0  0  0  0  0  0
  1 15  1  0
  2  4  1  0
  2  7  1  0
  3  8  1  0
  3 13  1  0
  3 14  1  0
  4  5  1  0
  4  6  1  0
  5  9  2  0
  5 10  1  0
  6 11  2  0
  6 12  1  0
  7  8  1  0
  9 15  1  0
 10 16  2  0
 11 17  1  0
 12 18  2  0
 15 19  2  0
 16 19  1  0
 17 20  2  0
 18 20  1  0
M  END
>  <PUBCHEM_COMPOUND_CID>  (1) 
45337

>  <PUBCHEM_CONFORMER_RMSD>  (1) 
0.8

>  <PUBCHEM_CONFORMER_DIVERSEORDER>  (1) 
3
39
18
25
45
47
44
23
49
29
48
38
30
34
41
36
26
40
20
19
50
42
12
46
31
17
43
13
37
6
28
51
16
14
24
15
32
22
4
2
52
27
21
5
33
9
35
7
8
1
10
11

>  <PUBCHEM_MMFF94_PARTIAL_CHARGES>  (1) 
29
1 -0.18
10 -0.15
11 -0.15
12 -0.15
13 0.27
14 0.27
15 0.18
16 -0.15
17 -0.15
18 -0.15
19 -0.15
2 -0.56
20 -0.15
26 0.15
27 0.15
28 0.15
29 0.15
3 -0.81
36 0.15
37 0.15
38 0.15
39 0.15
4 0.57
40 0.15
5 -0.14
6 -0.14
7 0.28
8 0.27
9 -0.15

>  <PUBCHEM_EFFECTIVE_ROTOR_COUNT>  (1) 
6

>  <PUBCHEM_PHARMACOPHORE_FEATURES>  (1) 
4
1 2 acceptor
1 3 cation
6 5 9 10 15 16 19 rings
6 6 11 12 17 18 20 rings

>  <PUBCHEM_HEAVY_ATOM_COUNT>  (1) 
20

>  <PUBCHEM_ATOM_DEF_STEREO_COUNT>  (1) 
0

>  <PUBCHEM_ATOM_UDEF_STEREO_COUNT>  (1) 
1

>  <PUBCHEM_BOND_DEF_STEREO_COUNT>  (1) 
0

>  <PUBCHEM_BOND_UDEF_STEREO_COUNT>  (1) 
0

>  <PUBCHEM_ISOTOPIC_ATOM_COUNT>  (1) 
0

>  <PUBCHEM_COMPONENT_COUNT>  (1) 
1

>  <PUBCHEM_CACTVS_TAUTO_COUNT>  (1) 
1

>  <PUBCHEM_CONFORMER_ID>  (1) 
0000B11900000003

>  <PUBCHEM_MMFF94_ENERGY>  (1) 
57.1899

>  <PUBCHEM_FEATURE_SELFOVERLAP>  (1) 
20.297

>  <PUBCHEM_SHAPE_FINGERPRINT>  (1) 
11045515 52 18261676986657228318
11265709 11 18340776965624762386
121448 382 17331371204977504188
12173636 292 17118605775344655320
12617007 42 18409163337729912035
12788726 201 18263646178098240250
13004483 165 18340197488780000610
13009979 54 17845952791895536307
13134695 92 18272079548183601533
13149001 5 18042412493963944659
13294875 104 17698441375040674473
133893 2 18119268361208797953
13533116 47 18195812002139829635
13681431 1 18337679718678507920
14004458 79 18044656399700943204
14181834 199 18270113664026189539
14347329 18 16228550168193758639
17357779 13 18127953257443050053
17539 30 18123185710400147637
1813 80 18411986844835257783
18222031 100 18343015592826946511
18785283 64 17753052992284242857
20388580 30 18410577309667394855
20600515 1 18334855021910043002
20671657 1 18126002908831499075
21041028 32 18413110550388137793
21304303 282 17034118275115397892
21524375 3 17399791000301548537
22112679 90 18124064293279174112
2255824 54 18264486359558394371
22849341 161 18199211558357505459
23419403 2 18123718011588692544
23557571 272 18340202986670253938
23559900 14 17968931028832519739
283562 15 18265613182883316474
312423 11 18199477730846054291
57210444 14 17325229796870757148
57262259 84 18266457594511224046
58260988 587 17317355004756741637
621550 34 17917415515936280866
6442390 28 17190955851843509136
6443956 14 18342733048513460467
6786 2 17106522648970596068
7164475 11 18044936771182827318
7364860 26 18126561447526252081
7399639 24 17987783134874776146
7471813 234 18131343151039915689
7495541 125 17895204354341880563
81228 2 18193851344339977290
9841814 1 18188197801642216419
9925002 15 18194708989090295084
9971528 1 18202278121957202635
9981440 41 14133046185051658670

>  <PUBCHEM_SHAPE_MULTIPOLES>  (1) 
402.61
7.54
4.6
1.7
8.11
6.01
0.3
-10.86
0.82
-1.11
1.34
-0.25
1.16
-0.49

>  <PUBCHEM_SHAPE_SELFOVERLAP>  (1) 
833.961

>  <PUBCHEM_SHAPE_VOLUME>  (1) 
232.1

>  <PUBCHEM_COORDINATE_TYPE>  (1) 
2
5
10

$$$$
