45335
     RDKit          3D

 24 25  0  0  0  0  0  0  0  0999 V2000
    0.1600    5.6520   -1.6241 Cl  0  0  0  0  0  0  0  0  0  0  0  0
    3.1700    0.4238    1.1829 O   0  0  0  0  0  0  0  0  0  0  0  0
   -3.2352    0.6012    1.1321 O   0  0  0  0  0  0  0  0  0  0  0  0
    0.0180    2.0726    0.2175 N   0  0  0  0  0  0  0  0  0  0  0  0
    1.3343    1.9175    0.8357 C   0  0  0  0  0  0  0  0  0  0  0  0
   -1.0199    1.5014    1.0749 C   0  0  0  0  0  0  0  0  0  0  0  0
   -0.2585    3.4838   -0.0488 C   0  0  0  0  0  0  0  0  0  0  0  0
    1.8862    0.5239    0.5808 C   0  0  0  0  0  0  0  0  0  0  0  0
   -2.2621    1.1677    0.2645 C   0  0  0  0  0  0  0  0  0  0  0  0
    0.4759    3.9300   -1.3036 C   0  0  0  0  0  0  0  0  0  0  0  0
    4.0614   -0.4373    0.5980 C   0  0  0  0  0  0  0  0  0  0  0  0
   -4.1147   -0.2905    0.5759 C   0  0  0  0  0  0  0  0  0  0  0  0
    5.4303   -0.1792    0.6697 C   0  0  0  0  0  0  0  0  0  0  0  0
   -4.6478   -1.3205    1.3510 C   0  0  0  0  0  0  0  0  0  0  0  0
    3.5995   -1.5723   -0.0686 C   0  0  0  0  0  0  0  0  0  0  0  0
   -4.4773   -0.1677   -0.7655 C   0  0  0  0  0  0  0  0  0  0  0  0
    5.8756   -2.1910   -0.5918 C   0  0  0  0  0  0  0  0  0  0  0  0
   -5.9058   -2.1049   -0.5565 C   0  0  0  0  0  0  0  0  0  0  0  0
    6.3373   -1.0562    0.0749 C   0  0  0  0  0  0  0  0  0  0  0  0
   -5.5434   -2.2276    0.7848 C   0  0  0  0  0  0  0  0  0  0  0  0
    4.5066   -2.4490   -0.6635 C   0  0  0  0  0  0  0  0  0  0  0  0
   -5.3728   -1.0748   -1.3316 C   0  0  0  0  0  0  0  0  0  0  0  0
    6.8458   -3.1281   -1.2275 C   0  0  0  0  0  0  0  0  0  0  0  0
   -6.8634   -3.0749   -1.1612 C   0  0  0  0  0  0  0  0  0  0  0  0
  1 10  1  0
  2  8  1  0
  2 11  1  0
  3  9  1  0
  3 12  1  0
  4  5  1  0
  4  6  1  0
  4  7  1  0
  5  8  1  0
  6  9  1  0
  7 10  1  0
 11 13  2  0
 11 15  1  0
 12 14  2  0
 12 16  1  0
 13 19  1  0
 14 20  1  0
 15 21  2  0
 16 22  2  0
 17 19  2  0
 17 21  1  0
 17 23  1  0
 18 20  2  0
 18 22  1  0
 18 24  1  0
M  END
>  <PUBCHEM_COMPOUND_CID>  (1) 
45335

>  <PUBCHEM_CONFORMER_RMSD>  (1) 
1

>  <PUBCHEM_CONFORMER_DIVERSEORDER>  (1) 
1
167
198
65
138
10
95
123
119
208
107
210
117
96
202
20
150
152
56
159
189
67
36
192
177
44
190
130
49
59
186
166
46
131
9
213
60
216
102
48
94
181
11
105
121
145
206
50
172
97
185
164
41
25
61
137
111
70
133
104
75
53
136
64
187
88
142
199
38
191
57
157
153
109
149
16
182
196
86
158
175
140
135
116
100
5
85
127
91
71
87
173
118
124
54
37
179
98
178
200
201
203
8
14
165
132
169
30
6
83
15
7
144
212
40
89
78
76
211
155
80
120
217
115
2
55
52
42
18
45
114
79
170
99
143
43
90
128
68
207
134
29
51
35
110
205
39
204
163
147
160
33
47
63
3
113
171
21
195
156
174
139
19
112
209
58
168
92
180
73
194
23
69
141
26
148
193
84
28
108
101
72
82
125
161
31
122
62
126
106
34
184
151
93
81
154
27
214
215
66
188
32
13
146
74
162
183
197
129
176
77
103
12
17
4
22
24

>  <PUBCHEM_MMFF94_PARTIAL_CHARGES>  (1) 
32
1 -0.29
10 0.29
11 0.08
12 0.08
13 -0.15
14 -0.15
15 -0.15
16 -0.15
17 -0.14
18 -0.14
19 -0.15
2 -0.36
20 -0.15
21 -0.15
22 -0.15
23 0.14
24 0.14
3 -0.36
37 0.15
38 0.15
39 0.15
4 -0.81
40 0.15
41 0.15
42 0.15
43 0.15
44 0.15
5 0.27
6 0.27
7 0.27
8 0.28
9 0.28

>  <PUBCHEM_EFFECTIVE_ROTOR_COUNT>  (1) 
10

>  <PUBCHEM_PHARMACOPHORE_FEATURES>  (1) 
5
1 2 acceptor
1 3 acceptor
1 4 cation
6 11 13 15 17 19 21 rings
6 12 14 16 18 20 22 rings

>  <PUBCHEM_HEAVY_ATOM_COUNT>  (1) 
24

>  <PUBCHEM_ATOM_DEF_STEREO_COUNT>  (1) 
0

>  <PUBCHEM_ATOM_UDEF_STEREO_COUNT>  (1) 
0

>  <PUBCHEM_BOND_DEF_STEREO_COUNT>  (1) 
0

>  <PUBCHEM_BOND_UDEF_STEREO_COUNT>  (1) 
0

>  <PUBCHEM_ISOTOPIC_ATOM_COUNT>  (1) 
0

>  <PUBCHEM_COMPONENT_COUNT>  (1) 
1

>  <PUBCHEM_CACTVS_TAUTO_COUNT>  (1) 
1

>  <PUBCHEM_CONFORMER_ID>  (1) 
0000B11700000001

>  <PUBCHEM_MMFF94_ENERGY>  (1) 
69.3508

>  <PUBCHEM_FEATURE_SELFOVERLAP>  (1) 
25.371

>  <PUBCHEM_SHAPE_FINGERPRINT>  (1) 
10042902 136 18341620282643073620
11059845 2 17630629833696922137
11069576 57 18123185981548109525
11135609 201 8934992673221155397
11497681 19 18271813406857212292
12623949 98 17988651796157010564
12633257 1 15051445063662315441
13757389 114 18047475522025448949
13782708 43 18201719488820577170
14251740 57 18343015631554843048
14251764 30 18343019969582984118
14556957 393 17677635085049501932
14950920 106 15985095336502847731
15510800 12 18335703909691374371
17539 30 18117271458814275132
19438510 23 9223237360018917397
20715895 44 10665230350225359894
21307412 95 18267015073288597397
21365058 113 18260550060654473293
21424621 283 9007053574077647014
21682296 61 18343302591653735331
21774942 28 13479399562260261758
229767 8 17772484391385675174
23559900 14 18116144662007613673
255183 451 18336825398603103933
270888 7 7853575707892008035
2748736 6 10809345567896787302
2838139 119 11746939797640769650
3014063 24 18059569230860035911
3057174 1 17249508625573027677
444735 86 18263359209900842010
46194498 28 17824811476806017557
6431902 208 18343864398649996779
7970288 3 18343017826415655775

>  <PUBCHEM_SHAPE_MULTIPOLES>  (1) 
479.06
18.97
5.76
1.41
0.9
9.14
-0.19
-28.95
-4.08
0.69
-3.91
-0.69
0.33
0.63

>  <PUBCHEM_SHAPE_SELFOVERLAP>  (1) 
973.941

>  <PUBCHEM_SHAPE_VOLUME>  (1) 
281.6

>  <PUBCHEM_COORDINATE_TYPE>  (1) 
2
5
10

$$$$
