45349
     RDKit          3D

 16 16  0  0  1  0  0  0  0  0999 V2000
   -4.8782   -2.9784    0.2996 Cl  0  0  0  0  0  0  0  0  0  0  0  0
    0.6128    0.6623    0.9779 O   0  0  0  0  0  0  0  0  0  0  0  0
   -2.8398    0.4707   -0.2981 N   0  0  0  0  0  0  0  0  0  0  0  0
   -1.6754    1.0310    0.3867 C   0  0  0  0  0  0  0  0  0  0  0  0
   -3.2278   -0.8012    0.3106 C   0  0  0  0  0  0  0  0  0  0  0  0
   -3.9561    1.4150   -0.2643 C   0  0  0  0  0  0  0  0  0  0  0  0
   -0.4983    0.0713    0.3168 C   0  0  0  0  0  0  0  0  0  0  0  0
   -4.4032   -1.4228   -0.4269 C   0  0  0  0  0  0  0  0  0  0  0  0
   -3.5906    2.7217   -0.9476 C   0  0  0  0  0  0  0  0  0  0  0  0
    1.8586    0.3044    0.5329 C   0  0  0  0  0  0  0  0  0  0  0  0
    2.0566   -0.9586   -0.0133 C   0  0  0  0  0  0  0  0  0  0  0  0
    2.9114    1.2066    0.6328 C   0  0  0  0  0  0  0  0  0  0  0  0
    4.3857   -0.4243   -0.3688 C   0  0  0  0  0  0  0  0  0  0  0  0
    3.3243   -1.3242   -0.4657 C   0  0  0  0  0  0  0  0  0  0  0  0
    4.1791    0.8412    0.1804 C   0  0  0  0  0  0  0  0  0  0  0  0
    5.7410   -0.8145   -0.8531 C   0  0  0  0  0  0  0  0  0  0  0  0
  1  8  1  0
  2  7  1  0
  2 10  1  0
  3  4  1  0
  3  5  1  0
  3  6  1  0
  4  7  1  0
  5  8  1  0
  6  9  1  0
 10 11  2  0
 10 12  1  0
 11 14  1  0
 12 15  2  0
 13 14  2  0
 13 15  1  0
 13 16  1  0
M  END
>  <PUBCHEM_COMPOUND_CID>  (1) 
45349

>  <PUBCHEM_CONFORMER_RMSD>  (1) 
0.8

>  <PUBCHEM_CONFORMER_DIVERSEORDER>  (1) 
1
100
42
74
24
60
26
89
44
9
54
48
97
66
68
80
85
104
56
8
70
11
43
27
36
29
96
41
16
91
46
62
35
59
21
23
19
51
92
3
33
93
6
47
84
81
37
55
88
103
86
17
4
99
64
57
58
15
22
34
45
30
20
10
72
78
102
76
94
69
75
28
2
18
90
87
14
65
105
49
79
95
71
73
32
61
77
13
52
38
25
106
98
67
63
101
39
5
83
40
12
50
31
82
7
53

>  <PUBCHEM_MMFF94_PARTIAL_CHARGES>  (1) 
19
1 -0.29
10 0.08
11 -0.15
12 -0.15
13 -0.14
14 -0.15
15 -0.15
16 0.14
2 -0.36
3 -0.81
30 0.15
31 0.15
32 0.15
33 0.15
4 0.27
5 0.27
6 0.27
7 0.28
8 0.29

>  <PUBCHEM_EFFECTIVE_ROTOR_COUNT>  (1) 
7

>  <PUBCHEM_PHARMACOPHORE_FEATURES>  (1) 
3
1 2 acceptor
1 3 cation
6 10 11 12 13 14 15 rings

>  <PUBCHEM_HEAVY_ATOM_COUNT>  (1) 
16

>  <PUBCHEM_ATOM_DEF_STEREO_COUNT>  (1) 
0

>  <PUBCHEM_ATOM_UDEF_STEREO_COUNT>  (1) 
0

>  <PUBCHEM_BOND_DEF_STEREO_COUNT>  (1) 
0

>  <PUBCHEM_BOND_UDEF_STEREO_COUNT>  (1) 
0

>  <PUBCHEM_ISOTOPIC_ATOM_COUNT>  (1) 
0

>  <PUBCHEM_COMPONENT_COUNT>  (1) 
1

>  <PUBCHEM_CACTVS_TAUTO_COUNT>  (1) 
1

>  <PUBCHEM_CONFORMER_ID>  (1) 
0000B12500000001

>  <PUBCHEM_MMFF94_ENERGY>  (1) 
40.2784

>  <PUBCHEM_FEATURE_SELFOVERLAP>  (1) 
15.223

>  <PUBCHEM_SHAPE_FINGERPRINT>  (1) 
10680689 15 18261397732600810761
11056379 131 18334576850221793823
11796584 16 18266739078690279354
12916754 54 18342461486432363785
14350574 20 18271813449205660802
17844677 252 18411143545149725024
17870717 6 18411139121839403367
18186145 218 18340767057177460832
193927 3 17346331370928137134
1986462 14 18410575076374006597
200 152 17060052601819136176
20645477 56 18261956228942509109
20645477 70 17775282712437494022
20871999 31 18334292059218918885
21065201 7 18336817637074635833
21426921 1 18335420158507940613
21709351 56 18408884027664606404
21713013 43 18411699885158618149
221490 88 18343584070571537368
22393880 68 18409727322844408590
22943178 12 18271514360415212145
23402539 116 17821730503406301820
23402655 69 18336829667689689484
23557571 272 18411140212471264501
23559900 14 18343012268627475416
2871803 45 18337383937466895371
3268164 11 17531239557022747661
3545911 37 18411419462628561225
4214541 1 18412262813885278617
4990 188 18412827958761939606
5104073 3 18272930522701406050
5281201 14 18411702101588920956
58051976 100 18411696574123935349
59755656 520 18269838606701797193
633830 44 16515974644459716176
77779 3 18412544301419778560

>  <PUBCHEM_SHAPE_MULTIPOLES>  (1) 
320.29
12.86
2.47
0.87
2.76
0.29
0.03
4.66
2.7
-4.77
0.35
0.15
-0.14
1.47

>  <PUBCHEM_SHAPE_SELFOVERLAP>  (1) 
626.547

>  <PUBCHEM_SHAPE_VOLUME>  (1) 
195.7

>  <PUBCHEM_COORDINATE_TYPE>  (1) 
2
5
10

$$$$
