4534
     RDKit          3D

 22 23  0  0  1  0  0  0  0  0999 V2000
   -6.3127    1.3280   -0.5018 O   0  0  0  0  0  0  0  0  0  0  0  0
    6.3198    1.3258    0.4710 O   0  0  0  0  0  0  0  0  0  0  0  0
   -6.8696   -1.3940   -0.4109 O   0  0  0  0  0  0  0  0  0  0  0  0
    6.8719   -1.3973    0.3878 O   0  0  0  0  0  0  0  0  0  0  0  0
   -0.7577    0.5734   -0.2034 C   0  0  0  0  0  0  0  0  0  0  0  0
    0.7434    0.5854    0.2299 C   0  0  0  0  0  0  0  0  0  0  0  0
   -1.7399    0.4966    0.9886 C   0  0  0  0  0  0  0  0  0  0  0  0
    1.7287    0.4933   -0.9613 C   0  0  0  0  0  0  0  0  0  0  0  0
   -1.0734    1.7874   -1.0937 C   0  0  0  0  0  0  0  0  0  0  0  0
    1.1173    1.8042    1.0855 C   0  0  0  0  0  0  0  0  0  0  0  0
   -3.1147   -0.0069    0.6127 C   0  0  0  0  0  0  0  0  0  0  0  0
    3.1051   -0.0094   -0.5996 C   0  0  0  0  0  0  0  0  0  0  0  0
   -4.0855    0.9015    0.2249 C   0  0  0  0  0  0  0  0  0  0  0  0
    4.0837    0.8989   -0.2272 C   0  0  0  0  0  0  0  0  0  0  0  0
   -3.3762   -1.3658    0.6643 C   0  0  0  0  0  0  0  0  0  0  0  0
    3.3661   -1.3697   -0.6465 C   0  0  0  0  0  0  0  0  0  0  0  0
   -5.3544    0.4373   -0.1215 C   0  0  0  0  0  0  0  0  0  0  0  0
    5.3559    0.4347    0.1066 C   0  0  0  0  0  0  0  0  0  0  0  0
   -4.6452   -1.8299    0.3181 C   0  0  0  0  0  0  0  0  0  0  0  0
    4.6384   -1.8338   -0.3128 C   0  0  0  0  0  0  0  0  0  0  0  0
   -5.6343   -0.9283   -0.0748 C   0  0  0  0  0  0  0  0  0  0  0  0
    5.6334   -0.9316    0.0639 C   0  0  0  0  0  0  0  0  0  0  0  0
  1 17  1  0
  2 18  1  0
  3 21  1  0
  4 22  1  0
  5  6  1  0
  5  7  1  0
  5  9  1  0
  6  8  1  0
  6 10  1  0
  7 11  1  0
  8 12  1  0
 11 13  2  0
 11 15  1  0
 12 14  2  0
 12 16  1  0
 13 17  1  0
 14 18  1  0
 15 19  2  0
 16 20  2  0
 17 21  2  0
 18 22  2  0
 19 21  1  0
 20 22  1  0
M  END
>  <PUBCHEM_COMPOUND_CID>  (1) 
4534

>  <PUBCHEM_CONFORMER_RMSD>  (1) 
0.8

>  <PUBCHEM_CONFORMER_DIVERSEORDER>  (1) 
1
6
143
155
33
14
148
98
93
12
86
7
65
67
158
140
11
149
8
4
108
144
18
2
159
120
157
59
123
160
147
53
154
156
124
125
171
96
77
31
63
3
133
50
161
64
151
129
92
44
115
51
19
126
112
169
95
91
66
141
73
70
60
37
58
5
13
39
152
97
94
122
17
150
34
121
47
116
57
52
38
32
55
82
45
168
128
61
166
56
35
28
109
139
130
164
137
138
87
142
100
135
83
40
15
10
29
36
54
88
153
162
78
75
170
30
76
85
9
79
90
113
127
68
107
16
103
49
89
72
62
81
114
132
48
145
74
111
163
134
117
41
84
110
165
104
21
131
42
136
118
80
106
119
43
46
101
167
146
172
20
25
22
99
23
24
71
102
27
105
69
26

>  <PUBCHEM_MMFF94_PARTIAL_CHARGES>  (1) 
28
1 -0.53
11 -0.14
12 -0.14
13 -0.15
14 -0.15
15 -0.15
16 -0.15
17 0.08
18 0.08
19 -0.15
2 -0.53
20 -0.15
21 0.08
22 0.08
3 -0.53
35 0.15
36 0.15
37 0.15
38 0.15
39 0.15
4 -0.53
40 0.15
41 0.45
42 0.45
43 0.45
44 0.45
7 0.14
8 0.14

>  <PUBCHEM_EFFECTIVE_ROTOR_COUNT>  (1) 
5

>  <PUBCHEM_PHARMACOPHORE_FEATURES>  (1) 
9
1 1 donor
1 10 hydrophobe
1 2 donor
1 3 donor
1 4 donor
1 9 hydrophobe
4 5 6 7 8 hydrophobe
6 11 13 15 17 19 21 rings
6 12 14 16 18 20 22 rings

>  <PUBCHEM_HEAVY_ATOM_COUNT>  (1) 
22

>  <PUBCHEM_ATOM_DEF_STEREO_COUNT>  (1) 
0

>  <PUBCHEM_ATOM_UDEF_STEREO_COUNT>  (1) 
2

>  <PUBCHEM_BOND_DEF_STEREO_COUNT>  (1) 
0

>  <PUBCHEM_BOND_UDEF_STEREO_COUNT>  (1) 
0

>  <PUBCHEM_ISOTOPIC_ATOM_COUNT>  (1) 
0

>  <PUBCHEM_COMPONENT_COUNT>  (1) 
1

>  <PUBCHEM_CACTVS_TAUTO_COUNT>  (1) 
171

>  <PUBCHEM_CONFORMER_ID>  (1) 
000011B600000001

>  <PUBCHEM_MMFF94_ENERGY>  (1) 
57.5786

>  <PUBCHEM_FEATURE_SELFOVERLAP>  (1) 
46.063

>  <PUBCHEM_SHAPE_FINGERPRINT>  (1) 
10 15 18272361015187608568
10354089 29 12751240302915761754
10366900 7 15482672376950938467
10447042 23 18272651238400647686
106641 1 15985098639179534954
10670039 82 13912596135064639407
10835480 77 18412259549431033073
11315181 36 18202568384653084009
11719270 70 18272368664044743310
11796584 16 18334016085774003115
12236239 1 18410857659151417347
12516196 113 18131634486602395529
12596602 18 16773804683808304378
12616971 3 16878236324047251357
12730499 353 10375872983197808796
13288520 33 18411701007036424417
13402501 40 18410858762958597079
13533116 47 17096078092246045890
13685833 64 18410298038415030507
13899415 154 16702305680859350856
14251732 16 18341612650676268104
14251751 18 18408888459664465711
14251752 14 17822003177921176413
14251764 18 18343869931168630577
14294032 229 15720784698453617021
14848160 23 18411702088418838098
14849402 71 11959430336873059594
15119646 104 16733254660985036930
15183329 4 16515682238775555611
15188451 53 18260260829362165698
15788980 27 17967822647205285793
17492 89 17973731573877113715
17857418 61 18409450271420099858
18222031 100 17240488001146337004
18335252 114 11674869035307309187
19489759 90 18411139121902778121
20028762 73 18270400486976818342
20374829 77 18260831492538715249
20511986 3 18410565193353792482
21033648 29 13182457690424071363
21623969 137 18059858350725351694
22224240 67 15841545271860386702
23198884 109 14273455886219317743
23402539 116 17967252000776082189
23536379 177 18333733515786106625
23559900 14 18341324587409935217
23622692 88 15697996353267961368
26918003 58 18343303651940471032
29717793 49 17240207612669803510
3004659 81 18187366519596677378
3009799 131 16298103220208302876
347723 3 15647053763355099892
4073 2 18113905999960920738
4325135 7 18408888468977223412
465052 167 17917996070801860164
5104073 3 18200027331908965544
5283173 99 18262234417799947829
542803 24 9151174233646438689
559249 180 18334858303839809931
59682541 35 18130777981021108090
59755656 215 17603585192947787034
59755656 520 15068347804740862969
67856867 119 18337396070385737156
7495541 125 18201438107921534408

>  <PUBCHEM_SHAPE_MULTIPOLES>  (1) 
429.27
18.5
1.9
0.93
0
0.28
0
6.02
-0.09
-0.01
0
0.02
-0.2
0.55

>  <PUBCHEM_SHAPE_SELFOVERLAP>  (1) 
905.091

>  <PUBCHEM_SHAPE_VOLUME>  (1) 
242.2

>  <PUBCHEM_COORDINATE_TYPE>  (1) 
2
5
10

$$$$
