45357
     RDKit          3D

 17 17  0  0  1  0  0  0  0  0999 V2000
   -5.3317   -2.8229    0.3658 Cl  0  0  0  0  0  0  0  0  0  0  0  0
    0.3344    0.5562    0.9522 O   0  0  0  0  0  0  0  0  0  0  0  0
   -3.1309    0.5116   -0.3025 N   0  0  0  0  0  0  0  0  0  0  0  0
   -1.9366    1.0261    0.3663 C   0  0  0  0  0  0  0  0  0  0  0  0
   -3.5769   -0.7291    0.3303 C   0  0  0  0  0  0  0  0  0  0  0  0
   -4.1996    1.5097   -0.2795 C   0  0  0  0  0  0  0  0  0  0  0  0
   -0.8081    0.0089    0.3072 C   0  0  0  0  0  0  0  0  0  0  0  0
   -4.7857   -1.3051   -0.3902 C   0  0  0  0  0  0  0  0  0  0  0  0
   -3.7749    2.7852   -0.9875 C   0  0  0  0  0  0  0  0  0  0  0  0
    1.5585    0.1301    0.5071 C   0  0  0  0  0  0  0  0  0  0  0  0
    3.8986    0.5508    0.1254 C   0  0  0  0  0  0  0  0  0  0  0  0
    4.0405   -0.7324   -0.4027 C   0  0  0  0  0  0  0  0  0  0  0  0
    2.6535    0.9835    0.5819 C   0  0  0  0  0  0  0  0  0  0  0  0
    1.6922   -1.1502   -0.0182 C   0  0  0  0  0  0  0  0  0  0  0  0
    2.9374   -1.5829   -0.4746 C   0  0  0  0  0  0  0  0  0  0  0  0
    5.0654    1.4790    0.2146 C   0  0  0  0  0  0  0  0  0  0  0  0
    5.3639   -1.2186   -0.8956 C   0  0  0  0  0  0  0  0  0  0  0  0
  1  8  1  0
  2  7  1  0
  2 10  1  0
  3  4  1  0
  3  5  1  0
  3  6  1  0
  4  7  1  0
  5  8  1  0
  6  9  1  0
 10 13  2  0
 10 14  1  0
 11 12  2  0
 11 13  1  0
 11 16  1  0
 12 15  1  0
 12 17  1  0
 14 15  2  0
M  END
>  <PUBCHEM_COMPOUND_CID>  (1) 
45357

>  <PUBCHEM_CONFORMER_RMSD>  (1) 
0.8

>  <PUBCHEM_CONFORMER_DIVERSEORDER>  (1) 
2
135
197
66
45
52
165
25
136
29
104
148
175
82
37
49
181
99
110
147
109
67
40
150
190
78
141
13
102
30
115
105
144
20
107
172
46
142
93
121
101
18
163
58
140
84
168
48
7
90
34
161
61
16
41
193
129
132
143
24
98
128
164
97
116
75
53
17
169
162
103
192
69
76
100
54
167
153
26
4
39
130
55
42
145
137
170
156
5
50
195
15
131
146
35
95
166
118
3
191
108
70
27
89
43
72
176
68
22
177
23
85
60
92
28
73
119
133
111
1
196
38
71
124
179
59
32
178
160
155
10
12
183
6
134
149
138
56
123
14
83
126
158
65
159
157
185
11
186
57
80
154
120
87
112
44
151
171
63
188
113
189
81
174
74
36
199
19
96
33
86
152
125
173
21
114
31
62
180
88
117
139
91
47
106
184
51
64
9
198
79
77
127
8
94
194
187
122
182

>  <PUBCHEM_MMFF94_PARTIAL_CHARGES>  (1) 
19
1 -0.29
10 0.08
11 -0.14
12 -0.14
13 -0.15
14 -0.15
15 -0.15
16 0.14
17 0.14
2 -0.36
3 -0.81
31 0.15
32 0.15
33 0.15
4 0.27
5 0.27
6 0.27
7 0.28
8 0.29

>  <PUBCHEM_EFFECTIVE_ROTOR_COUNT>  (1) 
7

>  <PUBCHEM_PHARMACOPHORE_FEATURES>  (1) 
3
1 2 acceptor
1 3 cation
6 10 11 12 13 14 15 rings

>  <PUBCHEM_HEAVY_ATOM_COUNT>  (1) 
17

>  <PUBCHEM_ATOM_DEF_STEREO_COUNT>  (1) 
0

>  <PUBCHEM_ATOM_UDEF_STEREO_COUNT>  (1) 
0

>  <PUBCHEM_BOND_DEF_STEREO_COUNT>  (1) 
0

>  <PUBCHEM_BOND_UDEF_STEREO_COUNT>  (1) 
0

>  <PUBCHEM_ISOTOPIC_ATOM_COUNT>  (1) 
0

>  <PUBCHEM_COMPONENT_COUNT>  (1) 
1

>  <PUBCHEM_CACTVS_TAUTO_COUNT>  (1) 
1

>  <PUBCHEM_CONFORMER_ID>  (1) 
0000B12D00000002

>  <PUBCHEM_MMFF94_ENERGY>  (1) 
44.2362

>  <PUBCHEM_FEATURE_SELFOVERLAP>  (1) 
15.223

>  <PUBCHEM_SHAPE_FINGERPRINT>  (1) 
10680689 15 18260835873664015169
11056379 131 18334295366750055119
11089746 13 14129052668830457582
11287383 113 18411701002087446488
11405975 8 18338514114886455729
12616971 3 14979956986297974442
13167823 11 18413669101825698886
15196674 1 18342176661185768714
15961568 22 17822572828098414268
17834072 33 18342458144910572212
17844677 252 18410862052950869152
18186145 218 18339644438572774336
200 152 17274537629189011824
20645477 56 18188773821666636501
20645477 70 17988932145863124790
20871999 31 18334573530106364573
21065201 7 18336255773937779489
21315763 129 18334852836082970896
21426921 1 18335137584151542413
21618674 54 18335415734280123667
21709351 56 18409165489650861660
221490 88 18343303673520711746
22393880 68 18337108964875420486
23402539 116 18040433257317087612
23402655 69 18272087154518071604
23557571 272 18409733932899252261
23559900 14 18198055877079119938
2871803 45 18409442618231782483
29717793 49 17059775503720211156
3268164 11 17530959173067930997
3545911 37 18338237063990121941
4214541 1 18411982429935736681
4325135 7 18337955704771397510
4990 188 18340770356044464750
5104073 3 18272368655027080218
5281201 14 18411140238204151340
7495541 125 17917991728109921610
77779 3 18412544284297873161
90127 26 18260275144050495384

>  <PUBCHEM_SHAPE_MULTIPOLES>  (1) 
340.87
13.74
2.52
0.87
1.55
0.01
0.05
-3.45
2.09
3.8
0.43
-0.07
0.1
1.74

>  <PUBCHEM_SHAPE_SELFOVERLAP>  (1) 
669.705

>  <PUBCHEM_SHAPE_VOLUME>  (1) 
207.8

>  <PUBCHEM_COORDINATE_TYPE>  (1) 
2
5
10

$$$$
