45355
     RDKit          3D

 20 20  0  0  1  0  0  0  0  0999 V2000
    6.2037    1.8585    0.1877 Cl  0  0  0  0  0  0  0  0  0  0  0  0
   -0.2585    1.1335   -1.0323 O   0  0  0  0  0  0  0  0  0  0  0  0
    2.8893   -0.4313    0.0678 N   0  0  0  0  0  0  0  0  0  0  0  0
   -2.3257   -1.4515    0.2125 C   0  0  0  0  0  0  0  0  0  0  0  0
   -2.6849   -0.3757   -0.8187 C   0  0  0  0  0  0  0  0  0  0  0  0
   -2.4057   -2.8733   -0.3519 C   0  0  0  0  0  0  0  0  0  0  0  0
    1.6648   -0.2552   -0.6987 C   0  0  0  0  0  0  0  0  0  0  0  0
   -2.5402    1.0344   -0.3039 C   0  0  0  0  0  0  0  0  0  0  0  0
    0.9221    0.9914   -0.2450 C   0  0  0  0  0  0  0  0  0  0  0  0
    3.9206    0.5083   -0.3795 C   0  0  0  0  0  0  0  0  0  0  0  0
    3.3772   -1.8079   -0.0440 C   0  0  0  0  0  0  0  0  0  0  0  0
   -2.0149   -3.9100    0.7021 C   0  0  0  0  0  0  0  0  0  0  0  0
   -1.3333    1.7213   -0.4358 C   0  0  0  0  0  0  0  0  0  0  0  0
   -3.6304    1.6514    0.3098 C   0  0  0  0  0  0  0  0  0  0  0  0
    4.9571    0.7032    0.7161 C   0  0  0  0  0  0  0  0  0  0  0  0
    2.3509   -2.7985    0.4789 C   0  0  0  0  0  0  0  0  0  0  0  0
   -1.2167    3.0251    0.0461 C   0  0  0  0  0  0  0  0  0  0  0  0
   -2.0550   -5.3209    0.1371 C   0  0  0  0  0  0  0  0  0  0  0  0
   -3.5135    2.9552    0.7917 C   0  0  0  0  0  0  0  0  0  0  0  0
   -2.3068    3.6420    0.6599 C   0  0  0  0  0  0  0  0  0  0  0  0
  1 15  1  0
  2  9  1  0
  2 13  1  0
  3  7  1  0
  3 10  1  0
  3 11  1  0
  4  5  1  0
  4  6  1  0
  5  8  1  0
  6 12  1  0
  7  9  1  0
  8 13  2  0
  8 14  1  0
 10 15  1  0
 11 16  1  0
 12 18  1  0
 13 17  1  0
 14 19  2  0
 17 20  2  0
 19 20  1  0
M  END
>  <PUBCHEM_COMPOUND_CID>  (1) 
45355

>  <PUBCHEM_CONFORMER_RMSD>  (1) 
1.2

>  <PUBCHEM_CONFORMER_DIVERSEORDER>  (1) 
1
68
62
70
49
31
30
38
12
74
64
6
21
17
35
46
50
40
42
55
7
15
43
24
44
47
51
23
29
16
14
34
54
18
3
59
37
2
48
4
67
9
20
75
22
72
26
65
53
56
32
52
77
5
73
33
63
66
71
28
19
8
39
25
45
76
60
27
10
61
11
13
41
36
58
57
69

>  <PUBCHEM_MMFF94_PARTIAL_CHARGES>  (1) 
19
1 -0.29
10 0.27
11 0.27
13 0.08
14 -0.15
15 0.29
17 -0.15
19 -0.15
2 -0.36
20 -0.15
3 -0.81
37 0.15
43 0.15
47 0.15
48 0.15
5 0.14
7 0.27
8 -0.14
9 0.28

>  <PUBCHEM_EFFECTIVE_ROTOR_COUNT>  (1) 
11

>  <PUBCHEM_PHARMACOPHORE_FEATURES>  (1) 
5
1 18 hydrophobe
1 2 acceptor
1 3 cation
4 4 5 6 12 hydrophobe
6 8 13 14 17 19 20 rings

>  <PUBCHEM_HEAVY_ATOM_COUNT>  (1) 
20

>  <PUBCHEM_ATOM_DEF_STEREO_COUNT>  (1) 
0

>  <PUBCHEM_ATOM_UDEF_STEREO_COUNT>  (1) 
0

>  <PUBCHEM_BOND_DEF_STEREO_COUNT>  (1) 
0

>  <PUBCHEM_BOND_UDEF_STEREO_COUNT>  (1) 
0

>  <PUBCHEM_ISOTOPIC_ATOM_COUNT>  (1) 
0

>  <PUBCHEM_COMPONENT_COUNT>  (1) 
1

>  <PUBCHEM_CACTVS_TAUTO_COUNT>  (1) 
1

>  <PUBCHEM_CONFORMER_ID>  (1) 
0000B12B00000001

>  <PUBCHEM_MMFF94_ENERGY>  (1) 
37.5653

>  <PUBCHEM_FEATURE_SELFOVERLAP>  (1) 
25.372

>  <PUBCHEM_SHAPE_FINGERPRINT>  (1) 
10366900 7 18130488812845658432
10616163 171 18411420618011518510
11135609 187 18263628607682347093
12173636 292 18267020544644487021
12553582 1 18122079842574636679
12592029 89 17691134738522783801
12633257 1 18121772829780211258
12788726 201 18340471349080356407
13032168 30 18187641474570387818
13140716 1 18123189266617159845
13631057 29 18265892643546160630
138480 1 16752969733073258871
14022349 108 17114950985913936289
14081887 123 18340195384340380290
14178342 30 18407759244464857182
14844126 61 18335420226747493499
15006816 218 17545603349194863799
21796203 349 17323549721628835194
23557571 272 18271815656755411236
23559900 14 17556303860875556140
23728640 28 18337677421287956971
43471831 8 17977674113225578533
5104073 3 18194407688454784961
5309563 4 17907295812086953983
58807428 26 18051990129816645833
9709674 26 18342459197225325126

>  <PUBCHEM_SHAPE_MULTIPOLES>  (1) 
402.61
9.61
6.22
0.87
17.29
6.76
0.01
-3.97
-1.44
-7.76
-1.53
-0.13
-0.09
-0.38

>  <PUBCHEM_SHAPE_SELFOVERLAP>  (1) 
777.69

>  <PUBCHEM_SHAPE_VOLUME>  (1) 
246.6

>  <PUBCHEM_COORDINATE_TYPE>  (1) 
2
5
10

$$$$
