4535
     RDKit          3D

 20 22  0  0  0  0  0  0  0  0999 V2000
   -2.2963   -0.9545    1.2630 O   0  0  0  0  0  0  0  0  0  0  0  0
    4.6366    1.5268    0.2874 N   0  0  0  0  0  0  0  0  0  0  0  0
   -0.0825    0.4001   -0.3786 C   0  0  0  0  0  0  0  0  0  0  0  0
    0.2944   -1.0320   -0.3959 C   0  0  0  0  0  0  0  0  0  0  0  0
   -0.1487   -1.8564    0.6510 C   0  0  0  0  0  0  0  0  0  0  0  0
   -1.4872    0.8786   -0.2241 C   0  0  0  0  0  0  0  0  0  0  0  0
   -0.9920   -1.2658    1.7458 C   0  0  0  0  0  0  0  0  0  0  0  0
    0.9319    1.2875   -0.3893 C   0  0  0  0  0  0  0  0  0  0  0  0
   -2.4616    0.1983    0.5357 C   0  0  0  0  0  0  0  0  0  0  0  0
    2.3750    0.8972   -0.4173 C   0  0  0  0  0  0  0  0  0  0  0  0
    1.0608   -1.5824   -1.4338 C   0  0  0  0  0  0  0  0  0  0  0  0
    0.1836   -3.2171    0.6506 C   0  0  0  0  0  0  0  0  0  0  0  0
    3.2354    1.9321    0.3065 C   0  0  0  0  0  0  0  0  0  0  0  0
   -1.8974    2.0236   -0.9414 C   0  0  0  0  0  0  0  0  0  0  0  0
   -3.7860    0.6685    0.5649 C   0  0  0  0  0  0  0  0  0  0  0  0
    1.3891   -2.9382   -1.4231 C   0  0  0  0  0  0  0  0  0  0  0  0
    0.9521   -3.7539   -0.3819 C   0  0  0  0  0  0  0  0  0  0  0  0
   -3.2126    2.4904   -0.8904 C   0  0  0  0  0  0  0  0  0  0  0  0
   -4.1582    1.8121   -0.1355 C   0  0  0  0  0  0  0  0  0  0  0  0
    5.4636    2.4852    1.0066 C   0  0  0  0  0  0  0  0  0  0  0  0
  1  7  1  0
  1  9  1  0
  2 13  1  0
  2 20  1  0
  3  4  1  0
  3  6  1  0
  3  8  2  0
  4  5  2  0
  4 11  1  0
  5  7  1  0
  5 12  1  0
  6  9  2  0
  6 14  1  0
  8 10  1  0
  9 15  1  0
 10 13  1  0
 11 16  2  0
 12 17  2  0
 14 18  2  0
 15 19  2  0
 16 17  1  0
 18 19  1  0
M  END
>  <PUBCHEM_COMPOUND_CID>  (1) 
4535

>  <PUBCHEM_CONFORMER_RMSD>  (1) 
0.6

>  <PUBCHEM_CONFORMER_DIVERSEORDER>  (1) 
1
13
6
5
8
12
10
4
3
15
14
11
7
9
2

>  <PUBCHEM_MMFF94_PARTIAL_CHARGES>  (1) 
30
1 -0.36
10 0.14
11 -0.15
12 -0.15
13 0.27
14 -0.15
15 -0.15
16 -0.15
17 -0.15
18 -0.15
19 -0.15
2 -0.9
20 0.27
23 0.15
26 0.15
29 0.15
3 -0.06
30 0.15
31 0.15
32 0.15
33 0.15
34 0.15
35 0.15
36 0.36
4 0.03
5 -0.14
6 0.03
7 0.42
8 -0.29
9 0.08

>  <PUBCHEM_EFFECTIVE_ROTOR_COUNT>  (1) 
3.4

>  <PUBCHEM_PHARMACOPHORE_FEATURES>  (1) 
6
1 1 acceptor
1 2 cation
1 2 donor
6 4 5 11 12 16 17 rings
6 6 9 14 15 18 19 rings
7 1 3 4 5 6 7 9 rings

>  <PUBCHEM_HEAVY_ATOM_COUNT>  (1) 
20

>  <PUBCHEM_ATOM_DEF_STEREO_COUNT>  (1) 
0

>  <PUBCHEM_ATOM_UDEF_STEREO_COUNT>  (1) 
0

>  <PUBCHEM_BOND_DEF_STEREO_COUNT>  (1) 
0

>  <PUBCHEM_BOND_UDEF_STEREO_COUNT>  (1) 
1

>  <PUBCHEM_ISOTOPIC_ATOM_COUNT>  (1) 
0

>  <PUBCHEM_COMPONENT_COUNT>  (1) 
1

>  <PUBCHEM_CACTVS_TAUTO_COUNT>  (1) 
1

>  <PUBCHEM_CONFORMER_ID>  (1) 
000011B700000001

>  <PUBCHEM_MMFF94_ENERGY>  (1) 
71.7129

>  <PUBCHEM_FEATURE_SELFOVERLAP>  (1) 
30.463

>  <PUBCHEM_SHAPE_FINGERPRINT>  (1) 
10764073 3 14640728864242734828
12707595 3 17762622789711262735
12716301 132 17532966910916757882
12788726 201 17907553063827637522
13004483 165 17404573871814448514
13134695 92 17690277114662584471
13140716 1 18336266734604647906
13540713 4 18042974156176015941
13681431 1 17697596593796710926
15042514 8 17975418232539120362
15230672 131 18408609172255677318
16945 1 16811833320827245591
1813 80 16482763771188990014
20600515 1 16600391630015764486
21033648 29 18200582713819599944
21524375 3 18340484568530341780
21731228 192 18410574028386188088
22182313 1 17896334532304778721
23402539 116 18123185981447720071
23419403 2 17980800135761632770
23559900 14 17977660909826236487
23598288 3 17973165320903788532
23728640 28 18193549193749224362
2748010 2 18044972088624861019
3298306 158 18411424973561927022
532947 4 18269839727345123326
59554788 281 16732989708789913201
6138700 20 18195531381740012462
7364860 26 18194402182532869047
81228 2 17621017094875217416
84936 31 17700394910850391334
90316 7 17616826864773172954
9862522 239 18337104678629544600
9981440 41 18410570686717275985

>  <PUBCHEM_SHAPE_MULTIPOLES>  (1) 
400.74
7.07
4.27
1.3
4.23
3.05
-0.08
-9.61
-1.59
3.11
0.37
-0.01
0.51
2.08

>  <PUBCHEM_SHAPE_SELFOVERLAP>  (1) 
864.799

>  <PUBCHEM_SHAPE_VOLUME>  (1) 
218.5

>  <PUBCHEM_COORDINATE_TYPE>  (1) 
2
5
10

$$$$
