45359
     RDKit          3D

 14 14  0  0  0  0  0  0  0  0999 V2000
    7.1090   -0.0177    0.2450 Cl  0  0  0  0  0  0  0  0  0  0  0  0
   -0.5813    0.8611   -1.0698 S   0  0  0  0  0  0  0  0  0  0  0  0
    3.0965   -0.2810    0.2107 N   0  0  0  0  0  0  0  0  0  0  0  0
    2.0803    0.4474   -0.5428 C   0  0  0  0  0  0  0  0  0  0  0  0
    0.6925   -0.0356   -0.1406 C   0  0  0  0  0  0  0  0  0  0  0  0
    4.4308    0.1891   -0.1315 C   0  0  0  0  0  0  0  0  0  0  0  0
   -2.0787    0.1242   -0.4267 C   0  0  0  0  0  0  0  0  0  0  0  0
   -3.0511    0.8863    0.2208 C   0  0  0  0  0  0  0  0  0  0  0  0
   -2.2610   -1.2496   -0.5860 C   0  0  0  0  0  0  0  0  0  0  0  0
    5.4749   -0.5997    0.6434 C   0  0  0  0  0  0  0  0  0  0  0  0
   -4.2059    0.2745    0.7088 C   0  0  0  0  0  0  0  0  0  0  0  0
   -2.9021    2.3614    0.4172 C   0  0  0  0  0  0  0  0  0  0  0  0
   -3.4157   -1.8612   -0.0981 C   0  0  0  0  0  0  0  0  0  0  0  0
   -4.3882   -1.0992    0.5494 C   0  0  0  0  0  0  0  0  0  0  0  0
  1 10  1  0
  2  5  1  0
  2  7  1  0
  3  4  1  0
  3  6  1  0
  4  5  1  0
  6 10  1  0
  7  8  2  0
  7  9  1  0
  8 11  1  0
  8 12  1  0
  9 13  2  0
 11 14  2  0
 13 14  1  0
M  END
>  <PUBCHEM_COMPOUND_CID>  (1) 
45359

>  <PUBCHEM_CONFORMER_RMSD>  (1) 
0.6

>  <PUBCHEM_CONFORMER_DIVERSEORDER>  (1) 
2
299
389
391
145
128
359
193
319
195
372
348
370
367
250
394
203
5
301
318
256
185
31
331
345
194
284
275
267
4
143
315
294
46
210
272
356
190
302
290
130
298
248
47
362
161
326
75
20
1
305
151
182
314
264
387
53
303
281
111
358
114
377
157
392
227
297
6
229
324
54
154
335
74
206
202
158
110
375
10
40
390
34
312
39
309
216
36
380
355
360
395
228
316
68
218
100
156
49
166
385
233
44
84
98
25
116
271
69
18
279
27
41
336
321
237
83
92
160
191
262
70
369
383
65
366
342
3
352
126
343
320
205
59
8
199
364
363
260
200
313
15
106
105
243
344
141
215
61
55
24
163
399
82
78
310
138
115
176
90
50
183
223
48
368
307
124
291
232
239
67
169
63
266
220
225
144
197
66
103
80
388
277
361
146
396
88
133
304
139
33
93
373
252
94
384
19
241
109
382
226
172
285
209
325
95
386
86
170
332
58
64
224
21
296
56
178
57
350
186
77
71
282
295
117
333
188
236
192
177
270
29
147
322
168
104
38
300
278
213
268
148
9
179
353
212
181
274
221
152
339
283
120
198
258
108
14
276
289
134
51
159
347
37
125
234
162
76
341
208
244
132
211
155
79
13
378
142
235
249
351
135
259
12
129
91
7
112
263
62
245
81
393
11
107
171
118
328
122
52
240
87
286
354
334
97
204
137
174
398
317
121
269
102
251
150
254
311
287
127
187
207
381
189
22
73
175
23
153
17
330
165
329
340
246
164
219
180
167
140
379
308
257
35
119
365
261
265
72
60
26
230
273
149
113
101
280
28
293
131
136
196
323
32
214
349
16
222
242
288
292
306
85
338
346
253
184
327
247
357
123
374
238
30
255
337
42
376
201
89
43
173
371
45
99
397
231
96
217

>  <PUBCHEM_MMFF94_PARTIAL_CHARGES>  (1) 
19
1 -0.29
10 0.29
11 -0.15
12 0.14
13 -0.15
14 -0.15
19 0.36
2 -0.33
22 0.15
25 0.15
29 0.15
3 -0.9
30 0.15
4 0.27
5 0.23
6 0.27
7 0.1
8 -0.14
9 -0.15

>  <PUBCHEM_EFFECTIVE_ROTOR_COUNT>  (1) 
6

>  <PUBCHEM_PHARMACOPHORE_FEATURES>  (1) 
3
1 3 cation
1 3 donor
6 7 8 9 11 13 14 rings

>  <PUBCHEM_HEAVY_ATOM_COUNT>  (1) 
14

>  <PUBCHEM_ATOM_DEF_STEREO_COUNT>  (1) 
0

>  <PUBCHEM_ATOM_UDEF_STEREO_COUNT>  (1) 
0

>  <PUBCHEM_BOND_DEF_STEREO_COUNT>  (1) 
0

>  <PUBCHEM_BOND_UDEF_STEREO_COUNT>  (1) 
0

>  <PUBCHEM_ISOTOPIC_ATOM_COUNT>  (1) 
0

>  <PUBCHEM_COMPONENT_COUNT>  (1) 
1

>  <PUBCHEM_CACTVS_TAUTO_COUNT>  (1) 
1

>  <PUBCHEM_CONFORMER_ID>  (1) 
0000B12F00000002

>  <PUBCHEM_MMFF94_ENERGY>  (1) 
22.1141

>  <PUBCHEM_FEATURE_SELFOVERLAP>  (1) 
15.223

>  <PUBCHEM_SHAPE_FINGERPRINT>  (1) 
10680689 15 17561075917254375604
10803635 8 11674877801461933664
10912923 1 18113337505763655080
11315181 36 18333450958335264572
12091667 2 17775559837103002444
13167823 11 18334573530122513818
13288520 33 18040152924427157334
13403585 85 18201716258741173264
13675066 3 17775847904617109692
1420 363 16805324392806212418
14251718 22 11386371439601986328
14251732 16 18335983177402410728
15716309 27 17967531268777724202
17780758 139 18408602569408633761
17834072 33 18260833726459967940
17834076 25 12967129415371818014
17844677 252 18343306976936514584
1813 80 17313678061589922214
19433438 28 18202278126362712568
200 152 15936406740947154476
20281389 69 14189574131357035938
20645477 56 17131829872089662516
20645477 70 13623794005030767608
20828058 44 18411981360314572892
20871999 31 7853574574558348225
21650355 55 18342180020509460261
2297311 6 18201453479276963164
23402539 116 16950279585932267180
23466295 7 15287072660373681739
23559900 14 18339915017281083273
351380 3 17748823021261089922
4214541 1 18411136918167966668
49783359 22 18333728014207339530
573450 72 18335698325763578576
5924683 9 17560228249640227615

>  <PUBCHEM_SHAPE_MULTIPOLES>  (1) 
288.85
14.37
1.63
0.89
29.3
0.31
-0.08
-2.49
3.84
-2.63
0.1
-0.19
0.07
-0.47

>  <PUBCHEM_SHAPE_SELFOVERLAP>  (1) 
547.627

>  <PUBCHEM_SHAPE_VOLUME>  (1) 
180.4

>  <PUBCHEM_COORDINATE_TYPE>  (1) 
2
5
10

$$$$
