45364
     RDKit          3D

 21 22  0  0  1  0  0  0  0  0999 V2000
    0.1331   -3.7441   -2.4099 Cl  0  0  0  0  0  0  0  0  0  0  0  0
   -5.8455    1.6876   -0.5636 Cl  0  0  0  0  0  0  0  0  0  0  0  0
    0.7430    1.2272   -0.0246 O   0  0  0  0  0  0  0  0  0  0  0  0
    4.3965    1.6251   -0.3061 N   0  0  0  0  0  0  0  0  0  0  0  0
   -0.1283    0.3944    0.7281 C   0  0  0  0  0  0  0  0  0  0  0  0
   -1.5708    0.7215    0.4025 C   0  0  0  0  0  0  0  0  0  0  0  0
    0.1994   -1.0748    0.5443 C   0  0  0  0  0  0  0  0  0  0  0  0
    2.1074    0.9453    0.2579 C   0  0  0  0  0  0  0  0  0  0  0  0
    2.9801    1.8681   -0.5776 C   0  0  0  0  0  0  0  0  0  0  0  0
   -2.5392    0.5401    1.3736 C   0  0  0  0  0  0  0  0  0  0  0  0
   -1.8871    1.1936   -0.8590 C   0  0  0  0  0  0  0  0  0  0  0  0
    0.0317   -1.6511   -0.7014 C   0  0  0  0  0  0  0  0  0  0  0  0
    0.6586   -1.8015    1.6272 C   0  0  0  0  0  0  0  0  0  0  0  0
    4.6858    1.8223    1.1138 C   0  0  0  0  0  0  0  0  0  0  0  0
    5.2319    2.5029   -1.1247 C   0  0  0  0  0  0  0  0  0  0  0  0
   -3.8679    0.8403    1.0734 C   0  0  0  0  0  0  0  0  0  0  0  0
   -3.2158    1.4940   -1.1593 C   0  0  0  0  0  0  0  0  0  0  0  0
    0.3341   -3.0024   -0.8700 C   0  0  0  0  0  0  0  0  0  0  0  0
    0.9609   -3.1526    1.4586 C   0  0  0  0  0  0  0  0  0  0  0  0
   -4.2063    1.3174   -0.1931 C   0  0  0  0  0  0  0  0  0  0  0  0
    0.7987   -3.7531    0.2101 C   0  0  0  0  0  0  0  0  0  0  0  0
  1 18  1  0
  2 20  1  0
  3  5  1  0
  3  8  1  0
  4  9  1  0
  4 14  1  0
  4 15  1  0
  5  6  1  0
  5  7  1  0
  6 10  2  0
  6 11  1  0
  7 12  2  0
  7 13  1  0
  8  9  1  0
 10 16  1  0
 11 17  2  0
 12 18  1  0
 13 19  2  0
 16 20  2  0
 17 20  1  0
 18 21  2  0
 19 21  1  0
M  END
>  <PUBCHEM_COMPOUND_CID>  (1) 
45364

>  <PUBCHEM_CONFORMER_RMSD>  (1) 
0.8

>  <PUBCHEM_CONFORMER_DIVERSEORDER>  (1) 
2
39
27
48
25
24
12
47
36
16
23
43
52
30
33
38
40
20
14
41
26
44
46
1
19
4
49
15
18
34
45
29
8
31
32
28
21
3
13
11
42
51
17
50
10
22
5
9
6
35
7
37

>  <PUBCHEM_MMFF94_PARTIAL_CHARGES>  (1) 
29
1 -0.18
10 -0.15
11 -0.15
12 -0.15
13 -0.15
14 0.27
15 0.27
16 -0.15
17 -0.15
18 0.18
19 -0.15
2 -0.18
20 0.18
21 -0.15
27 0.15
28 0.15
29 0.15
3 -0.56
30 0.15
37 0.15
38 0.15
39 0.15
4 -0.81
40 0.15
5 0.57
6 -0.14
7 -0.14
8 0.28
9 0.27

>  <PUBCHEM_EFFECTIVE_ROTOR_COUNT>  (1) 
6

>  <PUBCHEM_PHARMACOPHORE_FEATURES>  (1) 
4
1 3 acceptor
1 4 cation
6 6 10 11 16 17 20 rings
6 7 12 13 18 19 21 rings

>  <PUBCHEM_HEAVY_ATOM_COUNT>  (1) 
21

>  <PUBCHEM_ATOM_DEF_STEREO_COUNT>  (1) 
0

>  <PUBCHEM_ATOM_UDEF_STEREO_COUNT>  (1) 
1

>  <PUBCHEM_BOND_DEF_STEREO_COUNT>  (1) 
0

>  <PUBCHEM_BOND_UDEF_STEREO_COUNT>  (1) 
0

>  <PUBCHEM_ISOTOPIC_ATOM_COUNT>  (1) 
0

>  <PUBCHEM_COMPONENT_COUNT>  (1) 
1

>  <PUBCHEM_CACTVS_TAUTO_COUNT>  (1) 
1

>  <PUBCHEM_CONFORMER_ID>  (1) 
0000B13400000002

>  <PUBCHEM_MMFF94_ENERGY>  (1) 
57.9459

>  <PUBCHEM_FEATURE_SELFOVERLAP>  (1) 
20.297

>  <PUBCHEM_SHAPE_FINGERPRINT>  (1) 
10764073 3 15577494148287674200
107951 10 18042704938977939350
11488393 25 18198080108942147755
11578080 2 15360211915981540958
12363563 72 17616250282936796387
12592029 89 18261388910474214928
12707595 3 17830746348493909515
12788726 201 17907005532764539378
13004483 165 17404021921282815258
13149001 5 17843682407357811368
13257819 101 17168409520202628389
133893 2 18121234081698302776
13681431 1 17908423550196873850
13931106 250 17700132398671049558
15502722 9 18265052444716193717
15664445 248 17620197533706421639
17539 30 17766273554635747294
1813 80 17552921720000997311
18915476 22 18336838476788647489
20197701 30 18411136965327957704
204376 136 18408042930907016480
20554085 129 18200293490241462816
20600515 1 16970253047526424488
20645477 70 18266172830391326613
21033648 29 18337385066954312312
21054139 6 18269260417908341853
21120745 212 7940940655525437275
21344244 181 17775017820129501934
21344244 246 18201164230847738926
21524375 3 18337391642337219288
22713019 5 17764288940384868430
23419403 2 17619685349923632170
23558518 356 17834942449531677232
23559900 14 17096946663229107499
23598288 3 17463431738619178124
23728640 28 18192716872126713922
24893989 43 15882011482850467972
298252 57 18336263530733320152
3411729 13 18262235504579362145
3729539 64 18194143836604264734
3759504 43 18189057654089483448
38695281 34 18342172237285019062
46194498 28 18121773938250987413
53917941 68 18196359528095102796
559249 180 18337673118279157400
6025842 7 18339635630291117437
6138700 20 18192437368872736310
6669772 16 18411989048786561774
7364860 26 18265331703320818897
81228 2 17617929678966938824
81539 233 18334576810965656041
9841814 1 17829330185890718331
9862522 239 18264773327465610442

>  <PUBCHEM_SHAPE_MULTIPOLES>  (1) 
425.06
8.97
4.61
1.67
2.27
5.63
-0.27
-13.13
-1.36
-4.22
-1.57
-0.19
1.21
-0.37

>  <PUBCHEM_SHAPE_SELFOVERLAP>  (1) 
872.882

>  <PUBCHEM_SHAPE_VOLUME>  (1) 
248.3

>  <PUBCHEM_COORDINATE_TYPE>  (1) 
2
5
10

$$$$
