45366
     RDKit          3D

 21 22  0  0  1  0  0  0  0  0999 V2000
    0.9232   -1.9890    2.4814 Cl  0  0  0  0  0  0  0  0  0  0  0  0
   -5.9035    1.6545   -0.2919 Cl  0  0  0  0  0  0  0  0  0  0  0  0
    0.6971    1.1475   -0.0003 O   0  0  0  0  0  0  0  0  0  0  0  0
    4.3417    1.6459   -0.2329 N   0  0  0  0  0  0  0  0  0  0  0  0
   -0.1539    0.1403    0.5296 C   0  0  0  0  0  0  0  0  0  0  0  0
   -1.6045    0.5231    0.3229 C   0  0  0  0  0  0  0  0  0  0  0  0
    0.1802   -1.2296   -0.0287 C   0  0  0  0  0  0  0  0  0  0  0  0
    2.0686    0.8185    0.1777 C   0  0  0  0  0  0  0  0  0  0  0  0
    2.9187    1.9339   -0.4093 C   0  0  0  0  0  0  0  0  0  0  0  0
   -2.5527    0.0889    1.2318 C   0  0  0  0  0  0  0  0  0  0  0  0
   -1.9484    1.2977   -0.7708 C   0  0  0  0  0  0  0  0  0  0  0  0
    0.6674   -2.2313    0.7918 C   0  0  0  0  0  0  0  0  0  0  0  0
   -0.0211   -1.4357   -1.3830 C   0  0  0  0  0  0  0  0  0  0  0  0
    4.6571    1.4777    1.1852 C   0  0  0  0  0  0  0  0  0  0  0  0
    5.1551    2.7131   -0.8144 C   0  0  0  0  0  0  0  0  0  0  0  0
   -3.8890    0.4405    1.0408 C   0  0  0  0  0  0  0  0  0  0  0  0
   -3.2846    1.6495   -0.9619 C   0  0  0  0  0  0  0  0  0  0  0  0
    0.9629   -3.4788    0.2417 C   0  0  0  0  0  0  0  0  0  0  0  0
    0.2745   -2.6832   -1.9329 C   0  0  0  0  0  0  0  0  0  0  0  0
   -4.2550    1.2210   -0.0560 C   0  0  0  0  0  0  0  0  0  0  0  0
    0.7664   -3.7045   -1.1206 C   0  0  0  0  0  0  0  0  0  0  0  0
  1 12  1  0
  2 20  1  0
  3  5  1  0
  3  8  1  0
  4  9  1  0
  4 14  1  0
  4 15  1  0
  5  6  1  0
  5  7  1  0
  6 10  2  0
  6 11  1  0
  7 12  2  0
  7 13  1  0
  8  9  1  0
 10 16  1  0
 11 17  2  0
 12 18  1  0
 13 19  2  0
 16 20  2  0
 17 20  1  0
 18 21  2  0
 19 21  1  0
M  END
>  <PUBCHEM_COMPOUND_CID>  (1) 
45366

>  <PUBCHEM_CONFORMER_RMSD>  (1) 
0.8

>  <PUBCHEM_CONFORMER_DIVERSEORDER>  (1) 
1
22
16
12
23
24
14
28
8
11
25
27
33
30
3
26
17
19
39
29
9
36
31
10
37
2
21
35
18
20
5
15
32
34
4
13
38
6
7

>  <PUBCHEM_MMFF94_PARTIAL_CHARGES>  (1) 
29
1 -0.18
10 -0.15
11 -0.15
12 0.18
13 -0.15
14 0.27
15 0.27
16 -0.15
17 -0.15
18 -0.15
19 -0.15
2 -0.18
20 0.18
21 -0.15
27 0.15
28 0.15
29 0.15
3 -0.56
36 0.15
37 0.15
38 0.15
39 0.15
4 -0.81
40 0.15
5 0.57
6 -0.14
7 -0.14
8 0.28
9 0.27

>  <PUBCHEM_EFFECTIVE_ROTOR_COUNT>  (1) 
6

>  <PUBCHEM_PHARMACOPHORE_FEATURES>  (1) 
4
1 3 acceptor
1 4 cation
6 6 10 11 16 17 20 rings
6 7 12 13 18 19 21 rings

>  <PUBCHEM_HEAVY_ATOM_COUNT>  (1) 
21

>  <PUBCHEM_ATOM_DEF_STEREO_COUNT>  (1) 
0

>  <PUBCHEM_ATOM_UDEF_STEREO_COUNT>  (1) 
1

>  <PUBCHEM_BOND_DEF_STEREO_COUNT>  (1) 
0

>  <PUBCHEM_BOND_UDEF_STEREO_COUNT>  (1) 
0

>  <PUBCHEM_ISOTOPIC_ATOM_COUNT>  (1) 
0

>  <PUBCHEM_COMPONENT_COUNT>  (1) 
1

>  <PUBCHEM_CACTVS_TAUTO_COUNT>  (1) 
1

>  <PUBCHEM_CONFORMER_ID>  (1) 
0000B13600000001

>  <PUBCHEM_MMFF94_ENERGY>  (1) 
61.2804

>  <PUBCHEM_FEATURE_SELFOVERLAP>  (1) 
20.297

>  <PUBCHEM_SHAPE_FINGERPRINT>  (1) 
10764073 3 16156490361519801640
107951 10 18041575740551972698
11488393 25 18200050442295204023
11578080 2 16156229742809569382
12592029 89 18335981986963084664
12707595 3 17904211326000069891
12788726 201 17907288115885036354
13004483 165 17262435614288087654
13257819 101 17531230760903592493
133893 2 18123207713696947040
13681431 1 17910394978882647954
14251751 93 18339921635714559122
15502722 9 18340489941787519861
17539 30 17696185190239278126
1813 80 17197988384123140527
18915476 22 18340500958594912003
20197701 30 18341331175419742200
20369508 70 17753891619678483995
204376 136 18411983584854749324
20554085 129 18130488795512913168
20600515 1 16966017750205897312
20645477 70 18266737983694541381
21054139 6 18129085875232606021
21524375 3 18337391650921911568
21756936 100 17896881161361597312
23419403 2 17620531995599814914
23557571 272 16806455695608132997
23558518 356 17687452877745432384
23559900 14 18049158865773737459
23598288 3 17610359494676744108
23728640 28 18124598836878101362
298252 57 18342175609071697458
3411729 13 18335420106546541329
3729539 64 18126311678626135134
3759504 43 18337111297095110932
394222 165 18335978675538044592
5104073 3 17897170122735616649
6025842 7 18341608154140726717
6138700 20 18194691372004631726
6669772 16 18343028783277862894
7364860 26 18267586805974994995
77188 2 17543064589567869554
81228 2 17546712116107624921
81539 233 18408887308629100069
9841814 1 17829047619981693531
9862522 239 18337104687055994514
9999458 23 17894911776768772858

>  <PUBCHEM_SHAPE_MULTIPOLES>  (1) 
425.06
9.02
4.1
1.64
3.38
3.52
0.37
-12.34
-0.02
-4.23
-1.25
-0.4
1.19
-0.03

>  <PUBCHEM_SHAPE_SELFOVERLAP>  (1) 
873.941

>  <PUBCHEM_SHAPE_VOLUME>  (1) 
247.9

>  <PUBCHEM_COORDINATE_TYPE>  (1) 
2
5
10

$$$$
