45360
     RDKit          3D

 15 15  0  0  0  0  0  0  0  0999 V2000
    2.1235    1.8165   -1.7823 Cl  0  0  0  0  0  0  0  0  0  0  0  0
    0.5303   -1.0077   -1.1733 S   0  0  0  0  0  0  0  0  0  0  0  0
   -3.1222   -0.0149    0.3041 N   0  0  0  0  0  0  0  0  0  0  0  0
   -2.1222   -0.5936   -0.5925 C   0  0  0  0  0  0  0  0  0  0  0  0
   -4.4715   -0.3247   -0.1672 C   0  0  0  0  0  0  0  0  0  0  0  0
   -2.9375    1.4320    0.4099 C   0  0  0  0  0  0  0  0  0  0  0  0
   -0.7230   -0.2948   -0.0687 C   0  0  0  0  0  0  0  0  0  0  0  0
   -4.6882   -1.8192   -0.2855 C   0  0  0  0  0  0  0  0  0  0  0  0
   -3.9236    2.0477    1.3810 C   0  0  0  0  0  0  0  0  0  0  0  0
    2.0437   -0.5243   -0.3500 C   0  0  0  0  0  0  0  0  0  0  0  0
    2.7055    0.6750   -0.6199 C   0  0  0  0  0  0  0  0  0  0  0  0
    2.5629   -1.4055    0.6001 C   0  0  0  0  0  0  0  0  0  0  0  0
    3.8825    0.9920    0.0585 C   0  0  0  0  0  0  0  0  0  0  0  0
    3.7399   -1.0885    1.2783 C   0  0  0  0  0  0  0  0  0  0  0  0
    4.3997    0.1101    1.0074 C   0  0  0  0  0  0  0  0  0  0  0  0
  1 11  1  0
  2  7  1  0
  2 10  1  0
  3  4  1  0
  3  5  1  0
  3  6  1  0
  4  7  1  0
  5  8  1  0
  6  9  1  0
 10 11  2  0
 10 12  1  0
 11 13  1  0
 12 14  2  0
 13 15  2  0
 14 15  1  0
M  END
>  <PUBCHEM_COMPOUND_CID>  (1) 
45360

>  <PUBCHEM_CONFORMER_RMSD>  (1) 
0.6

>  <PUBCHEM_CONFORMER_DIVERSEORDER>  (1) 
1
226
211
141
202
122
209
157
158
232
138
36
221
71
222
30
190
207
96
206
94
210
212
14
186
77
191
149
136
195
231
100
51
163
164
121
111
185
118
88
130
28
201
95
102
116
97
70
44
218
115
21
167
152
220
101
153
236
35
93
91
43
123
150
17
165
159
133
109
34
5
177
105
160
110
176
227
31
89
187
132
129
161
228
75
219
63
120
49
217
39
32
47
60
119
143
56
53
154
13
7
230
175
239
3
172
170
52
82
135
42
179
156
37
29
229
48
112
78
50
238
79
59
162
33
114
240
8
137
6
103
57
192
139
2
200
80
125
144
203
83
127
204
225
233
81
131
90
142
193
148
27
4
41
199
126
92
98
180
182
84
155
106
69
174
237
72
173
169
168
224
65
214
67
234
54
87
117
223
140
58
184
134
113
213
235
178
73
166
124
171
128
38
108
86
205
147
9
16
145
10
76
208
64
40
68
104
15
189
188
61
66
183
18
74
181
23
85
151
215
216
146
20
19
107
99
196
194
197
11
198
12
62
55
26
22
46
45
24
25

>  <PUBCHEM_MMFF94_PARTIAL_CHARGES>  (1) 
17
1 -0.18
10 0.1
11 0.18
12 -0.15
13 -0.15
14 -0.15
15 -0.15
2 -0.33
3 -0.81
30 0.15
31 0.15
32 0.15
33 0.15
4 0.27
5 0.27
6 0.27
7 0.23

>  <PUBCHEM_EFFECTIVE_ROTOR_COUNT>  (1) 
6

>  <PUBCHEM_PHARMACOPHORE_FEATURES>  (1) 
2
1 3 cation
6 10 11 12 13 14 15 rings

>  <PUBCHEM_HEAVY_ATOM_COUNT>  (1) 
15

>  <PUBCHEM_ATOM_DEF_STEREO_COUNT>  (1) 
0

>  <PUBCHEM_ATOM_UDEF_STEREO_COUNT>  (1) 
0

>  <PUBCHEM_BOND_DEF_STEREO_COUNT>  (1) 
0

>  <PUBCHEM_BOND_UDEF_STEREO_COUNT>  (1) 
0

>  <PUBCHEM_ISOTOPIC_ATOM_COUNT>  (1) 
0

>  <PUBCHEM_COMPONENT_COUNT>  (1) 
1

>  <PUBCHEM_CACTVS_TAUTO_COUNT>  (1) 
1

>  <PUBCHEM_CONFORMER_ID>  (1) 
0000B13000000001

>  <PUBCHEM_MMFF94_ENERGY>  (1) 
30.757

>  <PUBCHEM_FEATURE_SELFOVERLAP>  (1) 
10.148

>  <PUBCHEM_SHAPE_FINGERPRINT>  (1) 
10366900 7 17313109665475271212
10498660 4 17203334364296997289
11405975 8 17773044055340285291
12107183 9 17834672695367483955
12162725 195 18408327687417686519
12251169 10 18186516631236224830
12346177 29 13262681478255321699
12507557 5 18260541234385825397
12596602 18 18336819883590373592
12633257 1 17676210173502845616
14251739 40 18040713671057223886
14252887 29 17313096424581773186
14386348 63 14634866444326231154
15239191 94 11314321554582260785
18186145 218 18262244317598818679
19050596 39 18409732863515497427
20233049 118 18060700593922873392
20279233 1 15791729706798396851
20432913 95 17095238107610405858
20645477 56 16487251109985612239
20645477 70 16370720456753177906
20715895 44 18049719612546729173
20871999 31 8790592719817204537
21065198 48 18410008823411367266
231179 274 16200425862887290714
23402539 116 18341321276042683071
23503958 25 17203610376191163505
235170 7 14620789358612904289
23532345 12 18408885122559298734
23557571 272 17560532745699335213
23559900 14 17844259418970622407
2838139 119 16844144931632463952
3060560 45 12607401109686240744
312423 11 18261969504300942015
3268164 11 17203317915078597021
341906 21 18060701662958364321
474 4 17823703164573987172
5104073 3 18201157650561994619
5281201 14 14979688684070505888
573450 72 18411695465985404371
9882013 296 18411417323671239135

>  <PUBCHEM_SHAPE_MULTIPOLES>  (1) 
309.43
10.6
1.94
1.37
5.98
0.52
0.13
-0.11
-3.05
1.08
-0.03
-0.72
0.42
-2.04

>  <PUBCHEM_SHAPE_SELFOVERLAP>  (1) 
590.553

>  <PUBCHEM_SHAPE_VOLUME>  (1) 
192.6

>  <PUBCHEM_COORDINATE_TYPE>  (1) 
2
5
10

$$$$
