45372
     RDKit          3D

 33 38  0  0  0  0  0  0  0  0999 V2000
   -0.5026    1.1601   -0.2727 O   0  0  0  0  0  0  0  0  0  0  0  0
   -1.4363    3.8429   -0.3521 N   0  0  0  0  0  0  0  0  0  0  0  0
    0.1858    0.0811    0.3504 C   0  0  0  0  0  0  0  0  0  0  0  0
   -0.7539   -1.1130    0.4610 C   0  0  0  0  0  0  0  0  0  0  0  0
    1.4309   -0.2533   -0.4553 C   0  0  0  0  0  0  0  0  0  0  0  0
   -1.3151   -1.5450   -0.8862 C   0  0  0  0  0  0  0  0  0  0  0  0
   -2.0259   -0.7893    1.2318 C   0  0  0  0  0  0  0  0  0  0  0  0
    2.4326    0.8922   -0.4902 C   0  0  0  0  0  0  0  0  0  0  0  0
    2.2585   -1.3632    0.1770 C   0  0  0  0  0  0  0  0  0  0  0  0
   -2.7258   -1.4602   -0.8825 C   0  0  0  0  0  0  0  0  0  0  0  0
   -3.1618   -0.9965    0.4170 C   0  0  0  0  0  0  0  0  0  0  0  0
    3.6748    0.4766    0.0403 C   0  0  0  0  0  0  0  0  0  0  0  0
    3.5681   -0.9072    0.4496 C   0  0  0  0  0  0  0  0  0  0  0  0
   -0.6227   -1.9572   -2.0133 C   0  0  0  0  0  0  0  0  0  0  0  0
   -2.1490   -0.3345    2.5346 C   0  0  0  0  0  0  0  0  0  0  0  0
    2.2501    2.1790   -0.9700 C   0  0  0  0  0  0  0  0  0  0  0  0
    1.8762   -2.6639    0.4627 C   0  0  0  0  0  0  0  0  0  0  0  0
   -1.6451    1.5490    0.4761 C   0  0  0  0  0  0  0  0  0  0  0  0
   -3.4555   -1.7982   -2.0106 C   0  0  0  0  0  0  0  0  0  0  0  0
   -4.4350   -0.7572    0.9081 C   0  0  0  0  0  0  0  0  0  0  0  0
    4.7444    1.3550    0.1020 C   0  0  0  0  0  0  0  0  0  0  0  0
    4.5045   -1.7529    1.0217 C   0  0  0  0  0  0  0  0  0  0  0  0
   -1.3585   -2.2979   -3.1497 C   0  0  0  0  0  0  0  0  0  0  0  0
   -3.4321   -0.0936    3.0291 C   0  0  0  0  0  0  0  0  0  0  0  0
    3.3281    3.0638   -0.9073 C   0  0  0  0  0  0  0  0  0  0  0  0
    2.8202   -3.5156    1.0392 C   0  0  0  0  0  0  0  0  0  0  0  0
   -2.7611   -2.2200   -3.1482 C   0  0  0  0  0  0  0  0  0  0  0  0
   -4.5640   -0.3036    2.2240 C   0  0  0  0  0  0  0  0  0  0  0  0
    4.5629    2.6562   -0.3758 C   0  0  0  0  0  0  0  0  0  0  0  0
    4.1212   -3.0644    1.3169 C   0  0  0  0  0  0  0  0  0  0  0  0
   -2.3310    2.7004   -0.2416 C   0  0  0  0  0  0  0  0  0  0  0  0
   -0.9924    4.2835    0.9726 C   0  0  0  0  0  0  0  0  0  0  0  0
   -2.0904    4.9470   -1.0588 C   0  0  0  0  0  0  0  0  0  0  0  0
  1  3  1  0
  1 18  1  0
  2 31  1  0
  2 32  1  0
  2 33  1  0
  3  4  1  0
  3  5  1  0
  4  6  1  0
  4  7  1  0
  5  8  1  0
  5  9  1  0
  6 10  1  0
  6 14  2  0
  7 11  2  0
  7 15  1  0
  8 12  1  0
  8 16  2  0
  9 13  2  0
  9 17  1  0
 10 11  1  0
 10 19  2  0
 11 20  1  0
 12 13  1  0
 12 21  2  0
 13 22  1  0
 14 23  1  0
 15 24  2  0
 16 25  1  0
 17 26  2  0
 18 31  1  0
 19 27  1  0
 20 28  2  0
 21 29  1  0
 22 30  2  0
 23 27  2  0
 24 28  1  0
 25 29  2  0
 26 30  1  0
M  END
>  <PUBCHEM_COMPOUND_CID>  (1) 
45372

>  <PUBCHEM_CONFORMER_RMSD>  (1) 
0.8

>  <PUBCHEM_CONFORMER_DIVERSEORDER>  (1) 
2
7
3
6
5
1
4

>  <PUBCHEM_MMFF94_PARTIAL_CHARGES>  (1) 
45
1 -0.56
14 -0.15
15 -0.15
16 -0.15
17 -0.15
18 0.28
19 -0.15
2 -0.81
20 -0.15
21 -0.15
22 -0.15
23 -0.15
24 -0.15
25 -0.15
26 -0.15
27 -0.15
28 -0.15
29 -0.15
3 0.28
30 -0.15
31 0.27
32 0.27
33 0.27
37 0.15
38 0.15
39 0.15
4 0.29
40 0.15
43 0.15
44 0.15
45 0.15
46 0.15
47 0.15
48 0.15
49 0.15
5 0.29
50 0.15
51 0.15
52 0.15
53 0.15
54 0.15
6 -0.14
7 -0.14
8 -0.14
9 -0.14

>  <PUBCHEM_EFFECTIVE_ROTOR_COUNT>  (1) 
6.4

>  <PUBCHEM_PHARMACOPHORE_FEATURES>  (1) 
8
1 1 acceptor
1 2 cation
5 4 6 7 10 11 rings
5 5 8 9 12 13 rings
6 6 10 14 19 23 27 rings
6 7 11 15 20 24 28 rings
6 8 12 16 21 25 29 rings
6 9 13 17 22 26 30 rings

>  <PUBCHEM_HEAVY_ATOM_COUNT>  (1) 
33

>  <PUBCHEM_ATOM_DEF_STEREO_COUNT>  (1) 
0

>  <PUBCHEM_ATOM_UDEF_STEREO_COUNT>  (1) 
0

>  <PUBCHEM_BOND_DEF_STEREO_COUNT>  (1) 
0

>  <PUBCHEM_BOND_UDEF_STEREO_COUNT>  (1) 
0

>  <PUBCHEM_ISOTOPIC_ATOM_COUNT>  (1) 
0

>  <PUBCHEM_COMPONENT_COUNT>  (1) 
1

>  <PUBCHEM_CACTVS_TAUTO_COUNT>  (1) 
1

>  <PUBCHEM_CONFORMER_ID>  (1) 
0000B13C00000002

>  <PUBCHEM_MMFF94_ENERGY>  (1) 
173.7361

>  <PUBCHEM_FEATURE_SELFOVERLAP>  (1) 
40.923

>  <PUBCHEM_SHAPE_FINGERPRINT>  (1) 
10006869 2 18338811022118978505
10369192 42 17026020711627417100
10721379 63 17263803338159938303
11049842 53 17131569253617294214
11578080 2 17700657810061775545
12107698 1 18263083223427455755
12156800 1 17188065373676710633
12160290 23 17274521200992210023
12422481 6 18053965965128076417
12741549 16 17241324828074120373
13140716 1 17972610050393993154
13583140 156 18115874000993617474
13636023 20 17050159423889043701
13782708 43 14189025556184193550
13911987 19 17754177797375423828
13965767 371 17986979399641497241
14294032 229 17059795385904579019
14725015 67 16102189648358488418
14840074 17 18198923550619635309
15219462 58 17896906316420495418
15297060 5 16413824611418770563
15324884 4 17552930524441341718
17974551 9 17462588120757685352
20511986 3 18130221670000501033
20691752 17 18053933237240280696
20764821 26 18197482125093655896
21133410 90 17273106082841992633
2132832 1 18193525970892813634
23419403 2 17603302652529289695
23598288 3 18342736282402327380
3493558 16 17531256075683785565
4017518 198 17125900008651240750
469060 322 18194108840514423681
633830 44 18196107753165053222
9862522 239 18057602058428563403

>  <PUBCHEM_SHAPE_MULTIPOLES>  (1) 
668.27
8.78
5.19
2.52
4.96
6.04
-0.61
-1.11
2.68
1.09
-1.36
-3.63
-1.89
-2.73

>  <PUBCHEM_SHAPE_SELFOVERLAP>  (1) 
1508.679

>  <PUBCHEM_SHAPE_VOLUME>  (1) 
353.6

>  <PUBCHEM_COORDINATE_TYPE>  (1) 
2
5
10

$$$$
