45378
     RDKit          3D

 22 23  0  0  1  0  0  0  0  0999 V2000
    0.6401    1.3966   -0.0480 O   0  0  0  0  0  0  0  0  0  0  0  0
    4.3135    1.2506   -0.3134 N   0  0  0  0  0  0  0  0  0  0  0  0
   -0.3571    0.6298    0.6131 C   0  0  0  0  0  0  0  0  0  0  0  0
   -0.2601   -0.8422    0.2619 C   0  0  0  0  0  0  0  0  0  0  0  0
    0.0706   -1.7535    1.2506 C   0  0  0  0  0  0  0  0  0  0  0  0
   -0.5049   -1.2451   -1.0402 C   0  0  0  0  0  0  0  0  0  0  0  0
   -1.7281    1.2120    0.3387 C   0  0  0  0  0  0  0  0  0  0  0  0
    1.9414    0.8758    0.1895 C   0  0  0  0  0  0  0  0  0  0  0  0
    0.1594   -3.1076    0.9278 C   0  0  0  0  0  0  0  0  0  0  0  0
   -0.4162   -2.5993   -1.3629 C   0  0  0  0  0  0  0  0  0  0  0  0
   -0.0840   -3.5305   -0.3788 C   0  0  0  0  0  0  0  0  0  0  0  0
    2.9547    1.7400   -0.5438 C   0  0  0  0  0  0  0  0  0  0  0  0
    0.3362   -1.3262    2.6573 C   0  0  0  0  0  0  0  0  0  0  0  0
   -0.8636   -0.2676   -2.1111 C   0  0  0  0  0  0  0  0  0  0  0  0
   -2.8261    0.3705    0.3170 C   0  0  0  0  0  0  0  0  0  0  0  0
   -1.8513    2.5720    0.1165 C   0  0  0  0  0  0  0  0  0  0  0  0
    0.0118   -4.9784   -0.7233 C   0  0  0  0  0  0  0  0  0  0  0  0
   -4.0889    0.9065    0.0645 C   0  0  0  0  0  0  0  0  0  0  0  0
   -3.1141    3.1080   -0.1359 C   0  0  0  0  0  0  0  0  0  0  0  0
   -4.2329    2.2751   -0.1619 C   0  0  0  0  0  0  0  0  0  0  0  0
    4.6166    1.2390    1.1172 C   0  0  0  0  0  0  0  0  0  0  0  0
    5.2828    2.0745   -1.0346 C   0  0  0  0  0  0  0  0  0  0  0  0
  1  3  1  0
  1  8  1  0
  2 12  1  0
  2 21  1  0
  2 22  1  0
  3  4  1  0
  3  7  1  0
  4  5  2  0
  4  6  1  0
  5  9  1  0
  5 13  1  0
  6 10  2  0
  6 14  1  0
  7 15  2  0
  7 16  1  0
  8 12  1  0
  9 11  2  0
 10 11  1  0
 11 17  1  0
 15 18  1  0
 16 19  2  0
 18 20  2  0
 19 20  1  0
M  END
>  <PUBCHEM_COMPOUND_CID>  (1) 
45378

>  <PUBCHEM_CONFORMER_RMSD>  (1) 
0.8

>  <PUBCHEM_CONFORMER_DIVERSEORDER>  (1) 
2
9
16
25
23
8
4
21
24
17
18
14
11
3
22
5
19
7
10
15
20
13
1
6
12

>  <PUBCHEM_MMFF94_PARTIAL_CHARGES>  (1) 
29
1 -0.56
10 -0.15
11 -0.14
12 0.27
13 0.14
14 0.14
15 -0.15
16 -0.15
17 0.14
18 -0.15
19 -0.15
2 -0.81
20 -0.15
21 0.27
22 0.27
26 0.15
27 0.15
3 0.57
36 0.15
37 0.15
4 -0.14
41 0.15
42 0.15
43 0.15
5 -0.14
6 -0.14
7 -0.14
8 0.28
9 -0.15

>  <PUBCHEM_EFFECTIVE_ROTOR_COUNT>  (1) 
6

>  <PUBCHEM_PHARMACOPHORE_FEATURES>  (1) 
4
1 1 acceptor
1 2 cation
6 4 5 6 9 10 11 rings
6 7 15 16 18 19 20 rings

>  <PUBCHEM_HEAVY_ATOM_COUNT>  (1) 
22

>  <PUBCHEM_ATOM_DEF_STEREO_COUNT>  (1) 
0

>  <PUBCHEM_ATOM_UDEF_STEREO_COUNT>  (1) 
1

>  <PUBCHEM_BOND_DEF_STEREO_COUNT>  (1) 
0

>  <PUBCHEM_BOND_UDEF_STEREO_COUNT>  (1) 
0

>  <PUBCHEM_ISOTOPIC_ATOM_COUNT>  (1) 
0

>  <PUBCHEM_COMPONENT_COUNT>  (1) 
1

>  <PUBCHEM_CACTVS_TAUTO_COUNT>  (1) 
1

>  <PUBCHEM_CONFORMER_ID>  (1) 
0000B14200000002

>  <PUBCHEM_MMFF94_ENERGY>  (1) 
76.5868

>  <PUBCHEM_FEATURE_SELFOVERLAP>  (1) 
20.297

>  <PUBCHEM_SHAPE_FINGERPRINT>  (1) 
107951 10 17896058623452761554
12173636 292 18411129273220982588
12592029 89 18269559334014096179
12788726 201 18046906258342670578
13004483 165 17549540056094103454
14251751 93 18341326755977775917
14955137 171 17980185397535694418
15042514 8 18122351434546502707
15906896 17 18190185774367817690
17539 30 17981885555675388446
20101258 96 17617673484537438880
20197701 30 18410006615814157116
20567600 347 18334586698217741689
20600515 1 17040014221330446549
21524375 3 18334575737229587568
23366157 5 17902801760276779873
23419403 2 17267842750364544519
23559900 14 17691398617086904709
23598288 3 17755886429749421252
23728640 28 18338518663647127730
298252 57 18412824689843623232
3411729 13 18118123576394473889
3759504 43 18408606997625742284
394222 165 18187922811976452240
497634 4 16083352223015245908
532947 4 18126012559697093982
6138700 20 18050294661591419334
6669772 16 18271816674768422198
7364860 26 18051411773446184161
81228 2 17766262559640723809
81539 233 18263924350007437309
9841814 1 17394733869842779697
9981440 41 18409731725233373409

>  <PUBCHEM_SHAPE_MULTIPOLES>  (1) 
441.9
6.96
5.14
1.59
5.8
6.33
-0.39
-10.78
0.68
0.12
1.04
0.51
0.9
-0.59

>  <PUBCHEM_SHAPE_SELFOVERLAP>  (1) 
927.365

>  <PUBCHEM_SHAPE_VOLUME>  (1) 
253.1

>  <PUBCHEM_COORDINATE_TYPE>  (1) 
2
5
10

$$$$
