45370
     RDKit          3D

 15 15  0  0  0  0  0  0  0  0999 V2000
    0.1950   -1.4527   -0.8713 S   0  0  0  0  0  0  0  0  0  0  0  0
   -3.3421    0.1956    0.2605 N   0  0  0  0  0  0  0  0  0  0  0  0
   -2.4092   -0.7401   -0.3664 C   0  0  0  0  0  0  0  0  0  0  0  0
   -4.7224   -0.2349    0.0411 C   0  0  0  0  0  0  0  0  0  0  0  0
   -3.1390    1.5466   -0.2612 C   0  0  0  0  0  0  0  0  0  0  0  0
   -0.9757   -0.2994   -0.0977 C   0  0  0  0  0  0  0  0  0  0  0  0
   -4.9587   -1.6332    0.5735 C   0  0  0  0  0  0  0  0  0  0  0  0
   -4.0528    2.5465    0.4169 C   0  0  0  0  0  0  0  0  0  0  0  0
    1.7641   -0.7234   -0.4153 C   0  0  0  0  0  0  0  0  0  0  0  0
    2.3838   -1.1049    0.7705 C   0  0  0  0  0  0  0  0  0  0  0  0
    2.3551    0.2202   -1.2496 C   0  0  0  0  0  0  0  0  0  0  0  0
    4.2044    0.4099    0.2935 C   0  0  0  0  0  0  0  0  0  0  0  0
    3.6072   -0.5365    1.1258 C   0  0  0  0  0  0  0  0  0  0  0  0
    3.5784    0.7884   -0.8942 C   0  0  0  0  0  0  0  0  0  0  0  0
    5.5118    1.0181    0.6739 C   0  0  0  0  0  0  0  0  0  0  0  0
  1  6  1  0
  1  9  1  0
  2  3  1  0
  2  4  1  0
  2  5  1  0
  3  6  1  0
  4  7  1  0
  5  8  1  0
  9 10  2  0
  9 11  1  0
 10 13  1  0
 11 14  2  0
 12 13  2  0
 12 14  1  0
 12 15  1  0
M  END
>  <PUBCHEM_COMPOUND_CID>  (1) 
45370

>  <PUBCHEM_CONFORMER_RMSD>  (1) 
0.6

>  <PUBCHEM_CONFORMER_DIVERSEORDER>  (1) 
1
97
48
89
45
60
93
68
25
87
94
46
26
30
55
95
76
62
50
43
20
74
85
5
49
86
2
27
64
75
34
96
3
36
18
65
19
23
72
54
28
11
14
21
12
61
22
24
59
41
56
40
73
52
71
33
44
53
32
58
4
47
6
57
42
38
35
51
63
91
80
84
39
92
77
78
79
37
83
13
16
88
66
90
69
7
70
17
67
15
9
29
82
8
10
81
31

>  <PUBCHEM_MMFF94_PARTIAL_CHARGES>  (1) 
17
1 -0.33
10 -0.15
11 -0.15
12 -0.14
13 -0.15
14 -0.15
15 0.14
2 -0.81
3 0.27
30 0.15
31 0.15
32 0.15
33 0.15
4 0.27
5 0.27
6 0.23
9 0.1

>  <PUBCHEM_EFFECTIVE_ROTOR_COUNT>  (1) 
6

>  <PUBCHEM_PHARMACOPHORE_FEATURES>  (1) 
2
1 2 cation
6 9 10 11 12 13 14 rings

>  <PUBCHEM_HEAVY_ATOM_COUNT>  (1) 
15

>  <PUBCHEM_ATOM_DEF_STEREO_COUNT>  (1) 
0

>  <PUBCHEM_ATOM_UDEF_STEREO_COUNT>  (1) 
0

>  <PUBCHEM_BOND_DEF_STEREO_COUNT>  (1) 
0

>  <PUBCHEM_BOND_UDEF_STEREO_COUNT>  (1) 
0

>  <PUBCHEM_ISOTOPIC_ATOM_COUNT>  (1) 
0

>  <PUBCHEM_COMPONENT_COUNT>  (1) 
1

>  <PUBCHEM_CACTVS_TAUTO_COUNT>  (1) 
1

>  <PUBCHEM_CONFORMER_ID>  (1) 
0000B13A00000001

>  <PUBCHEM_MMFF94_ENERGY>  (1) 
30.7224

>  <PUBCHEM_FEATURE_SELFOVERLAP>  (1) 
10.148

>  <PUBCHEM_SHAPE_FINGERPRINT>  (1) 
10354089 29 18186800305605170106
10366900 7 16877670071295595108
10498660 4 17988366966136128065
10803635 8 9943536197566324219
10912923 1 17748831825347869653
11405975 8 18125447410541068795
11796584 16 8286209352872110064
12107183 9 17684075890566976267
12251169 10 17676767647468169814
12507557 5 18113896078792071717
12555020 224 8142087525293513217
12596602 18 17895187835517397368
12633257 1 16660365896080427264
12916748 109 18341899618662851862
14123255 352 18271519819060227708
14252887 29 16081360826979046466
14341114 328 18040722458613078425
15188451 53 15575008307627922313
15242433 33 11023832768456252565
15880784 105 15647338588595978257
18186145 218 16056593248909591103
20281389 69 18272365413155134656
20325693 3 11167941360237704257
20374829 77 8790888471159666588
20432913 95 15936406727998910106
20645477 56 17632577188252075287
20645477 70 13984664767131516267
20871999 31 15267048298610415599
21065198 48 18187361004373437698
231179 274 17632854231365621322
23402539 116 18260824938862129767
23402655 69 12679468590301125066
23557571 272 18200613414276583581
23559900 14 17983017747767868255
26918003 58 16225763038475205451
2838139 119 17702366542291529776
2916195 48 17988354962134799064
3268164 11 17917419931009193357
4921388 177 14548723045928165429
5104073 3 18337676304401249187

>  <PUBCHEM_SHAPE_MULTIPOLES>  (1) 
307.56
12.43
1.87
1.06
2.02
0.84
0.07
3.15
-3.08
2.38
-0.16
-0.85
-0.1
-0.04

>  <PUBCHEM_SHAPE_SELFOVERLAP>  (1) 
593.382

>  <PUBCHEM_SHAPE_VOLUME>  (1) 
189.9

>  <PUBCHEM_COORDINATE_TYPE>  (1) 
2
5
10

$$$$
