45386
     RDKit          3D

 20 21  0  0  0  0  0  0  0  0999 V2000
   -0.3847    0.7957    0.0600 O   0  0  0  0  0  0  0  0  0  0  0  0
   -4.0021    0.1435    0.3222 N   0  0  0  0  0  0  0  0  0  0  0  0
    0.7897    0.2164    0.6118 C   0  0  0  0  0  0  0  0  0  0  0  0
   -2.7707    0.8029   -0.1083 C   0  0  0  0  0  0  0  0  0  0  0  0
   -5.1637    0.7459   -0.2857 C   0  0  0  0  0  0  0  0  0  0  0  0
   -1.5570    0.1351    0.5183 C   0  0  0  0  0  0  0  0  0  0  0  0
    0.8860   -1.2423    0.2154 C   0  0  0  0  0  0  0  0  0  0  0  0
    2.0312    1.0090    0.2508 C   0  0  0  0  0  0  0  0  0  0  0  0
   -5.2646    2.2144    0.1059 C   0  0  0  0  0  0  0  0  0  0  0  0
   -6.4252   -0.0163    0.1003 C   0  0  0  0  0  0  0  0  0  0  0  0
    1.5164   -2.1323    1.0667 C   0  0  0  0  0  0  0  0  0  0  0  0
    3.1016    1.0178    1.1259 C   0  0  0  0  0  0  0  0  0  0  0  0
    0.3416   -1.6511   -0.9888 C   0  0  0  0  0  0  0  0  0  0  0  0
    2.0619    1.7035   -0.9442 C   0  0  0  0  0  0  0  0  0  0  0  0
    1.6054   -3.4756    0.7014 C   0  0  0  0  0  0  0  0  0  0  0  0
    4.2434    1.7472    0.7942 C   0  0  0  0  0  0  0  0  0  0  0  0
    0.4305   -2.9945   -1.3541 C   0  0  0  0  0  0  0  0  0  0  0  0
    3.2037    2.4327   -1.2761 C   0  0  0  0  0  0  0  0  0  0  0  0
    1.0624   -3.9066   -0.5088 C   0  0  0  0  0  0  0  0  0  0  0  0
    4.2943    2.4546   -0.4068 C   0  0  0  0  0  0  0  0  0  0  0  0
  1  3  1  0
  1  6  1  0
  2  4  1  0
  2  5  1  0
  3  7  1  0
  3  8  1  0
  4  6  1  0
  5  9  1  0
  5 10  1  0
  7 11  2  0
  7 13  1  0
  8 12  2  0
  8 14  1  0
 11 15  1  0
 12 16  1  0
 13 17  2  0
 14 18  2  0
 15 19  2  0
 16 20  2  0
 17 19  1  0
 18 20  1  0
M  END
>  <PUBCHEM_COMPOUND_CID>  (1) 
45386

>  <PUBCHEM_CONFORMER_RMSD>  (1) 
0.8

>  <PUBCHEM_CONFORMER_DIVERSEORDER>  (1) 
1
26
29
25
14
31
4
28
20
12
15
9
16
30
13
11
18
24
6
27
3
23
19
7
21
8
17
2
5
10
22

>  <PUBCHEM_MMFF94_PARTIAL_CHARGES>  (1) 
29
1 -0.56
11 -0.15
12 -0.15
13 -0.15
14 -0.15
15 -0.15
16 -0.15
17 -0.15
18 -0.15
19 -0.15
2 -0.9
20 -0.15
27 0.36
3 0.57
34 0.15
35 0.15
36 0.15
37 0.15
38 0.15
39 0.15
4 0.27
40 0.15
41 0.15
42 0.15
43 0.15
5 0.27
6 0.28
7 -0.14
8 -0.14

>  <PUBCHEM_EFFECTIVE_ROTOR_COUNT>  (1) 
7

>  <PUBCHEM_PHARMACOPHORE_FEATURES>  (1) 
6
1 1 acceptor
1 2 cation
1 2 donor
3 5 9 10 hydrophobe
6 7 11 13 15 17 19 rings
6 8 12 14 16 18 20 rings

>  <PUBCHEM_HEAVY_ATOM_COUNT>  (1) 
20

>  <PUBCHEM_ATOM_DEF_STEREO_COUNT>  (1) 
0

>  <PUBCHEM_ATOM_UDEF_STEREO_COUNT>  (1) 
0

>  <PUBCHEM_BOND_DEF_STEREO_COUNT>  (1) 
0

>  <PUBCHEM_BOND_UDEF_STEREO_COUNT>  (1) 
0

>  <PUBCHEM_ISOTOPIC_ATOM_COUNT>  (1) 
0

>  <PUBCHEM_COMPONENT_COUNT>  (1) 
1

>  <PUBCHEM_CACTVS_TAUTO_COUNT>  (1) 
1

>  <PUBCHEM_CONFORMER_ID>  (1) 
0000B14A00000001

>  <PUBCHEM_MMFF94_ENERGY>  (1) 
48.4509

>  <PUBCHEM_FEATURE_SELFOVERLAP>  (1) 
30.446

>  <PUBCHEM_SHAPE_FINGERPRINT>  (1) 
10090160 65 18336258016179830397
10554248 39 17842832236784869029
11405975 8 18123472679610915705
11488393 25 17916049921761717679
11823591 26 18337663234768534500
12532896 13 18268429216913676822
12730499 353 18410867559699887923
12788726 201 17543917157845399310
133893 2 18194988256521621154
13681431 1 17980212893721027226
13836976 161 18411979152490529054
13955234 65 18339084778870386963
14790565 3 18266178516327386845
14955137 171 18199179595337917634
15502722 9 18410578340638640431
15849732 13 18187362152021340004
15906896 17 17903079168199211650
16752209 62 18052531372678396506
17539 30 17551510376636072166
18785283 64 18335135350177828270
20197701 30 18340769338005262386
20567600 347 18412549824758277351
20600515 1 17049641111467107170
20645477 70 18338796707140303411
21054139 6 18127961100491345119
21344244 246 18129394726247180094
21524375 3 18337391646837986304
23419403 2 17534322475921212166
23559900 14 18125716791105878915
23598288 3 17609789951995853160
298252 57 18336548343005088832
3060560 45 18335146405618807812
5104073 3 18265621992536052017
59755656 215 18340774758391296228
59755656 520 18269548489559472596
60123966 16 18046892793979089213
6025842 7 18411416181637258279
6669772 16 18272097110642680630
7364860 26 18268990899482539194
77188 2 17761209917185537938
81228 2 17548128291727314338
81539 233 18409449189172581407
8272917 22 18336547123054891801
9841814 1 17972036933746716627
9999458 23 18261112959289715798

>  <PUBCHEM_SHAPE_MULTIPOLES>  (1) 
400.74
10.38
4.29
1.13
20.86
4.56
-0.14
-10.04
0.56
-4.23
-0.89
-0.88
0.19
-0.57

>  <PUBCHEM_SHAPE_SELFOVERLAP>  (1) 
833.369

>  <PUBCHEM_SHAPE_VOLUME>  (1) 
228.8

>  <PUBCHEM_COORDINATE_TYPE>  (1) 
2
5
10

$$$$
