45384
     RDKit          3D

 22 23  0  0  1  0  0  0  0  0999 V2000
    1.3769   -1.3669   -0.0821 O   0  0  0  0  0  0  0  0  0  0  0  0
   -0.6293   -4.4578   -0.1685 N   0  0  0  0  0  0  0  0  0  0  0  0
    1.2985   -0.1297    0.6126 C   0  0  0  0  0  0  0  0  0  0  0  0
   -0.0510    0.5361    0.4248 C   0  0  0  0  0  0  0  0  0  0  0  0
    2.4563    0.7633    0.2176 C   0  0  0  0  0  0  0  0  0  0  0  0
   -2.5112    1.7500    0.0816 C   0  0  0  0  0  0  0  0  0  0  0  0
    0.3026   -2.2299    0.2666 C   0  0  0  0  0  0  0  0  0  0  0  0
   -3.8378    2.4056   -0.1033 C   0  0  0  0  0  0  0  0  0  0  0  0
   -0.8817    0.6940    1.5188 C   0  0  0  0  0  0  0  0  0  0  0  0
   -0.4171    0.9689   -0.8362 C   0  0  0  0  0  0  0  0  0  0  0  0
    0.4480   -3.5293   -0.5094 C   0  0  0  0  0  0  0  0  0  0  0  0
   -2.1228    1.3062    1.3455 C   0  0  0  0  0  0  0  0  0  0  0  0
   -1.6584    1.5814   -1.0093 C   0  0  0  0  0  0  0  0  0  0  0  0
   -4.9437    1.3955   -0.4399 C   0  0  0  0  0  0  0  0  0  0  0  0
    2.9947    0.6478   -1.0516 C   0  0  0  0  0  0  0  0  0  0  0  0
    2.9495    1.6735    1.1354 C   0  0  0  0  0  0  0  0  0  0  0  0
   -6.2994    2.0666   -0.5932 C   0  0  0  0  0  0  0  0  0  0  0  0
    4.0612    1.4701   -1.4150 C   0  0  0  0  0  0  0  0  0  0  0  0
    4.0159    2.4958    0.7719 C   0  0  0  0  0  0  0  0  0  0  0  0
   -0.6284   -4.7364    1.2672 C   0  0  0  0  0  0  0  0  0  0  0  0
   -0.4946   -5.6988   -0.9302 C   0  0  0  0  0  0  0  0  0  0  0  0
    4.5718    2.3940   -0.5032 C   0  0  0  0  0  0  0  0  0  0  0  0
  1  3  1  0
  1  7  1  0
  2 11  1  0
  2 20  1  0
  2 21  1  0
  3  4  1  0
  3  5  1  0
  4  9  2  0
  4 10  1  0
  5 15  2  0
  5 16  1  0
  6  8  1  0
  6 12  2  0
  6 13  1  0
  7 11  1  0
  8 14  1  0
  9 12  1  0
 10 13  2  0
 14 17  1  0
 15 18  1  0
 16 19  2  0
 18 22  2  0
 19 22  1  0
M  END
>  <PUBCHEM_COMPOUND_CID>  (1) 
45384

>  <PUBCHEM_CONFORMER_RMSD>  (1) 
0.8

>  <PUBCHEM_CONFORMER_DIVERSEORDER>  (1) 
3
186
65
61
144
180
32
152
235
214
242
99
227
237
213
234
169
195
16
125
243
70
210
52
219
120
132
191
78
6
150
71
138
131
66
179
188
194
177
121
238
105
149
228
84
156
115
240
184
236
111
209
129
60
64
160
218
91
37
133
223
155
75
167
147
123
63
79
128
87
193
166
55
126
185
205
58
181
116
168
104
33
124
241
225
59
153
39
226
117
187
27
154
164
81
108
50
173
56
182
95
201
145
102
100
141
107
183
239
45
163
229
53
7
19
135
212
200
202
171
176
143
89
25
69
12
233
151
8
190
112
137
192
203
41
109
196
118
110
206
119
28
106
85
146
159
221
170
211
73
175
77
207
96
199
230
83
26
162
157
231
34
189
5
217
158
220
88
74
57
46
130
178
204
139
44
30
208
127
93
62
9
174
172
114
47
140
48
148
98
13
29
97
54
142
20
67
82
101
103
113
134
42
136
49
15
197
51
224
17
198
22
36
80
222
86
165
38
216
76
90
122
35
161
21
14
232
43
94
92
23
31
68
215
40
1
10
4
2
11
72
18
24

>  <PUBCHEM_MMFF94_PARTIAL_CHARGES>  (1) 
29
1 -0.56
10 -0.15
11 0.27
12 -0.15
13 -0.15
15 -0.15
16 -0.15
18 -0.15
19 -0.15
2 -0.81
20 0.27
21 0.27
22 -0.15
28 0.15
29 0.15
3 0.57
32 0.15
33 0.15
36 0.15
37 0.15
4 -0.14
41 0.15
42 0.15
49 0.15
5 -0.14
6 -0.14
7 0.28
8 0.14
9 -0.15

>  <PUBCHEM_EFFECTIVE_ROTOR_COUNT>  (1) 
8

>  <PUBCHEM_PHARMACOPHORE_FEATURES>  (1) 
5
1 1 acceptor
1 17 hydrophobe
1 2 cation
6 4 6 9 10 12 13 rings
6 5 15 16 18 19 22 rings

>  <PUBCHEM_HEAVY_ATOM_COUNT>  (1) 
22

>  <PUBCHEM_ATOM_DEF_STEREO_COUNT>  (1) 
0

>  <PUBCHEM_ATOM_UDEF_STEREO_COUNT>  (1) 
1

>  <PUBCHEM_BOND_DEF_STEREO_COUNT>  (1) 
0

>  <PUBCHEM_BOND_UDEF_STEREO_COUNT>  (1) 
0

>  <PUBCHEM_ISOTOPIC_ATOM_COUNT>  (1) 
0

>  <PUBCHEM_COMPONENT_COUNT>  (1) 
1

>  <PUBCHEM_CACTVS_TAUTO_COUNT>  (1) 
1

>  <PUBCHEM_CONFORMER_ID>  (1) 
0000B14800000003

>  <PUBCHEM_MMFF94_ENERGY>  (1) 
58.4672

>  <PUBCHEM_FEATURE_SELFOVERLAP>  (1) 
25.372

>  <PUBCHEM_SHAPE_FINGERPRINT>  (1) 
10815517 723 17838911674256348467
12730499 353 18337399249151925825
12788726 201 17901941173580015818
13533116 47 18124595276756674097
13681431 1 17615975409139761666
13955234 65 18195246607774464993
14004458 79 17833283286648296334
14251757 5 17976819006348122743
14556957 393 17178295465693028596
15842332 3 17484812519747909977
17357779 13 17481421999286103038
17539 30 17979637063070949470
17859628 70 18123468281258286807
1813 80 17187859047848584862
21049683 118 18194655237516252480
2255824 54 18195807358240380738
23559900 14 17978781321234386545
266924 78 18048851057982946015
283562 15 17759231191856087322
3057174 1 18337680723627301487
4409770 3 18194400228260017355
458136 41 18267598917898989913
495365 180 18337104558212770112
58779409 8 18339370785063682492
59755656 520 18409720790383742172
6025842 7 18266173938260942909
621550 34 18189329079143928381
6442390 28 18411138056255159445
70251023 43 17833273017619323105
7164475 11 17832712644820164260
81228 2 17832718137898531210
9658208 31 18341049735072224096

>  <PUBCHEM_SHAPE_MULTIPOLES>  (1) 
441.9
8.75
6.55
1.31
7.29
16.95
0.15
-13.68
-2.31
1.44
-0.59
-0.33
-0.05
0.4

>  <PUBCHEM_SHAPE_SELFOVERLAP>  (1) 
913.739

>  <PUBCHEM_SHAPE_VOLUME>  (1) 
253.7

>  <PUBCHEM_COORDINATE_TYPE>  (1) 
2
5
10

$$$$
