45394
     RDKit          3D

 22 23  0  0  1  0  0  0  0  0999 V2000
    1.7922   -0.6904   -0.0901 O   0  0  0  0  0  0  0  0  0  0  0  0
    1.4912   -4.3621   -0.2062 N   0  0  0  0  0  0  0  0  0  0  0  0
    1.1474    0.3548    0.6249 C   0  0  0  0  0  0  0  0  0  0  0  0
   -0.3593    0.3025    0.4611 C   0  0  0  0  0  0  0  0  0  0  0  0
   -4.5876    0.1576    0.0013 C   0  0  0  0  0  0  0  0  0  0  0  0
   -3.1060    0.2086    0.1623 C   0  0  0  0  0  0  0  0  0  0  0  0
    1.7365    1.6939    0.2328 C   0  0  0  0  0  0  0  0  0  0  0  0
   -1.1468    0.0371    1.5657 C   0  0  0  0  0  0  0  0  0  0  0  0
   -0.9074    0.5223   -0.7889 C   0  0  0  0  0  0  0  0  0  0  0  0
   -2.5327   -0.0103    1.4150 C   0  0  0  0  0  0  0  0  0  0  0  0
   -2.2934    0.4749   -0.9396 C   0  0  0  0  0  0  0  0  0  0  0  0
    1.2616   -1.9632    0.2553 C   0  0  0  0  0  0  0  0  0  0  0  0
    1.9935   -3.0304   -0.5427 C   0  0  0  0  0  0  0  0  0  0  0  0
   -5.0379   -0.9636   -0.9545 C   0  0  0  0  0  0  0  0  0  0  0  0
   -5.1769    1.5043   -0.4593 C   0  0  0  0  0  0  0  0  0  0  0  0
    1.7529    2.7210    1.1596 C   0  0  0  0  0  0  0  0  0  0  0  0
    2.2447    1.8595   -1.0432 C   0  0  0  0  0  0  0  0  0  0  0  0
    2.2951    3.9544    0.7985 C   0  0  0  0  0  0  0  0  0  0  0  0
    2.7871    3.0928   -1.4044 C   0  0  0  0  0  0  0  0  0  0  0  0
    1.6472   -4.6204    1.2248 C   0  0  0  0  0  0  0  0  0  0  0  0
    2.1862   -5.3834   -0.9888 C   0  0  0  0  0  0  0  0  0  0  0  0
    2.8123    4.1402   -0.4835 C   0  0  0  0  0  0  0  0  0  0  0  0
  1  3  1  0
  1 12  1  0
  2 13  1  0
  2 20  1  0
  2 21  1  0
  3  4  1  0
  3  7  1  0
  4  8  2  0
  4  9  1  0
  5  6  1  0
  5 14  1  0
  5 15  1  0
  6 10  2  0
  6 11  1  0
  7 16  2  0
  7 17  1  0
  8 10  1  0
  9 11  2  0
 12 13  1  0
 16 18  1  0
 17 19  2  0
 18 22  2  0
 19 22  1  0
M  END
>  <PUBCHEM_COMPOUND_CID>  (1) 
45394

>  <PUBCHEM_CONFORMER_RMSD>  (1) 
0.8

>  <PUBCHEM_CONFORMER_DIVERSEORDER>  (1) 
3
89
111
53
77
103
80
90
75
60
6
20
73
23
113
46
64
72
49
67
82
5
109
97
93
65
32
54
119
104
39
68
37
91
13
118
34
85
59
94
50
58
26
40
116
51
41
7
79
95
112
22
66
92
74
78
107
44
27
70
15
33
81
96
43
76
63
52
14
38
45
106
100
83
88
57
117
47
101
1
110
69
25
114
56
48
108
61
87
102
21
55
9
86
36
30
24
19
99
105
62
35
42
71
12
2
18
16
28
8
29
115
17
10
84
31
4
11
98

>  <PUBCHEM_MMFF94_PARTIAL_CHARGES>  (1) 
29
1 -0.56
10 -0.15
11 -0.15
12 0.28
13 0.27
16 -0.15
17 -0.15
18 -0.15
19 -0.15
2 -0.81
20 0.27
21 0.27
22 -0.15
25 0.15
26 0.15
27 0.15
28 0.15
3 0.57
39 0.15
4 -0.14
40 0.15
41 0.15
42 0.15
49 0.15
5 0.14
6 -0.14
7 -0.14
8 -0.15
9 -0.15

>  <PUBCHEM_EFFECTIVE_ROTOR_COUNT>  (1) 
7

>  <PUBCHEM_PHARMACOPHORE_FEATURES>  (1) 
5
1 1 acceptor
1 2 cation
3 5 14 15 hydrophobe
6 4 6 8 9 10 11 rings
6 7 16 17 18 19 22 rings

>  <PUBCHEM_HEAVY_ATOM_COUNT>  (1) 
22

>  <PUBCHEM_ATOM_DEF_STEREO_COUNT>  (1) 
0

>  <PUBCHEM_ATOM_UDEF_STEREO_COUNT>  (1) 
1

>  <PUBCHEM_BOND_DEF_STEREO_COUNT>  (1) 
0

>  <PUBCHEM_BOND_UDEF_STEREO_COUNT>  (1) 
0

>  <PUBCHEM_ISOTOPIC_ATOM_COUNT>  (1) 
0

>  <PUBCHEM_COMPONENT_COUNT>  (1) 
1

>  <PUBCHEM_CACTVS_TAUTO_COUNT>  (1) 
1

>  <PUBCHEM_CONFORMER_ID>  (1) 
0000B15200000003

>  <PUBCHEM_MMFF94_ENERGY>  (1) 
63.994

>  <PUBCHEM_FEATURE_SELFOVERLAP>  (1) 
25.371

>  <PUBCHEM_SHAPE_FINGERPRINT>  (1) 
10815517 723 16901887089960969739
11045515 52 17904203628817081062
11101153 10 17904499411470058966
12730499 353 18265062495293159577
12788726 201 17037261697165523707
13004483 165 17690557490059134139
13590594 115 17761220912550034801
13681431 1 18264492784749763520
13911987 19 18118998874066248054
13955234 65 18411140229935600115
15842332 3 17916882231247672097
17539 30 17257651114914030102
17868525 174 18194964029028653953
1813 80 17842003182492649951
18915476 22 18264225719520264995
20600515 1 16958974343533250196
21120745 212 17620493315545775470
21304303 282 17479703432430937156
2255824 54 18411980269192601418
23366157 5 18409161087483618503
23558518 356 17541929232796766400
23559900 14 18339633469700898123
3057174 1 18265338480716188230
4409770 3 10083485361823283171
458136 41 18338812215982125955
463206 1 17973445400059092731
495365 180 18337947999653420033
58779409 8 17834405896578807788
59025328 239 17406781325869212071
59755656 520 18050277373820499892
6025842 7 18410570721604203319
633830 44 17700164211230508745
6442390 28 18050854613087526761
70251023 43 18337391518495181441
77188 2 18051130294005577716
7808743 9 17470731473357518780
81228 2 17398670104395622496
9981440 41 18193551388330281337

>  <PUBCHEM_SHAPE_MULTIPOLES>  (1) 
441.9
7.48
7.02
1.35
9.99
14.72
0.16
-9.3
-2.02
-7.54
-0.78
-0.13
-0.06
0.18

>  <PUBCHEM_SHAPE_SELFOVERLAP>  (1) 
917.363

>  <PUBCHEM_SHAPE_VOLUME>  (1) 
253.2

>  <PUBCHEM_COORDINATE_TYPE>  (1) 
2
5
10

$$$$
