45396
     RDKit          3D

 24 26  0  0  1  0  0  0  0  0999 V2000
    6.7601    0.3411    0.9409 O   0  0  0  0  0  0  0  0  0  0  0  0
   -0.3786    0.9871   -0.4451 O   0  0  0  0  0  0  0  0  0  0  0  0
    4.3202    0.4614   -0.5066 N   0  0  0  0  0  0  0  0  0  0  0  0
    3.0872   -0.1550   -0.9037 N   0  0  0  0  0  0  0  0  0  0  0  0
    4.3466    0.5976    0.9562 C   0  0  0  0  0  0  0  0  0  0  0  0
    5.4320   -0.3853   -0.9568 C   0  0  0  0  0  0  0  0  0  0  0  0
    5.6915    1.1784    1.3862 C   0  0  0  0  0  0  0  0  0  0  0  0
    6.7524    0.2173   -0.4825 C   0  0  0  0  0  0  0  0  0  0  0  0
    1.9965    0.7048   -0.4741 C   0  0  0  0  0  0  0  0  0  0  0  0
   -1.6617    0.4993   -0.8124 C   0  0  0  0  0  0  0  0  0  0  0  0
    0.6568    0.1255   -0.8995 C   0  0  0  0  0  0  0  0  0  0  0  0
   -1.8607   -0.9309   -0.3493 C   0  0  0  0  0  0  0  0  0  0  0  0
   -2.7418    1.4373   -0.3148 C   0  0  0  0  0  0  0  0  0  0  0  0
   -2.0013   -1.9307   -1.2940 C   0  0  0  0  0  0  0  0  0  0  0  0
   -1.8964   -1.1997    1.0064 C   0  0  0  0  0  0  0  0  0  0  0  0
   -3.9240    1.5421   -1.0260 C   0  0  0  0  0  0  0  0  0  0  0  0
   -2.5218    2.1674    0.8396 C   0  0  0  0  0  0  0  0  0  0  0  0
   -2.2236   -3.5383    0.4955 C   0  0  0  0  0  0  0  0  0  0  0  0
   -2.1845   -3.2461   -0.8677 C   0  0  0  0  0  0  0  0  0  0  0  0
   -2.0795   -2.5151    1.4326 C   0  0  0  0  0  0  0  0  0  0  0  0
   -4.9188    2.4057   -0.5679 C   0  0  0  0  0  0  0  0  0  0  0  0
   -3.5168    3.0310    1.2977 C   0  0  0  0  0  0  0  0  0  0  0  0
   -4.7153    3.1501    0.5939 C   0  0  0  0  0  0  0  0  0  0  0  0
   -2.4184   -4.9449    0.9512 C   0  0  0  0  0  0  0  0  0  0  0  0
  1  7  1  0
  1  8  1  0
  2 10  1  0
  2 11  1  0
  3  4  1  0
  3  5  1  0
  3  6  1  0
  4  9  1  0
  5  7  1  0
  6  8  1  0
  9 11  1  0
 10 12  1  0
 10 13  1  0
 12 14  2  0
 12 15  1  0
 13 16  2  0
 13 17  1  0
 14 19  1  0
 15 20  2  0
 16 21  1  0
 17 22  2  0
 18 19  2  0
 18 20  1  0
 18 24  1  0
 21 23  2  0
 22 23  1  0
M  END
>  <PUBCHEM_COMPOUND_CID>  (1) 
45396

>  <PUBCHEM_CONFORMER_RMSD>  (1) 
0.8

>  <PUBCHEM_CONFORMER_DIVERSEORDER>  (1) 
1
76
36
33
73
97
49
45
70
13
86
89
71
41
11
12
39
98
79
32
47
22
28
25
96
62
84
8
78
85
65
88
55
46
77
43
42
80
60
90
10
81
35
50
75
92
69
63
23
6
72
27
54
21
66
64
57
51
68
20
30
59
14
93
52
40
91
95
24
5
82
31
37
34
56
67
7
16
15
74
17
94
87
29
53
19
44
18
38
26
58
83
3
4
2
9
61
48

>  <PUBCHEM_MMFF94_PARTIAL_CHARGES>  (1) 
34
1 -0.56
10 0.57
11 0.28
12 -0.14
13 -0.14
14 -0.15
15 -0.15
16 -0.15
17 -0.15
18 -0.14
19 -0.15
2 -0.56
20 -0.15
21 -0.15
22 -0.15
23 -0.15
24 0.14
3 -0.54
33 0.36
39 0.15
4 -0.63
40 0.15
41 0.15
42 0.15
43 0.15
44 0.15
45 0.15
46 0.15
47 0.15
5 0.27
6 0.27
7 0.28
8 0.28
9 0.27

>  <PUBCHEM_EFFECTIVE_ROTOR_COUNT>  (1) 
8.2

>  <PUBCHEM_PHARMACOPHORE_FEATURES>  (1) 
6
1 1 acceptor
1 2 acceptor
1 4 donor
6 1 3 5 6 7 8 rings
6 12 14 15 18 19 20 rings
6 13 16 17 21 22 23 rings

>  <PUBCHEM_HEAVY_ATOM_COUNT>  (1) 
24

>  <PUBCHEM_ATOM_DEF_STEREO_COUNT>  (1) 
0

>  <PUBCHEM_ATOM_UDEF_STEREO_COUNT>  (1) 
1

>  <PUBCHEM_BOND_DEF_STEREO_COUNT>  (1) 
0

>  <PUBCHEM_BOND_UDEF_STEREO_COUNT>  (1) 
0

>  <PUBCHEM_ISOTOPIC_ATOM_COUNT>  (1) 
0

>  <PUBCHEM_COMPONENT_COUNT>  (1) 
1

>  <PUBCHEM_CACTVS_TAUTO_COUNT>  (1) 
1

>  <PUBCHEM_CONFORMER_ID>  (1) 
0000B15400000001

>  <PUBCHEM_MMFF94_ENERGY>  (1) 
63.8379

>  <PUBCHEM_FEATURE_SELFOVERLAP>  (1) 
30.446

>  <PUBCHEM_SHAPE_FINGERPRINT>  (1) 
10074138 170 18336557104960061723
10291535 26 18060418014749352953
10319688 77 17338418417234275535
11135609 149 17261293217834523999
11545043 162 18272088340503720626
12549972 3 17916855928451311184
12616971 3 16950285109771906428
12643181 29 18338243648897907646
12788726 201 18338783620365020075
13004483 165 18050297165303982587
13540713 5 17751376177275946524
13583140 156 17632574989882583662
14844126 61 18267018534473289291
15042514 8 18192440873423592579
15537594 2 17167860829962486096
15842332 3 17605292854674851340
15927050 60 18339361851643373183
16994733 274 16342863114947416953
17093844 174 18343016706056315368
17844677 252 18271245045139821100
17980427 26 17907572528671638719
20554085 129 18197199374885782737
21033648 29 18191301581234221788
21401589 2 18272097050244021873
21424621 283 18127698136486719561
220451 1 17821446847182199804
22224240 67 18339932507305933841
23558518 356 17970354934295985740
23598288 3 18266749149834103479
255183 313 18340223942221548819
312425 54 18336250281608239314
32027 91 17110721718628694947
3383291 50 18410293640374008659
4015057 19 17560222713237706040
4073 2 18412544323965376734
4258327 124 18041292057186969973
4409770 3 18334576884935245875
5104073 3 18334851771384775520
5364581 5 18126273380318925544
58260988 114 16660940970694786659
5924683 9 18335980986357289906
59755656 520 18338514140751380389
6669772 16 18266462001654643703
77188 2 17689160428135759559
90127 26 17846779633477386748
9981440 41 18060700567767921975

>  <PUBCHEM_SHAPE_MULTIPOLES>  (1) 
472.21
13.95
4.85
1.4
32.7
5.67
-0.2
-8.99
-1.47
-10.48
-1.8
0.03
0.16
0.66

>  <PUBCHEM_SHAPE_SELFOVERLAP>  (1) 
992.083

>  <PUBCHEM_SHAPE_VOLUME>  (1) 
266.2

>  <PUBCHEM_COORDINATE_TYPE>  (1) 
2
5
10

$$$$
