45407
     RDKit          3D

 13 12  0  0  0  0  0  0  0  0999 V2000
    3.3560    0.4211    0.1760 O   0  0  0  0  0  0  0  0  0  0  0  0
    2.1945   -1.3994   -0.6363 O   0  0  0  0  0  0  0  0  0  0  0  0
   -2.7339    0.0242   -0.1570 N   0  0  0  0  0  0  0  0  0  0  0  0
   -1.4991    0.7056    0.2134 C   0  0  0  0  0  0  0  0  0  0  0  0
   -0.2890   -0.1422   -0.1729 C   0  0  0  0  0  0  0  0  0  0  0  0
   -3.8983    0.8317    0.2106 C   0  0  0  0  0  0  0  0  0  0  0  0
   -2.8074   -1.2919    0.4797 C   0  0  0  0  0  0  0  0  0  0  0  0
    1.0179    0.5635    0.1874 C   0  0  0  0  0  0  0  0  0  0  0  0
   -3.8426    2.2036   -0.4400 C   0  0  0  0  0  0  0  0  0  0  0  0
   -4.0579   -2.0403    0.0504 C   0  0  0  0  0  0  0  0  0  0  0  0
    2.2280   -0.2773   -0.1502 C   0  0  0  0  0  0  0  0  0  0  0  0
    4.5931   -0.2489   -0.0872 C   0  0  0  0  0  0  0  0  0  0  0  0
    5.7386    0.6504    0.3262 C   0  0  0  0  0  0  0  0  0  0  0  0
  1 11  1  0
  1 12  1  0
  2 11  2  0
  3  4  1  0
  3  6  1  0
  3  7  1  0
  4  5  1  0
  5  8  1  0
  6  9  1  0
  7 10  1  0
  8 11  1  0
 12 13  1  0
M  END
>  <PUBCHEM_COMPOUND_CID>  (1) 
45407

>  <PUBCHEM_CONFORMER_RMSD>  (1) 
0.8

>  <PUBCHEM_CONFORMER_DIVERSEORDER>  (1) 
1
120
16
128
83
138
142
76
89
64
84
63
66
139
39
72
105
107
114
137
45
121
127
27
154
20
103
125
145
104
22
35
6
112
26
9
86
47
119
126
157
69
147
33
140
111
70
42
131
113
123
14
97
90
146
149
82
94
159
3
96
74
31
118
68
73
102
141
101
78
38
57
60
95
11
87
151
58
109
156
155
44
51
30
88
152
85
43
53
24
62
32
122
28
37
106
77
129
19
130
136
91
150
12
132
100
71
98
153
21
67
99
79
117
135
46
8
23
48
40
124
50
61
54
56
17
5
13
108
93
116
81
144
110
49
41
4
143
52
80
92
148
36
158
65
75
7
34
18
134
59
29
25
115
55
10
133
15
2

>  <PUBCHEM_MMFF94_PARTIAL_CHARGES>  (1) 
9
1 -0.43
11 0.66
12 0.28
2 -0.57
3 -0.81
4 0.27
6 0.27
7 0.27
8 0.06

>  <PUBCHEM_EFFECTIVE_ROTOR_COUNT>  (1) 
8

>  <PUBCHEM_PHARMACOPHORE_FEATURES>  (1) 
2
1 2 acceptor
1 3 cation

>  <PUBCHEM_HEAVY_ATOM_COUNT>  (1) 
13

>  <PUBCHEM_ATOM_DEF_STEREO_COUNT>  (1) 
0

>  <PUBCHEM_ATOM_UDEF_STEREO_COUNT>  (1) 
0

>  <PUBCHEM_BOND_DEF_STEREO_COUNT>  (1) 
0

>  <PUBCHEM_BOND_UDEF_STEREO_COUNT>  (1) 
0

>  <PUBCHEM_ISOTOPIC_ATOM_COUNT>  (1) 
0

>  <PUBCHEM_COMPONENT_COUNT>  (1) 
1

>  <PUBCHEM_CACTVS_TAUTO_COUNT>  (1) 
1

>  <PUBCHEM_CONFORMER_ID>  (1) 
0000B15F00000001

>  <PUBCHEM_MMFF94_ENERGY>  (1) 
10.3749

>  <PUBCHEM_FEATURE_SELFOVERLAP>  (1) 
10.148

>  <PUBCHEM_SHAPE_FINGERPRINT>  (1) 
10014705 185 18333730191660956077
10680689 15 18334584537717284209
10912923 1 17676203589708396856
12500047 106 18410851032391419501
13167823 11 18260263045233331962
13214271 11 18341890796673406077
15375358 24 18342739572368426998
15501527 16 18411984637306450777
17834072 33 18262241126860143388
17834076 25 18131632257493302232
200 152 17275380993394025289
20279233 1 18343308041518399439
20645477 56 18335984177839900101
20645477 70 17345475886104037494
20828058 44 18408886235029700818
21426921 1 18408603678217058221
22485316 2 18335138665913458922
22959321 105 18411702092835131153
23402539 116 18113332016415532348
23402655 69 17917426480449470268
23557571 272 18411987957205257957
23559900 14 18270118998950824406
300161 21 18114173116787737088
3312278 4 18342460318116551337
3545911 37 18341334409451202689
4214541 1 18409730651322600793
42788 4 18411136935764398392
5104073 3 18413107238889329418
573450 72 18114451297434880842
77779 3 18410294705245894124

>  <PUBCHEM_SHAPE_MULTIPOLES>  (1) 
250.81
11.57
1.77
0.68
11.36
0.05
0
-1.08
-0.57
-3.01
0.14
-0.01
0.01
0.59

>  <PUBCHEM_SHAPE_SELFOVERLAP>  (1) 
460.541

>  <PUBCHEM_SHAPE_VOLUME>  (1) 
160.8

>  <PUBCHEM_COORDINATE_TYPE>  (1) 
2
5
10

$$$$
