45409
     RDKit          3D

 20 21  0  0  1  0  0  0  0  0999 V2000
   -0.4188   -1.2796    0.9116 S   0  0  0  0  0  0  0  0  0  0  0  0
    1.1618   -2.3102    0.1006 S   0  0  0  0  0  0  0  0  0  0  0  0
   -4.2645   -2.4121    0.0530 N   0  0  0  0  0  0  0  0  0  0  0  0
    1.9930    0.7884   -2.4367 N   0  0  0  0  0  0  0  0  0  0  0  0
   -3.1961   -1.5675    0.6328 C   0  0  0  0  0  0  0  0  0  0  0  0
    1.8212    0.0960   -1.1506 C   0  0  0  0  0  0  0  0  0  0  0  0
   -1.8360   -2.1589    0.1748 C   0  0  0  0  0  0  0  0  0  0  0  0
    1.4684   -1.3795   -1.4201 C   0  0  0  0  0  0  0  0  0  0  0  0
   -3.4094   -0.1266    0.3112 C   0  0  0  0  0  0  0  0  0  0  0  0
    3.0470    0.2994   -0.2769 C   0  0  0  0  0  0  0  0  0  0  0  0
   -4.2078    0.6621    1.1396 C   0  0  0  0  0  0  0  0  0  0  0  0
    3.1177    1.4197    0.5282 C   0  0  0  0  0  0  0  0  0  0  0  0
   -2.8108    0.4319   -0.8180 C   0  0  0  0  0  0  0  0  0  0  0  0
    4.0578   -0.6413   -0.3113 C   0  0  0  0  0  0  0  0  0  0  0  0
   -4.4076    2.0095    0.8386 C   0  0  0  0  0  0  0  0  0  0  0  0
    4.2435    1.6067    1.3303 C   0  0  0  0  0  0  0  0  0  0  0  0
   -3.0104    1.7793   -1.1189 C   0  0  0  0  0  0  0  0  0  0  0  0
    5.1836   -0.4546    0.4908 C   0  0  0  0  0  0  0  0  0  0  0  0
   -3.8089    2.5679   -0.2906 C   0  0  0  0  0  0  0  0  0  0  0  0
    5.2764    0.6695    1.3116 C   0  0  0  0  0  0  0  0  0  0  0  0
  1  2  1  0
  1  7  1  0
  2  8  1  0
  3  5  1  0
  4  6  1  0
  5  7  1  0
  5  9  1  0
  6  8  1  0
  6 10  1  0
  9 11  2  0
  9 13  1  0
 10 12  2  0
 10 14  1  0
 11 15  1  0
 12 16  1  0
 13 17  2  0
 14 18  2  0
 15 19  2  0
 16 20  2  0
 17 19  1  0
 18 20  1  0
M  END
>  <PUBCHEM_COMPOUND_CID>  (1) 
45409

>  <PUBCHEM_CONFORMER_RMSD>  (1) 
0.8

>  <PUBCHEM_CONFORMER_DIVERSEORDER>  (1) 
2
172
21
138
99
26
163
97
218
128
169
14
102
179
222
225
63
161
51
32
166
126
246
193
98
74
35
89
213
247
100
42
4
207
217
55
16
48
249
47
3
54
205
85
151
50
173
81
142
154
171
124
209
244
155
236
108
224
92
6
58
79
156
174
214
251
84
149
82
231
195
165
104
52
44
227
197
45
146
133
1
134
178
111
228
12
90
129
243
157
20
150
27
241
94
91
223
23
38
28
37
109
170
39
210
196
132
199
115
198
185
87
34
181
176
49
113
122
36
125
206
164
229
77
245
41
220
60
159
106
215
73
162
202
15
235
188
75
127
147
219
116
68
137
95
24
96
93
140
117
53
130
252
29
136
191
240
18
234
200
177
70
105
144
139
186
101
5
211
71
30
239
31
72
237
112
141
168
110
232
153
76
212
78
184
61
107
203
226
7
167
123
121
83
103
62
114
233
22
80
190
160
9
152
216
10
65
86
189
43
25
66
187
208
183
119
59
201
145
88
230
120
182
40
19
194
33
17
64
175
248
11
148
67
13
69
8
135
192
180
204
118
46
57
242
56
158
250
238
221
131
143

>  <PUBCHEM_MMFF94_PARTIAL_CHARGES>  (1) 
34
1 -0.23
10 -0.14
11 -0.15
12 -0.15
13 -0.15
14 -0.15
15 -0.15
16 -0.15
17 -0.15
18 -0.15
19 -0.15
2 -0.23
20 -0.15
27 0.15
28 0.15
29 0.15
3 -0.99
30 0.15
31 0.36
32 0.36
33 0.36
34 0.36
35 0.15
36 0.15
37 0.15
38 0.15
39 0.15
4 -0.99
40 0.15
5 0.41
6 0.41
7 0.23
8 0.23
9 -0.14

>  <PUBCHEM_EFFECTIVE_ROTOR_COUNT>  (1) 
7

>  <PUBCHEM_PHARMACOPHORE_FEATURES>  (1) 
7
1 3 cation
1 3 donor
1 4 cation
1 4 donor
4 1 2 7 8 hydrophobe
6 10 12 14 16 18 20 rings
6 9 11 13 15 17 19 rings

>  <PUBCHEM_HEAVY_ATOM_COUNT>  (1) 
20

>  <PUBCHEM_ATOM_DEF_STEREO_COUNT>  (1) 
0

>  <PUBCHEM_ATOM_UDEF_STEREO_COUNT>  (1) 
2

>  <PUBCHEM_BOND_DEF_STEREO_COUNT>  (1) 
0

>  <PUBCHEM_BOND_UDEF_STEREO_COUNT>  (1) 
0

>  <PUBCHEM_ISOTOPIC_ATOM_COUNT>  (1) 
0

>  <PUBCHEM_COMPONENT_COUNT>  (1) 
1

>  <PUBCHEM_CACTVS_TAUTO_COUNT>  (1) 
1

>  <PUBCHEM_CONFORMER_ID>  (1) 
0000B16100000002

>  <PUBCHEM_MMFF94_ENERGY>  (1) 
39.6373

>  <PUBCHEM_FEATURE_SELFOVERLAP>  (1) 
35.521

>  <PUBCHEM_SHAPE_FINGERPRINT>  (1) 
10646746 165 18411140242599111410
10764073 3 18048020888682797814
11370993 144 18270679766585950036
11725454 13 17917705851034780106
12166972 35 16661207104296806935
12173636 292 18339086986984613327
12403259 415 18272942639073224442
12403260 363 18263641921310538615
12422481 6 17680119942868566674
12596602 18 16733543961080969560
12633257 1 17385730200702723167
12670546 56 18188198896890648562
12892183 10 18189608505510526098
13103583 49 15357982209305494373
13402501 40 18342735208866809977
13965767 371 17824820049138311613
14081887 123 18409731729470330997
14178342 30 18260553307623095639
14251732 17 18342172242097022362
14251751 93 18410283744294423067
14251757 17 18202282511007318641
14251764 30 13696145142750358432
14251764 38 18341891956483790248
14466204 15 18409440393633382656
14951699 99 18265610065306836784
15003188 8 17750507378501381157
17349148 13 17240767340902380691
192875 21 17896036722987212575
20645477 56 18339933632096423587
21033648 29 18130215047746298544
21279426 13 18341053996064929710
21315764 268 18341324604093587808
23557571 272 18341059578926146467
23559900 14 18058170514551845766
2838139 119 16414908760486346160
312425 83 16199034881699195157
351380 180 18338793528279039378
3737641 26 15431141476030442832
5104073 3 18336264557072573402
5924683 9 18339639040305356775
6328613 192 18260275183369787388
7064713 232 18261680294061926541
79837 15 18041564744639799474
9862522 239 17968362460359872503

>  <PUBCHEM_SHAPE_MULTIPOLES>  (1) 
409.33
11.99
2.75
1.5
3.84
0.38
0.55
-4.74
-3.71
-2.75
-0.22
0.76
-0.4
1.05

>  <PUBCHEM_SHAPE_SELFOVERLAP>  (1) 
823.765

>  <PUBCHEM_SHAPE_VOLUME>  (1) 
241.8

>  <PUBCHEM_COORDINATE_TYPE>  (1) 
2
5
10

$$$$
