45429
     RDKit          3D

  9  8  0  0  0  0  0  0  0  0999 V2000
   -0.1365   -2.3887    0.1106 Cl  0  0  0  0  0  0  0  0  0  0  0  0
   -1.9095   -0.4279    0.0667 O   0  0  0  0  0  0  0  0  0  0  0  0
    1.7501   -0.1138   -0.2872 O   0  0  0  0  0  0  0  0  0  0  0  0
   -2.3113    0.9331   -0.0366 C   0  0  0  0  0  0  0  0  0  0  0  0
    2.5564    0.9452    0.2010 C   0  0  0  0  0  0  0  0  0  0  0  0
   -3.8191    1.0118    0.0729 C   0  0  0  0  0  0  0  0  0  0  0  0
    4.0125    0.5440    0.0988 C   0  0  0  0  0  0  0  0  0  0  0  0
   -0.5614   -0.7024   -0.0241 C   0  0  0  0  0  0  0  0  0  0  0  0
    0.4188    0.1988   -0.2021 C   0  0  0  0  0  0  0  0  0  0  0  0
  1  8  1  0
  2  4  1  0
  2  8  1  0
  3  5  1  0
  3  9  1  0
  4  6  1  0
  5  7  1  0
  8  9  2  0
M  END
>  <PUBCHEM_COMPOUND_CID>  (1) 
45429

>  <PUBCHEM_CONFORMER_RMSD>  (1) 
0.6

>  <PUBCHEM_CONFORMER_DIVERSEORDER>  (1) 
1
19
21
22
16
15
4
13
3
20
18
6
9
28
5
26
17
27
8
7
25
23
24
10
2
11
12
14

>  <PUBCHEM_MMFF94_PARTIAL_CHARGES>  (1) 
8
1 -0.14
2 -0.36
20 0.15
3 -0.36
4 0.28
5 0.28
8 0.22
9 -0.07

>  <PUBCHEM_EFFECTIVE_ROTOR_COUNT>  (1) 
4

>  <PUBCHEM_PHARMACOPHORE_FEATURES>  (1) 
2
1 2 acceptor
1 3 acceptor

>  <PUBCHEM_HEAVY_ATOM_COUNT>  (1) 
9

>  <PUBCHEM_ATOM_DEF_STEREO_COUNT>  (1) 
0

>  <PUBCHEM_ATOM_UDEF_STEREO_COUNT>  (1) 
0

>  <PUBCHEM_BOND_DEF_STEREO_COUNT>  (1) 
0

>  <PUBCHEM_BOND_UDEF_STEREO_COUNT>  (1) 
1

>  <PUBCHEM_ISOTOPIC_ATOM_COUNT>  (1) 
0

>  <PUBCHEM_COMPONENT_COUNT>  (1) 
1

>  <PUBCHEM_CACTVS_TAUTO_COUNT>  (1) 
1

>  <PUBCHEM_CONFORMER_ID>  (1) 
0000B17500000001

>  <PUBCHEM_MMFF94_ENERGY>  (1) 
13.9237

>  <PUBCHEM_FEATURE_SELFOVERLAP>  (1) 
10.149

>  <PUBCHEM_SHAPE_FINGERPRINT>  (1) 
13380535 76 18412544310078492902
14325111 11 18411138038916761791
14390081 3 18342176635616561425
170605 34 18270964548850891791
19021347 4 18408042931070761195
20281407 28 7925918079646748484
20711985 327 10737293415571367171
20871998 22 10737559480026149865
21040471 1 18409173237465986070
21293036 1 13254792447380968068
23235685 24 18410569578610184845
23402539 116 18272359897562421805
366044 4 18410009940039560603

>  <PUBCHEM_SHAPE_MULTIPOLES>  (1) 
175.35
6.22
1.77
0.62
1.31
1.45
-0.01
-3.93
-0.34
-0.41
-0.1
0.03
0
0.05

>  <PUBCHEM_SHAPE_SELFOVERLAP>  (1) 
309.626

>  <PUBCHEM_SHAPE_VOLUME>  (1) 
115.2

>  <PUBCHEM_COORDINATE_TYPE>  (1) 
2
5
10

$$$$
