45423
     RDKit          3D

 28 30  0  0  0  0  0  0  0  0999 V2000
   -0.4881   -1.2962    0.2918 O   0  0  0  0  0  0  0  0  0  0  0  0
    0.4537    0.0550    1.9115 O   0  0  0  0  0  0  0  0  0  0  0  0
   -3.8527   -0.7759   -0.3899 N   0  0  0  0  0  0  0  0  0  0  0  0
    1.4767   -0.1573   -0.2533 C   0  0  0  0  0  0  0  0  0  0  0  0
   -3.1120   -1.9780   -0.7528 C   0  0  0  0  0  0  0  0  0  0  0  0
   -4.4031   -0.1295   -1.5826 C   0  0  0  0  0  0  0  0  0  0  0  0
   -4.9250   -1.0963    0.5541 C   0  0  0  0  0  0  0  0  0  0  0  0
    2.1310    1.2016   -0.0743 C   0  0  0  0  0  0  0  0  0  0  0  0
    2.6697   -1.0908   -0.1458 C   0  0  0  0  0  0  0  0  0  0  0  0
    3.5252    1.0567    0.1074 C   0  0  0  0  0  0  0  0  0  0  0  0
    3.8561   -0.3516    0.0636 C   0  0  0  0  0  0  0  0  0  0  0  0
   -2.4902   -2.6113    0.4877 C   0  0  0  0  0  0  0  0  0  0  0  0
   -3.2851    0.2053   -2.5684 C   0  0  0  0  0  0  0  0  0  0  0  0
   -5.6537    0.1768    0.9813 C   0  0  0  0  0  0  0  0  0  0  0  0
   -1.5435   -1.6486    1.1917 C   0  0  0  0  0  0  0  0  0  0  0  0
    0.4424   -0.4330    0.7896 C   0  0  0  0  0  0  0  0  0  0  0  0
   -2.2729    1.1699   -1.9494 C   0  0  0  0  0  0  0  0  0  0  0  0
   -4.7030    1.1498    1.6796 C   0  0  0  0  0  0  0  0  0  0  0  0
    1.5324    2.4508   -0.0882 C   0  0  0  0  0  0  0  0  0  0  0  0
    2.6894   -2.4726   -0.2418 C   0  0  0  0  0  0  0  0  0  0  0  0
    4.3318    2.1686    0.2857 C   0  0  0  0  0  0  0  0  0  0  0  0
    5.0756   -0.9969    0.1879 C   0  0  0  0  0  0  0  0  0  0  0  0
    2.3459    3.5710    0.0917 C   0  0  0  0  0  0  0  0  0  0  0  0
    3.9186   -3.1221   -0.1162 C   0  0  0  0  0  0  0  0  0  0  0  0
    3.7316    3.4312    0.2774 C   0  0  0  0  0  0  0  0  0  0  0  0
    5.0997   -2.3917    0.0975 C   0  0  0  0  0  0  0  0  0  0  0  0
   -1.1379    1.4804   -2.9121 C   0  0  0  0  0  0  0  0  0  0  0  0
   -5.4128    2.4345    2.0764 C   0  0  0  0  0  0  0  0  0  0  0  0
  1 15  1  0
  1 16  1  0
  2 16  2  0
  3  5  1  0
  3  6  1  0
  3  7  1  0
  4  8  1  0
  4  9  1  0
  4 16  1  0
  5 12  1  0
  6 13  1  0
  7 14  1  0
  8 10  2  0
  8 19  1  0
  9 11  2  0
  9 20  1  0
 10 11  1  0
 10 21  1  0
 11 22  1  0
 12 15  1  0
 13 17  1  0
 14 18  1  0
 17 27  1  0
 18 28  1  0
 19 23  2  0
 20 24  2  0
 21 25  2  0
 22 26  2  0
 23 25  1  0
 24 26  1  0
M  END
>  <PUBCHEM_COMPOUND_CID>  (1) 
45423

>  <PUBCHEM_CONFORMER_RMSD>  (1) 
1

>  <PUBCHEM_CONFORMER_DIVERSEORDER>  (1) 
2
335
395
276
138
194
359
423
19
216
139
6
453
8
327
392
390
311
331
154
285
429
27
107
245
60
432
119
218
165
306
401
190
219
235
307
394
449
228
221
156
421
290
452
13
368
408
202
16
407
198
441
417
10
143
116
399
455
254
437
318
260
9
214
244
90
433
272
338
75
157
443
52
159
346
128
127
364
385
309
284
296
20
321
23
51
187
258
253
373
349
308
255
295
208
430
59
201
424
262
167
141
162
150
351
125
270
180
371
224
242
148
168
280
161
236
332
252
133
82
65
96
367
210
334
324
113
431
384
71
177
44
353
15
420
414
12
11
102
454
66
341
319
403
378
175
223
38
271
170
132
450
336
299
314
361
17
445
69
243
76
55
391
282
287
393
249
337
29
388
350
193
189
22
275
158
348
291
171
21
200
225
86
48
278
293
281
380
172
50
140
358
446
67
305
199
155
237
46
363
95
283
294
339
137
124
31
184
439
247
14
286
354
320
386
54
442
39
144
312
197
53
93
345
163
103
434
109
302
398
205
328
365
261
220
377
412
185
5
325
370
289
226
108
372
114
77
56
347
426
126
405
330
99
131
1
438
30
456
267
73
88
257
145
7
440
343
98
344
215
72
323
4
33
47
266
416
356
419
230
227
273
238
110
123
411
234
25
94
342
268
182
118
447
34
211
97
153
142
91
130
115
251
448
63
212
340
381
213
41
206
196
397
58
387
382
42
413
178
152
303
389
195
192
313
264
112
203
326
207
231
135
89
422
329
436
92
310
300
160
79
80
188
209
415
104
357
111
256
232
333
121
444
120
149
402
173
32
451
35
263
57
375
181
222
183
164
362
400
28
74
374
87
355
64
100
129
81
396
301
425
288
146
61
84
241
404
176
279
352
105
297
45
298
49
204
134
70
166
366
317
248
250
379
240
117
43
83
406
122
78
259
174
36
233
85
3
316
277
246
106
410
269
68
169
101
292
186
191
427
62
179
24
217
18
322
435
40
239
26
376
136
369
265
37
304
428
147
383
409
274
315
360
229
151
418

>  <PUBCHEM_MMFF94_PARTIAL_CHARGES>  (1) 
27
1 -0.43
15 0.28
16 0.66
19 -0.15
2 -0.57
20 -0.15
21 -0.15
22 -0.15
23 -0.15
24 -0.15
25 -0.15
26 -0.15
3 -0.81
4 0.35
48 0.15
49 0.15
5 0.27
50 0.15
51 0.15
52 0.15
53 0.15
54 0.15
55 0.15
6 0.27
7 0.27
8 -0.14
9 -0.14

>  <PUBCHEM_EFFECTIVE_ROTOR_COUNT>  (1) 
12.2

>  <PUBCHEM_PHARMACOPHORE_FEATURES>  (1) 
7
1 2 acceptor
1 27 hydrophobe
1 28 hydrophobe
1 3 cation
5 4 8 9 10 11 rings
6 8 10 19 21 23 25 rings
6 9 11 20 22 24 26 rings

>  <PUBCHEM_HEAVY_ATOM_COUNT>  (1) 
28

>  <PUBCHEM_ATOM_DEF_STEREO_COUNT>  (1) 
0

>  <PUBCHEM_ATOM_UDEF_STEREO_COUNT>  (1) 
0

>  <PUBCHEM_BOND_DEF_STEREO_COUNT>  (1) 
0

>  <PUBCHEM_BOND_UDEF_STEREO_COUNT>  (1) 
0

>  <PUBCHEM_ISOTOPIC_ATOM_COUNT>  (1) 
0

>  <PUBCHEM_COMPONENT_COUNT>  (1) 
1

>  <PUBCHEM_CACTVS_TAUTO_COUNT>  (1) 
1

>  <PUBCHEM_CONFORMER_ID>  (1) 
0000B16F00000002

>  <PUBCHEM_MMFF94_ENERGY>  (1) 
61.7365

>  <PUBCHEM_FEATURE_SELFOVERLAP>  (1) 
35.683

>  <PUBCHEM_SHAPE_FINGERPRINT>  (1) 
10595046 47 18200031879952407219
10906281 52 18188503488024625696
11331351 85 17487906601476632066
11370993 144 18409169926499673613
11405975 8 18410858801639637955
11552529 35 17984132940600674191
12107183 9 18198913508980634715
12422481 6 17202484385979192444
12633257 1 18411702062902313607
12786520 15 18341348720356229805
13402501 40 18114170964914163670
14114211 80 17829629592451446116
14251757 17 18188475892263506830
144659 39 17346597426756678825
14790565 3 17760658362044454380
14950920 106 18342739628772675047
15081414 286 18187085100212390532
15183329 4 18410011013744786162
16994733 274 15409475805864714560
17818456 19 17631743646821539963
17844677 252 18340499944956691859
17913733 40 18125423453477359304
20511986 3 17632571626359000674
21033648 144 18335977679031758967
21033648 29 17458336451507083053
21792961 116 18114467739678212494
221357 26 18262504919103062487
22393880 68 18055083309344267366
23559900 14 18340203089891848842
3459 83 18271243824651392275
4058900 60 17972045996797558888
460360 51 17677878046721743576
469060 322 16660922322463744923
5081480 168 18339653256219728804
5104073 3 18261673786986149994
543358 83 18413113878929770010
6287921 2 18042687380444537925
7399639 24 17542229402975196106

>  <PUBCHEM_SHAPE_MULTIPOLES>  (1) 
559.51
12.76
3.88
1.92
7.26
1.33
1.11
-0.27
-3.14
-4.2
-0.55
3.58
0.97
-0.53

>  <PUBCHEM_SHAPE_SELFOVERLAP>  (1) 
1171.906

>  <PUBCHEM_SHAPE_VOLUME>  (1) 
319.4

>  <PUBCHEM_COORDINATE_TYPE>  (1) 
2
5
10

$$$$
