45421
     RDKit          3D

 24 26  0  0  1  0  0  0  0  0999 V2000
    1.3208    0.6484    1.2509 O   0  0  0  0  0  0  0  0  0  0  0  0
    0.3598    1.1779   -0.7820 O   0  0  0  0  0  0  0  0  0  0  0  0
    4.6360    0.5069   -0.3585 N   0  0  0  0  0  0  0  0  0  0  0  0
   -4.2576    3.7432   -0.2833 N   0  0  0  0  0  0  0  0  0  0  0  0
   -0.9442    0.1576    0.9609 C   0  0  0  0  0  0  0  0  0  0  0  0
   -2.2052    0.7575    0.3635 C   0  0  0  0  0  0  0  0  0  0  0  0
   -1.1239   -1.3167    0.6447 C   0  0  0  0  0  0  0  0  0  0  0  0
   -3.0050   -0.2540   -0.2154 C   0  0  0  0  0  0  0  0  0  0  0  0
   -2.3407   -1.5282   -0.0427 C   0  0  0  0  0  0  0  0  0  0  0  0
    0.2981    0.7235    0.3525 C   0  0  0  0  0  0  0  0  0  0  0  0
   -2.6034    2.0842    0.3544 C   0  0  0  0  0  0  0  0  0  0  0  0
   -0.2812   -2.3705    0.9583 C   0  0  0  0  0  0  0  0  0  0  0  0
   -4.2120    0.0607   -0.8179 C   0  0  0  0  0  0  0  0  0  0  0  0
   -2.7187   -2.8034   -0.4300 C   0  0  0  0  0  0  0  0  0  0  0  0
    3.3538    0.0289    0.1369 C   0  0  0  0  0  0  0  0  0  0  0  0
   -3.8197    2.4007   -0.2533 C   0  0  0  0  0  0  0  0  0  0  0  0
    2.5780    1.1585    0.7956 C   0  0  0  0  0  0  0  0  0  0  0  0
   -4.6157    1.3991   -0.8344 C   0  0  0  0  0  0  0  0  0  0  0  0
   -0.6625   -3.6552    0.5675 C   0  0  0  0  0  0  0  0  0  0  0  0
   -1.8688   -3.8695   -0.1204 C   0  0  0  0  0  0  0  0  0  0  0  0
    5.3662   -0.5708   -1.0305 C   0  0  0  0  0  0  0  0  0  0  0  0
    5.4411    1.0579    0.7342 C   0  0  0  0  0  0  0  0  0  0  0  0
    4.5509   -1.1594   -2.1694 C   0  0  0  0  0  0  0  0  0  0  0  0
    6.7538    1.6226    0.2182 C   0  0  0  0  0  0  0  0  0  0  0  0
  1 10  1  0
  1 17  1  0
  2 10  2  0
  3 15  1  0
  3 21  1  0
  3 22  1  0
  4 16  1  0
  5  6  1  0
  5  7  1  0
  5 10  1  0
  6  8  2  0
  6 11  1  0
  7  9  2  0
  7 12  1  0
  8  9  1  0
  8 13  1  0
  9 14  1  0
 11 16  2  0
 12 19  2  0
 13 18  2  0
 14 20  2  0
 15 17  1  0
 16 18  1  0
 19 20  1  0
 21 23  1  0
 22 24  1  0
M  END
>  <PUBCHEM_COMPOUND_CID>  (1) 
45421

>  <PUBCHEM_CONFORMER_RMSD>  (1) 
0.8

>  <PUBCHEM_CONFORMER_DIVERSEORDER>  (1) 
2
112
137
25
172
117
1
103
63
66
134
73
143
170
127
155
166
37
71
180
38
167
48
160
14
26
76
164
140
174
39
135
94
181
92
68
98
52
97
20
111
56
182
77
106
93
105
78
62
144
11
74
116
154
109
199
179
49
151
157
21
115
147
188
5
95
36
33
27
17
119
28
46
150
133
58
118
22
23
53
99
161
185
146
57
177
121
3
145
7
129
175
79
141
158
197
148
75
104
29
24
87
41
61
169
156
18
10
142
132
19
72
47
113
16
59
45
193
192
54
6
100
165
86
107
8
108
162
13
152
89
128
149
88
65
186
64
122
30
32
4
60
42
70
168
81
159
34
69
83
40
124
91
55
96
131
31
85
50
138
190
183
44
153
184
114
173
15
125
67
171
163
191
196
139
195
178
120
102
9
194
198
84
90
51
126
136
110
123
35
82
101
130
176
12
43
187
189
80

>  <PUBCHEM_MMFF94_PARTIAL_CHARGES>  (1) 
29
1 -0.43
10 0.66
11 -0.15
12 -0.15
13 -0.15
14 -0.15
15 0.27
16 0.1
17 0.28
18 -0.15
19 -0.15
2 -0.57
20 -0.15
21 0.27
22 0.27
26 0.15
27 0.15
28 0.15
29 0.15
3 -0.81
34 0.15
35 0.15
36 0.15
4 -0.9
47 0.4
48 0.4
5 0.35
6 -0.14
7 -0.14

>  <PUBCHEM_EFFECTIVE_ROTOR_COUNT>  (1) 
7.2

>  <PUBCHEM_PHARMACOPHORE_FEATURES>  (1) 
7
1 2 acceptor
1 3 cation
1 4 cation
1 4 donor
5 5 6 7 8 9 rings
6 6 8 11 13 16 18 rings
6 7 9 12 14 19 20 rings

>  <PUBCHEM_HEAVY_ATOM_COUNT>  (1) 
24

>  <PUBCHEM_ATOM_DEF_STEREO_COUNT>  (1) 
0

>  <PUBCHEM_ATOM_UDEF_STEREO_COUNT>  (1) 
1

>  <PUBCHEM_BOND_DEF_STEREO_COUNT>  (1) 
0

>  <PUBCHEM_BOND_UDEF_STEREO_COUNT>  (1) 
0

>  <PUBCHEM_ISOTOPIC_ATOM_COUNT>  (1) 
0

>  <PUBCHEM_COMPONENT_COUNT>  (1) 
1

>  <PUBCHEM_CACTVS_TAUTO_COUNT>  (1) 
1

>  <PUBCHEM_CONFORMER_ID>  (1) 
0000B16D00000002

>  <PUBCHEM_MMFF94_ENERGY>  (1) 
73.7919

>  <PUBCHEM_FEATURE_SELFOVERLAP>  (1) 
35.683

>  <PUBCHEM_SHAPE_FINGERPRINT>  (1) 
10254770 206 17905320725007545698
10411042 1 17760646267226696891
105312 117 18260260824497389031
107951 10 18412265008629677447
10835480 77 18272929458315011168
12293681 160 17916579830942856473
12616971 3 16225765238279267444
12788726 201 18116420634715019859
13544592 145 18341899558934041484
13583140 156 17703225243244111868
13941206 138 18259985946396097643
14508225 48 17980467181892267079
14713325 29 18260554437510939035
14790565 3 18194401078663321353
14910302 57 18409166581068225662
15042514 8 18191589868566620691
15463212 79 18114170952076838490
16087824 20 18337946888544027375
167882 2 18119806902784097635
17349148 13 13614520770816503684
19958102 18 18337103475938546982
20642791 178 17977653222246331371
20645477 70 17131840833400148580
22122407 14 15430032137122004189
22393880 68 18412829092913335358
22849339 104 18338813298066679574
23366157 5 17683233665182754827
23559900 14 18200587133287738648
23572383 38 18131355202934757686
32027 91 18128266593352995006
3298306 158 18270962332479455958
3729539 64 17980213984648450206
4015057 19 17561365076196747384
4073 2 18410012183040923026
5283173 99 18412542137352490480
559249 180 18334287670126703498
59755656 215 18410852175312228087
9709674 26 18271246144202874058
9981440 41 18261675879083323507

>  <PUBCHEM_SHAPE_MULTIPOLES>  (1) 
472.21
12.26
4
1.18
21.49
2.41
0.35
-7.63
3.47
-5.37
-0.11
1.05
0.26
1.44

>  <PUBCHEM_SHAPE_SELFOVERLAP>  (1) 
1012.961

>  <PUBCHEM_SHAPE_VOLUME>  (1) 
264.6

>  <PUBCHEM_COORDINATE_TYPE>  (1) 
2
5
10

$$$$
