45430
     RDKit          3D

 10  9  0  0  0  0  0  0  0  0999 V2000
   -0.2614   -2.1436   -0.0588 Cl  0  0  0  0  0  0  0  0  0  0  0  0
    0.2619    2.1368    0.0571 Cl  0  0  0  0  0  0  0  0  0  0  0  0
   -1.7576    0.0805   -0.4875 O   0  0  0  0  0  0  0  0  0  0  0  0
    1.7567   -0.0862    0.4855 O   0  0  0  0  0  0  0  0  0  0  0  0
   -2.7962   -0.2609    0.4258 C   0  0  0  0  0  0  0  0  0  0  0  0
    2.7933    0.2568   -0.4295 C   0  0  0  0  0  0  0  0  0  0  0  0
   -4.0974    0.3415   -0.0596 C   0  0  0  0  0  0  0  0  0  0  0  0
    4.1018   -0.3181    0.0695 C   0  0  0  0  0  0  0  0  0  0  0  0
   -0.5181   -0.4185   -0.1180 C   0  0  0  0  0  0  0  0  0  0  0  0
    0.5171    0.4117    0.1155 C   0  0  0  0  0  0  0  0  0  0  0  0
  1  9  1  0
  2 10  1  0
  3  5  1  0
  3  9  1  0
  4  6  1  0
  4 10  1  0
  5  7  1  0
  6  8  1  0
  9 10  2  0
M  END
>  <PUBCHEM_COMPOUND_CID>  (1) 
45430

>  <PUBCHEM_CONFORMER_RMSD>  (1) 
0.6

>  <PUBCHEM_CONFORMER_DIVERSEORDER>  (1) 
1
9
10
11
3
8
2
6
4
7
5

>  <PUBCHEM_MMFF94_PARTIAL_CHARGES>  (1) 
8
1 -0.14
10 0.22
2 -0.14
3 -0.36
4 -0.36
5 0.28
6 0.28
9 0.22

>  <PUBCHEM_EFFECTIVE_ROTOR_COUNT>  (1) 
4

>  <PUBCHEM_PHARMACOPHORE_FEATURES>  (1) 
2
1 3 acceptor
1 4 acceptor

>  <PUBCHEM_HEAVY_ATOM_COUNT>  (1) 
10

>  <PUBCHEM_ATOM_DEF_STEREO_COUNT>  (1) 
0

>  <PUBCHEM_ATOM_UDEF_STEREO_COUNT>  (1) 
0

>  <PUBCHEM_BOND_DEF_STEREO_COUNT>  (1) 
0

>  <PUBCHEM_BOND_UDEF_STEREO_COUNT>  (1) 
1

>  <PUBCHEM_ISOTOPIC_ATOM_COUNT>  (1) 
0

>  <PUBCHEM_COMPONENT_COUNT>  (1) 
1

>  <PUBCHEM_CACTVS_TAUTO_COUNT>  (1) 
1

>  <PUBCHEM_CONFORMER_ID>  (1) 
0000B17600000001

>  <PUBCHEM_MMFF94_ENERGY>  (1) 
17.8406

>  <PUBCHEM_FEATURE_SELFOVERLAP>  (1) 
10.149

>  <PUBCHEM_SHAPE_FINGERPRINT>  (1) 
10130415 120 18408039628382906600
10219947 1 18411422804012474981
11062470 55 13470690342934394386
12032990 46 18410581681806919474
12932764 1 17386268999965244546
13380535 21 17975705200726105428
14325111 11 18410856602848009831
14993402 34 18411702101319492837
15310529 11 16660630848154270458
18342897 14 18409168805281289161
18511873 20 18201721777452115497
193761 8 17762618786332016647
20671657 1 18119255209850574221
207724 885 18411141376122305104
21293036 1 18409167718480295108
21501502 16 18051414272837400286
22082395 3 18410294722441587568
23235685 24 18412259536556095947
23402539 116 18271798017266632908
23402655 69 18268696226957805021
23552423 10 17830735718064314260
366044 4 18411418414424503923
528862 383 18114454548799574410

>  <PUBCHEM_SHAPE_MULTIPOLES>  (1) 
197.8
6.26
1.72
0.68
0.01
0.01
0
-0.03
-0.01
-0.01
0
0
0
0

>  <PUBCHEM_SHAPE_SELFOVERLAP>  (1) 
348.058

>  <PUBCHEM_SHAPE_VOLUME>  (1) 
130.2

>  <PUBCHEM_COORDINATE_TYPE>  (1) 
2
5
10

$$$$
