4543
     RDKit          3D

 20 22  0  0  0  0  0  0  0  0999 V2000
    4.5685   -1.6438   -0.2304 N   0  0  0  0  0  0  0  0  0  0  0  0
   -2.1954    0.9950   -1.5282 C   0  0  0  0  0  0  0  0  0  0  0  0
   -0.7459    1.3405   -1.8721 C   0  0  0  0  0  0  0  0  0  0  0  0
   -2.4761   -0.1934   -0.6255 C   0  0  0  0  0  0  0  0  0  0  0  0
    0.0041    1.8689   -0.6762 C   0  0  0  0  0  0  0  0  0  0  0  0
   -0.1303   -0.3940    0.3535 C   0  0  0  0  0  0  0  0  0  0  0  0
   -1.5473   -0.8273    0.2294 C   0  0  0  0  0  0  0  0  0  0  0  0
    0.2967    1.0201    0.4042 C   0  0  0  0  0  0  0  0  0  0  0  0
    0.8501   -1.3179    0.3245 C   0  0  0  0  0  0  0  0  0  0  0  0
   -3.8109   -0.6570   -0.6357 C   0  0  0  0  0  0  0  0  0  0  0  0
    0.4101    3.2101   -0.6275 C   0  0  0  0  0  0  0  0  0  0  0  0
   -1.9936   -1.8896    1.0467 C   0  0  0  0  0  0  0  0  0  0  0  0
    0.9832    1.5253    1.5191 C   0  0  0  0  0  0  0  0  0  0  0  0
    2.3040   -0.9888    0.4409 C   0  0  0  0  0  0  0  0  0  0  0  0
   -4.2250   -1.7185    0.1662 C   0  0  0  0  0  0  0  0  0  0  0  0
    1.0960    3.7023    0.4828 C   0  0  0  0  0  0  0  0  0  0  0  0
    3.1558   -1.9904   -0.3379 C   0  0  0  0  0  0  0  0  0  0  0  0
   -3.3147   -2.3345    1.0105 C   0  0  0  0  0  0  0  0  0  0  0  0
    1.3812    2.8613    1.5552 C   0  0  0  0  0  0  0  0  0  0  0  0
    5.3894   -2.5684   -0.9994 C   0  0  0  0  0  0  0  0  0  0  0  0
  1 17  1  0
  1 20  1  0
  2  3  1  0
  2  4  1  0
  3  5  1  0
  4  7  2  0
  4 10  1  0
  5  8  2  0
  5 11  1  0
  6  7  1  0
  6  8  1  0
  6  9  2  3
  7 12  1  0
  8 13  1  0
  9 14  1  0
 10 15  2  0
 11 16  2  0
 12 18  2  0
 13 19  2  0
 14 17  1  0
 15 18  1  0
 16 19  1  0
M  END
>  <PUBCHEM_COMPOUND_CID>  (1) 
4543

>  <PUBCHEM_CONFORMER_RMSD>  (1) 
0.6

>  <PUBCHEM_CONFORMER_DIVERSEORDER>  (1) 
1
11
18
15
19
20
12
17
13
5
3
8
4
16
2
14
10
6
9
7

>  <PUBCHEM_MMFF94_PARTIAL_CHARGES>  (1) 
30
1 -0.9
10 -0.15
11 -0.15
12 -0.15
13 -0.15
14 0.14
15 -0.15
16 -0.15
17 0.27
18 -0.15
19 -0.15
2 0.14
20 0.27
25 0.15
26 0.15
27 0.15
28 0.15
29 0.15
3 0.14
34 0.15
35 0.15
36 0.15
37 0.15
38 0.36
4 -0.14
5 -0.14
6 -0.06
7 0.03
8 0.03
9 -0.29

>  <PUBCHEM_EFFECTIVE_ROTOR_COUNT>  (1) 
3.4

>  <PUBCHEM_PHARMACOPHORE_FEATURES>  (1) 
5
1 1 cation
1 1 donor
6 4 7 10 12 15 18 rings
6 5 8 11 13 16 19 rings
7 2 3 4 5 6 7 8 rings

>  <PUBCHEM_HEAVY_ATOM_COUNT>  (1) 
20

>  <PUBCHEM_ATOM_DEF_STEREO_COUNT>  (1) 
0

>  <PUBCHEM_ATOM_UDEF_STEREO_COUNT>  (1) 
0

>  <PUBCHEM_BOND_DEF_STEREO_COUNT>  (1) 
0

>  <PUBCHEM_BOND_UDEF_STEREO_COUNT>  (1) 
0

>  <PUBCHEM_ISOTOPIC_ATOM_COUNT>  (1) 
0

>  <PUBCHEM_COMPONENT_COUNT>  (1) 
1

>  <PUBCHEM_CACTVS_TAUTO_COUNT>  (1) 
1

>  <PUBCHEM_CONFORMER_ID>  (1) 
000011BF00000001

>  <PUBCHEM_MMFF94_ENERGY>  (1) 
63.6734

>  <PUBCHEM_FEATURE_SELFOVERLAP>  (1) 
25.386

>  <PUBCHEM_SHAPE_FINGERPRINT>  (1) 
1100329 8 18267591195490295665
11680986 33 18189330354827868315
12788726 201 17978783506966382810
12839892 36 17330265585679568715
13027679 85 18338233761033553973
13533116 47 18197220463475821195
14790565 3 17688869731100029652
16945 1 16956154452569152905
17980427 23 17131564846927340929
17980427 26 17485360406665694872
1813 80 17917446310339869502
20028762 73 16395229979633636175
20600515 1 18264794106428029486
21339142 36 18339360747588195470
22182313 1 18263340620759423949
22907989 373 18122919637814678694
23175994 123 18341896268519958055
23419403 2 18340753918999089652
23557571 272 18196940968135980470
23558518 356 17114935600745561115
23559900 14 18189048854049809423
23566358 27 18125154098471103287
238078 22 18263929851986962158
2748010 2 17969203707399314023
283562 15 18264778653774183706
3729539 64 18049465900459991236
458136 41 17834968842084164225
4663303 62 18267015240438412771
57262259 84 18268155249471279750
59554788 248 17469009595029196661
6442390 28 16972244842883624411
7364860 26 18194401319239161289
81228 2 17982453698307392376
84936 31 18058161924199632406

>  <PUBCHEM_SHAPE_MULTIPOLES>  (1) 
406.61
7.01
4.17
1.44
3.77
2.78
-0.12
-9.43
-1.48
3.44
0.44
-0.11
0.62
2.23

>  <PUBCHEM_SHAPE_SELFOVERLAP>  (1) 
873.036

>  <PUBCHEM_SHAPE_VOLUME>  (1) 
222.8

>  <PUBCHEM_COORDINATE_TYPE>  (1) 
2
5
10

$$$$
