45434
     RDKit          3D

 22 26  0  0  0  0  0  0  0  0999 V2000
   -0.9168   -1.8353    0.0012 N   0  0  0  0  0  0  0  0  0  0  0  0
    0.7839   -0.3803    0.0003 C   0  0  0  0  0  0  0  0  0  0  0  0
   -0.4708    0.3441    0.0002 C   0  0  0  0  0  0  0  0  0  0  0  0
   -1.5075   -0.5953    0.0003 C   0  0  0  0  0  0  0  0  0  0  0  0
    0.4514   -1.7370    0.0005 C   0  0  0  0  0  0  0  0  0  0  0  0
    2.1807   -0.0345    0.0000 C   0  0  0  0  0  0  0  0  0  0  0  0
   -2.8809   -0.2332   -0.0002 C   0  0  0  0  0  0  0  0  0  0  0  0
    3.1488   -1.0781   -0.0004 C   0  0  0  0  0  0  0  0  0  0  0  0
   -0.8330    1.7104    0.0000 C   0  0  0  0  0  0  0  0  0  0  0  0
   -3.2048    1.1422   -0.0003 C   0  0  0  0  0  0  0  0  0  0  0  0
    1.3967   -2.7652    0.0004 C   0  0  0  0  0  0  0  0  0  0  0  0
    2.7446   -2.4149   -0.0003 C   0  0  0  0  0  0  0  0  0  0  0  0
    2.6391    1.3013    0.0000 C   0  0  0  0  0  0  0  0  0  0  0  0
   -2.1817    2.0927   -0.0001 C   0  0  0  0  0  0  0  0  0  0  0  0
    4.5157   -0.7580   -0.0009 C   0  0  0  0  0  0  0  0  0  0  0  0
    4.0042    1.5959   -0.0004 C   0  0  0  0  0  0  0  0  0  0  0  0
   -3.9042   -1.2030   -0.0002 C   0  0  0  0  0  0  0  0  0  0  0  0
   -4.5579    1.5168   -0.0003 C   0  0  0  0  0  0  0  0  0  0  0  0
    4.9402    0.5693   -0.0010 C   0  0  0  0  0  0  0  0  0  0  0  0
   -5.2402   -0.8047   -0.0003 C   0  0  0  0  0  0  0  0  0  0  0  0
   -5.5660    0.5501   -0.0002 C   0  0  0  0  0  0  0  0  0  0  0  0
    4.4586    3.0167    0.0016 C   0  0  0  0  0  0  0  0  0  0  0  0
  1  4  1  0
  1  5  1  0
  2  3  1  0
  2  5  2  0
  2  6  1  0
  3  4  2  0
  3  9  1  0
  4  7  1  0
  5 11  1  0
  6  8  2  0
  6 13  1  0
  7 10  2  0
  7 17  1  0
  8 12  1  0
  8 15  1  0
  9 14  2  0
 10 14  1  0
 10 18  1  0
 11 12  2  0
 13 16  2  0
 15 19  2  0
 16 19  1  0
 16 22  1  0
 17 20  2  0
 18 21  2  0
 20 21  1  0
M  END
>  <PUBCHEM_COMPOUND_CID>  (1) 
45434

>  <PUBCHEM_CONFORMER_RMSD>  (1) 
0.6

>  <PUBCHEM_CONFORMER_DIVERSEORDER>  (1) 
1

>  <PUBCHEM_MMFF94_PARTIAL_CHARGES>  (1) 
28
1 0.03
11 -0.15
12 -0.15
13 -0.15
14 -0.15
15 -0.15
16 -0.14
17 -0.15
18 -0.15
19 -0.15
20 -0.15
21 -0.15
22 0.14
23 0.27
24 0.15
25 0.15
26 0.15
27 0.15
28 0.15
29 0.15
30 0.15
31 0.15
32 0.15
33 0.15
34 0.15
4 -0.15
5 -0.15
9 -0.15

>  <PUBCHEM_EFFECTIVE_ROTOR_COUNT>  (1) 
0

>  <PUBCHEM_PHARMACOPHORE_FEATURES>  (1) 
7
1 1 cation
1 1 donor
5 1 2 3 4 5 rings
6 2 5 6 8 11 12 rings
6 3 4 7 9 10 14 rings
6 6 8 13 15 16 19 rings
6 7 10 17 18 20 21 rings

>  <PUBCHEM_HEAVY_ATOM_COUNT>  (1) 
22

>  <PUBCHEM_ATOM_DEF_STEREO_COUNT>  (1) 
0

>  <PUBCHEM_ATOM_UDEF_STEREO_COUNT>  (1) 
0

>  <PUBCHEM_BOND_DEF_STEREO_COUNT>  (1) 
0

>  <PUBCHEM_BOND_UDEF_STEREO_COUNT>  (1) 
0

>  <PUBCHEM_ISOTOPIC_ATOM_COUNT>  (1) 
0

>  <PUBCHEM_COMPONENT_COUNT>  (1) 
1

>  <PUBCHEM_CACTVS_TAUTO_COUNT>  (1) 
1

>  <PUBCHEM_CONFORMER_ID>  (1) 
0000B17A00000001

>  <PUBCHEM_MMFF94_ENERGY>  (1) 
65.4715

>  <PUBCHEM_FEATURE_SELFOVERLAP>  (1) 
35.741

>  <PUBCHEM_SHAPE_FINGERPRINT>  (1) 
10090160 65 18261387875392416407
10411042 1 17834395619039365382
10595046 47 18341891909560376975
10616163 171 18412263947741125903
10835480 77 18335130961328186357
10967382 1 18410856560009139142
11578080 2 13408234844124254717
12107183 9 17620196429878201913
12236239 1 17917992763524132647
12403259 226 18045497509153640764
12403259 415 18187359909157024365
12403260 363 18410851023780366594
12788726 201 17274550832145658529
13009979 54 17413874224215199754
13140716 1 18122060072517887202
13224815 77 18410293575564039243
138480 1 17906170655610191750
14528608 73 18412263955998192597
14787075 74 18341891939414170953
14790565 3 18412549842165292105
15196674 1 18410575089163936933
15536298 74 18341050726766278478
15927050 60 17333372801587496437
17349148 13 17967816050304298269
17492 89 18267303136418494627
17844677 252 18341058406489628497
18681886 176 18342732993259556762
19591789 44 18196089061029517801
200 152 18202279182898072411
21033648 29 16877930629596867509
21267235 1 18339369577830063342
21623110 236 18412552002860850913
21709351 56 18339072701321896478
221490 88 18338242544041499978
22149856 69 18266479723164025755
23227448 37 18342174522228934126
23402539 116 18413101779885577927
23559900 14 18195522601840409011
239999 70 18272657814148844774
245318 6 17389116838562256212
335352 9 18410856564953037790
34797466 226 17846506945513095133
34934 24 18411415108027367983
350125 39 18409729552296256740
3545911 37 18408888416683196157
4073 2 18041005058882011091
4214541 1 18338517430865153281
474 4 17967257524325525420
474229 33 18410855486072272739
5104073 3 18335704897385276099
5283173 99 17969491620680156077
59755656 215 18410862032056184366
67856867 119 18409440363173180354
7364860 26 18340769217952218286
77779 3 18411419471334215563
7808743 9 18050001388297328960
8272917 22 18341615871754170630
9709674 26 18338241470299779867
9981440 41 18264203798160264714
9999458 23 18334858312398167782

>  <PUBCHEM_SHAPE_MULTIPOLES>  (1) 
447.77
11.38
2.84
0.61
4.62
0.08
0
3.66
0
-2.33
0
0
0.01
0

>  <PUBCHEM_SHAPE_SELFOVERLAP>  (1) 
1038.586

>  <PUBCHEM_SHAPE_VOLUME>  (1) 
230.2

>  <PUBCHEM_COORDINATE_TYPE>  (1) 
2
5
10

$$$$
