45431
     RDKit          3D

  8  8  0  0  0  0  0  0  0  0999 V2000
    3.3154   -0.0661   -0.1384 Cl  0  0  0  0  0  0  0  0  0  0  0  0
   -0.7134    0.2518   -0.0297 N   0  0  0  0  0  0  0  0  0  0  0  0
   -0.9864    1.5230    0.5950 C   0  0  0  0  0  0  0  0  0  0  0  0
   -1.6011    1.1438   -0.7346 C   0  0  0  0  0  0  0  0  0  0  0  0
    0.6250    0.0525   -0.5912 C   0  0  0  0  0  0  0  0  0  0  0  0
   -1.3392   -0.9351    0.5985 C   0  0  0  0  0  0  0  0  0  0  0  0
    1.6731    0.2001    0.4957 C   0  0  0  0  0  0  0  0  0  0  0  0
   -0.9734   -2.1701   -0.1953 C   0  0  0  0  0  0  0  0  0  0  0  0
  1  7  1  0
  2  3  1  0
  2  4  1  0
  2  5  1  0
  2  6  1  0
  3  4  1  0
  5  7  1  0
  6  8  1  0
M  CHG  1   2   1
M  END
>  <PUBCHEM_COMPOUND_CID>  (1) 
45431

>  <PUBCHEM_CONFORMER_RMSD>  (1) 
0.6

>  <PUBCHEM_CONFORMER_DIVERSEORDER>  (1) 
2
10
9
6
5
4
11
3
7
12
1
8

>  <PUBCHEM_MMFF94_PARTIAL_CHARGES>  (1) 
11
1 -0.29
10 0.1
11 0.1
12 0.1
2 -0.8
3 0.2
4 0.2
5 0.5
6 0.5
7 0.29
9 0.1

>  <PUBCHEM_EFFECTIVE_ROTOR_COUNT>  (1) 
3.6

>  <PUBCHEM_PHARMACOPHORE_FEATURES>  (1) 
1
1 2 cation

>  <PUBCHEM_HEAVY_ATOM_COUNT>  (1) 
8

>  <PUBCHEM_ATOM_DEF_STEREO_COUNT>  (1) 
0

>  <PUBCHEM_ATOM_UDEF_STEREO_COUNT>  (1) 
0

>  <PUBCHEM_BOND_DEF_STEREO_COUNT>  (1) 
0

>  <PUBCHEM_BOND_UDEF_STEREO_COUNT>  (1) 
0

>  <PUBCHEM_ISOTOPIC_ATOM_COUNT>  (1) 
0

>  <PUBCHEM_COMPONENT_COUNT>  (1) 
1

>  <PUBCHEM_CACTVS_TAUTO_COUNT>  (1) 
1

>  <PUBCHEM_CONFORMER_ID>  (1) 
0000B17700000002

>  <PUBCHEM_MMFF94_ENERGY>  (1) 
23.6272

>  <PUBCHEM_FEATURE_SELFOVERLAP>  (1) 
5.074

>  <PUBCHEM_SHAPE_FINGERPRINT>  (1) 
12716758 59 18340765949413242026
12932741 1 18202556307115279160
13024252 1 15068624880916453893
137420 1 16119126641473367673
18185500 45 17831869314326094114
20871998 184 18340778129534707806
21040471 1 18264768761857248092
23235685 24 18340204068495525920
23552423 10 18042967764731422892
23552449 1 18340764948432868680

>  <PUBCHEM_SHAPE_MULTIPOLES>  (1) 
161.52
3.39
1.8
0.85
4.16
0.73
0.01
-0.08
0.11
-1.33
0
-0.12
-0.1
0.12

>  <PUBCHEM_SHAPE_SELFOVERLAP>  (1) 
292.846

>  <PUBCHEM_SHAPE_VOLUME>  (1) 
106.9

>  <PUBCHEM_COORDINATE_TYPE>  (1) 
2
5
10

$$$$
