45433
     RDKit          3D

  8  8  0  0  1  0  0  0  0  0999 V2000
   -3.6619    0.7310   -0.3036 Cl  0  0  0  0  0  0  0  0  0  0  0  0
    0.0290   -0.6624    0.4661 N   0  0  0  0  0  0  0  0  0  0  0  0
    1.1404   -0.3272   -0.3867 C   0  0  0  0  0  0  0  0  0  0  0  0
    0.8115   -1.7411   -0.1281 C   0  0  0  0  0  0  0  0  0  0  0  0
    2.4221    0.2391    0.2005 C   0  0  0  0  0  0  0  0  0  0  0  0
   -1.2744   -0.5494   -0.1671 C   0  0  0  0  0  0  0  0  0  0  0  0
    2.5897    1.7117   -0.1341 C   0  0  0  0  0  0  0  0  0  0  0  0
   -2.0564    0.5981    0.4531 C   0  0  0  0  0  0  0  0  0  0  0  0
  1  8  1  0
  2  3  1  0
  2  4  1  0
  2  6  1  0
  3  4  1  0
  3  5  1  0
  5  7  1  0
  6  8  1  0
M  END
>  <PUBCHEM_COMPOUND_CID>  (1) 
45433

>  <PUBCHEM_CONFORMER_RMSD>  (1) 
0.6

>  <PUBCHEM_CONFORMER_DIVERSEORDER>  (1) 
1
19
26
11
13
12
24
25
8
6
23
16
15
7
22
9
5
18
3
17
10
2
21
14
20
4

>  <PUBCHEM_MMFF94_PARTIAL_CHARGES>  (1) 
10
1 -0.29
10 0.1
11 0.1
2 -0.59
3 -0.04
4 -0.04
5 0.09
6 0.27
8 0.29
9 0.1

>  <PUBCHEM_EFFECTIVE_ROTOR_COUNT>  (1) 
3.6

>  <PUBCHEM_PHARMACOPHORE_FEATURES>  (1) 
2
1 2 cation
1 7 hydrophobe

>  <PUBCHEM_HEAVY_ATOM_COUNT>  (1) 
8

>  <PUBCHEM_ATOM_DEF_STEREO_COUNT>  (1) 
0

>  <PUBCHEM_ATOM_UDEF_STEREO_COUNT>  (1) 
1

>  <PUBCHEM_BOND_DEF_STEREO_COUNT>  (1) 
0

>  <PUBCHEM_BOND_UDEF_STEREO_COUNT>  (1) 
0

>  <PUBCHEM_ISOTOPIC_ATOM_COUNT>  (1) 
0

>  <PUBCHEM_COMPONENT_COUNT>  (1) 
1

>  <PUBCHEM_CACTVS_TAUTO_COUNT>  (1) 
1

>  <PUBCHEM_CONFORMER_ID>  (1) 
0000B17900000001

>  <PUBCHEM_MMFF94_ENERGY>  (1) 
8.4255

>  <PUBCHEM_FEATURE_SELFOVERLAP>  (1) 
10.148

>  <PUBCHEM_SHAPE_FINGERPRINT>  (1) 
10149128 76 18338518654730515532
10857977 72 16878240705161754193
12897270 3 17917992784745716033
12932741 1 18042423351925663363
12932764 1 17750520577072712747
14325111 11 18410293648346355179
14390081 3 18410857650893980529
170605 34 18408322181248585475
20653085 51 18269286801449374412
21028194 46 18336271231403777608
21040471 1 18340490092264420786
21293036 1 15267055973564089353

>  <PUBCHEM_SHAPE_MULTIPOLES>  (1) 
161.52
5.07
1.59
0.7
3.47
0.04
0
-2.84
-0.34
-0.97
-0.08
0.08
-0.01
-0.01

>  <PUBCHEM_SHAPE_SELFOVERLAP>  (1) 
288.961

>  <PUBCHEM_SHAPE_VOLUME>  (1) 
106.7

>  <PUBCHEM_COORDINATE_TYPE>  (1) 
2
5
10

$$$$
