45442
     RDKit          3D

 17 17  0  0  0  0  0  0  0  0999 V2000
   -0.0799   -2.6915    0.6714 Cl  0  0  0  0  0  0  0  0  0  0  0  0
   -0.0526    2.6855    0.6646 Cl  0  0  0  0  0  0  0  0  0  0  0  0
   -3.0389    2.7324   -0.3884 Cl  0  0  0  0  0  0  0  0  0  0  0  0
   -3.0665   -2.7108   -0.3811 Cl  0  0  0  0  0  0  0  0  0  0  0  0
   -4.5405    0.0176   -0.9107 Cl  0  0  0  0  0  0  0  0  0  0  0  0
    1.0234   -0.0080    1.0508 O   0  0  0  0  0  0  0  0  0  0  0  0
    4.5994   -0.0255   -0.1950 C   0  0  0  0  0  0  0  0  0  0  0  0
    3.4012   -0.0374    0.7680 C   0  0  0  0  0  0  0  0  0  0  0  0
    2.0491   -0.0143    0.0655 C   0  0  0  0  0  0  0  0  0  0  0  0
    4.5255   -1.2338   -1.1315 C   0  0  0  0  0  0  0  0  0  0  0  0
    4.6729    1.2617   -1.0174 C   0  0  0  0  0  0  0  0  0  0  0  0
   -0.2691   -0.0020    0.5964 C   0  0  0  0  0  0  0  0  0  0  0  0
   -0.9298   -1.2070    0.3675 C   0  0  0  0  0  0  0  0  0  0  0  0
   -0.9178    1.2090    0.3645 C   0  0  0  0  0  0  0  0  0  0  0  0
   -2.2335    1.2151   -0.0992 C   0  0  0  0  0  0  0  0  0  0  0  0
   -2.2456   -1.2010   -0.0959 C   0  0  0  0  0  0  0  0  0  0  0  0
   -2.8973    0.0101   -0.3294 C   0  0  0  0  0  0  0  0  0  0  0  0
  1 13  1  0
  2 14  1  0
  3 15  1  0
  4 16  1  0
  5 17  1  0
  6  9  1  0
  6 12  1  0
  7  8  1  0
  7 10  1  0
  7 11  1  0
  8  9  1  0
 12 13  2  0
 12 14  1  0
 13 16  1  0
 14 15  2  0
 15 17  1  0
 16 17  2  0
M  END
>  <PUBCHEM_COMPOUND_CID>  (1) 
45442

>  <PUBCHEM_CONFORMER_RMSD>  (1) 
0.6

>  <PUBCHEM_CONFORMER_DIVERSEORDER>  (1) 
1
2
6
3
4
5

>  <PUBCHEM_MMFF94_PARTIAL_CHARGES>  (1) 
13
1 -0.18
12 0.08
13 0.18
14 0.18
15 0.18
16 0.18
17 0.18
2 -0.18
3 -0.18
4 -0.18
5 -0.18
6 -0.36
9 0.28

>  <PUBCHEM_EFFECTIVE_ROTOR_COUNT>  (1) 
4

>  <PUBCHEM_PHARMACOPHORE_FEATURES>  (1) 
3
1 6 acceptor
3 7 10 11 hydrophobe
6 12 13 14 15 16 17 rings

>  <PUBCHEM_HEAVY_ATOM_COUNT>  (1) 
17

>  <PUBCHEM_ATOM_DEF_STEREO_COUNT>  (1) 
0

>  <PUBCHEM_ATOM_UDEF_STEREO_COUNT>  (1) 
0

>  <PUBCHEM_BOND_DEF_STEREO_COUNT>  (1) 
0

>  <PUBCHEM_BOND_UDEF_STEREO_COUNT>  (1) 
0

>  <PUBCHEM_ISOTOPIC_ATOM_COUNT>  (1) 
0

>  <PUBCHEM_COMPONENT_COUNT>  (1) 
1

>  <PUBCHEM_CACTVS_TAUTO_COUNT>  (1) 
1

>  <PUBCHEM_CONFORMER_ID>  (1) 
0000B18200000001

>  <PUBCHEM_MMFF94_ENERGY>  (1) 
47.152

>  <PUBCHEM_FEATURE_SELFOVERLAP>  (1) 
15.223

>  <PUBCHEM_SHAPE_FINGERPRINT>  (1) 
10498660 4 18408886256773614606
10756046 5 18123747560837062623
11458722 379 18411135805544590203
12173636 292 18335696148357603940
12236239 1 17676198066185158586
12390115 104 18128263290174984633
12670546 177 18409730694504330828
12892183 10 9367336021219243668
13140716 1 18266167526127731019
14790565 3 18339368448771194561
14911166 2 18339349834461119445
16752209 62 18410001118192442210
16945 1 18266435708127899737
17870717 6 18272101482507820654
200 152 16128654120323875458
20645476 183 17821725065550853035
20645477 70 16845574202100373366
20871999 31 18411983580733718964
21637258 2 15482371120003293861
22182313 1 17977362152475847433
2334 1 17904746032432649449
23402539 116 18410567418563408022
23526113 38 17703212005653421624
23557571 272 18202286874963310852
23559900 14 18272367517683509866
2748010 2 17977080673304344347
2838139 119 16227143961029730287
3759504 43 17676205780010148075
394222 165 17609771998990878329
474 4 17095531746652125068
559249 180 18192426377819349906
67856867 119 18334288808656975080
9709674 26 18200884967889701718

>  <PUBCHEM_SHAPE_MULTIPOLES>  (1) 
353.33
8.95
3
1.01
9.2
0.03
-0.07
0.08
-3.99
-2.49
0.15
0.47
-0.02
0.03

>  <PUBCHEM_SHAPE_SELFOVERLAP>  (1) 
677.474

>  <PUBCHEM_SHAPE_VOLUME>  (1) 
221.4

>  <PUBCHEM_COORDINATE_TYPE>  (1) 
2
5
10

$$$$
