45440
     RDKit          3D

 20 22  0  0  0  0  0  0  0  0999 V2000
    5.4144    0.7058    0.0204 Cl  0  0  0  0  0  0  0  0  0  0  0  0
   -5.1193    1.5384   -0.1315 Cl  0  0  0  0  0  0  0  0  0  0  0  0
   -0.0874   -1.8687    0.7925 N   0  0  0  0  0  0  0  0  0  0  0  0
    0.6767   -1.4467   -0.3947 C   0  0  0  0  0  0  0  0  0  0  0  0
   -0.7497   -0.7798    1.5304 C   0  0  0  0  0  0  0  0  0  0  0  0
    1.5114   -0.1943   -0.2020 C   0  0  0  0  0  0  0  0  0  0  0  0
   -1.3918    0.3003    0.6818 C   0  0  0  0  0  0  0  0  0  0  0  0
    0.8873    1.0731   -0.0761 C   0  0  0  0  0  0  0  0  0  0  0  0
   -0.5897    1.1978   -0.0676 C   0  0  0  0  0  0  0  0  0  0  0  0
   -1.0323   -2.9272    0.4332 C   0  0  0  0  0  0  0  0  0  0  0  0
    2.9113   -0.2950   -0.1675 C   0  0  0  0  0  0  0  0  0  0  0  0
   -2.7906    0.4136    0.6519 C   0  0  0  0  0  0  0  0  0  0  0  0
    1.7076    2.2064    0.0738 C   0  0  0  0  0  0  0  0  0  0  0  0
   -1.2350    2.1933   -0.8239 C   0  0  0  0  0  0  0  0  0  0  0  0
    3.6994    0.8438   -0.0177 C   0  0  0  0  0  0  0  0  0  0  0  0
   -3.4036    1.4088   -0.1055 C   0  0  0  0  0  0  0  0  0  0  0  0
    3.0988    2.0925    0.1009 C   0  0  0  0  0  0  0  0  0  0  0  0
   -2.6273    2.2979   -0.8411 C   0  0  0  0  0  0  0  0  0  0  0  0
   -0.3300   -4.1298   -0.1180 C   0  0  0  0  0  0  0  0  0  0  0  0
   -0.5501   -4.6301   -1.3393 C   0  0  0  0  0  0  0  0  0  0  0  0
  1 15  1  0
  2 16  1  0
  3  4  1  0
  3  5  1  0
  3 10  1  0
  4  6  1  0
  5  7  1  0
  6  8  2  0
  6 11  1  0
  7  9  2  0
  7 12  1  0
  8  9  1  0
  8 13  1  0
  9 14  1  0
 10 19  1  0
 11 15  2  0
 12 16  2  0
 13 17  2  0
 14 18  2  0
 15 17  1  0
 16 18  1  0
 19 20  2  0
M  END
>  <PUBCHEM_COMPOUND_CID>  (1) 
45440

>  <PUBCHEM_CONFORMER_RMSD>  (1) 
0.6

>  <PUBCHEM_CONFORMER_DIVERSEORDER>  (1) 
2
5
4
8
6
7
1
3

>  <PUBCHEM_MMFF94_PARTIAL_CHARGES>  (1) 
27
1 -0.18
10 0.41
11 -0.15
12 -0.15
13 -0.15
14 -0.15
15 0.18
16 0.18
17 -0.15
18 -0.15
19 -0.29
2 -0.18
20 -0.3
27 0.15
28 0.15
29 0.15
3 -0.81
30 0.15
31 0.15
32 0.15
33 0.15
34 0.15
35 0.15
4 0.41
5 0.41
6 -0.14
7 -0.14

>  <PUBCHEM_EFFECTIVE_ROTOR_COUNT>  (1) 
2.6

>  <PUBCHEM_PHARMACOPHORE_FEATURES>  (1) 
5
1 20 hydrophobe
1 3 cation
6 6 8 11 13 15 17 rings
6 7 9 12 14 16 18 rings
7 3 4 5 6 7 8 9 rings

>  <PUBCHEM_HEAVY_ATOM_COUNT>  (1) 
20

>  <PUBCHEM_ATOM_DEF_STEREO_COUNT>  (1) 
0

>  <PUBCHEM_ATOM_UDEF_STEREO_COUNT>  (1) 
0

>  <PUBCHEM_BOND_DEF_STEREO_COUNT>  (1) 
0

>  <PUBCHEM_BOND_UDEF_STEREO_COUNT>  (1) 
0

>  <PUBCHEM_ISOTOPIC_ATOM_COUNT>  (1) 
0

>  <PUBCHEM_COMPONENT_COUNT>  (1) 
1

>  <PUBCHEM_CACTVS_TAUTO_COUNT>  (1) 
1

>  <PUBCHEM_CONFORMER_ID>  (1) 
0000B18000000002

>  <PUBCHEM_MMFF94_ENERGY>  (1) 
63.8871

>  <PUBCHEM_FEATURE_SELFOVERLAP>  (1) 
25.396

>  <PUBCHEM_SHAPE_FINGERPRINT>  (1) 
10411042 1 17545040867593630106
10871710 139 17253171116132380252
10967382 1 18335702689350455736
116883 192 17907014332835829511
12011746 2 18335708213179590972
12236239 1 16630525107226424628
12553582 1 17182512126870681402
12730499 353 18263651671709291897
12788726 201 17903346353344838795
13004483 165 17836357529723774506
13140716 1 17975138643258501840
138480 1 17545882629311287423
14955137 171 16250834837341981273
15042514 8 18190185761388087307
16728300 4 17317579025929554418
16945 1 17531828894891459400
17539 30 18053376888229671350
19591789 44 18409450262803609571
20028762 73 18271796896344160999
20602899 9 18272655648952187827
20645477 70 18046899391143579949
20905425 154 17391063738293312112
21478907 32 17978507868771658138
21524375 3 18260267429956779376
22033318 11 17041523911463945019
22182313 1 18265641860121332851
23352939 185 12823007664475223450
23388829 49 17114395186511344128
23402539 116 18334289890118490469
23419403 2 17268683863969837071
23558518 356 17901662992869717992
23559900 14 17688580572499626930
238 59 17682645494996521533
257057 1 17547292662536841482
2748010 2 18191331375400423251
298252 57 18261111859303074936
3060560 45 18337951182170828287
3380486 145 17833844037447061337
38695281 34 18340201900090656671
474229 33 18334295362033244049
532947 4 18124600782403685214
6138700 20 18048599223156338474
6669772 16 18271810060614082766
69090 78 18335700563378561089
7164475 11 17833549372820469236
7364860 26 17976818692677846435
81228 2 17829602117133599009
8272917 22 18195810661655962741

>  <PUBCHEM_SHAPE_MULTIPOLES>  (1) 
410.35
7.18
4.65
0.99
2.58
7.95
-0.06
-6.68
0.24
-1.74
1.58
-0.37
0.41
0.42

>  <PUBCHEM_SHAPE_SELFOVERLAP>  (1) 
868.782

>  <PUBCHEM_SHAPE_VOLUME>  (1) 
230.7

>  <PUBCHEM_COORDINATE_TYPE>  (1) 
2
5
10

$$$$
