45450
     RDKit          3D

 11 11  0  0  1  0  0  0  0  0999 V2000
    1.1464   -1.6721   -0.8159 O   0  0  0  0  0  0  0  0  0  0  0  0
    3.2522    0.1630   -0.1089 N   0  0  0  0  0  0  0  0  0  0  0  0
    4.0955    0.7481    0.8814 N   0  0  0  0  0  0  0  0  0  0  0  0
    0.8803   -0.2676   -0.7052 C   0  0  0  0  0  0  0  0  0  0  0  0
   -0.5425   -0.0718   -0.3021 C   0  0  0  0  0  0  0  0  0  0  0  0
    1.8640    0.3606    0.3020 C   0  0  0  0  0  0  0  0  0  0  0  0
   -1.1761   -1.0186    0.5025 C   0  0  0  0  0  0  0  0  0  0  0  0
   -1.2395    1.0581   -0.7303 C   0  0  0  0  0  0  0  0  0  0  0  0
   -2.5066   -0.8356    0.8791 C   0  0  0  0  0  0  0  0  0  0  0  0
   -2.5699    1.2413   -0.3536 C   0  0  0  0  0  0  0  0  0  0  0  0
   -3.2036    0.2945    0.4512 C   0  0  0  0  0  0  0  0  0  0  0  0
  1  4  1  0
  2  3  1  0
  2  6  1  0
  4  5  1  0
  4  6  1  0
  5  7  2  0
  5  8  1  0
  7  9  1  0
  8 10  2  0
  9 11  2  0
 10 11  1  0
M  END
>  <PUBCHEM_COMPOUND_CID>  (1) 
45450

>  <PUBCHEM_CONFORMER_RMSD>  (1) 
0.6

>  <PUBCHEM_CONFORMER_DIVERSEORDER>  (1) 
1
12
10
4
11
8
5
3
7
9
6
2

>  <PUBCHEM_MMFF94_PARTIAL_CHARGES>  (1) 
20
1 -0.68
10 -0.15
11 -0.15
15 0.15
16 0.15
17 0.36
18 0.15
19 0.15
2 -0.63
20 0.4
21 0.15
22 0.36
23 0.36
3 -0.72
4 0.42
5 -0.14
6 0.27
7 -0.15
8 -0.15
9 -0.15

>  <PUBCHEM_EFFECTIVE_ROTOR_COUNT>  (1) 
3

>  <PUBCHEM_PHARMACOPHORE_FEATURES>  (1) 
5
1 1 acceptor
1 1 donor
1 2 donor
1 3 donor
6 5 7 8 9 10 11 rings

>  <PUBCHEM_HEAVY_ATOM_COUNT>  (1) 
11

>  <PUBCHEM_ATOM_DEF_STEREO_COUNT>  (1) 
0

>  <PUBCHEM_ATOM_UDEF_STEREO_COUNT>  (1) 
1

>  <PUBCHEM_BOND_DEF_STEREO_COUNT>  (1) 
0

>  <PUBCHEM_BOND_UDEF_STEREO_COUNT>  (1) 
0

>  <PUBCHEM_ISOTOPIC_ATOM_COUNT>  (1) 
0

>  <PUBCHEM_COMPONENT_COUNT>  (1) 
1

>  <PUBCHEM_CACTVS_TAUTO_COUNT>  (1) 
1

>  <PUBCHEM_CONFORMER_ID>  (1) 
0000B18A00000001

>  <PUBCHEM_MMFF94_ENERGY>  (1) 
22.8661

>  <PUBCHEM_FEATURE_SELFOVERLAP>  (1) 
26.701

>  <PUBCHEM_SHAPE_FINGERPRINT>  (1) 
10857977 72 18259994785770348221
12251169 10 18113336435768178660
12932764 1 18272940396736455278
13024252 1 15430031063596320417
15219456 202 18339928108277786014
15310529 11 16988283062932353933
15775835 57 17132111346839642988
16945 1 17968394372309629855
18186145 218 17203613709476161744
20201158 50 18411703170935154537
20645464 45 18409169887575897035
20871998 184 18336838601195460315
21040471 1 17679030300911787613
23402539 116 18261382386983361975
2748010 2 17970922050757795159
369184 2 18259703380829184267
6333449 129 18409166619332644671
75552 356 17894352202327050825

>  <PUBCHEM_SHAPE_MULTIPOLES>  (1) 
210.54
5.66
1.3
0.94
4.51
0.12
0.01
-1.22
-1.9
-0.54
0.14
0.23
0.09
0.68

>  <PUBCHEM_SHAPE_SELFOVERLAP>  (1) 
425.517

>  <PUBCHEM_SHAPE_VOLUME>  (1) 
123.3

>  <PUBCHEM_COORDINATE_TYPE>  (1) 
2
5
10

$$$$
