45457
     RDKit          3D

 26 27  0  0  1  0  0  0  0  0999 V2000
   -1.1628   -0.8169    0.1842 O   0  0  0  0  0  0  0  0  0  0  0  0
    4.7586    1.0874    0.2375 O   0  0  0  0  0  0  0  0  0  0  0  0
   -0.2208   -2.8251    0.7995 O   0  0  0  0  0  0  0  0  0  0  0  0
   -5.8578    0.1361   -0.5421 N   0  0  0  0  0  0  0  0  0  0  0  0
   -7.2114   -0.3926   -0.7979 C   0  0  0  0  0  0  0  0  0  0  0  0
   -8.1227    0.7415   -1.3049 C   0  0  0  0  0  0  0  0  0  0  0  0
   -5.8383    1.2514    0.4110 C   0  0  0  0  0  0  0  0  0  0  0  0
   -8.1430    1.9408   -0.3618 C   0  0  0  0  0  0  0  0  0  0  0  0
   -6.7227    2.4045   -0.0638 C   0  0  0  0  0  0  0  0  0  0  0  0
   -4.9008   -0.8982   -0.1594 C   0  0  0  0  0  0  0  0  0  0  0  0
   -7.8594   -1.1328    0.3827 C   0  0  0  0  0  0  0  0  0  0  0  0
   -3.4837   -0.3343   -0.1590 C   0  0  0  0  0  0  0  0  0  0  0  0
   -2.4595   -1.3970    0.2157 C   0  0  0  0  0  0  0  0  0  0  0  0
    7.1436    0.8842    0.4157 C   0  0  0  0  0  0  0  0  0  0  0  0
    5.7983    0.6460    1.1094 C   0  0  0  0  0  0  0  0  0  0  0  0
    7.2630    0.1864   -0.9396 C   0  0  0  0  0  0  0  0  0  0  0  0
    8.6089    0.4870   -1.6005 C   0  0  0  0  0  0  0  0  0  0  0  0
   -0.1283   -1.6453    0.4983 C   0  0  0  0  0  0  0  0  0  0  0  0
    5.6548    1.3778    2.4371 C   0  0  0  0  0  0  0  0  0  0  0  0
    1.1661   -0.9212    0.4303 C   0  0  0  0  0  0  0  0  0  0  0  0
    3.5723    0.4236    0.3023 C   0  0  0  0  0  0  0  0  0  0  0  0
    8.7217   -0.1787   -2.9628 C   0  0  0  0  0  0  0  0  0  0  0  0
    2.3057   -1.6234    0.0951 C   0  0  0  0  0  0  0  0  0  0  0  0
    1.1899    0.4313    0.7036 C   0  0  0  0  0  0  0  0  0  0  0  0
    3.5220   -0.9436    0.0305 C   0  0  0  0  0  0  0  0  0  0  0  0
    2.4062    1.1111    0.6388 C   0  0  0  0  0  0  0  0  0  0  0  0
  1 13  1  0
  1 18  1  0
  2 15  1  0
  2 21  1  0
  3 18  2  0
  4  5  1  0
  4  7  1  0
  4 10  1  0
  5  6  1  0
  5 11  1  0
  6  8  1  0
  7  9  1  0
  8  9  1  0
 10 12  1  0
 12 13  1  0
 14 15  1  0
 14 16  1  0
 15 19  1  0
 16 17  1  0
 17 22  1  0
 18 20  1  0
 20 23  2  0
 20 24  1  0
 21 25  2  0
 21 26  1  0
 23 25  1  0
 24 26  2  0
M  END
>  <PUBCHEM_COMPOUND_CID>  (1) 
45457

>  <PUBCHEM_CONFORMER_RMSD>  (1) 
1.2

>  <PUBCHEM_CONFORMER_DIVERSEORDER>  (1) 
9
194
72
221
311
324
179
295
198
250
44
172
319
317
165
133
241
354
144
288
328
62
19
182
119
227
58
127
320
122
183
336
135
251
170
348
214
154
272
270
150
299
50
209
56
20
140
337
15
360
105
149
347
306
285
131
157
243
43
39
245
217
117
129
349
244
97
104
123
169
312
353
228
304
83
90
292
46
197
215
264
230
30
357
4
33
300
160
180
35
212
11
289
2
163
71
355
275
146
137
78
260
284
206
42
53
139
233
229
59
286
265
339
283
226
98
254
134
93
121
350
333
115
96
310
51
138
266
13
281
296
70
224
142
151
200
81
262
80
359
27
326
277
171
10
48
327
184
238
343
73
303
26
302
143
31
185
307
195
352
29
278
207
82
248
276
128
85
92
334
16
34
61
325
23
162
318
113
268
257
18
175
40
118
68
258
65
158
79
196
24
279
247
75
193
249
301
57
205
87
308
356
107
186
109
111
235
116
291
114
208
261
219
242
37
218
344
313
274
211
239
314
297
89
102
267
164
99
166
1
201
6
345
178
259
351
256
126
323
94
84
152
55
252
112
202
330
223
263
191
106
47
210
309
290
298
22
315
136
28
342
282
88
63
153
14
332
130
190
203
287
148
188
173
103
159
225
124
74
108
253
237
199
187
21
231
41
181
155
86
273
232
17
216
49
54
358
346
316
246
341
220
305
141
120
66
25
69
280
147
91
52
101
36
125
168
177
176
189
192
335
213
322
3
100
293
240
145
271
294
64
222
8
77
60
161
76
204
32
110
340
132
95
361
338
174
234
5
331
38
321
156
12
45
269
167
67
329
255
7
236
362

>  <PUBCHEM_MMFF94_PARTIAL_CHARGES>  (1) 
20
1 -0.43
10 0.27
13 0.28
15 0.28
18 0.63
2 -0.36
20 0.09
21 0.08
23 -0.15
24 -0.15
25 -0.15
26 -0.15
3 -0.57
4 -0.81
5 0.27
58 0.15
59 0.15
60 0.15
61 0.15
7 0.27

>  <PUBCHEM_EFFECTIVE_ROTOR_COUNT>  (1) 
12.2

>  <PUBCHEM_PHARMACOPHORE_FEATURES>  (1) 
6
1 2 acceptor
1 22 hydrophobe
1 3 acceptor
1 4 cation
6 20 21 23 24 25 26 rings
6 4 5 6 7 8 9 rings

>  <PUBCHEM_HEAVY_ATOM_COUNT>  (1) 
26

>  <PUBCHEM_ATOM_DEF_STEREO_COUNT>  (1) 
0

>  <PUBCHEM_ATOM_UDEF_STEREO_COUNT>  (1) 
2

>  <PUBCHEM_BOND_DEF_STEREO_COUNT>  (1) 
0

>  <PUBCHEM_BOND_UDEF_STEREO_COUNT>  (1) 
0

>  <PUBCHEM_ISOTOPIC_ATOM_COUNT>  (1) 
0

>  <PUBCHEM_COMPONENT_COUNT>  (1) 
1

>  <PUBCHEM_CACTVS_TAUTO_COUNT>  (1) 
1

>  <PUBCHEM_CONFORMER_ID>  (1) 
0000B19100000009

>  <PUBCHEM_MMFF94_ENERGY>  (1) 
50.2776

>  <PUBCHEM_FEATURE_SELFOVERLAP>  (1) 
30.446

>  <PUBCHEM_SHAPE_FINGERPRINT>  (1) 
10 15 16877941637798474157
10029044 110 17386858382493488340
10066227 49 16343713101654157014
106641 1 8430314620216759382
10666366 153 18131637777280385508
10669705 176 18273215300777160879
10670039 82 16702305620908935985
11315181 36 17821727244232947371
11386260 185 17632859759353210872
11409948 41 16271935853269755358
12082328 90 15841555185040349545
12133447 93 18339646633344066437
13150687 139 17917993884041644847
13383665 225 18115322072464537172
13685833 64 8935001499120297155
14040221 8 17968668108515305878
14251757 52 17822293531001807764
14251764 18 18040990756941283595
14294032 229 18113329804322713821
14428016 248 17313391135998986964
14556957 393 15410622540267169521
14617042 71 14779842602606768294
14931854 50 18060139829585469097
150020 25 17989768903717444444
15183329 4 16559028286347139083
15461852 350 18337111263236883439
15690457 1 13758361051431912700
15706992 2 15213312928469128582
15840311 113 15791735218228070134
1754908 1 11314307261015658660
18335252 114 17275100652710823768
20105231 36 14117507789114116621
2026 5 14261088527948905308
21095123 145 17822582698317641395
21095123 293 17240486900970565284
21150785 3 16200427001169551873
21585482 111 18188204279039123925
22224240 67 13117996716969924752
23524908 199 17632579301687000804
23576562 1 18192713564469159221
3092352 35 17312820502871520394
3178227 256 12396299257777063610
3633792 109 16845301518637270502
3711267 37 17312831489392842748
4073 2 18113620071773472539
474113 269 17632021833035457182
5219985 9 12175623987958341986
5283156 175 14908188551424009070
5385378 56 18114733850612530466
5758199 1 18186798072037813499
5937810 71 17704075058828063481
59682541 35 11602822419453112268
59682541 52 17632865209608154334
5969126 39 13470695836561973147
9953998 17 13118005517542627585
9980921 7 18187077306176479989

>  <PUBCHEM_SHAPE_MULTIPOLES>  (1) 
512.48
31.5
2.01
1.59
7.61
0.1
-0.68
-12.62
-15.75
2.4
0.52
-4.79
-0.26
1.97

>  <PUBCHEM_SHAPE_SELFOVERLAP>  (1) 
1030.045

>  <PUBCHEM_SHAPE_VOLUME>  (1) 
301.2

>  <PUBCHEM_COORDINATE_TYPE>  (1) 
2
5
10

$$$$
