45460
     RDKit          3D

 22 23  0  0  0  0  0  0  0  0999 V2000
   -0.9063    0.9128    2.7013 Cl  0  0  0  0  0  0  0  0  0  0  0  0
   -0.9084    0.9912   -2.6748 Cl  0  0  0  0  0  0  0  0  0  0  0  0
    2.7123    2.8947    0.0394 Cl  0  0  0  0  0  0  0  0  0  0  0  0
   -3.7553   -0.3940   -2.7274 Cl  0  0  0  0  0  0  0  0  0  0  0  0
   -3.7533   -0.4757    2.7154 Cl  0  0  0  0  0  0  0  0  0  0  0  0
   -5.1740   -1.1241   -0.0157 Cl  0  0  0  0  0  0  0  0  0  0  0  0
    5.2327    0.9671    0.0108 Cl  0  0  0  0  0  0  0  0  0  0  0  0
    1.8078   -3.2928   -0.0457 Cl  0  0  0  0  0  0  0  0  0  0  0  0
    4.7858   -2.1562   -0.0274 Cl  0  0  0  0  0  0  0  0  0  0  0  0
    0.1305    1.4575    0.0202 O   0  0  0  0  0  0  0  0  0  0  0  0
   -1.1132    0.8515    0.0123 C   0  0  0  0  0  0  0  0  0  0  0  0
    1.2279    0.6481    0.0091 C   0  0  0  0  0  0  0  0  0  0  0  0
   -1.7250    0.5368    1.2159 C   0  0  0  0  0  0  0  0  0  0  0  0
   -1.7254    0.5716   -1.1998 C   0  0  0  0  0  0  0  0  0  0  0  0
    2.5217    1.1694    0.0159 C   0  0  0  0  0  0  0  0  0  0  0  0
    1.0326   -0.7329   -0.0100 C   0  0  0  0  0  0  0  0  0  0  0  0
   -2.9799   -0.0381   -1.2084 C   0  0  0  0  0  0  0  0  0  0  0  0
   -2.9796   -0.0728    1.2073 C   0  0  0  0  0  0  0  0  0  0  0  0
   -3.6070   -0.3603   -0.0048 C   0  0  0  0  0  0  0  0  0  0  0  0
    3.6201    0.3098    0.0037 C   0  0  0  0  0  0  0  0  0  0  0  0
    2.1310   -1.5925   -0.0221 C   0  0  0  0  0  0  0  0  0  0  0  0
    3.4248   -1.0712   -0.0153 C   0  0  0  0  0  0  0  0  0  0  0  0
  1 13  1  0
  2 14  1  0
  3 15  1  0
  4 17  1  0
  5 18  1  0
  6 19  1  0
  7 20  1  0
  8 21  1  0
  9 22  1  0
 10 11  1  0
 10 12  1  0
 11 13  2  0
 11 14  1  0
 12 15  2  0
 12 16  1  0
 13 18  1  0
 14 17  2  0
 15 20  1  0
 16 21  2  0
 17 19  1  0
 18 19  2  0
 20 22  2  0
 21 22  1  0
M  END
>  <PUBCHEM_COMPOUND_CID>  (1) 
45460

>  <PUBCHEM_CONFORMER_RMSD>  (1) 
0.6

>  <PUBCHEM_CONFORMER_DIVERSEORDER>  (1) 
1
2
5
3
4

>  <PUBCHEM_MMFF94_PARTIAL_CHARGES>  (1) 
23
1 -0.18
10 -0.17
11 0.08
12 0.08
13 0.18
14 0.18
15 0.18
16 -0.15
17 0.18
18 0.18
19 0.18
2 -0.18
20 0.18
21 0.18
22 0.18
23 0.15
3 -0.18
4 -0.18
5 -0.18
6 -0.18
7 -0.18
8 -0.18
9 -0.18

>  <PUBCHEM_EFFECTIVE_ROTOR_COUNT>  (1) 
2

>  <PUBCHEM_PHARMACOPHORE_FEATURES>  (1) 
3
1 10 acceptor
6 11 13 14 17 18 19 rings
6 12 15 16 20 21 22 rings

>  <PUBCHEM_HEAVY_ATOM_COUNT>  (1) 
22

>  <PUBCHEM_ATOM_DEF_STEREO_COUNT>  (1) 
0

>  <PUBCHEM_ATOM_UDEF_STEREO_COUNT>  (1) 
0

>  <PUBCHEM_BOND_DEF_STEREO_COUNT>  (1) 
0

>  <PUBCHEM_BOND_UDEF_STEREO_COUNT>  (1) 
0

>  <PUBCHEM_ISOTOPIC_ATOM_COUNT>  (1) 
0

>  <PUBCHEM_COMPONENT_COUNT>  (1) 
1

>  <PUBCHEM_CACTVS_TAUTO_COUNT>  (1) 
1

>  <PUBCHEM_CONFORMER_ID>  (1) 
0000B19400000001

>  <PUBCHEM_MMFF94_ENERGY>  (1) 
71.6412

>  <PUBCHEM_FEATURE_SELFOVERLAP>  (1) 
15.223

>  <PUBCHEM_SHAPE_FINGERPRINT>  (1) 
10366900 7 17676211243039515906
11582403 64 16742210345896244189
12236239 1 17703794742516153489
12363563 72 16588887765981474891
12553582 1 18268435637842616790
12596599 1 17917996053126508974
12596602 18 17489308624430319843
13009979 54 17631455558154687114
13544653 18 18260839202068328129
13583140 156 18270977794825887089
13911987 19 18262243347543287476
14341114 328 17703523128947943699
14386348 63 17748830726057716603
14659021 117 16244319144020606626
14787075 74 16982356969788713577
14844126 61 16173686500352195338
15375462 189 17775279491254252123
16752209 62 16200142171776202605
17138139 8 17484209187952965191
17349148 13 18343579617049439970
1813 80 18058182643728523796
19377110 9 17489577975146773250
200 152 18343578538490032177
20511986 3 17917706869073534825
20600515 1 16226033531194635148
20645477 70 18334008406556691066
20871999 31 16008754589154456079
21033650 10 15647337355855871110
21065201 7 16370721534837247400
22112679 90 17203890777305029345
23557571 272 17167856482864946949
23559900 14 16733251375398481656
23598288 3 17631456661407420297
23598291 2 17845940619804932780
3286 77 18408045100060484836
474 4 17700398450473519768
7097593 13 17344359851605275614
77492 1 17704075122255195529
90316 7 17060064700900362649

>  <PUBCHEM_SHAPE_MULTIPOLES>  (1) 
463.71
9.7
2.4
2.3
1.83
0.93
-0.03
2.76
0.06
3.44
0.04
-3.93
-0.46
0.15

>  <PUBCHEM_SHAPE_SELFOVERLAP>  (1) 
922.665

>  <PUBCHEM_SHAPE_VOLUME>  (1) 
283.2

>  <PUBCHEM_COORDINATE_TYPE>  (1) 
2
5
10

$$$$
