45471
     RDKit          3D

 12 11  0  0  1  0  0  0  0  0999 V2000
   -3.5313   -1.8673   -0.5115 O   0  0  0  0  0  0  0  0  0  0  0  0
    5.1598   -0.8250    0.0205 O   0  0  0  0  0  0  0  0  0  0  0  0
   -1.4960    2.5220    0.5614 O   0  0  0  0  0  0  0  0  0  0  0  0
   -0.8293    0.6720   -0.2130 N   0  0  0  0  0  0  0  0  0  0  0  0
   -0.8685    1.9827   -0.3579 N   0  0  0  0  0  0  0  0  0  0  0  0
    0.3809    0.0886   -0.7800 C   0  0  0  0  0  0  0  0  0  0  0  0
    1.5457    0.2269    0.1987 C   0  0  0  0  0  0  0  0  0  0  0  0
   -2.0131   -0.0186   -0.7506 C   0  0  0  0  0  0  0  0  0  0  0  0
    2.8272   -0.3708   -0.3800 C   0  0  0  0  0  0  0  0  0  0  0  0
   -2.3960   -1.2418    0.0860 C   0  0  0  0  0  0  0  0  0  0  0  0
    3.9857   -0.2763    0.6042 C   0  0  0  0  0  0  0  0  0  0  0  0
   -2.7651   -0.8924    1.5221 C   0  0  0  0  0  0  0  0  0  0  0  0
  1 10  1  0
  2 11  1  0
  3  5  2  0
  4  5  1  0
  4  6  1  0
  4  8  1  0
  6  7  1  0
  7  9  1  0
  8 10  1  0
  9 11  1  0
 10 12  1  0
M  END
>  <PUBCHEM_COMPOUND_CID>  (1) 
45471

>  <PUBCHEM_CONFORMER_RMSD>  (1) 
0.8

>  <PUBCHEM_CONFORMER_DIVERSEORDER>  (1) 
1
173
44
130
219
207
177
47
135
129
134
7
45
26
171
23
91
145
52
140
192
254
34
226
82
24
118
63
21
142
15
149
119
184
41
139
166
108
235
182
103
4
213
38
158
110
29
170
27
132
211
252
37
168
258
55
85
128
206
11
3
162
227
89
2
153
115
249
50
54
75
68
79
204
215
242
146
6
224
117
35
57
172
12
208
113
69
39
72
180
20
51
61
154
42
247
95
105
136
48
188
58
185
231
186
244
230
187
221
32
122
141
248
31
46
190
125
53
191
87
195
14
71
151
59
106
157
199
222
229
28
201
22
228
220
98
8
5
78
49
43
104
116
76
65
183
10
251
77
137
200
161
56
167
148
198
81
97
73
232
86
178
197
18
13
19
67
66
9
246
223
94
216
123
255
107
111
179
165
160
181
93
239
150
159
96
225
30
127
102
64
74
155
133
112
257
70
250
120
212
99
124
126
243
114
152
88
16
144
209
217
83
202
233
196
138
203
193
163
236
90
241
62
253
92
60
36
17
174
210
189
100
143
218
147
237
25
214
205
121
40
156
176
33
245
175
256
234
238
84
164
109
101
169
80
131
194
240

>  <PUBCHEM_MMFF94_PARTIAL_CHARGES>  (1) 
11
1 -0.68
10 0.28
11 0.28
2 -0.68
27 0.4
28 0.4
3 -0.16
4 -0.36
5 -0.01
6 0.27
8 0.27

>  <PUBCHEM_EFFECTIVE_ROTOR_COUNT>  (1) 
7

>  <PUBCHEM_PHARMACOPHORE_FEATURES>  (1) 
4
1 1 acceptor
1 1 donor
1 2 acceptor
1 2 donor

>  <PUBCHEM_HEAVY_ATOM_COUNT>  (1) 
12

>  <PUBCHEM_ATOM_DEF_STEREO_COUNT>  (1) 
0

>  <PUBCHEM_ATOM_UDEF_STEREO_COUNT>  (1) 
1

>  <PUBCHEM_BOND_DEF_STEREO_COUNT>  (1) 
0

>  <PUBCHEM_BOND_UDEF_STEREO_COUNT>  (1) 
0

>  <PUBCHEM_ISOTOPIC_ATOM_COUNT>  (1) 
0

>  <PUBCHEM_COMPONENT_COUNT>  (1) 
1

>  <PUBCHEM_CACTVS_TAUTO_COUNT>  (1) 
1

>  <PUBCHEM_CONFORMER_ID>  (1) 
0000B19F00000001

>  <PUBCHEM_MMFF94_ENERGY>  (1) 
15.5831

>  <PUBCHEM_FEATURE_SELFOVERLAP>  (1) 
20.298

>  <PUBCHEM_SHAPE_FINGERPRINT>  (1) 
11357001 24 18336552611960111001
12932764 1 17346302788084331950
20211469 26 18114177553594624318
20281407 28 18342177777924822958
20671657 53 17240483653785001662
20711985 327 18200318852202082325
20711985 344 17968922129153769917
20871998 184 18201436956542816525
21061003 4 18339644541841750385
21119208 17 15357687613156370999
23380061 127 18409162178436635340
23402539 116 18409722967525959686
3086196 2 18411415103078227412

>  <PUBCHEM_SHAPE_MULTIPOLES>  (1) 
219.38
7.56
1.84
1
9.4
1.14
0.23
-4.38
0.94
-1.84
0.19
-0.61
-0.15
-0.08

>  <PUBCHEM_SHAPE_SELFOVERLAP>  (1) 
402.044

>  <PUBCHEM_SHAPE_VOLUME>  (1) 
140.8

>  <PUBCHEM_COORDINATE_TYPE>  (1) 
2
5
10

$$$$
