45470
     RDKit          3D

 12 11  0  0  1  0  0  0  0  0999 V2000
   -2.8630    1.6532   -0.4427 O   0  0  0  0  0  0  0  0  0  0  0  0
    3.2444    1.8989   -0.4161 O   0  0  0  0  0  0  0  0  0  0  0  0
    1.3683   -2.6161    0.3936 O   0  0  0  0  0  0  0  0  0  0  0  0
    0.6285   -0.7397   -0.2365 N   0  0  0  0  0  0  0  0  0  0  0  0
    0.7034   -2.0353   -0.4726 N   0  0  0  0  0  0  0  0  0  0  0  0
   -1.7373   -0.3509    0.2835 C   0  0  0  0  0  0  0  0  0  0  0  0
   -0.6119   -0.1571   -0.7360 C   0  0  0  0  0  0  0  0  0  0  0  0
    1.7778    0.0234   -0.7501 C   0  0  0  0  0  0  0  0  0  0  0  0
   -3.0568    0.2635   -0.1948 C   0  0  0  0  0  0  0  0  0  0  0  0
    2.1429    1.1980    0.1607 C   0  0  0  0  0  0  0  0  0  0  0  0
   -4.1524    0.0990    0.8499 C   0  0  0  0  0  0  0  0  0  0  0  0
    2.5560    0.7630    1.5610 C   0  0  0  0  0  0  0  0  0  0  0  0
  1  9  1  0
  2 10  1  0
  3  5  2  0
  4  5  1  0
  4  7  1  0
  4  8  1  0
  6  7  1  0
  6  9  1  0
  8 10  1  0
  9 11  1  0
 10 12  1  0
M  END
>  <PUBCHEM_COMPOUND_CID>  (1) 
45470

>  <PUBCHEM_CONFORMER_RMSD>  (1) 
0.8

>  <PUBCHEM_CONFORMER_DIVERSEORDER>  (1) 
1
34
518
1140
479
46
159
270
441
366
476
8
984
429
36
826
362
777
153
11
768
595
225
17
805
111
822
560
486
757
524
574
6
565
751
460
105
485
78
7
1042
235
522
295
447
545
928
827
334
56
198
162
859
847
1075
615
846
256
716
537
932
274
783
59
212
1165
1008
406
123
388
95
178
255
816
718
240
570
1110
970
33
333
68
189
110
293
53
9
807
837
5
1126
988
887
127
245
858
1131
489
380
221
242
122
285
451
1048
664
577
1047
439
15
73
573
448
551
263
578
22
21
680
326
544
694
581
346
74
239
150
237
1018
24
309
1014
830
351
975
142
32
542
321
1049
113
605
929
991
546
43
883
2
158
316
134
916
930
92
317
81
39
3
1148
620
115
851
30
271
252
231
604
200
796
1163
1166
151
283
103
61
332
85
341
477
284
354
58
136
430
1035
72
424
305
756
335
23
389
241
705
648
654
42
249
120
548
806
431
790
180
894
958
381
89
109
599
67
307
722
696
1030
665
606
10
934
250
104
741

>  <PUBCHEM_MMFF94_PARTIAL_CHARGES>  (1) 
11
1 -0.68
10 0.28
2 -0.68
27 0.4
28 0.4
3 -0.16
4 -0.36
5 -0.01
7 0.27
8 0.27
9 0.28

>  <PUBCHEM_EFFECTIVE_ROTOR_COUNT>  (1) 
6

>  <PUBCHEM_PHARMACOPHORE_FEATURES>  (1) 
4
1 1 acceptor
1 1 donor
1 2 acceptor
1 2 donor

>  <PUBCHEM_HEAVY_ATOM_COUNT>  (1) 
12

>  <PUBCHEM_ATOM_DEF_STEREO_COUNT>  (1) 
0

>  <PUBCHEM_ATOM_UDEF_STEREO_COUNT>  (1) 
2

>  <PUBCHEM_BOND_DEF_STEREO_COUNT>  (1) 
0

>  <PUBCHEM_BOND_UDEF_STEREO_COUNT>  (1) 
0

>  <PUBCHEM_ISOTOPIC_ATOM_COUNT>  (1) 
0

>  <PUBCHEM_COMPONENT_COUNT>  (1) 
1

>  <PUBCHEM_CACTVS_TAUTO_COUNT>  (1) 
1

>  <PUBCHEM_CONFORMER_ID>  (1) 
0000B19E00000001

>  <PUBCHEM_MMFF94_ENERGY>  (1) 
18.7264

>  <PUBCHEM_FEATURE_SELFOVERLAP>  (1) 
20.297

>  <PUBCHEM_SHAPE_FINGERPRINT>  (1) 
10980938 120 18272368655190473189
12932764 1 18343024342117823279
14390081 3 18344145891043557205
15775835 57 18131072674852250205
170605 34 18131074852411004599
18186145 218 17632579387312227872
19973954 147 18194685869607978981
20711985 344 17547566437191253662
21119208 17 14404917898218876185
21524375 3 18200307848432670454
230 275 18342732996789431328
276578 36 18341612646233419474
305870 269 18339912766849679506
3248919 1 17531254937448288487
449060 23 12035992556871426112
449060 62 18271814510136546353
6333272 397 18337956821552675413
7364860 26 18201158728577692854
81228 2 17477754049833580410

>  <PUBCHEM_SHAPE_MULTIPOLES>  (1) 
219.38
6.17
2
1.04
4.52
1.1
0.29
-3.17
1.28
-1.42
-0.03
-0.37
-0.16
0.16

>  <PUBCHEM_SHAPE_SELFOVERLAP>  (1) 
404.855

>  <PUBCHEM_SHAPE_VOLUME>  (1) 
140.3

>  <PUBCHEM_COORDINATE_TYPE>  (1) 
2
5
10

$$$$
