45472
     RDKit          3D

 22 23  0  0  0  0  0  0  0  0999 V2000
   -0.7944    0.9931    2.8311 Br  0  0  0  0  0  0  0  0  0  0  0  0
   -0.7976    1.0445   -2.8146 Br  0  0  0  0  0  0  0  0  0  0  0  0
    2.7326    3.0557    0.0250 Br  0  0  0  0  0  0  0  0  0  0  0  0
   -3.8324   -0.4133   -2.8871 Br  0  0  0  0  0  0  0  0  0  0  0  0
   -3.8308   -0.4623    2.8807 Br  0  0  0  0  0  0  0  0  0  0  0  0
   -5.3465   -1.1634   -0.0090 Br  0  0  0  0  0  0  0  0  0  0  0  0
    5.4023    0.9890    0.0070 Br  0  0  0  0  0  0  0  0  0  0  0  0
    1.6816   -3.4606   -0.0281 Br  0  0  0  0  0  0  0  0  0  0  0  0
    4.8814   -2.3238   -0.0192 Br  0  0  0  0  0  0  0  0  0  0  0  0
    0.1371    1.4661    0.0120 O   0  0  0  0  0  0  0  0  0  0  0  0
   -1.1102    0.8677    0.0071 C   0  0  0  0  0  0  0  0  0  0  0  0
    1.2297    0.6495    0.0053 C   0  0  0  0  0  0  0  0  0  0  0  0
   -1.7241    0.5630    1.2126 C   0  0  0  0  0  0  0  0  0  0  0  0
   -1.7245    0.5834   -1.2032 C   0  0  0  0  0  0  0  0  0  0  0  0
    2.5302    1.1538    0.0094 C   0  0  0  0  0  0  0  0  0  0  0  0
    1.0161   -0.7289   -0.0062 C   0  0  0  0  0  0  0  0  0  0  0  0
   -2.9822   -0.0199   -1.2081 C   0  0  0  0  0  0  0  0  0  0  0  0
   -2.9817   -0.0402    1.2078 C   0  0  0  0  0  0  0  0  0  0  0  0
   -3.6108   -0.3317   -0.0026 C   0  0  0  0  0  0  0  0  0  0  0  0
    3.6172    0.2798    0.0023 C   0  0  0  0  0  0  0  0  0  0  0  0
    2.1032   -1.6029   -0.0132 C   0  0  0  0  0  0  0  0  0  0  0  0
    3.4037   -1.0986   -0.0090 C   0  0  0  0  0  0  0  0  0  0  0  0
  1 13  1  0
  2 14  1  0
  3 15  1  0
  4 17  1  0
  5 18  1  0
  6 19  1  0
  7 20  1  0
  8 21  1  0
  9 22  1  0
 10 11  1  0
 10 12  1  0
 11 13  2  0
 11 14  1  0
 12 15  2  0
 12 16  1  0
 13 18  1  0
 14 17  2  0
 15 20  1  0
 16 21  2  0
 17 19  1  0
 18 19  2  0
 20 22  2  0
 21 22  1  0
M  END
>  <PUBCHEM_COMPOUND_CID>  (1) 
45472

>  <PUBCHEM_CONFORMER_RMSD>  (1) 
0.6

>  <PUBCHEM_CONFORMER_DIVERSEORDER>  (1) 
1
2
3

>  <PUBCHEM_MMFF94_PARTIAL_CHARGES>  (1) 
23
1 -0.11
10 -0.17
11 0.08
12 0.08
13 0.11
14 0.11
15 0.11
16 -0.15
17 0.11
18 0.11
19 0.11
2 -0.11
20 0.11
21 0.11
22 0.11
23 0.15
3 -0.11
4 -0.11
5 -0.11
6 -0.11
7 -0.11
8 -0.11
9 -0.11

>  <PUBCHEM_EFFECTIVE_ROTOR_COUNT>  (1) 
2

>  <PUBCHEM_PHARMACOPHORE_FEATURES>  (1) 
12
1 1 hydrophobe
1 10 acceptor
1 2 hydrophobe
1 3 hydrophobe
1 4 hydrophobe
1 5 hydrophobe
1 6 hydrophobe
1 7 hydrophobe
1 8 hydrophobe
1 9 hydrophobe
6 11 13 14 17 18 19 rings
6 12 15 16 20 21 22 rings

>  <PUBCHEM_HEAVY_ATOM_COUNT>  (1) 
22

>  <PUBCHEM_ATOM_DEF_STEREO_COUNT>  (1) 
0

>  <PUBCHEM_ATOM_UDEF_STEREO_COUNT>  (1) 
0

>  <PUBCHEM_BOND_DEF_STEREO_COUNT>  (1) 
0

>  <PUBCHEM_BOND_UDEF_STEREO_COUNT>  (1) 
0

>  <PUBCHEM_ISOTOPIC_ATOM_COUNT>  (1) 
0

>  <PUBCHEM_COMPONENT_COUNT>  (1) 
1

>  <PUBCHEM_CACTVS_TAUTO_COUNT>  (1) 
1

>  <PUBCHEM_CONFORMER_ID>  (1) 
0000B1A000000001

>  <PUBCHEM_MMFF94_ENERGY>  (1) 
82.1027

>  <PUBCHEM_FEATURE_SELFOVERLAP>  (1) 
60.908

>  <PUBCHEM_SHAPE_FINGERPRINT>  (1) 
10366900 7 17603590694758474122
11227688 84 17905331723985929878
11582403 64 16813990858714253949
12236239 1 17703795842022526025
12363563 72 16588888861155924401
12553582 1 18268155253798168290
12596602 18 17561085830149950587
13009979 54 17631174091751989330
13140716 1 18123750027071404856
13544653 18 18260839202078858169
13583140 156 18270415935783635481
13911987 19 18262241131429755580
14341114 328 17703523124626596195
14386348 63 17676491661343294099
14787075 74 17559945692568829728
14844126 61 16173967971065567730
15324884 4 17677045857937354861
15375462 189 17775279491275357635
17138139 8 17484491762478213847
17349148 13 18271803489408857122
1813 80 18129957663257001292
19377110 9 17489577970820215882
200 152 18343578538500581673
20028762 73 18202282485697411766
20511986 3 17917709063817621417
20600515 1 15051727625281654489
20645477 70 18333726927248109346
20871999 31 16008754589159743839
21033650 10 15647618835159249548
21065201 7 16370722634317239656
22112679 90 17203610406166588297
22182313 1 17676766560551137685
23557571 272 17095516314322856341
23559900 14 16370724868048561772
23598288 3 17631456657107165265
23598291 2 17845939516035241484
3286 77 18408045095786616580
392239 28 17201890748838557882
474 4 17843670313136165616
7097593 13 17487068755666517458
77492 1 17703793647283785609
90316 7 17131840815666593153

>  <PUBCHEM_SHAPE_MULTIPOLES>  (1) 
500.36
10.29
2.71
2.63
1.83
1.2
-0.03
3.06
0.05
4.08
0.04
-4.61
-0.63
0.14

>  <PUBCHEM_SHAPE_SELFOVERLAP>  (1) 
945.352

>  <PUBCHEM_SHAPE_VOLUME>  (1) 
327.2

>  <PUBCHEM_COORDINATE_TYPE>  (1) 
2
5
10

$$$$
