45483
     RDKit          3D

 25 27  0  0  1  0  0  0  0  0999 V2000
    1.5462   -2.1742    0.0116 Cl  0  0  0  0  0  0  0  0  0  0  0  0
    4.5122   -3.4080    0.0835 Cl  0  0  0  0  0  0  0  0  0  0  0  0
   -2.6886   -2.4716    1.2371 O   0  0  0  0  0  0  0  0  0  0  0  0
   -4.2101   -1.8734   -1.0084 O   0  0  0  0  0  0  0  0  0  0  0  0
   -0.3150    3.1569    0.2018 N   0  0  0  0  0  0  0  0  0  0  0  0
   -0.4229    1.9006    0.9917 C   0  0  0  0  0  0  0  0  0  0  0  0
   -1.4425    0.8942    0.4517 C   0  0  0  0  0  0  0  0  0  0  0  0
   -1.6092    3.5887   -0.3394 C   0  0  0  0  0  0  0  0  0  0  0  0
    0.9713    1.2463    1.0428 C   0  0  0  0  0  0  0  0  0  0  0  0
   -2.1309    2.5438   -1.3203 C   0  0  0  0  0  0  0  0  0  0  0  0
   -2.2542    1.2049   -0.6530 C   0  0  0  0  0  0  0  0  0  0  0  0
    1.4277    0.8437   -0.3519 C   0  0  0  0  0  0  0  0  0  0  0  0
   -1.6241   -0.3464    1.0875 C   0  0  0  0  0  0  0  0  0  0  0  0
    0.2625    4.2490    0.9950 C   0  0  0  0  0  0  0  0  0  0  0  0
   -3.1673    0.2613   -1.1459 C   0  0  0  0  0  0  0  0  0  0  0  0
   -2.5466   -1.2747    0.6021 C   0  0  0  0  0  0  0  0  0  0  0  0
   -3.3113   -0.9746   -0.5201 C   0  0  0  0  0  0  0  0  0  0  0  0
    2.7922    0.2045   -0.3098 C   0  0  0  0  0  0  0  0  0  0  0  0
    2.9487   -1.1657   -0.1476 C   0  0  0  0  0  0  0  0  0  0  0  0
    3.8963    1.0376   -0.4400 C   0  0  0  0  0  0  0  0  0  0  0  0
    4.2314   -1.7128   -0.1146 C   0  0  0  0  0  0  0  0  0  0  0  0
    5.1788    0.4904   -0.4070 C   0  0  0  0  0  0  0  0  0  0  0  0
    5.3464   -0.8848   -0.2443 C   0  0  0  0  0  0  0  0  0  0  0  0
   -3.6536   -2.5389    2.2851 C   0  0  0  0  0  0  0  0  0  0  0  0
   -3.7373   -2.7970   -1.9874 C   0  0  0  0  0  0  0  0  0  0  0  0
  1 19  1  0
  2 21  1  0
  3 16  1  0
  3 24  1  0
  4 17  1  0
  4 25  1  0
  5  6  1  0
  5  8  1  0
  5 14  1  0
  6  7  1  0
  6  9  1  0
  7 11  2  0
  7 13  1  0
  8 10  1  0
  9 12  1  0
 10 11  1  0
 11 15  1  0
 12 18  1  0
 13 16  2  0
 15 17  2  0
 16 17  1  0
 18 19  2  0
 18 20  1  0
 19 21  1  0
 20 22  2  0
 21 23  2  0
 22 23  1  0
M  END
>  <PUBCHEM_COMPOUND_CID>  (1) 
45483

>  <PUBCHEM_CONFORMER_RMSD>  (1) 
0.8

>  <PUBCHEM_CONFORMER_DIVERSEORDER>  (1) 
1
34
44
46
42
38
45
27
26
23
37
47
28
40
41
17
43
39
8
35
29
19
30
13
31
5
11
10
24
14
12
15
22
3
33
9
18
6
7
25
16
4
21
2
36
20
32

>  <PUBCHEM_MMFF94_PARTIAL_CHARGES>  (1) 
29
1 -0.18
10 0.14
11 -0.14
12 0.14
13 -0.15
14 0.27
15 -0.15
16 0.08
17 0.08
18 -0.14
19 0.18
2 -0.18
20 -0.15
21 0.18
22 -0.15
23 -0.15
24 0.28
25 0.28
3 -0.36
35 0.15
39 0.15
4 -0.36
40 0.15
41 0.15
42 0.15
5 -0.81
6 0.41
7 -0.14
8 0.27

>  <PUBCHEM_EFFECTIVE_ROTOR_COUNT>  (1) 
5.8

>  <PUBCHEM_PHARMACOPHORE_FEATURES>  (1) 
6
1 3 acceptor
1 4 acceptor
1 5 cation
6 18 19 20 21 22 23 rings
6 5 6 7 8 10 11 rings
6 7 11 13 15 16 17 rings

>  <PUBCHEM_HEAVY_ATOM_COUNT>  (1) 
25

>  <PUBCHEM_ATOM_DEF_STEREO_COUNT>  (1) 
0

>  <PUBCHEM_ATOM_UDEF_STEREO_COUNT>  (1) 
1

>  <PUBCHEM_BOND_DEF_STEREO_COUNT>  (1) 
0

>  <PUBCHEM_BOND_UDEF_STEREO_COUNT>  (1) 
0

>  <PUBCHEM_ISOTOPIC_ATOM_COUNT>  (1) 
0

>  <PUBCHEM_COMPONENT_COUNT>  (1) 
1

>  <PUBCHEM_CACTVS_TAUTO_COUNT>  (1) 
1

>  <PUBCHEM_CONFORMER_ID>  (1) 
0000B1AB00000001

>  <PUBCHEM_MMFF94_ENERGY>  (1) 
88.3312

>  <PUBCHEM_FEATURE_SELFOVERLAP>  (1) 
30.472

>  <PUBCHEM_SHAPE_FINGERPRINT>  (1) 
10616163 171 18268711619513646334
10764073 3 17546204846901293081
10928967 22 18272662272161790014
12553582 1 18339650065001121978
12596599 1 17417264263070722831
12788726 201 18265322911739295329
13224815 77 18060138692046713750
13544653 18 18410578430622002660
13631057 29 18342174471364325676
13690498 29 18197238970284002990
13911987 19 17757847988775156956
14251740 79 18189612731241140143
14363568 33 17904498633056831832
14790565 3 17908705021359646033
15064986 266 18261404307799985028
15463212 79 17752761334014192864
17357779 13 18263357143704249047
17492 89 18337956671577726714
1813 80 18127996271614489509
21133410 171 17471234748956247127
221490 88 18409456856417263418
22182313 1 17537710376457781185
22393880 68 18265056834710918742
23557571 272 18339931420014296868
23559900 14 18196643009354167512
46194498 28 17025721661307173767
463206 1 18339078314596894783
4921388 177 17748832916554419083
5309563 4 18266467679158199531
70251023 43 18197205070059597175
9709674 26 18337677386975645718

>  <PUBCHEM_SHAPE_MULTIPOLES>  (1) 
501.51
9.75
4.75
1.45
10.52
2.11
0.21
-7.97
-2.07
-2.39
0.59
-2.06
-0.75
0.35

>  <PUBCHEM_SHAPE_SELFOVERLAP>  (1) 
1049.128

>  <PUBCHEM_SHAPE_VOLUME>  (1) 
287.3

>  <PUBCHEM_COORDINATE_TYPE>  (1) 
2
5
10

$$$$
