45480
     RDKit          3D

 25 28  0  0  1  0  0  0  0  0999 V2000
    3.2269   -2.9693   -1.1022 O   0  0  0  0  0  0  0  0  0  0  0  0
    4.5765   -2.6223    0.8627 O   0  0  0  0  0  0  0  0  0  0  0  0
   -6.9426   -0.1211    0.1961 O   0  0  0  0  0  0  0  0  0  0  0  0
   -6.2507   -2.1862   -0.0787 O   0  0  0  0  0  0  0  0  0  0  0  0
    1.4022    2.9119   -0.1956 N   0  0  0  0  0  0  0  0  0  0  0  0
   -6.0196   -0.9637    0.0844 N   0  0  0  0  0  0  0  0  0  0  0  0
    1.3686    1.6580   -0.9954 C   0  0  0  0  0  0  0  0  0  0  0  0
    2.2548    0.5303   -0.4557 C   0  0  0  0  0  0  0  0  0  0  0  0
   -0.0933    1.1757   -1.0663 C   0  0  0  0  0  0  0  0  0  0  0  0
    2.7312    3.1818    0.3648 C   0  0  0  0  0  0  0  0  0  0  0  0
    3.0874    0.7362    0.6728 C   0  0  0  0  0  0  0  0  0  0  0  0
    3.1079    2.0783    1.3471 C   0  0  0  0  0  0  0  0  0  0  0  0
   -0.6092    0.8179    0.3199 C   0  0  0  0  0  0  0  0  0  0  0  0
    2.2884   -0.7156   -1.1111 C   0  0  0  0  0  0  0  0  0  0  0  0
    0.9695    4.0712   -0.9854 C   0  0  0  0  0  0  0  0  0  0  0  0
    3.8830   -0.3045    1.1794 C   0  0  0  0  0  0  0  0  0  0  0  0
    3.0924   -1.7128   -0.5965 C   0  0  0  0  0  0  0  0  0  0  0  0
    3.8630   -1.5150    0.5219 C   0  0  0  0  0  0  0  0  0  0  0  0
   -2.0397    0.3470    0.2585 C   0  0  0  0  0  0  0  0  0  0  0  0
    4.1679   -3.5412   -0.1709 C   0  0  0  0  0  0  0  0  0  0  0  0
   -3.0671    1.2702    0.3817 C   0  0  0  0  0  0  0  0  0  0  0  0
   -2.3055   -1.0024    0.0790 C   0  0  0  0  0  0  0  0  0  0  0  0
   -4.3909    0.8343    0.3242 C   0  0  0  0  0  0  0  0  0  0  0  0
   -3.6293   -1.4385    0.0215 C   0  0  0  0  0  0  0  0  0  0  0  0
   -4.6720   -0.5201    0.1440 C   0  0  0  0  0  0  0  0  0  0  0  0
  1 17  1  0
  1 20  1  0
  2 18  1  0
  2 20  1  0
  3  6  1  0
  4  6  2  0
  5  7  1  0
  5 10  1  0
  5 15  1  0
  6 25  1  0
  7  8  1  0
  7  9  1  0
  8 11  2  0
  8 14  1  0
  9 13  1  0
 10 12  1  0
 11 12  1  0
 11 16  1  0
 13 19  1  0
 14 17  2  0
 16 18  2  0
 17 18  1  0
 19 21  2  0
 19 22  1  0
 21 23  1  0
 22 24  2  0
 23 25  2  0
 24 25  1  0
M  CHG  2   3  -1   6   1
M  END
>  <PUBCHEM_COMPOUND_CID>  (1) 
45480

>  <PUBCHEM_CONFORMER_RMSD>  (1) 
0.8

>  <PUBCHEM_CONFORMER_DIVERSEORDER>  (1) 
1
7
12
4
10
13
8
11
14
2
5
6
9
3

>  <PUBCHEM_MMFF94_PARTIAL_CHARGES>  (1) 
30
1 -0.36
10 0.27
11 -0.14
12 0.14
13 0.14
14 -0.15
15 0.27
16 -0.15
17 0.08
18 0.08
19 -0.14
2 -0.36
20 0.56
21 -0.15
22 -0.15
23 -0.15
24 -0.15
25 0.13
3 -0.52
35 0.15
39 0.15
4 -0.52
42 0.15
43 0.15
44 0.15
45 0.15
5 -0.81
6 0.91
7 0.41
8 -0.14

>  <PUBCHEM_EFFECTIVE_ROTOR_COUNT>  (1) 
5.4

>  <PUBCHEM_PHARMACOPHORE_FEATURES>  (1) 
10
1 1 acceptor
1 2 acceptor
1 3 acceptor
1 3 anion
1 4 acceptor
1 5 cation
5 1 2 17 18 20 rings
6 19 21 22 23 24 25 rings
6 5 7 8 10 11 12 rings
6 8 11 14 16 17 18 rings

>  <PUBCHEM_HEAVY_ATOM_COUNT>  (1) 
25

>  <PUBCHEM_ATOM_DEF_STEREO_COUNT>  (1) 
0

>  <PUBCHEM_ATOM_UDEF_STEREO_COUNT>  (1) 
1

>  <PUBCHEM_BOND_DEF_STEREO_COUNT>  (1) 
0

>  <PUBCHEM_BOND_UDEF_STEREO_COUNT>  (1) 
0

>  <PUBCHEM_ISOTOPIC_ATOM_COUNT>  (1) 
0

>  <PUBCHEM_COMPONENT_COUNT>  (1) 
1

>  <PUBCHEM_CACTVS_TAUTO_COUNT>  (1) 
1

>  <PUBCHEM_CONFORMER_ID>  (1) 
0000B1A800000001

>  <PUBCHEM_MMFF94_ENERGY>  (1) 
70.536

>  <PUBCHEM_FEATURE_SELFOVERLAP>  (1) 
51.004

>  <PUBCHEM_SHAPE_FINGERPRINT>  (1) 
11405975 8 18343027653643460905
114674 6 18261108578122770594
11756154 67 18340493244602514422
12107183 9 18125731093315664433
12293681 25 18046878547203186108
12403259 226 18408601431701872989
12892183 10 17917422091114375888
13073987 5 18270686476131864561
13533116 47 18411983585371421835
13631057 29 18046069251496772362
13782708 43 17749957777997548451
13785724 45 18270128889701273223
13911852 28 18265331703205345770
13955234 65 18268434709765736441
14211702 104 18115875273259284931
14251740 57 18273218581715761950
14400156 350 17970619916609635612
14863182 85 18263645224915998764
14866123 147 17618785756322978617
15250474 111 18056189413815798071
15420108 30 17983560082547726706
16992610 120 17977388562922295604
17349148 13 18060142033510197117
17492 89 18411702097494127835
17818456 19 18059306344517776049
1813 80 17676490518824244228
1979834 28 18341321301606752232
20645477 70 18334293214375379817
20739085 24 18264199370186774980
21197605 99 18049442835821063971
21344244 78 17988915665440737880
21859007 373 17896017890183633805
22224240 67 18127965511533950000
23559900 14 18339081609084275817
3421961 26 18411417306618002864
404807 14 17694795025606762323
46194498 28 17385729126881674580
50009960 94 17897423181248926187
5104073 3 18272381879996074115
5207 123 18335983073784969703
5309563 4 18266740177769455446
6443956 14 18335702715304791412
7097593 13 18342453780976029196
7970288 3 18264488377803153146
8988823 20 18130783495052285641
960060 61 17458356233646608455
9709674 26 18335425720216373491
9981440 41 17615689973929502033

>  <PUBCHEM_SHAPE_MULTIPOLES>  (1) 
481.05
12.73
4.12
1.06
22.92
1.04
0.03
-9.68
-2.29
-5.62
0.73
-1.02
0.23
0.32

>  <PUBCHEM_SHAPE_SELFOVERLAP>  (1) 
1053.278

>  <PUBCHEM_SHAPE_VOLUME>  (1) 
261.2

>  <PUBCHEM_COORDINATE_TYPE>  (1) 
2
5
10

$$$$
