45484
     RDKit          3D

 25 27  0  0  1  0  0  0  0  0999 V2000
    1.0495   -2.6726    0.0335 Cl  0  0  0  0  0  0  0  0  0  0  0  0
    4.2741    1.6871   -0.5388 Cl  0  0  0  0  0  0  0  0  0  0  0  0
   -3.1460   -2.1519    1.1998 O   0  0  0  0  0  0  0  0  0  0  0  0
   -4.4915   -1.2491   -1.0562 O   0  0  0  0  0  0  0  0  0  0  0  0
    0.2852    2.9207    0.2614 N   0  0  0  0  0  0  0  0  0  0  0  0
   -0.0746    1.7014    1.0346 C   0  0  0  0  0  0  0  0  0  0  0  0
   -1.2618    0.9166    0.4702 C   0  0  0  0  0  0  0  0  0  0  0  0
   -0.8933    3.5999   -0.2899 C   0  0  0  0  0  0  0  0  0  0  0  0
    1.1659    0.7893    1.0944 C   0  0  0  0  0  0  0  0  0  0  0  0
   -1.5934    2.6851   -1.2897 C   0  0  0  0  0  0  0  0  0  0  0  0
   -1.9826    1.3890   -0.6402 C   0  0  0  0  0  0  0  0  0  0  0  0
    1.5554    0.3195   -0.2996 C   0  0  0  0  0  0  0  0  0  0  0  0
   -1.6888   -0.2715    1.0888 C   0  0  0  0  0  0  0  0  0  0  0  0
    1.0517    3.8727    1.0746 C   0  0  0  0  0  0  0  0  0  0  0  0
   -3.0539    0.6447   -1.1553 C   0  0  0  0  0  0  0  0  0  0  0  0
   -2.7665   -0.9991    0.5812 C   0  0  0  0  0  0  0  0  0  0  0  0
   -3.4429   -0.5459   -0.5464 C   0  0  0  0  0  0  0  0  0  0  0  0
    2.7699   -0.5720   -0.2490 C   0  0  0  0  0  0  0  0  0  0  0  0
    2.6103   -1.9453   -0.0999 C   0  0  0  0  0  0  0  0  0  0  0  0
    4.0392   -0.0135   -0.3523 C   0  0  0  0  0  0  0  0  0  0  0  0
    3.7340   -2.7705   -0.0535 C   0  0  0  0  0  0  0  0  0  0  0  0
    5.1628   -0.8389   -0.3058 C   0  0  0  0  0  0  0  0  0  0  0  0
    5.0102   -2.2173   -0.1566 C   0  0  0  0  0  0  0  0  0  0  0  0
   -4.1205   -2.0413    2.2353 C   0  0  0  0  0  0  0  0  0  0  0  0
   -4.1925   -2.2373   -2.0407 C   0  0  0  0  0  0  0  0  0  0  0  0
  1 19  1  0
  2 20  1  0
  3 16  1  0
  3 24  1  0
  4 17  1  0
  4 25  1  0
  5  6  1  0
  5  8  1  0
  5 14  1  0
  6  7  1  0
  6  9  1  0
  7 11  2  0
  7 13  1  0
  8 10  1  0
  9 12  1  0
 10 11  1  0
 11 15  1  0
 12 18  1  0
 13 16  2  0
 15 17  2  0
 16 17  1  0
 18 19  2  0
 18 20  1  0
 19 21  1  0
 20 22  2  0
 21 23  2  0
 22 23  1  0
M  END
>  <PUBCHEM_COMPOUND_CID>  (1) 
45484

>  <PUBCHEM_CONFORMER_RMSD>  (1) 
0.8

>  <PUBCHEM_CONFORMER_DIVERSEORDER>  (1) 
1
4
2
8
11
5
6
3
7
9
10

>  <PUBCHEM_MMFF94_PARTIAL_CHARGES>  (1) 
29
1 -0.18
10 0.14
11 -0.14
12 0.14
13 -0.15
14 0.27
15 -0.15
16 0.08
17 0.08
18 -0.14
19 0.18
2 -0.18
20 0.18
21 -0.15
22 -0.15
23 -0.15
24 0.28
25 0.28
3 -0.36
35 0.15
39 0.15
4 -0.36
40 0.15
41 0.15
42 0.15
5 -0.81
6 0.41
7 -0.14
8 0.27

>  <PUBCHEM_EFFECTIVE_ROTOR_COUNT>  (1) 
5.8

>  <PUBCHEM_PHARMACOPHORE_FEATURES>  (1) 
6
1 3 acceptor
1 4 acceptor
1 5 cation
6 18 19 20 21 22 23 rings
6 5 6 7 8 10 11 rings
6 7 11 13 15 16 17 rings

>  <PUBCHEM_HEAVY_ATOM_COUNT>  (1) 
25

>  <PUBCHEM_ATOM_DEF_STEREO_COUNT>  (1) 
0

>  <PUBCHEM_ATOM_UDEF_STEREO_COUNT>  (1) 
1

>  <PUBCHEM_BOND_DEF_STEREO_COUNT>  (1) 
0

>  <PUBCHEM_BOND_UDEF_STEREO_COUNT>  (1) 
0

>  <PUBCHEM_ISOTOPIC_ATOM_COUNT>  (1) 
0

>  <PUBCHEM_COMPONENT_COUNT>  (1) 
1

>  <PUBCHEM_CACTVS_TAUTO_COUNT>  (1) 
1

>  <PUBCHEM_CONFORMER_ID>  (1) 
0000B1AC00000001

>  <PUBCHEM_MMFF94_ENERGY>  (1) 
88.9089

>  <PUBCHEM_FEATURE_SELFOVERLAP>  (1) 
30.472

>  <PUBCHEM_SHAPE_FINGERPRINT>  (1) 
10616163 171 18196651792013707126
12403260 363 18335699391706667626
12553582 1 18340212976278816562
12596599 1 17417540201850419703
12788726 201 18049150082354432553
13140716 1 18267597827109094272
13224815 77 17988923315278313246
13544653 18 18411141350426276356
13690498 29 18053686697780841518
13911987 19 17974584790363058796
14363568 33 18120670276946168976
14790565 3 17763462820990934753
15064986 266 18189628154373670158
17357779 13 18335133224179345431
17492 89 18268147548737914662
1813 80 18128838454529481933
20645477 70 18049144864269659523
221490 88 18337116674942759150
22182313 1 17826223284095527809
22393880 68 18120093884462815214
23557571 272 18268434529719708788
23559900 14 18336820893377530408
314194 84 18341615983185728950
329604 57 18334581248062661078
46194498 28 17170120493434178399
463206 1 18411416241276813735
5309563 4 18410300249917330811
6669772 16 17765998681551966756
6913067 236 18266161993962355952
70251023 43 18270105942260761591
9709674 26 18122630457445157430

>  <PUBCHEM_SHAPE_MULTIPOLES>  (1) 
501.51
9.6
4.37
1.46
4.98
2.69
0.15
-8.02
-1.98
-0.01
0.31
-2.16
-0.44
0.65

>  <PUBCHEM_SHAPE_SELFOVERLAP>  (1) 
1049.751

>  <PUBCHEM_SHAPE_VOLUME>  (1) 
287

>  <PUBCHEM_COORDINATE_TYPE>  (1) 
2
5
10

$$$$
