45491
     RDKit          3D

 26 28  0  0  1  0  0  0  0  0999 V2000
   -3.6058   -2.1900    1.1120 O   0  0  0  0  0  0  0  0  0  0  0  0
   -4.8606   -1.0998   -1.1133 O   0  0  0  0  0  0  0  0  0  0  0  0
    5.2485    1.2077   -0.4420 O   0  0  0  0  0  0  0  0  0  0  0  0
    3.1075    1.6910   -0.4017 O   0  0  0  0  0  0  0  0  0  0  0  0
    0.1811    2.6646    0.4201 N   0  0  0  0  0  0  0  0  0  0  0  0
    4.0457    0.8595   -0.3819 N   0  0  0  0  0  0  0  0  0  0  0  0
   -0.2713    1.4418    1.1371 C   0  0  0  0  0  0  0  0  0  0  0  0
   -1.5042    0.7669    0.5302 C   0  0  0  0  0  0  0  0  0  0  0  0
    0.9018    0.4432    1.1671 C   0  0  0  0  0  0  0  0  0  0  0  0
   -0.9411    3.4476   -0.1106 C   0  0  0  0  0  0  0  0  0  0  0  0
   -1.6925    2.6276   -1.1543 C   0  0  0  0  0  0  0  0  0  0  0  0
   -2.1783    1.3356   -0.5644 C   0  0  0  0  0  0  0  0  0  0  0  0
    1.2726    0.0068   -0.2427 C   0  0  0  0  0  0  0  0  0  0  0  0
   -2.0197   -0.4134    1.0936 C   0  0  0  0  0  0  0  0  0  0  0  0
    1.0034    3.5250    1.2795 C   0  0  0  0  0  0  0  0  0  0  0  0
   -3.2933    0.6909   -1.1195 C   0  0  0  0  0  0  0  0  0  0  0  0
   -3.1401   -1.0413    0.5467 C   0  0  0  0  0  0  0  0  0  0  0  0
    2.4212   -0.9691   -0.2212 C   0  0  0  0  0  0  0  0  0  0  0  0
   -3.7710   -0.4943   -0.5655 C   0  0  0  0  0  0  0  0  0  0  0  0
    3.7350   -0.5252   -0.2887 C   0  0  0  0  0  0  0  0  0  0  0  0
    2.1300   -2.3243   -0.1321 C   0  0  0  0  0  0  0  0  0  0  0  0
    4.7766   -1.4527   -0.2669 C   0  0  0  0  0  0  0  0  0  0  0  0
    3.1717   -3.2517   -0.1105 C   0  0  0  0  0  0  0  0  0  0  0  0
    4.4950   -2.8160   -0.1779 C   0  0  0  0  0  0  0  0  0  0  0  0
   -3.0734   -3.4174    0.6182 C   0  0  0  0  0  0  0  0  0  0  0  0
   -6.1387   -0.7130   -0.6115 C   0  0  0  0  0  0  0  0  0  0  0  0
  1 17  1  0
  1 25  1  0
  2 19  1  0
  2 26  1  0
  3  6  1  0
  4  6  2  0
  5  7  1  0
  5 10  1  0
  5 15  1  0
  6 20  1  0
  7  8  1  0
  7  9  1  0
  8 12  2  0
  8 14  1  0
  9 13  1  0
 10 11  1  0
 11 12  1  0
 12 16  1  0
 13 18  1  0
 14 17  2  0
 16 19  2  0
 17 19  1  0
 18 20  2  0
 18 21  1  0
 20 22  1  0
 21 23  2  0
 22 24  2  0
 23 24  1  0
M  CHG  2   3  -1   6   1
M  END
>  <PUBCHEM_COMPOUND_CID>  (1) 
45491

>  <PUBCHEM_CONFORMER_RMSD>  (1) 
0.8

>  <PUBCHEM_CONFORMER_DIVERSEORDER>  (1) 
3
31
25
42
41
39
32
14
38
2
7
30
6
13
34
33
23
20
12
36
22
21
16
37
35
28
1
26
29
8
40
24
19
15
43
5
18
10
9
17
11
27
4

>  <PUBCHEM_MMFF94_PARTIAL_CHARGES>  (1) 
31
1 -0.36
10 0.27
11 0.14
12 -0.14
13 0.14
14 -0.15
15 0.27
16 -0.15
17 0.08
18 -0.14
19 0.08
2 -0.36
20 0.13
21 -0.15
22 -0.15
23 -0.15
24 -0.15
25 0.28
26 0.28
3 -0.52
36 0.15
4 -0.52
40 0.15
41 0.15
42 0.15
43 0.15
44 0.15
5 -0.81
6 0.91
7 0.41
8 -0.14

>  <PUBCHEM_EFFECTIVE_ROTOR_COUNT>  (1) 
6.8

>  <PUBCHEM_PHARMACOPHORE_FEATURES>  (1) 
9
1 1 acceptor
1 2 acceptor
1 3 acceptor
1 3 anion
1 4 acceptor
1 5 cation
6 18 20 21 22 23 24 rings
6 5 7 8 10 11 12 rings
6 8 12 14 16 17 19 rings

>  <PUBCHEM_HEAVY_ATOM_COUNT>  (1) 
26

>  <PUBCHEM_ATOM_DEF_STEREO_COUNT>  (1) 
0

>  <PUBCHEM_ATOM_UDEF_STEREO_COUNT>  (1) 
1

>  <PUBCHEM_BOND_DEF_STEREO_COUNT>  (1) 
0

>  <PUBCHEM_BOND_UDEF_STEREO_COUNT>  (1) 
0

>  <PUBCHEM_ISOTOPIC_ATOM_COUNT>  (1) 
0

>  <PUBCHEM_COMPONENT_COUNT>  (1) 
1

>  <PUBCHEM_CACTVS_TAUTO_COUNT>  (1) 
1

>  <PUBCHEM_CONFORMER_ID>  (1) 
0000B1B300000003

>  <PUBCHEM_MMFF94_ENERGY>  (1) 
107.4951

>  <PUBCHEM_FEATURE_SELFOVERLAP>  (1) 
45.779

>  <PUBCHEM_SHAPE_FINGERPRINT>  (1) 
12553582 1 18340499897274058699
12788726 201 18121772829769350291
12892183 10 11887664091719505132
13224815 77 17703506585029084230
13402501 40 18408604799003731499
13544653 18 18411985762455714613
13631057 29 18341049593591445870
13911987 19 18120109518022778324
14790565 3 17834678193480250681
14866123 147 18196374715621681753
15064986 266 18190194411610314191
15475509 8 18336822010417096285
17492 89 18197496212791751374
19591789 44 17907301309849957178
21033650 10 16878221948686385365
221490 88 18337961082635220574
22393880 68 18266469698578377342
23559900 14 18262233429724925837
2871803 45 18408323276486604746
3004659 81 18260544481312672030
329604 57 18410012122194241846
3380486 145 18190480405087884131
46194498 28 17822289145375793565
463206 1 18411979195593787071
5283173 99 18115580440269229565
5309563 4 18268434714118329269
6669772 16 17840022176621019144
9709674 26 18194970643082864094

>  <PUBCHEM_SHAPE_MULTIPOLES>  (1) 
501.63
10.58
4.29
1.11
0.78
0.7
0.13
-7.52
-3.09
0.61
0.67
-0.73
0.29
0.8

>  <PUBCHEM_SHAPE_SELFOVERLAP>  (1) 
1072.844

>  <PUBCHEM_SHAPE_VOLUME>  (1) 
278.9

>  <PUBCHEM_COORDINATE_TYPE>  (1) 
2
5
10

$$$$
