45498
     RDKit          3D

 24 26  0  0  1  0  0  0  0  0999 V2000
    3.1878    2.1012    1.5372 O   0  0  0  0  0  0  0  0  0  0  0  0
    3.7809    2.1751   -1.1752 O   0  0  0  0  0  0  0  0  0  0  0  0
    0.1807   -3.0845   -0.0285 N   0  0  0  0  0  0  0  0  0  0  0  0
    0.6525   -2.0895    0.9722 C   0  0  0  0  0  0  0  0  0  0  0  0
    1.4934   -0.9503    0.3901 C   0  0  0  0  0  0  0  0  0  0  0  0
   -0.5823   -1.5071    1.6867 C   0  0  0  0  0  0  0  0  0  0  0  0
    1.1681   -3.3215   -1.0882 C   0  0  0  0  0  0  0  0  0  0  0  0
    1.3932   -2.0364   -1.8782 C   0  0  0  0  0  0  0  0  0  0  0  0
    1.8430   -0.9282   -0.9712 C   0  0  0  0  0  0  0  0  0  0  0  0
   -1.4620   -0.7436    0.7085 C   0  0  0  0  0  0  0  0  0  0  0  0
   -0.1656   -4.3649    0.6006 C   0  0  0  0  0  0  0  0  0  0  0  0
    1.9793    0.0733    1.2224 C   0  0  0  0  0  0  0  0  0  0  0  0
    2.5962    0.1353   -1.4896 C   0  0  0  0  0  0  0  0  0  0  0  0
   -2.7040   -0.1983    1.4168 C   0  0  0  0  0  0  0  0  0  0  0  0
    2.7427    1.1203    0.7032 C   0  0  0  0  0  0  0  0  0  0  0  0
    3.0430    1.1562   -0.6543 C   0  0  0  0  0  0  0  0  0  0  0  0
   -3.6133    0.5336    0.4632 C   0  0  0  0  0  0  0  0  0  0  0  0
   -3.4395    1.8954    0.2652 C   0  0  0  0  0  0  0  0  0  0  0  0
   -4.6099   -0.1660   -0.2010 C   0  0  0  0  0  0  0  0  0  0  0  0
   -4.2812    2.5730   -0.6170 C   0  0  0  0  0  0  0  0  0  0  0  0
   -5.4515    0.5114   -1.0833 C   0  0  0  0  0  0  0  0  0  0  0  0
    2.3393    3.2333    1.7170 C   0  0  0  0  0  0  0  0  0  0  0  0
    5.1965    2.0014   -1.2055 C   0  0  0  0  0  0  0  0  0  0  0  0
   -5.2872    1.8809   -1.2912 C   0  0  0  0  0  0  0  0  0  0  0  0
  1 15  1  0
  1 22  1  0
  2 16  1  0
  2 23  1  0
  3  4  1  0
  3  7  1  0
  3 11  1  0
  4  5  1  0
  4  6  1  0
  5  9  2  0
  5 12  1  0
  6 10  1  0
  7  8  1  0
  8  9  1  0
  9 13  1  0
 10 14  1  0
 12 15  2  0
 13 16  2  0
 14 17  1  0
 15 16  1  0
 17 18  2  0
 17 19  1  0
 18 20  1  0
 19 21  2  0
 20 24  2  0
 21 24  1  0
M  END
>  <PUBCHEM_COMPOUND_CID>  (1) 
45498

>  <PUBCHEM_CONFORMER_RMSD>  (1) 
0.8

>  <PUBCHEM_CONFORMER_DIVERSEORDER>  (1) 
1
35
43
22
17
52
13
42
25
49
28
32
8
14
45
39
2
11
18
27
3
4
53
37
47
23
50
19
16
34
33
24
44
46
31
20
10
15
51
5
41
7
48
9
40
26
6
12
38
29
36
21
30

>  <PUBCHEM_MMFF94_PARTIAL_CHARGES>  (1) 
29
1 -0.36
11 0.27
12 -0.15
13 -0.15
14 0.14
15 0.08
16 0.08
17 -0.14
18 -0.15
19 -0.15
2 -0.36
20 -0.15
21 -0.15
22 0.28
23 0.28
24 -0.15
3 -0.81
37 0.15
38 0.15
4 0.41
41 0.15
42 0.15
43 0.15
44 0.15
5 -0.14
51 0.15
7 0.27
8 0.14
9 -0.14

>  <PUBCHEM_EFFECTIVE_ROTOR_COUNT>  (1) 
6.8

>  <PUBCHEM_PHARMACOPHORE_FEATURES>  (1) 
6
1 1 acceptor
1 2 acceptor
1 3 cation
6 17 18 19 20 21 24 rings
6 3 4 5 7 8 9 rings
6 5 9 12 13 15 16 rings

>  <PUBCHEM_HEAVY_ATOM_COUNT>  (1) 
24

>  <PUBCHEM_ATOM_DEF_STEREO_COUNT>  (1) 
0

>  <PUBCHEM_ATOM_UDEF_STEREO_COUNT>  (1) 
1

>  <PUBCHEM_BOND_DEF_STEREO_COUNT>  (1) 
0

>  <PUBCHEM_BOND_UDEF_STEREO_COUNT>  (1) 
0

>  <PUBCHEM_ISOTOPIC_ATOM_COUNT>  (1) 
0

>  <PUBCHEM_COMPONENT_COUNT>  (1) 
1

>  <PUBCHEM_CACTVS_TAUTO_COUNT>  (1) 
1

>  <PUBCHEM_CONFORMER_ID>  (1) 
0000B1BA00000001

>  <PUBCHEM_MMFF94_ENERGY>  (1) 
82.9725

>  <PUBCHEM_FEATURE_SELFOVERLAP>  (1) 
30.472

>  <PUBCHEM_SHAPE_FINGERPRINT>  (1) 
10498660 4 18187654587290483373
10764073 3 17103929571366872290
10871710 139 16608574813508525889
10928967 22 13542455458996801821
11763715 3 16817729353368674606
12769317 202 18412829053440783252
12788726 201 17609775657886620723
13134695 92 17684087985343412211
14468879 13 18187652409968476427
14848178 96 18188210901524824109
14957384 54 17823702060656583108
15163728 17 18334584546344187495
21304303 282 17554003965849635274
21860390 5 18194955241108243855
22393880 68 18341895165098309871
23559900 14 18044655292000651347
238 59 18131074826604400915
24941158 1 17903046990193480599
26353 1 17193499052361185991
2838139 119 18261956357464357268
341906 21 17313109657175642773
44317340 157 18044654201648599301
474 4 18040995112191030873
4938544 92 17981871254284061152
495365 180 18336259042618933411
7471813 234 17769093449568101698
7808743 9 18044385048025887596
9981440 41 18187367653309886131

>  <PUBCHEM_SHAPE_MULTIPOLES>  (1) 
477.19
10.04
4.41
1.8
11.31
2.84
0.02
-10.55
-4.31
-2.54
0.33
-0.85
-0.21
1.29

>  <PUBCHEM_SHAPE_SELFOVERLAP>  (1) 
1007.439

>  <PUBCHEM_SHAPE_VOLUME>  (1) 
269.1

>  <PUBCHEM_COORDINATE_TYPE>  (1) 
2
5
10

$$$$
