45496
     RDKit          3D

 27 29  0  0  1  0  0  0  0  0999 V2000
    3.6767    2.3611    1.6078 O   0  0  0  0  0  0  0  0  0  0  0  0
    3.8441    2.9079   -1.1103 O   0  0  0  0  0  0  0  0  0  0  0  0
   -6.1077    2.4896   -0.9083 O   0  0  0  0  0  0  0  0  0  0  0  0
   -6.8238    0.4986   -1.4932 O   0  0  0  0  0  0  0  0  0  0  0  0
    1.5796   -3.1164   -0.3886 N   0  0  0  0  0  0  0  0  0  0  0  0
   -5.9954    1.2398   -0.9106 N   0  0  0  0  0  0  0  0  0  0  0  0
    1.9814   -2.1776    0.6937 C   0  0  0  0  0  0  0  0  0  0  0  0
    2.4828   -0.8168    0.2029 C   0  0  0  0  0  0  0  0  0  0  0  0
    0.7714   -1.9764    1.6262 C   0  0  0  0  0  0  0  0  0  0  0  0
    2.4306   -2.9938   -1.5781 C   0  0  0  0  0  0  0  0  0  0  0  0
    2.2760   -1.6009   -2.1798 C   0  0  0  0  0  0  0  0  0  0  0  0
    2.6202   -0.5455   -1.1694 C   0  0  0  0  0  0  0  0  0  0  0  0
   -0.3760   -1.3068    0.8852 C   0  0  0  0  0  0  0  0  0  0  0  0
    1.5926   -4.5109    0.0699 C   0  0  0  0  0  0  0  0  0  0  0  0
    2.8681    0.1741    1.1227 C   0  0  0  0  0  0  0  0  0  0  0  0
    3.0610    0.7146   -1.5995 C   0  0  0  0  0  0  0  0  0  0  0  0
   -1.5864   -1.1425    1.8068 C   0  0  0  0  0  0  0  0  0  0  0  0
    3.3220    1.4206    0.6882 C   0  0  0  0  0  0  0  0  0  0  0  0
    3.4094    1.6940   -0.6726 C   0  0  0  0  0  0  0  0  0  0  0  0
   -2.7525   -0.5131    1.0885 C   0  0  0  0  0  0  0  0  0  0  0  0
   -2.8856    0.8674    1.0851 C   0  0  0  0  0  0  0  0  0  0  0  0
   -3.6735   -1.3240    0.4421 C   0  0  0  0  0  0  0  0  0  0  0  0
   -3.9643    1.4504    0.4202 C   0  0  0  0  0  0  0  0  0  0  0  0
   -4.7522   -0.7411   -0.2230 C   0  0  0  0  0  0  0  0  0  0  0  0
    2.6530    3.2468    2.0567 C   0  0  0  0  0  0  0  0  0  0  0  0
   -4.8977    0.6461   -0.2339 C   0  0  0  0  0  0  0  0  0  0  0  0
    5.2461    3.0549   -1.3287 C   0  0  0  0  0  0  0  0  0  0  0  0
  1 18  1  0
  1 25  1  0
  2 19  1  0
  2 27  1  0
  3  6  1  0
  4  6  2  0
  5  7  1  0
  5 10  1  0
  5 14  1  0
  6 26  1  0
  7  8  1  0
  7  9  1  0
  8 12  2  0
  8 15  1  0
  9 13  1  0
 10 11  1  0
 11 12  1  0
 12 16  1  0
 13 17  1  0
 15 18  2  0
 16 19  2  0
 17 20  1  0
 18 19  1  0
 20 21  2  0
 20 22  1  0
 21 23  1  0
 22 24  2  0
 23 26  2  0
 24 26  1  0
M  CHG  2   3  -1   6   1
M  END
>  <PUBCHEM_COMPOUND_CID>  (1) 
45496

>  <PUBCHEM_CONFORMER_RMSD>  (1) 
0.8

>  <PUBCHEM_CONFORMER_DIVERSEORDER>  (1) 
1
8
43
16
54
27
52
19
10
3
51
34
45
24
53
6
9
39
15
28
5
40
31
13
35
55
30
20
7
36
21
2
44
17
11
37
4
48
12
14
33
22
50
18
26
49
42
46
47
41
25
23
29
38
32

>  <PUBCHEM_MMFF94_PARTIAL_CHARGES>  (1) 
31
1 -0.36
10 0.27
11 0.14
12 -0.14
14 0.27
15 -0.15
16 -0.15
17 0.14
18 0.08
19 0.08
2 -0.36
20 -0.14
21 -0.15
22 -0.15
23 -0.15
24 -0.15
25 0.28
26 0.13
27 0.28
3 -0.52
4 -0.52
40 0.15
41 0.15
44 0.15
45 0.15
46 0.15
47 0.15
5 -0.81
6 0.91
7 0.41
8 -0.14

>  <PUBCHEM_EFFECTIVE_ROTOR_COUNT>  (1) 
7.8

>  <PUBCHEM_PHARMACOPHORE_FEATURES>  (1) 
9
1 1 acceptor
1 2 acceptor
1 3 acceptor
1 3 anion
1 4 acceptor
1 5 cation
6 20 21 22 23 24 26 rings
6 5 7 8 10 11 12 rings
6 8 12 15 16 18 19 rings

>  <PUBCHEM_HEAVY_ATOM_COUNT>  (1) 
27

>  <PUBCHEM_ATOM_DEF_STEREO_COUNT>  (1) 
0

>  <PUBCHEM_ATOM_UDEF_STEREO_COUNT>  (1) 
1

>  <PUBCHEM_BOND_DEF_STEREO_COUNT>  (1) 
0

>  <PUBCHEM_BOND_UDEF_STEREO_COUNT>  (1) 
0

>  <PUBCHEM_ISOTOPIC_ATOM_COUNT>  (1) 
0

>  <PUBCHEM_COMPONENT_COUNT>  (1) 
1

>  <PUBCHEM_CACTVS_TAUTO_COUNT>  (1) 
1

>  <PUBCHEM_CONFORMER_ID>  (1) 
0000B1B800000001

>  <PUBCHEM_MMFF94_ENERGY>  (1) 
95.1652

>  <PUBCHEM_FEATURE_SELFOVERLAP>  (1) 
45.779

>  <PUBCHEM_SHAPE_FINGERPRINT>  (1) 
10498660 4 18261122888853183977
10928967 22 13182744719389458517
10930396 42 18341320095771280250
11720765 8 18046628897997773022
12633257 1 12973885978316637592
12769317 202 18342183284225844888
13965767 371 16443339922929184530
14251740 57 11455877067025518829
14347424 109 9223228564390618783
14420673 8 10447113622852866253
14468879 13 18260839249387205387
14848178 96 18261398844839208265
14950920 106 10737290130533263941
16114785 44 12096729644206099958
21304303 282 17340937334555310570
21860390 5 18341050705629195054
21968339 14 18343298141713695092
22393880 68 18342747337796334119
23559900 14 18261959527102956619
238 59 17916883412105377690
24941158 1 18193536905347131478
2838139 119 18118971527713990236
341906 21 17386013913584261243
34797466 226 18411140208893468535
376196 1 18260830457393828610
44317340 157 18335989645723144897
495365 180 18410009927102073643
508180 173 17538569811939974905
7808743 9 17902243539467590256
960060 61 17203324477783278899

>  <PUBCHEM_SHAPE_MULTIPOLES>  (1) 
522.21
12.8
4.48
1.97
22.4
1.67
-0.03
-11.55
-5.9
-5.64
-0.11
-1.07
-0.35
1.46

>  <PUBCHEM_SHAPE_SELFOVERLAP>  (1) 
1106.827

>  <PUBCHEM_SHAPE_VOLUME>  (1) 
293.7

>  <PUBCHEM_COORDINATE_TYPE>  (1) 
2
5
10

$$$$
