4549
     RDKit          3D

 22 23  0  0  0  0  0  0  0  0999 V2000
    2.9533    3.1672    0.5629 O   0  0  0  0  0  0  0  0  0  0  0  0
    1.0227    2.7562   -0.5642 O   0  0  0  0  0  0  0  0  0  0  0  0
    6.0693   -2.1328    0.0189 O   0  0  0  0  0  0  0  0  0  0  0  0
    6.5083    0.0222   -0.0158 O   0  0  0  0  0  0  0  0  0  0  0  0
    0.1841    0.1639   -0.0192 N   0  0  0  0  0  0  0  0  0  0  0  0
    5.6980   -0.9350   -0.0002 N   0  0  0  0  0  0  0  0  0  0  0  0
   -2.2230   -0.2570   -0.0068 C   0  0  0  0  0  0  0  0  0  0  0  0
   -0.8243   -0.8682   -0.0030 C   0  0  0  0  0  0  0  0  0  0  0  0
   -3.3287   -1.3181    0.0049 C   0  0  0  0  0  0  0  0  0  0  0  0
   -4.7000   -0.6911    0.0143 C   0  0  0  0  0  0  0  0  0  0  0  0
    1.5466   -0.0910   -0.0150 C   0  0  0  0  0  0  0  0  0  0  0  0
    2.4970    0.9489   -0.0311 C   0  0  0  0  0  0  0  0  0  0  0  0
    2.0155   -1.4184    0.0059 C   0  0  0  0  0  0  0  0  0  0  0  0
   -5.3099   -0.4050    1.2265 C   0  0  0  0  0  0  0  0  0  0  0  0
   -5.3292   -0.4110   -1.1894 C   0  0  0  0  0  0  0  0  0  0  0  0
    3.8639    0.6709   -0.0264 C   0  0  0  0  0  0  0  0  0  0  0  0
    4.3067   -0.6516   -0.0053 C   0  0  0  0  0  0  0  0  0  0  0  0
    3.3825   -1.6962    0.0108 C   0  0  0  0  0  0  0  0  0  0  0  0
   -6.5788    0.1746    1.2352 C   0  0  0  0  0  0  0  0  0  0  0  0
   -6.5978    0.1687   -1.1808 C   0  0  0  0  0  0  0  0  0  0  0  0
   -7.2226    0.4615    0.0316 C   0  0  0  0  0  0  0  0  0  0  0  0
    2.0662    2.3412   -0.0539 C   0  0  0  0  0  0  0  0  0  0  0  0
  1 22  1  0
  2 22  2  0
  3  6  1  0
  4  6  2  0
  5  8  1  0
  5 11  1  0
  6 17  1  0
  7  8  1  0
  7  9  1  0
  9 10  1  0
 10 14  2  0
 10 15  1  0
 11 12  2  0
 11 13  1  0
 12 16  1  0
 12 22  1  0
 13 18  2  0
 14 19  1  0
 15 20  2  0
 16 17  2  0
 17 18  1  0
 19 21  2  0
 20 21  1  0
M  CHG  2   3  -1   6   1
M  END
>  <PUBCHEM_COMPOUND_CID>  (1) 
4549

>  <PUBCHEM_CONFORMER_RMSD>  (1) 
0.8

>  <PUBCHEM_CONFORMER_DIVERSEORDER>  (1) 
1
19
30
26
38
31
23
3
17
8
35
7
25
36
5
21
39
12
27
24
6
28
14
34
16
37
22
11
20
4
32
29
33
10
2
15
18
9
13

>  <PUBCHEM_MMFF94_PARTIAL_CHARGES>  (1) 
31
1 -0.65
10 -0.14
11 0.1
12 0.09
13 -0.15
14 -0.15
15 -0.15
16 -0.15
17 0.13
18 -0.15
19 -0.15
2 -0.57
20 -0.15
21 -0.15
22 0.63
29 0.4
3 -0.52
30 0.15
31 0.15
32 0.15
33 0.15
34 0.15
35 0.15
36 0.15
37 0.15
38 0.5
4 -0.52
5 -0.87
6 0.91
8 0.37
9 0.14

>  <PUBCHEM_EFFECTIVE_ROTOR_COUNT>  (1) 
7

>  <PUBCHEM_PHARMACOPHORE_FEATURES>  (1) 
10
1 1 acceptor
1 2 acceptor
1 3 acceptor
1 3 anion
1 4 acceptor
1 5 cation
1 5 donor
3 1 2 22 anion
6 10 14 15 19 20 21 rings
6 11 12 13 16 17 18 rings

>  <PUBCHEM_HEAVY_ATOM_COUNT>  (1) 
22

>  <PUBCHEM_ATOM_DEF_STEREO_COUNT>  (1) 
0

>  <PUBCHEM_ATOM_UDEF_STEREO_COUNT>  (1) 
0

>  <PUBCHEM_BOND_DEF_STEREO_COUNT>  (1) 
0

>  <PUBCHEM_BOND_UDEF_STEREO_COUNT>  (1) 
0

>  <PUBCHEM_ISOTOPIC_ATOM_COUNT>  (1) 
0

>  <PUBCHEM_COMPONENT_COUNT>  (1) 
1

>  <PUBCHEM_CACTVS_TAUTO_COUNT>  (1) 
2

>  <PUBCHEM_CONFORMER_ID>  (1) 
000011C500000001

>  <PUBCHEM_MMFF94_ENERGY>  (1) 
71.9349

>  <PUBCHEM_FEATURE_SELFOVERLAP>  (1) 
50.884

>  <PUBCHEM_SHAPE_FINGERPRINT>  (1) 
10411042 1 18267022744685710894
10688039 33 18040998410441519852
11089746 13 17632857542627183691
11315181 36 15267340735119553851
11405975 8 18337674225864086691
11545043 162 17386013905379351435
12166972 35 18131912658754751689
12236239 1 17775282785346708999
12616971 3 18059864986866262745
13167372 99 18201443558525151073
13590594 115 18410296878315593905
14170010 4 18411697708053434152
14341114 176 18334297586852625277
14933364 13 18040437694271492455
15183329 4 18410006620573166227
15348495 7 18041566952911384739
15419008 47 17748823004166026749
15537594 2 11530482255353786041
17844677 252 18408891750458772837
19489759 90 15841552968890375043
20612939 158 18411981399069765081
21033648 29 17676474074096009925
21033650 10 15840178596118514075
21267235 1 18410299069296917158
21792934 111 18339348709586058504
21792961 116 18042116579966281694
221357 26 18334852796942644037
22224240 67 17275096229042565542
23559900 14 18337668715209724611
29717793 49 17775290460505852294
3178227 256 18259992569314386722
335352 9 18410856577184006838
350125 39 18410013238532583756
4073 2 18041564770424959371
5104073 3 18264486359463241755
59755656 215 18041276578198466523
67856867 119 18059291075623734065

>  <PUBCHEM_SHAPE_MULTIPOLES>  (1) 
419.31
19.37
2.18
0.9
16.36
1.74
-0.02
-3.19
-0.32
-3.78
-0.04
1.67
0.04
0.1

>  <PUBCHEM_SHAPE_SELFOVERLAP>  (1) 
889.591

>  <PUBCHEM_SHAPE_VOLUME>  (1) 
233.6

>  <PUBCHEM_COORDINATE_TYPE>  (1) 
2
5
10

$$$$
