45509
     RDKit          3D

 26 28  0  0  1  0  0  0  0  0999 V2000
    6.6033   -2.7680   -0.4609 Cl  0  0  0  0  0  0  0  0  0  0  0  0
   -2.8161   -1.7485    1.5508 O   0  0  0  0  0  0  0  0  0  0  0  0
   -4.3422   -0.9163   -0.6156 O   0  0  0  0  0  0  0  0  0  0  0  0
    0.4730    3.3319    0.2253 N   0  0  0  0  0  0  0  0  0  0  0  0
    0.1882    2.1291    1.0537 C   0  0  0  0  0  0  0  0  0  0  0  0
   -1.0298    1.3187    0.6024 C   0  0  0  0  0  0  0  0  0  0  0  0
   -0.7524    3.9853   -0.2496 C   0  0  0  0  0  0  0  0  0  0  0  0
    1.4402    1.2310    1.0395 C   0  0  0  0  0  0  0  0  0  0  0  0
   -1.5168    3.0388   -1.1693 C   0  0  0  0  0  0  0  0  0  0  0  0
   -1.8396    1.7558   -0.4601 C   0  0  0  0  0  0  0  0  0  0  0  0
    1.7264    0.7298   -0.3685 C   0  0  0  0  0  0  0  0  0  0  0  0
   -1.3938    0.1426    1.2811 C   0  0  0  0  0  0  0  0  0  0  0  0
    1.2889    4.3116    0.9530 C   0  0  0  0  0  0  0  0  0  0  0  0
   -2.9387    0.9883   -0.8723 C   0  0  0  0  0  0  0  0  0  0  0  0
   -2.4989   -0.6081    0.8765 C   0  0  0  0  0  0  0  0  0  0  0  0
   -3.2656   -0.1902   -0.2060 C   0  0  0  0  0  0  0  0  0  0  0  0
    2.9515   -0.1483   -0.3903 C   0  0  0  0  0  0  0  0  0  0  0  0
    2.8139   -1.5147   -0.1955 C   0  0  0  0  0  0  0  0  0  0  0  0
    4.1964    0.4236   -0.6061 C   0  0  0  0  0  0  0  0  0  0  0  0
   -1.8304   -2.7789    1.5811 C   0  0  0  0  0  0  0  0  0  0  0  0
   -4.3236   -1.4040   -1.9561 C   0  0  0  0  0  0  0  0  0  0  0  0
    3.9473   -2.3276   -0.2169 C   0  0  0  0  0  0  0  0  0  0  0  0
    5.3298   -0.3894   -0.6276 C   0  0  0  0  0  0  0  0  0  0  0  0
    5.2051   -1.7650   -0.4330 C   0  0  0  0  0  0  0  0  0  0  0  0
   -2.5231   -4.1211    1.6820 C   0  0  0  0  0  0  0  0  0  0  0  0
   -5.0932   -2.7063   -2.0177 C   0  0  0  0  0  0  0  0  0  0  0  0
  1 24  1  0
  2 15  1  0
  2 20  1  0
  3 16  1  0
  3 21  1  0
  4  5  1  0
  4  7  1  0
  4 13  1  0
  5  6  1  0
  5  8  1  0
  6 10  2  0
  6 12  1  0
  7  9  1  0
  8 11  1  0
  9 10  1  0
 10 14  1  0
 11 17  1  0
 12 15  2  0
 14 16  2  0
 15 16  1  0
 17 18  2  0
 17 19  1  0
 18 22  1  0
 19 23  2  0
 20 25  1  0
 21 26  1  0
 22 24  2  0
 23 24  1  0
M  END
>  <PUBCHEM_COMPOUND_CID>  (1) 
45509

>  <PUBCHEM_CONFORMER_RMSD>  (1) 
0.8

>  <PUBCHEM_CONFORMER_DIVERSEORDER>  (1) 
1
72
61
42
77
38
48
41
73
78
16
11
29
79
12
45
65
50
47
58
84
62
64
5
80
3
69
68
83
26
66
34
27
20
18
37
19
59
23
36
63
53
28
24
33
8
82
81
15
46
2
74
43
7
22
35
39
70
13
60
14
9
40
6
32
56
52
75
10
67
71
31
30
4
21
25
17
57
51
54
55
49
44
76

>  <PUBCHEM_MMFF94_PARTIAL_CHARGES>  (1) 
29
1 -0.18
10 -0.14
11 0.14
12 -0.15
13 0.27
14 -0.15
15 0.08
16 0.08
17 -0.14
18 -0.15
19 -0.15
2 -0.36
20 0.28
21 0.28
22 -0.15
23 -0.15
24 0.18
3 -0.36
36 0.15
4 -0.81
40 0.15
41 0.15
42 0.15
47 0.15
48 0.15
5 0.41
6 -0.14
7 0.27
9 0.14

>  <PUBCHEM_EFFECTIVE_ROTOR_COUNT>  (1) 
7.8

>  <PUBCHEM_PHARMACOPHORE_FEATURES>  (1) 
6
1 2 acceptor
1 3 acceptor
1 4 cation
6 17 18 19 22 23 24 rings
6 4 5 6 7 9 10 rings
6 6 10 12 14 15 16 rings

>  <PUBCHEM_HEAVY_ATOM_COUNT>  (1) 
26

>  <PUBCHEM_ATOM_DEF_STEREO_COUNT>  (1) 
0

>  <PUBCHEM_ATOM_UDEF_STEREO_COUNT>  (1) 
1

>  <PUBCHEM_BOND_DEF_STEREO_COUNT>  (1) 
0

>  <PUBCHEM_BOND_UDEF_STEREO_COUNT>  (1) 
0

>  <PUBCHEM_ISOTOPIC_ATOM_COUNT>  (1) 
0

>  <PUBCHEM_COMPONENT_COUNT>  (1) 
1

>  <PUBCHEM_CACTVS_TAUTO_COUNT>  (1) 
1

>  <PUBCHEM_CONFORMER_ID>  (1) 
0000B1C500000001

>  <PUBCHEM_MMFF94_ENERGY>  (1) 
77.0696

>  <PUBCHEM_FEATURE_SELFOVERLAP>  (1) 
30.472

>  <PUBCHEM_SHAPE_FINGERPRINT>  (1) 
12107183 9 18131079221353139441
12293681 25 17974279130314097459
12553582 1 18335422369693210762
12788726 201 18120931702947113144
13631057 29 18341611452738965326
14251740 79 18189618233173335008
14251757 5 18261117318365010250
14659021 117 18337942407711086402
14863182 85 16894289464300735969
14866123 147 18266468620362569257
15064986 266 18189070723696096540
15163728 17 14925051662612300711
15219462 58 17483122935769660761
15463212 79 17682963193759229912
20775438 99 17691657384377395607
21344244 181 18048863381084069807
22182313 1 17682675474121214419
23559900 14 18116713108765013868
3027735 51 18192431857675178795
4280585 95 18262226828813794840
46194498 28 17097785830834380855
463206 1 18410577300887926367
469060 322 17989204845557362798
58260988 647 18267582589109154831
613672 6 18336822091383158642
70251023 43 18269827769902658093
9709674 26 18193549202402611673

>  <PUBCHEM_SHAPE_MULTIPOLES>  (1) 
520.22
11.21
5.4
1.6
14.04
2.28
-0.01
-13.4
-5.61
-2
1.21
-2.18
-1.1
0.73

>  <PUBCHEM_SHAPE_SELFOVERLAP>  (1) 
1084.583

>  <PUBCHEM_SHAPE_VOLUME>  (1) 
297.6

>  <PUBCHEM_COORDINATE_TYPE>  (1) 
2
5
10

$$$$
