45503
     RDKit          3D

 22 24  0  0  1  0  0  0  0  0999 V2000
   -0.1365   -0.5123   -1.7651 N   0  0  0  0  0  0  0  0  0  0  0  0
    4.4677   -0.9927    0.3312 N   0  0  0  0  0  0  0  0  0  0  0  0
   -0.4376   -0.3854   -0.3156 C   0  0  0  0  0  0  0  0  0  0  0  0
    0.6819   -1.2381    0.3471 C   0  0  0  0  0  0  0  0  0  0  0  0
   -0.2529    1.0574    0.2021 C   0  0  0  0  0  0  0  0  0  0  0  0
   -0.6687    0.5695   -2.5804 C   0  0  0  0  0  0  0  0  0  0  0  0
   -0.0752    2.1281   -0.6971 C   0  0  0  0  0  0  0  0  0  0  0  0
   -1.8507   -0.9418   -0.0159 C   0  0  0  0  0  0  0  0  0  0  0  0
   -0.0137    1.8859   -2.1813 C   0  0  0  0  0  0  0  0  0  0  0  0
    2.0581   -0.6871    0.0018 C   0  0  0  0  0  0  0  0  0  0  0  0
   -0.2947    1.3379    1.5817 C   0  0  0  0  0  0  0  0  0  0  0  0
    3.1506   -1.5112    0.6810 C   0  0  0  0  0  0  0  0  0  0  0  0
    0.0942    3.4326   -0.2089 C   0  0  0  0  0  0  0  0  0  0  0  0
   -2.9279   -0.0696    0.0496 C   0  0  0  0  0  0  0  0  0  0  0  0
   -2.0200   -2.3046    0.1823 C   0  0  0  0  0  0  0  0  0  0  0  0
   -0.1382    2.6411    2.0550 C   0  0  0  0  0  0  0  0  0  0  0  0
    0.0603    3.6871    1.1604 C   0  0  0  0  0  0  0  0  0  0  0  0
   -4.2013   -0.5708    0.3195 C   0  0  0  0  0  0  0  0  0  0  0  0
   -3.2935   -2.8058    0.4520 C   0  0  0  0  0  0  0  0  0  0  0  0
   -4.3841   -1.9388    0.5205 C   0  0  0  0  0  0  0  0  0  0  0  0
    4.6635   -1.0194   -1.1194 C   0  0  0  0  0  0  0  0  0  0  0  0
    5.5188   -1.7618    0.9995 C   0  0  0  0  0  0  0  0  0  0  0  0
  1  3  1  0
  1  6  1  0
  2 12  1  0
  2 21  1  0
  2 22  1  0
  3  4  1  0
  3  5  1  0
  3  8  1  0
  4 10  1  0
  5  7  2  0
  5 11  1  0
  6  9  1  0
  7  9  1  0
  7 13  1  0
  8 14  2  0
  8 15  1  0
 10 12  1  0
 11 16  2  0
 13 17  2  0
 14 18  1  0
 15 19  2  0
 16 17  1  0
 18 20  2  0
 19 20  1  0
M  END
>  <PUBCHEM_COMPOUND_CID>  (1) 
45503

>  <PUBCHEM_CONFORMER_RMSD>  (1) 
0.8

>  <PUBCHEM_CONFORMER_DIVERSEORDER>  (1) 
1
13
7
11
2
5
3
6
9
8
12
4
10

>  <PUBCHEM_MMFF94_PARTIAL_CHARGES>  (1) 
30
1 -0.9
11 -0.15
12 0.27
13 -0.15
14 -0.15
15 -0.15
16 -0.15
17 -0.15
18 -0.15
19 -0.15
2 -0.81
20 -0.15
21 0.27
22 0.27
25 0.36
3 0.56
32 0.15
35 0.15
36 0.15
37 0.15
38 0.15
39 0.15
40 0.15
41 0.15
42 0.15
5 -0.14
6 0.27
7 -0.14
8 -0.14
9 0.14

>  <PUBCHEM_EFFECTIVE_ROTOR_COUNT>  (1) 
5.8

>  <PUBCHEM_PHARMACOPHORE_FEATURES>  (1) 
6
1 1 cation
1 1 donor
1 2 cation
6 1 3 5 6 7 9 rings
6 5 7 11 13 16 17 rings
6 8 14 15 18 19 20 rings

>  <PUBCHEM_HEAVY_ATOM_COUNT>  (1) 
22

>  <PUBCHEM_ATOM_DEF_STEREO_COUNT>  (1) 
0

>  <PUBCHEM_ATOM_UDEF_STEREO_COUNT>  (1) 
1

>  <PUBCHEM_BOND_DEF_STEREO_COUNT>  (1) 
0

>  <PUBCHEM_BOND_UDEF_STEREO_COUNT>  (1) 
0

>  <PUBCHEM_ISOTOPIC_ATOM_COUNT>  (1) 
0

>  <PUBCHEM_COMPONENT_COUNT>  (1) 
1

>  <PUBCHEM_CACTVS_TAUTO_COUNT>  (1) 
1

>  <PUBCHEM_CONFORMER_ID>  (1) 
0000B1BF00000001

>  <PUBCHEM_MMFF94_ENERGY>  (1) 
66.3142

>  <PUBCHEM_FEATURE_SELFOVERLAP>  (1) 
30.467

>  <PUBCHEM_SHAPE_FINGERPRINT>  (1) 
10764073 3 16699233485708338331
11045515 52 17748826302410259228
11578080 2 18042389378655530181
11582403 64 15906858727360771473
12082328 90 18129108828234830742
12173636 292 17907574723331425756
12714826 92 18041542672781031242
12788726 201 18337121068414903794
12969540 37 17975687612977959914
13004483 165 18335979779286941698
13027679 85 18410568483667701069
13132413 78 18412550903206492657
13134695 92 18201152273658376765
13257819 101 13829580765584863875
13294875 104 17767978892828097861
133893 2 17696439130080284292
13533116 47 17978229688784190179
14142880 1 17972598780083485364
14251757 17 14418424329092536006
14817 1 14208475590188034404
14863182 85 16604912331686599162
14955137 171 18267327441749121483
15131766 46 15983383444781247450
15163728 17 9655028830141750610
15238133 3 18127157254670617145
16945 1 18335420192545717829
17980427 23 17489875938392157105
17980427 26 17552632969228498181
1813 80 18342747342106943782
20510252 161 18267016146571322730
20600515 1 18337684039579352735
21330990 113 18339922602124444451
21452121 71 18262813959068894069
21521721 280 11530777993864379527
21524375 3 16906639728886810416
2297311 6 18342468006562224454
2306618 200 18043241350022002886
23175994 123 18342457054057678039
23352939 185 18040724679427571628
23419403 2 18265873904240228317
23557571 272 18270128902997787838
23558518 356 17333637285515140215
23559900 14 17897723404459080675
4409770 3 18116983387215261941
469060 322 18114185186184045840
497634 4 18262524672406807870
5104073 3 17981628249493263019
5895379 119 16842239391865332625
7364860 26 18124036994709562347
7399639 24 18060133224891560182
81228 2 18124056549442622339

>  <PUBCHEM_SHAPE_MULTIPOLES>  (1) 
442.79
7.42
3.92
1.82
7.18
3.28
-0.85
-9.53
1.68
-0.57
1.32
0.3
1.25
0

>  <PUBCHEM_SHAPE_SELFOVERLAP>  (1) 
939.887

>  <PUBCHEM_SHAPE_VOLUME>  (1) 
245.4

>  <PUBCHEM_COORDINATE_TYPE>  (1) 
2
5
10

$$$$
