45513
     RDKit          3D

 25 27  0  0  1  0  0  0  0  0999 V2000
   -7.0802    2.0767   -1.1859 Cl  0  0  0  0  0  0  0  0  0  0  0  0
    3.5004    2.7759    0.7952 O   0  0  0  0  0  0  0  0  0  0  0  0
    5.0152    1.4090   -1.0898 O   0  0  0  0  0  0  0  0  0  0  0  0
    0.1176   -2.3646    0.7831 N   0  0  0  0  0  0  0  0  0  0  0  0
    0.2539   -0.9025    0.9953 C   0  0  0  0  0  0  0  0  0  0  0  0
    0.4671   -2.7422   -0.6023 C   0  0  0  0  0  0  0  0  0  0  0  0
    1.9153   -2.3739   -0.9692 C   0  0  0  0  0  0  0  0  0  0  0  0
    1.5351   -0.3020    0.4403 C   0  0  0  0  0  0  0  0  0  0  0  0
    2.3005   -0.9878   -0.5195 C   0  0  0  0  0  0  0  0  0  0  0  0
   -0.9757   -0.1785    0.4228 C   0  0  0  0  0  0  0  0  0  0  0  0
    0.1910   -4.2187   -0.9077 C   0  0  0  0  0  0  0  0  0  0  0  0
    0.8417   -3.1180    1.8105 C   0  0  0  0  0  0  0  0  0  0  0  0
   -2.2605   -0.7467    1.0109 C   0  0  0  0  0  0  0  0  0  0  0  0
    1.9549    0.9666    0.8713 C   0  0  0  0  0  0  0  0  0  0  0  0
    3.4723   -0.4024   -1.0206 C   0  0  0  0  0  0  0  0  0  0  0  0
    3.1174    1.5433    0.3601 C   0  0  0  0  0  0  0  0  0  0  0  0
    3.8755    0.8592   -0.5857 C   0  0  0  0  0  0  0  0  0  0  0  0
   -3.4702   -0.0371    0.4588 C   0  0  0  0  0  0  0  0  0  0  0  0
   -3.9596    1.0845    1.1116 C   0  0  0  0  0  0  0  0  0  0  0  0
   -4.0758   -0.5176   -0.6931 C   0  0  0  0  0  0  0  0  0  0  0  0
   -5.0798    1.7405    0.6012 C   0  0  0  0  0  0  0  0  0  0  0  0
   -5.1959    0.1384   -1.2035 C   0  0  0  0  0  0  0  0  0  0  0  0
    3.0069    3.9012    0.0710 C   0  0  0  0  0  0  0  0  0  0  0  0
    6.2309    1.1290   -0.3983 C   0  0  0  0  0  0  0  0  0  0  0  0
   -5.6979    1.2676   -0.5564 C   0  0  0  0  0  0  0  0  0  0  0  0
  1 25  1  0
  2 16  1  0
  2 23  1  0
  3 17  1  0
  3 24  1  0
  4  5  1  0
  4  6  1  0
  4 12  1  0
  5  8  1  0
  5 10  1  0
  6  7  1  0
  6 11  1  0
  7  9  1  0
  8  9  2  0
  8 14  1  0
  9 15  1  0
 10 13  1  0
 13 18  1  0
 14 16  2  0
 15 17  2  0
 16 17  1  0
 18 19  2  0
 18 20  1  0
 19 21  1  0
 20 22  2  0
 21 25  2  0
 22 25  1  0
M  END
>  <PUBCHEM_COMPOUND_CID>  (1) 
45513

>  <PUBCHEM_CONFORMER_RMSD>  (1) 
0.8

>  <PUBCHEM_CONFORMER_DIVERSEORDER>  (1) 
3
35
27
44
21
5
30
33
40
19
23
15
34
9
43
41
37
12
36
26
4
8
22
29
24
31
11
6
20
13
25
42
14
17
1
39
18
10
7
32
38
28
2
16

>  <PUBCHEM_MMFF94_PARTIAL_CHARGES>  (1) 
29
1 -0.18
12 0.27
13 0.14
14 -0.15
15 -0.15
16 0.08
17 0.08
18 -0.14
19 -0.15
2 -0.36
20 -0.15
21 -0.15
22 -0.15
23 0.28
24 0.28
25 0.18
3 -0.36
4 -0.81
40 0.15
41 0.15
42 0.15
43 0.15
44 0.15
45 0.15
5 0.41
6 0.27
7 0.14
8 -0.14
9 -0.14

>  <PUBCHEM_EFFECTIVE_ROTOR_COUNT>  (1) 
5.8

>  <PUBCHEM_PHARMACOPHORE_FEATURES>  (1) 
6
1 2 acceptor
1 3 acceptor
1 4 cation
6 18 19 20 21 22 25 rings
6 4 5 6 7 8 9 rings
6 8 9 14 15 16 17 rings

>  <PUBCHEM_HEAVY_ATOM_COUNT>  (1) 
25

>  <PUBCHEM_ATOM_DEF_STEREO_COUNT>  (1) 
0

>  <PUBCHEM_ATOM_UDEF_STEREO_COUNT>  (1) 
2

>  <PUBCHEM_BOND_DEF_STEREO_COUNT>  (1) 
0

>  <PUBCHEM_BOND_UDEF_STEREO_COUNT>  (1) 
0

>  <PUBCHEM_ISOTOPIC_ATOM_COUNT>  (1) 
0

>  <PUBCHEM_COMPONENT_COUNT>  (1) 
1

>  <PUBCHEM_CACTVS_TAUTO_COUNT>  (1) 
1

>  <PUBCHEM_CONFORMER_ID>  (1) 
0000B1C900000003

>  <PUBCHEM_MMFF94_ENERGY>  (1) 
86.2718

>  <PUBCHEM_FEATURE_SELFOVERLAP>  (1) 
30.472

>  <PUBCHEM_SHAPE_FINGERPRINT>  (1) 
10498660 4 18409166619417307257
105312 117 18335991968462137054
10693767 8 17631177372949203454
11796584 16 12031248164239556233
12596602 18 14201407109237961604
12730499 353 18409739434979231243
12769317 202 18412261726973891745
12892183 10 11963387474725464895
13103583 49 11530754891003010247
13583140 156 17969227909439989258
13944108 23 18192429663105795717
14341114 176 11314317131018919645
14461889 52 17385736785910870921
14528608 73 18413102862570757781
14848178 96 18410294735221572801
14950920 106 9005913480010988285
15003188 100 18412265077174957141
15961568 22 17967813821617861621
18335252 114 18339918221205055300
18335252 98 18409453588422008939
18681886 176 18200022937493452154
20567600 254 18260548922123830504
20612939 158 18340771416785576199
21033648 29 18187645872543474592
21521239 73 17489594433255742870
21641784 216 17042615777552872326
21968339 14 18268139877382225389
22393880 68 18059567027462289111
23559900 14 18127684946895263467
23576562 1 18121226639127056308
238 59 18342748407074327379
2838139 119 18337106873226107148
3060560 45 18343023259490951342
314194 84 9295281733973804929
376196 1 18335136526967225723
4280585 95 16910898197197886822
44317340 157 18411420571441786453
46194498 28 18195806263635735031
474 4 18410011048494576985
6328613 192 18117004476006546940
633830 44 18412541037487174941

>  <PUBCHEM_SHAPE_MULTIPOLES>  (1) 
499.64
13.69
4.14
1.34
15.93
1.64
0.14
-13.81
-5.15
-3.53
-0.1
0.39
0.46
0.48

>  <PUBCHEM_SHAPE_SELFOVERLAP>  (1) 
1048.238

>  <PUBCHEM_SHAPE_VOLUME>  (1) 
285.3

>  <PUBCHEM_COORDINATE_TYPE>  (1) 
2
5
10

$$$$
