45515
     RDKit          3D

 28 30  0  0  1  0  0  0  0  0999 V2000
   -6.5831   -3.8368    0.6959 Cl  0  0  0  0  0  0  0  0  0  0  0  0
    3.9190   -2.6572   -1.4367 O   0  0  0  0  0  0  0  0  0  0  0  0
    5.3340   -1.7429    0.7707 O   0  0  0  0  0  0  0  0  0  0  0  0
   -0.0283    1.8026    0.1145 N   0  0  0  0  0  0  0  0  0  0  0  0
    0.2731    0.5055   -0.5311 C   0  0  0  0  0  0  0  0  0  0  0  0
    1.6327   -0.0766   -0.1805 C   0  0  0  0  0  0  0  0  0  0  0  0
    0.3453    1.8067    1.5343 C   0  0  0  0  0  0  0  0  0  0  0  0
   -0.8425   -0.4979   -0.1974 C   0  0  0  0  0  0  0  0  0  0  0  0
    1.8268    1.5132    1.7814 C   0  0  0  0  0  0  0  0  0  0  0  0
    2.3480    0.3764    0.9425 C   0  0  0  0  0  0  0  0  0  0  0  0
    0.5592    2.9282   -0.6129 C   0  0  0  0  0  0  0  0  0  0  0  0
   -2.2029    0.0609   -0.5881 C   0  0  0  0  0  0  0  0  0  0  0  0
    2.1779   -1.1008   -0.9712 C   0  0  0  0  0  0  0  0  0  0  0  0
    3.5936   -0.1906    1.2481 C   0  0  0  0  0  0  0  0  0  0  0  0
    3.4138   -1.6636   -0.6538 C   0  0  0  0  0  0  0  0  0  0  0  0
    4.1209   -1.2090    0.4557 C   0  0  0  0  0  0  0  0  0  0  0  0
    0.1114    4.2419   -0.0428 C   0  0  0  0  0  0  0  0  0  0  0  0
   -3.3018   -0.9189   -0.2653 C   0  0  0  0  0  0  0  0  0  0  0  0
   -0.9644    4.9773   -0.3835 C   0  0  0  0  0  0  0  0  0  0  0  0
   -3.9129   -0.8719    0.9790 C   0  0  0  0  0  0  0  0  0  0  0  0
   -3.6857   -1.8511   -1.2180 C   0  0  0  0  0  0  0  0  0  0  0  0
   -1.8961    4.5021   -1.4678 C   0  0  0  0  0  0  0  0  0  0  0  0
   -1.3563    6.2910    0.2313 C   0  0  0  0  0  0  0  0  0  0  0  0
   -4.9309   -1.7777    1.2774 C   0  0  0  0  0  0  0  0  0  0  0  0
   -4.7036   -2.7568   -0.9195 C   0  0  0  0  0  0  0  0  0  0  0  0
   -5.3262   -2.7202    0.3283 C   0  0  0  0  0  0  0  0  0  0  0  0
    4.7399   -2.2625   -2.5341 C   0  0  0  0  0  0  0  0  0  0  0  0
    5.3392   -2.8712    1.6437 C   0  0  0  0  0  0  0  0  0  0  0  0
  1 26  1  0
  2 15  1  0
  2 27  1  0
  3 16  1  0
  3 28  1  0
  4  5  1  0
  4  7  1  0
  4 11  1  0
  5  6  1  0
  5  8  1  0
  6 10  2  0
  6 13  1  0
  7  9  1  0
  8 12  1  0
  9 10  1  0
 10 14  1  0
 11 17  1  0
 12 18  1  0
 13 15  2  0
 14 16  2  0
 15 16  1  0
 17 19  2  3
 18 20  2  0
 18 21  1  0
 19 22  1  0
 19 23  1  0
 20 24  1  0
 21 25  2  0
 24 26  2  0
 25 26  1  0
M  END
>  <PUBCHEM_COMPOUND_CID>  (1) 
45515

>  <PUBCHEM_CONFORMER_RMSD>  (1) 
0.8

>  <PUBCHEM_CONFORMER_DIVERSEORDER>  (1) 
2
92
46
87
89
50
66
37
85
70
97
55
83
105
101
93
68
90
56
79
84
98
19
48
59
94
81
1
13
86
99
16
45
15
74
77
64
96
52
100
42
78
95
35
51
53
40
82
30
62
65
103
24
47
106
49
36
29
41
31
73
6
23
60
11
72
76
28
63
61
17
88
39
32
54
26
75
80
21
14
25
9
71
22
18
7
104
8
38
43
91
5
3
58
102
27
57
33
20
44
4
67
69
34
10
12

>  <PUBCHEM_MMFF94_PARTIAL_CHARGES>  (1) 
34
1 -0.18
10 -0.14
11 0.41
12 0.14
13 -0.15
14 -0.15
15 0.08
16 0.08
17 -0.29
18 -0.14
19 -0.28
2 -0.36
20 -0.15
21 -0.15
22 0.14
23 0.14
24 -0.15
25 -0.15
26 0.18
27 0.28
28 0.28
3 -0.36
4 -0.81
40 0.15
41 0.15
42 0.15
43 0.15
44 0.15
5 0.41
51 0.15
52 0.15
6 -0.14
7 0.27
9 0.14

>  <PUBCHEM_EFFECTIVE_ROTOR_COUNT>  (1) 
7.8

>  <PUBCHEM_PHARMACOPHORE_FEATURES>  (1) 
7
1 2 acceptor
1 3 acceptor
1 4 cation
3 19 22 23 hydrophobe
6 18 20 21 24 25 26 rings
6 4 5 6 7 9 10 rings
6 6 10 13 14 15 16 rings

>  <PUBCHEM_HEAVY_ATOM_COUNT>  (1) 
28

>  <PUBCHEM_ATOM_DEF_STEREO_COUNT>  (1) 
0

>  <PUBCHEM_ATOM_UDEF_STEREO_COUNT>  (1) 
1

>  <PUBCHEM_BOND_DEF_STEREO_COUNT>  (1) 
0

>  <PUBCHEM_BOND_UDEF_STEREO_COUNT>  (1) 
0

>  <PUBCHEM_ISOTOPIC_ATOM_COUNT>  (1) 
0

>  <PUBCHEM_COMPONENT_COUNT>  (1) 
1

>  <PUBCHEM_CACTVS_TAUTO_COUNT>  (1) 
1

>  <PUBCHEM_CONFORMER_ID>  (1) 
0000B1CB00000002

>  <PUBCHEM_MMFF94_ENERGY>  (1) 
91.4006

>  <PUBCHEM_FEATURE_SELFOVERLAP>  (1) 
35.545

>  <PUBCHEM_SHAPE_FINGERPRINT>  (1) 
10074138 170 17977362959254927648
10258939 38 18265031653196441248
10554248 39 18125999611093545735
11991303 11 17682688320015306845
12107183 9 18340782494307761763
12788726 201 18188788131853601264
13533116 47 18056767752895672187
13540713 4 17843957041200276422
13690498 29 18270414780363462966
13785724 45 18340782524003436063
13899415 180 18410567409831035615
13955234 65 17904765832010539457
15664445 248 18125457538163942340
15775530 1 18055884711540133664
1813 80 18411707607414864254
20739085 24 18198897209447935584
21049683 271 18191310592138580876
22182313 1 17487043476390885582
22849339 104 17908151983920822548
23559900 14 18191296277639999227
24941158 1 17684676580793705665
3380486 145 17771308067971296444
4409770 3 17978520736894376373
57527585 21 17392814367770621876
59755656 520 17544746834121645980
6695519 79 16986274354347617954
6697151 62 18193530450934386127
6700243 42 17912959147916260628
77188 2 18337105765125018753
9658208 31 17765151670766114092

>  <PUBCHEM_SHAPE_MULTIPOLES>  (1) 
561.38
12.14
7.38
1.69
9.54
15.32
0.24
-22.84
-1.87
2.89
1.13
-1.57
-0.82
1.46

>  <PUBCHEM_SHAPE_SELFOVERLAP>  (1) 
1169.954

>  <PUBCHEM_SHAPE_VOLUME>  (1) 
321.4

>  <PUBCHEM_COORDINATE_TYPE>  (1) 
2
5
10

$$$$
