45519
     RDKit          3D

 24 26  0  0  1  0  0  0  0  0999 V2000
    4.3930   -3.5337   -0.0175 Cl  0  0  0  0  0  0  0  0  0  0  0  0
   -2.5927   -2.5750    1.2171 O   0  0  0  0  0  0  0  0  0  0  0  0
   -4.1395   -1.9380   -1.0002 O   0  0  0  0  0  0  0  0  0  0  0  0
   -0.2381    3.0752    0.2596 N   0  0  0  0  0  0  0  0  0  0  0  0
   -0.3356    1.8044    1.0273 C   0  0  0  0  0  0  0  0  0  0  0  0
   -1.3598    0.8066    0.4801 C   0  0  0  0  0  0  0  0  0  0  0  0
   -1.5387    3.5149   -0.2594 C   0  0  0  0  0  0  0  0  0  0  0  0
    1.0599    1.1514    1.0512 C   0  0  0  0  0  0  0  0  0  0  0  0
   -2.0697    2.4873   -1.2537 C   0  0  0  0  0  0  0  0  0  0  0  0
   -2.1840    1.1362   -0.6098 C   0  0  0  0  0  0  0  0  0  0  0  0
    1.5015    0.7752   -0.3556 C   0  0  0  0  0  0  0  0  0  0  0  0
   -1.5327   -0.4458    1.0950 C   0  0  0  0  0  0  0  0  0  0  0  0
    0.3466    4.1534    1.0663 C   0  0  0  0  0  0  0  0  0  0  0  0
   -3.1012    0.2005   -1.1099 C   0  0  0  0  0  0  0  0  0  0  0  0
   -2.4593   -1.3664    0.6027 C   0  0  0  0  0  0  0  0  0  0  0  0
   -3.2367   -1.0469   -0.5054 C   0  0  0  0  0  0  0  0  0  0  0  0
    2.8672    0.1374   -0.3402 C   0  0  0  0  0  0  0  0  0  0  0  0
    2.9761   -1.2385   -0.2023 C   0  0  0  0  0  0  0  0  0  0  0  0
    3.9938    0.9370   -0.4650 C   0  0  0  0  0  0  0  0  0  0  0  0
    4.2402   -1.8282   -0.1889 C   0  0  0  0  0  0  0  0  0  0  0  0
    5.2578    0.3475   -0.4516 C   0  0  0  0  0  0  0  0  0  0  0  0
    5.3811   -1.0351   -0.3136 C   0  0  0  0  0  0  0  0  0  0  0  0
   -1.7662   -3.6369    0.7446 C   0  0  0  0  0  0  0  0  0  0  0  0
   -5.4630   -1.8824   -0.4708 C   0  0  0  0  0  0  0  0  0  0  0  0
  1 20  1  0
  2 15  1  0
  2 23  1  0
  3 16  1  0
  3 24  1  0
  4  5  1  0
  4  7  1  0
  4 13  1  0
  5  6  1  0
  5  8  1  0
  6 10  2  0
  6 12  1  0
  7  9  1  0
  8 11  1  0
  9 10  1  0
 10 14  1  0
 11 17  1  0
 12 15  2  0
 14 16  2  0
 15 16  1  0
 17 18  2  0
 17 19  1  0
 18 20  1  0
 19 21  2  0
 20 22  2  0
 21 22  1  0
M  END
>  <PUBCHEM_COMPOUND_CID>  (1) 
45519

>  <PUBCHEM_CONFORMER_RMSD>  (1) 
0.8

>  <PUBCHEM_CONFORMER_DIVERSEORDER>  (1) 
1
41
48
53
52
61
64
57
19
46
67
51
60
39
65
36
35
27
66
56
37
47
63
15
7
55
62
28
59
11
30
45
22
34
18
40
44
42
54
13
32
38
8
49
17
10
23
5
12
26
58
43
31
3
6
16
9
25
20
50
14
29
4
2
33
24
21

>  <PUBCHEM_MMFF94_PARTIAL_CHARGES>  (1) 
29
1 -0.18
10 -0.14
11 0.14
12 -0.15
13 0.27
14 -0.15
15 0.08
16 0.08
17 -0.14
18 -0.15
19 -0.15
2 -0.36
20 0.18
21 -0.15
22 -0.15
23 0.28
24 0.28
3 -0.36
34 0.15
38 0.15
39 0.15
4 -0.81
40 0.15
41 0.15
42 0.15
5 0.41
6 -0.14
7 0.27
9 0.14

>  <PUBCHEM_EFFECTIVE_ROTOR_COUNT>  (1) 
5.8

>  <PUBCHEM_PHARMACOPHORE_FEATURES>  (1) 
6
1 2 acceptor
1 3 acceptor
1 4 cation
6 17 18 19 20 21 22 rings
6 4 5 6 7 9 10 rings
6 6 10 12 14 15 16 rings

>  <PUBCHEM_HEAVY_ATOM_COUNT>  (1) 
24

>  <PUBCHEM_ATOM_DEF_STEREO_COUNT>  (1) 
0

>  <PUBCHEM_ATOM_UDEF_STEREO_COUNT>  (1) 
1

>  <PUBCHEM_BOND_DEF_STEREO_COUNT>  (1) 
0

>  <PUBCHEM_BOND_UDEF_STEREO_COUNT>  (1) 
0

>  <PUBCHEM_ISOTOPIC_ATOM_COUNT>  (1) 
0

>  <PUBCHEM_COMPONENT_COUNT>  (1) 
1

>  <PUBCHEM_CACTVS_TAUTO_COUNT>  (1) 
1

>  <PUBCHEM_CONFORMER_ID>  (1) 
0000B1CF00000001

>  <PUBCHEM_MMFF94_ENERGY>  (1) 
83.668

>  <PUBCHEM_FEATURE_SELFOVERLAP>  (1) 
30.472

>  <PUBCHEM_SHAPE_FINGERPRINT>  (1) 
10616163 171 18269557139760776030
10693767 8 18199163240350771055
10764073 3 17322718125971452841
11036077 51 17693098466000269992
12363563 72 18343588464138347942
12553582 1 18410016575811519138
12788726 201 18336538322598343811
13402501 40 18410855507616148935
13544592 145 18192142909982575299
13544653 18 18411423946558360252
13631057 29 18412829075769934788
13911987 19 17830191443067481748
14251740 79 18190177893007870767
14251757 5 18334295357437401691
14790565 3 17979638931693797665
14863182 85 16606050322257883899
14866123 147 18339928100479057929
14931854 50 18261108552311002622
14950920 106 13326561935545437734
15064986 266 18260844678014441510
15352361 1 18411701027657062990
15475509 8 18409724076576737077
17492 89 18268429045247458118
1813 80 17987533643817769165
20775438 99 17476886492500360495
20832881 197 18412261766398366843
20871999 31 18336257981709588805
22393880 68 18266186037532079558
23557571 272 18341620287159944564
23559900 14 18118398685865421053
3004659 81 18187361034907830446
3027735 51 18267584611400168227
329604 57 18408887373570496372
3421961 26 18198338666199694073
38695281 34 17400641524096472369
46194498 28 17605551261324127909
463206 1 18338797943490186590
5309563 4 18268717279927582070
9709674 26 18338522924428920934

>  <PUBCHEM_SHAPE_MULTIPOLES>  (1) 
479.06
10.23
4.81
1.12
9.03
0.98
0.08
-8.78
-3.08
-1.91
1.06
-0.69
0.2
0.4

>  <PUBCHEM_SHAPE_SELFOVERLAP>  (1) 
1008.603

>  <PUBCHEM_SHAPE_VOLUME>  (1) 
272.2

>  <PUBCHEM_COORDINATE_TYPE>  (1) 
2
5
10

$$$$
