45523
     RDKit          3D

 31 34  0  0  1  0  0  0  0  0999 V2000
    8.0781    2.2691    0.2305 Cl  0  0  0  0  0  0  0  0  0  0  0  0
    0.1151   -4.7721   -1.6969 O   0  0  0  0  0  0  0  0  0  0  0  0
   -1.2281   -5.4498    0.6374 O   0  0  0  0  0  0  0  0  0  0  0  0
   -0.4732    0.9651    0.4506 N   0  0  0  0  0  0  0  0  0  0  0  0
    0.2265   -0.0439   -0.3754 C   0  0  0  0  0  0  0  0  0  0  0  0
   -0.5499    0.5604    1.8598 C   0  0  0  0  0  0  0  0  0  0  0  0
   -0.1807   -1.4821   -0.0992 C   0  0  0  0  0  0  0  0  0  0  0  0
    1.7448    0.1255   -0.2048 C   0  0  0  0  0  0  0  0  0  0  0  0
   -1.2643   -0.7753    2.0781 C   0  0  0  0  0  0  0  0  0  0  0  0
   -0.8520   -1.8310    1.0864 C   0  0  0  0  0  0  0  0  0  0  0  0
   -1.7865    1.3077   -0.0963 C   0  0  0  0  0  0  0  0  0  0  0  0
    2.1537    1.5730   -0.4355 C   0  0  0  0  0  0  0  0  0  0  0  0
    0.1374   -2.4875   -1.0264 C   0  0  0  0  0  0  0  0  0  0  0  0
   -2.4367    2.4354    0.7058 C   0  0  0  0  0  0  0  0  0  0  0  0
   -1.2015   -3.1690    1.3189 C   0  0  0  0  0  0  0  0  0  0  0  0
   -0.2074   -3.8165   -0.7814 C   0  0  0  0  0  0  0  0  0  0  0  0
   -0.8760   -4.1570    0.3909 C   0  0  0  0  0  0  0  0  0  0  0  0
    3.6416    1.7469   -0.2680 C   0  0  0  0  0  0  0  0  0  0  0  0
   -3.8012    2.7830    0.1660 C   0  0  0  0  0  0  0  0  0  0  0  0
    4.4738    1.5933   -1.3670 C   0  0  0  0  0  0  0  0  0  0  0  0
    4.1549    2.0587    0.9821 C   0  0  0  0  0  0  0  0  0  0  0  0
   -3.9173    3.7538   -0.8175 C   0  0  0  0  0  0  0  0  0  0  0  0
   -4.9174    2.1260    0.6614 C   0  0  0  0  0  0  0  0  0  0  0  0
    5.8506    1.7552   -1.2123 C   0  0  0  0  0  0  0  0  0  0  0  0
    5.5317    2.2208    1.1369 C   0  0  0  0  0  0  0  0  0  0  0  0
   -5.1793    4.0754   -1.3171 C   0  0  0  0  0  0  0  0  0  0  0  0
   -6.1794    2.4474    0.1617 C   0  0  0  0  0  0  0  0  0  0  0  0
   -0.8452   -5.0453   -2.7153 C   0  0  0  0  0  0  0  0  0  0  0  0
    6.3796    2.0689    0.0397 C   0  0  0  0  0  0  0  0  0  0  0  0
   -0.2815   -6.2582    1.3343 C   0  0  0  0  0  0  0  0  0  0  0  0
   -6.3103    3.4221   -0.8276 C   0  0  0  0  0  0  0  0  0  0  0  0
  1 29  1  0
  2 16  1  0
  2 28  1  0
  3 17  1  0
  3 30  1  0
  4  5  1  0
  4  6  1  0
  4 11  1  0
  5  7  1  0
  5  8  1  0
  6  9  1  0
  7 10  2  0
  7 13  1  0
  8 12  1  0
  9 10  1  0
 10 15  1  0
 11 14  1  0
 12 18  1  0
 13 16  2  0
 14 19  1  0
 15 17  2  0
 16 17  1  0
 18 20  2  0
 18 21  1  0
 19 22  2  0
 19 23  1  0
 20 24  1  0
 21 25  2  0
 22 26  1  0
 23 27  2  0
 24 29  2  0
 25 29  1  0
 26 31  2  0
 27 31  1  0
M  END
>  <PUBCHEM_COMPOUND_CID>  (1) 
45523

>  <PUBCHEM_CONFORMER_RMSD>  (1) 
1

>  <PUBCHEM_CONFORMER_DIVERSEORDER>  (1) 
1
20
8
39
25
5
40
38
30
34
17
11
27
13
23
36
14
6
9
28
29
2
31
33
26
7
3
12
4
35
22
32
10
16
15
37
18
21
19
24

>  <PUBCHEM_MMFF94_PARTIAL_CHARGES>  (1) 
41
1 -0.18
10 -0.14
11 0.27
12 0.14
13 -0.15
14 0.14
15 -0.15
16 0.08
17 0.08
18 -0.14
19 -0.14
2 -0.36
20 -0.15
21 -0.15
22 -0.15
23 -0.15
24 -0.15
25 -0.15
26 -0.15
27 -0.15
28 0.28
29 0.18
3 -0.36
30 0.28
31 -0.15
4 -0.81
43 0.15
46 0.15
47 0.15
48 0.15
49 0.15
5 0.41
50 0.15
51 0.15
52 0.15
53 0.15
54 0.15
6 0.27
61 0.15
7 -0.14
9 0.14

>  <PUBCHEM_EFFECTIVE_ROTOR_COUNT>  (1) 
8.8

>  <PUBCHEM_PHARMACOPHORE_FEATURES>  (1) 
7
1 2 acceptor
1 3 acceptor
1 4 cation
6 18 20 21 24 25 29 rings
6 19 22 23 26 27 31 rings
6 4 5 6 7 9 10 rings
6 7 10 13 15 16 17 rings

>  <PUBCHEM_HEAVY_ATOM_COUNT>  (1) 
31

>  <PUBCHEM_ATOM_DEF_STEREO_COUNT>  (1) 
0

>  <PUBCHEM_ATOM_UDEF_STEREO_COUNT>  (1) 
1

>  <PUBCHEM_BOND_DEF_STEREO_COUNT>  (1) 
0

>  <PUBCHEM_BOND_UDEF_STEREO_COUNT>  (1) 
0

>  <PUBCHEM_ISOTOPIC_ATOM_COUNT>  (1) 
0

>  <PUBCHEM_COMPONENT_COUNT>  (1) 
1

>  <PUBCHEM_CACTVS_TAUTO_COUNT>  (1) 
1

>  <PUBCHEM_CONFORMER_ID>  (1) 
0000B1D300000001

>  <PUBCHEM_MMFF94_ENERGY>  (1) 
103.6659

>  <PUBCHEM_FEATURE_SELFOVERLAP>  (1) 
35.548

>  <PUBCHEM_SHAPE_FINGERPRINT>  (1) 
10074138 170 18265878332435789968
102385 1 17834956747251699529
10319688 77 17548697838423473886
10369192 42 18333449816238714733
10721379 63 17838343973467392653
11062273 23 18197787810921469642
11136131 41 18188204300476796715
11297750 10 17483669379383112840
11443803 9 18262503866804822569
11621639 307 16881341478361433540
11763715 3 17397003712798290020
11991303 11 18409173242035364292
12293681 160 17917991654932675264
12597179 24 18410300185424022129
12608794 3 17982194480368304705
12788726 201 18193820759719957642
12988421 55 18270704003134167161
13150687 139 18339643343335320325
13955234 65 18050571742573694249
1813 80 17332534973853569194
20505436 4 18040148518577189600
21304303 282 18340189890898055743
23559900 14 17543059092774790537
25019877 29 18410862053315094413
3103668 31 18196362852874563871
3388396 114 17036149537228917764
3627633 1 17832423472497193810
376196 1 18188493454327167481
4017518 198 18341056229468458054
4046055 4 17833823155220732541
4409770 3 18266178512179515027
44802255 64 18335718164671634532
4938544 92 18338799043898522072
504843 32 18335986444986306252
5080951 261 17703228554668977102
508180 173 16240405991128089133
5219985 13 18408602539370840757
5223283 242 17120280855550864527
59444896 2 18118651444854412243
59755656 520 18410285917812015316
6004065 56 17981047410378262230
6669772 16 18341900627811407341
6691757 9 18341338855323142448
6695519 79 18194992693813929065
77188 2 17255685720636129755
9981440 41 18334864896234938273

>  <PUBCHEM_SHAPE_MULTIPOLES>  (1) 
623.12
14.15
9.05
1.74
16.31
17.74
0.32
-30.44
1.64
-8.49
1.94
-0.26
1.72
1.5

>  <PUBCHEM_SHAPE_SELFOVERLAP>  (1) 
1325.708

>  <PUBCHEM_SHAPE_VOLUME>  (1) 
348.6

>  <PUBCHEM_COORDINATE_TYPE>  (1) 
2
5
10

$$$$
