45525
     RDKit          3D

 22 24  0  0  1  0  0  0  0  0999 V2000
    6.6869   -1.3942   -0.1287 Cl  0  0  0  0  0  0  0  0  0  0  0  0
   -0.9692    2.6736    0.1815 N   0  0  0  0  0  0  0  0  0  0  0  0
   -0.9433    1.4258    0.9917 C   0  0  0  0  0  0  0  0  0  0  0  0
   -1.8481    0.3073    0.4680 C   0  0  0  0  0  0  0  0  0  0  0  0
   -2.3008    2.9549   -0.3677 C   0  0  0  0  0  0  0  0  0  0  0  0
    0.5129    0.9255    1.0536 C   0  0  0  0  0  0  0  0  0  0  0  0
   -2.6853    0.5107   -0.6426 C   0  0  0  0  0  0  0  0  0  0  0  0
   -2.7045    1.8441   -1.3320 C   0  0  0  0  0  0  0  0  0  0  0  0
    1.0125    0.5515   -0.3344 C   0  0  0  0  0  0  0  0  0  0  0  0
   -1.8978   -0.9347    1.1247 C   0  0  0  0  0  0  0  0  0  0  0  0
   -3.4907   -0.5331   -1.1205 C   0  0  0  0  0  0  0  0  0  0  0  0
   -0.5145    3.8341    0.9571 C   0  0  0  0  0  0  0  0  0  0  0  0
   -2.7144   -1.9644    0.6541 C   0  0  0  0  0  0  0  0  0  0  0  0
   -3.5036   -1.7666   -0.4740 C   0  0  0  0  0  0  0  0  0  0  0  0
    2.4374    0.0632   -0.2818 C   0  0  0  0  0  0  0  0  0  0  0  0
   -2.7238   -3.2702    1.3790 C   0  0  0  0  0  0  0  0  0  0  0  0
   -4.3788   -2.8552   -1.0021 C   0  0  0  0  0  0  0  0  0  0  0  0
    3.4755    0.9724   -0.4219 C   0  0  0  0  0  0  0  0  0  0  0  0
    2.6884   -1.2883   -0.0951 C   0  0  0  0  0  0  0  0  0  0  0  0
    4.7941    0.5202   -0.3744 C   0  0  0  0  0  0  0  0  0  0  0  0
    4.0071   -1.7406   -0.0474 C   0  0  0  0  0  0  0  0  0  0  0  0
    5.0600   -0.8362   -0.1870 C   0  0  0  0  0  0  0  0  0  0  0  0
  1 22  1  0
  2  3  1  0
  2  5  1  0
  2 12  1  0
  3  4  1  0
  3  6  1  0
  4  7  2  0
  4 10  1  0
  5  8  1  0
  6  9  1  0
  7  8  1  0
  7 11  1  0
  9 15  1  0
 10 13  2  0
 11 14  2  0
 13 14  1  0
 13 16  1  0
 14 17  1  0
 15 18  2  0
 15 19  1  0
 18 20  1  0
 19 21  2  0
 20 22  2  0
 21 22  1  0
M  END
>  <PUBCHEM_COMPOUND_CID>  (1) 
45525

>  <PUBCHEM_CONFORMER_RMSD>  (1) 
0.6

>  <PUBCHEM_CONFORMER_DIVERSEORDER>  (1) 
1
12
18
2
15
16
9
4
17
6
14
7
3
11
10
5
8
13

>  <PUBCHEM_MMFF94_PARTIAL_CHARGES>  (1) 
27
1 -0.18
10 -0.15
11 -0.15
12 0.27
13 -0.14
14 -0.14
15 -0.14
16 0.14
17 0.14
18 -0.15
19 -0.15
2 -0.81
20 -0.15
21 -0.15
22 0.18
3 0.41
32 0.15
33 0.15
4 -0.14
43 0.15
44 0.15
45 0.15
46 0.15
5 0.27
7 -0.14
8 0.14
9 0.14

>  <PUBCHEM_EFFECTIVE_ROTOR_COUNT>  (1) 
3.8

>  <PUBCHEM_PHARMACOPHORE_FEATURES>  (1) 
4
1 2 cation
6 15 18 19 20 21 22 rings
6 2 3 4 5 7 8 rings
6 4 7 10 11 13 14 rings

>  <PUBCHEM_HEAVY_ATOM_COUNT>  (1) 
22

>  <PUBCHEM_ATOM_DEF_STEREO_COUNT>  (1) 
0

>  <PUBCHEM_ATOM_UDEF_STEREO_COUNT>  (1) 
1

>  <PUBCHEM_BOND_DEF_STEREO_COUNT>  (1) 
0

>  <PUBCHEM_BOND_UDEF_STEREO_COUNT>  (1) 
0

>  <PUBCHEM_ISOTOPIC_ATOM_COUNT>  (1) 
0

>  <PUBCHEM_COMPONENT_COUNT>  (1) 
1

>  <PUBCHEM_CACTVS_TAUTO_COUNT>  (1) 
1

>  <PUBCHEM_CONFORMER_ID>  (1) 
0000B1D500000001

>  <PUBCHEM_MMFF94_ENERGY>  (1) 
58.0471

>  <PUBCHEM_FEATURE_SELFOVERLAP>  (1) 
20.319

>  <PUBCHEM_SHAPE_FINGERPRINT>  (1) 
10616163 171 18340769239216168790
11045515 52 18334011709255394373
11578080 2 17489012873140833385
12293681 160 17840289044018519081
12363563 72 18342462594312340903
12553582 1 18267319779110207698
12760667 363 18410859884214047843
12788726 201 18337945676265413105
12892183 10 12679195928449522285
13544653 18 18339646757818015270
13583140 156 17774709858827538392
13631057 29 18412261740417839158
13911987 19 17324661353501761844
14251740 79 18187643583230713275
14251757 5 18333729117813481187
14790565 3 18124034521215465281
14866123 147 18411423895714948747
15064986 266 18260278455253911551
15250474 111 18190172391941365610
15352361 1 18339923826132335222
15463212 79 17896595072772157785
15475509 8 18337380648291950287
17349148 13 18113620080188521258
17492 89 18340206298090442206
18927931 339 18201728323351579126
200 152 18411136935584920478
20775438 99 17188098719682621343
20871999 31 18336255791465990013
21709351 56 18187933842232819446
221490 88 18411422838921014968
22393880 68 18334290925685481206
23557571 272 18341055142277631956
23559900 14 18410002261107930128
3004659 81 18187920703253069030
3178227 256 18337967675906496785
329604 57 18336830900445381022
4214541 1 18335702694162147484
463206 1 18266458900271842391
4921388 177 18334298634508075861
5104073 3 18342739598966419504
531348 171 17387406836324992894
59755656 520 18116993286941150413
9709674 26 18270123388191123366

>  <PUBCHEM_SHAPE_MULTIPOLES>  (1) 
449.64
11.01
3.89
1.17
18.63
1.42
0.09
-8.24
-2.78
-4.44
0.79
-1.1
-0.08
0.31

>  <PUBCHEM_SHAPE_SELFOVERLAP>  (1) 
949.949

>  <PUBCHEM_SHAPE_VOLUME>  (1) 
254.7

>  <PUBCHEM_COORDINATE_TYPE>  (1) 
2
5
10

$$$$
