4553
     RDKit          3D

 21 22  0  0  0  0  0  0  0  0999 V2000
   -2.0481    3.0853    0.2130 S   0  0  0  0  0  0  0  0  0  0  0  0
    0.9457    0.4995    0.5562 O   0  0  0  0  0  0  0  0  0  0  0  0
   -1.9285    4.4206   -0.3425 O   0  0  0  0  0  0  0  0  0  0  0  0
   -3.3528    2.5034    0.4580 O   0  0  0  0  0  0  0  0  0  0  0  0
   -2.7088   -4.0866   -0.2935 O   0  0  0  0  0  0  0  0  0  0  0  0
   -0.7388   -4.1624    0.6722 O   0  0  0  0  0  0  0  0  0  0  0  0
   -1.0629    2.0215   -0.7149 N   0  0  0  0  0  0  0  0  0  0  0  0
   -1.6581   -3.5263    0.1023 N   0  0  0  0  0  0  0  0  0  0  0  0
    2.1693    0.0360   -0.0047 C   0  0  0  0  0  0  0  0  0  0  0  0
    2.8511    1.1758   -0.7606 C   0  0  0  0  0  0  0  0  0  0  0  0
    3.0635   -0.5189    1.1029 C   0  0  0  0  0  0  0  0  0  0  0  0
    4.2150    0.7556   -1.2985 C   0  0  0  0  0  0  0  0  0  0  0  0
    4.4276   -0.9394    0.5652 C   0  0  0  0  0  0  0  0  0  0  0  0
    5.1080    0.1987   -0.1922 C   0  0  0  0  0  0  0  0  0  0  0  0
   -0.2005   -0.1156    0.1275 C   0  0  0  0  0  0  0  0  0  0  0  0
   -1.2034    0.6149   -0.5022 C   0  0  0  0  0  0  0  0  0  0  0  0
   -0.3453   -1.4848    0.3300 C   0  0  0  0  0  0  0  0  0  0  0  0
   -2.3627   -0.0298   -0.9334 C   0  0  0  0  0  0  0  0  0  0  0  0
   -1.5046   -2.1294   -0.1015 C   0  0  0  0  0  0  0  0  0  0  0  0
   -2.5133   -1.4019   -0.7331 C   0  0  0  0  0  0  0  0  0  0  0  0
   -1.1523    3.0836    1.7499 C   0  0  0  0  0  0  0  0  0  0  0  0
  1  3  2  0
  1  4  2  0
  1  7  1  0
  1 21  1  0
  2  9  1  0
  2 15  1  0
  5  8  1  0
  6  8  2  0
  7 16  1  0
  8 19  1  0
  9 10  1  0
  9 11  1  0
 10 12  1  0
 11 13  1  0
 12 14  1  0
 13 14  1  0
 15 16  2  0
 15 17  1  0
 16 18  1  0
 17 19  2  0
 18 20  2  0
 19 20  1  0
M  CHG  2   5  -1   8   1
M  END
>  <PUBCHEM_COMPOUND_CID>  (1) 
4553

>  <PUBCHEM_CONFORMER_RMSD>  (1) 
0.8

>  <PUBCHEM_CONFORMER_DIVERSEORDER>  (1) 
2
67
55
72
12
69
64
53
58
25
70
59
40
60
41
43
54
65
23
27
66
61
34
74
5
49
7
35
51
45
46
68
57
39
13
32
48
56
6
14
38
4
19
71
10
24
52
21
20
8
16
3
37
33
63
18
36
50
22
30
44
11
31
15
17
73
28
47
9
29
62
26
42
1

>  <PUBCHEM_MMFF94_PARTIAL_CHARGES>  (1) 
20
1 1.33
15 0.08
16 0.2
17 -0.15
18 -0.15
19 0.13
2 -0.36
20 -0.15
21 0.11
3 -0.65
33 0.15
34 0.15
35 0.42
36 0.15
4 -0.65
5 -0.52
6 -0.52
7 -0.76
8 0.91
9 0.28

>  <PUBCHEM_EFFECTIVE_ROTOR_COUNT>  (1) 
6.2

>  <PUBCHEM_PHARMACOPHORE_FEATURES>  (1) 
9
1 2 acceptor
1 3 acceptor
1 4 acceptor
1 5 acceptor
1 5 anion
1 6 acceptor
1 7 donor
6 15 16 17 18 19 20 rings
6 9 10 11 12 13 14 rings

>  <PUBCHEM_HEAVY_ATOM_COUNT>  (1) 
21

>  <PUBCHEM_ATOM_DEF_STEREO_COUNT>  (1) 
0

>  <PUBCHEM_ATOM_UDEF_STEREO_COUNT>  (1) 
0

>  <PUBCHEM_BOND_DEF_STEREO_COUNT>  (1) 
0

>  <PUBCHEM_BOND_UDEF_STEREO_COUNT>  (1) 
0

>  <PUBCHEM_ISOTOPIC_ATOM_COUNT>  (1) 
0

>  <PUBCHEM_COMPONENT_COUNT>  (1) 
1

>  <PUBCHEM_CACTVS_TAUTO_COUNT>  (1) 
1

>  <PUBCHEM_CONFORMER_ID>  (1) 
000011C900000002

>  <PUBCHEM_MMFF94_ENERGY>  (1) 
56.7157

>  <PUBCHEM_FEATURE_SELFOVERLAP>  (1) 
45.772

>  <PUBCHEM_SHAPE_FINGERPRINT>  (1) 
10616163 171 18409447029342796926
1100329 8 18338801242757643201
11036077 51 18338794494683630274
12173636 292 18338228254822300620
12553582 1 18120371222668893738
12788726 201 18410847772152981171
13140716 1 18266170823956148146
138480 1 16609132712574359055
13955234 65 9074681261822549335
14178342 30 18336247004252962066
14251757 5 18341058479583161292
14790565 3 18410294666839848989
15042514 8 18410016567490823771
15842332 3 18040718069910603092
16752209 62 18339626867798080752
1813 80 17768270241787078791
18785283 64 17543920001055408657
19591789 44 18051134687857497679
20510252 161 18341889671439518625
21524375 3 17984417443196869157
22849341 161 17905632221440898931
23366157 5 17397550801479333873
23419403 2 16314369596897775188
23557571 272 18201716284706220576
23558518 356 18267862770604059079
23559900 14 18339068411256365160
238078 22 18193002736269785534
3084891 72 18339630196778056599
3091708 16 9344958785775950419
352729 6 18336250267827200519
394222 165 17171490240346439553
458136 41 17836661729377586977
53777708 50 18333734645984776916
6992083 37 18041279864191144852
7364860 26 17042326610495312855
81228 2 18272086127925923081
9709674 26 18342459231954484558
9981440 41 18121500146459423745

>  <PUBCHEM_SHAPE_MULTIPOLES>  (1) 
396.71
7.2
5.18
1.11
10.97
1.89
-0.14
-1.47
0.84
-7.6
-0.86
0.26
-0.49
-1.06

>  <PUBCHEM_SHAPE_SELFOVERLAP>  (1) 
810.626

>  <PUBCHEM_SHAPE_VOLUME>  (1) 
230.6

>  <PUBCHEM_COORDINATE_TYPE>  (1) 
2
5
10

$$$$
