45548
     RDKit          3D

 16 17  0  0  1  0  0  0  0  0999 V2000
    2.5792    0.9242    0.6140 O   0  0  0  0  0  0  0  0  0  0  0  0
    2.4354   -1.8355    0.3378 O   0  0  0  0  0  0  0  0  0  0  0  0
   -3.4373    0.6190   -0.4602 N   0  0  0  0  0  0  0  0  0  0  0  0
   -2.4306   -1.6039   -0.1840 C   0  0  0  0  0  0  0  0  0  0  0  0
   -3.6230   -0.7023    0.1521 C   0  0  0  0  0  0  0  0  0  0  0  0
   -2.2861    1.3064    0.1515 C   0  0  0  0  0  0  0  0  0  0  0  0
   -1.1036   -0.9319    0.0550 C   0  0  0  0  0  0  0  0  0  0  0  0
   -1.0292    0.4668    0.1708 C   0  0  0  0  0  0  0  0  0  0  0  0
    0.2160    1.0779    0.3699 C   0  0  0  0  0  0  0  0  0  0  0  0
    0.0704   -1.6948    0.1028 C   0  0  0  0  0  0  0  0  0  0  0  0
   -4.6466    1.4297   -0.3222 C   0  0  0  0  0  0  0  0  0  0  0  0
    1.3783    0.3090    0.4255 C   0  0  0  0  0  0  0  0  0  0  0  0
    1.3058   -1.0755    0.2898 C   0  0  0  0  0  0  0  0  0  0  0  0
    2.9775    1.8818   -0.3650 C   0  0  0  0  0  0  0  0  0  0  0  0
    3.1046   -2.0807   -0.8975 C   0  0  0  0  0  0  0  0  0  0  0  0
    4.4892    1.9101   -0.4405 C   0  0  0  0  0  0  0  0  0  0  0  0
  1 12  1  0
  1 14  1  0
  2 13  1  0
  2 15  1  0
  3  5  1  0
  3  6  1  0
  3 11  1  0
  4  5  1  0
  4  7  1  0
  6  8  1  0
  7  8  2  0
  7 10  1  0
  8  9  1  0
  9 12  2  0
 10 13  2  0
 12 13  1  0
 14 16  1  0
M  END
>  <PUBCHEM_COMPOUND_CID>  (1) 
45548

>  <PUBCHEM_CONFORMER_RMSD>  (1) 
0.6

>  <PUBCHEM_CONFORMER_DIVERSEORDER>  (1) 
1
9
12
20
14
10
8
19
11
16
7
15
3
17
5
13
6
4
2
18
21

>  <PUBCHEM_MMFF94_PARTIAL_CHARGES>  (1) 
17
1 -0.36
10 -0.15
11 0.27
12 0.08
13 0.08
14 0.28
15 0.28
2 -0.36
23 0.15
24 0.15
3 -0.81
4 0.14
5 0.27
6 0.41
7 -0.14
8 -0.14
9 -0.15

>  <PUBCHEM_EFFECTIVE_ROTOR_COUNT>  (1) 
3.8

>  <PUBCHEM_PHARMACOPHORE_FEATURES>  (1) 
5
1 1 acceptor
1 2 acceptor
1 3 cation
6 3 4 5 6 7 8 rings
6 7 8 9 10 12 13 rings

>  <PUBCHEM_HEAVY_ATOM_COUNT>  (1) 
16

>  <PUBCHEM_ATOM_DEF_STEREO_COUNT>  (1) 
0

>  <PUBCHEM_ATOM_UDEF_STEREO_COUNT>  (1) 
0

>  <PUBCHEM_BOND_DEF_STEREO_COUNT>  (1) 
0

>  <PUBCHEM_BOND_UDEF_STEREO_COUNT>  (1) 
0

>  <PUBCHEM_ISOTOPIC_ATOM_COUNT>  (1) 
0

>  <PUBCHEM_COMPONENT_COUNT>  (1) 
1

>  <PUBCHEM_CACTVS_TAUTO_COUNT>  (1) 
1

>  <PUBCHEM_CONFORMER_ID>  (1) 
0000B1EC00000001

>  <PUBCHEM_MMFF94_ENERGY>  (1) 
55.2931

>  <PUBCHEM_FEATURE_SELFOVERLAP>  (1) 
25.398

>  <PUBCHEM_SHAPE_FINGERPRINT>  (1) 
10465860 71 18056776338128699590
10608611 8 18408880724708109241
10756046 5 18342173375514916007
10967382 1 18411416224122688073
11471102 20 18340198592707284829
12173636 292 17833268997318944068
12507560 40 18333739013760762675
12644460 14 18187367593217150176
12932764 1 17386561358790146387
13140716 1 18410008797710278515
13296908 3 18408603652194319875
13380535 21 18412267267555238163
13380535 76 18336545031637940322
14325111 11 18410570682785882745
14897335 6 18410570708144288280
14911166 2 18267586793069299599
15196674 1 18410854352675465403
15219456 202 18409731763845659627
15442244 35 18268146448650552848
15536298 74 18342176652727689942
16945 1 18125710433995157123
18186145 218 18261105223794983839
20612939 158 18339364063070878381
20645477 70 18342454803479049455
21501502 16 18411410726543631995
21524375 3 18189332545197866360
221490 88 18409738347804106386
2255824 54 18335699386826690306
23114952 82 18339082588357626462
2334 1 18411696616709760819
23366157 5 18113618967765949098
23402539 116 18269833280536109884
23402655 69 18343298163262540613
23493267 7 17968936529951909896
23559900 14 18342173307296839186
25 1 18410007775497479600
2748010 2 18411135844352283211
3071541 37 18408887334789319844
474 4 17749111144457005524
4990 188 17988652934012412796
5104073 3 18408885122991796777
58051976 378 18411696612393902428
633830 44 18336540513527419863
7364860 26 18342739598655162806
81228 2 17550960182893866426
81539 233 18335138730638486372
9709674 26 18410013268713431811
9999458 23 18188774916513785015

>  <PUBCHEM_SHAPE_MULTIPOLES>  (1) 
312.55
7.74
2.44
0.75
1.18
0.37
-0.04
-3.6
-1.56
-1.69
-0.32
-0.21
0.04
0.17

>  <PUBCHEM_SHAPE_SELFOVERLAP>  (1) 
647.346

>  <PUBCHEM_SHAPE_VOLUME>  (1) 
181

>  <PUBCHEM_COORDINATE_TYPE>  (1) 
2
5
10

$$$$
