45544
     RDKit          3D

 16 17  0  0  1  0  0  0  0  0999 V2000
    1.6907    1.2268   -0.3411 O   0  0  0  0  0  0  0  0  0  0  0  0
    2.9716   -1.1577    0.1716 O   0  0  0  0  0  0  0  0  0  0  0  0
   -3.2633    0.3731    0.2304 N   0  0  0  0  0  0  0  0  0  0  0  0
   -1.1487    1.4624   -0.3796 C   0  0  0  0  0  0  0  0  0  0  0  0
   -2.6298    1.2854   -0.7295 C   0  0  0  0  0  0  0  0  0  0  0  0
   -0.4459    0.1532   -0.1308 C   0  0  0  0  0  0  0  0  0  0  0  0
   -2.6996   -0.9817    0.0937 C   0  0  0  0  0  0  0  0  0  0  0  0
   -1.1890   -1.0085    0.1405 C   0  0  0  0  0  0  0  0  0  0  0  0
    0.9538    0.1015   -0.1094 C   0  0  0  0  0  0  0  0  0  0  0  0
   -0.5192   -2.2133    0.3925 C   0  0  0  0  0  0  0  0  0  0  0  0
   -4.7129    0.3431    0.0391 C   0  0  0  0  0  0  0  0  0  0  0  0
    1.6105   -1.1003    0.1539 C   0  0  0  0  0  0  0  0  0  0  0  0
    0.8748   -2.2568    0.4023 C   0  0  0  0  0  0  0  0  0  0  0  0
    2.0299    2.0210    0.7924 C   0  0  0  0  0  0  0  0  0  0  0  0
    2.8534    3.2062    0.3355 C   0  0  0  0  0  0  0  0  0  0  0  0
    3.6236   -1.4545   -1.0616 C   0  0  0  0  0  0  0  0  0  0  0  0
  1  9  1  0
  1 14  1  0
  2 12  1  0
  2 16  1  0
  3  5  1  0
  3  7  1  0
  3 11  1  0
  4  5  1  0
  4  6  1  0
  6  8  2  0
  6  9  1  0
  7  8  1  0
  8 10  1  0
  9 12  2  0
 10 13  2  0
 12 13  1  0
 14 15  1  0
M  END
>  <PUBCHEM_COMPOUND_CID>  (1) 
45544

>  <PUBCHEM_CONFORMER_RMSD>  (1) 
0.6

>  <PUBCHEM_CONFORMER_DIVERSEORDER>  (1) 
1
9
17
18
6
4
16
8
2
7
11
5
3
14
12
10
15
13

>  <PUBCHEM_MMFF94_PARTIAL_CHARGES>  (1) 
17
1 -0.36
10 -0.15
11 0.27
12 0.08
13 -0.15
14 0.28
16 0.28
2 -0.36
23 0.15
27 0.15
3 -0.81
4 0.14
5 0.27
6 -0.14
7 0.41
8 -0.14
9 0.08

>  <PUBCHEM_EFFECTIVE_ROTOR_COUNT>  (1) 
3.8

>  <PUBCHEM_PHARMACOPHORE_FEATURES>  (1) 
5
1 1 acceptor
1 2 acceptor
1 3 cation
6 3 4 5 6 7 8 rings
6 6 8 9 10 12 13 rings

>  <PUBCHEM_HEAVY_ATOM_COUNT>  (1) 
16

>  <PUBCHEM_ATOM_DEF_STEREO_COUNT>  (1) 
0

>  <PUBCHEM_ATOM_UDEF_STEREO_COUNT>  (1) 
0

>  <PUBCHEM_BOND_DEF_STEREO_COUNT>  (1) 
0

>  <PUBCHEM_BOND_UDEF_STEREO_COUNT>  (1) 
0

>  <PUBCHEM_ISOTOPIC_ATOM_COUNT>  (1) 
0

>  <PUBCHEM_COMPONENT_COUNT>  (1) 
1

>  <PUBCHEM_CACTVS_TAUTO_COUNT>  (1) 
1

>  <PUBCHEM_CONFORMER_ID>  (1) 
0000B1E800000001

>  <PUBCHEM_MMFF94_ENERGY>  (1) 
56.9316

>  <PUBCHEM_FEATURE_SELFOVERLAP>  (1) 
25.398

>  <PUBCHEM_SHAPE_FINGERPRINT>  (1) 
10608611 8 18408035204550936261
108231 29 18266178327517039786
10967382 1 18409165510777382097
11471102 20 18410007698346122527
11680986 33 18336272352342710715
12173636 292 17474948109139668540
13140716 1 18335419114298326475
13221675 6 18336829680495554591
13380535 21 18266465484487530624
13380535 76 18194673998149307920
13380536 305 18410575071973570290
13897977 150 18409725196935499049
14250199 8 18342172259007755885
14648413 74 18339644537742007426
14911166 2 18337961090592263094
15219456 202 18338517546465078649
15536298 74 18341611542337075509
16945 1 18337660911138349719
17804303 29 18335707096086946359
18186145 218 18411695470190661685
193761 8 18265614479699370578
20233049 118 18188773834298032038
20511035 2 18190191246209198998
20645477 70 18343012286218379213
20871998 184 17617379927622006650
21029758 11 18341616962928752894
21452121 103 18411972581328047817
21501502 16 18268982262240016266
21524375 3 18124864914032974520
2334 1 18192150610294687923
23402539 116 18056191372230999542
23559900 14 18342179990587166116
2748010 2 18262524826239678983
3071541 12 18412547638915361688
350125 39 18335988579717304405
5104073 3 18335706061748713763
5255222 1 18188482454709830047
53812653 166 18336542733614269514
7364860 26 18342458157832618140
81228 2 17756149243003845803

>  <PUBCHEM_SHAPE_MULTIPOLES>  (1) 
312.55
6.24
2.95
0.8
3.67
1.12
0.07
1.38
0.55
-2.85
-0.4
-0.27
0
0.9

>  <PUBCHEM_SHAPE_SELFOVERLAP>  (1) 
648.33

>  <PUBCHEM_SHAPE_VOLUME>  (1) 
179.9

>  <PUBCHEM_COORDINATE_TYPE>  (1) 
2
5
10

$$$$
