45542
     RDKit          3D

 15 16  0  0  1  0  0  0  0  0999 V2000
    1.6238    1.7435   -0.1956 O   0  0  0  0  0  0  0  0  0  0  0  0
    3.2714   -0.4286    0.2009 O   0  0  0  0  0  0  0  0  0  0  0  0
   -3.1301    0.0638    0.2257 N   0  0  0  0  0  0  0  0  0  0  0  0
   -1.2155    1.5172   -0.2767 C   0  0  0  0  0  0  0  0  0  0  0  0
   -2.6442    1.1240   -0.6659 C   0  0  0  0  0  0  0  0  0  0  0  0
   -0.3110    0.3266   -0.0916 C   0  0  0  0  0  0  0  0  0  0  0  0
   -2.3515   -1.1706    0.0204 C   0  0  0  0  0  0  0  0  0  0  0  0
   -0.8573   -0.9548    0.0957 C   0  0  0  0  0  0  0  0  0  0  0  0
    1.0781    0.5015   -0.0455 C   0  0  0  0  0  0  0  0  0  0  0  0
   -0.0024   -2.0481    0.2895 C   0  0  0  0  0  0  0  0  0  0  0  0
   -4.5533   -0.1892    0.0041 C   0  0  0  0  0  0  0  0  0  0  0  0
    1.9193   -0.5918    0.1595 C   0  0  0  0  0  0  0  0  0  0  0  0
    1.3798   -1.8654    0.3245 C   0  0  0  0  0  0  0  0  0  0  0  0
    1.8174    2.5110    0.9894 C   0  0  0  0  0  0  0  0  0  0  0  0
    3.9755   -0.5392   -1.0344 C   0  0  0  0  0  0  0  0  0  0  0  0
  1  9  1  0
  1 14  1  0
  2 12  1  0
  2 15  1  0
  3  5  1  0
  3  7  1  0
  3 11  1  0
  4  5  1  0
  4  6  1  0
  6  8  2  0
  6  9  1  0
  7  8  1  0
  8 10  1  0
  9 12  2  0
 10 13  2  0
 12 13  1  0
M  END
>  <PUBCHEM_COMPOUND_CID>  (1) 
45542

>  <PUBCHEM_CONFORMER_RMSD>  (1) 
0.6

>  <PUBCHEM_CONFORMER_DIVERSEORDER>  (1) 
1
6
4
5
3
2

>  <PUBCHEM_MMFF94_PARTIAL_CHARGES>  (1) 
17
1 -0.36
10 -0.15
11 0.27
12 0.08
13 -0.15
14 0.28
15 0.28
2 -0.36
22 0.15
26 0.15
3 -0.81
4 0.14
5 0.27
6 -0.14
7 0.41
8 -0.14
9 0.08

>  <PUBCHEM_EFFECTIVE_ROTOR_COUNT>  (1) 
2.8

>  <PUBCHEM_PHARMACOPHORE_FEATURES>  (1) 
5
1 1 acceptor
1 2 acceptor
1 3 cation
6 3 4 5 6 7 8 rings
6 6 8 9 10 12 13 rings

>  <PUBCHEM_HEAVY_ATOM_COUNT>  (1) 
15

>  <PUBCHEM_ATOM_DEF_STEREO_COUNT>  (1) 
0

>  <PUBCHEM_ATOM_UDEF_STEREO_COUNT>  (1) 
0

>  <PUBCHEM_BOND_DEF_STEREO_COUNT>  (1) 
0

>  <PUBCHEM_BOND_UDEF_STEREO_COUNT>  (1) 
0

>  <PUBCHEM_ISOTOPIC_ATOM_COUNT>  (1) 
0

>  <PUBCHEM_COMPONENT_COUNT>  (1) 
1

>  <PUBCHEM_CACTVS_TAUTO_COUNT>  (1) 
1

>  <PUBCHEM_CONFORMER_ID>  (1) 
0000B1E600000001

>  <PUBCHEM_MMFF94_ENERGY>  (1) 
59.4402

>  <PUBCHEM_FEATURE_SELFOVERLAP>  (1) 
25.398

>  <PUBCHEM_SHAPE_FINGERPRINT>  (1) 
10608611 8 18335975411632177573
108231 29 18341331102653322192
10967382 1 18409165506530049995
11132069 177 18411975883962453027
11206711 2 18335417945903386342
11471102 20 18409725149659216903
11680986 33 18193561283565210825
12032990 46 18268432343502389630
13140716 1 18265047110087439067
13221675 6 18409729543231678903
13380535 21 18194409024368539048
13380535 76 18123741217449616496
13380536 305 18410855490493632778
13897977 150 18338228383924162985
14911166 2 18410862057498836438
14993402 34 18411985736733552558
15219456 202 18339922743800323345
15536298 74 18271242832361024281
15775835 57 18334581209096628143
16945 1 18338785750087920003
17802600 8 18408315584273783797
17804303 29 18409735062111407159
18186145 218 18412821408699514389
193761 8 17977103788164508882
20201158 50 18335420136674434003
20233049 118 18334013870050464868
20511035 2 18119818151366619286
20588541 1 18335425633910897346
20645477 70 18343576365774651087
21029758 11 18343587334999909264
21501502 16 18197208372282532982
2334 1 18048877690975122187
23402539 116 18200304425776531694
23402655 69 18265604408644308853
23463225 33 18116145567871309386
23493267 7 17095242514605580145
23559900 14 18412832374700541726
25 1 18334858272989055407
2748010 2 18120094137074445163
3060560 45 18130785633561274102
5255222 1 18334847290768060237
528886 8 18408599258036620163
53812653 166 18410287017249185738
63268167 104 18264770969544265515
7364860 26 18272650198934425712
81228 2 17613715242503248811
8809292 202 18186526531157045211

>  <PUBCHEM_SHAPE_MULTIPOLES>  (1) 
291.97
6.12
2.23
0.8
2.37
0.61
0.03
-0.31
0.96
-0.9
-0.47
-0.34
0.14
0.53

>  <PUBCHEM_SHAPE_SELFOVERLAP>  (1) 
610.496

>  <PUBCHEM_SHAPE_VOLUME>  (1) 
167.1

>  <PUBCHEM_COORDINATE_TYPE>  (1) 
2
5
10

$$$$
