4554
     RDKit          3D

 14 13  0  0  1  0  0  0  0  0999 V2000
    2.4246   -2.5809   -0.1940 Br  0  0  0  0  0  0  0  0  0  0  0  0
    1.4298    1.6653   -1.4272 Cl  0  0  0  0  0  0  0  0  0  0  0  0
   -2.5971   -2.1316    0.4874 Cl  0  0  0  0  0  0  0  0  0  0  0  0
    4.2257    0.8730    0.2211 Cl  0  0  0  0  0  0  0  0  0  0  0  0
    1.5633    0.2035   -0.3328 C   0  0  0  0  0  0  0  0  0  0  0  0
    0.1306   -0.0493    0.2395 C   0  0  0  0  0  0  0  0  0  0  0  0
   -0.9705   -0.3766   -0.7867 C   0  0  0  0  0  0  0  0  0  0  0  0
    2.0533   -0.9604   -1.2184 C   0  0  0  0  0  0  0  0  0  0  0  0
   -2.3236   -0.5200   -0.1244 C   0  0  0  0  0  0  0  0  0  0  0  0
    2.5844    0.5797    0.7536 C   0  0  0  0  0  0  0  0  0  0  0  0
   -3.2404    0.4611    0.0321 C   0  0  0  0  0  0  0  0  0  0  0  0
   -4.5750    0.2482    0.7048 C   0  0  0  0  0  0  0  0  0  0  0  0
   -3.0551    1.8892   -0.4248 C   0  0  0  0  0  0  0  0  0  0  0  0
    2.3499    0.6986    2.0698 C   0  0  0  0  0  0  0  0  0  0  0  0
  1  8  1  0
  2  5  1  0
  3  9  1  0
  4 10  1  0
  5  6  1  0
  5  8  1  0
  5 10  1  0
  6  7  1  0
  7  9  1  0
  9 11  2  3
 10 14  2  0
 11 12  1  0
 11 13  1  0
M  END
>  <PUBCHEM_COMPOUND_CID>  (1) 
4554

>  <PUBCHEM_CONFORMER_RMSD>  (1) 
0.6

>  <PUBCHEM_CONFORMER_DIVERSEORDER>  (1) 
2
160
113
241
44
133
228
179
138
61
178
55
139
199
110
215
102
220
129
165
127
128
182
162
169
146
85
174
232
126
154
217
171
225
91
147
242
79
82
202
209
78
197
218
122
84
157
195
143
221
213
243
227
222
108
206
140
219
151
205
230
166
119
71
141
145
236
73
48
231
187
63
196
12
211
80
170
103
101
134
233
70
235
212
194
74
201
223
135
150
130
114
76
40
83
153
168
77
180
62
98
94
193
118
75
37
186
54
105
72
184
185
161
207
6
124
81
96
120
112
132
49
4
167
87
57
208
224
88
226
41
200
188
125
173
97
159
89
155
117
111
53
149
216
163
52
92
47
237
152
148
86
136
121
93
24
69
123
58
64
204
5
100
50
11
67
29
229
106
66
109
10
60
34
107
65
68
59
144
17
214
46
99
95
45
158
1
156
175
137
192
203
3
19
21
26
27
39
38
22
7
191
239
90
142
36
28
115
20
42
240
190
164
32
9
15
30
104
43
198
177
18
210
31
189
16
116
51
25
183
172
238
131
234
176
181
8
14
56
13
35
23
33

>  <PUBCHEM_MMFF94_PARTIAL_CHARGES>  (1) 
13
1 -0.23
11 -0.28
12 0.14
13 0.14
14 -0.3
2 -0.29
27 0.15
28 0.15
3 -0.14
4 -0.14
5 0.43
7 0.14
8 0.23

>  <PUBCHEM_EFFECTIVE_ROTOR_COUNT>  (1) 
5

>  <PUBCHEM_PHARMACOPHORE_FEATURES>  (1) 
2
1 1 hydrophobe
3 11 12 13 hydrophobe

>  <PUBCHEM_HEAVY_ATOM_COUNT>  (1) 
14

>  <PUBCHEM_ATOM_DEF_STEREO_COUNT>  (1) 
0

>  <PUBCHEM_ATOM_UDEF_STEREO_COUNT>  (1) 
1

>  <PUBCHEM_BOND_DEF_STEREO_COUNT>  (1) 
0

>  <PUBCHEM_BOND_UDEF_STEREO_COUNT>  (1) 
0

>  <PUBCHEM_ISOTOPIC_ATOM_COUNT>  (1) 
0

>  <PUBCHEM_COMPONENT_COUNT>  (1) 
1

>  <PUBCHEM_CACTVS_TAUTO_COUNT>  (1) 
1

>  <PUBCHEM_CONFORMER_ID>  (1) 
000011CA00000002

>  <PUBCHEM_MMFF94_ENERGY>  (1) 
25.5183

>  <PUBCHEM_FEATURE_SELFOVERLAP>  (1) 
10.149

>  <PUBCHEM_SHAPE_FINGERPRINT>  (1) 
10366900 7 18201147853867796129
10922523 26 18337392639012160199
11132069 177 18410859876193273141
12251169 10 18040433321641422189
12500047 106 18342170076948266867
12932764 1 17775287196320196759
13134695 92 16487257656101489768
13533116 47 18201152162205751711
14144814 61 17967813825664349597
14178342 30 18335695087290204819
14252887 29 17967536748676004464
15219456 202 18340765944701536862
15775835 57 17704071810988047055
17041 49 17822004328550762980
18186145 218 18200600189956110783
19049666 15 18270963432059142075
19784866 135 17609490532472135322
20279233 1 18059862800232231623
20559304 39 18261119581675742077
20645477 56 18408886231114749477
20645477 70 17632019658605417102
21730867 7 18131634499708745806
22892500 29 17560507443999690512
231179 274 17203609311144879160
23419403 2 17336430101274441890
23557571 272 18130791221751081807
23559900 14 18410296882694398431
23598291 2 17604150449002909470
3248919 1 18334572490508241751
495365 180 17987502737375317199
633830 44 17703219741459635884
7364860 26 17988083292521225182

>  <PUBCHEM_SHAPE_MULTIPOLES>  (1) 
299.67
7.68
2.24
1.35
4.42
1.23
0.32
-1.23
1.65
-0.43
-0.34
-0.98
-0.37
0.68

>  <PUBCHEM_SHAPE_SELFOVERLAP>  (1) 
530.71

>  <PUBCHEM_SHAPE_VOLUME>  (1) 
197.8

>  <PUBCHEM_COORDINATE_TYPE>  (1) 
2
5
10

$$$$
