4555
     RDKit          3D

 14 13  0  0  1  0  0  0  0  0999 V2000
   -2.3982    2.6013   -0.0185 Br  0  0  0  0  0  0  0  0  0  0  0  0
    2.7351    2.2829    0.4248 Br  0  0  0  0  0  0  0  0  0  0  0  0
   -1.4408   -1.5625   -1.5293 Cl  0  0  0  0  0  0  0  0  0  0  0  0
   -4.2192   -0.8685    0.1848 Cl  0  0  0  0  0  0  0  0  0  0  0  0
   -1.5578   -0.1739   -0.3426 C   0  0  0  0  0  0  0  0  0  0  0  0
   -0.1204    0.0350    0.2353 C   0  0  0  0  0  0  0  0  0  0  0  0
    0.9764    0.4193   -0.7763 C   0  0  0  0  0  0  0  0  0  0  0  0
   -2.0464    1.0477   -1.1481 C   0  0  0  0  0  0  0  0  0  0  0  0
    2.3399    0.5175   -0.1165 C   0  0  0  0  0  0  0  0  0  0  0  0
   -2.5738   -0.6135    0.7245 C   0  0  0  0  0  0  0  0  0  0  0  0
    3.1958   -0.5188    0.0437 C   0  0  0  0  0  0  0  0  0  0  0  0
    4.5532   -0.4230    0.7000 C   0  0  0  0  0  0  0  0  0  0  0  0
    2.8880   -1.9265   -0.4106 C   0  0  0  0  0  0  0  0  0  0  0  0
   -2.3318   -0.8170    2.0288 C   0  0  0  0  0  0  0  0  0  0  0  0
  1  8  1  0
  2  9  1  0
  3  5  1  0
  4 10  1  0
  5  6  1  0
  5  8  1  0
  5 10  1  0
  6  7  1  0
  7  9  1  0
  9 11  2  3
 10 14  2  0
 11 12  1  0
 11 13  1  0
M  END
>  <PUBCHEM_COMPOUND_CID>  (1) 
4555

>  <PUBCHEM_CONFORMER_RMSD>  (1) 
0.6

>  <PUBCHEM_CONFORMER_DIVERSEORDER>  (1) 
1
188
186
100
75
169
207
71
198
152
128
200
170
161
129
155
208
136
108
201
183
175
96
184
135
191
122
196
44
181
178
112
192
160
166
73
185
162
110
157
76
20
87
131
133
141
167
63
193
209
203
2
187
98
189
35
139
94
173
77
62
153
103
197
121
9
130
148
72
59
146
81
42
151
140
60
56
84
179
172
83
159
124
194
32
132
204
126
89
86
68
202
61
88
115
37
11
102
36
43
106
74
3
168
28
79
101
67
91
49
99
117
119
12
82
154
30
111
48
114
58
147
104
31
10
137
41
107
163
93
46
149
156
19
165
206
143
5
171
118
69
4
113
176
53
134
142
52
80
190
33
65
123
150
45
23
205
22
145
195
95
174
92
39
138
177
16
164
24
182
55
29
116
90
109
6
47
64
120
127
21
97
144
105
25
17
158
70
85
26
66
57
50
125
18
15
54
8
199
51
38
13
14
27
78
34
7
180
40

>  <PUBCHEM_MMFF94_PARTIAL_CHARGES>  (1) 
14
1 -0.23
11 -0.28
12 0.14
13 0.14
14 -0.3
2 -0.11
27 0.15
28 0.15
3 -0.29
4 -0.14
5 0.43
7 0.14
8 0.23
9 -0.03

>  <PUBCHEM_EFFECTIVE_ROTOR_COUNT>  (1) 
5

>  <PUBCHEM_PHARMACOPHORE_FEATURES>  (1) 
3
1 1 hydrophobe
1 2 hydrophobe
3 11 12 13 hydrophobe

>  <PUBCHEM_HEAVY_ATOM_COUNT>  (1) 
14

>  <PUBCHEM_ATOM_DEF_STEREO_COUNT>  (1) 
0

>  <PUBCHEM_ATOM_UDEF_STEREO_COUNT>  (1) 
1

>  <PUBCHEM_BOND_DEF_STEREO_COUNT>  (1) 
0

>  <PUBCHEM_BOND_UDEF_STEREO_COUNT>  (1) 
0

>  <PUBCHEM_ISOTOPIC_ATOM_COUNT>  (1) 
0

>  <PUBCHEM_COMPONENT_COUNT>  (1) 
1

>  <PUBCHEM_CACTVS_TAUTO_COUNT>  (1) 
1

>  <PUBCHEM_CONFORMER_ID>  (1) 
000011CB00000001

>  <PUBCHEM_MMFF94_ENERGY>  (1) 
26.5022

>  <PUBCHEM_FEATURE_SELFOVERLAP>  (1) 
15.223

>  <PUBCHEM_SHAPE_FINGERPRINT>  (1) 
10366900 7 18261966231467251682
10922523 26 18339922619541560524
12251169 10 18060138764739469406
12932764 1 18271248317340307572
13024252 1 17603301557892228335
13296908 3 18338801104991700742
15653759 3 18334859398449847992
15775835 57 18058171802724679052
18186145 218 17775003531421822288
19049666 15 18262236612548659488
200 152 18410003360545308631
20279233 1 18041000656651172154
20645477 70 18409444812717263326
20711983 138 17749394797097783569
21524375 3 18047749296167515325
23048698 100 18060145387315237378
2306618 200 17775280552222093537
23402539 116 18409444791943702511
23557571 272 15719662260406049396
23559900 14 17676769876397784948
23598291 2 17916870239324545532
3248919 1 17748823046724854180
3286 77 18187080663637215202
45790113 50 18114186370961990773
45790113 53 18343866601930763749
58051976 100 18342177752186537991
6049 1 18335708238722430852
81228 2 17894638049966025917
9709674 26 18335706022308452394

>  <PUBCHEM_SHAPE_MULTIPOLES>  (1) 
303.74
7.63
2.38
1.33
3.69
1.47
0.27
-1.21
1.68
-0.01
-0.25
-0.97
-0.41
0.53

>  <PUBCHEM_SHAPE_SELFOVERLAP>  (1) 
533.758

>  <PUBCHEM_SHAPE_VOLUME>  (1) 
202.3

>  <PUBCHEM_COORDINATE_TYPE>  (1) 
2
5
10

$$$$
