45569
     RDKit          3D

 14 14  0  0  0  0  0  0  0  0999 V2000
   -0.9455    0.2539   -2.5307 Cl  0  0  0  0  0  0  0  0  0  0  0  0
    3.5540    0.2722    0.0877 O   0  0  0  0  0  0  0  0  0  0  0  0
    3.4762   -2.0155   -0.0784 N   0  0  0  0  0  0  0  0  0  0  0  0
    1.4242    2.6767    0.3705 N   0  0  0  0  0  0  0  0  0  0  0  0
   -0.8692   -0.0044    0.1920 C   0  0  0  0  0  0  0  0  0  0  0  0
   -1.6406   -0.0136   -0.9701 C   0  0  0  0  0  0  0  0  0  0  0  0
   -1.4714   -0.2249    1.4307 C   0  0  0  0  0  0  0  0  0  0  0  0
    0.5700    0.2309    0.1681 C   0  0  0  0  0  0  0  0  0  0  0  0
   -3.0142   -0.2433   -0.8935 C   0  0  0  0  0  0  0  0  0  0  0  0
   -2.8451   -0.4545    1.5072 C   0  0  0  0  0  0  0  0  0  0  0  0
   -3.6166   -0.4637    0.3452 C   0  0  0  0  0  0  0  0  0  0  0  0
    1.4139   -0.8267    0.0627 C   0  0  0  0  0  0  0  0  0  0  0  0
    2.9064   -0.7662    0.0290 C   0  0  0  0  0  0  0  0  0  0  0  0
    1.0579    1.5791    0.2794 C   0  0  0  0  0  0  0  0  0  0  0  0
  1  6  1  0
  2 13  2  0
  3 13  1  0
  4 14  3  0
  5  6  2  0
  5  7  1  0
  5  8  1  0
  6  9  1  0
  7 10  2  0
  8 12  2  0
  8 14  1  0
  9 11  2  0
 10 11  1  0
 12 13  1  0
M  END
>  <PUBCHEM_COMPOUND_CID>  (1) 
45569

>  <PUBCHEM_CONFORMER_RMSD>  (1) 
0.6

>  <PUBCHEM_CONFORMER_DIVERSEORDER>  (1) 
1
8
9
4
6
5
3
7
2
10

>  <PUBCHEM_MMFF94_PARTIAL_CHARGES>  (1) 
21
1 -0.18
10 -0.15
11 -0.15
12 -0.14
13 0.62
14 0.49
15 0.15
16 0.15
17 0.15
18 0.15
19 0.15
2 -0.57
20 0.37
21 0.37
3 -0.8
4 -0.56
5 0.03
6 0.18
7 -0.15
8 0.04
9 -0.15

>  <PUBCHEM_EFFECTIVE_ROTOR_COUNT>  (1) 
2

>  <PUBCHEM_PHARMACOPHORE_FEATURES>  (1) 
4
1 2 acceptor
1 3 donor
1 4 acceptor
6 5 6 7 9 10 11 rings

>  <PUBCHEM_HEAVY_ATOM_COUNT>  (1) 
14

>  <PUBCHEM_ATOM_DEF_STEREO_COUNT>  (1) 
0

>  <PUBCHEM_ATOM_UDEF_STEREO_COUNT>  (1) 
0

>  <PUBCHEM_BOND_DEF_STEREO_COUNT>  (1) 
0

>  <PUBCHEM_BOND_UDEF_STEREO_COUNT>  (1) 
1

>  <PUBCHEM_ISOTOPIC_ATOM_COUNT>  (1) 
0

>  <PUBCHEM_COMPONENT_COUNT>  (1) 
1

>  <PUBCHEM_CACTVS_TAUTO_COUNT>  (1) 
2

>  <PUBCHEM_CONFORMER_ID>  (1) 
0000B20100000001

>  <PUBCHEM_MMFF94_ENERGY>  (1) 
37.072

>  <PUBCHEM_FEATURE_SELFOVERLAP>  (1) 
20.297

>  <PUBCHEM_SHAPE_FINGERPRINT>  (1) 
13296908 3 18336825291038770202
13538477 17 16916216827198765117
15219456 202 17968095394798167809
15375462 175 16153416242999102393
15375462 478 17989215828125867657
15669948 3 15697424645933804284
16945 1 18341056293054287675
17357990 137 17059237962534739889
1813 80 17988097590746454460
19765921 60 17054423359840861209
20281407 28 17603594018730890994
20361792 2 18272362032372060342
20645476 183 17487899119295521005
20871999 31 15791735222037792083
21061003 4 18337113379974914450
22112679 90 16988564666463061377
22802520 49 17241039890688760086
23526113 38 18041825230342396434
23557571 272 16950565489057183468
23559900 14 16878216486052298650
23598291 2 17774724289116306669
2748010 2 16226897820822750895
3286 77 18335422395837677171
43471831 8 15913051967559985255
474 4 17700678830122579400
77492 1 17561366213877588721
81228 2 17977943480431298480
84936 31 18189628313635867124
9981440 41 13626671577226308838

>  <PUBCHEM_SHAPE_MULTIPOLES>  (1) 
274.15
5.71
1.62
1.56
1.51
0.64
0.72
-1.69
-1.55
-0.96
-0.29
1.38
0.4
1.17

>  <PUBCHEM_SHAPE_SELFOVERLAP>  (1) 
566.725

>  <PUBCHEM_SHAPE_VOLUME>  (1) 
156.7

>  <PUBCHEM_COORDINATE_TYPE>  (1) 
2
5
10

$$$$
