45579
     RDKit          3D

 23 23  0  0  1  0  0  0  0  0999 V2000
    2.6037    0.3230   -2.4234 O   0  0  0  0  0  0  0  0  0  0  0  0
    1.5715    3.2734    2.5379 O   0  0  0  0  0  0  0  0  0  0  0  0
    1.0822    3.3348    0.3200 O   0  0  0  0  0  0  0  0  0  0  0  0
   -3.8716   -3.3678    0.9742 O   0  0  0  0  0  0  0  0  0  0  0  0
   -3.9014    1.7964   -2.4578 O   0  0  0  0  0  0  0  0  0  0  0  0
   -3.8439   -1.2724    1.8523 O   0  0  0  0  0  0  0  0  0  0  0  0
   -3.4932    2.0242   -0.2343 O   0  0  0  0  0  0  0  0  0  0  0  0
    1.3433    0.6030    0.1723 N   0  0  0  0  0  0  0  0  0  0  0  0
   -2.2272   -0.4162   -0.2003 N   0  0  0  0  0  0  0  0  0  0  0  0
    2.1205   -0.5722   -0.2321 C   0  0  0  0  0  0  0  0  0  0  0  0
    3.2153   -0.1634   -1.2298 C   0  0  0  0  0  0  0  0  0  0  0  0
    2.7185   -1.2527    1.0056 C   0  0  0  0  0  0  0  0  0  0  0  0
    4.1109   -1.3506   -1.5921 C   0  0  0  0  0  0  0  0  0  0  0  0
    3.6055   -2.4354    0.6239 C   0  0  0  0  0  0  0  0  0  0  0  0
    4.6981   -2.0210   -0.3563 C   0  0  0  0  0  0  0  0  0  0  0  0
    0.0027    0.2040    0.5954 C   0  0  0  0  0  0  0  0  0  0  0  0
    2.0287    1.3203    1.2452 C   0  0  0  0  0  0  0  0  0  0  0  0
   -0.8940   -0.0006   -0.6220 C   0  0  0  0  0  0  0  0  0  0  0  0
    1.5002    2.7271    1.2975 C   0  0  0  0  0  0  0  0  0  0  0  0
   -2.2375   -1.8382    0.1465 C   0  0  0  0  0  0  0  0  0  0  0  0
   -3.2084   -0.1424   -1.2515 C   0  0  0  0  0  0  0  0  0  0  0  0
   -3.3958   -2.1001    1.0689 C   0  0  0  0  0  0  0  0  0  0  0  0
   -3.5282    1.3268   -1.2402 C   0  0  0  0  0  0  0  0  0  0  0  0
  1 11  1  0
  2 19  1  0
  3 19  2  0
  4 22  1  0
  5 23  1  0
  6 22  2  0
  7 23  2  0
  8 10  1  0
  8 16  1  0
  8 17  1  0
  9 18  1  0
  9 20  1  0
  9 21  1  0
 10 11  1  0
 10 12  1  0
 11 13  1  0
 12 14  1  0
 13 15  1  0
 14 15  1  0
 16 18  1  0
 17 19  1  0
 20 22  1  0
 21 23  1  0
M  END
>  <PUBCHEM_COMPOUND_CID>  (1) 
45579

>  <PUBCHEM_CONFORMER_RMSD>  (1) 
1

>  <PUBCHEM_CONFORMER_DIVERSEORDER>  (1) 
1
147
103
107
125
146
109
85
115
3
55
141
145
40
124
90
116
30
63
15
126
19
150
62
151
60
149
65
134
76
38
66
148
42
143
57
139
70
105
87
108
11
79
51
106
26
48
114
77
117
92
80
37
122
61
95
101
111
75
73
50
99
54
131
133
5
142
86
49
43
84
56
136
127
152
102
137
22
67
132
130
25
29
113
44
144
39
6
119
24
96
68
121
91
20
81
35
129
128
34
118
28
74
83
110
52
59
32
78
97
82
138
14
100
47
36
64
153
18
135
140
8
23
21
93
46
154
155
58
89
4
71
156
41
69
94
27
120
98
53
17
9
123
72
45
112
33
7
16
2
31
12
10
13
104
88

>  <PUBCHEM_MMFF94_PARTIAL_CHARGES>  (1) 
23
1 -0.68
10 0.27
11 0.28
16 0.27
17 0.33
18 0.27
19 0.66
2 -0.65
20 0.33
21 0.33
22 0.66
23 0.66
3 -0.57
4 -0.65
40 0.4
45 0.5
46 0.5
47 0.5
5 -0.65
6 -0.57
7 -0.57
8 -0.81
9 -0.81

>  <PUBCHEM_EFFECTIVE_ROTOR_COUNT>  (1) 
11.2

>  <PUBCHEM_PHARMACOPHORE_FEATURES>  (1) 
14
1 1 acceptor
1 1 donor
1 2 acceptor
1 3 acceptor
1 4 acceptor
1 5 acceptor
1 6 acceptor
1 7 acceptor
1 8 cation
1 9 cation
3 2 3 19 anion
3 4 6 22 anion
3 5 7 23 anion
6 10 11 12 13 14 15 rings

>  <PUBCHEM_HEAVY_ATOM_COUNT>  (1) 
23

>  <PUBCHEM_ATOM_DEF_STEREO_COUNT>  (1) 
0

>  <PUBCHEM_ATOM_UDEF_STEREO_COUNT>  (1) 
2

>  <PUBCHEM_BOND_DEF_STEREO_COUNT>  (1) 
0

>  <PUBCHEM_BOND_UDEF_STEREO_COUNT>  (1) 
0

>  <PUBCHEM_ISOTOPIC_ATOM_COUNT>  (1) 
0

>  <PUBCHEM_COMPONENT_COUNT>  (1) 
1

>  <PUBCHEM_CACTVS_TAUTO_COUNT>  (1) 
1

>  <PUBCHEM_CONFORMER_ID>  (1) 
0000B20B00000001

>  <PUBCHEM_MMFF94_ENERGY>  (1) 
42.7536

>  <PUBCHEM_FEATURE_SELFOVERLAP>  (1) 
71.224

>  <PUBCHEM_SHAPE_FINGERPRINT>  (1) 
11578080 2 18335138725769305236
121448 382 12613900399778913640
12160290 23 17198002695275839576
12363563 72 17917423173371846060
12549972 3 18410281532686900969
12553582 1 17917724469775920390
12633257 1 18057351481668386851
12707595 3 18272092703505126270
12714826 92 18334869311308317595
12788726 201 17837200485758682722
13134695 92 17988633091363991692
13533116 47 18055646259467000635
13583140 156 18340476867601421095
13673619 4 18192174748122051235
14115302 16 18116148879158823126
14251757 5 18192434069593684356
15295992 7 18342455929129759049
15806764 133 18412269462462835437
15842332 3 15285899378366574849
17349148 13 16415184689842619231
1813 80 17417267467358567758
20600515 1 18269282261822384868
20645477 70 17988349455622611790
21524375 3 17123372652082411808
22943178 12 18337096982079740275
23557571 272 17897151645173664155
23559900 14 18260540173649923823
2818148 4 18120405230610222985
6049 1 18337954605476190185
621550 34 17907292509556946017
7399639 24 17907288111394513777
7615 1 15069160382108296557
81228 2 17699860514250939208
9658208 31 18114726163301058525
9709674 26 18267004206862705759
9981440 41 17336980187716994313

>  <PUBCHEM_SHAPE_MULTIPOLES>  (1) 
422.28
9.05
3.64
2.05
2.01
1.51
0.37
-5.26
2.37
0.53
-2.26
0.27
0.92
2.99

>  <PUBCHEM_SHAPE_SELFOVERLAP>  (1) 
842.319

>  <PUBCHEM_SHAPE_VOLUME>  (1) 
247.6

>  <PUBCHEM_COORDINATE_TYPE>  (1) 
2
5
10

$$$$
