45574
     RDKit          3D

 10  9  0  0  0  0  0  0  0  0999 V2000
    4.2623    0.6637    0.9072 F   0  0  0  0  0  0  0  0  0  0  0  0
   -4.2623   -0.6640    0.9071 F   0  0  0  0  0  0  0  0  0  0  0  0
    1.8136    0.1138   -0.2300 O   0  0  0  0  0  0  0  0  0  0  0  0
   -1.8136   -0.1138   -0.2301 O   0  0  0  0  0  0  0  0  0  0  0  0
    0.5442   -0.5280   -0.2198 C   0  0  0  0  0  0  0  0  0  0  0  0
   -0.5442    0.5281   -0.2197 C   0  0  0  0  0  0  0  0  0  0  0  0
    2.8746   -0.8310   -0.2305 C   0  0  0  0  0  0  0  0  0  0  0  0
   -2.8746    0.8311   -0.2304 C   0  0  0  0  0  0  0  0  0  0  0  0
    4.1905   -0.0857   -0.2270 C   0  0  0  0  0  0  0  0  0  0  0  0
   -4.1905    0.0858   -0.2269 C   0  0  0  0  0  0  0  0  0  0  0  0
  1  9  1  0
  2 10  1  0
  3  5  1  0
  3  7  1  0
  4  6  1  0
  4  8  1  0
  5  6  1  0
  7  9  1  0
  8 10  1  0
M  END
>  <PUBCHEM_COMPOUND_CID>  (1) 
45574

>  <PUBCHEM_CONFORMER_RMSD>  (1) 
0.6

>  <PUBCHEM_CONFORMER_DIVERSEORDER>  (1) 
3
55
128
43
107
87
130
114
89
133
8
132
126
99
139
5
85
115
50
98
131
75
33
113
123
77
68
56
121
137
29
30
106
90
88
72
86
111
109
97
112
7
116
49
34
105
69
140
110
31
94
118
103
71
91
16
119
100
32
11
92
138
26
48
57
61
17
74
127
95
65
51
24
27
96
122
76
81
25
35
134
104
2
64
108
78
102
67
36
40
135
58
38
52
6
93
125
66
23
54
47
73
41
4
37
28
42
82
39
53
21
22
20
124
117
13
101
19
62
14
46
45
120
1
44
15
136
10
18
80
79
12
84
70
63
83
9
129
60
59

>  <PUBCHEM_MMFF94_PARTIAL_CHARGES>  (1) 
10
1 -0.34
10 0.34
2 -0.34
3 -0.56
4 -0.56
5 0.28
6 0.28
7 0.28
8 0.28
9 0.34

>  <PUBCHEM_EFFECTIVE_ROTOR_COUNT>  (1) 
7

>  <PUBCHEM_PHARMACOPHORE_FEATURES>  (1) 
2
1 3 acceptor
1 4 acceptor

>  <PUBCHEM_HEAVY_ATOM_COUNT>  (1) 
10

>  <PUBCHEM_ATOM_DEF_STEREO_COUNT>  (1) 
0

>  <PUBCHEM_ATOM_UDEF_STEREO_COUNT>  (1) 
0

>  <PUBCHEM_BOND_DEF_STEREO_COUNT>  (1) 
0

>  <PUBCHEM_BOND_UDEF_STEREO_COUNT>  (1) 
0

>  <PUBCHEM_ISOTOPIC_ATOM_COUNT>  (1) 
0

>  <PUBCHEM_COMPONENT_COUNT>  (1) 
1

>  <PUBCHEM_CACTVS_TAUTO_COUNT>  (1) 
1

>  <PUBCHEM_CONFORMER_ID>  (1) 
0000B20600000003

>  <PUBCHEM_MMFF94_ENERGY>  (1) 
9.4179

>  <PUBCHEM_FEATURE_SELFOVERLAP>  (1) 
10.149

>  <PUBCHEM_SHAPE_FINGERPRINT>  (1) 
11062470 55 16487254365554790284
11987891 27 15647051572916257514
12932764 1 15697421231355656605
13237642 15 18410856589704561035
14123238 8 18410575097547980932
14325111 11 18338516339632035558
17834076 25 14908180854246275437
18342897 14 17489872622355540449
190213 19 18260268525289347927
20211469 26 13117998885706778415
20645477 70 17915737583070435566
20719005 15 18411136926805114310
20828058 21 18114184116241206270
20828058 44 18040718065046073091
22485316 2 18040713645582780147
23402539 116 15285633300805506935
449060 50 18202281420343996580

>  <PUBCHEM_SHAPE_MULTIPOLES>  (1) 
179.51
9.8
0.86
0.74
0
0
0.07
0
1.45
0
0.04
0
0
0.56

>  <PUBCHEM_SHAPE_SELFOVERLAP>  (1) 
322.208

>  <PUBCHEM_SHAPE_VOLUME>  (1) 
115.9

>  <PUBCHEM_COORDINATE_TYPE>  (1) 
2
5
10

$$$$
