45588
     RDKit          3D

 15 17  0  0  1  0  0  0  0  0999 V2000
   -2.5852    0.3153    1.1624 N   0  0  0  0  0  0  0  0  0  0  0  0
    1.0525   -1.7005    0.0290 N   0  0  0  0  0  0  0  0  0  0  0  0
   -1.8001    0.6209   -0.0532 C   0  0  0  0  0  0  0  0  0  0  0  0
   -2.7002    0.2740   -1.2448 C   0  0  0  0  0  0  0  0  0  0  0  0
   -4.0253   -0.1418   -0.6248 C   0  0  0  0  0  0  0  0  0  0  0  0
   -0.4745   -0.0903   -0.0230 C   0  0  0  0  0  0  0  0  0  0  0  0
   -3.9857    0.4784    0.7564 C   0  0  0  0  0  0  0  0  0  0  0  0
    0.8125    0.5169   -0.0221 C   0  0  0  0  0  0  0  0  0  0  0  0
   -0.2941   -1.4539    0.0086 C   0  0  0  0  0  0  0  0  0  0  0  0
    1.7526   -0.5153    0.0111 C   0  0  0  0  0  0  0  0  0  0  0  0
    1.2691    1.8497   -0.0464 C   0  0  0  0  0  0  0  0  0  0  0  0
    3.1321   -0.2802    0.0215 C   0  0  0  0  0  0  0  0  0  0  0  0
    1.6388   -3.0229    0.0644 C   0  0  0  0  0  0  0  0  0  0  0  0
    2.6461    2.1000   -0.0365 C   0  0  0  0  0  0  0  0  0  0  0  0
    3.5615    1.0498   -0.0027 C   0  0  0  0  0  0  0  0  0  0  0  0
  1  3  1  0
  1  7  1  0
  2  9  1  0
  2 10  1  0
  2 13  1  0
  3  4  1  0
  3  6  1  0
  4  5  1  0
  5  7  1  0
  6  8  1  0
  6  9  2  0
  8 10  2  0
  8 11  1  0
 10 12  1  0
 11 14  2  0
 12 15  2  0
 14 15  1  0
M  END
>  <PUBCHEM_COMPOUND_CID>  (1) 
45588

>  <PUBCHEM_CONFORMER_RMSD>  (1) 
0.6

>  <PUBCHEM_CONFORMER_DIVERSEORDER>  (1) 
1
2
6
7
5
4
8
3

>  <PUBCHEM_MMFF94_PARTIAL_CHARGES>  (1) 
18
1 -0.9
10 -0.15
11 -0.15
12 -0.15
13 0.26
14 -0.15
15 -0.15
2 0.05
23 0.36
24 0.15
25 0.15
26 0.15
3 0.45
30 0.15
31 0.15
6 -0.18
7 0.27
9 -0.3

>  <PUBCHEM_EFFECTIVE_ROTOR_COUNT>  (1) 
2

>  <PUBCHEM_PHARMACOPHORE_FEATURES>  (1) 
6
1 1 cation
1 1 donor
1 2 cation
5 1 3 4 5 7 rings
5 2 6 8 9 10 rings
6 8 10 11 12 14 15 rings

>  <PUBCHEM_HEAVY_ATOM_COUNT>  (1) 
15

>  <PUBCHEM_ATOM_DEF_STEREO_COUNT>  (1) 
0

>  <PUBCHEM_ATOM_UDEF_STEREO_COUNT>  (1) 
1

>  <PUBCHEM_BOND_DEF_STEREO_COUNT>  (1) 
0

>  <PUBCHEM_BOND_UDEF_STEREO_COUNT>  (1) 
0

>  <PUBCHEM_ISOTOPIC_ATOM_COUNT>  (1) 
0

>  <PUBCHEM_COMPONENT_COUNT>  (1) 
1

>  <PUBCHEM_CACTVS_TAUTO_COUNT>  (1) 
1

>  <PUBCHEM_CONFORMER_ID>  (1) 
0000B21400000001

>  <PUBCHEM_MMFF94_ENERGY>  (1) 
22.4404

>  <PUBCHEM_FEATURE_SELFOVERLAP>  (1) 
30.538

>  <PUBCHEM_SHAPE_FINGERPRINT>  (1) 
1 1 18410009953177611758
10219947 1 18334575750177468068
10465860 228 18270410377642091441
10608611 8 18260543381990877101
10967382 1 18410292510491238622
10980938 120 18410290294145708556
11471102 20 18410008827632500972
11543360 7 15769212881256415136
12236239 1 17847061073819935413
12553582 1 17762621689873275495
12654215 9 18261382300683134908
13140716 1 18338231686748680770
13380535 76 18335980960344854170
13581323 91 14923944561434128681
13862211 1 18337948979523167778
14251717 144 18411414012050948383
14897335 6 18341045336830176788
14911166 2 18411708699069858724
15219456 202 18113898221980589741
15279307 12 18202277030924733423
15309172 13 18336548316918688937
15442244 35 17980764831267564361
15775835 57 18272653480210299141
16945 1 18410011009686753886
1813 80 17626680297108188190
18175812 5 17749108924021937629
18186145 218 18342178890295095940
19049666 15 17678733436835257077
193761 8 17762054342336813172
19422 9 17846781801945046599
200 152 18272080622225969637
20279233 1 17675925387475530219
204376 136 18336547243324687892
20510252 161 17765716110724735458
20645477 70 18265040363231861215
21041028 32 18052262790845154049
21499 59 18338514256520207948
21524375 3 18341610485812063550
21639500 275 18338785788737312157
21730867 7 18334012783059754991
2255824 54 18341334396598222318
22854114 111 18410856564008791805
2334 1 18049723211343220356
23402539 116 17775001301774983852
23402655 69 18343016683996293461
23559900 14 16443340923403363538
23598291 2 17916020166538844975
25 1 18409449202205163396
2748010 2 18193003831555024086
3060560 45 18411134745077818366
3071541 250 18124041126558148790
3071541 37 18334862701495859686
33824 294 18407477760708613275
458136 41 18336282196497508286
474 4 18340488962345449049
528886 8 18411132580419621032
6333272 397 18338517555118290817
633830 44 18200888351717321428
7364860 26 18340769239163375598
77492 1 17775000163861403221
7832392 63 17982456996742587897
81228 2 17399788796967573074
81539 233 18187082862486520926
8272917 22 18341335475093475311
9981440 41 16407851166656168864

>  <PUBCHEM_SHAPE_MULTIPOLES>  (1) 
298.73
6.56
2.24
0.85
4.48
1.35
-0.02
-1.9
0.04
-2.36
0.04
0.73
-0.08
-0.16

>  <PUBCHEM_SHAPE_SELFOVERLAP>  (1) 
650.011

>  <PUBCHEM_SHAPE_VOLUME>  (1) 
166.4

>  <PUBCHEM_COORDINATE_TYPE>  (1) 
2
5
10

$$$$
