45594
     RDKit          3D

 20 22  0  0  0  0  0  0  0  0999 V2000
   -7.7820    0.4730   -0.7151 Cl  0  0  0  0  0  0  0  0  0  0  0  0
    4.4715   -1.8510    0.1404 N   0  0  0  0  0  0  0  0  0  0  0  0
   -1.1715   -0.3371   -0.1532 N   0  0  0  0  0  0  0  0  0  0  0  0
    1.1729   -0.6820   -0.9012 C   0  0  0  0  0  0  0  0  0  0  0  0
    2.5751   -0.8791   -0.4810 C   0  0  0  0  0  0  0  0  0  0  0  0
    3.5491    0.1375   -0.2743 C   0  0  0  0  0  0  0  0  0  0  0  0
    0.2100   -0.5009    0.2865 C   0  0  0  0  0  0  0  0  0  0  0  0
    4.7297   -0.4989    0.1148 C   0  0  0  0  0  0  0  0  0  0  0  0
    3.1722   -2.0905   -0.2182 C   0  0  0  0  0  0  0  0  0  0  0  0
   -2.0631   -0.1783    0.9867 C   0  0  0  0  0  0  0  0  0  0  0  0
    3.5395    1.5425   -0.3812 C   0  0  0  0  0  0  0  0  0  0  0  0
    5.9059    0.2022    0.4034 C   0  0  0  0  0  0  0  0  0  0  0  0
   -3.4973   -0.0149    0.5584 C   0  0  0  0  0  0  0  0  0  0  0  0
    4.7087    2.2569   -0.0956 C   0  0  0  0  0  0  0  0  0  0  0  0
    5.8726    1.5950    0.2904 C   0  0  0  0  0  0  0  0  0  0  0  0
   -3.9976    1.2568    0.3166 C   0  0  0  0  0  0  0  0  0  0  0  0
   -4.2989   -1.1384    0.4128 C   0  0  0  0  0  0  0  0  0  0  0  0
   -5.3268    1.4081   -0.0789 C   0  0  0  0  0  0  0  0  0  0  0  0
   -5.6280   -0.9871    0.0173 C   0  0  0  0  0  0  0  0  0  0  0  0
   -6.1420    0.2861   -0.2285 C   0  0  0  0  0  0  0  0  0  0  0  0
  1 20  1  0
  2  8  1  0
  2  9  1  0
  3  7  1  0
  3 10  1  0
  4  5  1  0
  4  7  1  0
  5  6  1  0
  5  9  2  0
  6  8  2  0
  6 11  1  0
  8 12  1  0
 10 13  1  0
 11 14  2  0
 12 15  2  0
 13 16  2  0
 13 17  1  0
 14 15  1  0
 16 18  1  0
 17 19  2  0
 18 20  2  0
 19 20  1  0
M  END
>  <PUBCHEM_COMPOUND_CID>  (1) 
45594

>  <PUBCHEM_CONFORMER_RMSD>  (1) 
0.8

>  <PUBCHEM_CONFORMER_DIVERSEORDER>  (1) 
2
18
21
6
24
37
9
11
28
31
26
30
8
32
17
15
20
3
12
1
35
5
22
4
19
29
27
7
14
10
23
36
33
13
16
25
34

>  <PUBCHEM_MMFF94_PARTIAL_CHARGES>  (1) 
30
1 -0.18
10 0.41
11 -0.15
12 -0.15
13 -0.14
14 -0.15
15 -0.15
16 -0.15
17 -0.15
18 -0.15
19 -0.15
2 0.03
20 0.18
25 0.15
26 0.36
27 0.27
3 -0.9
30 0.15
31 0.15
32 0.15
33 0.15
34 0.15
35 0.15
36 0.15
37 0.15
4 0.18
5 -0.18
7 0.27
8 -0.15
9 -0.3

>  <PUBCHEM_EFFECTIVE_ROTOR_COUNT>  (1) 
5

>  <PUBCHEM_PHARMACOPHORE_FEATURES>  (1) 
7
1 2 cation
1 2 donor
1 3 cation
1 3 donor
5 2 5 6 8 9 rings
6 13 16 17 18 19 20 rings
6 6 8 11 12 14 15 rings

>  <PUBCHEM_HEAVY_ATOM_COUNT>  (1) 
20

>  <PUBCHEM_ATOM_DEF_STEREO_COUNT>  (1) 
0

>  <PUBCHEM_ATOM_UDEF_STEREO_COUNT>  (1) 
0

>  <PUBCHEM_BOND_DEF_STEREO_COUNT>  (1) 
0

>  <PUBCHEM_BOND_UDEF_STEREO_COUNT>  (1) 
0

>  <PUBCHEM_ISOTOPIC_ATOM_COUNT>  (1) 
0

>  <PUBCHEM_COMPONENT_COUNT>  (1) 
1

>  <PUBCHEM_CACTVS_TAUTO_COUNT>  (1) 
1

>  <PUBCHEM_CONFORMER_ID>  (1) 
0000B21A00000002

>  <PUBCHEM_MMFF94_ENERGY>  (1) 
33.0489

>  <PUBCHEM_FEATURE_SELFOVERLAP>  (1) 
35.614

>  <PUBCHEM_SHAPE_FINGERPRINT>  (1) 
10299344 5 8574711317080548065
10411042 1 18050849911080292590
10595046 47 18342457037004312011
10835480 77 18409728457084806005
11719270 70 18273492356153837798
11724838 91 18272083933297653798
12107183 9 17691693281301722059
12236239 1 17989207035963854527
125118 31 18186804656275783261
13167372 99 18341615858573915192
13533116 47 17313376773865810610
14123256 10 17418093226329150129
1420 363 13254793538703399687
14251732 16 18411701027957678255
14251764 18 11674882191239938513
14429380 56 18339630226758393053
14528608 73 18343024406083338214
14617045 38 11455892468467460669
14933364 13 18409732859167782585
15183329 4 18410857646646791713
15537594 2 15051728669206679389
16079462 125 18040989644597443053
17834072 33 18342458153389938243
17844677 252 18269846332366202501
19427546 62 18337392742487514118
19489759 90 17676488346040037137
20157964 124 18411983546279126014
20281389 69 18186801345056080965
20511986 3 18336535084420160943
21150785 3 15913324719315594553
21315763 129 18407759222542056492
21315763 28 18411698759972320371
21315764 268 18261107439824405845
21344244 78 18128802059673188858
21641784 216 16773249426067464408
21859007 373 17386554757488664877
22950370 63 9151172047677195475
2297311 6 12103850060100234459
23035841 295 11312057643213781133
23081809 10 17417813899015598131
23536379 177 18409167688790128963
23559900 14 18340761642067680441
239999 70 18200882777467268150
300161 21 18335419071522648507
329604 57 18060139825596762241
33532 11 9511461122132606509
335352 9 18412831279468180494
34797466 226 17846789511311278637
351380 180 18334579035684862344
4073 2 17968383441175296066
4325135 7 18130786767775057077
5104073 3 18334304136672438715
5283173 99 18335137532327435989
5385378 56 15574987318001317129
9971528 1 17821453447513108758

>  <PUBCHEM_SHAPE_MULTIPOLES>  (1) 
403.5
20.4
1.89
0.81
18.16
0.22
0
5.39
1.06
-2.38
0.06
0.26
-0.02
0.34

>  <PUBCHEM_SHAPE_SELFOVERLAP>  (1) 
862.696

>  <PUBCHEM_SHAPE_VOLUME>  (1) 
225.5

>  <PUBCHEM_COORDINATE_TYPE>  (1) 
2
5
10

$$$$
