45590
     RDKit          3D

 15 16  0  0  0  0  0  0  0  0999 V2000
   -3.2412   -0.2441    0.5374 N   0  0  0  0  0  0  0  0  0  0  0  0
    2.2715   -1.8793   -0.5777 N   0  0  0  0  0  0  0  0  0  0  0  0
   -0.8692   -0.8444    0.9708 C   0  0  0  0  0  0  0  0  0  0  0  0
    0.4809   -0.9943    0.3907 C   0  0  0  0  0  0  0  0  0  0  0  0
   -1.9234   -0.4132   -0.0653 C   0  0  0  0  0  0  0  0  0  0  0  0
    1.4772    0.0166    0.2896 C   0  0  0  0  0  0  0  0  0  0  0  0
   -4.2173    0.1729   -0.4589 C   0  0  0  0  0  0  0  0  0  0  0  0
    2.5903   -0.5646   -0.3215 C   0  0  0  0  0  0  0  0  0  0  0  0
    0.9987   -2.1482   -0.1509 C   0  0  0  0  0  0  0  0  0  0  0  0
    1.5391    1.3745    0.6605 C   0  0  0  0  0  0  0  0  0  0  0  0
   -3.7970    1.4978   -1.0890 C   0  0  0  0  0  0  0  0  0  0  0  0
   -5.5913    0.2878    0.1934 C   0  0  0  0  0  0  0  0  0  0  0  0
    3.7669    0.1470   -0.5813 C   0  0  0  0  0  0  0  0  0  0  0  0
    2.7095    2.0990    0.4068 C   0  0  0  0  0  0  0  0  0  0  0  0
    3.8052    1.4926   -0.2045 C   0  0  0  0  0  0  0  0  0  0  0  0
  1  5  1  0
  1  7  1  0
  2  8  1  0
  2  9  1  0
  3  4  1  0
  3  5  1  0
  4  6  1  0
  4  9  2  0
  6  8  2  0
  6 10  1  0
  7 11  1  0
  7 12  1  0
  8 13  1  0
 10 14  2  0
 13 15  2  0
 14 15  1  0
M  END
>  <PUBCHEM_COMPOUND_CID>  (1) 
45590

>  <PUBCHEM_CONFORMER_RMSD>  (1) 
0.6

>  <PUBCHEM_CONFORMER_DIVERSEORDER>  (1) 
1
16
14
15
28
18
19
4
23
8
26
5
21
22
7
2
10
20
3
24
25
9
12
17
27
6
13
11

>  <PUBCHEM_MMFF94_PARTIAL_CHARGES>  (1) 
19
1 -0.9
10 -0.15
13 -0.15
14 -0.15
15 -0.15
2 0.03
21 0.36
22 0.15
23 0.27
3 0.18
30 0.15
31 0.15
32 0.15
33 0.15
4 -0.18
5 0.27
7 0.27
8 -0.15
9 -0.3

>  <PUBCHEM_EFFECTIVE_ROTOR_COUNT>  (1) 
4

>  <PUBCHEM_PHARMACOPHORE_FEATURES>  (1) 
7
1 1 cation
1 1 donor
1 2 cation
1 2 donor
3 7 11 12 hydrophobe
5 2 4 6 8 9 rings
6 6 8 10 13 14 15 rings

>  <PUBCHEM_HEAVY_ATOM_COUNT>  (1) 
15

>  <PUBCHEM_ATOM_DEF_STEREO_COUNT>  (1) 
0

>  <PUBCHEM_ATOM_UDEF_STEREO_COUNT>  (1) 
0

>  <PUBCHEM_BOND_DEF_STEREO_COUNT>  (1) 
0

>  <PUBCHEM_BOND_UDEF_STEREO_COUNT>  (1) 
0

>  <PUBCHEM_ISOTOPIC_ATOM_COUNT>  (1) 
0

>  <PUBCHEM_COMPONENT_COUNT>  (1) 
1

>  <PUBCHEM_CACTVS_TAUTO_COUNT>  (1) 
1

>  <PUBCHEM_CONFORMER_ID>  (1) 
0000B21600000001

>  <PUBCHEM_MMFF94_ENERGY>  (1) 
13.9157

>  <PUBCHEM_FEATURE_SELFOVERLAP>  (1) 
35.612

>  <PUBCHEM_SHAPE_FINGERPRINT>  (1) 
10498660 4 17749661875703373237
10608611 8 18335420183839738587
11471102 20 18341897389701263306
11715629 250 18187919565392294615
11796584 16 13397810262897036620
12251169 10 11314029084409943337
12654215 9 18411140242820560128
12730499 353 18408895040024258075
13081056 2 18334295357896370013
14415576 193 18409167718406494117
16945 1 18128840671286533418
17834072 33 18273210924606282927
18186145 218 18272096018966372450
20606313 2 18413109459286888522
20645477 56 18187650215229807067
20645477 70 18201163161010387583
212847 35 18186801378983114192
221357 26 18341611473929342037
22289505 5 18339919308148512861
22892500 29 18412825802477503548
231179 274 18260545636616325944
23402655 69 18201722872499990485
23557571 272 17895770607193341051
23590187 302 17704352177952950697
25 1 18412263960546490690
2748010 2 17840043058772325418
3060560 45 18202285797000346966
341906 21 16298379124849729773
4028521 119 18334290955623645285
4047638 21 18333452053662500018
4072396 5 18411972556285880546
42 15 8935004780680987491
43658 37 18128530646902713528
5281201 14 18340208475527266565
8272917 22 18130796599050428999

>  <PUBCHEM_SHAPE_MULTIPOLES>  (1) 
298.73
9.44
2.01
0.89
12.44
0.03
-0.01
-3.88
-1.49
-1.63
-0.1
0.2
-0.08
0.84

>  <PUBCHEM_SHAPE_SELFOVERLAP>  (1) 
625.309

>  <PUBCHEM_SHAPE_VOLUME>  (1) 
171.4

>  <PUBCHEM_COORDINATE_TYPE>  (1) 
2
5
10

$$$$
