456
     RDKit          3D

  9  8  0  0  0  0  0  0  0  0999 V2000
    2.8424   -0.5333   -0.0003 O   0  0  0  0  0  0  0  0  0  0  0  0
    0.4927   -1.6067    0.0003 O   0  0  0  0  0  0  0  0  0  0  0  0
   -2.3106   -1.0904    0.0001 O   0  0  0  0  0  0  0  0  0  0  0  0
    1.9195    1.5582    0.0005 O   0  0  0  0  0  0  0  0  0  0  0  0
   -0.5805    0.4769   -0.0002 N   0  0  0  0  0  0  0  0  0  0  0  0
   -2.7793    1.1592   -0.0001 N   0  0  0  0  0  0  0  0  0  0  0  0
    0.5049   -0.3856    0.0001 C   0  0  0  0  0  0  0  0  0  0  0  0
   -1.9187    0.0751   -0.0002 C   0  0  0  0  0  0  0  0  0  0  0  0
    1.8297    0.3467   -0.0004 C   0  0  0  0  0  0  0  0  0  0  0  0
  1  9  1  0
  2  7  2  0
  3  8  2  0
  4  9  2  0
  5  7  1  0
  5  8  1  0
  6  8  1  0
  7  9  1  0
M  END
>  <PUBCHEM_COMPOUND_CID>  (1) 
456

>  <PUBCHEM_CONFORMER_RMSD>  (1) 
0.6

>  <PUBCHEM_CONFORMER_DIVERSEORDER>  (1) 
1
2

>  <PUBCHEM_MMFF94_PARTIAL_CHARGES>  (1) 
13
1 -0.65
10 0.37
11 0.37
12 0.37
13 0.5
2 -0.57
3 -0.57
4 -0.57
5 -0.49
6 -0.8
7 0.63
8 0.69
9 0.72

>  <PUBCHEM_EFFECTIVE_ROTOR_COUNT>  (1) 
3

>  <PUBCHEM_PHARMACOPHORE_FEATURES>  (1) 
7
1 1 acceptor
1 2 acceptor
1 3 acceptor
1 4 acceptor
1 5 donor
1 6 donor
3 1 4 9 anion

>  <PUBCHEM_HEAVY_ATOM_COUNT>  (1) 
9

>  <PUBCHEM_ATOM_DEF_STEREO_COUNT>  (1) 
0

>  <PUBCHEM_ATOM_UDEF_STEREO_COUNT>  (1) 
0

>  <PUBCHEM_BOND_DEF_STEREO_COUNT>  (1) 
0

>  <PUBCHEM_BOND_UDEF_STEREO_COUNT>  (1) 
0

>  <PUBCHEM_ISOTOPIC_ATOM_COUNT>  (1) 
0

>  <PUBCHEM_COMPONENT_COUNT>  (1) 
1

>  <PUBCHEM_CACTVS_TAUTO_COUNT>  (1) 
5

>  <PUBCHEM_CONFORMER_ID>  (1) 
000001C800000001

>  <PUBCHEM_MMFF94_ENERGY>  (1) 
13.1824

>  <PUBCHEM_FEATURE_SELFOVERLAP>  (1) 
35.642

>  <PUBCHEM_SHAPE_FINGERPRINT>  (1) 
12897270 3 18410571799266324669
12932764 1 17385716985067163121
14325111 11 18410856589841827616
14390081 3 18413386540464855433
19973954 147 18410014372477666377
21040471 1 18338517572546066688
23552423 10 18334858333134350310
29004967 10 18410016498454530722
5084963 1 18272090525803330210

>  <PUBCHEM_SHAPE_MULTIPOLES>  (1) 
151.78
4.04
1.37
0.55
0.58
0.02
0
-0.62
0
-0.04
0
0
0
0

>  <PUBCHEM_SHAPE_SELFOVERLAP>  (1) 
296.494

>  <PUBCHEM_SHAPE_VOLUME>  (1) 
89.9

>  <PUBCHEM_COORDINATE_TYPE>  (1) 
2
5
10

$$$$
