45600
     RDKit          3D

 20 22  0  0  1  0  0  0  0  0999 V2000
    3.0327    2.7670    0.2682 O   0  0  0  0  0  0  0  0  0  0  0  0
   -5.4126    0.8626   -0.5614 N   0  0  0  0  0  0  0  0  0  0  0  0
    1.9502   -2.5849   -0.2522 N   0  0  0  0  0  0  0  0  0  0  0  0
   -3.4352   -0.2316   -0.0442 C   0  0  0  0  0  0  0  0  0  0  0  0
   -3.5032    1.0009    0.8553 C   0  0  0  0  0  0  0  0  0  0  0  0
   -2.0218   -0.6053   -0.4565 C   0  0  0  0  0  0  0  0  0  0  0  0
   -4.3257    0.1412   -1.2190 C   0  0  0  0  0  0  0  0  0  0  0  0
   -4.7705    1.7322    0.4239 C   0  0  0  0  0  0  0  0  0  0  0  0
   -1.1594   -0.9573    0.7568 C   0  0  0  0  0  0  0  0  0  0  0  0
    0.2358   -1.3597    0.3527 C   0  0  0  0  0  0  0  0  0  0  0  0
    1.3323   -0.4916    0.2093 C   0  0  0  0  0  0  0  0  0  0  0  0
    0.6204   -2.6324    0.0700 C   0  0  0  0  0  0  0  0  0  0  0  0
    2.4114   -1.2901   -0.1756 C   0  0  0  0  0  0  0  0  0  0  0  0
    1.5350    0.8943    0.3631 C   0  0  0  0  0  0  0  0  0  0  0  0
   -0.1175   -3.9104    0.0656 C   0  0  0  0  0  0  0  0  0  0  0  0
    3.6884   -0.7700   -0.4149 C   0  0  0  0  0  0  0  0  0  0  0  0
    2.8069    1.4285    0.1269 C   0  0  0  0  0  0  0  0  0  0  0  0
    3.8655    0.6074   -0.2560 C   0  0  0  0  0  0  0  0  0  0  0  0
    0.4301    1.8189    0.7735 C   0  0  0  0  0  0  0  0  0  0  0  0
    2.8372    3.5803   -0.8855 C   0  0  0  0  0  0  0  0  0  0  0  0
  1 17  1  0
  1 20  1  0
  2  7  1  0
  2  8  1  0
  3 12  1  0
  3 13  1  0
  4  5  1  0
  4  6  1  0
  4  7  1  0
  5  8  1  0
  6  9  1  0
  9 10  1  0
 10 11  1  0
 10 12  2  0
 11 13  2  0
 11 14  1  0
 12 15  1  0
 13 16  1  0
 14 17  2  0
 14 19  1  0
 16 18  2  0
 17 18  1  0
M  END
>  <PUBCHEM_COMPOUND_CID>  (1) 
45600

>  <PUBCHEM_CONFORMER_RMSD>  (1) 
0.8

>  <PUBCHEM_CONFORMER_DIVERSEORDER>  (1) 
1
11
10
14
9
2
12
3
4
8
5
6
7
13

>  <PUBCHEM_MMFF94_PARTIAL_CHARGES>  (1) 
20
1 -0.36
10 -0.18
12 -0.33
13 -0.15
14 -0.14
15 0.18
16 -0.15
17 0.08
18 -0.15
19 0.14
2 -0.9
20 0.28
3 0.03
32 0.36
33 0.27
37 0.15
38 0.15
7 0.27
8 0.27
9 0.18

>  <PUBCHEM_EFFECTIVE_ROTOR_COUNT>  (1) 
5

>  <PUBCHEM_PHARMACOPHORE_FEATURES>  (1) 
8
1 1 acceptor
1 2 cation
1 2 donor
1 3 cation
1 3 donor
5 2 4 5 7 8 rings
5 3 10 11 12 13 rings
6 11 13 14 16 17 18 rings

>  <PUBCHEM_HEAVY_ATOM_COUNT>  (1) 
20

>  <PUBCHEM_ATOM_DEF_STEREO_COUNT>  (1) 
0

>  <PUBCHEM_ATOM_UDEF_STEREO_COUNT>  (1) 
1

>  <PUBCHEM_BOND_DEF_STEREO_COUNT>  (1) 
0

>  <PUBCHEM_BOND_UDEF_STEREO_COUNT>  (1) 
0

>  <PUBCHEM_ISOTOPIC_ATOM_COUNT>  (1) 
0

>  <PUBCHEM_COMPONENT_COUNT>  (1) 
1

>  <PUBCHEM_CACTVS_TAUTO_COUNT>  (1) 
1

>  <PUBCHEM_CONFORMER_ID>  (1) 
0000B22000000001

>  <PUBCHEM_MMFF94_ENERGY>  (1) 
48.4341

>  <PUBCHEM_FEATURE_SELFOVERLAP>  (1) 
40.689

>  <PUBCHEM_SHAPE_FINGERPRINT>  (1) 
10411042 1 17690281512767779962
10693767 8 17915459398345168158
10906281 52 18270415940341832910
10967382 1 18339647737477013562
11471102 20 18411136892239790418
12173636 292 17907014333025480430
12403260 363 18266446788553348658
12730499 353 18335426751272379067
12769317 202 18337659828933165805
13009979 54 17271448989690229795
13140716 1 18408881871337920074
13464514 151 18411987952894427242
13583140 156 17385995238839494994
138480 1 18050568439174098666
14848178 96 18410009974526334733
15342168 16 18261955262347878173
16945 1 18341066193756044098
17134986 127 18409449232307065598
18186145 218 18411138034627062783
21709351 56 18411974741823003527
21860390 5 18271813393260284516
22289505 5 18193266391543353221
2255824 54 18340202986422399099
22907989 373 17472979978792845726
231179 274 17967245382231361937
23402655 69 18272369767339044159
23558518 356 17900256708828840578
23559900 14 18200322147360155980
25 1 18409730651153964690
2748010 2 17982184610570595218
3060560 45 18340767057335924190
335352 9 18410857664380198030
350125 39 18121229923996185250
394222 165 18187638150307918872
474 4 18409727365872891097
543358 83 18198064681656185465
602551 16 16154293687795906345
6287921 2 18260839210700877133
633830 44 18342457049699219341
8272917 22 18269839718544166063
84936 182 18202278130161970353

>  <PUBCHEM_SHAPE_MULTIPOLES>  (1) 
395.76
8.8
3.85
0.89
10.57
0.86
-0.06
-5.84
-1.67
-3.09
-0.23
0.45
-0.23
-0.35

>  <PUBCHEM_SHAPE_SELFOVERLAP>  (1) 
846.143

>  <PUBCHEM_SHAPE_VOLUME>  (1) 
224.2

>  <PUBCHEM_COORDINATE_TYPE>  (1) 
2
5
10

$$$$
