45618
     RDKit          3D

 25 27  0  0  0  0  0  0  0  0999 V2000
    1.7449   -5.4931   -1.0194 Cl  0  0  0  0  0  0  0  0  0  0  0  0
    6.1386    3.4943   -0.8877 Cl  0  0  0  0  0  0  0  0  0  0  0  0
   -6.9812    0.7597   -0.9415 O   0  0  0  0  0  0  0  0  0  0  0  0
    0.1928    0.7884    0.4115 O   0  0  0  0  0  0  0  0  0  0  0  0
   -4.5348    0.7654    0.4998 N   0  0  0  0  0  0  0  0  0  0  0  0
   -3.3710    0.0652    0.9618 N   0  0  0  0  0  0  0  0  0  0  0  0
   -4.5542    0.7598   -0.9694 C   0  0  0  0  0  0  0  0  0  0  0  0
   -5.7267    0.0878    1.0249 C   0  0  0  0  0  0  0  0  0  0  0  0
   -5.8333    1.4332   -1.4611 C   0  0  0  0  0  0  0  0  0  0  0  0
   -6.9793    0.7758    0.4872 C   0  0  0  0  0  0  0  0  0  0  0  0
   -2.1986    0.7601    0.4558 C   0  0  0  0  0  0  0  0  0  0  0  0
    1.4198    0.2073    0.8315 C   0  0  0  0  0  0  0  0  0  0  0  0
   -0.9246    0.0883    0.9428 C   0  0  0  0  0  0  0  0  0  0  0  0
    1.5007   -1.2315    0.3654 C   0  0  0  0  0  0  0  0  0  0  0  0
    2.6126    1.0366    0.3966 C   0  0  0  0  0  0  0  0  0  0  0  0
    2.2177   -2.1447    1.1175 C   0  0  0  0  0  0  0  0  0  0  0  0
    3.7562    1.0289    1.1732 C   0  0  0  0  0  0  0  0  0  0  0  0
    0.8568   -1.5989   -0.8028 C   0  0  0  0  0  0  0  0  0  0  0  0
    2.5261    1.7810   -0.7654 C   0  0  0  0  0  0  0  0  0  0  0  0
    2.2933   -3.4695    0.6872 C   0  0  0  0  0  0  0  0  0  0  0  0
    4.8528    1.7928    0.7735 C   0  0  0  0  0  0  0  0  0  0  0  0
    0.9323   -2.9236   -1.2328 C   0  0  0  0  0  0  0  0  0  0  0  0
    3.6226    2.5448   -1.1650 C   0  0  0  0  0  0  0  0  0  0  0  0
    1.6505   -3.8589   -0.4880 C   0  0  0  0  0  0  0  0  0  0  0  0
    4.7861    2.5508   -0.3955 C   0  0  0  0  0  0  0  0  0  0  0  0
  1 24  1  0
  2 25  1  0
  3  9  1  0
  3 10  1  0
  4 12  1  0
  4 13  1  0
  5  6  1  0
  5  7  1  0
  5  8  1  0
  6 11  1  0
  7  9  1  0
  8 10  1  0
 11 13  1  0
 12 14  1  0
 12 15  1  0
 14 16  2  0
 14 18  1  0
 15 17  2  0
 15 19  1  0
 16 20  1  0
 17 21  1  0
 18 22  2  0
 19 23  2  0
 20 24  2  0
 21 25  2  0
 22 24  1  0
 23 25  1  0
M  END
>  <PUBCHEM_COMPOUND_CID>  (1) 
45618

>  <PUBCHEM_CONFORMER_RMSD>  (1) 
0.8

>  <PUBCHEM_CONFORMER_DIVERSEORDER>  (1) 
1
39
13
7
21
35
16
44
42
46
47
4
37
23
20
32
5
40
15
26
25
22
17
18
28
19
11
29
43
38
27
31
41
10
30
6
12
36
24
45
8
14
9
2
3
34
33

>  <PUBCHEM_MMFF94_PARTIAL_CHARGES>  (1) 
34
1 -0.18
10 0.28
11 0.27
12 0.57
13 0.28
14 -0.14
15 -0.14
16 -0.15
17 -0.15
18 -0.15
19 -0.15
2 -0.18
20 -0.15
21 -0.15
22 -0.15
23 -0.15
24 0.18
25 0.18
3 -0.56
34 0.36
4 -0.56
40 0.15
41 0.15
42 0.15
43 0.15
44 0.15
45 0.15
46 0.15
47 0.15
5 -0.54
6 -0.63
7 0.27
8 0.27
9 0.28

>  <PUBCHEM_EFFECTIVE_ROTOR_COUNT>  (1) 
8.2

>  <PUBCHEM_PHARMACOPHORE_FEATURES>  (1) 
6
1 3 acceptor
1 4 acceptor
1 6 donor
6 14 16 18 20 22 24 rings
6 15 17 19 21 23 25 rings
6 3 5 7 8 9 10 rings

>  <PUBCHEM_HEAVY_ATOM_COUNT>  (1) 
25

>  <PUBCHEM_ATOM_DEF_STEREO_COUNT>  (1) 
0

>  <PUBCHEM_ATOM_UDEF_STEREO_COUNT>  (1) 
0

>  <PUBCHEM_BOND_DEF_STEREO_COUNT>  (1) 
0

>  <PUBCHEM_BOND_UDEF_STEREO_COUNT>  (1) 
0

>  <PUBCHEM_ISOTOPIC_ATOM_COUNT>  (1) 
0

>  <PUBCHEM_COMPONENT_COUNT>  (1) 
1

>  <PUBCHEM_CACTVS_TAUTO_COUNT>  (1) 
1

>  <PUBCHEM_CONFORMER_ID>  (1) 
0000B23200000001

>  <PUBCHEM_MMFF94_ENERGY>  (1) 
65.1513

>  <PUBCHEM_FEATURE_SELFOVERLAP>  (1) 
30.446

>  <PUBCHEM_SHAPE_FINGERPRINT>  (1) 
10369192 42 18115028626971023117
10721379 63 18127426561345555766
10764073 3 17167848765246709138
11069576 57 18129373809318292727
11135926 11 18341895190868048361
11719270 70 18411975866967096522
11823591 26 18339075007994017312
12293681 160 17845664762635305704
12730499 353 18410017636963664721
12977781 61 17604733130168426146
13150687 139 18201169831822345604
13533116 47 18129937876638106603
13540713 5 17773048449223607905
13836976 161 18341610400002544330
13911987 19 18340214105876840561
13955234 65 18342458088928765899
13968360 50 18412542111287183506
15842332 3 17559408946110453433
15961568 22 17749107794567638317
17539 30 17550391082737038174
17844677 252 18189335659476638209
17980427 23 17314512732332638047
18335252 98 18334860554951195683
19319366 153 18201993330854114095
1979834 28 18260550026147210517
20554085 129 18130496531334432896
20645477 70 18338234852298145291
21054139 6 18058436768137267511
23081809 10 17845929634043734113
23559900 14 18263085422762161923
239999 70 18187643549050375459
3103668 31 17836082651848869295
3411729 13 18260828193845570234
34797466 226 18114458977907433657
38695281 34 18337956791524775644
46194498 28 18262794047959206391
504843 32 18192155017121284658
5219985 13 18189620621386655212
59755656 215 18187645769532512736
59755656 520 18270118045399474444
60123966 16 18116981201150761741
6025842 7 18411980230733139611
6669772 16 18271537463629795238
77188 2 17834117446791921342
9658208 31 18057039336393207016

>  <PUBCHEM_SHAPE_MULTIPOLES>  (1) 
496.53
15.13
5.45
1.36
28.93
9.24
-0.14
-17.56
-1.95
-9.86
-2.46
0.22
0.03
-0.25

>  <PUBCHEM_SHAPE_SELFOVERLAP>  (1) 
1028.283

>  <PUBCHEM_SHAPE_VOLUME>  (1) 
285.8

>  <PUBCHEM_COORDINATE_TYPE>  (1) 
2
5
10

$$$$
