45614
     RDKit          3D

 21 22  0  0  1  0  0  0  0  0999 V2000
    0.9800    0.4652    2.0498 O   0  0  0  0  0  0  0  0  0  0  0  0
   -0.2343    2.3934    1.7074 O   0  0  0  0  0  0  0  0  0  0  0  0
   -3.1635   -0.3464   -0.3921 N   0  0  0  0  0  0  0  0  0  0  0  0
    0.3782    1.0205   -0.2295 C   0  0  0  0  0  0  0  0  0  0  0  0
   -1.0349    0.7953   -0.7648 C   0  0  0  0  0  0  0  0  0  0  0  0
    1.1162    2.1044   -1.0132 C   0  0  0  0  0  0  0  0  0  0  0  0
    1.1551   -0.2413   -0.1563 C   0  0  0  0  0  0  0  0  0  0  0  0
   -1.8268   -0.1322    0.1493 C   0  0  0  0  0  0  0  0  0  0  0  0
    0.3192    1.4002    1.2547 C   0  0  0  0  0  0  0  0  0  0  0  0
    1.4589   -0.4892    1.1703 C   0  0  0  0  0  0  0  0  0  0  0  0
    2.4736    2.4098   -0.3893 C   0  0  0  0  0  0  0  0  0  0  0  0
    1.5699   -1.1110   -1.1504 C   0  0  0  0  0  0  0  0  0  0  0  0
    2.1807   -1.6011    1.5632 C   0  0  0  0  0  0  0  0  0  0  0  0
    2.3013   -2.2422   -0.7785 C   0  0  0  0  0  0  0  0  0  0  0  0
   -3.8835    0.9233   -0.5055 C   0  0  0  0  0  0  0  0  0  0  0  0
   -3.9151   -1.2829    0.4454 C   0  0  0  0  0  0  0  0  0  0  0  0
    3.1966    3.5070   -1.1540 C   0  0  0  0  0  0  0  0  0  0  0  0
    2.6045   -2.4858    0.5706 C   0  0  0  0  0  0  0  0  0  0  0  0
    2.7633   -3.2016   -1.8242 C   0  0  0  0  0  0  0  0  0  0  0  0
   -5.2539    0.7235   -1.1300 C   0  0  0  0  0  0  0  0  0  0  0  0
   -3.1856   -2.6090    0.5770 C   0  0  0  0  0  0  0  0  0  0  0  0
  1  9  1  0
  1 10  1  0
  2  9  2  0
  3  8  1  0
  3 15  1  0
  3 16  1  0
  4  5  1  0
  4  6  1  0
  4  7  1  0
  4  9  1  0
  5  8  1  0
  6 11  1  0
  7 10  2  0
  7 12  1  0
 10 13  1  0
 11 17  1  0
 12 14  2  0
 13 18  2  0
 14 18  1  0
 14 19  1  0
 15 20  1  0
 16 21  1  0
M  END
>  <PUBCHEM_COMPOUND_CID>  (1) 
45614

>  <PUBCHEM_CONFORMER_RMSD>  (1) 
0.8

>  <PUBCHEM_CONFORMER_DIVERSEORDER>  (1) 
1
26
16
28
8
29
23
25
9
20
24
7
6
27
19
5
10
12
17
21
13
2
18
3
22
15
14
4
11

>  <PUBCHEM_MMFF94_PARTIAL_CHARGES>  (1) 
18
1 -0.23
10 0.08
12 -0.15
13 -0.15
14 -0.14
15 0.27
16 0.27
18 -0.15
19 0.14
2 -0.57
3 -0.81
30 0.15
31 0.15
39 0.15
4 0.2
7 -0.14
8 0.27
9 0.66

>  <PUBCHEM_EFFECTIVE_ROTOR_COUNT>  (1) 
7.4

>  <PUBCHEM_PHARMACOPHORE_FEATURES>  (1) 
5
1 17 hydrophobe
1 2 acceptor
1 3 cation
5 1 4 7 9 10 rings
6 7 10 12 13 14 18 rings

>  <PUBCHEM_HEAVY_ATOM_COUNT>  (1) 
21

>  <PUBCHEM_ATOM_DEF_STEREO_COUNT>  (1) 
0

>  <PUBCHEM_ATOM_UDEF_STEREO_COUNT>  (1) 
1

>  <PUBCHEM_BOND_DEF_STEREO_COUNT>  (1) 
0

>  <PUBCHEM_BOND_UDEF_STEREO_COUNT>  (1) 
0

>  <PUBCHEM_ISOTOPIC_ATOM_COUNT>  (1) 
0

>  <PUBCHEM_COMPONENT_COUNT>  (1) 
1

>  <PUBCHEM_CACTVS_TAUTO_COUNT>  (1) 
1

>  <PUBCHEM_CONFORMER_ID>  (1) 
0000B22E00000001

>  <PUBCHEM_MMFF94_ENERGY>  (1) 
47.1197

>  <PUBCHEM_FEATURE_SELFOVERLAP>  (1) 
25.47

>  <PUBCHEM_SHAPE_FINGERPRINT>  (1) 
11488393 25 18193016987203823946
116883 192 18195520403107193597
12553582 1 18119822308826545931
12592029 89 18188207736286765008
12617007 42 18337946771244696319
13134695 92 17774144722271832093
13257819 37 17538871451994044700
13533116 47 18200880673444794347
13681431 1 18411982421150564924
14004458 79 17540529124554837740
14022347 108 18120653526763891251
14251751 93 17977103788079989860
15163728 17 17387433421640143836
15502722 9 18335146439582796788
15664445 248 18192434061199045582
16752209 62 17901381200175794343
16945 1 18042943511188440888
17357779 13 17841697531081427751
1813 80 18195245512146152782
20197701 30 18193554708508863804
20600515 1 18121483679279893120
20602899 9 17695097734985706300
20645477 70 18409726279520660535
21452121 199 18342452599902077730
21524375 3 17756712201415378332
23419403 2 17836885016079303672
23557571 272 18051402977748787778
23559900 14 18412259506818418271
298252 57 17756147044102019840
314173 41 18264773168715707711
394222 165 18189327051834780320
4280585 95 18264770961440166782
5845 1 17412705516152474508
6138700 20 18334019406849203500
7364860 26 18408601478571648484
74978 22 18260545607036767007
81228 2 17838339579509659347
81539 233 18189053264601434076
9709674 26 18335135436599517567

>  <PUBCHEM_SHAPE_MULTIPOLES>  (1) 
415.45
7
3.87
1.66
10.71
0.31
-0.35
-1.03
2.33
-4.23
1.03
-0.92
-0.18
0.52

>  <PUBCHEM_SHAPE_SELFOVERLAP>  (1) 
863.294

>  <PUBCHEM_SHAPE_VOLUME>  (1) 
241.1

>  <PUBCHEM_COORDINATE_TYPE>  (1) 
2
5
10

$$$$
