45622
     RDKit          3D

 10  9  0  0  0  0  0  0  0  0999 V2000
   -3.3811    2.1933   -0.3402 Cl  0  0  0  0  0  0  0  0  0  0  0  0
    3.3818    2.1926    0.3415 Cl  0  0  0  0  0  0  0  0  0  0  0  0
   -1.2572   -0.3627   -0.7867 S   0  0  0  0  0  0  0  0  0  0  0  0
    1.2586   -0.3642    0.7880 S   0  0  0  0  0  0  0  0  0  0  0  0
   -0.0003   -2.9876   -0.0007 S   0  0  0  0  0  0  0  0  0  0  0  0
   -2.4182   -0.2029    0.5903 C   0  0  0  0  0  0  0  0  0  0  0  0
    2.4168   -0.2020   -0.5911 C   0  0  0  0  0  0  0  0  0  0  0  0
   -3.6956    0.5229    0.1924 C   0  0  0  0  0  0  0  0  0  0  0  0
    3.6951    0.5230   -0.1946 C   0  0  0  0  0  0  0  0  0  0  0  0
    0.0001   -1.3123    0.0010 C   0  0  0  0  0  0  0  0  0  0  0  0
  1  8  1  0
  2  9  1  0
  3  6  1  0
  3 10  1  0
  4  7  1  0
  4 10  1  0
  5 10  2  0
  6  8  1  0
  7  9  1  0
M  END
>  <PUBCHEM_COMPOUND_CID>  (1) 
45622

>  <PUBCHEM_CONFORMER_RMSD>  (1) 
0.6

>  <PUBCHEM_CONFORMER_DIVERSEORDER>  (1) 
1
183
158
265
281
148
193
28
206
172
2
261
152
194
157
263
163
191
232
238
240
44
128
114
287
185
169
4
254
227
249
41
144
180
170
195
179
258
35
198
174
221
139
140
184
105
234
266
156
253
155
235
77
233
84
269
9
135
56
199
208
275
291
192
280
250
231
5
196
177
71
20
133
89
229
289
211
129
42
121
197
200
220
167
245
216
79
178
176
154
14
212
239
145
3
175
244
33
153
113
111
70
256
90
126
110
98
252
225
246
30
219
131
16
125
237
39
205
247
102
117
218
242
123
87
100
81
112
29
164
189
92
151
161
188
187
7
62
150
132
6
162
96
64
210
67
273
109
147
217
73
173
248
186
282
204
207
106
143
11
116
134
146
271
160
115
23
190
166
26
80
168
124
236
222
103
209
40
8
181
15
241
83
142
213
47
49
223
293
97
127
284
66
255
31
272
277
224
118
268
203
257
165
138
130
99
230
74
91
75
267
53
149
286
104
243
88
78
68
12
251
228
43
270
182
279
57
201
86
137
141
122
226
171
259
10
159
93
215
108
13
136
52
50
38
82
55
46
17
264
48
107
94
51
59
76
214
101
119
24
63
72
262
85
283
285
278
37
276
34
260
32
65
61
22
69
25
60
19
274
45
290
58
95
36
18
54
21
202
120
27
292
288

>  <PUBCHEM_MMFF94_PARTIAL_CHARGES>  (1) 
10
1 -0.29
10 0.66
2 -0.29
3 -0.37
4 -0.37
5 -0.38
6 0.23
7 0.23
8 0.29
9 0.29

>  <PUBCHEM_EFFECTIVE_ROTOR_COUNT>  (1) 
6

>  <PUBCHEM_PHARMACOPHORE_FEATURES>  (1) 
1
1 5 acceptor

>  <PUBCHEM_HEAVY_ATOM_COUNT>  (1) 
10

>  <PUBCHEM_ATOM_DEF_STEREO_COUNT>  (1) 
0

>  <PUBCHEM_ATOM_UDEF_STEREO_COUNT>  (1) 
0

>  <PUBCHEM_BOND_DEF_STEREO_COUNT>  (1) 
0

>  <PUBCHEM_BOND_UDEF_STEREO_COUNT>  (1) 
0

>  <PUBCHEM_ISOTOPIC_ATOM_COUNT>  (1) 
0

>  <PUBCHEM_COMPONENT_COUNT>  (1) 
1

>  <PUBCHEM_CACTVS_TAUTO_COUNT>  (1) 
1

>  <PUBCHEM_CONFORMER_ID>  (1) 
0000B23600000001

>  <PUBCHEM_MMFF94_ENERGY>  (1) 
10.3177

>  <PUBCHEM_FEATURE_SELFOVERLAP>  (1) 
5.074

>  <PUBCHEM_SHAPE_FINGERPRINT>  (1) 
122479 349 18335423521024007402
12346645 44 18408039598212614327
13618510 140 18340204094465880705
14123255 52 18410570686616704228
15477762 27 9510875077712188463
15775835 57 18410573989446431424
170605 34 18338237068153142499
1741750 31 18339639057311042234
177051 138 9007056863785485120
17834072 32 18411136913999879257
18186145 218 18130238089887183746
18342897 55 18411128130743740775
201361 129 18267589000798254883
20211469 26 11963661248772786691
20605781 55 18410572894309041675
20645477 56 18198348544798210552
20653085 51 18342745156089837690
20671657 1 18194399987873503335
20711985 344 17907564071596975058
20828058 19 8358268037499005934
20871998 22 8862941675709681198
21499 59 18411414008099028431
21524375 3 18408321081547365386
23500284 214 18338238288066032704
305870 269 18336263448933827046

>  <PUBCHEM_SHAPE_MULTIPOLES>  (1) 
221.08
6.95
2.86
0.88
0
0.86
0
-6.24
0
0
0
0
0.02
0.36

>  <PUBCHEM_SHAPE_SELFOVERLAP>  (1) 
350.725

>  <PUBCHEM_SHAPE_VOLUME>  (1) 
154.5

>  <PUBCHEM_COORDINATE_TYPE>  (1) 
2
5
10

$$$$
