45626
     RDKit          3D

 24 27  0  0  0  0  0  0  0  0999 V2000
    0.2305    0.1142   -2.7220 O   0  0  0  0  0  0  0  0  0  0  0  0
    5.3594    0.1111    0.9510 O   0  0  0  0  0  0  0  0  0  0  0  0
   -0.8330    0.0228   -0.6457 N   0  0  0  0  0  0  0  0  0  0  0  0
   -3.0785   -0.1627    1.2489 C   0  0  0  0  0  0  0  0  0  0  0  0
   -2.4654   -1.3666    0.6007 C   0  0  0  0  0  0  0  0  0  0  0  0
   -2.5991    1.1415    0.6912 C   0  0  0  0  0  0  0  0  0  0  0  0
   -1.3752   -1.2606   -0.2779 C   0  0  0  0  0  0  0  0  0  0  0  0
   -1.5277    1.2109   -0.2122 C   0  0  0  0  0  0  0  0  0  0  0  0
   -2.9767   -2.6304    0.9526 C   0  0  0  0  0  0  0  0  0  0  0  0
   -3.2542    2.3152    1.1098 C   0  0  0  0  0  0  0  0  0  0  0  0
   -0.7979   -2.4569   -0.7486 C   0  0  0  0  0  0  0  0  0  0  0  0
   -1.1860    2.4792   -0.7234 C   0  0  0  0  0  0  0  0  0  0  0  0
    0.2859    0.1042   -1.4930 C   0  0  0  0  0  0  0  0  0  0  0  0
   -2.4091   -3.7953    0.4495 C   0  0  0  0  0  0  0  0  0  0  0  0
   -2.8769    3.5587    0.6155 C   0  0  0  0  0  0  0  0  0  0  0  0
   -1.3137   -3.7077   -0.3964 C   0  0  0  0  0  0  0  0  0  0  0  0
   -1.8469    3.6390   -0.3094 C   0  0  0  0  0  0  0  0  0  0  0  0
    1.6306    0.1070   -0.8457 C   0  0  0  0  0  0  0  0  0  0  0  0
    1.7250    0.0311    0.5380 C   0  0  0  0  0  0  0  0  0  0  0  0
    2.7718    0.1850   -1.6340 C   0  0  0  0  0  0  0  0  0  0  0  0
    2.9816    0.0331    1.1436 C   0  0  0  0  0  0  0  0  0  0  0  0
    4.0283    0.1869   -1.0284 C   0  0  0  0  0  0  0  0  0  0  0  0
    4.1332    0.1110    0.3604 C   0  0  0  0  0  0  0  0  0  0  0  0
    5.3943    0.0293    2.3751 C   0  0  0  0  0  0  0  0  0  0  0  0
  1 13  2  0
  2 23  1  0
  2 24  1  0
  3  7  1  0
  3  8  1  0
  3 13  1  0
  4  5  1  0
  4  6  1  0
  5  7  2  0
  5  9  1  0
  6  8  2  0
  6 10  1  0
  7 11  1  0
  8 12  1  0
  9 14  2  0
 10 15  2  0
 11 16  2  0
 12 17  2  0
 13 18  1  0
 14 16  1  0
 15 17  1  0
 18 19  2  0
 18 20  1  0
 19 21  1  0
 20 22  2  0
 21 23  2  0
 22 23  1  0
M  END
>  <PUBCHEM_COMPOUND_CID>  (1) 
45626

>  <PUBCHEM_CONFORMER_RMSD>  (1) 
0.6

>  <PUBCHEM_CONFORMER_DIVERSEORDER>  (1) 
1
3
2

>  <PUBCHEM_MMFF94_PARTIAL_CHARGES>  (1) 
36
1 -0.57
10 -0.15
11 -0.15
12 -0.15
13 0.54
14 -0.15
15 -0.15
16 -0.15
17 -0.15
18 0.09
19 -0.15
2 -0.36
20 -0.15
21 -0.15
22 -0.15
23 0.08
24 0.28
27 0.15
28 0.15
29 0.15
3 -0.29
30 0.15
31 0.15
32 0.15
33 0.15
34 0.15
35 0.15
36 0.15
37 0.15
38 0.15
4 0.29
5 -0.14
6 -0.14
7 0.12
8 0.12
9 -0.15

>  <PUBCHEM_EFFECTIVE_ROTOR_COUNT>  (1) 
3.4

>  <PUBCHEM_PHARMACOPHORE_FEATURES>  (1) 
6
1 1 acceptor
1 2 acceptor
6 18 19 20 21 22 23 rings
6 3 4 5 6 7 8 rings
6 5 7 9 11 14 16 rings
6 6 8 10 12 15 17 rings

>  <PUBCHEM_HEAVY_ATOM_COUNT>  (1) 
24

>  <PUBCHEM_ATOM_DEF_STEREO_COUNT>  (1) 
0

>  <PUBCHEM_ATOM_UDEF_STEREO_COUNT>  (1) 
0

>  <PUBCHEM_BOND_DEF_STEREO_COUNT>  (1) 
0

>  <PUBCHEM_BOND_UDEF_STEREO_COUNT>  (1) 
0

>  <PUBCHEM_ISOTOPIC_ATOM_COUNT>  (1) 
0

>  <PUBCHEM_COMPONENT_COUNT>  (1) 
1

>  <PUBCHEM_CACTVS_TAUTO_COUNT>  (1) 
1

>  <PUBCHEM_CONFORMER_ID>  (1) 
0000B23A00000001

>  <PUBCHEM_MMFF94_ENERGY>  (1) 
109.5924

>  <PUBCHEM_FEATURE_SELFOVERLAP>  (1) 
30.493

>  <PUBCHEM_SHAPE_FINGERPRINT>  (1) 
10074138 170 18409166623654058003
10165383 225 17477537093982132341
10319926 262 18342451527125774042
10369192 42 16555662866150023256
10928967 22 16879335724644721050
10930396 42 17910920798791087834
1100329 8 16323721055003545988
11036077 4 18189597381444925098
11552529 35 18335969957155463746
11578080 2 17607508426571588685
11582403 64 17700678572018067213
11725454 13 17631445674770001884
121448 382 18340191995859487085
12173636 292 18339360743087389581
12539773 59 17750772442070333371
12553582 1 18050587414498179999
12633257 1 18129676299358726753
12788726 201 18117577312082711034
12930653 34 18342171164018422718
13004483 165 18194117641007830179
13009979 54 18042129928344887810
13140716 1 18194969766840502691
13583140 156 17988628719440394346
14081887 123 18341334473928498754
14178342 30 18408881837416128638
14787075 74 17324095109550439396
14856354 85 18339365288117687982
15042514 8 18337122249509973443
15230672 131 18048329847498737942
15475509 35 16597052954437473107
15842332 3 17822584888444740892
16728300 4 17532923896956367761
17780758 139 18262217990124423882
17980427 26 17548121243485755901
19377110 9 17968935431316299768
20554085 129 18053642712783613545
20600515 1 18127990795831919227
21033648 29 18197222447149572040
212916 134 18268430131277838064
21304303 282 18194660619822073189
21421861 104 17185332370154446771
21650355 55 18338517568245928635
21731228 192 18194120716046086993
22149856 69 17542824944412662721
22956985 138 17039774639680811314
23419403 2 17557967718679670851
23559900 14 18127149502027840294
23598288 3 17970370263213275411
2748010 2 17686944581640618907
392239 28 17902798797103092288
469060 322 17130686461332051068
4938544 92 18338504288745288872
5265222 85 18050886310516449910
57124632 79 17615700531249115897
58260988 647 14996281461748687811
602551 16 18411708686042427682
6371380 46 17836358260406057674
7097593 13 18114742616961865290
7288768 16 17702391658431822761
7364860 26 17256542816278954229
81228 2 18342177821096035655
84936 182 17478340733908200409
90316 7 18267315398586320515
9981440 41 17559932373848831494

>  <PUBCHEM_SHAPE_MULTIPOLES>  (1) 
477.19
8.06
4.27
1.76
13.33
0.83
0.2
-1.17
-4.98
-7.38
-0.25
1.72
-0.11
-0.08

>  <PUBCHEM_SHAPE_SELFOVERLAP>  (1) 
1061.325

>  <PUBCHEM_SHAPE_VOLUME>  (1) 
252.6

>  <PUBCHEM_COORDINATE_TYPE>  (1) 
2
5
10

$$$$
