45628
     RDKit          3D

 28 30  0  0  1  0  0  0  0  0999 V2000
   -5.4602    1.4705    1.5260 O   0  0  0  0  0  0  0  0  0  0  0  0
   -7.0075   -2.3529   -0.7629 O   0  0  0  0  0  0  0  0  0  0  0  0
   -9.1039   -1.5841   -0.4043 O   0  0  0  0  0  0  0  0  0  0  0  0
    0.5802    0.0840    0.0267 N   0  0  0  0  0  0  0  0  0  0  0  0
    4.7388    0.6632   -1.4378 N   0  0  0  0  0  0  0  0  0  0  0  0
    3.6484    0.1421    1.0074 N   0  0  0  0  0  0  0  0  0  0  0  0
   -5.8278   -0.0906   -0.1487 N   0  0  0  0  0  0  0  0  0  0  0  0
    6.8010   -0.3178   -0.7933 N   0  0  0  0  0  0  0  0  0  0  0  0
    5.2958    0.9631   -2.7684 N   0  0  0  0  0  0  0  0  0  0  0  0
    7.0039   -1.2173    1.4232 N   0  0  0  0  0  0  0  0  0  0  0  0
    8.8036   -1.3039   -0.0747 N   0  0  0  0  0  0  0  0  0  0  0  0
    1.5387    1.1415    0.3566 C   0  0  0  0  0  0  0  0  0  0  0  0
    2.9421    0.7564    0.0416 C   0  0  0  0  0  0  0  0  0  0  0  0
   -0.7771    0.2283    0.1855 C   0  0  0  0  0  0  0  0  0  0  0  0
    3.4752    1.0274   -1.1967 C   0  0  0  0  0  0  0  0  0  0  0  0
   -3.5683    0.5236    0.5147 C   0  0  0  0  0  0  0  0  0  0  0  0
    5.5208    0.0419   -0.5255 C   0  0  0  0  0  0  0  0  0  0  0  0
    4.9189   -0.2075    0.7219 C   0  0  0  0  0  0  0  0  0  0  0  0
   -7.2717   -0.0340   -0.1165 C   0  0  0  0  0  0  0  0  0  0  0  0
   -1.3343    1.4273    0.6852 C   0  0  0  0  0  0  0  0  0  0  0  0
   -1.6693   -0.8172   -0.1434 C   0  0  0  0  0  0  0  0  0  0  0  0
   -2.7121    1.5730    0.8477 C   0  0  0  0  0  0  0  0  0  0  0  0
   -3.0470   -0.6716    0.0190 C   0  0  0  0  0  0  0  0  0  0  0  0
   -5.0047    0.6751    0.6853 C   0  0  0  0  0  0  0  0  0  0  0  0
   -7.7867    1.0311   -1.0726 C   0  0  0  0  0  0  0  0  0  0  0  0
    5.7275   -0.8418    1.6443 C   0  0  0  0  0  0  0  0  0  0  0  0
   -7.8948   -1.3816   -0.4404 C   0  0  0  0  0  0  0  0  0  0  0  0
    7.4706   -0.9284    0.1999 C   0  0  0  0  0  0  0  0  0  0  0  0
  1 24  2  0
  2 27  1  0
  3 27  2  0
  4 12  1  0
  4 14  1  0
  5  9  1  0
  5 15  2  0
  5 17  1  0
  6 13  2  0
  6 18  1  0
  7 19  1  0
  7 24  1  0
  8 17  2  0
  8 28  1  0
 10 26  1  0
 10 28  2  0
 11 28  1  0
 12 13  1  0
 13 15  1  0
 14 20  2  0
 14 21  1  0
 16 22  2  0
 16 23  1  0
 16 24  1  0
 17 18  1  0
 18 26  2  0
 19 25  1  0
 19 27  1  0
 20 22  1  0
 21 23  2  0
M  CHG  1   5   1
M  END
>  <PUBCHEM_COMPOUND_CID>  (1) 
45628

>  <PUBCHEM_CONFORMER_RMSD>  (1) 
0.8

>  <PUBCHEM_CONFORMER_DIVERSEORDER>  (1) 
1
253
81
63
146
328
184
314
91
292
90
154
101
204
151
68
245
164
329
119
207
47
222
289
322
95
310
273
6
66
171
51
325
254
298
269
215
12
271
89
311
211
251
316
278
229
185
125
104
128
7
126
295
291
69
280
29
23
312
36
300
281
20
179
94
57
230
320
233
327
240
243
24
315
160
121
19
41
290
197
115
317
219
305
186
118
255
193
48
227
79
84
223
323
201
265
248
80
172
170
4
123
261
59
188
45
5
217
38
102
92
326
18
37
97
235
299
21
242
58
122
105
78
283
293
252
285
212
93
266
82
259
71
87
275
183
262
282
306
308
72
40
27
10
174
296
301
50
218
144
231
194
107
284
116
42
210
110
13
226
241
221
39
264
256
257
31
127
16
35
175
162
109
192
113
277
159
206
142
287
33
190
74
26
203
318
319
30
83
141
55
112
196
246
145
2
99
238
28
86
225
54
152
8
64
138
130
244
137
25
294
62
60
17
176
124
150
324
236
88
22
181
168
173
267
232
111
49
258
237
103
158
297
117
214
216
96
75
200
132
178
135
143
3
187
43
165
147
153
191
307
136
180
34
157
120
224
239
202
114
70
156
129
220
11
309
198
98
234
272
286
85
268
205
228
247
302
61
303
249
169
76
9
182
53
270
148
100
108
134
177
77
32
166
250
106
15
131
52
276
161
14
209
44
163
213
313
139
304
73
321
288
199
133
155
149
263
67
167
260
274
56
46
208
279
195
65
189
140

>  <PUBCHEM_MMFF94_PARTIAL_CHARGES>  (1) 
40
1 -0.57
10 -0.62
11 -0.9
12 0.51
13 0.17
14 0.1
15 0.21
16 0.09
17 0.67
18 0.31
19 0.36
2 -0.65
20 -0.15
21 -0.15
22 -0.15
23 -0.15
24 0.54
26 0.16
27 0.66
28 0.72
3 -0.57
31 0.4
32 0.15
34 0.15
35 0.15
36 0.15
37 0.15
38 0.37
4 -0.87
42 0.15
43 0.36
44 0.36
45 0.4
46 0.4
47 0.5
5 0.04
6 -0.62
7 -0.73
8 -0.62
9 -0.49

>  <PUBCHEM_EFFECTIVE_ROTOR_COUNT>  (1) 
7

>  <PUBCHEM_PHARMACOPHORE_FEATURES>  (1) 
14
1 1 acceptor
1 11 donor
1 2 acceptor
1 3 acceptor
1 4 cation
1 4 donor
1 6 acceptor
1 7 donor
1 9 donor
3 2 3 27 anion
4 8 10 11 28 cation
6 14 16 20 21 22 23 rings
6 5 6 13 15 17 18 rings
6 8 10 17 18 26 28 rings

>  <PUBCHEM_HEAVY_ATOM_COUNT>  (1) 
28

>  <PUBCHEM_ATOM_DEF_STEREO_COUNT>  (1) 
0

>  <PUBCHEM_ATOM_UDEF_STEREO_COUNT>  (1) 
1

>  <PUBCHEM_BOND_DEF_STEREO_COUNT>  (1) 
0

>  <PUBCHEM_BOND_UDEF_STEREO_COUNT>  (1) 
0

>  <PUBCHEM_ISOTOPIC_ATOM_COUNT>  (1) 
0

>  <PUBCHEM_COMPONENT_COUNT>  (1) 
1

>  <PUBCHEM_CACTVS_TAUTO_COUNT>  (1) 
12

>  <PUBCHEM_CONFORMER_ID>  (1) 
0000B23C00000001

>  <PUBCHEM_MMFF94_ENERGY>  (1) 
89.9986

>  <PUBCHEM_FEATURE_SELFOVERLAP>  (1) 
71.146

>  <PUBCHEM_SHAPE_FINGERPRINT>  (1) 
10 15 16486967410848689032
10299344 5 18186801370124160939
11135609 127 17458914859581066516
11135926 11 18130784543815772679
11386260 185 16515689974349130548
11607047 74 18270121344705140324
11638347 137 16128658535814195158
11828532 37 18059573654196140826
12089408 11 18410859833180491840
12166972 35 18334575785176075269
12236239 1 18187372004602516104
12498461 61 17561073697115714222
12592606 108 18334293158635978050
13073987 5 14979688645278487840
13862211 1 18341895203874445097
13914758 101 17603582994124887445
14068700 675 18411421713424169525
14251764 18 18410296912959545032
14428016 248 10952044585286075514
14849402 71 12319443425039915099
14933364 13 15719395027314239813
15131766 46 17316494091305068148
15183329 4 17967253083007665920
15198563 99 15430309179323590327
15419008 47 16630240342446808129
15419008 91 17702928284926702457
15461852 350 18335139782921408725
15510794 2 16559033762362032005
15690457 1 18410290303221193386
1577012 14 18335433352199581137
15840311 113 18335139822315014980
16120349 18 18040999579632745964
17093844 174 15267348410531553859
18335252 114 16732983149878908556
21130935 74 17274551905713324278
21267235 1 18202284736728727153
21315759 40 18335423460873470113
21781051 124 18340775943797547011
21792961 116 15502647175149804140
221357 26 16298385747837142556
22224240 67 14620791604653648413
23081809 10 18260275135455604209
23522609 53 18118997777985248516
23569917 315 18412550916103003031
23576562 1 15503228941824844207
249057 25 18334307452145221077
3004659 81 17967534563160234080
3383291 50 17704072923928552055
3633792 109 16950280680837937945
3663271 9 12535351199181203949
3711267 37 10665232505777268711
5758199 1 10519987067166239677
58902169 19 17894632599705041743
59682541 35 16988554715508841210
9953998 17 14764346059901983725

>  <PUBCHEM_SHAPE_MULTIPOLES>  (1) 
518.77
29.25
1.56
1.41
11.85
0.32
-0.43
13.06
-4.62
1.77
-0.07
-1.83
-0.36
-2.56

>  <PUBCHEM_SHAPE_SELFOVERLAP>  (1) 
1116.225

>  <PUBCHEM_SHAPE_VOLUME>  (1) 
281.7

>  <PUBCHEM_COORDINATE_TYPE>  (1) 
2
5
10

$$$$
