45629
     RDKit          3D

  8  7  0  0  0  0  0  0  0  0999 V2000
   -3.5185    0.4073    0.0434 S   0  0  0  0  0  0  0  0  0  0  0  0
    2.5960    0.1810    0.3652 O   0  0  0  0  0  0  0  0  0  0  0  0
    0.4680   -0.5711   -0.1906 N   0  0  0  0  0  0  0  0  0  0  0  0
   -0.8970   -0.2510   -0.6003 C   0  0  0  0  0  0  0  0  0  0  0  0
   -1.8363   -0.0311    0.5777 C   0  0  0  0  0  0  0  0  0  0  0  0
    0.7499   -1.9903   -0.0162 C   0  0  0  0  0  0  0  0  0  0  0  0
    1.4345    0.4132    0.0192 C   0  0  0  0  0  0  0  0  0  0  0  0
    1.0033    1.8419   -0.1984 C   0  0  0  0  0  0  0  0  0  0  0  0
  1  5  1  0
  2  7  2  0
  3  4  1  0
  3  6  1  0
  3  7  1  0
  4  5  1  0
  7  8  1  0
M  END
>  <PUBCHEM_COMPOUND_CID>  (1) 
45629

>  <PUBCHEM_CONFORMER_RMSD>  (1) 
0.6

>  <PUBCHEM_CONFORMER_DIVERSEORDER>  (1) 
6
11
14
5
4
9
7
13
3
8
1
12
10
2

>  <PUBCHEM_MMFF94_PARTIAL_CHARGES>  (1) 
9
1 -0.41
19 0.18
2 -0.57
3 -0.66
4 0.3
5 0.23
6 0.3
7 0.57
8 0.06

>  <PUBCHEM_EFFECTIVE_ROTOR_COUNT>  (1) 
3

>  <PUBCHEM_PHARMACOPHORE_FEATURES>  (1) 
1
1 2 acceptor

>  <PUBCHEM_HEAVY_ATOM_COUNT>  (1) 
8

>  <PUBCHEM_ATOM_DEF_STEREO_COUNT>  (1) 
0

>  <PUBCHEM_ATOM_UDEF_STEREO_COUNT>  (1) 
0

>  <PUBCHEM_BOND_DEF_STEREO_COUNT>  (1) 
0

>  <PUBCHEM_BOND_UDEF_STEREO_COUNT>  (1) 
0

>  <PUBCHEM_ISOTOPIC_ATOM_COUNT>  (1) 
0

>  <PUBCHEM_COMPONENT_COUNT>  (1) 
1

>  <PUBCHEM_CACTVS_TAUTO_COUNT>  (1) 
1

>  <PUBCHEM_CONFORMER_ID>  (1) 
0000B23D00000006

>  <PUBCHEM_MMFF94_ENERGY>  (1) 
14.0051

>  <PUBCHEM_FEATURE_SELFOVERLAP>  (1) 
5.074

>  <PUBCHEM_SHAPE_FINGERPRINT>  (1) 
10219947 1 18408885126796263168
14390081 3 18202565077406875145
20096714 4 18268431411251555420
21040471 1 18195530526255114428
23235685 24 18410852187389592504
23552449 11 18190176789549636859
29004967 10 18261678086174137243
5084963 1 18130228271423088153

>  <PUBCHEM_SHAPE_MULTIPOLES>  (1) 
157.64
4.16
1.66
0.72
3.62
0.21
-0.01
-0.88
0.46
-0.96
-0.09
0.13
0
-0.02

>  <PUBCHEM_SHAPE_SELFOVERLAP>  (1) 
275.372

>  <PUBCHEM_SHAPE_VOLUME>  (1) 
106.6

>  <PUBCHEM_COORDINATE_TYPE>  (1) 
2
5
10

$$$$
