45637
     RDKit          3D

 19 20  0  0  0  0  0  0  0  0999 V2000
    5.1381    2.3330    0.1422 Cl  0  0  0  0  0  0  0  0  0  0  0  0
   -5.3928    0.1055    0.1665 N   0  0  0  0  0  0  0  0  0  0  0  0
    0.1496   -0.1017   -0.5940 N   0  0  0  0  0  0  0  0  0  0  0  0
    0.7288   -0.2162    0.5117 N   0  0  0  0  0  0  0  0  0  0  0  0
   -3.9971    0.0531   -0.0266 C   0  0  0  0  0  0  0  0  0  0  0  0
   -3.2487    1.2302   -0.0276 C   0  0  0  0  0  0  0  0  0  0  0  0
   -3.3644   -1.1756   -0.2152 C   0  0  0  0  0  0  0  0  0  0  0  0
   -1.2421   -0.0499   -0.4045 C   0  0  0  0  0  0  0  0  0  0  0  0
   -1.8677    1.1786   -0.2170 C   0  0  0  0  0  0  0  0  0  0  0  0
   -1.9834   -1.2273   -0.4045 C   0  0  0  0  0  0  0  0  0  0  0  0
   -6.1509    1.2632   -0.2651 C   0  0  0  0  0  0  0  0  0  0  0  0
   -6.0904   -1.0036    0.7869 C   0  0  0  0  0  0  0  0  0  0  0  0
    4.8757   -0.3716   -0.0541 C   0  0  0  0  0  0  0  0  0  0  0  0
    2.1135   -0.2679    0.3227 C   0  0  0  0  0  0  0  0  0  0  0  0
    4.2433    0.8572    0.1345 C   0  0  0  0  0  0  0  0  0  0  0  0
    4.1271   -1.5488   -0.0542 C   0  0  0  0  0  0  0  0  0  0  0  0
    2.8621    0.9090    0.3228 C   0  0  0  0  0  0  0  0  0  0  0  0
    2.7461   -1.4968    0.1341 C   0  0  0  0  0  0  0  0  0  0  0  0
    6.3531   -0.4704   -0.2586 C   0  0  0  0  0  0  0  0  0  0  0  0
  1 15  1  0
  2  5  1  0
  2 11  1  0
  2 12  1  0
  3  4  2  0
  3  8  1  0
  4 14  1  0
  5  6  2  0
  5  7  1  0
  6  9  1  0
  7 10  2  0
  8  9  2  0
  8 10  1  0
 13 15  2  0
 13 16  1  0
 13 19  1  0
 14 17  2  0
 14 18  1  0
 15 17  1  0
 16 18  2  0
M  END
>  <PUBCHEM_COMPOUND_CID>  (1) 
45637

>  <PUBCHEM_CONFORMER_RMSD>  (1) 
0.6

>  <PUBCHEM_CONFORMER_DIVERSEORDER>  (1) 
1
7
3
4
5
2
6

>  <PUBCHEM_MMFF94_PARTIAL_CHARGES>  (1) 
26
1 -0.18
10 -0.15
11 0.37
12 0.37
13 -0.14
14 0.18
15 0.18
16 -0.15
17 -0.15
18 -0.15
19 0.14
2 -0.84
20 0.15
21 0.15
22 0.15
23 0.15
3 -0.18
30 0.15
31 0.15
32 0.15
4 -0.18
5 0.1
6 -0.15
7 -0.15
8 0.18
9 -0.15

>  <PUBCHEM_EFFECTIVE_ROTOR_COUNT>  (1) 
3

>  <PUBCHEM_PHARMACOPHORE_FEATURES>  (1) 
3
1 2 cation
6 13 14 15 16 17 18 rings
6 5 6 7 8 9 10 rings

>  <PUBCHEM_HEAVY_ATOM_COUNT>  (1) 
19

>  <PUBCHEM_ATOM_DEF_STEREO_COUNT>  (1) 
0

>  <PUBCHEM_ATOM_UDEF_STEREO_COUNT>  (1) 
0

>  <PUBCHEM_BOND_DEF_STEREO_COUNT>  (1) 
0

>  <PUBCHEM_BOND_UDEF_STEREO_COUNT>  (1) 
0

>  <PUBCHEM_ISOTOPIC_ATOM_COUNT>  (1) 
0

>  <PUBCHEM_COMPONENT_COUNT>  (1) 
1

>  <PUBCHEM_CACTVS_TAUTO_COUNT>  (1) 
1

>  <PUBCHEM_CONFORMER_ID>  (1) 
0000B24500000001

>  <PUBCHEM_MMFF94_ENERGY>  (1) 
66.5663

>  <PUBCHEM_FEATURE_SELFOVERLAP>  (1) 
15.223

>  <PUBCHEM_SHAPE_FINGERPRINT>  (1) 
10354089 29 18412262831318115026
10366900 7 15068343401871921828
10447042 23 11241966001593669714
10595046 47 18341611537846935878
10968037 39 18260551121590256279
11287383 113 18334858328886726034
12107183 9 17619631284890595722
12236239 1 18040436585758440991
12596602 18 18333733524692345073
12616971 3 18130496496826663126
12730499 353 18335144202532719466
12788726 201 17203056196439719665
12916748 109 18408887334678550192
13167823 11 18412259523845501270
13533116 47 13758082844429494406
13955234 65 18411694375517755882
1420 363 18187088360071014203
14251732 16 18336829792206597123
14341114 176 18411704304606261992
14933364 13 18409169917503725925
15196674 1 18411697716105103574
17834072 33 18412824698449310326
17844677 252 18410863139604033784
1813 80 16950282901288337068
19489759 90 16877942720573480909
20281389 69 18412544323285193737
20645477 70 18270963441029430590
21267235 1 18413113840480662502
21652331 79 18410571790476352172
220451 1 17418094338699527215
221357 26 18342175540632184900
2297311 6 18341339911219867597
23035841 295 17385442115834705970
23402539 116 18202556277250851549
23557571 272 17313100809347666006
23559900 14 18341325660502464265
239999 70 18342742888859107382
29717793 49 17561368366289245980
300161 21 18343575257003181694
3004659 81 18411981347883416640
34797466 226 17988654020723567348
3545911 37 18410573981188819276
4073 2 18113904913724610970
4214541 1 18412261709730458940
42788 4 18410573985415208227
4463277 17 18409449185167887837
474 4 17968097590212316924
5104073 3 18336262353653682017
542803 24 17240203226769618414
54446538 1 18342457023940347984
59755656 215 18340491071332692670
59755656 520 17168142342840087531
77779 3 18411980256560809718
8272917 22 18201441346495758822

>  <PUBCHEM_SHAPE_MULTIPOLES>  (1) 
377.94
16.52
1.75
0.71
4.43
0.44
-0.02
1.76
-0.87
-1.18
-0.02
0.18
-0.04
0.49

>  <PUBCHEM_SHAPE_SELFOVERLAP>  (1) 
792.435

>  <PUBCHEM_SHAPE_VOLUME>  (1) 
214.8

>  <PUBCHEM_COORDINATE_TYPE>  (1) 
2
5
10

$$$$
