45649
     RDKit          3D

 15 15  0  0  0  0  0  0  0  0999 V2000
   -3.3253    0.0045    0.2389 N   0  0  0  0  0  0  0  0  0  0  0  0
    3.1511   -0.0001    0.2009 N   0  0  0  0  0  0  0  0  0  0  0  0
   -2.4476   -0.0033   -1.0044 C   0  0  0  0  0  0  0  0  0  0  0  0
   -0.9810   -0.0024   -0.6886 C   0  0  0  0  0  0  0  0  0  0  0  0
    1.7373   -0.0009   -0.1034 C   0  0  0  0  0  0  0  0  0  0  0  0
   -3.0310    1.2517    1.0599 C   0  0  0  0  0  0  0  0  0  0  0  0
   -4.7900    0.0031   -0.1744 C   0  0  0  0  0  0  0  0  0  0  0  0
   -3.0328   -1.2335    1.0743 C   0  0  0  0  0  0  0  0  0  0  0  0
    3.9762   -0.7296   -0.8972 C   0  0  0  0  0  0  0  0  0  0  0  0
    3.4477   -0.6969    1.5595 C   0  0  0  0  0  0  0  0  0  0  0  0
    3.8011    1.4142    0.3225 C   0  0  0  0  0  0  0  0  0  0  0  0
   -0.3091   -1.2100   -0.5368 C   0  0  0  0  0  0  0  0  0  0  0  0
   -0.3073    1.2059   -0.5508 C   0  0  0  0  0  0  0  0  0  0  0  0
    1.0545   -1.2093   -0.2432 C   0  0  0  0  0  0  0  0  0  0  0  0
    1.0563    1.2066   -0.2573 C   0  0  0  0  0  0  0  0  0  0  0  0
  1  3  1  0
  1  6  1  0
  1  7  1  0
  1  8  1  0
  2  5  1  0
  2  9  1  0
  2 10  1  0
  2 11  1  0
  3  4  1  0
  4 12  2  0
  4 13  1  0
  5 14  2  0
  5 15  1  0
 12 14  1  0
 13 15  2  0
M  CHG  2   1   1   2   1
M  END
>  <PUBCHEM_COMPOUND_CID>  (1) 
45649

>  <PUBCHEM_CONFORMER_RMSD>  (1) 
0.6

>  <PUBCHEM_CONFORMER_DIVERSEORDER>  (1) 
1

>  <PUBCHEM_MMFF94_PARTIAL_CHARGES>  (1) 
19
1 -1.01
10 0.5
11 0.5
12 -0.15
13 -0.15
14 -0.15
15 -0.15
2 -0.87
3 0.65
36 0.15
37 0.15
38 0.15
39 0.15
4 -0.14
5 0.36
6 0.5
7 0.5
8 0.5
9 0.5

>  <PUBCHEM_EFFECTIVE_ROTOR_COUNT>  (1) 
3

>  <PUBCHEM_PHARMACOPHORE_FEATURES>  (1) 
3
1 1 cation
1 2 cation
6 4 5 12 13 14 15 rings

>  <PUBCHEM_HEAVY_ATOM_COUNT>  (1) 
15

>  <PUBCHEM_ATOM_DEF_STEREO_COUNT>  (1) 
0

>  <PUBCHEM_ATOM_UDEF_STEREO_COUNT>  (1) 
0

>  <PUBCHEM_BOND_DEF_STEREO_COUNT>  (1) 
0

>  <PUBCHEM_BOND_UDEF_STEREO_COUNT>  (1) 
0

>  <PUBCHEM_ISOTOPIC_ATOM_COUNT>  (1) 
0

>  <PUBCHEM_COMPONENT_COUNT>  (1) 
1

>  <PUBCHEM_CACTVS_TAUTO_COUNT>  (1) 
1

>  <PUBCHEM_CONFORMER_ID>  (1) 
0000B25100000001

>  <PUBCHEM_MMFF94_ENERGY>  (1) 
67.5695

>  <PUBCHEM_FEATURE_SELFOVERLAP>  (1) 
15.223

>  <PUBCHEM_SHAPE_FINGERPRINT>  (1) 
10219947 1 18411419513914584644
11132069 177 18260268576765801175
11769659 78 16370714916371759010
12032990 46 18408890620254704734
12251169 10 18334298690690654387
12382932 28 18409452462122270907
124424 183 17821725031549323415
12670546 56 16343702088841200338
12932764 1 17968086530386329358
13296908 3 17385714773406958148
13675066 3 17918275346106462031
13705890 14 12396304763782764304
13760787 19 17095244713344089818
14115302 16 13479144488478557115
14144814 61 18409446981517199696
14252887 29 18408612452207710906
14289901 80 17847059990902627402
14943859 89 15410890760558104535
15309172 13 18412822482183116071
15375358 24 18261107453014794839
15375462 189 17458062664010148995
15653759 3 17313098661742834645
15775835 57 17203612571220021243
16945 1 18338786849852619270
17844478 74 17967529060494809740
18186145 218 18407757036767329612
19026448 4 16081357536543435438
19026448 5 16128650868817289980
200 152 18272080639580055263
20279233 1 17894631444253232831
20281407 28 17385443228141434601
20281475 54 17313105262886015915
20645477 70 16588296151305972642
20671657 53 11963389647926143159
21119208 17 11386364846610967593
22485316 2 17458060482314370811
22854114 59 18411416219811837933
23402539 116 14045735994378161525
23557571 272 15574704751749673646
23559900 14 11097859601527355604
25 1 11023838257835965493
265663 24 15626222403323049279
4047638 21 14908179772115067794
474 4 16485828385178879560
633830 44 18343023276591316124

>  <PUBCHEM_SHAPE_MULTIPOLES>  (1) 
298.73
8.31
1.43
1.15
1.38
0.15
-0.27
0.06
-1.47
-0.29
-0.13
-0.13
-0.15
0.04

>  <PUBCHEM_SHAPE_SELFOVERLAP>  (1) 
592.287

>  <PUBCHEM_SHAPE_VOLUME>  (1) 
181.7

>  <PUBCHEM_COORDINATE_TYPE>  (1) 
2
5
10

$$$$
