4564
     RDKit          3D

 18 20  0  0  0  0  0  0  0  0999 V2000
    0.3560    0.2626   -0.2651 O   0  0  0  0  0  0  0  0  0  0  0  0
   -1.2370   -1.4301    0.0487 N   0  0  0  0  0  0  0  0  0  0  0  0
   -2.1131    2.1290   -0.2522 N   0  0  0  0  0  0  0  0  0  0  0  0
   -3.6287   -0.9751    0.2047 N   0  0  0  0  0  0  0  0  0  0  0  0
   -4.1968    1.3802    0.0045 N   0  0  0  0  0  0  0  0  0  0  0  0
   -2.7909   -3.1538    0.3633 N   0  0  0  0  0  0  0  0  0  0  0  0
    2.7082   -0.1254   -0.4194 C   0  0  0  0  0  0  0  0  0  0  0  0
    2.9882    0.8845    0.7017 C   0  0  0  0  0  0  0  0  0  0  0  0
    3.8009   -1.2017   -0.4706 C   0  0  0  0  0  0  0  0  0  0  0  0
    4.3814    1.4964    0.5742 C   0  0  0  0  0  0  0  0  0  0  0  0
    5.1928   -0.5864   -0.5959 C   0  0  0  0  0  0  0  0  0  0  0  0
    5.4640    0.4234    0.5149 C   0  0  0  0  0  0  0  0  0  0  0  0
    1.3314   -0.7625   -0.2401 C   0  0  0  0  0  0  0  0  0  0  0  0
   -0.9546   -0.1192   -0.1138 C   0  0  0  0  0  0  0  0  0  0  0  0
   -2.0062    0.7740   -0.1185 C   0  0  0  0  0  0  0  0  0  0  0  0
   -3.3129    0.3320    0.0396 C   0  0  0  0  0  0  0  0  0  0  0  0
   -2.5390   -1.7727    0.1960 C   0  0  0  0  0  0  0  0  0  0  0  0
   -3.4437    2.4447   -0.1721 C   0  0  0  0  0  0  0  0  0  0  0  0
  1 13  1  0
  1 14  1  0
  2 14  2  0
  2 17  1  0
  3 15  1  0
  3 18  1  0
  4 16  1  0
  4 17  2  0
  5 16  1  0
  5 18  2  0
  6 17  1  0
  7  8  1  0
  7  9  1  0
  7 13  1  0
  8 10  1  0
  9 11  1  0
 10 12  1  0
 11 12  1  0
 14 15  1  0
 15 16  2  0
M  END
>  <PUBCHEM_COMPOUND_CID>  (1) 
4564

>  <PUBCHEM_CONFORMER_RMSD>  (1) 
0.6

>  <PUBCHEM_CONFORMER_DIVERSEORDER>  (1) 
1
51
23
47
67
2
44
21
63
10
78
74
22
62
40
49
14
24
37
42
58
53
54
4
57
77
35
33
76
20
61
36
34
55
7
73
64
72
41
9
26
6
71
11
29
70
68
15
52
8
28
46
12
3
60
59
16
69
17
48
56
75
19
5
66
32
18
38
27
25
39
45
13
43
31
30
50
65

>  <PUBCHEM_MMFF94_PARTIAL_CHARGES>  (1) 
16
1 -0.36
13 0.28
14 0.39
15 -0.15
16 0.48
17 0.72
18 0.04
2 -0.62
3 0.03
32 0.27
33 0.15
34 0.4
35 0.4
4 -0.57
5 -0.57
6 -0.9

>  <PUBCHEM_EFFECTIVE_ROTOR_COUNT>  (1) 
4.2

>  <PUBCHEM_PHARMACOPHORE_FEATURES>  (1) 
7
1 3 donor
1 6 donor
3 3 5 18 cation
4 2 4 6 17 cation
5 3 5 15 16 18 rings
6 2 4 14 15 16 17 rings
6 7 8 9 10 11 12 rings

>  <PUBCHEM_HEAVY_ATOM_COUNT>  (1) 
18

>  <PUBCHEM_ATOM_DEF_STEREO_COUNT>  (1) 
0

>  <PUBCHEM_ATOM_UDEF_STEREO_COUNT>  (1) 
0

>  <PUBCHEM_BOND_DEF_STEREO_COUNT>  (1) 
0

>  <PUBCHEM_BOND_UDEF_STEREO_COUNT>  (1) 
0

>  <PUBCHEM_ISOTOPIC_ATOM_COUNT>  (1) 
0

>  <PUBCHEM_COMPONENT_COUNT>  (1) 
1

>  <PUBCHEM_CACTVS_TAUTO_COUNT>  (1) 
9

>  <PUBCHEM_CONFORMER_ID>  (1) 
000011D400000001

>  <PUBCHEM_MMFF94_ENERGY>  (1) 
33.2443

>  <PUBCHEM_FEATURE_SELFOVERLAP>  (1) 
35.653

>  <PUBCHEM_SHAPE_FINGERPRINT>  (1) 
10014705 185 18408884022952978781
10319926 262 18339346523331693074
10411042 1 17976824508481251619
10608611 8 18341892991586336296
10616163 171 18409732876126696862
10646746 165 18411138022285512340
10680689 15 18335710450519701658
10912923 1 17603865633301108968
11405975 8 18411417289712427594
11595378 159 17313658248906051276
12107183 9 17901938644018027210
12173636 292 18336825278259311805
12236239 1 17312823779356157380
12390115 104 18127143982889921465
12403259 415 18059293266574006784
12500047 106 18409728422128994806
12507560 40 18343582967060172396
13167823 11 18260264149182293362
13214271 11 18342453763753858133
13583140 156 18060134375441180990
14341114 176 18411706482661161272
14508225 48 18266728272805225111
15042514 8 18263091058255126355
15099037 37 18339363075281238847
15196674 1 18412825798367314784
15375358 24 18272652316390063726
17844677 252 18410581716731186272
200 152 16917063343540612661
20510252 161 18342178847777770937
20645477 56 18337395946121270597
20645477 70 17203333261075834854
21033648 29 17846486050665972880
21065198 57 18411981360610082342
21065199 12 18341331180105203650
21065201 7 18408602565715235138
22224240 67 18340499855479693185
22943178 12 18272370880199927334
2306618 200 18272942630499023771
23402539 116 18412820318326603695
23557571 272 18342747329147987372
23559900 14 18342739564538270958
3545911 37 18412829062447358324
4214541 1 18411138026417007720
5104073 3 18412824690365765706
573450 72 18187354433511311930
5924683 9 18270676584068340375
77779 3 18411419527374421294
90127 26 18409175428537363824
9709674 26 18342743992069590606

>  <PUBCHEM_SHAPE_MULTIPOLES>  (1) 
339.66
11.25
2.41
0.72
10.25
0.54
-0.01
-1.93
-0.47
-3.12
-0.18
0.42
-0.02
1.11

>  <PUBCHEM_SHAPE_SELFOVERLAP>  (1) 
726.216

>  <PUBCHEM_SHAPE_VOLUME>  (1) 
185.7

>  <PUBCHEM_COORDINATE_TYPE>  (1) 
2
5
10

$$$$
