45645
     RDKit          3D

 23 23  0  0  0  0  0  0  0  0999 V2000
   -3.9770   -0.3511    0.0028 N   0  0  0  0  0  0  0  0  0  0  0  0
    3.6951   -0.3810    0.1846 N   0  0  0  0  0  0  0  0  0  0  0  0
   -2.7140    0.3094   -0.5309 C   0  0  0  0  0  0  0  0  0  0  0  0
   -3.9233   -1.8467   -0.2737 C   0  0  0  0  0  0  0  0  0  0  0  0
   -5.1934    0.2491   -0.6873 C   0  0  0  0  0  0  0  0  0  0  0  0
   -4.0774   -0.1160    1.5031 C   0  0  0  0  0  0  0  0  0  0  0  0
   -2.4908    1.6638    0.1347 C   0  0  0  0  0  0  0  0  0  0  0  0
   -1.2718    2.4503   -0.3651 C   0  0  0  0  0  0  0  0  0  0  0  0
    2.4458    0.3337    0.0452 C   0  0  0  0  0  0  0  0  0  0  0  0
    4.0176   -1.2279   -1.0794 C   0  0  0  0  0  0  0  0  0  0  0  0
    3.6753   -1.3419    1.4076 C   0  0  0  0  0  0  0  0  0  0  0  0
    4.9524    0.5193    0.3995 C   0  0  0  0  0  0  0  0  0  0  0  0
   -3.8237   -2.0742   -1.7663 C   0  0  0  0  0  0  0  0  0  0  0  0
   -6.4457   -0.4110   -0.1529 C   0  0  0  0  0  0  0  0  0  0  0  0
   -2.8658   -0.7147    2.1834 C   0  0  0  0  0  0  0  0  0  0  0  0
    0.0335    1.7091   -0.2219 C   0  0  0  0  0  0  0  0  0  0  0  0
    1.6962    0.2064   -1.1242 C   0  0  0  0  0  0  0  0  0  0  0  0
    1.9892    1.1487    1.0812 C   0  0  0  0  0  0  0  0  0  0  0  0
    0.4900    0.8941   -1.2576 C   0  0  0  0  0  0  0  0  0  0  0  0
    0.7832    1.8363    0.9476 C   0  0  0  0  0  0  0  0  0  0  0  0
    5.3314   -1.9494   -0.8739 C   0  0  0  0  0  0  0  0  0  0  0  0
    2.5627   -2.3519    1.2297 C   0  0  0  0  0  0  0  0  0  0  0  0
    5.1104    1.4457   -0.7863 C   0  0  0  0  0  0  0  0  0  0  0  0
  1  3  1  0
  1  4  1  0
  1  5  1  0
  1  6  1  0
  2  9  1  0
  2 10  1  0
  2 11  1  0
  2 12  1  0
  3  7  1  0
  4 13  1  0
  5 14  1  0
  6 15  1  0
  7  8  1  0
  8 16  1  0
  9 17  2  0
  9 18  1  0
 10 21  1  0
 11 22  1  0
 12 23  1  0
 16 19  2  0
 16 20  1  0
 17 19  1  0
 18 20  2  0
M  CHG  2   1   1   2   1
M  END
>  <PUBCHEM_COMPOUND_CID>  (1) 
45645

>  <PUBCHEM_CONFORMER_RMSD>  (1) 
1

>  <PUBCHEM_CONFORMER_DIVERSEORDER>  (1) 
1
4
9
15
6
5
7
3
10
14
11
8
2
12
13

>  <PUBCHEM_MMFF94_PARTIAL_CHARGES>  (1) 
20
1 -1.01
10 0.5
11 0.5
12 0.5
16 -0.14
17 -0.15
18 -0.15
19 -0.15
2 -0.87
20 -0.15
3 0.5
4 0.5
5 0.5
51 0.15
52 0.15
53 0.15
54 0.15
6 0.5
8 0.14
9 0.36

>  <PUBCHEM_EFFECTIVE_ROTOR_COUNT>  (1) 
11

>  <PUBCHEM_PHARMACOPHORE_FEATURES>  (1) 
3
1 1 cation
1 2 cation
6 9 16 17 18 19 20 rings

>  <PUBCHEM_HEAVY_ATOM_COUNT>  (1) 
23

>  <PUBCHEM_ATOM_DEF_STEREO_COUNT>  (1) 
0

>  <PUBCHEM_ATOM_UDEF_STEREO_COUNT>  (1) 
0

>  <PUBCHEM_BOND_DEF_STEREO_COUNT>  (1) 
0

>  <PUBCHEM_BOND_UDEF_STEREO_COUNT>  (1) 
0

>  <PUBCHEM_ISOTOPIC_ATOM_COUNT>  (1) 
0

>  <PUBCHEM_COMPONENT_COUNT>  (1) 
1

>  <PUBCHEM_CACTVS_TAUTO_COUNT>  (1) 
1

>  <PUBCHEM_CONFORMER_ID>  (1) 
0000B24D00000001

>  <PUBCHEM_MMFF94_ENERGY>  (1) 
103.2455

>  <PUBCHEM_FEATURE_SELFOVERLAP>  (1) 
15.223

>  <PUBCHEM_SHAPE_FINGERPRINT>  (1) 
10447042 23 18113891659180864626
10498660 4 9150633296070731807
11552529 35 16988271092484357063
11796584 16 18409726231853799551
12516196 113 18342173388468473833
12553582 1 18334294266663505635
12596599 1 17917724538548150775
12596602 18 17417805209711170130
12633257 1 17632868542149244081
12670546 177 15574726802032415510
12788726 201 18335416808175428993
13103583 49 17561095695515353371
13544653 18 18408326592095914184
13685833 64 18334580166031329561
13914758 101 17346601834173495569
14251757 17 16805319959877996875
14341114 176 17704075105133127749
14617045 38 18186523185482984083
14787075 74 18339926025841373552
14840074 17 18412550907506858399
15183329 4 16805604738095787285
15537594 2 18409733975738181123
15880784 105 18131353003114839090
17349148 13 16732991903565822920
1813 80 18187088346948969893
20403669 9 18412824659989835527
21033648 29 13254521915975633875
21033650 10 13552027712284926566
21054139 6 18187363217131012074
21315764 268 9799693679520971686
21503847 285 12823289113871975234
22950370 63 18130793356334185716
23227448 37 10879692309309999777
235170 7 15864068749969742323
23559900 14 17967816106107900181
239999 70 18409732842431025318
2838139 119 10737282471804675907
2871803 45 18259704476061675696
3004659 81 18113618967111522636
339767 52 18342731936265000559
351380 3 18408604747231632223
38570 142 12893929540675216490
4325135 7 18408887356617857404
4340502 62 18334569175315709000
46194498 28 15864076506954752183
463206 1 18335416915649792651
465052 167 18060139846960452012
474 4 10231757816269254197
5104073 3 17916579831116526776
6913067 236 17531514460974146132

>  <PUBCHEM_SHAPE_MULTIPOLES>  (1) 
463.37
13.48
2.43
1.6
4.4
0.23
0.39
5.35
-1.66
-0.78
-0.15
0.39
0.59
-0.51

>  <PUBCHEM_SHAPE_SELFOVERLAP>  (1) 
910.139

>  <PUBCHEM_SHAPE_VOLUME>  (1) 
277.1

>  <PUBCHEM_COORDINATE_TYPE>  (1) 
2
5
10

$$$$
