45653
     RDKit          3D

 20 20  0  0  0  0  0  0  0  0999 V2000
   -6.4872   -0.3651    0.0458 N   0  0  0  0  0  0  0  0  0  0  0  0
    5.7707   -0.1138   -0.2964 N   0  0  0  0  0  0  0  0  0  0  0  0
   -5.0376   -0.4476   -0.2550 C   0  0  0  0  0  0  0  0  0  0  0  0
   -4.5312    0.9316   -0.6498 C   0  0  0  0  0  0  0  0  0  0  0  0
   -3.0466    0.8873   -1.0148 C   0  0  0  0  0  0  0  0  0  0  0  0
   -2.1946    0.4334    0.1723 C   0  0  0  0  0  0  0  0  0  0  0  0
   -7.2766    0.0916   -1.1893 C   0  0  0  0  0  0  0  0  0  0  0  0
   -6.7538    0.6367    1.1783 C   0  0  0  0  0  0  0  0  0  0  0  0
   -7.0337   -1.7323    0.4812 C   0  0  0  0  0  0  0  0  0  0  0  0
   -0.7053    0.4220   -0.1863 C   0  0  0  0  0  0  0  0  0  0  0  0
    0.1897   -0.0025    0.9836 C   0  0  0  0  0  0  0  0  0  0  0  0
    4.3614   -0.0858    0.0268 C   0  0  0  0  0  0  0  0  0  0  0  0
    1.6593   -0.0319    0.6466 C   0  0  0  0  0  0  0  0  0  0  0  0
    6.0103   -0.4473   -1.7964 C   0  0  0  0  0  0  0  0  0  0  0  0
    6.5350   -1.1692    0.5528 C   0  0  0  0  0  0  0  0  0  0  0  0
    6.5321    1.2274   -0.0538 C   0  0  0  0  0  0  0  0  0  0  0  0
    3.5803   -1.2265   -0.1586 C   0  0  0  0  0  0  0  0  0  0  0  0
    3.7831    1.0821    0.5240 C   0  0  0  0  0  0  0  0  0  0  0  0
    2.2210   -1.1994    0.1531 C   0  0  0  0  0  0  0  0  0  0  0  0
    2.4237    1.1093    0.8358 C   0  0  0  0  0  0  0  0  0  0  0  0
  1  3  1  0
  1  7  1  0
  1  8  1  0
  1  9  1  0
  2 12  1  0
  2 14  1  0
  2 15  1  0
  2 16  1  0
  3  4  1  0
  4  5  1  0
  5  6  1  0
  6 10  1  0
 10 11  1  0
 11 13  1  0
 12 17  2  0
 12 18  1  0
 13 19  2  0
 13 20  1  0
 17 19  1  0
 18 20  2  0
M  CHG  2   1   1   2   1
M  END
>  <PUBCHEM_COMPOUND_CID>  (1) 
45653

>  <PUBCHEM_CONFORMER_RMSD>  (1) 
0.8

>  <PUBCHEM_CONFORMER_DIVERSEORDER>  (1) 
30
35
68
80
18
81
91
72
5
93
59
31
58
20
101
48
27
28
92
25
62
90
74
45
94
8
73
49
67
51
78
50
79
43
89
22
6
3
41
98
11
16
96
100
65
83
7
71
54
69
12
21
57
86
10
17
42
13
4
64
82
1
9
33
37
40
23
38
34
14
56
2
60
55
29
47
52
75
32
36
85
15
95
97
39
61
53
87
70
24
44
88
46
63
77
19
76
66
99
26
84

>  <PUBCHEM_MMFF94_PARTIAL_CHARGES>  (1) 
20
1 -1.01
11 0.14
12 0.36
13 -0.14
14 0.5
15 0.5
16 0.5
17 -0.15
18 -0.15
19 -0.15
2 -0.87
20 -0.15
3 0.5
51 0.15
52 0.15
53 0.15
54 0.15
7 0.5
8 0.5
9 0.5

>  <PUBCHEM_EFFECTIVE_ROTOR_COUNT>  (1) 
8

>  <PUBCHEM_PHARMACOPHORE_FEATURES>  (1) 
4
1 1 cation
1 2 cation
5 4 5 6 10 11 hydrophobe
6 12 13 17 18 19 20 rings

>  <PUBCHEM_HEAVY_ATOM_COUNT>  (1) 
20

>  <PUBCHEM_ATOM_DEF_STEREO_COUNT>  (1) 
0

>  <PUBCHEM_ATOM_UDEF_STEREO_COUNT>  (1) 
0

>  <PUBCHEM_BOND_DEF_STEREO_COUNT>  (1) 
0

>  <PUBCHEM_BOND_UDEF_STEREO_COUNT>  (1) 
0

>  <PUBCHEM_ISOTOPIC_ATOM_COUNT>  (1) 
0

>  <PUBCHEM_COMPONENT_COUNT>  (1) 
1

>  <PUBCHEM_CACTVS_TAUTO_COUNT>  (1) 
1

>  <PUBCHEM_CONFORMER_ID>  (1) 
0000B2550000001E

>  <PUBCHEM_MMFF94_ENERGY>  (1) 
71.3791

>  <PUBCHEM_FEATURE_SELFOVERLAP>  (1) 
20.297

>  <PUBCHEM_SHAPE_FINGERPRINT>  (1) 
10066227 49 17896033257260374066
10087517 78 10881669192894897151
10299344 5 17989205954243882751
10968037 39 17675924305539403919
11089746 13 9943803379160905515
11315181 36 18411982477929365889
11524674 6 17203326737126462191
11796584 16 13470400102515353108
12091667 2 17022902346728010641
12166972 35 18259988184121570436
12236239 1 16988844977339935737
125118 31 10303815392853688698
12616971 3 16916777518010464197
12730499 353 18409166606521823290
13533116 47 14261360115857606950
13668630 136 17775007890370691783
13685833 64 18202282502570285976
13914758 101 9511471017504719471
14123256 10 16877661262560302977
14170010 4 18341889723617806488
1420 363 18407759240132966601
14251718 22 18040996232908450325
14251752 14 15985108483492302657
14251764 18 13398625069848453545
14251764 46 18410571781833234789
14347424 109 10663818551799707774
14350574 20 18413668010961911049
14429380 56 14129060369295674846
14729087 3 9943812175417789347
14933364 13 18343302565683289665
15142383 8 15338838638181911368
15183329 4 17917709098161710187
15348495 7 11527648817951840031
15537594 2 17417802924962837095
15716309 27 18411135831889153551
17093844 174 13973957710822063447
17844677 252 18342458136643099121
19489759 90 10592041367570438679
20157964 124 15430037652292410914
21150785 3 17603308167182232693
21267235 1 17989491805676281904
21315759 40 17749389235247081920
21344244 181 17418105291262349894
21521721 280 18201718492213558688
21623969 137 18060704987548018063
220451 1 15770053934742559372
221357 26 18412822478099431024
22224240 67 11530485549667846976
2297311 6 18409449176889391181
23035841 295 18413106160905083443
23081809 10 16081359722877376913
23424782 7 18334579096141549691
23559900 14 18262795293632045601
246663 6 18272373088124425271
26918003 58 9583513239422165189
2838139 119 9007054656926727611
29717793 49 17060342920455249444
300161 21 12612754626947927713
3009799 131 11097851896087157271
34797466 226 18273501187028267052
3545911 37 18410008844764708883
4325135 7 17675924296427334175
445580 167 17749391524190286093
5207 217 17603305959753671825
5385378 56 12679198106668231333
59755656 215 18412827971204249679
59755656 520 17022616498736764819

>  <PUBCHEM_SHAPE_MULTIPOLES>  (1) 
401.63
23.51
1.33
1.15
19.82
0.22
-0.26
3.38
-2.62
-0.17
0.12
0.06
-0.05
0.59

>  <PUBCHEM_SHAPE_SELFOVERLAP>  (1) 
782.164

>  <PUBCHEM_SHAPE_VOLUME>  (1) 
246.2

>  <PUBCHEM_COORDINATE_TYPE>  (1) 
2
5
10

$$$$
