45655
     RDKit          3D

 19 19  0  0  0  0  0  0  0  0999 V2000
   -5.0275   -0.9918   -0.0587 N   0  0  0  0  0  0  0  0  0  0  0  0
    4.2538   -1.1991   -0.0685 N   0  0  0  0  0  0  0  0  0  0  0  0
   -3.7309   -0.6120    0.5519 C   0  0  0  0  0  0  0  0  0  0  0  0
   -3.1658    0.5922   -0.1867 C   0  0  0  0  0  0  0  0  0  0  0  0
   -1.8468    1.0501    0.4388 C   0  0  0  0  0  0  0  0  0  0  0  0
   -1.2552    2.2403   -0.3228 C   0  0  0  0  0  0  0  0  0  0  0  0
   -6.0436    0.1532    0.0593 C   0  0  0  0  0  0  0  0  0  0  0  0
   -4.8539   -1.3225   -1.5481 C   0  0  0  0  0  0  0  0  0  0  0  0
   -5.6187   -2.2262    0.6371 C   0  0  0  0  0  0  0  0  0  0  0  0
    0.0848    2.7143    0.2516 C   0  0  0  0  0  0  0  0  0  0  0  0
    3.2011   -0.2109    0.0124 C   0  0  0  0  0  0  0  0  0  0  0  0
    1.1825    1.6838    0.1674 C   0  0  0  0  0  0  0  0  0  0  0  0
    3.6905   -2.6469    0.0054 C   0  0  0  0  0  0  0  0  0  0  0  0
    5.2888   -1.0328    1.0806 C   0  0  0  0  0  0  0  0  0  0  0  0
    5.0984   -1.1605   -1.3809 C   0  0  0  0  0  0  0  0  0  0  0  0
    2.3780   -0.1590    1.1374 C   0  0  0  0  0  0  0  0  0  0  0  0
    3.0086    0.6903   -1.0347 C   0  0  0  0  0  0  0  0  0  0  0  0
    1.3625    0.7942    1.2153 C   0  0  0  0  0  0  0  0  0  0  0  0
    1.9933    1.6435   -0.9567 C   0  0  0  0  0  0  0  0  0  0  0  0
  1  3  1  0
  1  7  1  0
  1  8  1  0
  1  9  1  0
  2 11  1  0
  2 13  1  0
  2 14  1  0
  2 15  1  0
  3  4  1  0
  4  5  1  0
  5  6  1  0
  6 10  1  0
 10 12  1  0
 11 16  2  0
 11 17  1  0
 12 18  2  0
 12 19  1  0
 16 18  1  0
 17 19  2  0
M  CHG  2   1   1   2   1
M  END
>  <PUBCHEM_COMPOUND_CID>  (1) 
45655

>  <PUBCHEM_CONFORMER_RMSD>  (1) 
0.8

>  <PUBCHEM_CONFORMER_DIVERSEORDER>  (1) 
39
10
22
1
8
32
4
31
20
6
28
26
5
19
12
9
24
27
16
7
38
35
29
44
30
2
45
11
3
41
33
23
15
18
13
17
21
34
14
43
40
37
25
42
36

>  <PUBCHEM_MMFF94_PARTIAL_CHARGES>  (1) 
20
1 -1.01
10 0.14
11 0.36
12 -0.14
13 0.5
14 0.5
15 0.5
16 -0.15
17 -0.15
18 -0.15
19 -0.15
2 -0.87
3 0.5
48 0.15
49 0.15
50 0.15
51 0.15
7 0.5
8 0.5
9 0.5

>  <PUBCHEM_EFFECTIVE_ROTOR_COUNT>  (1) 
7

>  <PUBCHEM_PHARMACOPHORE_FEATURES>  (1) 
4
1 1 cation
1 2 cation
4 4 5 6 10 hydrophobe
6 11 12 16 17 18 19 rings

>  <PUBCHEM_HEAVY_ATOM_COUNT>  (1) 
19

>  <PUBCHEM_ATOM_DEF_STEREO_COUNT>  (1) 
0

>  <PUBCHEM_ATOM_UDEF_STEREO_COUNT>  (1) 
0

>  <PUBCHEM_BOND_DEF_STEREO_COUNT>  (1) 
0

>  <PUBCHEM_BOND_UDEF_STEREO_COUNT>  (1) 
0

>  <PUBCHEM_ISOTOPIC_ATOM_COUNT>  (1) 
0

>  <PUBCHEM_COMPONENT_COUNT>  (1) 
1

>  <PUBCHEM_CACTVS_TAUTO_COUNT>  (1) 
1

>  <PUBCHEM_CONFORMER_ID>  (1) 
0000B25700000027

>  <PUBCHEM_MMFF94_ENERGY>  (1) 
70.8287

>  <PUBCHEM_FEATURE_SELFOVERLAP>  (1) 
20.297

>  <PUBCHEM_SHAPE_FINGERPRINT>  (1) 
10042902 136 18202280342059519783
10447042 23 18334571352484144644
10670039 82 11963661188786085446
11069576 57 16951110765173242362
11724838 91 10879982576317029577
11796584 16 18199753535658585396
12107183 9 18270975544616594793
12596602 18 16415476060308337939
12633257 1 15697707181809810269
12824470 246 18200599094396962152
12892183 10 15267073505673579577
13103583 49 17346329167430579537
13533116 47 18127693940893664001
13955234 65 18055073430666824921
14123255 352 9079112263295344477
14123255 52 9151168757653067017
14123256 34 18341344343742414959
1420 369 18342458131783064135
14251740 57 18270116958614479643
14251751 18 18202279208562439611
14251752 14 18040712520713065341
14251764 30 17703235005778655358
14576447 43 18261398815217191364
14774955 27 9439410107883842705
14848178 5 18411132515610041555
14848178 96 8070033267838584095
15188451 53 16558457695794494391
15352361 1 18410293601339221779
17834072 32 8934989378427039114
17857418 61 18413668006941159307
193927 3 18413392042344159953
19784866 240 18341901774900029849
20374829 77 18335417959205077849
20388580 30 18261116278925188068
20403669 9 18413392012226797463
20621476 21 17631183983109307798
20645477 70 18115588287279883057
21054139 6 18188781531460006454
21713013 43 17821440270907041285
2215653 11 18335129922066750815
22950370 63 18409174320288419945
23016692 55 18411990139111856933
23379529 103 18410303513960678262
23503958 8 18129382605173912360
235170 7 16443054015746814639
23559900 14 18261107538946243873
270888 7 8934998161630261459
2871803 45 18040433291376373057
3004659 81 18114181942818968720
314194 84 18341895259439792937
3421961 26 18341328997893013585
3472631 163 7925913673474299483
351380 3 18411419509952160375
4259306 186 18335139791142026101
44062 13 18409162204549538725
46194498 28 16951410004260756757
463206 1 18411698828850410051
465052 167 18342184409681330383
474 4 8718835284053830285
5104073 3 18059302067035979769
5207 123 18410007737328103245
559249 180 18341612573926084497
59682541 35 18272079536000183960
59682541 52 14924209513270784010
636775 72 9580365330145656410
7808743 9 9078817581009381564
7970288 3 18410009914280962427
960060 61 18040998492309375965

>  <PUBCHEM_SHAPE_MULTIPOLES>  (1) 
381.05
14.28
2.71
1.22
12.62
0.16
0.18
-11.63
1.07
-0.19
0.07
-0.56
-0.21
-0.11

>  <PUBCHEM_SHAPE_SELFOVERLAP>  (1) 
744.529

>  <PUBCHEM_SHAPE_VOLUME>  (1) 
233.1

>  <PUBCHEM_COORDINATE_TYPE>  (1) 
2
5
10

$$$$
