45657
     RDKit          3D

 17 17  0  0  0  0  0  0  0  0999 V2000
   -3.9616   -0.8009    0.1051 N   0  0  0  0  0  0  0  0  0  0  0  0
    3.7016   -0.6466    0.0939 N   0  0  0  0  0  0  0  0  0  0  0  0
   -2.7266   -0.1237   -0.4714 C   0  0  0  0  0  0  0  0  0  0  0  0
   -2.5172    1.2476    0.1636 C   0  0  0  0  0  0  0  0  0  0  0  0
   -1.3282    2.0506   -0.3803 C   0  0  0  0  0  0  0  0  0  0  0  0
   -4.1405   -2.1663   -0.5428 C   0  0  0  0  0  0  0  0  0  0  0  0
   -3.7918   -0.9708    1.6079 C   0  0  0  0  0  0  0  0  0  0  0  0
   -5.1873    0.0572   -0.1732 C   0  0  0  0  0  0  0  0  0  0  0  0
   -0.0038    1.3404   -0.2554 C   0  0  0  0  0  0  0  0  0  0  0  0
    2.4315    0.0345   -0.0257 C   0  0  0  0  0  0  0  0  0  0  0  0
    3.7304   -1.5979    1.3240 C   0  0  0  0  0  0  0  0  0  0  0  0
    4.8810    0.3566    0.2416 C   0  0  0  0  0  0  0  0  0  0  0  0
    4.0872   -1.5465   -1.1221 C   0  0  0  0  0  0  0  0  0  0  0  0
    0.7571    1.5160    0.8902 C   0  0  0  0  0  0  0  0  0  0  0  0
    0.4306    0.5239   -1.2884 C   0  0  0  0  0  0  0  0  0  0  0  0
    1.9822    0.8591    1.0057 C   0  0  0  0  0  0  0  0  0  0  0  0
    1.6556   -0.1330   -1.1727 C   0  0  0  0  0  0  0  0  0  0  0  0
  1  3  1  0
  1  6  1  0
  1  7  1  0
  1  8  1  0
  2 10  1  0
  2 11  1  0
  2 12  1  0
  2 13  1  0
  3  4  1  0
  4  5  1  0
  5  9  1  0
  9 14  2  0
  9 15  1  0
 10 16  2  0
 10 17  1  0
 14 16  1  0
 15 17  2  0
M  CHG  2   1   1   2   1
M  END
>  <PUBCHEM_COMPOUND_CID>  (1) 
45657

>  <PUBCHEM_CONFORMER_RMSD>  (1) 
0.6

>  <PUBCHEM_CONFORMER_DIVERSEORDER>  (1) 
6
7
1
5
2
3
4

>  <PUBCHEM_MMFF94_PARTIAL_CHARGES>  (1) 
20
1 -1.01
10 0.36
11 0.5
12 0.5
13 0.5
14 -0.15
15 -0.15
16 -0.15
17 -0.15
2 -0.87
3 0.5
42 0.15
43 0.15
44 0.15
45 0.15
5 0.14
6 0.5
7 0.5
8 0.5
9 -0.14

>  <PUBCHEM_EFFECTIVE_ROTOR_COUNT>  (1) 
5

>  <PUBCHEM_PHARMACOPHORE_FEATURES>  (1) 
3
1 1 cation
1 2 cation
6 9 10 14 15 16 17 rings

>  <PUBCHEM_HEAVY_ATOM_COUNT>  (1) 
17

>  <PUBCHEM_ATOM_DEF_STEREO_COUNT>  (1) 
0

>  <PUBCHEM_ATOM_UDEF_STEREO_COUNT>  (1) 
0

>  <PUBCHEM_BOND_DEF_STEREO_COUNT>  (1) 
0

>  <PUBCHEM_BOND_UDEF_STEREO_COUNT>  (1) 
0

>  <PUBCHEM_ISOTOPIC_ATOM_COUNT>  (1) 
0

>  <PUBCHEM_COMPONENT_COUNT>  (1) 
1

>  <PUBCHEM_CACTVS_TAUTO_COUNT>  (1) 
1

>  <PUBCHEM_CONFORMER_ID>  (1) 
0000B25900000006

>  <PUBCHEM_MMFF94_ENERGY>  (1) 
69.6132

>  <PUBCHEM_FEATURE_SELFOVERLAP>  (1) 
15.223

>  <PUBCHEM_SHAPE_FINGERPRINT>  (1) 
10618630 7 18407759252907241661
11046707 91 18408886217892075133
11543360 7 16950291701881989428
11552529 35 16772941657290476135
11769659 78 18114739326864104568
11796584 16 18335700524971768607
12006461 19 18341613741423641067
12251169 10 17203325632728632965
12363563 72 18336552702528528609
12596602 18 15482660303877010271
12633257 1 17632588171000110707
12644460 14 17774716567382267728
12670546 177 15213314044279897178
12730499 353 11530484402790474013
12892183 10 16272211877115451019
13103583 49 17917444128638907907
13544653 18 18410578391809197328
13675066 3 14620800396293382244
14123255 352 11095884852225297659
1420 369 18408326600949586395
14252887 29 17917994958331451270
14386348 63 18342175561863928277
14787075 74 18338799022096151016
14957384 54 12966853368880640923
15163728 17 10230899179487512890
15209294 21 13470684828170136012
15342816 4 18187083923644077982
15537594 2 18260840284358434683
15880784 105 18060420239426367635
1798214 20 17894347778584790283
1813 80 18113626668040801253
18186145 218 12901843657578000988
18785283 64 18057028332656015408
18915474 69 17530967977307834322
19141452 34 18272934942871651255
193927 3 18261686908074068235
19862831 5 15647054862998447097
200 152 16081084857702178756
20261772 1 17561357404947261382
20281475 54 18342746216667146101
20374829 77 18335133198646756019
20403669 9 18411699863905619999
20621476 91 18267843117018030346
20645477 56 9367337158984708893
20645477 70 18411414055375102869
20671657 53 17458346346621421573
20871999 31 17530679879692234357
21250096 35 18333447638552144787
21503847 285 13398625070112256546
21524375 3 10592043557408154421
22485316 2 18334009480140421933
22646028 28 18260830401627584573
231179 274 10591766463065593780
23402539 116 16805319955767651956
23402655 69 13335001812453842455
23557571 272 18187075139967193620
23559900 14 18261387875281990796
26918003 58 17918273164843415433
2871803 45 18260263023315078283
3009799 131 13045935799297131264
351380 3 18260269642150085179
4028521 119 10665223757144352215
4325135 7 18333732438408737468
474 4 12679168445001313114
4921388 177 15574725720212198073
5104073 3 18059006160789429632
5281201 14 11170179935272137457
5352402 22 17704079460335539326
633830 44 14708347798975415924
76465 3 18409157814248949691

>  <PUBCHEM_SHAPE_MULTIPOLES>  (1) 
339.89
10.54
1.96
1.29
3.03
0.2
0.17
5.69
0.93
0.63
0.03
-0.33
0.29
0.24

>  <PUBCHEM_SHAPE_SELFOVERLAP>  (1) 
667.957

>  <PUBCHEM_SHAPE_VOLUME>  (1) 
207.6

>  <PUBCHEM_COORDINATE_TYPE>  (1) 
2
5
10

$$$$
