45666
     RDKit          3D

 18 17  0  0  0  0  0  0  0  0999 V2000
   -0.1325    1.0010    0.7774 S   0  0  0  0  0  0  0  0  0  0  0  0
   -0.0844    2.2925    0.0225 O   0  0  0  0  0  0  0  0  0  0  0  0
   -3.8479   -0.3196   -0.3178 N   0  0  0  0  0  0  0  0  0  0  0  0
    3.7185   -0.3645    0.1172 N   0  0  0  0  0  0  0  0  0  0  0  0
   -2.8150    0.5295    0.3269 C   0  0  0  0  0  0  0  0  0  0  0  0
    2.5939    0.5329    0.6134 C   0  0  0  0  0  0  0  0  0  0  0  0
   -5.2550    0.2236   -0.0336 C   0  0  0  0  0  0  0  0  0  0  0  0
   -3.7763   -1.7591    0.2094 C   0  0  0  0  0  0  0  0  0  0  0  0
    4.9735   -0.1064    0.9384 C   0  0  0  0  0  0  0  0  0  0  0  0
    3.9996   -0.0621   -1.3476 C   0  0  0  0  0  0  0  0  0  0  0  0
   -1.4301   -0.0190    0.0396 C   0  0  0  0  0  0  0  0  0  0  0  0
    1.2500   -0.0207    0.1792 C   0  0  0  0  0  0  0  0  0  0  0  0
   -3.6495   -0.3581   -1.8393 C   0  0  0  0  0  0  0  0  0  0  0  0
    3.3068   -1.8223    0.2645 C   0  0  0  0  0  0  0  0  0  0  0  0
   -5.3782    1.6157   -0.6135 C   0  0  0  0  0  0  0  0  0  0  0  0
   -3.9692   -1.7502    1.7101 C   0  0  0  0  0  0  0  0  0  0  0  0
    5.3778    1.3438    0.7883 C   0  0  0  0  0  0  0  0  0  0  0  0
    5.1180   -0.9569   -1.8353 C   0  0  0  0  0  0  0  0  0  0  0  0
  1  2  2  0
  1 11  1  0
  1 12  1  0
  3  5  1  0
  3  7  1  0
  3  8  1  0
  3 13  1  0
  4  6  1  0
  4  9  1  0
  4 10  1  0
  4 14  1  0
  5 11  1  0
  6 12  1  0
  7 15  1  0
  8 16  1  0
  9 17  1  0
 10 18  1  0
M  CHG  2   3   1   4   1
M  END
>  <PUBCHEM_COMPOUND_CID>  (1) 
45666

>  <PUBCHEM_CONFORMER_RMSD>  (1) 
0.8

>  <PUBCHEM_CONFORMER_DIVERSEORDER>  (1) 
1
363
61
417
325
256
403
338
425
174
20
328
293
351
96
310
272
418
112
357
80
295
463
144
189
104
290
367
52
315
10
431
362
225
278
383
32
147
70
114
137
366
83
398
462
274
5
404
433
185
415
210
414
217
380
249
323
273
330
60
428
263
281
302
8
150
307
454
142
345
209
129
304
381
134
145
183
232
66
448
56
63
36
434
214
71
327
424
15
78
319
167
429
348
453
98
309
123
182
136
333
73
251
408
238
140
377
131
252
402
445
26
416
352
54
389
205
208
413
267
161
421
53
102
212
245
41
108
337
452
49
303
128
154
228
282
356
124
277
230
141
18
46
378
191
299
6
285
465
17
457
62
163
44
283
359
89
67
343
28
390
121
229
423
420
385
152
110
155
427
57
400
47
300
213
200
125
197
186
194
329
100
451
279
468
207
250
223
179
117
358
320
103
111
275
24
178
158
193
118
446
138
187
334
153
219
464
127
34
375
45
373
132
4
294
246
460
342
31
459
355
239
90
87
353
237
412
439
269
372
419
318
467
242
298
396
324
443
331
176
184
437
51
97
393
151
322
29
173
440
466
143
268
33
312
276
234
130
65
253
284
449
116
157
405
160
203
401
336
447
58
69
432
198
106
241
265
266
166
288
426
409
204
37
411
361
346
286
216
248
172
190
11
332
85
317
180
12
407
59
436
93
461
354
64
442
458
169
206
387
335
456
113
316
326
258
109
435
115
374
236
75
175
410
164
201
22
218
379
19
314
156
313
79
287
199
392
226
224
122
376
42
38
119
388
146
347
165
105
360
368
7
369
350
92
211
91
444
95
84
120
196
139
308
23
301
72
438
170
35
291
244
86
397
21
148
430
43
306
99
50
177
340
82
289
30
135
371
254
349
406
77
280
391
231
171
13
202
40
195
14
370
296
48
88
261
25
149
74
450
321
364
101
382
126
55
168
2
220
159
181
247
270
3
257
94
227
455
9
39
76
264
235
271
260
441
215
221
27
399
133
311
365
192
255
243
292
81
107
188
297
222
259
422
240
395
344
162
305
341
384
262
339
386
233
394
16
68

>  <PUBCHEM_MMFF94_PARTIAL_CHARGES>  (1) 
14
1 0.11
10 0.5
11 0.19
12 0.19
13 0.5
14 0.5
2 -0.5
3 -1.01
4 -1.01
5 0.5
6 0.5
7 0.5
8 0.5
9 0.5

>  <PUBCHEM_EFFECTIVE_ROTOR_COUNT>  (1) 
10

>  <PUBCHEM_PHARMACOPHORE_FEATURES>  (1) 
3
1 2 acceptor
1 3 cation
1 4 cation

>  <PUBCHEM_HEAVY_ATOM_COUNT>  (1) 
18

>  <PUBCHEM_ATOM_DEF_STEREO_COUNT>  (1) 
0

>  <PUBCHEM_ATOM_UDEF_STEREO_COUNT>  (1) 
0

>  <PUBCHEM_BOND_DEF_STEREO_COUNT>  (1) 
0

>  <PUBCHEM_BOND_UDEF_STEREO_COUNT>  (1) 
0

>  <PUBCHEM_ISOTOPIC_ATOM_COUNT>  (1) 
0

>  <PUBCHEM_COMPONENT_COUNT>  (1) 
1

>  <PUBCHEM_CACTVS_TAUTO_COUNT>  (1) 
1

>  <PUBCHEM_CONFORMER_ID>  (1) 
0000B26200000001

>  <PUBCHEM_MMFF94_ENERGY>  (1) 
63.6629

>  <PUBCHEM_FEATURE_SELFOVERLAP>  (1) 
15.223

>  <PUBCHEM_SHAPE_FINGERPRINT>  (1) 
10366900 7 13830129507343279551
10912923 1 16225767445143384290
11128504 68 15357698612677982999
11543360 7 16732706085728082722
11552529 35 14979092830171962540
12107183 9 13467917280167797231
12166972 35 10665232522998926350
12516196 113 17418369212037164913
12596602 18 13973675126921266895
12670546 177 17313109682454920750
12670546 56 14333127451114903067
13533116 47 17677319525602239514
13544653 18 17846782918293860112
13955234 65 16845852400318061658
14251757 5 18260551074451650509
14251764 18 17846498145689562329
14252887 29 17632298982393959480
14386348 63 18413388743598384091
15788980 27 17989488528262696957
15880784 105 16702302360211418006
17834072 33 16877666789777076646
17834072 8 18343861092031314821
17844677 252 18336550503241996865
200 152 16343697734292839049
20621476 66 18272091535928598081
20645477 70 17989481935414122428
20681677 155 18186514385358602473
20871999 31 17603874441783466539
220451 1 17167859751514218866
2215653 11 18201996604088503581
22485316 2 18342452642777891169
23402539 116 15357969071021335970
23557571 272 18268156365862421724
23559900 14 18410852187701121464
239999 70 18131072632725341294
2871803 45 18342459206068317442
300161 21 18335412452798379081
3004659 81 17968654913616233898
314173 85 18202286891911071616
351380 180 11024104352429391407
4921388 177 16805611399595630715
5104073 3 18059296466081919898
542803 24 17022624160941952757
54446538 1 13767920208911435453
90127 26 17989213616038355624

>  <PUBCHEM_SHAPE_MULTIPOLES>  (1) 
358.45
14.77
1.8
1.46
2.06
0.01
-0.44
-0.6
-1.81
-0.72
0.31
0.31
-0.44
1.69

>  <PUBCHEM_SHAPE_SELFOVERLAP>  (1) 
648.987

>  <PUBCHEM_SHAPE_VOLUME>  (1) 
235.1

>  <PUBCHEM_COORDINATE_TYPE>  (1) 
2
5
10

$$$$
