45662
     RDKit          3D

 14 14  0  0  0  0  0  0  0  0999 V2000
    3.8404    0.7802    0.0001 O   0  0  0  0  0  0  0  0  0  0  0  0
   -2.7676   -0.4996   -0.0001 N   0  0  0  0  0  0  0  0  0  0  0  0
    2.0998   -0.8070   -0.0001 N   0  0  0  0  0  0  0  0  0  0  0  0
    4.3183   -1.4542   -0.0004 N   0  0  0  0  0  0  0  0  0  0  0  0
   -1.3926    0.1729   -0.0005 C   0  0  0  0  0  0  0  0  0  0  0  0
   -3.5262   -0.0658   -1.2511 C   0  0  0  0  0  0  0  0  0  0  0  0
   -3.5178   -0.0826    1.2619 C   0  0  0  0  0  0  0  0  0  0  0  0
   -2.6651   -2.0234   -0.0101 C   0  0  0  0  0  0  0  0  0  0  0  0
   -0.3111   -0.6423   -0.0002 C   0  0  0  0  0  0  0  0  0  0  0  0
   -1.3737    1.5272   -0.0003 C   0  0  0  0  0  0  0  0  0  0  0  0
    0.9417   -0.0288    0.0004 C   0  0  0  0  0  0  0  0  0  0  0  0
   -0.1210    2.1409    0.0001 C   0  0  0  0  0  0  0  0  0  0  0  0
    1.0367    1.3628    0.0005 C   0  0  0  0  0  0  0  0  0  0  0  0
    3.4382   -0.3804   -0.0002 C   0  0  0  0  0  0  0  0  0  0  0  0
  1 14  2  0
  2  5  1  0
  2  6  1  0
  2  7  1  0
  2  8  1  0
  3 11  1  0
  3 14  1  0
  4 14  1  0
  5  9  2  0
  5 10  1  0
  9 11  1  0
 10 12  2  0
 11 13  2  0
 12 13  1  0
M  CHG  1   2   1
M  END
>  <PUBCHEM_COMPOUND_CID>  (1) 
45662

>  <PUBCHEM_CONFORMER_RMSD>  (1) 
0.6

>  <PUBCHEM_CONFORMER_DIVERSEORDER>  (1) 
2
10
6
9
7
3
8
13
11
12
4
5
1

>  <PUBCHEM_MMFF94_PARTIAL_CHARGES>  (1) 
21
1 -0.57
10 -0.15
11 0.12
12 -0.15
13 -0.15
14 0.69
2 -0.87
24 0.15
25 0.15
26 0.15
27 0.15
28 0.37
29 0.37
3 -0.55
30 0.37
4 -0.8
5 0.36
6 0.5
7 0.5
8 0.5
9 -0.15

>  <PUBCHEM_EFFECTIVE_ROTOR_COUNT>  (1) 
3

>  <PUBCHEM_PHARMACOPHORE_FEATURES>  (1) 
5
1 1 acceptor
1 2 cation
1 3 donor
1 4 donor
6 5 9 10 11 12 13 rings

>  <PUBCHEM_HEAVY_ATOM_COUNT>  (1) 
14

>  <PUBCHEM_ATOM_DEF_STEREO_COUNT>  (1) 
0

>  <PUBCHEM_ATOM_UDEF_STEREO_COUNT>  (1) 
0

>  <PUBCHEM_BOND_DEF_STEREO_COUNT>  (1) 
0

>  <PUBCHEM_BOND_UDEF_STEREO_COUNT>  (1) 
0

>  <PUBCHEM_ISOTOPIC_ATOM_COUNT>  (1) 
0

>  <PUBCHEM_COMPONENT_COUNT>  (1) 
1

>  <PUBCHEM_CACTVS_TAUTO_COUNT>  (1) 
3

>  <PUBCHEM_CONFORMER_ID>  (1) 
0000B25E00000002

>  <PUBCHEM_MMFF94_ENERGY>  (1) 
60.3331

>  <PUBCHEM_FEATURE_SELFOVERLAP>  (1) 
25.42

>  <PUBCHEM_SHAPE_FINGERPRINT>  (1) 
10219947 1 18272652359144447302
11132069 177 18411693301179442738
11543360 7 15575008294262913230
11769659 78 18412542149699088102
12032990 46 18409171017099606874
12251169 10 18272100413240071411
13296908 3 18335137604935120010
13760787 5 18409171016999419228
14911166 2 18335689534450755631
14965852 173 18271246131281094499
15375462 189 18259987084593573003
16945 1 18410856564188107365
18186145 218 17095525088998907860
200 152 18060126640046734485
20201158 50 18409445890680097511
20281407 28 18411418427440839464
20281475 54 18412267267570945358
20645477 70 18409722933293049238
20871998 184 18201157641913693004
20871998 22 18271259239083347687
21061003 4 18410859871423734217
221490 88 17974851980030213267
22213442 358 18339078305985113981
22485316 2 18409163329139815002
23402539 116 18342449305609479326
23463225 33 18411141354890048708
23557571 272 18130233644923353172
23559900 14 18409440376585401362
25610 137 18335707156469780452
2748010 2 18193271025612423271
3071541 158 18114459071315630789
3312278 4 18333167262913164003
5493415 88 18338514256704726755
7364860 26 18053662757010705680
83771 10 18408888446790165321
8809292 202 18260552259414049347

>  <PUBCHEM_SHAPE_MULTIPOLES>  (1) 
267.3
6.99
1.84
0.83
4.47
0.28
0
-2.86
0
-0.05
0
-0.87
0
0

>  <PUBCHEM_SHAPE_SELFOVERLAP>  (1) 
546.314

>  <PUBCHEM_SHAPE_VOLUME>  (1) 
156.9

>  <PUBCHEM_COORDINATE_TYPE>  (1) 
2
5
10

$$$$
