45668
     RDKit          3D

 16 15  0  0  0  0  0  0  0  0999 V2000
   -0.1035    1.3468    0.0065 S   0  0  0  0  0  0  0  0  0  0  0  0
   -0.0809    1.9405   -1.3673 O   0  0  0  0  0  0  0  0  0  0  0  0
    3.8314    0.1023    0.3195 N   0  0  0  0  0  0  0  0  0  0  0  0
   -3.7023   -0.5975   -0.1233 N   0  0  0  0  0  0  0  0  0  0  0  0
    2.6460    1.0460    0.1761 C   0  0  0  0  0  0  0  0  0  0  0  0
   -2.7390    0.5317   -0.0995 C   0  0  0  0  0  0  0  0  0  0  0  0
    1.3494    0.2592    0.1438 C   0  0  0  0  0  0  0  0  0  0  0  0
   -1.3191    0.0084    0.0070 C   0  0  0  0  0  0  0  0  0  0  0  0
    3.8605   -0.8587   -0.8603 C   0  0  0  0  0  0  0  0  0  0  0  0
   -5.1440   -0.0817   -0.2293 C   0  0  0  0  0  0  0  0  0  0  0  0
    5.1215    0.9092    0.3484 C   0  0  0  0  0  0  0  0  0  0  0  0
    3.6974   -0.6871    1.6136 C   0  0  0  0  0  0  0  0  0  0  0  0
   -3.4347   -1.5166   -1.3229 C   0  0  0  0  0  0  0  0  0  0  0  0
   -3.5885   -1.4373    1.1562 C   0  0  0  0  0  0  0  0  0  0  0  0
    5.0405   -1.7939   -0.7121 C   0  0  0  0  0  0  0  0  0  0  0  0
   -5.4348    0.8288    0.9436 C   0  0  0  0  0  0  0  0  0  0  0  0
  1  2  2  0
  1  7  1  0
  1  8  1  0
  3  5  1  0
  3  9  1  0
  3 11  1  0
  3 12  1  0
  4  6  1  0
  4 10  1  0
  4 13  1  0
  4 14  1  0
  5  7  1  0
  6  8  1  0
  9 15  1  0
 10 16  1  0
M  CHG  2   3   1   4   1
M  END
>  <PUBCHEM_COMPOUND_CID>  (1) 
45668

>  <PUBCHEM_CONFORMER_RMSD>  (1) 
0.8

>  <PUBCHEM_CONFORMER_DIVERSEORDER>  (1) 
2
62
63
34
48
20
61
56
54
17
37
36
23
43
3
39
44
38
16
27
53
4
19
1
18
40
14
57
9
52
30
60
29
31
33
22
59
13
24
45
35
21
8
28
47
25
50
55
41
26
58
49
11
51
10
5
32
46
7
42
15
6
12

>  <PUBCHEM_MMFF94_PARTIAL_CHARGES>  (1) 
14
1 0.11
10 0.5
11 0.5
12 0.5
13 0.5
14 0.5
2 -0.5
3 -1.01
4 -1.01
5 0.5
6 0.5
7 0.19
8 0.19
9 0.5

>  <PUBCHEM_EFFECTIVE_ROTOR_COUNT>  (1) 
8

>  <PUBCHEM_PHARMACOPHORE_FEATURES>  (1) 
3
1 2 acceptor
1 3 cation
1 4 cation

>  <PUBCHEM_HEAVY_ATOM_COUNT>  (1) 
16

>  <PUBCHEM_ATOM_DEF_STEREO_COUNT>  (1) 
0

>  <PUBCHEM_ATOM_UDEF_STEREO_COUNT>  (1) 
0

>  <PUBCHEM_BOND_DEF_STEREO_COUNT>  (1) 
0

>  <PUBCHEM_BOND_UDEF_STEREO_COUNT>  (1) 
0

>  <PUBCHEM_ISOTOPIC_ATOM_COUNT>  (1) 
0

>  <PUBCHEM_COMPONENT_COUNT>  (1) 
1

>  <PUBCHEM_CACTVS_TAUTO_COUNT>  (1) 
1

>  <PUBCHEM_CONFORMER_ID>  (1) 
0000B26400000002

>  <PUBCHEM_MMFF94_ENERGY>  (1) 
53.2259

>  <PUBCHEM_FEATURE_SELFOVERLAP>  (1) 
15.223

>  <PUBCHEM_SHAPE_FINGERPRINT>  (1) 
10366900 7 15410899573599030194
11128504 68 12901549061149094811
11287383 113 12973891411450299257
114248 4 13406796631475690121
11543360 7 14056722361142752040
12596602 18 16056872567928938962
12616999 72 15936408927570733618
13167823 11 18272086127820362911
13533116 47 16558474088725028287
13583140 156 16200143331084900535
13675066 3 18342459274587288777
13955234 65 18060696213641501778
14251764 18 18272938241475106409
14252887 29 18341894108747299416
15537594 2 17603307046328059971
15880784 105 17632293497093526994
17834072 33 18272932773560011560
17834072 8 18261106366609764589
17844677 252 18060144232238540936
1813 80 18113060423742189716
18186145 218 17168137992180244429
19141452 34 18273214214124035343
193927 3 18335148604214541850
19489759 90 16128658535824484713
20281475 54 18131064961243850620
20300324 65 11891332050167896927
20432913 95 18060138756023005650
204376 136 12463570707653745389
20645477 70 18261674878123710836
21354914 88 18341895177650791480
21503847 285 13901905644322708130
21524375 3 10447929481491509773
2215653 11 18408880729119043415
22485316 2 18131349730291574644
23402539 116 18260541246985624089
235170 7 14418127392244479931
23557571 272 18263367997034021420
23559900 14 18060135474768341976
239999 70 18334860528722377682
26918003 58 17203609276452727379
2871803 45 18187082824185236698
300161 21 18343293799296167032
314173 85 18334011687722178045
34797466 226 13479140072946540259
351380 180 12751239203156162387
351380 3 18260266334761334698
42 15 17704073984246773420
5281201 14 13912597226170792226
5924683 9 17059763533846655423
7495541 125 14779556720001950925

>  <PUBCHEM_SHAPE_MULTIPOLES>  (1) 
317.29
13.61
1.71
1.22
0.6
0.24
0.15
3.04
1.6
-0.44
-0.39
0.02
0.2
0.1

>  <PUBCHEM_SHAPE_SELFOVERLAP>  (1) 
568.125

>  <PUBCHEM_SHAPE_VOLUME>  (1) 
211

>  <PUBCHEM_COORDINATE_TYPE>  (1) 
2
5
10

$$$$
