45672
     RDKit          3D

 14 13  0  0  0  0  0  0  0  0999 V2000
   -0.0084    1.1375    0.5972 S   0  0  0  0  0  0  0  0  0  0  0  0
   -0.0096    2.2810   -0.3684 O   0  0  0  0  0  0  0  0  0  0  0  0
    3.8024   -0.3446   -0.0445 N   0  0  0  0  0  0  0  0  0  0  0  0
   -3.7766   -0.3272   -0.0373 N   0  0  0  0  0  0  0  0  0  0  0  0
    2.7054    0.6313    0.3562 C   0  0  0  0  0  0  0  0  0  0  0  0
   -2.7109    0.6129    0.3916 C   0  0  0  0  0  0  0  0  0  0  0  0
    1.3404    0.0201    0.1023 C   0  0  0  0  0  0  0  0  0  0  0  0
   -1.3432    0.0148    0.1215 C   0  0  0  0  0  0  0  0  0  0  0  0
    3.6714   -0.6753   -1.5243 C   0  0  0  0  0  0  0  0  0  0  0  0
    5.1625    0.2866    0.2159 C   0  0  0  0  0  0  0  0  0  0  0  0
    3.6701   -1.6207    0.7740 C   0  0  0  0  0  0  0  0  0  0  0  0
   -3.6690   -1.6562    0.7226 C   0  0  0  0  0  0  0  0  0  0  0  0
   -5.1665    0.2656    0.2321 C   0  0  0  0  0  0  0  0  0  0  0  0
   -3.6679   -0.6258   -1.5389 C   0  0  0  0  0  0  0  0  0  0  0  0
  1  2  2  0
  1  7  1  0
  1  8  1  0
  3  5  1  0
  3  9  1  0
  3 10  1  0
  3 11  1  0
  4  6  1  0
  4 12  1  0
  4 13  1  0
  4 14  1  0
  5  7  1  0
  6  8  1  0
M  CHG  2   3   1   4   1
M  END
>  <PUBCHEM_COMPOUND_CID>  (1) 
45672

>  <PUBCHEM_CONFORMER_RMSD>  (1) 
0.6

>  <PUBCHEM_CONFORMER_DIVERSEORDER>  (1) 
1
5
4
3
2

>  <PUBCHEM_MMFF94_PARTIAL_CHARGES>  (1) 
14
1 0.11
10 0.5
11 0.5
12 0.5
13 0.5
14 0.5
2 -0.5
3 -1.01
4 -1.01
5 0.5
6 0.5
7 0.19
8 0.19
9 0.5

>  <PUBCHEM_EFFECTIVE_ROTOR_COUNT>  (1) 
6

>  <PUBCHEM_PHARMACOPHORE_FEATURES>  (1) 
3
1 2 acceptor
1 3 cation
1 4 cation

>  <PUBCHEM_HEAVY_ATOM_COUNT>  (1) 
14

>  <PUBCHEM_ATOM_DEF_STEREO_COUNT>  (1) 
0

>  <PUBCHEM_ATOM_UDEF_STEREO_COUNT>  (1) 
0

>  <PUBCHEM_BOND_DEF_STEREO_COUNT>  (1) 
0

>  <PUBCHEM_BOND_UDEF_STEREO_COUNT>  (1) 
0

>  <PUBCHEM_ISOTOPIC_ATOM_COUNT>  (1) 
0

>  <PUBCHEM_COMPONENT_COUNT>  (1) 
1

>  <PUBCHEM_CACTVS_TAUTO_COUNT>  (1) 
1

>  <PUBCHEM_CONFORMER_ID>  (1) 
0000B26800000001

>  <PUBCHEM_MMFF94_ENERGY>  (1) 
44.6019

>  <PUBCHEM_FEATURE_SELFOVERLAP>  (1) 
15.223

>  <PUBCHEM_SHAPE_FINGERPRINT>  (1) 
11287383 113 15140972771936356465
114248 4 16081090385092804553
11543360 7 16298674974454258051
12596602 18 14548729633949236334
12815109 37 18413106160435559048
12916748 109 14056723430805918997
13081056 2 10809343351482198186
14123238 8 17918274259785658824
14123255 352 11167950138650107035
14123260 362 11674883247211166687
14252887 29 17775571931630622546
15242433 33 18333452036366755275
17834072 33 17632012048234643464
17834072 8 18411975846141353141
1798214 20 18408319982019705467
18186145 218 17531240699252173321
187816 3 17458347433411612704
18915474 69 18113058237893823474
200 152 17967811622462125840
20281475 54 18260548930887845057
20300324 65 14418134024121877455
20374829 77 18408037416179207233
20432913 95 17203332208102023358
204376 136 9943803408988715441
20645477 56 11530489925659214633
20645477 70 18272088335306725212
20671657 53 18333733528507809533
20871999 31 18041274387891648861
21119208 17 16008749108522926626
21250096 35 18412261731279038169
212847 35 10809345538248266910
21524375 3 8214141854333668465
22485316 2 18409728460757170818
22646028 1 18201714050579239586
23402539 116 18334009471808937168
23402655 69 13262398860664355234
23557571 272 18341898433574034356
23559900 14 18187927322177415568
2871803 45 18335702702794383930
314173 85 18202009810654249624
351380 3 18344145890669166727
42 15 16056883515779029246
4990 188 15068341194284650738
548570 60 7925912577672186510

>  <PUBCHEM_SHAPE_MULTIPOLES>  (1) 
276.13
11.58
1.54
1.11
0.05
0.18
-0.39
-3.16
-0.3
0
0.13
0
-0.34
0

>  <PUBCHEM_SHAPE_SELFOVERLAP>  (1) 
488.006

>  <PUBCHEM_SHAPE_VOLUME>  (1) 
186.5

>  <PUBCHEM_COORDINATE_TYPE>  (1) 
2
5
10

$$$$
