45674
     RDKit          3D

 22 21  0  0  0  0  0  0  0  0999 V2000
    9.4780   -0.0263   -0.0065 N   0  0  0  0  0  0  0  0  0  0  0  0
   -9.4959    0.0893   -0.0117 N   0  0  0  0  0  0  0  0  0  0  0  0
    8.2379    0.7795   -0.1135 C   0  0  0  0  0  0  0  0  0  0  0  0
   -8.2735   -0.7464   -0.0700 C   0  0  0  0  0  0  0  0  0  0  0  0
    7.0322   -0.1414    0.0120 C   0  0  0  0  0  0  0  0  0  0  0  0
   -7.0247    0.1165    0.0735 C   0  0  0  0  0  0  0  0  0  0  0  0
    5.7279    0.6559   -0.0466 C   0  0  0  0  0  0  0  0  0  0  0  0
   -5.7214   -0.6827   -0.0284 C   0  0  0  0  0  0  0  0  0  0  0  0
    4.4740   -0.2184    0.0490 C   0  0  0  0  0  0  0  0  0  0  0  0
   -4.4644    0.1913    0.0524 C   0  0  0  0  0  0  0  0  0  0  0  0
    3.1693    0.5823    0.0159 C   0  0  0  0  0  0  0  0  0  0  0  0
   -3.1624   -0.6104   -0.0280 C   0  0  0  0  0  0  0  0  0  0  0  0
    1.9521   -0.3465    0.0421 C   0  0  0  0  0  0  0  0  0  0  0  0
   -1.9065    0.2677   -0.0190 C   0  0  0  0  0  0  0  0  0  0  0  0
    0.6154    0.3979   -0.0249 C   0  0  0  0  0  0  0  0  0  0  0  0
   -0.6009   -0.5323   -0.0244 C   0  0  0  0  0  0  0  0  0  0  0  0
    9.5587   -0.7266    1.3575 C   0  0  0  0  0  0  0  0  0  0  0  0
    9.5246   -1.1044   -1.0986 C   0  0  0  0  0  0  0  0  0  0  0  0
   10.7215    0.8611   -0.1603 C   0  0  0  0  0  0  0  0  0  0  0  0
   -9.5767    0.8487    1.3207 C   0  0  0  0  0  0  0  0  0  0  0  0
   -9.5076    1.1215   -1.1487 C   0  0  0  0  0  0  0  0  0  0  0  0
  -10.7576   -0.7763   -0.1425 C   0  0  0  0  0  0  0  0  0  0  0  0
  1  3  1  0
  1 17  1  0
  1 18  1  0
  1 19  1  0
  2  4  1  0
  2 20  1  0
  2 21  1  0
  2 22  1  0
  3  5  1  0
  4  6  1  0
  5  7  1  0
  6  8  1  0
  7  9  1  0
  8 10  1  0
  9 11  1  0
 10 12  1  0
 11 13  1  0
 12 14  1  0
 13 15  1  0
 14 16  1  0
 15 16  1  0
M  CHG  2   1   1   2   1
M  END
>  <PUBCHEM_COMPOUND_CID>  (1) 
45674

>  <PUBCHEM_CONFORMER_RMSD>  (1) 
1.6

>  <PUBCHEM_CONFORMER_DIVERSEORDER>  (1) 
1
9
19
16
18
3
11
6
10
21
5
14
15
8
20
17
7
13
12
2
4

>  <PUBCHEM_MMFF94_PARTIAL_CHARGES>  (1) 
10
1 -1.01
17 0.5
18 0.5
19 0.5
2 -1.01
20 0.5
21 0.5
22 0.5
3 0.5
4 0.5

>  <PUBCHEM_EFFECTIVE_ROTOR_COUNT>  (1) 
15

>  <PUBCHEM_PHARMACOPHORE_FEATURES>  (1) 
2
1 1 cation
1 2 cation

>  <PUBCHEM_HEAVY_ATOM_COUNT>  (1) 
22

>  <PUBCHEM_ATOM_DEF_STEREO_COUNT>  (1) 
0

>  <PUBCHEM_ATOM_UDEF_STEREO_COUNT>  (1) 
0

>  <PUBCHEM_BOND_DEF_STEREO_COUNT>  (1) 
0

>  <PUBCHEM_BOND_UDEF_STEREO_COUNT>  (1) 
0

>  <PUBCHEM_ISOTOPIC_ATOM_COUNT>  (1) 
0

>  <PUBCHEM_COMPONENT_COUNT>  (1) 
1

>  <PUBCHEM_CACTVS_TAUTO_COUNT>  (1) 
1

>  <PUBCHEM_CONFORMER_ID>  (1) 
0000B26A00000001

>  <PUBCHEM_MMFF94_ENERGY>  (1) 
43.61

>  <PUBCHEM_FEATURE_SELFOVERLAP>  (1) 
10.149

>  <PUBCHEM_SHAPE_FINGERPRINT>  (1) 
14251764 46 18113336414277388019
14251920 1 18410856563934769859
14344974 52 14979948198758047587
15061470 23 17313099752670010853
15510794 2 18342744026550765047
21362267 2 17895183472047845276
21362267 313 12966589512229063046
21792934 111 17632853149398224160
232437 2 18113899364041048290
23581129 1 18409448093834543110
33684 2 18410855464423129090
59520647 119 18272652394196387182
67123 10 18410856568229724167
8209 1 18410856568234998919
9663363 56 15913326897903042794

>  <PUBCHEM_SHAPE_MULTIPOLES>  (1) 
442.79
51.74
1.01
0.9
0.99
0.02
-0.09
1.18
0.16
0.03
0.07
0
0.01
-0.03

>  <PUBCHEM_SHAPE_SELFOVERLAP>  (1) 
800.798

>  <PUBCHEM_SHAPE_VOLUME>  (1) 
288.2

>  <PUBCHEM_COORDINATE_TYPE>  (1) 
2
5
10

$$$$
