45678
     RDKit          3D

 19 20  0  0  0  0  0  0  0  0999 V2000
   -2.3423   -0.4297   -0.9365 O   0  0  0  0  0  0  0  0  0  0  0  0
   -2.7792   -0.6668    1.3348 O   0  0  0  0  0  0  0  0  0  0  0  0
    3.1211   -0.8800    0.2008 N   0  0  0  0  0  0  0  0  0  0  0  0
   -4.5100   -0.4459   -0.1942 N   0  0  0  0  0  0  0  0  0  0  0  0
    1.1027    0.5475   -0.0804 C   0  0  0  0  0  0  0  0  0  0  0  0
    1.7095   -0.7176   -0.0909 C   0  0  0  0  0  0  0  0  0  0  0  0
    1.9505    1.7636    0.1983 C   0  0  0  0  0  0  0  0  0  0  0  0
   -0.2665    0.6594   -0.3850 C   0  0  0  0  0  0  0  0  0  0  0  0
    1.1302    3.0031    0.5505 C   0  0  0  0  0  0  0  0  0  0  0  0
   -0.9722    1.9924   -0.3650 C   0  0  0  0  0  0  0  0  0  0  0  0
   -0.0164    3.1817   -0.4363 C   0  0  0  0  0  0  0  0  0  0  0  0
   -1.0084   -0.5000   -0.6578 C   0  0  0  0  0  0  0  0  0  0  0  0
    0.9633   -1.8610   -0.3743 C   0  0  0  0  0  0  0  0  0  0  0  0
    3.7198   -2.1069   -0.5407 C   0  0  0  0  0  0  0  0  0  0  0  0
    3.3716   -1.0711    1.7223 C   0  0  0  0  0  0  0  0  0  0  0  0
    4.0206    0.3252   -0.2118 C   0  0  0  0  0  0  0  0  0  0  0  0
   -0.3955   -1.7526   -0.6551 C   0  0  0  0  0  0  0  0  0  0  0  0
   -3.1859   -0.5269    0.1852 C   0  0  0  0  0  0  0  0  0  0  0  0
   -5.6128   -0.5145    0.7360 C   0  0  0  0  0  0  0  0  0  0  0  0
  1 12  1  0
  1 18  1  0
  2 18  2  0
  3  6  1  0
  3 14  1  0
  3 15  1  0
  3 16  1  0
  4 18  1  0
  4 19  1  0
  5  6  2  0
  5  7  1  0
  5  8  1  0
  6 13  1  0
  7  9  1  0
  8 10  1  0
  8 12  2  0
  9 11  1  0
 10 11  1  0
 12 17  1  0
 13 17  2  0
M  CHG  1   3   1
M  END
>  <PUBCHEM_COMPOUND_CID>  (1) 
45678

>  <PUBCHEM_CONFORMER_RMSD>  (1) 
0.6

>  <PUBCHEM_CONFORMER_DIVERSEORDER>  (1) 
1
16
15
14
9
13
21
23
17
12
22
18
20
6
10
8
24
5
7
19
11
2
3
4

>  <PUBCHEM_MMFF94_PARTIAL_CHARGES>  (1) 
20
1 -0.23
10 0.14
12 0.08
13 -0.15
14 0.5
15 0.5
16 0.5
17 -0.15
18 0.78
19 0.3
2 -0.57
28 0.15
3 -0.87
38 0.15
39 0.37
4 -0.73
5 -0.14
6 0.36
7 0.14
8 -0.14

>  <PUBCHEM_EFFECTIVE_ROTOR_COUNT>  (1) 
4.8

>  <PUBCHEM_PHARMACOPHORE_FEATURES>  (1) 
5
1 2 acceptor
1 3 cation
1 4 donor
6 5 6 8 12 13 17 rings
6 5 7 8 9 10 11 rings

>  <PUBCHEM_HEAVY_ATOM_COUNT>  (1) 
19

>  <PUBCHEM_ATOM_DEF_STEREO_COUNT>  (1) 
0

>  <PUBCHEM_ATOM_UDEF_STEREO_COUNT>  (1) 
0

>  <PUBCHEM_BOND_DEF_STEREO_COUNT>  (1) 
0

>  <PUBCHEM_BOND_UDEF_STEREO_COUNT>  (1) 
0

>  <PUBCHEM_ISOTOPIC_ATOM_COUNT>  (1) 
0

>  <PUBCHEM_COMPONENT_COUNT>  (1) 
1

>  <PUBCHEM_CACTVS_TAUTO_COUNT>  (1) 
2

>  <PUBCHEM_CONFORMER_ID>  (1) 
0000B26E00000001

>  <PUBCHEM_MMFF94_ENERGY>  (1) 
86.129

>  <PUBCHEM_FEATURE_SELFOVERLAP>  (1) 
25.393

>  <PUBCHEM_SHAPE_FINGERPRINT>  (1) 
10382601 240 18192136316854855184
104564 63 18340209566211926948
10688039 33 18113620058524320125
10967382 1 18339919415612015212
11578080 2 17128978808358647169
11796584 16 16805595937523584475
12011746 2 18410581694623080887
12236239 1 17632858633918336807
12251169 10 18343865536990098183
12553582 1 18340195350012569718
12633257 1 18334868216460799531
12644460 14 18335987578878830032
12788726 201 18261112907491398760
12824470 246 17169535316914087802
13134695 92 18335422400180318797
13140716 1 18195798794371069770
14022347 108 18336837415842554462
14787075 74 17896326985614736002
14790565 3 18194128644793962820
15042514 8 17978509733003170752
15375462 189 18260537940182813066
15475509 35 17241034479378049875
15475509 8 17700729261380635940
15848700 24 18341608209226267222
15885798 251 18408604725661538369
1601671 61 18343590628743914229
16945 1 18341879810516353950
17357779 13 18338783521216230349
1813 80 18129398032759580814
18222031 100 18342733014169916711
18785283 64 18044942513232179869
20028762 73 18201154477193845991
20510252 161 18269830922540470336
20645477 70 18336261344753098143
20671657 1 18124317369937573829
20739085 24 18338249218610575473
20871998 22 18341616966764797518
21029758 27 18409171004341351228
21041028 32 18412826858992323221
21267235 1 18410862019392958254
21296965 67 18409727335549813052
22182313 1 18265592369271372388
23184049 59 18342175600513398031
2334 1 17401758018356765596
23419403 2 18043786810462861877
23559900 14 17313101977394361351
23845131 108 17047116624033054800
2748010 2 17983286037410673406
3091708 16 9283570861433349408
34934 24 18267301109499067668
352729 6 17765141779440405972
465052 167 18409174320035478763
5104073 3 18125146144824550858
5283268 108 18411419479586715736
537710 114 18335426789652550948
54173680 148 17834957464895190462
58807428 26 17835499893648385480
5939293 188 18270116941170794796
69474 34 18341040891402012128
7364860 26 18198058273581122292
7832392 63 18198901616079067694
81228 2 18048889489202889481

>  <PUBCHEM_SHAPE_MULTIPOLES>  (1) 
369.31
7.7
2.92
1.03
8.13
2.56
-0.33
-4.09
-2.04
-1.59
0.21
-0.15
-0.25
0.23

>  <PUBCHEM_SHAPE_SELFOVERLAP>  (1) 
767.811

>  <PUBCHEM_SHAPE_VOLUME>  (1) 
209.5

>  <PUBCHEM_COORDINATE_TYPE>  (1) 
2
5
10

$$$$
