45685
     RDKit          3D

 20 21  0  0  0  0  0  0  0  0999 V2000
   -0.3485   -0.3742    0.6854 O   0  0  0  0  0  0  0  0  0  0  0  0
   -0.6454   -0.7572   -1.5943 O   0  0  0  0  0  0  0  0  0  0  0  0
    4.1861    1.0903   -0.2031 N   0  0  0  0  0  0  0  0  0  0  0  0
    3.1842   -0.0207    0.1204 C   0  0  0  0  0  0  0  0  0  0  0  0
    4.8671    0.7658   -1.5296 C   0  0  0  0  0  0  0  0  0  0  0  0
    5.2091    1.1731    0.9264 C   0  0  0  0  0  0  0  0  0  0  0  0
    3.5128    2.4547   -0.3351 C   0  0  0  0  0  0  0  0  0  0  0  0
    1.8855    0.3433    0.2479 C   0  0  0  0  0  0  0  0  0  0  0  0
    3.6802   -1.2746    0.2503 C   0  0  0  0  0  0  0  0  0  0  0  0
    0.9722   -0.6693    0.5414 C   0  0  0  0  0  0  0  0  0  0  0  0
    2.7667   -2.2872    0.5442 C   0  0  0  0  0  0  0  0  0  0  0  0
    1.4126   -1.9845    0.6898 C   0  0  0  0  0  0  0  0  0  0  0  0
   -2.5158   -0.1158   -0.2617 C   0  0  0  0  0  0  0  0  0  0  0  0
   -1.0879   -0.4501   -0.4976 C   0  0  0  0  0  0  0  0  0  0  0  0
   -5.1681    0.5045    0.1776 C   0  0  0  0  0  0  0  0  0  0  0  0
   -3.4786   -0.7070   -1.0535 C   0  0  0  0  0  0  0  0  0  0  0  0
   -2.8347    0.7748    0.7428 C   0  0  0  0  0  0  0  0  0  0  0  0
   -4.8197   -0.3935   -0.8313 C   0  0  0  0  0  0  0  0  0  0  0  0
   -4.1757    1.0886    0.9648 C   0  0  0  0  0  0  0  0  0  0  0  0
   -6.6020    0.8393    0.4152 C   0  0  0  0  0  0  0  0  0  0  0  0
  1 10  1  0
  1 14  1  0
  2 14  2  0
  3  4  1  0
  3  5  1  0
  3  6  1  0
  3  7  1  0
  4  8  2  0
  4  9  1  0
  8 10  1  0
  9 11  2  0
 10 12  2  0
 11 12  1  0
 13 14  1  0
 13 16  2  0
 13 17  1  0
 15 18  2  0
 15 19  1  0
 15 20  1  0
 16 18  1  0
 17 19  2  0
M  CHG  1   3   1
M  END
>  <PUBCHEM_COMPOUND_CID>  (1) 
45685

>  <PUBCHEM_CONFORMER_RMSD>  (1) 
0.6

>  <PUBCHEM_CONFORMER_DIVERSEORDER>  (1) 
1
26
42
10
57
90
24
88
16
63
71
41
50
18
87
17
46
45
76
73
65
58
5
89
30
29
56
2
36
72
21
66
22
47
28
64
68
31
55
67
69
14
83
77
70
53
81
80
49
12
4
74
75
13
84
60
38
78
43
51
20
15
11
52
19
37
8
48
44
62
40
32
35
9
25
3
33
7
23
39
82
79
34
54
6
27
85
86
61
59

>  <PUBCHEM_MMFF94_PARTIAL_CHARGES>  (1) 
28
1 -0.23
10 0.08
11 -0.15
12 -0.15
13 0.09
14 0.63
15 -0.14
16 -0.15
17 -0.15
18 -0.15
19 -0.15
2 -0.57
20 0.14
3 -0.87
30 0.15
31 0.15
32 0.15
33 0.15
34 0.15
35 0.15
36 0.15
37 0.15
4 0.36
5 0.5
6 0.5
7 0.5
8 -0.15
9 -0.15

>  <PUBCHEM_EFFECTIVE_ROTOR_COUNT>  (1) 
4

>  <PUBCHEM_PHARMACOPHORE_FEATURES>  (1) 
4
1 2 acceptor
1 3 cation
6 13 15 16 17 18 19 rings
6 4 8 9 10 11 12 rings

>  <PUBCHEM_HEAVY_ATOM_COUNT>  (1) 
20

>  <PUBCHEM_ATOM_DEF_STEREO_COUNT>  (1) 
0

>  <PUBCHEM_ATOM_UDEF_STEREO_COUNT>  (1) 
0

>  <PUBCHEM_BOND_DEF_STEREO_COUNT>  (1) 
0

>  <PUBCHEM_BOND_UDEF_STEREO_COUNT>  (1) 
0

>  <PUBCHEM_ISOTOPIC_ATOM_COUNT>  (1) 
0

>  <PUBCHEM_COMPONENT_COUNT>  (1) 
1

>  <PUBCHEM_CACTVS_TAUTO_COUNT>  (1) 
1

>  <PUBCHEM_CONFORMER_ID>  (1) 
0000B27500000001

>  <PUBCHEM_MMFF94_ENERGY>  (1) 
85.4886

>  <PUBCHEM_FEATURE_SELFOVERLAP>  (1) 
20.297

>  <PUBCHEM_SHAPE_FINGERPRINT>  (1) 
10354089 29 18409451388137977089
10554248 39 17843957045410841829
10670039 82 17202777998444271977
10912923 1 18343013377119336787
11796584 16 15841838841591525982
12107183 9 17620758280451929259
12236239 1 18202278104397213307
12596602 18 18408045096456549515
12616971 3 18338786841173403455
12730499 353 18113626676778694978
12788726 201 17560808680421331977
12839892 36 13117995604800404569
12916748 109 17275107236331049577
13167823 11 18342172233449390211
13533116 47 18261956241510796171
13631057 29 18192425497414669403
13760787 19 18272929432006877191
13760787 5 18340759361060179439
13955234 65 18187639159757595770
14170010 4 18335136459065432810
14251764 75 17098923830081432868
14341114 176 18336552638241130441
14366163 111 17775282789836634480
14528608 73 18411981381668161589
14573314 32 14620799284086536137
15183329 4 17131565963629445308
15342168 16 18041285477554917844
15375358 24 16515400759735947243
17349148 13 11530482203418461275
17834072 33 18412260640721471631
17844677 252 18262239898488862645
1813 80 17909834237181525878
204376 136 17894632573407905035
20612939 158 18335704906044067382
20645477 70 18336546010611409026
21652331 79 18410855438943936921
22079108 93 18113902684467447795
22854114 59 17676204667228106375
2297311 6 16559034900607350409
23366157 5 17628652847117965383
23402655 69 18342453759548821134
23559900 14 18335699412543941722
29717793 49 17846498084642167982
300161 21 18343294864769582339
3004659 81 17346606244772261646
3472631 163 17988923431068818220
34797466 226 16702303498367221425
3545911 37 18261115179265386339
42630746 31 18335417955010428250
4340502 62 18040155115066479899
449060 50 18040998440632520639
474 4 18334575789058962128
5104073 3 18187079580989297227
5374978 207 13912325685379376534
542803 24 18342738503464837135
543368 44 18272930565967881657
621550 34 17530678775563911766
633830 44 18413109450407226126
8272917 22 18340207397132292102
960060 61 12607405528980696400

>  <PUBCHEM_SHAPE_MULTIPOLES>  (1) 
394.87
13.8
1.87
1.15
10.28
0.12
-0.29
-5.73
0.13
-2.54
0.23
-0.12
-0.02
-1.22

>  <PUBCHEM_SHAPE_SELFOVERLAP>  (1) 
838.743

>  <PUBCHEM_SHAPE_VOLUME>  (1) 
221.6

>  <PUBCHEM_COORDINATE_TYPE>  (1) 
2
5
10

$$$$
