45694
     RDKit          3D

 12 12  0  0  0  0  0  0  0  0999 V2000
   -1.7333   -0.4469    0.0027 O   0  0  0  0  0  0  0  0  0  0  0  0
    2.7461   -1.2410   -0.0012 O   0  0  0  0  0  0  0  0  0  0  0  0
   -0.5539    1.5097    0.0014 O   0  0  0  0  0  0  0  0  0  0  0  0
    0.5052   -0.5827    0.0010 N   0  0  0  0  0  0  0  0  0  0  0  0
   -4.1154   -0.6823    0.0045 C   0  0  0  0  0  0  0  0  0  0  0  0
   -2.9471    0.2917    0.0035 C   0  0  0  0  0  0  0  0  0  0  0  0
   -5.4515    0.0384   -0.0097 C   0  0  0  0  0  0  0  0  0  0  0  0
    1.8560   -0.2319   -0.0002 C   0  0  0  0  0  0  0  0  0  0  0  0
   -0.5689    0.2851    0.0017 C   0  0  0  0  0  0  0  0  0  0  0  0
    2.4519    0.9871   -0.0003 C   0  0  0  0  0  0  0  0  0  0  0  0
    3.8421    0.7213   -0.0014 C   0  0  0  0  0  0  0  0  0  0  0  0
    3.9689   -0.6484   -0.0021 C   0  0  0  0  0  0  0  0  0  0  0  0
  1  6  1  0
  1  9  1  0
  2  8  1  0
  2 12  1  0
  3  9  2  0
  4  8  1  0
  4  9  1  0
  5  6  1  0
  5  7  1  0
  8 10  2  0
 10 11  1  0
 11 12  2  0
M  END
>  <PUBCHEM_COMPOUND_CID>  (1) 
45694

>  <PUBCHEM_CONFORMER_RMSD>  (1) 
0.6

>  <PUBCHEM_CONFORMER_DIVERSEORDER>  (1) 
1
17
55
54
16
46
34
53
24
51
56
50
42
31
49
57
48
11
44
23
32
7
29
58
52
36
18
8
37
33
35
47
9
43
41
14
40
45
12
30
21
19
20
22
13
2
38
15
28
39
26
3
27
10
5
25
4
6

>  <PUBCHEM_MMFF94_PARTIAL_CHARGES>  (1) 
14
1 -0.43
10 -0.15
11 -0.15
12 -0.01
2 -0.28
20 0.37
21 0.15
22 0.15
23 0.15
3 -0.57
4 -0.49
6 0.28
8 0.2
9 0.78

>  <PUBCHEM_EFFECTIVE_ROTOR_COUNT>  (1) 
5

>  <PUBCHEM_PHARMACOPHORE_FEATURES>  (1) 
5
1 2 acceptor
1 3 acceptor
1 4 donor
1 7 hydrophobe
5 2 8 10 11 12 rings

>  <PUBCHEM_HEAVY_ATOM_COUNT>  (1) 
12

>  <PUBCHEM_ATOM_DEF_STEREO_COUNT>  (1) 
0

>  <PUBCHEM_ATOM_UDEF_STEREO_COUNT>  (1) 
0

>  <PUBCHEM_BOND_DEF_STEREO_COUNT>  (1) 
0

>  <PUBCHEM_BOND_UDEF_STEREO_COUNT>  (1) 
0

>  <PUBCHEM_ISOTOPIC_ATOM_COUNT>  (1) 
0

>  <PUBCHEM_COMPONENT_COUNT>  (1) 
1

>  <PUBCHEM_CACTVS_TAUTO_COUNT>  (1) 
3

>  <PUBCHEM_CONFORMER_ID>  (1) 
0000B27E00000001

>  <PUBCHEM_MMFF94_ENERGY>  (1) 
9.6703

>  <PUBCHEM_FEATURE_SELFOVERLAP>  (1) 
25.371

>  <PUBCHEM_SHAPE_FINGERPRINT>  (1) 
11062470 55 17894630365978915183
11471102 20 18410292527602633476
14123238 8 12107788514813520195
14252887 29 18130798849133224470
14325111 11 18410856542681544416
15242433 33 18412545431296935863
15477762 27 18411139104717627678
17834072 33 18201997785378485767
17834076 25 17313105258638423839
18186145 218 17458338658819514567
20279233 1 17821734939611757098
20645477 70 18338516343969740014
20719005 15 18410856564304021987
22485316 2 18410290328774680135
23402539 116 17989200439701164101
23402655 69 18412543210513838373
23557571 272 17531245007246484885
42788 4 18410292515049943503
449060 62 18341053016442971444
522135 26 18411700980522978062
5374978 207 18410285913400548760

>  <PUBCHEM_SHAPE_MULTIPOLES>  (1) 
224.37
10.09
1.11
0.58
9.12
0.13
0
-0.93
0.02
-0.57
0
0.01
0.01
0

>  <PUBCHEM_SHAPE_SELFOVERLAP>  (1) 
451.628

>  <PUBCHEM_SHAPE_VOLUME>  (1) 
132.9

>  <PUBCHEM_COORDINATE_TYPE>  (1) 
2
5
10

$$$$
