45696
     RDKit          3D

 13 13  0  0  1  0  0  0  0  0999 V2000
    2.4368   -3.7019    0.1700 Cl  0  0  0  0  0  0  0  0  0  0  0  0
    3.3711    3.1618   -0.1428 Cl  0  0  0  0  0  0  0  0  0  0  0  0
   -2.6668    0.5244    1.0725 O   0  0  0  0  0  0  0  0  0  0  0  0
    0.8269    0.0090   -0.0670 N   0  0  0  0  0  0  0  0  0  0  0  0
   -1.5799   -0.1355    0.4015 C   0  0  0  0  0  0  0  0  0  0  0  0
   -1.9708   -0.2109   -1.0643 C   0  0  0  0  0  0  0  0  0  0  0  0
   -0.2888    0.6215    0.6454 C   0  0  0  0  0  0  0  0  0  0  0  0
   -3.4662   -0.3802   -0.9680 C   0  0  0  0  0  0  0  0  0  0  0  0
   -3.8082    0.5179    0.2020 C   0  0  0  0  0  0  0  0  0  0  0  0
    1.0235   -1.3728    0.3744 C   0  0  0  0  0  0  0  0  0  0  0  0
    2.0523    0.7847    0.1310 C   0  0  0  0  0  0  0  0  0  0  0  0
    2.1814   -2.0227   -0.3666 C   0  0  0  0  0  0  0  0  0  0  0  0
    1.8888    2.2047   -0.3879 C   0  0  0  0  0  0  0  0  0  0  0  0
  1 12  1  0
  2 13  1  0
  3  5  1  0
  3  9  1  0
  4  7  1  0
  4 10  1  0
  4 11  1  0
  5  6  1  0
  5  7  1  0
  6  8  1  0
  8  9  1  0
 10 12  1  0
 11 13  1  0
M  END
>  <PUBCHEM_COMPOUND_CID>  (1) 
45696

>  <PUBCHEM_CONFORMER_RMSD>  (1) 
0.8

>  <PUBCHEM_CONFORMER_DIVERSEORDER>  (1) 
1
14
13
17
8
12
6
2
18
16
5
7
19
21
9
11
3
15
4
20
10

>  <PUBCHEM_MMFF94_PARTIAL_CHARGES>  (1) 
11
1 -0.29
10 0.27
11 0.27
12 0.29
13 0.29
2 -0.29
3 -0.56
4 -0.81
5 0.28
7 0.27
9 0.28

>  <PUBCHEM_EFFECTIVE_ROTOR_COUNT>  (1) 
7

>  <PUBCHEM_PHARMACOPHORE_FEATURES>  (1) 
3
1 3 acceptor
1 4 cation
5 3 5 6 8 9 rings

>  <PUBCHEM_HEAVY_ATOM_COUNT>  (1) 
13

>  <PUBCHEM_ATOM_DEF_STEREO_COUNT>  (1) 
0

>  <PUBCHEM_ATOM_UDEF_STEREO_COUNT>  (1) 
1

>  <PUBCHEM_BOND_DEF_STEREO_COUNT>  (1) 
0

>  <PUBCHEM_BOND_UDEF_STEREO_COUNT>  (1) 
0

>  <PUBCHEM_ISOTOPIC_ATOM_COUNT>  (1) 
0

>  <PUBCHEM_COMPONENT_COUNT>  (1) 
1

>  <PUBCHEM_CACTVS_TAUTO_COUNT>  (1) 
1

>  <PUBCHEM_CONFORMER_ID>  (1) 
0000B28000000001

>  <PUBCHEM_MMFF94_ENERGY>  (1) 
22.0494

>  <PUBCHEM_FEATURE_SELFOVERLAP>  (1) 
15.223

>  <PUBCHEM_SHAPE_FINGERPRINT>  (1) 
1 1 18337391642706322020
12119455 92 17970330732329528028
12932764 1 17489584597785798913
15279307 12 18201434839229811311
15842332 3 17988926652483609691
17539 30 17329419550611174854
18186145 218 18268440203282225764
19021347 4 18050009097436018786
19786989 88 18261382403614552925
20361792 2 18123182403244129342
204376 136 18120093033500134076
20645464 45 17168137988191303817
20645476 183 18131349747914588591
20645477 70 18335973204230075071
20671657 1 18411705387143788126
20671657 53 18195525883258642174
20711985 327 18196652891467513782
20711985 344 17253983157167030946
20871998 22 18122620557487504898
21426921 1 17257374038638614286
21499 59 18265893755557932212
21524375 3 17899690451729268368
2255824 54 18413109437759720350
232386 152 16844994741670531111
23532345 1 18409166640823480753
23532345 88 18340759356380005885
23552423 10 18342737407968738231
23557571 272 17167870785475008477
23598291 2 18131359578757280965
2748010 2 18046928231490003314
3091708 16 9113314763142766178
458136 41 18265065780378592864
53777708 50 18343019978525911323
6049 1 17749396910453951181
6992083 37 17552653451774084361
7364860 26 18411982446973038144
7615 1 17989201508836849433
81228 2 17327736202614241746
81539 233 18261951955096257964

>  <PUBCHEM_SHAPE_MULTIPOLES>  (1) 
260.42
6.22
3.64
0.92
4.22
1.82
-0.05
-1.95
-0.58
-6.98
-0.12
0.56
-0.01
-0.49

>  <PUBCHEM_SHAPE_SELFOVERLAP>  (1) 
482.397

>  <PUBCHEM_SHAPE_VOLUME>  (1) 
167.9

>  <PUBCHEM_COORDINATE_TYPE>  (1) 
2
5
10

$$$$
