45692
     RDKit          3D

 12 12  0  0  0  0  0  0  0  0999 V2000
   -0.2162   -0.4714   -0.0014 O   0  0  0  0  0  0  0  0  0  0  0  0
   -3.7010    0.2730    0.0132 O   0  0  0  0  0  0  0  0  0  0  0  0
   -2.6335   -1.7296   -0.0041 N   0  0  0  0  0  0  0  0  0  0  0  0
    2.1783   -0.2716    0.0014 C   0  0  0  0  0  0  0  0  0  0  0  0
    0.7837    0.3996   -0.0001 C   0  0  0  0  0  0  0  0  0  0  0  0
    2.9649    0.1570    1.2594 C   0  0  0  0  0  0  0  0  0  0  0  0
    2.9630    0.1469   -1.2610 C   0  0  0  0  0  0  0  0  0  0  0  0
    2.1139   -1.8148    0.0075 C   0  0  0  0  0  0  0  0  0  0  0  0
    0.4409    1.6778   -0.0017 C   0  0  0  0  0  0  0  0  0  0  0  0
   -1.3247    0.3146   -0.0040 C   0  0  0  0  0  0  0  0  0  0  0  0
   -0.9740    1.6446   -0.0044 C   0  0  0  0  0  0  0  0  0  0  0  0
   -2.5953   -0.3261   -0.0049 C   0  0  0  0  0  0  0  0  0  0  0  0
  1  5  1  0
  1 10  1  0
  2 12  2  0
  3 12  1  0
  4  5  1  0
  4  6  1  0
  4  7  1  0
  4  8  1  0
  5  9  2  0
  9 11  1  0
 10 11  2  0
 10 12  1  0
M  END
>  <PUBCHEM_COMPOUND_CID>  (1) 
45692

>  <PUBCHEM_CONFORMER_RMSD>  (1) 
0.6

>  <PUBCHEM_CONFORMER_DIVERSEORDER>  (1) 
1
5
4
2
6
3

>  <PUBCHEM_MMFF94_PARTIAL_CHARGES>  (1) 
13
1 -0.28
10 0.05
11 -0.15
12 0.71
2 -0.57
22 0.15
23 0.15
24 0.37
25 0.37
3 -0.8
4 0.18
5 -0.04
9 -0.15

>  <PUBCHEM_EFFECTIVE_ROTOR_COUNT>  (1) 
2

>  <PUBCHEM_PHARMACOPHORE_FEATURES>  (1) 
5
1 1 acceptor
1 2 acceptor
1 3 donor
4 4 6 7 8 hydrophobe
5 1 5 9 10 11 rings

>  <PUBCHEM_HEAVY_ATOM_COUNT>  (1) 
12

>  <PUBCHEM_ATOM_DEF_STEREO_COUNT>  (1) 
0

>  <PUBCHEM_ATOM_UDEF_STEREO_COUNT>  (1) 
0

>  <PUBCHEM_BOND_DEF_STEREO_COUNT>  (1) 
0

>  <PUBCHEM_BOND_UDEF_STEREO_COUNT>  (1) 
0

>  <PUBCHEM_ISOTOPIC_ATOM_COUNT>  (1) 
0

>  <PUBCHEM_COMPONENT_COUNT>  (1) 
1

>  <PUBCHEM_CACTVS_TAUTO_COUNT>  (1) 
2

>  <PUBCHEM_CONFORMER_ID>  (1) 
0000B27C00000001

>  <PUBCHEM_MMFF94_ENERGY>  (1) 
22.0106

>  <PUBCHEM_FEATURE_SELFOVERLAP>  (1) 
25.371

>  <PUBCHEM_SHAPE_FINGERPRINT>  (1) 
10130415 120 18261108569495470665
10219947 1 15626226826965465857
10857977 72 18342165683223019088
12382932 28 18341888619119822675
12897270 3 18408611357180733788
12932764 1 17846772979823809612
13296908 3 18202567301772601583
14128692 85 18337962293209252317
14144814 61 18411983542274042873
14252887 29 18060147564853360047
16945 1 18410573980920027725
18186145 218 11747208044070547071
20201158 50 18408601469981648803
20279233 1 18342449340043070435
20281407 28 18412266133731221353
20653085 51 7997687648893122581
20711985 365 18120091680400377877
20871998 22 18413674612294892487
21501925 9 18268981158702303755
23552423 10 18042973060310197210
2748010 2 18194962928967678997
3248919 1 17822015280759182456
3312278 4 18409175427988821859
7364860 26 18055920037134147209
81228 2 18264490589842796289

>  <PUBCHEM_SHAPE_MULTIPOLES>  (1) 
230.23
5.23
1.64
0.88
1.79
0.17
0
1.32
0.01
0.22
0
-0.85
-0.07
0

>  <PUBCHEM_SHAPE_SELFOVERLAP>  (1) 
476.259

>  <PUBCHEM_SHAPE_VOLUME>  (1) 
135

>  <PUBCHEM_COORDINATE_TYPE>  (1) 
2
5
10

$$$$
