45695
     RDKit          3D

 13 14  0  0  1  0  0  0  0  0999 V2000
    2.6500    0.2876    1.0246 O   0  0  0  0  0  0  0  0  0  0  0  0
   -1.8681   -0.7554   -0.9664 O   0  0  0  0  0  0  0  0  0  0  0  0
    0.6317    1.1388    0.3806 N   0  0  0  0  0  0  0  0  0  0  0  0
    1.7815   -0.4931   -0.9368 N   0  0  0  0  0  0  0  0  0  0  0  0
   -0.5332    1.1843   -0.4872 C   0  0  0  0  0  0  0  0  0  0  0  0
   -1.5865    0.1836   -0.0548 C   0  0  0  0  0  0  0  0  0  0  0  0
    1.6561    0.2895    0.0901 C   0  0  0  0  0  0  0  0  0  0  0  0
   -1.0895    2.6093   -0.5320 C   0  0  0  0  0  0  0  0  0  0  0  0
    3.4856   -0.8012    0.6659 C   0  0  0  0  0  0  0  0  0  0  0  0
    3.1003   -1.1077   -0.7598 C   0  0  0  0  0  0  0  0  0  0  0  0
   -2.2939    0.0653    1.0820 C   0  0  0  0  0  0  0  0  0  0  0  0
   -3.1152   -1.0688    0.8771 C   0  0  0  0  0  0  0  0  0  0  0  0
   -2.8187   -1.5323   -0.3836 C   0  0  0  0  0  0  0  0  0  0  0  0
  1  7  1  0
  1  9  1  0
  2  6  1  0
  2 13  1  0
  3  5  1  0
  3  7  1  0
  4  7  2  0
  4 10  1  0
  5  6  1  0
  5  8  1  0
  6 11  2  0
  9 10  1  0
 11 12  1  0
 12 13  2  0
M  END
>  <PUBCHEM_COMPOUND_CID>  (1) 
45695

>  <PUBCHEM_CONFORMER_RMSD>  (1) 
0.6

>  <PUBCHEM_CONFORMER_DIVERSEORDER>  (1) 
1
24
30
72
79
31
65
27
28
14
42
23
55
10
82
64
47
60
75
18
78
62
86
51
57
83
12
19
33
87
71
44
17
26
61
20
7
84
56
53
77
21
68
40
43
35
34
48
58
73
4
29
54
76
49
13
15
67
50
8
46
41
3
11
85
63
69
52
25
9
16
45
22
70
36
80
59
32
81
37
66
74
38
6
39
5
2

>  <PUBCHEM_MMFF94_PARTIAL_CHARGES>  (1) 
16
1 -0.43
10 0.25
11 -0.15
12 -0.15
13 -0.01
15 0.4
2 -0.28
23 0.15
24 0.15
25 0.15
3 -0.82
4 -0.7
5 0.55
6 -0.04
7 0.65
9 0.28

>  <PUBCHEM_EFFECTIVE_ROTOR_COUNT>  (1) 
3.6

>  <PUBCHEM_PHARMACOPHORE_FEATURES>  (1) 
5
1 2 acceptor
1 3 donor
3 3 4 7 cation
5 1 4 7 9 10 rings
5 2 6 11 12 13 rings

>  <PUBCHEM_HEAVY_ATOM_COUNT>  (1) 
13

>  <PUBCHEM_ATOM_DEF_STEREO_COUNT>  (1) 
0

>  <PUBCHEM_ATOM_UDEF_STEREO_COUNT>  (1) 
1

>  <PUBCHEM_BOND_DEF_STEREO_COUNT>  (1) 
0

>  <PUBCHEM_BOND_UDEF_STEREO_COUNT>  (1) 
0

>  <PUBCHEM_ISOTOPIC_ATOM_COUNT>  (1) 
0

>  <PUBCHEM_COMPONENT_COUNT>  (1) 
1

>  <PUBCHEM_CACTVS_TAUTO_COUNT>  (1) 
2

>  <PUBCHEM_CONFORMER_ID>  (1) 
0000B27F00000001

>  <PUBCHEM_MMFF94_ENERGY>  (1) 
12.2231

>  <PUBCHEM_FEATURE_SELFOVERLAP>  (1) 
25.372

>  <PUBCHEM_SHAPE_FINGERPRINT>  (1) 
10618630 7 18334016102932519626
11127187 94 17458339762821658803
12251169 10 17561084730242469114
12382932 28 17561367274697698106
12897270 3 13840265926614653731
12932764 1 18342738473273504498
13296908 3 18334852839849936801
17844478 74 18342741801699059588
18186145 218 8646502820324171203
20279233 1 18129653102535616636
20281407 28 18411984650111906406
20361792 2 18261675968992617679
20524608 308 18193271884442735485
20645477 70 17829885787524860903
20671657 53 16732698363672192950
20711985 344 18115012009942825853
20871998 184 18340770334316518405
20871998 22 18337393841444890209
21028194 46 9511466623415584705
21061003 4 17704348858038293376
305870 269 10663561256607840325
549884 4 12035717738977921390
81228 2 18262514789043851297

>  <PUBCHEM_SHAPE_MULTIPOLES>  (1) 
245.83
5.74
1.87
1.07
2.69
1.16
0.06
-3.28
0.8
-1.05
-0.35
0.02
-0.15
0.25

>  <PUBCHEM_SHAPE_SELFOVERLAP>  (1) 
516.573

>  <PUBCHEM_SHAPE_VOLUME>  (1) 
140.8

>  <PUBCHEM_COORDINATE_TYPE>  (1) 
2
5
10

$$$$
