4570
     RDKit          3D

 24 24  0  0  1  0  0  0  0  0999 V2000
   -3.7915    1.1786    0.1005 P   0  0  0  0  0  0  0  0  0  0  0  0
   -5.3636   -1.2986    0.3153 P   0  0  0  0  0  0  0  0  0  0  0  0
   -2.3721    0.4029    0.0578 O   0  0  0  0  0  0  0  0  0  0  0  0
   -4.8720    0.0755   -0.3786 O   0  0  0  0  0  0  0  0  0  0  0  0
   -3.7289    2.2036   -1.1496 O   0  0  0  0  0  0  0  0  0  0  0  0
   -4.1151    1.8258    1.4159 O   0  0  0  0  0  0  0  0  0  0  0  0
    3.0714    3.0949    0.3193 O   0  0  0  0  0  0  0  0  0  0  0  0
    1.0190    2.4840   -0.1636 O   0  0  0  0  0  0  0  0  0  0  0  0
   -6.5676   -1.7851   -0.6469 O   0  0  0  0  0  0  0  0  0  0  0  0
   -6.1253   -0.7922    1.6478 O   0  0  0  0  0  0  0  0  0  0  0  0
    6.1728   -2.2698    0.2686 O   0  0  0  0  0  0  0  0  0  0  0  0
    6.5933   -0.1436    0.6170 O   0  0  0  0  0  0  0  0  0  0  0  0
   -4.2778   -2.3087    0.5420 O   0  0  0  0  0  0  0  0  0  0  0  0
    0.3816    0.1171   -0.5836 N   0  0  0  0  0  0  0  0  0  0  0  0
    2.2251    2.2129    0.0426 N   0  0  0  0  0  0  0  0  0  0  0  0
    5.7980   -1.0748    0.3434 N   0  0  0  0  0  0  0  0  0  0  0  0
   -0.5991   -0.8935   -0.9048 C   0  0  0  0  0  0  0  0  0  0  0  0
    1.7197   -0.1569   -0.3515 C   0  0  0  0  0  0  0  0  0  0  0  0
   -1.9558   -0.2480   -1.1302 C   0  0  0  0  0  0  0  0  0  0  0  0
    2.6485    0.8568   -0.0408 C   0  0  0  0  0  0  0  0  0  0  0  0
    2.1873   -1.4835   -0.4241 C   0  0  0  0  0  0  0  0  0  0  0  0
    3.9908    0.5548    0.1881 C   0  0  0  0  0  0  0  0  0  0  0  0
    4.4315   -0.7665    0.1108 C   0  0  0  0  0  0  0  0  0  0  0  0
    3.5297   -1.7857   -0.1952 C   0  0  0  0  0  0  0  0  0  0  0  0
  1  3  1  0
  1  4  1  0
  1  5  1  0
  1  6  2  0
  2  4  1  0
  2  9  1  0
  2 10  1  0
  2 13  2  0
  3 19  1  0
  7 15  1  0
  8 15  2  0
 11 16  1  0
 12 16  2  0
 14 17  1  0
 14 18  1  0
 15 20  1  0
 16 23  1  0
 17 19  1  0
 18 20  2  0
 18 21  1  0
 20 22  1  0
 21 24  2  0
 22 23  2  0
 23 24  1  0
M  CHG  4   7  -1  11  -1  15   1  16   1
M  END
>  <PUBCHEM_COMPOUND_CID>  (1) 
4570

>  <PUBCHEM_CONFORMER_RMSD>  (1) 
1

>  <PUBCHEM_CONFORMER_DIVERSEORDER>  (1) 
1
38
30
15
6
14
31
36
2
25
42
52
34
9
41
35
3
43
7
39
27
8
23
33
4
22
45
13
17
47
10
20
18
24
16
19
5
51
48
50
12
11
37
32
21
28
49
46
29
26
44
40

>  <PUBCHEM_MMFF94_PARTIAL_CHARGES>  (1) 
31
1 1.51
10 -0.77
11 -0.52
12 -0.52
13 -0.7
14 -0.87
15 0.91
16 0.91
17 0.37
18 0.1
19 0.28
2 1.51
20 0.13
21 -0.15
22 -0.15
23 0.13
24 -0.15
29 0.4
3 -0.55
30 0.15
31 0.15
32 0.15
33 0.5
34 0.5
35 0.5
4 -0.54
5 -0.77
6 -0.7
7 -0.52
8 -0.52
9 -0.77

>  <PUBCHEM_EFFECTIVE_ROTOR_COUNT>  (1) 
9

>  <PUBCHEM_PHARMACOPHORE_FEATURES>  (1) 
15
1 10 acceptor
1 11 acceptor
1 11 anion
1 12 acceptor
1 13 acceptor
1 14 cation
1 14 donor
1 5 acceptor
1 6 acceptor
1 7 acceptor
1 7 anion
1 8 acceptor
1 9 acceptor
4 2 9 10 13 anion
6 18 20 21 22 23 24 rings

>  <PUBCHEM_HEAVY_ATOM_COUNT>  (1) 
24

>  <PUBCHEM_ATOM_DEF_STEREO_COUNT>  (1) 
0

>  <PUBCHEM_ATOM_UDEF_STEREO_COUNT>  (1) 
0

>  <PUBCHEM_BOND_DEF_STEREO_COUNT>  (1) 
0

>  <PUBCHEM_BOND_UDEF_STEREO_COUNT>  (1) 
0

>  <PUBCHEM_ISOTOPIC_ATOM_COUNT>  (1) 
0

>  <PUBCHEM_COMPONENT_COUNT>  (1) 
1

>  <PUBCHEM_CACTVS_TAUTO_COUNT>  (1) 
1

>  <PUBCHEM_CONFORMER_ID>  (1) 
000011DA00000001

>  <PUBCHEM_MMFF94_ENERGY>  (1) 
19.0729

>  <PUBCHEM_FEATURE_SELFOVERLAP>  (1) 
76.339

>  <PUBCHEM_SHAPE_FINGERPRINT>  (1) 
10366900 7 17022901237756283425
11545043 162 17967530151696142565
12166972 35 18131350825751179680
12236239 1 17988921137682453914
12507557 5 18342738481858430645
12596602 18 18272368642316329362
12616971 3 17917991715478246845
13533116 47 18337110176192964683
13583140 156 18337101281600642391
13668630 136 14923950063461542427
13782708 43 17676202442720358090
14251764 18 18408604782028863150
14341114 176 18409171043027607689
14849402 71 18269838773778474848
17844677 252 18412267237748988397
17857418 61 18335420171139829735
18222031 100 16370722651454787575
18785283 64 18263081166771461356
20028762 73 18272087218621516743
21033648 29 17345737604046550603
21267235 1 18341334414500505238
23559900 14 18261670489057563425
29717793 49 12901540218249548714
350125 39 18339080492165782822
4214541 1 18410292493554053589
465052 167 18411982438895092542
5104073 3 18342172258960549936
7495541 125 18334296483003592006
8863177 126 18187652456527937890

>  <PUBCHEM_SHAPE_MULTIPOLES>  (1) 
422.1
16.51
2.69
0.97
5.12
1.27
-0.09
-7.78
-4.22
-0.31
-0.15
1.2
0.03
0.19

>  <PUBCHEM_SHAPE_SELFOVERLAP>  (1) 
839.752

>  <PUBCHEM_SHAPE_VOLUME>  (1) 
250.8

>  <PUBCHEM_COORDINATE_TYPE>  (1) 
2
5
10

$$$$
