45711
     RDKit          3D

 30 34  0  0  0  0  0  0  0  0999 V2000
    1.0282   -0.5099   -1.0629 O   0  0  0  0  0  0  0  0  0  0  0  0
    1.9597   -1.1797    0.9422 O   0  0  0  0  0  0  0  0  0  0  0  0
   -2.9759    0.0538    0.0187 N   0  0  0  0  0  0  0  0  0  0  0  0
   -0.2651   -0.8562   -0.5840 C   0  0  0  0  0  0  0  0  0  0  0  0
   -1.2912   -0.5760   -1.6774 C   0  0  0  0  0  0  0  0  0  0  0  0
   -0.5924   -0.0463    0.6673 C   0  0  0  0  0  0  0  0  0  0  0  0
   -2.7174   -0.7768   -1.1662 C   0  0  0  0  0  0  0  0  0  0  0  0
   -2.0398   -0.2638    1.1067 C   0  0  0  0  0  0  0  0  0  0  0  0
   -4.3580   -0.1120    0.4682 C   0  0  0  0  0  0  0  0  0  0  0  0
    3.3437   -0.3192   -0.8249 C   0  0  0  0  0  0  0  0  0  0  0  0
    4.5300   -1.0839   -0.2640 C   0  0  0  0  0  0  0  0  0  0  0  0
    3.7207    1.1159   -0.5017 C   0  0  0  0  0  0  0  0  0  0  0  0
    2.0532   -0.7254   -0.1901 C   0  0  0  0  0  0  0  0  0  0  0  0
   -5.3427    0.3434   -0.6094 C   0  0  0  0  0  0  0  0  0  0  0  0
    5.4633   -0.1916    0.3116 C   0  0  0  0  0  0  0  0  0  0  0  0
    4.9661    1.1596    0.1654 C   0  0  0  0  0  0  0  0  0  0  0  0
    4.7439   -2.4526   -0.2580 C   0  0  0  0  0  0  0  0  0  0  0  0
    3.0055    2.2718   -0.7686 C   0  0  0  0  0  0  0  0  0  0  0  0
   -6.7717    0.1985   -0.1501 C   0  0  0  0  0  0  0  0  0  0  0  0
    6.6271   -0.6676    0.8928 C   0  0  0  0  0  0  0  0  0  0  0  0
    5.5099    2.3698    0.5636 C   0  0  0  0  0  0  0  0  0  0  0  0
    5.9171   -2.9315    0.3278 C   0  0  0  0  0  0  0  0  0  0  0  0
    3.5543    3.4910   -0.3673 C   0  0  0  0  0  0  0  0  0  0  0  0
    6.8497   -2.0478    0.8967 C   0  0  0  0  0  0  0  0  0  0  0  0
    4.7944    3.5397    0.2913 C   0  0  0  0  0  0  0  0  0  0  0  0
   -7.4471   -0.9887   -0.3898 C   0  0  0  0  0  0  0  0  0  0  0  0
   -7.3872    1.2549    0.5042 C   0  0  0  0  0  0  0  0  0  0  0  0
   -8.7692   -1.1226    0.0348 C   0  0  0  0  0  0  0  0  0  0  0  0
   -8.7091    1.1211    0.9289 C   0  0  0  0  0  0  0  0  0  0  0  0
   -9.4000   -0.0678    0.6941 C   0  0  0  0  0  0  0  0  0  0  0  0
  1  4  1  0
  1 13  1  0
  2 13  2  0
  3  7  1  0
  3  8  1  0
  3  9  1  0
  4  5  1  0
  4  6  1  0
  5  7  1  0
  6  8  1  0
  9 14  1  0
 10 11  1  0
 10 12  1  0
 10 13  1  0
 11 15  1  0
 11 17  2  0
 12 16  2  0
 12 18  1  0
 14 19  1  0
 15 16  1  0
 15 20  2  0
 16 21  1  0
 17 22  1  0
 18 23  2  0
 19 26  2  0
 19 27  1  0
 20 24  1  0
 21 25  2  0
 22 24  2  0
 23 25  1  0
 26 28  1  0
 27 29  2  0
 28 30  2  0
 29 30  1  0
M  END
>  <PUBCHEM_COMPOUND_CID>  (1) 
45711

>  <PUBCHEM_CONFORMER_RMSD>  (1) 
1

>  <PUBCHEM_CONFORMER_DIVERSEORDER>  (1) 
1
23
33
20
28
71
14
90
128
79
47
25
136
29
9
4
124
68
91
107
45
120
6
81
86
108
63
43
21
93
36
65
110
40
59
12
31
141
67
8
148
58
104
138
62
22
17
105
146
60
5
95
80
55
2
129
102
42
26
99
92
73
54
106
7
127
72
112
18
15
84
85
144
114
133
145
44
10
48
53
57
130
13
118
11
64
70
94
151
82
96
49
100
34
32
115
3
77
19
37
123
150
75
97
103
76
35
50
83
56
153
113
61
134
30
111
46
41
137
98
27
109
143
89
121
116
132
52
119
154
39
126
51
147
140
125
135
38
142
66
16
101
149
139
117
69
131
78
87
152
88
74
24
122

>  <PUBCHEM_MMFF94_PARTIAL_CHARGES>  (1) 
39
1 -0.43
10 0.35
11 -0.14
12 -0.14
13 0.66
14 0.14
17 -0.15
18 -0.15
19 -0.14
2 -0.57
20 -0.15
21 -0.15
22 -0.15
23 -0.15
24 -0.15
25 -0.15
26 -0.15
27 -0.15
28 -0.15
29 -0.15
3 -0.81
30 -0.15
4 0.28
45 0.15
46 0.15
47 0.15
48 0.15
49 0.15
50 0.15
51 0.15
52 0.15
53 0.15
54 0.15
55 0.15
56 0.15
57 0.15
7 0.27
8 0.27
9 0.27

>  <PUBCHEM_EFFECTIVE_ROTOR_COUNT>  (1) 
7.4

>  <PUBCHEM_PHARMACOPHORE_FEATURES>  (1) 
7
1 2 acceptor
1 3 cation
5 10 11 12 15 16 rings
6 11 15 17 20 22 24 rings
6 12 16 18 21 23 25 rings
6 19 26 27 28 29 30 rings
6 3 4 5 6 7 8 rings

>  <PUBCHEM_HEAVY_ATOM_COUNT>  (1) 
30

>  <PUBCHEM_ATOM_DEF_STEREO_COUNT>  (1) 
0

>  <PUBCHEM_ATOM_UDEF_STEREO_COUNT>  (1) 
0

>  <PUBCHEM_BOND_DEF_STEREO_COUNT>  (1) 
0

>  <PUBCHEM_BOND_UDEF_STEREO_COUNT>  (1) 
0

>  <PUBCHEM_ISOTOPIC_ATOM_COUNT>  (1) 
0

>  <PUBCHEM_COMPONENT_COUNT>  (1) 
1

>  <PUBCHEM_CACTVS_TAUTO_COUNT>  (1) 
1

>  <PUBCHEM_CONFORMER_ID>  (1) 
0000B28F00000001

>  <PUBCHEM_MMFF94_ENERGY>  (1) 
82.3403

>  <PUBCHEM_FEATURE_SELFOVERLAP>  (1) 
35.686

>  <PUBCHEM_SHAPE_FINGERPRINT>  (1) 
10162869 55 18342447175364015239
10299344 5 18344145887265651947
10411042 1 18194401084039982886
11315181 36 9223225253508578759
11456790 92 18409444756750716272
11475781 23 14189571953418019277
11638347 137 18114185224881131211
11719270 70 17704073975889584655
12107698 1 18410573942370973056
12522641 24 18334009488856847266
13533116 47 18334576832804456950
13617811 41 15698008448259760361
13692114 37 17676206909349612499
14118638 360 8718834197163659271
14294032 229 16844464751523142937
14347424 109 18410854378113258608
14400156 96 18114746061531587788
15131766 46 18054503883469686732
15183329 4 16773804714421591225
15419008 145 18337666395790994792
15419008 47 17458058244742483821
15554971 5 17988924475468050921
1577012 14 18059571438224923477
15840311 113 18335422383343256861
19301679 30 18122903124014156298
20157964 124 18412546530818905188
20812841 46 18335421261644720273
21033648 29 17531811380405106096
21130935 74 18335986449888292347
21315763 28 18409729552412073873
21344244 78 18201145565378208768
21360442 67 10663814187348654628
21360443 126 11743828179581630924
21792934 111 18342170043021370337
23523787 8 14978569502458840756
249057 25 18130519556464234913
249057 3 18410292506307664870
3044373 193 18408046229425900364
397830 11 18041852843051133227
4073 2 18115873069123117955
4149490 64 18336546105084891867
44555599 121 18272941509681942705
4625314 4 18334573547856069567
4918590 53 18261966210725574033
60111433 81 16915082161686770176
68570916 9 18270397317216308743

>  <PUBCHEM_SHAPE_MULTIPOLES>  (1) 
600.67
27.88
2.91
1.09
62.01
2.03
0.12
-1.82
-7.17
-8.13
-0.12
0.19
-0.11
-1.21

>  <PUBCHEM_SHAPE_SELFOVERLAP>  (1) 
1320.353

>  <PUBCHEM_SHAPE_VOLUME>  (1) 
323.7

>  <PUBCHEM_COORDINATE_TYPE>  (1) 
2
5
10

$$$$
