45728
     RDKit          3D

 35 38  0  0  0  0  0  0  0  0999 V2000
    3.5737   -0.1379   -0.2231 N   0  0  0  0  0  0  0  0  0  0  0  0
   -3.6773   -0.3319    0.0280 N   0  0  0  0  0  0  0  0  0  0  0  0
    4.8168   -0.4226   -0.9924 C   0  0  0  0  0  0  0  0  0  0  0  0
    3.6914    0.8559    0.8801 C   0  0  0  0  0  0  0  0  0  0  0  0
   -3.9511    0.6109    1.1096 C   0  0  0  0  0  0  0  0  0  0  0  0
   -4.8504   -0.8744   -0.6529 C   0  0  0  0  0  0  0  0  0  0  0  0
    5.5694   -1.5867   -0.4173 C   0  0  0  0  0  0  0  0  0  0  0  0
    3.3708    2.2447    0.4105 C   0  0  0  0  0  0  0  0  0  0  0  0
   -4.0319    2.0148    0.5775 C   0  0  0  0  0  0  0  0  0  0  0  0
   -5.0121   -2.3363   -0.3405 C   0  0  0  0  0  0  0  0  0  0  0  0
    2.4397   -0.7041   -0.4733 C   0  0  0  0  0  0  0  0  0  0  0  0
   -2.4230   -0.5110   -0.4605 C   0  0  0  0  0  0  0  0  0  0  0  0
    6.5347   -1.3753    0.5673 C   0  0  0  0  0  0  0  0  0  0  0  0
    4.3840    3.0634   -0.0885 C   0  0  0  0  0  0  0  0  0  0  0  0
    5.3033   -2.8801   -0.8668 C   0  0  0  0  0  0  0  0  0  0  0  0
    2.0597    2.7169    0.4724 C   0  0  0  0  0  0  0  0  0  0  0  0
   -2.8826    2.8027    0.5112 C   0  0  0  0  0  0  0  0  0  0  0  0
   -4.4026   -3.2941   -1.1511 C   0  0  0  0  0  0  0  0  0  0  0  0
   -5.2558    2.5294    0.1496 C   0  0  0  0  0  0  0  0  0  0  0  0
   -5.7709   -2.7349    0.7599 C   0  0  0  0  0  0  0  0  0  0  0  0
    1.1779   -0.4604    0.2556 C   0  0  0  0  0  0  0  0  0  0  0  0
   -1.2652   -0.3803    0.2001 C   0  0  0  0  0  0  0  0  0  0  0  0
    0.0258   -0.5939   -0.4150 C   0  0  0  0  0  0  0  0  0  0  0  0
    7.2341   -2.4571    1.1020 C   0  0  0  0  0  0  0  0  0  0  0  0
    4.0861    4.3543   -0.5253 C   0  0  0  0  0  0  0  0  0  0  0  0
    6.0026   -3.9619   -0.3318 C   0  0  0  0  0  0  0  0  0  0  0  0
    1.7620    4.0077    0.0355 C   0  0  0  0  0  0  0  0  0  0  0  0
   -2.9573    4.1051    0.0174 C   0  0  0  0  0  0  0  0  0  0  0  0
   -4.5523   -4.6504   -0.8614 C   0  0  0  0  0  0  0  0  0  0  0  0
   -5.3303    3.8318   -0.3444 C   0  0  0  0  0  0  0  0  0  0  0  0
   -5.9204   -4.0911    1.0497 C   0  0  0  0  0  0  0  0  0  0  0  0
    6.9680   -3.7504    0.6526 C   0  0  0  0  0  0  0  0  0  0  0  0
    2.7753    4.8263   -0.4633 C   0  0  0  0  0  0  0  0  0  0  0  0
   -4.1811    4.6196   -0.4104 C   0  0  0  0  0  0  0  0  0  0  0  0
   -5.3110   -5.0488    0.2389 C   0  0  0  0  0  0  0  0  0  0  0  0
  1  3  1  0
  1  4  1  0
  1 11  2  0
  2  5  1  0
  2  6  1  0
  2 12  1  0
  3  7  1  0
  4  8  1  0
  5  9  1  0
  6 10  1  0
  7 13  2  0
  7 15  1  0
  8 14  2  0
  8 16  1  0
  9 17  2  0
  9 19  1  0
 10 18  2  0
 10 20  1  0
 11 21  1  0
 12 22  2  0
 13 24  1  0
 14 25  1  0
 15 26  2  0
 16 27  2  0
 17 28  1  0
 18 29  1  0
 19 30  2  0
 20 31  2  0
 21 23  2  0
 22 23  1  0
 24 32  2  0
 25 33  2  0
 26 32  1  0
 27 33  1  0
 28 34  2  0
 29 35  2  0
 30 34  1  0
 31 35  1  0
M  CHG  1   1   1
M  END
>  <PUBCHEM_COMPOUND_CID>  (1) 
45728

>  <PUBCHEM_CONFORMER_RMSD>  (1) 
1.2

>  <PUBCHEM_CONFORMER_DIVERSEORDER>  (1) 
1
47
153
83
96
44
90
126
55
137
145
89
111
48
158
73
148
78
160
63
29
120
114
35
129
9
42
21
91
28
13
11
68
76
143
40
67
64
51
58
36
141
144
10
128
57
27
92
88
123
119
162
116
103
32
107
135
99
26
150
17
98
97
101
85
71
52
108
117
164
31
122
95
5
147
161
133
94
100
124
45
157
149
84
139
82
166
30
132
8
46
93
81
112
80
4
38
154
165
59
121
37
33
70
155
43
50
53
146
151
125
12
115
22
87
69
163
131
39
138
65
105
79
75
20
23
86
136
18
110
14
156
72
66
109
106
77
56
25
118
15
7
6
54
127
49
102
24
60
74
62
19
130
16
34
2
134
104
142
61
140
113
3
41
152
159

>  <PUBCHEM_MMFF94_PARTIAL_CHARGES>  (1) 
60
1 -0.09
10 -0.14
11 0.33
12 -0.05
13 -0.15
14 -0.15
15 -0.15
16 -0.15
17 -0.15
18 -0.15
19 -0.15
2 -0.84
20 -0.15
21 -0.14
22 -0.15
23 -0.15
24 -0.15
25 -0.15
26 -0.15
27 -0.15
28 -0.15
29 -0.15
3 0.49
30 -0.15
31 -0.15
32 -0.15
33 -0.15
34 -0.15
35 -0.15
4 0.49
44 0.06
45 0.15
46 0.15
47 0.15
48 0.15
49 0.15
5 0.51
50 0.15
51 0.15
52 0.15
53 0.15
54 0.15
55 0.15
56 0.15
57 0.15
58 0.15
59 0.15
6 0.51
60 0.15
61 0.15
62 0.15
63 0.15
64 0.15
65 0.15
66 0.15
67 0.15
68 0.15
7 -0.14
8 -0.14
9 -0.14

>  <PUBCHEM_EFFECTIVE_ROTOR_COUNT>  (1) 
11

>  <PUBCHEM_PHARMACOPHORE_FEATURES>  (1) 
5
1 2 cation
6 10 18 20 29 31 35 rings
6 7 13 15 24 26 32 rings
6 8 14 16 25 27 33 rings
6 9 17 19 28 30 34 rings

>  <PUBCHEM_HEAVY_ATOM_COUNT>  (1) 
35

>  <PUBCHEM_ATOM_DEF_STEREO_COUNT>  (1) 
0

>  <PUBCHEM_ATOM_UDEF_STEREO_COUNT>  (1) 
0

>  <PUBCHEM_BOND_DEF_STEREO_COUNT>  (1) 
1

>  <PUBCHEM_BOND_UDEF_STEREO_COUNT>  (1) 
2

>  <PUBCHEM_ISOTOPIC_ATOM_COUNT>  (1) 
0

>  <PUBCHEM_COMPONENT_COUNT>  (1) 
1

>  <PUBCHEM_CACTVS_TAUTO_COUNT>  (1) 
1

>  <PUBCHEM_CONFORMER_ID>  (1) 
0000B2A000000001

>  <PUBCHEM_MMFF94_ENERGY>  (1) 
98.9757

>  <PUBCHEM_FEATURE_SELFOVERLAP>  (1) 
25.374

>  <PUBCHEM_SHAPE_FINGERPRINT>  (1) 
10050765 1 18410856585552622324
11136131 41 18264480866854684728
11763715 3 18119270569185939765
11963148 33 17909545404187248646
13553639 21 17974570509153863643
13560911 23 18334285471003130498
13782708 43 18040994059792902178
15274700 232 17909556060750436814
15276724 80 18268717272160144991
15347591 1 18410012160516839472
16628084 112 18338800138671889115
17492 89 18411136982434227153
17844677 252 18412550937265544279
18393751 57 17335322218297432192
19311894 1 18337953368346339192
4144715 1 18341054029849187216
50009960 94 18263062432150632882
513202 73 18411144658226899515

>  <PUBCHEM_SHAPE_MULTIPOLES>  (1) 
710.32
20.32
9.04
0.99
11.67
1.71
0.03
-20.07
1.78
-5.6
-0.64
-0.01
-0.47
-0.55

>  <PUBCHEM_SHAPE_SELFOVERLAP>  (1) 
1514.622

>  <PUBCHEM_SHAPE_VOLUME>  (1) 
391.8

>  <PUBCHEM_COORDINATE_TYPE>  (1) 
2
5
10

$$$$
