45732
     RDKit          3D

 18 17  0  0  0  0  0  0  0  0999 V2000
    0.6664   -0.3510   -0.5432 O   0  0  0  0  0  0  0  0  0  0  0  0
   -2.9941   -0.3281   -0.0253 N   0  0  0  0  0  0  0  0  0  0  0  0
    4.2555    0.1099    0.3693 N   0  0  0  0  0  0  0  0  0  0  0  0
   -1.7167   -0.5479   -0.7491 C   0  0  0  0  0  0  0  0  0  0  0  0
   -3.1244    1.1355    0.4177 C   0  0  0  0  0  0  0  0  0  0  0  0
   -3.0704   -1.2142    1.2254 C   0  0  0  0  0  0  0  0  0  0  0  0
   -4.1932   -0.6639   -0.9225 C   0  0  0  0  0  0  0  0  0  0  0  0
   -0.5584   -0.1771    0.1561 C   0  0  0  0  0  0  0  0  0  0  0  0
   -2.6427    2.0403   -0.7052 C   0  0  0  0  0  0  0  0  0  0  0  0
    3.0629   -0.2153   -0.5184 C   0  0  0  0  0  0  0  0  0  0  0  0
   -4.3658   -0.9347    1.9559 C   0  0  0  0  0  0  0  0  0  0  0  0
   -4.1309   -2.1249   -1.3111 C   0  0  0  0  0  0  0  0  0  0  0  0
    1.7833   -0.0142    0.2692 C   0  0  0  0  0  0  0  0  0  0  0  0
    5.4794    0.3652   -0.4985 C   0  0  0  0  0  0  0  0  0  0  0  0
    3.9504    1.3521    1.1941 C   0  0  0  0  0  0  0  0  0  0  0  0
    4.5294   -1.0626    1.3002 C   0  0  0  0  0  0  0  0  0  0  0  0
   -2.7084    3.5036   -0.2988 C   0  0  0  0  0  0  0  0  0  0  0  0
    5.7778   -0.8727   -1.3158 C   0  0  0  0  0  0  0  0  0  0  0  0
  1  8  1  0
  1 13  1  0
  2  4  1  0
  2  5  1  0
  2  6  1  0
  2  7  1  0
  3 10  1  0
  3 14  1  0
  3 15  1  0
  3 16  1  0
  4  8  1  0
  5  9  1  0
  6 11  1  0
  7 12  1  0
  9 17  1  0
 10 13  1  0
 14 18  1  0
M  CHG  2   2   1   3   1
M  END
>  <PUBCHEM_COMPOUND_CID>  (1) 
45732

>  <PUBCHEM_CONFORMER_RMSD>  (1) 
1

>  <PUBCHEM_CONFORMER_DIVERSEORDER>  (1) 
1
68
35
18
87
88
44
72
81
9
59
32
63
6
82
70
19
52
56
30
80
22
91
45
31
3
90
29
89
4
65
38
60
12
23
76
42
48
49
84
26
77
21
67
2
64
53
47
73
15
58
24
39
79
61
34
50
13
85
62
69
37
33
51
83
16
27
66
78
43
8
7
74
28
71
40
10
57
17
54
75
55
36
14
11
41
20
86
25
46
5

>  <PUBCHEM_MMFF94_PARTIAL_CHARGES>  (1) 
13
1 -0.56
10 0.5
13 0.28
14 0.5
15 0.5
16 0.5
2 -1.01
3 -1.01
4 0.5
5 0.5
6 0.5
7 0.5
8 0.28

>  <PUBCHEM_EFFECTIVE_ROTOR_COUNT>  (1) 
11

>  <PUBCHEM_PHARMACOPHORE_FEATURES>  (1) 
4
1 1 acceptor
1 17 hydrophobe
1 2 cation
1 3 cation

>  <PUBCHEM_HEAVY_ATOM_COUNT>  (1) 
18

>  <PUBCHEM_ATOM_DEF_STEREO_COUNT>  (1) 
0

>  <PUBCHEM_ATOM_UDEF_STEREO_COUNT>  (1) 
0

>  <PUBCHEM_BOND_DEF_STEREO_COUNT>  (1) 
0

>  <PUBCHEM_BOND_UDEF_STEREO_COUNT>  (1) 
0

>  <PUBCHEM_ISOTOPIC_ATOM_COUNT>  (1) 
0

>  <PUBCHEM_COMPONENT_COUNT>  (1) 
1

>  <PUBCHEM_CACTVS_TAUTO_COUNT>  (1) 
1

>  <PUBCHEM_CONFORMER_ID>  (1) 
0000B2A400000001

>  <PUBCHEM_MMFF94_ENERGY>  (1) 
73.6311

>  <PUBCHEM_FEATURE_SELFOVERLAP>  (1) 
20.297

>  <PUBCHEM_SHAPE_FINGERPRINT>  (1) 
10366900 7 18334289894265459642
10680689 15 18413109459002123407
10912923 1 17168146719996804272
11056379 131 18412262831033493215
11315181 36 17385726915237312364
11545043 162 18341895156640120168
12091667 2 18409731759935749302
12107183 9 17539959586184634808
12596602 18 17095526235929463816
12670546 56 18335971022059179850
12916754 54 17774718774646901411
13073987 5 18186519883027277216
13167823 11 18113899330230040282
13533116 47 18114450172343853611
15788980 27 18272934912474538182
16120349 189 17317320614938597957
17844677 252 18412827984658623340
18186145 218 17632576050576157138
18927931 339 18409453587467252959
19433438 28 18411702093156956272
19489759 90 18408315579767735470
200 152 18040708204049263255
20281475 54 17313383405548249634
20645477 56 18272092639338956261
20645477 70 16917074356775802462
2297311 6 18261688033481970403
2306618 200 18131632266710906633
23402539 116 18408598189164666047
23557571 272 18201726119469198229
300161 21 12107775328995143014
3268164 11 18410565185027401173
4214541 1 18131069320630244846
497634 4 17346599724653177205
5104073 3 18187358784529577936
5281201 14 18202284715027362044
531348 171 18269554944626591814
573450 72 18262223431267615514
90127 26 18411983563954809112

>  <PUBCHEM_SHAPE_MULTIPOLES>  (1) 
354.6
13.57
2.31
1.47
15.86
2.33
0.38
-2.96
-0.5
-3.47
-0.38
-0.5
-0.58
0.52

>  <PUBCHEM_SHAPE_SELFOVERLAP>  (1) 
652.758

>  <PUBCHEM_SHAPE_VOLUME>  (1) 
228.8

>  <PUBCHEM_COORDINATE_TYPE>  (1) 
2
5
10

$$$$
