45740
     RDKit          3D

 19 18  0  0  0  0  0  0  0  0999 V2000
    0.3634   -0.8062   -0.4013 O   0  0  0  0  0  0  0  0  0  0  0  0
   -5.9957   -1.8318   -0.5610 O   0  0  0  0  0  0  0  0  0  0  0  0
    5.9751    2.3130   -0.1879 O   0  0  0  0  0  0  0  0  0  0  0  0
   -3.0864    0.4414    0.0583 N   0  0  0  0  0  0  0  0  0  0  0  0
    4.0655   -0.8834    0.0620 N   0  0  0  0  0  0  0  0  0  0  0  0
   -2.0105   -0.4539   -0.4367 C   0  0  0  0  0  0  0  0  0  0  0  0
   -4.4525    0.0053   -0.4887 C   0  0  0  0  0  0  0  0  0  0  0  0
   -3.1552    0.4143    1.5912 C   0  0  0  0  0  0  0  0  0  0  0  0
   -2.8355    1.8896   -0.3830 C   0  0  0  0  0  0  0  0  0  0  0  0
   -0.6753    0.0253    0.0982 C   0  0  0  0  0  0  0  0  0  0  0  0
    2.7093   -1.3076   -0.4830 C   0  0  0  0  0  0  0  0  0  0  0  0
   -4.7478   -1.4084   -0.0279 C   0  0  0  0  0  0  0  0  0  0  0  0
    4.3668    0.5414   -0.3797 C   0  0  0  0  0  0  0  0  0  0  0  0
   -4.2856    1.3066    2.0552 C   0  0  0  0  0  0  0  0  0  0  0  0
   -2.7631    1.9449   -1.8933 C   0  0  0  0  0  0  0  0  0  0  0  0
    1.6371   -0.3929    0.0755 C   0  0  0  0  0  0  0  0  0  0  0  0
    5.1414   -1.8183   -0.4714 C   0  0  0  0  0  0  0  0  0  0  0  0
    4.0445   -0.9493    1.5824 C   0  0  0  0  0  0  0  0  0  0  0  0
    5.7042    0.9700    0.1912 C   0  0  0  0  0  0  0  0  0  0  0  0
  1 10  1  0
  1 16  1  0
  2 12  1  0
  3 19  1  0
  4  6  1  0
  4  7  1  0
  4  8  1  0
  4  9  1  0
  5 11  1  0
  5 13  1  0
  5 17  1  0
  5 18  1  0
  6 10  1  0
  7 12  1  0
  8 14  1  0
  9 15  1  0
 11 16  1  0
 13 19  1  0
M  CHG  2   4   1   5   1
M  END
>  <PUBCHEM_COMPOUND_CID>  (1) 
45740

>  <PUBCHEM_CONFORMER_RMSD>  (1) 
1

>  <PUBCHEM_CONFORMER_DIVERSEORDER>  (1) 
1
50
106
116
120
108
81
109
47
115
35
85
43
51
93
40
59
83
34
68
104
97
36
88
7
18
90
121
4
86
31
99
114
113
84
28
124
89
112
48
65
62
27
53
91
103
5
49
82
94
122
11
67
101
6
73
92
110
117
107
96
14
95
37
64
105
58
69
56
3
39
52
63
76
32
119
87
54
125
29
57
111
102
72
2
60
42
46
66
9
79
71
78
118
61
41
33
77
75
80
70
55
44
15
22
123
21
100
10
98
20
74
17
16
24
13
8
30
26
12
45
19
23
38
25

>  <PUBCHEM_MMFF94_PARTIAL_CHARGES>  (1) 
19
1 -0.56
10 0.28
11 0.5
12 0.28
13 0.5
16 0.28
17 0.5
18 0.5
19 0.28
2 -0.68
3 -0.68
4 -1.01
5 -1.01
52 0.4
53 0.4
6 0.5
7 0.5
8 0.5
9 0.5

>  <PUBCHEM_EFFECTIVE_ROTOR_COUNT>  (1) 
12

>  <PUBCHEM_PHARMACOPHORE_FEATURES>  (1) 
7
1 1 acceptor
1 2 acceptor
1 2 donor
1 3 acceptor
1 3 donor
1 4 cation
1 5 cation

>  <PUBCHEM_HEAVY_ATOM_COUNT>  (1) 
19

>  <PUBCHEM_ATOM_DEF_STEREO_COUNT>  (1) 
0

>  <PUBCHEM_ATOM_UDEF_STEREO_COUNT>  (1) 
0

>  <PUBCHEM_BOND_DEF_STEREO_COUNT>  (1) 
0

>  <PUBCHEM_BOND_UDEF_STEREO_COUNT>  (1) 
0

>  <PUBCHEM_ISOTOPIC_ATOM_COUNT>  (1) 
0

>  <PUBCHEM_COMPONENT_COUNT>  (1) 
1

>  <PUBCHEM_CACTVS_TAUTO_COUNT>  (1) 
1

>  <PUBCHEM_CONFORMER_ID>  (1) 
0000B2AC00000001

>  <PUBCHEM_MMFF94_ENERGY>  (1) 
79.1242

>  <PUBCHEM_FEATURE_SELFOVERLAP>  (1) 
35.522

>  <PUBCHEM_SHAPE_FINGERPRINT>  (1) 
10366900 7 17748829600596969739
10680689 15 18113905905503015407
10912923 1 18341895169055764458
12596602 18 18342740719161670482
12616971 3 15123498203814103354
12670546 56 17603861170297422922
12916754 54 18412825789792977085
13073987 5 17918275337922904602
13675066 3 17894635803618606070
14251718 22 18411135870027017966
14251732 16 18339923826211242110
15183329 4 12319463160366640668
15880784 105 18410295787293108658
17834072 33 18342737442260008854
17844677 252 18334860463939146300
19433438 28 17822298937969688932
19489759 90 16732978713330470789
200 152 17458344135377830479
20645477 70 18059861619644162126
23402539 116 17676489424235148975
23559900 14 15140970581503035927
3009799 131 17095232645103050119
4325135 7 18271807964142008039
497634 4 18273498970524292645
5104073 3 17532088306937896320
542803 24 17704075070942123066
543368 44 17845933030439913600
633830 44 17631458873468415718
90127 26 18114186285484559672

>  <PUBCHEM_SHAPE_MULTIPOLES>  (1) 
363.44
15.68
2.07
1.41
10.17
0.53
0.52
-0.17
0.65
0.28
-0.5
-1.51
0.51
-0.39

>  <PUBCHEM_SHAPE_SELFOVERLAP>  (1) 
673.513

>  <PUBCHEM_SHAPE_VOLUME>  (1) 
232.7

>  <PUBCHEM_COORDINATE_TYPE>  (1) 
2
5
10

$$$$
