45748
     RDKit          3D

 24 26  0  0  0  0  0  0  0  0999 V2000
   -5.4274   -1.0770    1.4708 Cl  0  0  0  0  0  0  0  0  0  0  0  0
   -4.6932    1.1997   -0.7077 S   0  0  0  0  0  0  0  0  0  0  0  0
    0.3959   -0.0039   -1.5898 O   0  0  0  0  0  0  0  0  0  0  0  0
   -4.2253    1.6664   -2.0031 O   0  0  0  0  0  0  0  0  0  0  0  0
   -5.9983    0.5690   -0.5891 O   0  0  0  0  0  0  0  0  0  0  0  0
    2.4815   -0.7761    0.0729 N   0  0  0  0  0  0  0  0  0  0  0  0
    1.1789   -0.9041    0.4041 N   0  0  0  0  0  0  0  0  0  0  0  0
   -4.5966    2.4840    0.4132 N   0  0  0  0  0  0  0  0  0  0  0  0
    3.2494    0.3410    0.3131 C   0  0  0  0  0  0  0  0  0  0  0  0
    4.5298    0.0722   -0.1755 C   0  0  0  0  0  0  0  0  0  0  0  0
    3.2300   -1.7391   -0.5487 C   0  0  0  0  0  0  0  0  0  0  0  0
    4.5026   -1.2438   -0.7164 C   0  0  0  0  0  0  0  0  0  0  0  0
    2.9121    1.5564    0.9192 C   0  0  0  0  0  0  0  0  0  0  0  0
    5.5238    1.0635   -0.0544 C   0  0  0  0  0  0  0  0  0  0  0  0
    2.6715   -3.0529   -0.9333 C   0  0  0  0  0  0  0  0  0  0  0  0
   -1.2158   -0.6203   -0.0019 C   0  0  0  0  0  0  0  0  0  0  0  0
    0.1849   -0.4834   -0.4785 C   0  0  0  0  0  0  0  0  0  0  0  0
   -3.4916    0.1041   -0.0552 C   0  0  0  0  0  0  0  0  0  0  0  0
    3.9144    2.5246    1.0281 C   0  0  0  0  0  0  0  0  0  0  0  0
    5.2009    2.2841    0.5496 C   0  0  0  0  0  0  0  0  0  0  0  0
   -2.1767    0.2331   -0.5029 C   0  0  0  0  0  0  0  0  0  0  0  0
   -1.5101   -1.5966    0.9271 C   0  0  0  0  0  0  0  0  0  0  0  0
   -3.8157   -0.8754    0.8836 C   0  0  0  0  0  0  0  0  0  0  0  0
   -2.8250   -1.7256    1.3750 C   0  0  0  0  0  0  0  0  0  0  0  0
  1 23  1  0
  2  4  2  0
  2  5  2  0
  2  8  1  0
  2 18  1  0
  3 17  2  0
  6  7  1  0
  6  9  1  0
  6 11  1  0
  7 17  1  0
  9 10  2  0
  9 13  1  0
 10 12  1  0
 10 14  1  0
 11 12  2  0
 11 15  1  0
 13 19  2  0
 14 20  2  0
 16 17  1  0
 16 21  1  0
 16 22  2  0
 18 21  2  0
 18 23  1  0
 19 20  1  0
 22 24  1  0
 23 24  2  0
M  END
>  <PUBCHEM_COMPOUND_CID>  (1) 
45748

>  <PUBCHEM_CONFORMER_RMSD>  (1) 
0.8

>  <PUBCHEM_CONFORMER_DIVERSEORDER>  (1) 
2
19
7
24
34
40
33
37
45
30
38
44
42
31
18
25
23
27
16
36
22
39
12
21
11
43
4
20
41
1
17
35
13
29
8
14
15
26
28
32
3
6
5
10
9

>  <PUBCHEM_MMFF94_PARTIAL_CHARGES>  (1) 
34
1 -0.18
11 -0.33
12 -0.15
13 -0.15
14 -0.15
15 0.18
16 0.09
17 0.54
18 -0.01
19 -0.15
2 1.45
20 -0.15
21 -0.15
22 -0.15
23 0.18
24 -0.15
25 0.15
26 0.37
27 0.15
28 0.15
3 -0.57
32 0.15
33 0.15
34 0.15
35 0.15
36 0.15
37 0.42
38 0.42
4 -0.65
5 -0.65
6 0.44
7 -0.57
8 -0.98
9 -0.15

>  <PUBCHEM_EFFECTIVE_ROTOR_COUNT>  (1) 
4

>  <PUBCHEM_PHARMACOPHORE_FEATURES>  (1) 
8
1 3 acceptor
1 4 acceptor
1 5 acceptor
1 7 donor
1 8 donor
5 6 9 10 11 12 rings
6 16 18 21 22 23 24 rings
6 9 10 13 14 19 20 rings

>  <PUBCHEM_HEAVY_ATOM_COUNT>  (1) 
24

>  <PUBCHEM_ATOM_DEF_STEREO_COUNT>  (1) 
0

>  <PUBCHEM_ATOM_UDEF_STEREO_COUNT>  (1) 
0

>  <PUBCHEM_BOND_DEF_STEREO_COUNT>  (1) 
0

>  <PUBCHEM_BOND_UDEF_STEREO_COUNT>  (1) 
0

>  <PUBCHEM_ISOTOPIC_ATOM_COUNT>  (1) 
0

>  <PUBCHEM_COMPONENT_COUNT>  (1) 
1

>  <PUBCHEM_CACTVS_TAUTO_COUNT>  (1) 
2

>  <PUBCHEM_CONFORMER_ID>  (1) 
0000B2B400000002

>  <PUBCHEM_MMFF94_ENERGY>  (1) 
43.5532

>  <PUBCHEM_FEATURE_SELFOVERLAP>  (1) 
40.706

>  <PUBCHEM_SHAPE_FINGERPRINT>  (1) 
10319926 262 17895182312637691954
10411042 1 17839185109207405014
11045977 3 18335423478153605034
11089746 13 18410567362538954918
11370993 144 18339083679311130141
11405975 8 18335137557669666954
11595378 159 16153979162634818108
12236239 1 16415767422315354178
12403259 415 18408328782740010923
12507560 40 18409171025552527803
12596602 18 14779559975661137853
12616971 3 16845298223996310883
12730499 353 18412550929087313194
12769317 202 18273208729635375776
13402501 40 18408600383471227296
13583140 156 18272372013860504863
13675066 3 18261117374262933791
14178342 30 17385724746031441323
14251764 38 18059018254943334649
14341114 176 18411710901770760072
14528608 73 18130782386649932860
14573314 32 18408325466919763391
15081414 286 18271251607549539536
17349148 13 13840260390639127658
17844677 252 18272939280324370493
20157964 124 18272649034961066615
20645477 56 18335422383053151595
20645477 70 18060140903786501766
21033648 144 17489018387546238968
21033648 29 18410285943270271001
21065201 7 17676210156122899643
21792961 116 18338805495192225550
22122407 14 17846509118824907489
22289505 5 18343582919963556352
23557571 272 18040724674863630527
23559900 14 18187373082217405430
268830 7 18059869324445907915
3545911 37 18411142467265420914
4371632 12 16913383441574252465
495365 180 18272921726956776570
497634 4 17489027179987716023
5104073 3 18113900425082581019
57724786 102 18130801048240993337
633830 44 18341043004858218023
8272917 22 17988655090318259718
90127 26 18411706465117113323
9995097 60 18409732884578792841

>  <PUBCHEM_SHAPE_MULTIPOLES>  (1) 
467.08
14.36
2.67
1.31
4.22
0.13
0.14
6.03
-0.64
-1.84
-0.07
1.24
0.04
3.02

>  <PUBCHEM_SHAPE_SELFOVERLAP>  (1) 
1003.628

>  <PUBCHEM_SHAPE_VOLUME>  (1) 
261.2

>  <PUBCHEM_COORDINATE_TYPE>  (1) 
2
5
10

$$$$
