45754
     RDKit          3D

 18 17  0  0  0  0  0  0  0  0999 V2000
   -1.1274    0.1276   -0.1427 O   0  0  0  0  0  0  0  0  0  0  0  0
    3.7105    0.0813    0.0132 N   0  0  0  0  0  0  0  0  0  0  0  0
   -4.8270   -0.3219    0.0522 N   0  0  0  0  0  0  0  0  0  0  0  0
    2.4915   -0.6333    0.4626 C   0  0  0  0  0  0  0  0  0  0  0  0
    4.9764   -0.6326    0.5083 C   0  0  0  0  0  0  0  0  0  0  0  0
    3.7320    1.5181    0.5542 C   0  0  0  0  0  0  0  0  0  0  0  0
    3.7708    0.1490   -1.5195 C   0  0  0  0  0  0  0  0  0  0  0  0
    1.2655    0.1045   -0.0475 C   0  0  0  0  0  0  0  0  0  0  0  0
   -3.5106    0.3294   -0.3467 C   0  0  0  0  0  0  0  0  0  0  0  0
   -0.0175   -0.6127    0.3469 C   0  0  0  0  0  0  0  0  0  0  0  0
    5.0232   -2.0271   -0.0771 C   0  0  0  0  0  0  0  0  0  0  0  0
    3.6734    1.4824    2.0657 C   0  0  0  0  0  0  0  0  0  0  0  0
    5.0459    0.8479   -1.9377 C   0  0  0  0  0  0  0  0  0  0  0  0
   -5.9424    0.1986   -0.8428 C   0  0  0  0  0  0  0  0  0  0  0  0
   -2.3597   -0.4950    0.1957 C   0  0  0  0  0  0  0  0  0  0  0  0
   -5.1408    0.0158    1.5026 C   0  0  0  0  0  0  0  0  0  0  0  0
   -4.7139   -1.8316   -0.1043 C   0  0  0  0  0  0  0  0  0  0  0  0
   -6.0499    1.6994   -0.6831 C   0  0  0  0  0  0  0  0  0  0  0  0
  1 10  1  0
  1 15  1  0
  2  4  1  0
  2  5  1  0
  2  6  1  0
  2  7  1  0
  3  9  1  0
  3 14  1  0
  3 16  1  0
  3 17  1  0
  4  8  1  0
  5 11  1  0
  6 12  1  0
  7 13  1  0
  8 10  1  0
  9 15  1  0
 14 18  1  0
M  CHG  2   2   1   3   1
M  END
>  <PUBCHEM_COMPOUND_CID>  (1) 
45754

>  <PUBCHEM_CONFORMER_RMSD>  (1) 
1.2

>  <PUBCHEM_CONFORMER_DIVERSEORDER>  (1) 
1
37
25
33
5
32
31
12
23
34
9
20
39
15
27
40
6
3
29
21
28
18
10
26
36
17
8
22
30
19
2
35
7
13
16
4
38
14
11
24

>  <PUBCHEM_MMFF94_PARTIAL_CHARGES>  (1) 
13
1 -0.56
10 0.28
14 0.5
15 0.28
16 0.5
17 0.5
2 -1.01
3 -1.01
4 0.5
5 0.5
6 0.5
7 0.5
9 0.5

>  <PUBCHEM_EFFECTIVE_ROTOR_COUNT>  (1) 
11

>  <PUBCHEM_PHARMACOPHORE_FEATURES>  (1) 
3
1 1 acceptor
1 2 cation
1 3 cation

>  <PUBCHEM_HEAVY_ATOM_COUNT>  (1) 
18

>  <PUBCHEM_ATOM_DEF_STEREO_COUNT>  (1) 
0

>  <PUBCHEM_ATOM_UDEF_STEREO_COUNT>  (1) 
0

>  <PUBCHEM_BOND_DEF_STEREO_COUNT>  (1) 
0

>  <PUBCHEM_BOND_UDEF_STEREO_COUNT>  (1) 
0

>  <PUBCHEM_ISOTOPIC_ATOM_COUNT>  (1) 
0

>  <PUBCHEM_COMPONENT_COUNT>  (1) 
1

>  <PUBCHEM_CACTVS_TAUTO_COUNT>  (1) 
1

>  <PUBCHEM_CONFORMER_ID>  (1) 
0000B2BA00000001

>  <PUBCHEM_MMFF94_ENERGY>  (1) 
72.9875

>  <PUBCHEM_FEATURE_SELFOVERLAP>  (1) 
15.223

>  <PUBCHEM_SHAPE_FINGERPRINT>  (1) 
10912923 1 16732978760728111305
11089746 13 18130781248536294865
11287383 113 17917991723794023947
12616971 3 17275096241204215804
12916748 109 10519988183778368343
13167372 99 17603584084508588741
13533116 47 18341892953142997730
14528608 73 18260830431581566615
146900 427 15502374534383160512
15183329 4 17847066558224062705
17834072 33 18187087277596824327
17844677 252 18059859484591384529
20281389 69 18334855001010069753
20369508 70 18131068221799293954
20645477 70 17060344041425623342
212847 35 18260830401928329924
220451 1 18411709798196650071
22061861 79 17846498102111966965
23081809 10 17894909642096076039
23402539 116 18333445448409084727
23557571 272 17822570487145052053
23559900 14 18408881845441314234
29717793 49 18261395512139707054
3004659 81 18260547788854188946
34797466 226 17703509999528227509
42788 4 17748827410627852551
5104073 3 18059856207394499811
522135 26 18411139139151134506
542803 24 17167863067123378463
633830 44 17240762912685454178
90127 26 17489314104808290795

>  <PUBCHEM_SHAPE_MULTIPOLES>  (1) 
354.6
17.57
1.6
1.46
14.76
0.17
0.04
-1.1
-2.44
-0.52
0.14
-1.55
-0.63
0.66

>  <PUBCHEM_SHAPE_SELFOVERLAP>  (1) 
652.424

>  <PUBCHEM_SHAPE_VOLUME>  (1) 
229

>  <PUBCHEM_COORDINATE_TYPE>  (1) 
2
5
10

$$$$
