45758
     RDKit          3D

 18 17  0  0  1  0  0  0  0  0999 V2000
   -0.4411    1.4400   -0.4438 S   0  0  0  0  0  0  0  0  0  0  0  0
   -0.4784    2.3461    0.7470 O   0  0  0  0  0  0  0  0  0  0  0  0
    3.2687   -0.2171    0.0452 N   0  0  0  0  0  0  0  0  0  0  0  0
   -4.2990   -0.0546   -0.3340 N   0  0  0  0  0  0  0  0  0  0  0  0
    2.2396    0.8190   -0.2215 C   0  0  0  0  0  0  0  0  0  0  0  0
    3.0746   -0.8321    1.4380 C   0  0  0  0  0  0  0  0  0  0  0  0
    4.6785    0.3864   -0.0178 C   0  0  0  0  0  0  0  0  0  0  0  0
    3.1860   -1.3463   -0.9910 C   0  0  0  0  0  0  0  0  0  0  0  0
    0.8520    0.2093   -0.1577 C   0  0  0  0  0  0  0  0  0  0  0  0
   -3.1700    0.9585   -0.4563 C   0  0  0  0  0  0  0  0  0  0  0  0
   -1.8285    0.2744   -0.2734 C   0  0  0  0  0  0  0  0  0  0  0  0
   -4.2531   -0.7020    1.0425 C   0  0  0  0  0  0  0  0  0  0  0  0
    3.1518    0.2616    2.4807 C   0  0  0  0  0  0  0  0  0  0  0  0
    4.8969    1.0008   -1.3832 C   0  0  0  0  0  0  0  0  0  0  0  0
    4.2727   -2.3609   -0.7102 C   0  0  0  0  0  0  0  0  0  0  0  0
   -4.1378   -1.1251   -1.4037 C   0  0  0  0  0  0  0  0  0  0  0  0
   -5.6353    0.6500   -0.5187 C   0  0  0  0  0  0  0  0  0  0  0  0
   -5.3774   -1.7079    1.1579 C   0  0  0  0  0  0  0  0  0  0  0  0
  1  2  2  0
  1  9  1  0
  1 11  1  0
  3  5  1  0
  3  6  1  0
  3  7  1  0
  3  8  1  0
  4 10  1  0
  4 12  1  0
  4 16  1  0
  4 17  1  0
  5  9  1  0
  6 13  1  0
  7 14  1  0
  8 15  1  0
 10 11  1  0
 12 18  1  0
M  CHG  2   3   1   4   1
M  END
>  <PUBCHEM_COMPOUND_CID>  (1) 
45758

>  <PUBCHEM_CONFORMER_RMSD>  (1) 
0.8

>  <PUBCHEM_CONFORMER_DIVERSEORDER>  (1) 
22
227
214
186
232
36
221
137
133
226
112
220
35
246
24
247
216
3
201
128
240
103
64
90
184
167
6
194
178
229
71
244
17
166
238
59
199
120
14
242
84
174
182
92
218
161
243
171
72
173
118
241
107
230
43
86
39
212
7
159
177
25
104
1
135
203
13
95
196
110
237
91
163
78
4
87
213
20
66
125
202
143
179
27
209
9
116
162
172
63
215
235
76
144
67
81
100
121
197
94
52
245
51
224
46
236
96
85
189
204
106
122
89
75
77
195
170
88
193
53
168
29
149
211
208
34
65
156
32
183
12
151
79
58
157
68
15
48
54
130
50
18
74
99
45
131
217
150
169
155
5
83
126
222
41
55
30
19
117
228
198
38
21
28
165
219
47
153
16
113
114
127
176
119
33
2
181
140
191
97
136
10
129
123
205
147
73
111
148
40
37
210
188
82
223
11
93
132
231
185
60
239
142
180
109
187
49
206
44
8
225
23
115
31
190
134
42
69
70
138
192
234
80
145
61
164
175
98
160
26
233
200
56
139
207
101
62
146
154
158
141
108
105
57
152
124
102

>  <PUBCHEM_MMFF94_PARTIAL_CHARGES>  (1) 
14
1 0.11
10 0.5
11 0.19
12 0.5
16 0.5
17 0.5
2 -0.5
3 -1.01
4 -1.01
5 0.5
6 0.5
7 0.5
8 0.5
9 0.19

>  <PUBCHEM_EFFECTIVE_ROTOR_COUNT>  (1) 
10

>  <PUBCHEM_PHARMACOPHORE_FEATURES>  (1) 
3
1 2 acceptor
1 3 cation
1 4 cation

>  <PUBCHEM_HEAVY_ATOM_COUNT>  (1) 
18

>  <PUBCHEM_ATOM_DEF_STEREO_COUNT>  (1) 
0

>  <PUBCHEM_ATOM_UDEF_STEREO_COUNT>  (1) 
1

>  <PUBCHEM_BOND_DEF_STEREO_COUNT>  (1) 
0

>  <PUBCHEM_BOND_UDEF_STEREO_COUNT>  (1) 
0

>  <PUBCHEM_ISOTOPIC_ATOM_COUNT>  (1) 
0

>  <PUBCHEM_COMPONENT_COUNT>  (1) 
1

>  <PUBCHEM_CACTVS_TAUTO_COUNT>  (1) 
1

>  <PUBCHEM_CONFORMER_ID>  (1) 
0000B2BE00000016

>  <PUBCHEM_MMFF94_ENERGY>  (1) 
66.22

>  <PUBCHEM_FEATURE_SELFOVERLAP>  (1) 
15.223

>  <PUBCHEM_SHAPE_FINGERPRINT>  (1) 
10366900 7 17203331108579807071
11089746 13 9439126403291545565
11135609 149 12759077626030142528
11140007 195 13830142676261719720
11287383 113 17240768422980646036
11543360 7 15140966170798280767
11552529 35 16342558730129826503
11796584 16 18040713662957763363
12553582 1 18342170111450378309
12596602 18 17748829643509771014
12616999 72 18410295809437578916
12633257 1 16200424750105730454
12916748 109 11746937555936801349
13167823 11 17530678801581304107
13533116 47 17417811691191619495
13544653 18 18413390925658080877
13675066 3 18272365369735768037
13955234 65 18272930536345910530
14251718 22 17822015349383752685
14252887 29 18272082803657957864
15239154 128 11095881579586902859
15342816 4 17603584114826229188
15375358 24 13406799917352661292
15537594 2 18202007650465126111
15806764 133 16415481502522688032
17834072 33 17240483632246861212
17844677 252 17458065954345832309
18222031 100 18130780183506146925
193927 3 18335709325364773063
19433438 28 11887954350267995127
20281475 54 18130784546897332213
20645477 70 18041002864322111684
21054139 6 16950566640039950994
21503847 285 15052014580699827610
23402539 116 13406787839508739493
235170 7 16805316687028735527
23559900 14 18336264561456736636
239999 70 18113622296338904934
300161 21 16660638562126602157
3004659 81 17894911797905914534
31174 14 17131537385017447072
312423 11 18268722619125312268
314194 84 18343302595510378783
351380 3 18410012160885773271
5104073 3 18200032828902569528

>  <PUBCHEM_SHAPE_MULTIPOLES>  (1) 
358.45
13.88
1.91
1.6
9.41
0.31
0.73
4.04
-1.34
-0.28
-0.12
-1.16
0.36
0.65

>  <PUBCHEM_SHAPE_SELFOVERLAP>  (1) 
648.945

>  <PUBCHEM_SHAPE_VOLUME>  (1) 
235.1

>  <PUBCHEM_COORDINATE_TYPE>  (1) 
2
5
10

$$$$
