45774
     RDKit          3D

 16 15  0  0  0  0  0  0  0  0999 V2000
    0.0217    0.1794    0.1694 O   0  0  0  0  0  0  0  0  0  0  0  0
   -3.6490    0.0188   -0.2440 N   0  0  0  0  0  0  0  0  0  0  0  0
    4.8916    0.0571    0.0859 N   0  0  0  0  0  0  0  0  0  0  0  0
   -2.3599    0.3566    0.4105 C   0  0  0  0  0  0  0  0  0  0  0  0
   -4.8336    0.4476    0.6324 C   0  0  0  0  0  0  0  0  0  0  0  0
   -3.7567   -1.4929   -0.4863 C   0  0  0  0  0  0  0  0  0  0  0  0
   -3.7750    0.7297   -1.5983 C   0  0  0  0  0  0  0  0  0  0  0  0
   -1.2155   -0.1087   -0.4683 C   0  0  0  0  0  0  0  0  0  0  0  0
    3.6351   -0.3442   -0.6732 C   0  0  0  0  0  0  0  0  0  0  0  0
    2.4144    0.0958    0.1168 C   0  0  0  0  0  0  0  0  0  0  0  0
   -4.7950    1.9481    0.8229 C   0  0  0  0  0  0  0  0  0  0  0  0
   -3.6353   -2.2193    0.8354 C   0  0  0  0  0  0  0  0  0  0  0  0
    1.1260   -0.2405   -0.6200 C   0  0  0  0  0  0  0  0  0  0  0  0
    4.8803   -0.5894    1.4636 C   0  0  0  0  0  0  0  0  0  0  0  0
    6.1193   -0.4091   -0.6833 C   0  0  0  0  0  0  0  0  0  0  0  0
    4.9319    1.5710    0.2364 C   0  0  0  0  0  0  0  0  0  0  0  0
  1  8  1  0
  1 13  1  0
  2  4  1  0
  2  5  1  0
  2  6  1  0
  2  7  1  0
  3  9  1  0
  3 14  1  0
  3 15  1  0
  3 16  1  0
  4  8  1  0
  5 11  1  0
  6 12  1  0
  9 10  1  0
 10 13  1  0
M  CHG  2   2   1   3   1
M  END
>  <PUBCHEM_COMPOUND_CID>  (1) 
45774

>  <PUBCHEM_CONFORMER_RMSD>  (1) 
0.8

>  <PUBCHEM_CONFORMER_DIVERSEORDER>  (1) 
1
20
16
13
67
28
24
50
26
59
65
41
53
62
75
17
70
18
38
4
74
64
19
30
68
33
34
51
39
52
37
63
47
29
22
61
56
36
55
32
72
40
48
43
58
44
11
10
21
66
7
69
35
9
46
12
54
6
45
73
42
5
14
3
76
57
31
27
71
60
2
23
25
8
49
15

>  <PUBCHEM_MMFF94_PARTIAL_CHARGES>  (1) 
13
1 -0.56
13 0.28
14 0.5
15 0.5
16 0.5
2 -1.01
3 -1.01
4 0.5
5 0.5
6 0.5
7 0.5
8 0.28
9 0.5

>  <PUBCHEM_EFFECTIVE_ROTOR_COUNT>  (1) 
9

>  <PUBCHEM_PHARMACOPHORE_FEATURES>  (1) 
3
1 1 acceptor
1 2 cation
1 3 cation

>  <PUBCHEM_HEAVY_ATOM_COUNT>  (1) 
16

>  <PUBCHEM_ATOM_DEF_STEREO_COUNT>  (1) 
0

>  <PUBCHEM_ATOM_UDEF_STEREO_COUNT>  (1) 
0

>  <PUBCHEM_BOND_DEF_STEREO_COUNT>  (1) 
0

>  <PUBCHEM_BOND_UDEF_STEREO_COUNT>  (1) 
0

>  <PUBCHEM_ISOTOPIC_ATOM_COUNT>  (1) 
0

>  <PUBCHEM_COMPONENT_COUNT>  (1) 
1

>  <PUBCHEM_CACTVS_TAUTO_COUNT>  (1) 
1

>  <PUBCHEM_CONFORMER_ID>  (1) 
0000B2CE00000001

>  <PUBCHEM_MMFF94_ENERGY>  (1) 
59.6749

>  <PUBCHEM_FEATURE_SELFOVERLAP>  (1) 
15.223

>  <PUBCHEM_SHAPE_FINGERPRINT>  (1) 
10680689 15 17676205775545953237
10912923 1 18113898282078353450
11287383 113 18412263978016334808
11315181 36 18411698815959570861
12091667 2 17560801030836494764
12616971 3 17313111864250633276
13167823 11 17967527995633258882
13533116 47 17895189949147676946
14123238 8 9583516525420150136
15788980 27 17275103937891124612
17093844 174 18131628980522737946
17834072 33 17676487267950452790
17834076 25 18059857250965576237
17844677 252 18131075965002979344
19489759 90 18202843245168915113
200 152 16298384660587755268
20281389 69 18335420136664235209
20645477 56 18187081711846755589
20645477 70 16486419767515139606
220451 1 17967818236775188722
22485316 2 17967809449076824682
23402539 116 17560797723405949148
23557571 272 18059303045771889236
23559900 14 18343588404563051014
300161 21 18261104166990370799
4214541 1 18410857672252714013
42788 4 18060138734595544508
5104073 3 18335980956271284168
542803 24 18343864420266809788
57265010 4 18410016537800267859
573450 72 18333725823309788643
57483677 66 17748824116324808554
90127 26 17775001310512170064

>  <PUBCHEM_SHAPE_MULTIPOLES>  (1) 
313.44
15.64
1.59
1.16
13.21
0.18
0.04
-1.57
-1.46
-2.11
-0.41
-0.21
0.01
-0.04

>  <PUBCHEM_SHAPE_SELFOVERLAP>  (1) 
571.51

>  <PUBCHEM_SHAPE_VOLUME>  (1) 
204.7

>  <PUBCHEM_COORDINATE_TYPE>  (1) 
2
5
10

$$$$
