4577
     RDKit          3D

 21 21  0  0  1  0  0  0  0  0999 V2000
   -2.7900   -1.3240    0.0301 P   0  0  0  0  0  0  0  0  0  0  0  0
   -4.6172    0.9581   -0.2980 P   0  0  0  0  0  0  0  0  0  0  0  0
   -1.4590   -0.4052   -0.0200 O   0  0  0  0  0  0  0  0  0  0  0  0
   -3.9687   -0.3082    0.4688 O   0  0  0  0  0  0  0  0  0  0  0  0
   -2.5919   -2.2502    1.3417 O   0  0  0  0  0  0  0  0  0  0  0  0
   -3.0742   -2.0884   -1.2304 O   0  0  0  0  0  0  0  0  0  0  0  0
   -5.3522    0.2870   -1.5714 O   0  0  0  0  0  0  0  0  0  0  0  0
   -5.8431    1.3821    0.6662 O   0  0  0  0  0  0  0  0  0  0  0  0
    4.2525   -2.5016   -0.3926 O   0  0  0  0  0  0  0  0  0  0  0  0
    2.1619   -2.1018    0.1446 O   0  0  0  0  0  0  0  0  0  0  0  0
   -3.6486    2.0569   -0.6220 O   0  0  0  0  0  0  0  0  0  0  0  0
    1.2720    0.1981    0.4745 N   0  0  0  0  0  0  0  0  0  0  0  0
    3.3208   -1.7076   -0.1236 N   0  0  0  0  0  0  0  0  0  0  0  0
    0.1914    1.1218    0.7857 C   0  0  0  0  0  0  0  0  0  0  0  0
   -1.0860    0.3639    1.1104 C   0  0  0  0  0  0  0  0  0  0  0  0
    2.5556    0.6064    0.1768 C   0  0  0  0  0  0  0  0  0  0  0  0
    3.5885   -0.3098   -0.1224 C   0  0  0  0  0  0  0  0  0  0  0  0
    2.8760    1.9810    0.1634 C   0  0  0  0  0  0  0  0  0  0  0  0
    4.8787    0.1288   -0.4206 C   0  0  0  0  0  0  0  0  0  0  0  0
    4.1663    2.4195   -0.1346 C   0  0  0  0  0  0  0  0  0  0  0  0
    5.1675    1.4934   -0.4265 C   0  0  0  0  0  0  0  0  0  0  0  0
  1  3  1  0
  1  4  1  0
  1  5  1  0
  1  6  2  0
  2  4  1  0
  2  7  1  0
  2  8  1  0
  2 11  2  0
  3 15  1  0
  9 13  1  0
 10 13  2  0
 12 14  1  0
 12 16  1  0
 13 17  1  0
 14 15  1  0
 16 17  2  0
 16 18  1  0
 17 19  1  0
 18 20  2  0
 19 21  2  0
 20 21  1  0
M  CHG  2   9  -1  13   1
M  END
>  <PUBCHEM_COMPOUND_CID>  (1) 
4577

>  <PUBCHEM_CONFORMER_RMSD>  (1) 
0.8

>  <PUBCHEM_CONFORMER_DIVERSEORDER>  (1) 
1
74
22
29
78
10
30
67
84
80
57
52
38
46
63
14
33
9
94
47
81
79
90
50
5
41
62
77
17
53
3
39
35
64
7
91
32
61
20
75
51
44
27
8
93
69
15
37
76
11
68
71
2
28
40
21
83
23
89
85
16
24
12
59
66
4
86
34
88
26
42
19
36
55
45
87
25
6
18
48
58
31
72
43
73
49
92
60
13
65
70
82
54
56

>  <PUBCHEM_MMFF94_PARTIAL_CHARGES>  (1) 
29
1 1.51
10 -0.52
11 -0.7
12 -0.87
13 0.91
14 0.37
15 0.28
16 0.1
17 0.13
18 -0.15
19 -0.15
2 1.51
20 -0.15
21 -0.15
26 0.4
27 0.15
28 0.15
29 0.15
3 -0.55
30 0.15
31 0.5
32 0.5
33 0.5
4 -0.54
5 -0.77
6 -0.7
7 -0.77
8 -0.77
9 -0.52

>  <PUBCHEM_EFFECTIVE_ROTOR_COUNT>  (1) 
8

>  <PUBCHEM_PHARMACOPHORE_FEATURES>  (1) 
12
1 10 acceptor
1 11 acceptor
1 12 cation
1 12 donor
1 5 acceptor
1 6 acceptor
1 7 acceptor
1 8 acceptor
1 9 acceptor
1 9 anion
4 2 7 8 11 anion
6 16 17 18 19 20 21 rings

>  <PUBCHEM_HEAVY_ATOM_COUNT>  (1) 
21

>  <PUBCHEM_ATOM_DEF_STEREO_COUNT>  (1) 
0

>  <PUBCHEM_ATOM_UDEF_STEREO_COUNT>  (1) 
0

>  <PUBCHEM_BOND_DEF_STEREO_COUNT>  (1) 
0

>  <PUBCHEM_BOND_UDEF_STEREO_COUNT>  (1) 
0

>  <PUBCHEM_ISOTOPIC_ATOM_COUNT>  (1) 
0

>  <PUBCHEM_COMPONENT_COUNT>  (1) 
1

>  <PUBCHEM_CACTVS_TAUTO_COUNT>  (1) 
1

>  <PUBCHEM_CONFORMER_ID>  (1) 
000011E100000001

>  <PUBCHEM_MMFF94_ENERGY>  (1) 
6.7202

>  <PUBCHEM_FEATURE_SELFOVERLAP>  (1) 
61.027

>  <PUBCHEM_SHAPE_FINGERPRINT>  (1) 
11405975 8 18333446543177281018
11595378 159 16443334347766599333
12788726 201 17346045454881864305
14573314 32 18334575745924705469
14848160 23 12031783661237086965
15183329 4 18412260623478383389
15196674 1 18411984680182394034
16752209 62 16845580781193776832
17349148 13 16200152105782136229
17959699 21 18334295361774826776
18186145 218 17530677727639052482
20645477 56 18113617902429345801
20645477 70 18202289095540342398
21709351 56 18337954609919052268
221490 88 18410022048196128274
22289505 5 18408602548519833980
22393880 68 18200597011701384950
23402539 116 17967809500769627480
23402655 69 18412828010127564808
23557571 272 17604436326394931915
23559900 14 18411699907108422896
2871803 45 18341900697211345960
29717793 49 17632587028623569548
300161 21 18409443717489877880
3004659 81 18411419471561237826
3545911 37 18408326600601537240
4214541 1 18410857685211598929
4921388 177 17386010636556175195
5104073 3 18334575767257033410
5283173 99 18335980883056853633
543358 83 18412266103851125122
58051976 100 18341612654775894301
59755656 215 18409169892525141716
633830 44 18040149643082816258
8272917 22 18412831265876260206
960060 61 18131066043485983804
9709674 26 18408609188138223570

>  <PUBCHEM_SHAPE_MULTIPOLES>  (1) 
377.08
13.43
2.64
0.99
6.3
0.84
-0.05
-3.74
-2.99
-1.14
-0.12
1.06
0.1
0.24

>  <PUBCHEM_SHAPE_SELFOVERLAP>  (1) 
740.016

>  <PUBCHEM_SHAPE_VOLUME>  (1) 
226.1

>  <PUBCHEM_COORDINATE_TYPE>  (1) 
2
5
10

$$$$
