45771
     RDKit          3D

 15 14  0  0  1  0  0  0  0  0999 V2000
   -6.0842    1.2119    0.6719 F   0  0  0  0  0  0  0  0  0  0  0  0
    5.1061   -0.4422    0.1257 O   0  0  0  0  0  0  0  0  0  0  0  0
    3.9578    1.5248   -0.2553 O   0  0  0  0  0  0  0  0  0  0  0  0
   -2.3194   -0.6435   -0.0399 C   0  0  0  0  0  0  0  0  0  0  0  0
   -1.0601    0.2053   -0.2291 C   0  0  0  0  0  0  0  0  0  0  0  0
   -3.5856    0.1869   -0.2633 C   0  0  0  0  0  0  0  0  0  0  0  0
    0.2384   -0.5717    0.0056 C   0  0  0  0  0  0  0  0  0  0  0  0
   -4.8471   -0.6516   -0.0430 C   0  0  0  0  0  0  0  0  0  0  0  0
    1.4946    0.2930   -0.1105 C   0  0  0  0  0  0  0  0  0  0  0  0
   -6.1105    0.1853   -0.2236 C   0  0  0  0  0  0  0  0  0  0  0  0
    2.7553   -0.5329    0.1199 C   0  0  0  0  0  0  0  0  0  0  0  0
   -7.3683   -0.6247    0.0318 C   0  0  0  0  0  0  0  0  0  0  0  0
    3.9874    0.3210   -0.0353 C   0  0  0  0  0  0  0  0  0  0  0  0
    6.3495    0.2589    0.0222 C   0  0  0  0  0  0  0  0  0  0  0  0
    7.4860   -0.7206    0.2230 C   0  0  0  0  0  0  0  0  0  0  0  0
  1 10  1  0
  2 13  1  0
  2 14  1  0
  3 13  2  0
  4  5  1  0
  4  6  1  0
  5  7  1  0
  6  8  1  0
  7  9  1  0
  8 10  1  0
  9 11  1  0
 10 12  1  0
 11 13  1  0
 14 15  1  0
M  END
>  <PUBCHEM_COMPOUND_CID>  (1) 
45771

>  <PUBCHEM_CONFORMER_RMSD>  (1) 
1

>  <PUBCHEM_CONFORMER_DIVERSEORDER>  (1) 
1
168
203
93
65
58
210
33
164
98
251
135
174
25
196
31
197
74
116
146
204
79
160
69
159
212
10
130
51
115
50
47
137
85
27
70
9
37
59
222
192
234
200
163
242
172
114
34
89
202
53
145
54
105
11
104
41
13
139
152
216
12
220
14
237
228
144
29
90
161
91
67
123
57
225
8
4
7
73
167
128
223
44
66
162
68
188
28
153
211
40
215
245
218
227
151
189
113
16
243
250
221
21
63
165
92
103
132
19
127
208
80
75
99
64
108
45
246
35
230
97
49
56
84
193
134
142
71
136
150
106
83
186
166
233
209
154
179
141
112
249
39
30
38
207
111
22
82
55
143
17
36
171
219
241
226
62
133
176
235
107
48
42
247
140
147
157
214
2
126
120
81
195
96
32
244
185
199
206
52
156
131
3
101
86
76
43
169
177
100
20
217
72
149
201
148
26
23
183
194
110
60
15
232
155
238
170
190
231
213
129
239
184
77
5
109
175
178
102
121
87
6
24
181
173
205
248
118
122
182
46
78
198
236
229
187
88
124
180
18
61
191
125
138
119
117
95
158
240
224
94

>  <PUBCHEM_MMFF94_PARTIAL_CHARGES>  (1) 
7
1 -0.34
10 0.34
11 0.06
13 0.66
14 0.28
2 -0.43
3 -0.57

>  <PUBCHEM_EFFECTIVE_ROTOR_COUNT>  (1) 
10

>  <PUBCHEM_PHARMACOPHORE_FEATURES>  (1) 
1
1 3 acceptor

>  <PUBCHEM_HEAVY_ATOM_COUNT>  (1) 
15

>  <PUBCHEM_ATOM_DEF_STEREO_COUNT>  (1) 
0

>  <PUBCHEM_ATOM_UDEF_STEREO_COUNT>  (1) 
1

>  <PUBCHEM_BOND_DEF_STEREO_COUNT>  (1) 
0

>  <PUBCHEM_BOND_UDEF_STEREO_COUNT>  (1) 
0

>  <PUBCHEM_ISOTOPIC_ATOM_COUNT>  (1) 
0

>  <PUBCHEM_COMPONENT_COUNT>  (1) 
1

>  <PUBCHEM_CACTVS_TAUTO_COUNT>  (1) 
1

>  <PUBCHEM_CONFORMER_ID>  (1) 
0000B2CB00000001

>  <PUBCHEM_MMFF94_ENERGY>  (1) 
4.2932

>  <PUBCHEM_FEATURE_SELFOVERLAP>  (1) 
5.074

>  <PUBCHEM_SHAPE_FINGERPRINT>  (1) 
11315181 36 18335142012436631673
12091667 2 16370723730309268991
13167372 99 18341334418073156224
13533116 47 17095793339976893978
14123256 10 9295289443555892134
1420 363 16298106475392423883
14251764 18 18410573989472798710
14251764 46 18343019995785031791
14729087 3 16988843848259376721
17834076 25 18272932730483367831
20281389 69 18335136505328994965
20621476 8 18334574612058386695
21267235 1 18333734602734527564
21315763 28 18411981381989999253
220451 1 14634864266925583425
22224240 67 15719391758991587034
23035841 295 17967812751658788099
23402539 116 18060696213092855949
23521765 1 18341894095155528590
23536379 177 18341895182082895979
28498 318 18411981326466816926
33532 11 17749384841691289042
33684 2 18410009931940203871
3545911 37 17894910732643287794
42788 4 18411136944285592317
54446538 1 18413108359459282353
57583515 80 18202003231064824643
59755656 520 17822005436853142891
8209 1 18334012795907824566

>  <PUBCHEM_SHAPE_MULTIPOLES>  (1) 
289.68
22.65
0.98
0.64
1.18
0.16
0
-1.29
-1.52
-0.12
-0.03
0.18
0.02
-0.38

>  <PUBCHEM_SHAPE_SELFOVERLAP>  (1) 
532.726

>  <PUBCHEM_SHAPE_VOLUME>  (1) 
183.8

>  <PUBCHEM_COORDINATE_TYPE>  (1) 
2
5
10

$$$$
