45770
     RDKit          3D

 14 13  0  0  0  0  0  0  0  0999 V2000
   -4.6765    0.5181   -0.3537 N   0  0  0  0  0  0  0  0  0  0  0  0
    4.6670    0.5309    0.3440 N   0  0  0  0  0  0  0  0  0  0  0  0
   -0.5320   -0.6960    0.5499 C   0  0  0  0  0  0  0  0  0  0  0  0
    0.5453   -0.6936   -0.5360 C   0  0  0  0  0  0  0  0  0  0  0  0
   -1.9355   -0.6548   -0.0585 C   0  0  0  0  0  0  0  0  0  0  0  0
    1.9494   -0.7017    0.0724 C   0  0  0  0  0  0  0  0  0  0  0  0
   -3.0129   -0.6866    1.0299 C   0  0  0  0  0  0  0  0  0  0  0  0
    3.0255   -0.7286   -1.0173 C   0  0  0  0  0  0  0  0  0  0  0  0
   -4.4353   -0.6620    0.4675 C   0  0  0  0  0  0  0  0  0  0  0  0
    4.4481   -0.6663   -0.4585 C   0  0  0  0  0  0  0  0  0  0  0  0
   -4.5381    1.7382    0.4435 C   0  0  0  0  0  0  0  0  0  0  0  0
   -6.0061    0.4589   -0.9638 C   0  0  0  0  0  0  0  0  0  0  0  0
    4.5025    1.7356   -0.4715 C   0  0  0  0  0  0  0  0  0  0  0  0
    5.9986    0.5079    0.9522 C   0  0  0  0  0  0  0  0  0  0  0  0
  1  9  1  0
  1 11  1  0
  1 12  1  0
  2 10  1  0
  2 13  1  0
  2 14  1  0
  3  4  1  0
  3  5  1  0
  4  6  1  0
  5  7  1  0
  6  8  1  0
  7  9  1  0
  8 10  1  0
M  END
>  <PUBCHEM_COMPOUND_CID>  (1) 
45770

>  <PUBCHEM_CONFORMER_RMSD>  (1) 
0.8

>  <PUBCHEM_CONFORMER_DIVERSEORDER>  (1) 
15
54
134
148
45
9
127
81
123
75
141
136
1
145
122
93
111
4
33
87
78
41
133
2
151
139
53
89
35
74
51
68
20
17
50
47
48
156
88
13
92
85
155
158
110
72
108
71
152
149
14
60
65
137
22
26
77
144
100
154
49
73
31
28
140
12
126
146
30
153
114
55
142
11
116
119
67
129
63
27
42
6
103
58
3
143
21
16
118
24
5
96
109
157
52
135
91
19
132
56
7
94
70
105
69
90
38
117
8
101
84
64
79
29
83
147
131
106
82
66
124
138
86
39
23
61
46
10
121
36
62
25
150
120
112
113
44
80
102
37
98
43
59
57
32
34
97
40
104
125
76
115
95
18
130
99
107
128

>  <PUBCHEM_MMFF94_PARTIAL_CHARGES>  (1) 
8
1 -0.81
10 0.27
11 0.27
12 0.27
13 0.27
14 0.27
2 -0.81
9 0.27

>  <PUBCHEM_EFFECTIVE_ROTOR_COUNT>  (1) 
9

>  <PUBCHEM_PHARMACOPHORE_FEATURES>  (1) 
4
1 1 cation
1 2 cation
3 3 5 7 hydrophobe
3 4 6 8 hydrophobe

>  <PUBCHEM_HEAVY_ATOM_COUNT>  (1) 
14

>  <PUBCHEM_ATOM_DEF_STEREO_COUNT>  (1) 
0

>  <PUBCHEM_ATOM_UDEF_STEREO_COUNT>  (1) 
0

>  <PUBCHEM_BOND_DEF_STEREO_COUNT>  (1) 
0

>  <PUBCHEM_BOND_UDEF_STEREO_COUNT>  (1) 
0

>  <PUBCHEM_ISOTOPIC_ATOM_COUNT>  (1) 
0

>  <PUBCHEM_COMPONENT_COUNT>  (1) 
1

>  <PUBCHEM_CACTVS_TAUTO_COUNT>  (1) 
1

>  <PUBCHEM_CONFORMER_ID>  (1) 
0000B2CA0000000F

>  <PUBCHEM_MMFF94_ENERGY>  (1) 
15.3003

>  <PUBCHEM_FEATURE_SELFOVERLAP>  (1) 
20.297

>  <PUBCHEM_SHAPE_FINGERPRINT>  (1) 
10014705 185 18410858789081588383
10912923 1 15575289790435145354
11089746 13 18333444356970329214
11128504 68 14620794911989144362
117890 112 18410856546776103696
12596602 18 16081376288197154408
12714333 28 17917709102024004971
13288520 33 11887952160298982011
14123238 8 15770059423362571079
14123255 352 18334296470108127383
14123256 34 7853312942478959440
1420 363 11600002159084813159
14251718 22 16128371588495007799
14251732 14 13038903360646827074
14251764 18 15719400563316139526
14251764 38 18410018731806804965
14350574 20 10879990272191451250
14528608 73 16272209695530365194
15501527 24 16128654154409450239
16079462 125 18410282614575586125
17834072 33 16487251079920711031
19489759 90 18113618993340314267
20281389 69 17313103051299677077
20621476 21 10591757731577079005
20645477 56 17967253091682120039
20645477 70 17060069090430941558
20767249 213 18335420171297721551
21150785 3 16056591092846395509
2297311 6 10952053368420193179
23035841 295 10592045760683802621
23402539 116 17895190030346068039
23402655 69 17489591142730492782
23590187 156 18408040732543085255
23590187 90 18413105069534964909
2767999 5 18410008836190786941
2916195 48 18408884065870756457
300161 21 18411132537069469527
33382 64 9079123266970103564
42 15 12324241667601826690
42788 4 18411702084108195927
441001 317 18410858733478920977
465052 167 11386359336547943304
49783359 22 11386375859002183801
5104073 3 17895481323881612835
7062679 117 14836401458547134663

>  <PUBCHEM_SHAPE_MULTIPOLES>  (1) 
278.15
16.28
1.4
1.02
0.17
0.64
0
6.09
0.07
-0.04
0.01
0.01
-0.03
0.54

>  <PUBCHEM_SHAPE_SELFOVERLAP>  (1) 
500.342

>  <PUBCHEM_SHAPE_VOLUME>  (1) 
180.1

>  <PUBCHEM_COORDINATE_TYPE>  (1) 
2
5
10

$$$$
