45779
     RDKit          3D

 15 14  0  0  0  0  0  0  0  0999 V2000
    0.4134   -2.5827    0.3931 S   0  0  0  0  0  0  0  0  0  0  0  0
   -2.2945    0.4127   -0.2920 N   0  0  0  0  0  0  0  0  0  0  0  0
    3.2375    0.4037   -0.1226 N   0  0  0  0  0  0  0  0  0  0  0  0
   -1.3055   -0.4167    0.4386 C   0  0  0  0  0  0  0  0  0  0  0  0
   -3.4499   -0.4513   -0.8169 C   0  0  0  0  0  0  0  0  0  0  0  0
   -2.8856    1.4925    0.6253 C   0  0  0  0  0  0  0  0  0  0  0  0
   -1.6402    1.1128   -1.4915 C   0  0  0  0  0  0  0  0  0  0  0  0
   -0.7879   -1.5322   -0.4546 C   0  0  0  0  0  0  0  0  0  0  0  0
    2.1965   -0.6457   -0.4848 C   0  0  0  0  0  0  0  0  0  0  0  0
    1.6543   -1.3086    0.7710 C   0  0  0  0  0  0  0  0  0  0  0  0
   -4.1144   -1.1546    0.3463 C   0  0  0  0  0  0  0  0  0  0  0  0
   -1.7772    2.4096    1.0939 C   0  0  0  0  0  0  0  0  0  0  0  0
    4.3461   -0.2426    0.6956 C   0  0  0  0  0  0  0  0  0  0  0  0
    3.8254    0.9953   -1.3957 C   0  0  0  0  0  0  0  0  0  0  0  0
    2.5820    1.5079    0.6943 C   0  0  0  0  0  0  0  0  0  0  0  0
  1  8  1  0
  1 10  1  0
  2  4  1  0
  2  5  1  0
  2  6  1  0
  2  7  1  0
  3  9  1  0
  3 13  1  0
  3 14  1  0
  3 15  1  0
  4  8  1  0
  5 11  1  0
  6 12  1  0
  9 10  1  0
M  CHG  2   2   1   3   1
M  END
>  <PUBCHEM_COMPOUND_CID>  (1) 
45779

>  <PUBCHEM_CONFORMER_RMSD>  (1) 
0.8

>  <PUBCHEM_CONFORMER_DIVERSEORDER>  (1) 
2
22
36
8
40
43
45
7
1
9
25
24
26
41
37
34
38
17
21
18
10
32
29
6
20
13
44
14
39
4
23
27
19
31
16
11
12
3
28
33
15
30
35
42
5

>  <PUBCHEM_MMFF94_PARTIAL_CHARGES>  (1) 
13
1 -0.46
10 0.23
13 0.5
14 0.5
15 0.5
2 -1.01
3 -1.01
4 0.5
5 0.5
6 0.5
7 0.5
8 0.23
9 0.5

>  <PUBCHEM_EFFECTIVE_ROTOR_COUNT>  (1) 
8

>  <PUBCHEM_PHARMACOPHORE_FEATURES>  (1) 
2
1 2 cation
1 3 cation

>  <PUBCHEM_HEAVY_ATOM_COUNT>  (1) 
15

>  <PUBCHEM_ATOM_DEF_STEREO_COUNT>  (1) 
0

>  <PUBCHEM_ATOM_UDEF_STEREO_COUNT>  (1) 
0

>  <PUBCHEM_BOND_DEF_STEREO_COUNT>  (1) 
0

>  <PUBCHEM_BOND_UDEF_STEREO_COUNT>  (1) 
0

>  <PUBCHEM_ISOTOPIC_ATOM_COUNT>  (1) 
0

>  <PUBCHEM_COMPONENT_COUNT>  (1) 
1

>  <PUBCHEM_CACTVS_TAUTO_COUNT>  (1) 
1

>  <PUBCHEM_CONFORMER_ID>  (1) 
0000B2D300000002

>  <PUBCHEM_MMFF94_ENERGY>  (1) 
57.5762

>  <PUBCHEM_FEATURE_SELFOVERLAP>  (1) 
10.149

>  <PUBCHEM_SHAPE_FINGERPRINT>  (1) 
10498660 4 18341049635997903817
11715629 250 17774996882311229784
12173636 292 18129378207543898421
12932764 1 16414900972919476839
13618510 140 18408887317466889500
13764800 53 18188497993917740594
14787075 74 18189899910409764755
15342168 16 18188505579051459901
15775835 57 18335422335512832828
17802600 8 18335410279660945718
18186145 218 18338238142005678014
19107657 47 17095512981507218934
19107657 9 18336273370571862628
20449540 30 18336540522080613045
20539926 19 18339367366296173064
20671657 1 17837218073454886035
21069387 34 13118290316887511211
21524375 3 18334853922535727530
22485316 2 9655575206085070302
22959321 54 18411416254219094720
23402539 116 18272076227883809566
23419403 2 16321136042910476406
23557571 272 17918280860902550951
25610 137 18411700989508675051
3286 77 18412536626740436524
537710 114 18335422421602076469
58051976 378 18343858909681844639
6333272 397 18260551168550241726
7832392 63 17983017739034859064
9882013 296 18040721376423673159

>  <PUBCHEM_SHAPE_MULTIPOLES>  (1) 
302.58
7.77
2.44
1.22
2.89
0.17
0.26
-1.29
0.32
-0.65
-0.62
0.14
-0.45
-0.64

>  <PUBCHEM_SHAPE_SELFOVERLAP>  (1) 
538.674

>  <PUBCHEM_SHAPE_VOLUME>  (1) 
203.1

>  <PUBCHEM_COORDINATE_TYPE>  (1) 
2
5
10

$$$$
