45781
     RDKit          3D

 12 12  0  0  0  0  0  0  0  0999 V2000
   -1.0357    2.1894    0.0121 O   0  0  0  0  0  0  0  0  0  0  0  0
    3.0732   -1.4870   -0.0025 O   0  0  0  0  0  0  0  0  0  0  0  0
   -1.6800   -0.5686   -0.0048 N   0  0  0  0  0  0  0  0  0  0  0  0
   -0.2329   -0.0699   -0.0004 C   0  0  0  0  0  0  0  0  0  0  0  0
   -1.6730   -2.0947   -0.0118 C   0  0  0  0  0  0  0  0  0  0  0  0
   -2.3838   -0.0231   -1.2441 C   0  0  0  0  0  0  0  0  0  0  0  0
   -2.4553   -0.1022    1.2257 C   0  0  0  0  0  0  0  0  0  0  0  0
   -0.0301    1.2696    0.0071 C   0  0  0  0  0  0  0  0  0  0  0  0
    0.7319   -1.0230   -0.0035 C   0  0  0  0  0  0  0  0  0  0  0  0
    2.0556   -0.5832    0.0014 C   0  0  0  0  0  0  0  0  0  0  0  0
    1.2936    1.7095    0.0118 C   0  0  0  0  0  0  0  0  0  0  0  0
    2.3365    0.7831    0.0089 C   0  0  0  0  0  0  0  0  0  0  0  0
  1  8  1  0
  2 10  1  0
  3  4  1  0
  3  5  1  0
  3  6  1  0
  3  7  1  0
  4  8  2  0
  4  9  1  0
  8 11  1  0
  9 10  2  0
 10 12  1  0
 11 12  2  0
M  CHG  1   3   1
M  END
>  <PUBCHEM_COMPOUND_CID>  (1) 
45781

>  <PUBCHEM_CONFORMER_RMSD>  (1) 
0.4

>  <PUBCHEM_CONFORMER_DIVERSEORDER>  (1) 
1
2

>  <PUBCHEM_MMFF94_PARTIAL_CHARGES>  (1) 
17
1 -0.53
10 0.08
11 -0.15
12 -0.15
2 -0.53
22 0.15
23 0.15
24 0.15
25 0.45
26 0.45
3 -0.87
4 0.36
5 0.5
6 0.5
7 0.5
8 0.08
9 -0.15

>  <PUBCHEM_EFFECTIVE_ROTOR_COUNT>  (1) 
1

>  <PUBCHEM_PHARMACOPHORE_FEATURES>  (1) 
4
1 1 donor
1 2 donor
1 3 cation
6 4 8 9 10 11 12 rings

>  <PUBCHEM_HEAVY_ATOM_COUNT>  (1) 
12

>  <PUBCHEM_ATOM_DEF_STEREO_COUNT>  (1) 
0

>  <PUBCHEM_ATOM_UDEF_STEREO_COUNT>  (1) 
0

>  <PUBCHEM_BOND_DEF_STEREO_COUNT>  (1) 
0

>  <PUBCHEM_BOND_UDEF_STEREO_COUNT>  (1) 
0

>  <PUBCHEM_ISOTOPIC_ATOM_COUNT>  (1) 
0

>  <PUBCHEM_COMPONENT_COUNT>  (1) 
1

>  <PUBCHEM_CACTVS_TAUTO_COUNT>  (1) 
7

>  <PUBCHEM_CONFORMER_ID>  (1) 
0000B2D500000001

>  <PUBCHEM_MMFF94_ENERGY>  (1) 
57.4726

>  <PUBCHEM_FEATURE_SELFOVERLAP>  (1) 
20.297

>  <PUBCHEM_SHAPE_FINGERPRINT>  (1) 
11206711 2 18264769865853721756
12423570 1 16108926369112880419
12524768 44 18413393145934626710
12932764 1 17894909654664603282
16945 1 18411136956833039936
17844478 74 17677061238621144137
20201158 50 18335690693554056430
20871998 184 18126568907916158710
21040471 1 17546164563949744960
23552423 10 18261677085668277326
23559900 14 17982450392164535750
241688 4 18338232773016710481
25 1 17683225989996971709
2748010 2 18266739271493939014
29004967 10 18262801890205628168
369184 2 18410292531807962491
5084963 1 17988350494936242242
528886 8 18340768255378104857
63268167 104 18340205309746089513

>  <PUBCHEM_SHAPE_MULTIPOLES>  (1) 
230.23
3.83
2.03
0.87
0.51
0.17
-0.01
-1.09
0.03
0.23
0
-0.66
0.04
0.02

>  <PUBCHEM_SHAPE_SELFOVERLAP>  (1) 
475.053

>  <PUBCHEM_SHAPE_VOLUME>  (1) 
134.7

>  <PUBCHEM_COORDINATE_TYPE>  (1) 
2
5
10

$$$$
