45801
     RDKit          3D

 14 14  0  0  0  0  0  0  0  0999 V2000
    2.1093    1.8064    0.4357 O   0  0  0  0  0  0  0  0  0  0  0  0
   -2.4469    0.2424   -0.0172 N   0  0  0  0  0  0  0  0  0  0  0  0
   -0.9434   -0.0397    0.0331 C   0  0  0  0  0  0  0  0  0  0  0  0
   -3.1283   -0.5261    1.1114 C   0  0  0  0  0  0  0  0  0  0  0  0
   -2.9840   -0.1987   -1.3759 C   0  0  0  0  0  0  0  0  0  0  0  0
   -2.7623    1.7262    0.1594 C   0  0  0  0  0  0  0  0  0  0  0  0
   -0.5568   -1.3305   -0.1056 C   0  0  0  0  0  0  0  0  0  0  0  0
   -0.1255    1.0252    0.2124 C   0  0  0  0  0  0  0  0  0  0  0  0
    0.8134   -1.5875   -0.0596 C   0  0  0  0  0  0  0  0  0  0  0  0
    1.7142   -0.5381    0.1225 C   0  0  0  0  0  0  0  0  0  0  0  0
    1.2447    0.7682    0.2586 C   0  0  0  0  0  0  0  0  0  0  0  0
    1.2911   -2.9952   -0.2083 C   0  0  0  0  0  0  0  0  0  0  0  0
    3.1840   -0.8087    0.1726 C   0  0  0  0  0  0  0  0  0  0  0  0
    2.5905    2.4561   -0.7391 C   0  0  0  0  0  0  0  0  0  0  0  0
  1 11  1  0
  1 14  1  0
  2  3  1  0
  2  4  1  0
  2  5  1  0
  2  6  1  0
  3  7  2  0
  3  8  1  0
  7  9  1  0
  8 11  2  0
  9 10  2  0
  9 12  1  0
 10 11  1  0
 10 13  1  0
M  CHG  1   2   1
M  END
>  <PUBCHEM_COMPOUND_CID>  (1) 
45801

>  <PUBCHEM_CONFORMER_RMSD>  (1) 
0.6

>  <PUBCHEM_CONFORMER_DIVERSEORDER>  (1) 
1
2

>  <PUBCHEM_MMFF94_PARTIAL_CHARGES>  (1) 
16
1 -0.36
10 -0.14
11 0.08
12 0.14
13 0.14
14 0.28
2 -0.87
24 0.15
25 0.15
3 0.36
4 0.5
5 0.5
6 0.5
7 -0.15
8 -0.15
9 -0.14

>  <PUBCHEM_EFFECTIVE_ROTOR_COUNT>  (1) 
2

>  <PUBCHEM_PHARMACOPHORE_FEATURES>  (1) 
3
1 1 acceptor
1 2 cation
6 3 7 8 9 10 11 rings

>  <PUBCHEM_HEAVY_ATOM_COUNT>  (1) 
14

>  <PUBCHEM_ATOM_DEF_STEREO_COUNT>  (1) 
0

>  <PUBCHEM_ATOM_UDEF_STEREO_COUNT>  (1) 
0

>  <PUBCHEM_BOND_DEF_STEREO_COUNT>  (1) 
0

>  <PUBCHEM_BOND_UDEF_STEREO_COUNT>  (1) 
0

>  <PUBCHEM_ISOTOPIC_ATOM_COUNT>  (1) 
0

>  <PUBCHEM_COMPONENT_COUNT>  (1) 
1

>  <PUBCHEM_CACTVS_TAUTO_COUNT>  (1) 
1

>  <PUBCHEM_CONFORMER_ID>  (1) 
0000B2E900000001

>  <PUBCHEM_MMFF94_ENERGY>  (1) 
69.7726

>  <PUBCHEM_FEATURE_SELFOVERLAP>  (1) 
15.223

>  <PUBCHEM_SHAPE_FINGERPRINT>  (1) 
1 1 18411418427493710462
10608611 8 18334294232546632917
10967382 1 18123188996002584706
11471102 20 18338794503357662015
11471102 22 18337127686801225659
12932764 1 17703790357650008481
13140716 1 18339641256160426098
13380535 21 18121511399288984658
13380535 76 18268421520316321642
13380536 305 18410865373413840990
14648413 74 18263928752375153121
15219456 202 18259988201606608585
15309172 13 18194692681272902417
15490181 8 18410572907130789499
15775835 57 18130511941355193729
16945 1 18411418380054021138
17990270 104 18266176136830621731
18186145 218 18342465880104701684
193761 8 18051128391704596994
19973954 147 18337956688540701025
20201158 50 18336262328068630235
20645477 70 18409160018063109719
21160774 45 17833266798248189415
21501502 16 18267586982021480259
21524375 3 18117554248372056080
2334 1 18123466343721705530
23388829 49 18200021842249540738
23402539 116 18199178495947505182
23402655 69 18053648197773192549
23552423 10 18341046333257236831
241688 4 17618789054978999450
2748010 2 18265899244678922286
3071541 158 18263647264618977196
458136 41 18194428746694695779
5084963 1 18060128847480589379
63268167 104 18198060274850960787
7364860 26 18341896247166109506
7832392 63 18054506907215625577
81228 2 17115795414696099466

>  <PUBCHEM_SHAPE_MULTIPOLES>  (1) 
277.26
4.98
2.65
0.9
1.9
0.21
-0.12
-1.07
-0.07
-2.09
-0.32
0.57
-0.01
-0.17

>  <PUBCHEM_SHAPE_SELFOVERLAP>  (1) 
563.873

>  <PUBCHEM_SHAPE_VOLUME>  (1) 
166.7

>  <PUBCHEM_COORDINATE_TYPE>  (1) 
2
5
10

$$$$
