45814
     RDKit          3D

 12 12  0  0  0  0  0  0  0  0999 V2000
    1.0811    0.1521    0.3565 N   0  0  0  0  0  0  0  0  0  0  0  0
    1.5744    1.2567   -0.5739 C   0  0  0  0  0  0  0  0  0  0  0  0
    1.8296   -1.1326    0.0073 C   0  0  0  0  0  0  0  0  0  0  0  0
   -0.4328    0.0042    0.1860 C   0  0  0  0  0  0  0  0  0  0  0  0
    1.3796    0.4953    1.8131 C   0  0  0  0  0  0  0  0  0  0  0  0
    1.2753    0.8722   -2.0064 C   0  0  0  0  0  0  0  0  0  0  0  0
    3.3162   -0.9035    0.1715 C   0  0  0  0  0  0  0  0  0  0  0  0
   -1.1909    1.0879    0.4790 C   0  0  0  0  0  0  0  0  0  0  0  0
   -0.8869   -1.1974   -0.2433 C   0  0  0  0  0  0  0  0  0  0  0  0
   -2.5706    0.9534    0.3238 C   0  0  0  0  0  0  0  0  0  0  0  0
   -2.2665   -1.3319   -0.3986 C   0  0  0  0  0  0  0  0  0  0  0  0
   -3.1084   -0.2565   -0.1150 C   0  0  0  0  0  0  0  0  0  0  0  0
  1  2  1  0
  1  3  1  0
  1  4  1  0
  1  5  1  0
  2  6  1  0
  3  7  1  0
  4  8  2  0
  4  9  1  0
  8 10  1  0
  9 11  2  0
 10 12  2  0
 11 12  1  0
M  CHG  1   1   1
M  END
>  <PUBCHEM_COMPOUND_CID>  (1) 
45814

>  <PUBCHEM_CONFORMER_RMSD>  (1) 
0.6

>  <PUBCHEM_CONFORMER_DIVERSEORDER>  (1) 
1
3
4
5
2
6

>  <PUBCHEM_MMFF94_PARTIAL_CHARGES>  (1) 
15
1 -0.87
10 -0.15
11 -0.15
12 -0.15
2 0.5
26 0.15
27 0.15
28 0.15
29 0.15
3 0.5
30 0.15
4 0.36
5 0.5
8 -0.15
9 -0.15

>  <PUBCHEM_EFFECTIVE_ROTOR_COUNT>  (1) 
3

>  <PUBCHEM_PHARMACOPHORE_FEATURES>  (1) 
2
1 1 cation
6 4 8 9 10 11 12 rings

>  <PUBCHEM_HEAVY_ATOM_COUNT>  (1) 
12

>  <PUBCHEM_ATOM_DEF_STEREO_COUNT>  (1) 
0

>  <PUBCHEM_ATOM_UDEF_STEREO_COUNT>  (1) 
0

>  <PUBCHEM_BOND_DEF_STEREO_COUNT>  (1) 
0

>  <PUBCHEM_BOND_UDEF_STEREO_COUNT>  (1) 
0

>  <PUBCHEM_ISOTOPIC_ATOM_COUNT>  (1) 
0

>  <PUBCHEM_COMPONENT_COUNT>  (1) 
1

>  <PUBCHEM_CACTVS_TAUTO_COUNT>  (1) 
1

>  <PUBCHEM_CONFORMER_ID>  (1) 
0000B2F600000001

>  <PUBCHEM_MMFF94_ENERGY>  (1) 
56.9619

>  <PUBCHEM_FEATURE_SELFOVERLAP>  (1) 
10.148

>  <PUBCHEM_SHAPE_FINGERPRINT>  (1) 
10353120 184 16805612404190423836
11769659 78 18340196423538213066
12326174 3 17022894683794256664
12423570 1 14736830411237428836
12932764 1 17702948161791883787
14128692 85 18411142428663560118
14993402 34 18114182995138853374
15207287 21 16917057833208322639
15219459 52 18187091662653042358
15775835 57 18272656714325629609
16945 1 18268708307745675290
18186145 218 17023173955837866319
20201158 50 17060619971230419559
20361792 2 17386272212843648066
20645464 45 17132114641322100291
20653085 51 17313098653506243685
207724 885 18041282062781668970
21040471 1 18343865494161510713
21524375 3 16592542701630830316
232386 152 18201721755951041934
23402539 116 17202467936729468197
23552423 10 18334855043395266339
23559900 14 17845655825261899734
2748010 2 18129934702077045195
29004967 10 15410902850695727345
3248919 1 18114455773091593667
369184 2 17632285796512155267
5084963 1 18408602535328450707
528886 8 18186523189661698778
63268167 104 17749115525223310404
7364860 26 18340767164768018176
8030462 33 18340208599933689871

>  <PUBCHEM_SHAPE_MULTIPOLES>  (1) 
241.97
4.44
1.47
1.32
0.53
0.11
-0.16
0.88
0.06
0.01
-0.18
-0.8
-0.47
-0.48

>  <PUBCHEM_SHAPE_SELFOVERLAP>  (1) 
487.128

>  <PUBCHEM_SHAPE_VOLUME>  (1) 
142.6

>  <PUBCHEM_COORDINATE_TYPE>  (1) 
2
5
10

$$$$
