45823
     RDKit          3D

 19 21  0  0  1  0  0  0  0  0999 V2000
   -0.2488    2.5363   -0.1668 O   0  0  0  0  0  0  0  0  0  0  0  0
   -4.0395   -0.6788   -0.6968 N   0  0  0  0  0  0  0  0  0  0  0  0
   -1.5328    0.6023   -0.3390 N   0  0  0  0  0  0  0  0  0  0  0  0
   -2.9846   -1.4282    0.0047 C   0  0  0  0  0  0  0  0  0  0  0  0
   -4.0248    0.6099    0.0154 C   0  0  0  0  0  0  0  0  0  0  0  0
   -3.2045   -1.1207    1.4906 C   0  0  0  0  0  0  0  0  0  0  0  0
   -3.8939    0.2429    1.4976 C   0  0  0  0  0  0  0  0  0  0  0  0
   -1.6350   -0.8642   -0.4791 C   0  0  0  0  0  0  0  0  0  0  0  0
   -2.7818    1.3684   -0.4783 C   0  0  0  0  0  0  0  0  0  0  0  0
   -5.3395   -1.3421   -0.6419 C   0  0  0  0  0  0  0  0  0  0  0  0
   -0.3328    1.3127   -0.2836 C   0  0  0  0  0  0  0  0  0  0  0  0
    0.9236    0.5419   -0.3829 C   0  0  0  0  0  0  0  0  0  0  0  0
    2.0352    0.9547    0.1961 C   0  0  0  0  0  0  0  0  0  0  0  0
    3.3133    0.2263    0.1175 C   0  0  0  0  0  0  0  0  0  0  0  0
    3.3085   -1.1187   -0.2155 C   0  0  0  0  0  0  0  0  0  0  0  0
    4.4959    0.9000    0.3780 C   0  0  0  0  0  0  0  0  0  0  0  0
    4.5187   -1.8086   -0.2897 C   0  0  0  0  0  0  0  0  0  0  0  0
    5.7058    0.2101    0.3038 C   0  0  0  0  0  0  0  0  0  0  0  0
    5.7171   -1.1442   -0.0301 C   0  0  0  0  0  0  0  0  0  0  0  0
  1 11  2  0
  2  4  1  0
  2  5  1  0
  2 10  1  0
  3  8  1  0
  3  9  1  0
  3 11  1  0
  4  6  1  0
  4  8  1  0
  5  7  1  0
  5  9  1  0
  6  7  1  0
 11 12  1  0
 12 13  2  0
 13 14  1  0
 14 15  2  0
 14 16  1  0
 15 17  1  0
 16 18  2  0
 17 19  2  0
 18 19  1  0
M  END
>  <PUBCHEM_COMPOUND_CID>  (1) 
45823

>  <PUBCHEM_CONFORMER_RMSD>  (1) 
0.6

>  <PUBCHEM_CONFORMER_DIVERSEORDER>  (1) 
1
6
11
12
13
14
8
7
5
3
15
4
9
2
10

>  <PUBCHEM_MMFF94_PARTIAL_CHARGES>  (1) 
24
1 -0.57
10 0.27
11 0.62
12 -0.14
13 -0.18
14 0.03
15 -0.15
16 -0.15
17 -0.15
18 -0.15
19 -0.15
2 -0.81
3 -0.66
33 0.15
34 0.15
35 0.15
36 0.15
37 0.15
38 0.15
39 0.15
4 0.27
5 0.27
8 0.3
9 0.3

>  <PUBCHEM_EFFECTIVE_ROTOR_COUNT>  (1) 
4.2

>  <PUBCHEM_PHARMACOPHORE_FEATURES>  (1) 
4
1 1 acceptor
1 2 cation
6 14 15 16 17 18 19 rings
8 2 3 4 5 6 7 8 9 rings

>  <PUBCHEM_HEAVY_ATOM_COUNT>  (1) 
19

>  <PUBCHEM_ATOM_DEF_STEREO_COUNT>  (1) 
0

>  <PUBCHEM_ATOM_UDEF_STEREO_COUNT>  (1) 
0

>  <PUBCHEM_BOND_DEF_STEREO_COUNT>  (1) 
0

>  <PUBCHEM_BOND_UDEF_STEREO_COUNT>  (1) 
1

>  <PUBCHEM_ISOTOPIC_ATOM_COUNT>  (1) 
0

>  <PUBCHEM_COMPONENT_COUNT>  (1) 
1

>  <PUBCHEM_CACTVS_TAUTO_COUNT>  (1) 
1

>  <PUBCHEM_CONFORMER_ID>  (1) 
0000B2FF00000001

>  <PUBCHEM_MMFF94_ENERGY>  (1) 
54.3941

>  <PUBCHEM_FEATURE_SELFOVERLAP>  (1) 
20.297

>  <PUBCHEM_SHAPE_FINGERPRINT>  (1) 
10803635 8 16370718236365758459
11128504 68 13767934537307592910
11315181 36 18273214209486273969
11370993 144 17987808392864787256
11552529 35 17488735825874451574
12107183 9 17482847666393081434
12236239 1 17917992797704581407
12507557 5 14549017684778950723
12516196 113 18342736342653409504
12596602 18 16917348160345076634
12633257 1 16917073282110786074
12670546 177 12396304776504181672
13167823 11 18412542098549851214
13288520 33 18411417328372303941
13533116 47 18057882640141598033
13544653 18 18408888442664204460
13551218 46 18342460313679711407
13583140 156 15123504770702930863
13685833 64 18335142024767924947
13914758 101 17917993842014695625
14251764 18 18201725059250202457
14252887 29 17846222125194528790
14386348 63 18334294275300932218
15188451 53 16988269976314917687
15196674 1 18411980239365239806
15352361 1 18410009948777090814
15788980 27 18261112967494417988
15880784 105 18060419131546175978
17844677 252 18412830174992068212
17857418 61 18413102874949302942
17870717 6 17313104159643949187
1813 80 17748829613882915444
19141452 34 18343021112012500047
193927 3 18041008344679217280
200 152 18201716258202803905
20261772 1 18060413634367903966
20281475 54 18410861004952345452
20325693 3 15647051577949780963
20374829 77 18334571330719190114
20403669 9 18410857646435671566
20432913 95 18343022190049096418
20645477 70 18261385710628555668
21267235 1 18409735075001746247
21401589 2 15337460890737192835
21403212 168 18266470819760345505
21673915 165 18413669127938536998
23402539 116 18341326730118281933
23402655 69 11314027976593256360
23522609 53 18125191332054613176
23557571 272 17822000983261889292
23559900 14 18335692892567262565
239999 70 18342741798237854206
26918003 58 18186800283819149272
2871803 45 18187361009190689802
3004659 81 18113334211375844756
314173 85 18334579040222708508
4214541 1 18411417267900292532
4325135 7 18260268581873191220
4921388 177 16081381768680361019
5104073 3 18270112402097245424
542803 24 15697999643660815896
559249 180 18188200996955147439
5924683 9 17988920115475216423
59682541 35 18270671083069172978
9709674 26 18261395610591476370

>  <PUBCHEM_SHAPE_MULTIPOLES>  (1) 
375.18
13.57
1.86
0.96
9.29
0.23
0.31
-5.11
0.73
-0.02
-0.17
-1.03
-0.12
0.25

>  <PUBCHEM_SHAPE_SELFOVERLAP>  (1) 
800.089

>  <PUBCHEM_SHAPE_VOLUME>  (1) 
207.7

>  <PUBCHEM_COORDINATE_TYPE>  (1) 
2
5
10

$$$$
