45822
     RDKit          3D

 15 16  0  0  1  0  0  0  0  0999 V2000
    5.1448    1.5860   -0.0594 Cl  0  0  0  0  0  0  0  0  0  0  0  0
   -2.4694    1.0744   -1.4645 O   0  0  0  0  0  0  0  0  0  0  0  0
   -1.2293   -0.3800   -0.1742 N   0  0  0  0  0  0  0  0  0  0  0  0
    1.5608   -0.1911    0.3781 N   0  0  0  0  0  0  0  0  0  0  0  0
   -0.2868   -0.8079   -1.1919 C   0  0  0  0  0  0  0  0  0  0  0  0
   -0.7268   -0.9283    1.0767 C   0  0  0  0  0  0  0  0  0  0  0  0
   -0.0844   -2.2881   -0.8394 C   0  0  0  0  0  0  0  0  0  0  0  0
   -0.3754   -2.3685    0.6736 C   0  0  0  0  0  0  0  0  0  0  0  0
    1.0039    0.0148   -0.9753 C   0  0  0  0  0  0  0  0  0  0  0  0
    0.5360   -0.1134    1.4406 C   0  0  0  0  0  0  0  0  0  0  0  0
   -2.2466    0.5255   -0.3842 C   0  0  0  0  0  0  0  0  0  0  0  0
    2.6737    0.7142    0.6416 C   0  0  0  0  0  0  0  0  0  0  0  0
   -3.1149    0.8177    0.8116 C   0  0  0  0  0  0  0  0  0  0  0  0
    3.7743    0.4983   -0.3855 C   0  0  0  0  0  0  0  0  0  0  0  0
   -4.1599    1.8464    0.4522 C   0  0  0  0  0  0  0  0  0  0  0  0
  1 14  1  0
  2 11  2  0
  3  5  1  0
  3  6  1  0
  3 11  1  0
  4  9  1  0
  4 10  1  0
  4 12  1  0
  5  7  1  0
  5  9  1  0
  6  8  1  0
  6 10  1  0
  7  8  1  0
 11 13  1  0
 12 14  1  0
 13 15  1  0
M  END
>  <PUBCHEM_COMPOUND_CID>  (1) 
45822

>  <PUBCHEM_CONFORMER_RMSD>  (1) 
0.6

>  <PUBCHEM_CONFORMER_DIVERSEORDER>  (1) 
1
29
24
27
20
30
18
34
21
26
17
12
32
31
13
22
33
10
19
35
28
7
16
11
6
5
15
25
14
4
3
23
9
2
8

>  <PUBCHEM_MMFF94_PARTIAL_CHARGES>  (1) 
12
1 -0.29
10 0.27
11 0.57
12 0.27
13 0.06
14 0.29
2 -0.57
3 -0.66
4 -0.81
5 0.3
6 0.3
9 0.27

>  <PUBCHEM_EFFECTIVE_ROTOR_COUNT>  (1) 
5.2

>  <PUBCHEM_PHARMACOPHORE_FEATURES>  (1) 
4
1 15 hydrophobe
1 2 acceptor
1 4 cation
8 3 4 5 6 7 8 9 10 rings

>  <PUBCHEM_HEAVY_ATOM_COUNT>  (1) 
15

>  <PUBCHEM_ATOM_DEF_STEREO_COUNT>  (1) 
0

>  <PUBCHEM_ATOM_UDEF_STEREO_COUNT>  (1) 
2

>  <PUBCHEM_BOND_DEF_STEREO_COUNT>  (1) 
0

>  <PUBCHEM_BOND_UDEF_STEREO_COUNT>  (1) 
0

>  <PUBCHEM_ISOTOPIC_ATOM_COUNT>  (1) 
0

>  <PUBCHEM_COMPONENT_COUNT>  (1) 
1

>  <PUBCHEM_CACTVS_TAUTO_COUNT>  (1) 
1

>  <PUBCHEM_CONFORMER_ID>  (1) 
0000B2FE00000001

>  <PUBCHEM_MMFF94_ENERGY>  (1) 
37.0856

>  <PUBCHEM_FEATURE_SELFOVERLAP>  (1) 
20.297

>  <PUBCHEM_SHAPE_FINGERPRINT>  (1) 
10726558 24 18131355193637700758
10922049 32 18412270518824466643
12138202 97 18131350855794857894
122479 349 18410296947203310216
12251169 10 15502382230990727377
12423570 1 12546905150290779715
12491281 212 18341887511033863398
12500047 106 18200593713414434198
12892183 10 16226044448969813328
13024252 1 17241597510767316498
13214271 11 14635136941572274566
13571099 52 18338527343607273087
14943859 89 18412547612960785824
15375462 478 15791738494507128237
15534591 1 18411696612324895214
15775835 57 18409164389944119601
16945 1 17977654325694379107
1741750 31 18411697720848515976
17834072 14 13039178204726886794
1813 80 16981529694652997823
18186145 218 18343301423052833180
18785283 64 18188494549733848754
200 152 11815902258162495776
20645477 56 18336267941975968896
20653085 51 17774999141305817520
20671657 53 12175618499121395888
20820808 20 17916587527302255827
21061003 4 12901540278194221382
21524375 3 18409725166633344695
23402539 116 18131346410451010692
23419403 2 17766044611246297843
23500284 214 18410014355498159960
25 1 18060140903379955720
276578 36 18261393299893789930
305870 269 18338235947145364891
347723 3 14836129827450706945
4175511 318 18271249438500773500
633830 44 18270683052040655229
81228 2 17976808015273507011
81539 233 18339642209716654571

>  <PUBCHEM_SHAPE_MULTIPOLES>  (1) 
294.73
7
2.08
1.3
5.99
0.92
0.03
-7.09
-0.03
-0.81
-0.02
-0.34
0.15
0

>  <PUBCHEM_SHAPE_SELFOVERLAP>  (1) 
588.97

>  <PUBCHEM_SHAPE_VOLUME>  (1) 
176.9

>  <PUBCHEM_COORDINATE_TYPE>  (1) 
2
5
10

$$$$
