45829
     RDKit          3D

 19 21  0  0  1  0  0  0  0  0999 V2000
   -3.8843   -0.7521    1.4203 O   0  0  0  0  0  0  0  0  0  0  0  0
   -2.3159    0.4378    0.2195 N   0  0  0  0  0  0  0  0  0  0  0  0
    0.3275   -0.4161   -0.4203 N   0  0  0  0  0  0  0  0  0  0  0  0
   -1.2899    0.5202    1.2430 C   0  0  0  0  0  0  0  0  0  0  0  0
   -1.6943    0.9422   -0.9959 C   0  0  0  0  0  0  0  0  0  0  0  0
   -0.7126    1.9227    1.0061 C   0  0  0  0  0  0  0  0  0  0  0  0
   -0.9800    2.2036   -0.4872 C   0  0  0  0  0  0  0  0  0  0  0  0
   -0.2575   -0.5859    0.9265 C   0  0  0  0  0  0  0  0  0  0  0  0
   -0.6875   -0.1366   -1.4578 C   0  0  0  0  0  0  0  0  0  0  0  0
    1.1667   -1.5519   -0.7855 C   0  0  0  0  0  0  0  0  0  0  0  0
    3.1878   -0.4297    0.2049 C   0  0  0  0  0  0  0  0  0  0  0  0
    2.3328   -1.6847    0.1908 C   0  0  0  0  0  0  0  0  0  0  0  0
    4.3901   -0.5314    1.1384 C   0  0  0  0  0  0  0  0  0  0  0  0
    3.8443   -0.1340   -1.1398 C   0  0  0  0  0  0  0  0  0  0  0  0
   -3.5319   -0.1894    0.3824 C   0  0  0  0  0  0  0  0  0  0  0  0
    5.3211    0.5814    0.6672 C   0  0  0  0  0  0  0  0  0  0  0  0
    4.9615    0.8456   -0.7960 C   0  0  0  0  0  0  0  0  0  0  0  0
   -4.4520   -0.1453   -0.8096 C   0  0  0  0  0  0  0  0  0  0  0  0
   -5.7261   -0.8966   -0.5069 C   0  0  0  0  0  0  0  0  0  0  0  0
  1 15  2  0
  2  4  1  0
  2  5  1  0
  2 15  1  0
  3  8  1  0
  3  9  1  0
  3 10  1  0
  4  6  1  0
  4  8  1  0
  5  7  1  0
  5  9  1  0
  6  7  1  0
 10 12  1  0
 11 12  1  0
 11 13  1  0
 11 14  1  0
 13 16  1  0
 14 17  1  0
 15 18  1  0
 16 17  1  0
 18 19  1  0
M  END
>  <PUBCHEM_COMPOUND_CID>  (1) 
45829

>  <PUBCHEM_CONFORMER_RMSD>  (1) 
0.8

>  <PUBCHEM_CONFORMER_DIVERSEORDER>  (1) 
3
41
71
79
65
60
81
69
13
32
74
59
68
24
51
10
77
76
40
72
49
12
53
45
11
70
20
64
47
18
7
54
78
80
2
33
57
9
27
63
5
14
29
61
23
1
62
73
58
26
6
4
66
15
56
55
30
46
44
43
39
34
8
22
75
25
16
52
50
21
38
19
35
17
67
28
37
36
42
31
48

>  <PUBCHEM_MMFF94_PARTIAL_CHARGES>  (1) 
10
1 -0.57
10 0.27
15 0.57
18 0.06
2 -0.66
3 -0.81
4 0.3
5 0.3
8 0.27
9 0.27

>  <PUBCHEM_EFFECTIVE_ROTOR_COUNT>  (1) 
7.2

>  <PUBCHEM_PHARMACOPHORE_FEATURES>  (1) 
5
1 1 acceptor
1 19 hydrophobe
1 3 cation
5 11 13 14 16 17 rings
8 2 3 4 5 6 7 8 9 rings

>  <PUBCHEM_HEAVY_ATOM_COUNT>  (1) 
19

>  <PUBCHEM_ATOM_DEF_STEREO_COUNT>  (1) 
0

>  <PUBCHEM_ATOM_UDEF_STEREO_COUNT>  (1) 
2

>  <PUBCHEM_BOND_DEF_STEREO_COUNT>  (1) 
0

>  <PUBCHEM_BOND_UDEF_STEREO_COUNT>  (1) 
0

>  <PUBCHEM_ISOTOPIC_ATOM_COUNT>  (1) 
0

>  <PUBCHEM_COMPONENT_COUNT>  (1) 
1

>  <PUBCHEM_CACTVS_TAUTO_COUNT>  (1) 
1

>  <PUBCHEM_CONFORMER_ID>  (1) 
0000B30500000003

>  <PUBCHEM_MMFF94_ENERGY>  (1) 
45.1097

>  <PUBCHEM_FEATURE_SELFOVERLAP>  (1) 
25.372

>  <PUBCHEM_SHAPE_FINGERPRINT>  (1) 
10090160 65 18333728018085854798
10366900 7 18260277343347940552
10498660 4 18059012774939429256
10670039 82 18337124376151957228
10922049 32 10735876171201029901
11315181 36 15502382206054120108
11401426 45 15719391737511657223
11458722 120 8646776594466893615
12186901 62 14117526393546099595
12403814 3 18341323427325211629
12670545 2 8574716814738894392
128620 24 18131630063160373516
12916754 54 18199190577226174574
13533116 47 15430303703830741080
13544653 18 18410862040551030203
13675066 3 12685103587129544660
14115302 16 9007050284322673634
14251731 8 10663821871202493050
14251764 18 8934990473569963603
14251764 38 16226047777563856356
14289901 80 18338238141810492778
14787075 74 18411135870011206843
15099037 51 8862942779494839506
15375358 24 12540704734260751152
167882 2 17899139591861366205
17349148 13 13912612631986199082
17492 89 18195240010441583970
17834072 14 16225772925479436374
17834072 8 8358260340981077482
1813 80 17917717911202766085
18222031 100 17274810364397677607
192875 21 14634875223255462166
19489759 90 16081082671326233837
200 152 18114177527698135599
21618674 57 8502654809321160718
22079108 93 17346590911201236650
22854114 59 18333453132068536846
23402539 116 13262395579320228351
23419403 2 17680169630976117641
23557571 272 18341059505769128572
23559900 14 16298391266685189268
26918003 58 17603303760567048323
296302 2 18410295766245247575
3004659 81 11167947974666986960
3009799 131 17167854279936958135
312423 11 18128541457752245590
347723 3 14634866436363946653
351380 180 16515401872195637604
4325135 7 18341893000007505078
474229 33 18411698802843203438
5283173 99 17168693147016028717
5486654 2 18412265059900194423
6442390 28 17346880070038224166
6913067 236 18334847325270210390
7226269 152 13190332470095893591
74978 22 8141498216619374318
9882013 296 18261397728321518026

>  <PUBCHEM_SHAPE_MULTIPOLES>  (1) 
375.18
11.05
1.61
1.36
1.8
0.5
0.03
-1.49
-0.12
-0.05
-0.02
0
0.05
-0.13

>  <PUBCHEM_SHAPE_SELFOVERLAP>  (1) 
772.843

>  <PUBCHEM_SHAPE_VOLUME>  (1) 
216.1

>  <PUBCHEM_COORDINATE_TYPE>  (1) 
2
5
10

$$$$
