45835
     RDKit          3D

 12 13  0  0  1  0  0  0  0  0999 V2000
   -2.5120    0.8959   -1.1367 O   0  0  0  0  0  0  0  0  0  0  0  0
   -0.8226   -0.2202   -0.0330 N   0  0  0  0  0  0  0  0  0  0  0  0
    1.9264    0.5290    0.0484 N   0  0  0  0  0  0  0  0  0  0  0  0
    0.0147   -0.5164   -1.1811 C   0  0  0  0  0  0  0  0  0  0  0  0
   -0.0322   -0.5915    1.1312 C   0  0  0  0  0  0  0  0  0  0  0  0
    0.5583   -1.9086   -0.8310 C   0  0  0  0  0  0  0  0  0  0  0  0
    0.5294   -1.9583    0.7108 C   0  0  0  0  0  0  0  0  0  0  0  0
    1.1350    0.5486   -1.1997 C   0  0  0  0  0  0  0  0  0  0  0  0
    1.0857    0.4687    1.2626 C   0  0  0  0  0  0  0  0  0  0  0  0
   -2.0188    0.4610   -0.0948 C   0  0  0  0  0  0  0  0  0  0  0  0
    2.8658    1.6435    0.1033 C   0  0  0  0  0  0  0  0  0  0  0  0
   -2.7297    0.6484    1.2201 C   0  0  0  0  0  0  0  0  0  0  0  0
  1 10  2  0
  2  4  1  0
  2  5  1  0
  2 10  1  0
  3  8  1  0
  3  9  1  0
  3 11  1  0
  4  6  1  0
  4  8  1  0
  5  7  1  0
  5  9  1  0
  6  7  1  0
 10 12  1  0
M  END
>  <PUBCHEM_COMPOUND_CID>  (1) 
45835

>  <PUBCHEM_CONFORMER_RMSD>  (1) 
0.6

>  <PUBCHEM_CONFORMER_DIVERSEORDER>  (1) 
1
2

>  <PUBCHEM_MMFF94_PARTIAL_CHARGES>  (1) 
10
1 -0.57
10 0.57
11 0.27
12 0.06
2 -0.66
3 -0.81
4 0.3
5 0.3
8 0.27
9 0.27

>  <PUBCHEM_EFFECTIVE_ROTOR_COUNT>  (1) 
2.2

>  <PUBCHEM_PHARMACOPHORE_FEATURES>  (1) 
3
1 1 acceptor
1 3 cation
8 2 3 4 5 6 7 8 9 rings

>  <PUBCHEM_HEAVY_ATOM_COUNT>  (1) 
12

>  <PUBCHEM_ATOM_DEF_STEREO_COUNT>  (1) 
0

>  <PUBCHEM_ATOM_UDEF_STEREO_COUNT>  (1) 
2

>  <PUBCHEM_BOND_DEF_STEREO_COUNT>  (1) 
0

>  <PUBCHEM_BOND_UDEF_STEREO_COUNT>  (1) 
0

>  <PUBCHEM_ISOTOPIC_ATOM_COUNT>  (1) 
0

>  <PUBCHEM_COMPONENT_COUNT>  (1) 
1

>  <PUBCHEM_CACTVS_TAUTO_COUNT>  (1) 
1

>  <PUBCHEM_CONFORMER_ID>  (1) 
0000B30B00000001

>  <PUBCHEM_MMFF94_ENERGY>  (1) 
36.8831

>  <PUBCHEM_FEATURE_SELFOVERLAP>  (1) 
15.223

>  <PUBCHEM_SHAPE_FINGERPRINT>  (1) 
10702982 57 18264470944762104254
12138202 97 17986671678462317604
12326174 3 18195247715396128491
12423570 1 16095358721848726678
13024252 1 17756695691845454666
137420 1 13862403218755696522
14817 1 13084346038889597582
15557651 10 18343299301075537145
15775835 57 18337664308394229317
16945 1 18267866077675862718
19837323 101 18126565862747337994
20653085 51 17702961355873589728
20653091 64 18127130766926963291
21028194 46 18335142028646102288
21524375 3 18339637944661408744
23211744 25 16917061200515475207
23211744 41 18259990378917676673
430814 3 18343297093456890257
5084963 1 18337669818768328047
528886 8 15985112898465540073
68250623 7 18341045302381345830
81228 2 17688876753576565914

>  <PUBCHEM_SHAPE_MULTIPOLES>  (1) 
231.12
3.32
1.73
1.42
0.93
0.78
-0.01
-2.42
0.1
-0.74
0.06
0.22
0.02
0.03

>  <PUBCHEM_SHAPE_SELFOVERLAP>  (1) 
474.541

>  <PUBCHEM_SHAPE_VOLUME>  (1) 
133.5

>  <PUBCHEM_COORDINATE_TYPE>  (1) 
2
5
10

$$$$
