45834
     RDKit          3D

 14 15  0  0  1  0  0  0  0  0999 V2000
    2.4452   -0.0681    1.5055 O   0  0  0  0  0  0  0  0  0  0  0  0
    0.5205    0.0447    0.2167 N   0  0  0  0  0  0  0  0  0  0  0  0
   -2.2175   -0.8043   -0.0246 N   0  0  0  0  0  0  0  0  0  0  0  0
   -0.0808   -0.0754   -1.1139 C   0  0  0  0  0  0  0  0  0  0  0  0
   -0.4557    0.4693    1.2294 C   0  0  0  0  0  0  0  0  0  0  0  0
   -0.5332    1.3231   -1.5729 C   0  0  0  0  0  0  0  0  0  0  0  0
   -0.9261    1.8943    0.8811 C   0  0  0  0  0  0  0  0  0  0  0  0
   -1.2168   -1.1163   -1.0555 C   0  0  0  0  0  0  0  0  0  0  0  0
   -1.5938   -0.5710    1.2862 C   0  0  0  0  0  0  0  0  0  0  0  0
   -1.4290    2.0451   -0.5595 C   0  0  0  0  0  0  0  0  0  0  0  0
    1.8827   -0.1552    0.4113 C   0  0  0  0  0  0  0  0  0  0  0  0
   -3.2366   -1.8472    0.0542 C   0  0  0  0  0  0  0  0  0  0  0  0
    2.6926   -0.4944   -0.8137 C   0  0  0  0  0  0  0  0  0  0  0  0
    4.1485   -0.6445   -0.4443 C   0  0  0  0  0  0  0  0  0  0  0  0
  1 11  2  0
  2  4  1  0
  2  5  1  0
  2 11  1  0
  3  8  1  0
  3  9  1  0
  3 12  1  0
  4  6  1  0
  4  8  1  0
  5  7  1  0
  5  9  1  0
  6 10  1  0
  7 10  1  0
 11 13  1  0
 13 14  1  0
M  END
>  <PUBCHEM_COMPOUND_CID>  (1) 
45834

>  <PUBCHEM_CONFORMER_RMSD>  (1) 
0.6

>  <PUBCHEM_CONFORMER_DIVERSEORDER>  (1) 
1
6
7
9
2
8
3
10
5
4

>  <PUBCHEM_MMFF94_PARTIAL_CHARGES>  (1) 
10
1 -0.57
11 0.57
12 0.27
13 0.06
2 -0.66
3 -0.81
4 0.3
5 0.3
8 0.27
9 0.27

>  <PUBCHEM_EFFECTIVE_ROTOR_COUNT>  (1) 
3.4

>  <PUBCHEM_PHARMACOPHORE_FEATURES>  (1) 
5
1 1 acceptor
1 14 hydrophobe
1 3 cation
6 2 3 4 5 8 9 rings
6 2 4 5 6 7 10 rings

>  <PUBCHEM_HEAVY_ATOM_COUNT>  (1) 
14

>  <PUBCHEM_ATOM_DEF_STEREO_COUNT>  (1) 
0

>  <PUBCHEM_ATOM_UDEF_STEREO_COUNT>  (1) 
2

>  <PUBCHEM_BOND_DEF_STEREO_COUNT>  (1) 
0

>  <PUBCHEM_BOND_UDEF_STEREO_COUNT>  (1) 
0

>  <PUBCHEM_ISOTOPIC_ATOM_COUNT>  (1) 
0

>  <PUBCHEM_COMPONENT_COUNT>  (1) 
1

>  <PUBCHEM_CACTVS_TAUTO_COUNT>  (1) 
1

>  <PUBCHEM_CONFORMER_ID>  (1) 
0000B30A00000001

>  <PUBCHEM_MMFF94_ENERGY>  (1) 
28.9826

>  <PUBCHEM_FEATURE_SELFOVERLAP>  (1) 
26.957

>  <PUBCHEM_SHAPE_FINGERPRINT>  (1) 
10702982 57 17245241043267301653
12138202 97 18194401091574428149
12251169 10 15985112937099458494
12423570 1 16613998309631507165
13024252 1 15864364501406857589
14120999 15 16805596006100304845
14617773 55 17241314790033493913
14817 1 16891099510596563053
15309172 13 14620802569831508574
15906896 17 17677897812277530725
16945 1 18263071146285335117
17844478 74 17846499244509996106
18186145 218 11891594807192166043
200 152 17022901268100596554
20525323 117 17603593989093166708
20653085 51 13913148055478480487
21296965 67 18336826510772474559
22112679 90 18119845544763082597
23419403 2 17831821953990993525
2748010 2 17703211958730787568
353137 74 13551732055284149383
369184 2 10951756457225142222
528886 8 13840256048337734775
59915604 170 13984650482059636271
8030462 33 17022620854080826978
81228 2 18335137570712752849

>  <PUBCHEM_SHAPE_MULTIPOLES>  (1) 
272.28
4.69
1.8
1.48
4.58
0.59
0.05
-2.61
-0.04
-1.7
-0.22
-0.03
0.25
0.16

>  <PUBCHEM_SHAPE_SELFOVERLAP>  (1) 
550.801

>  <PUBCHEM_SHAPE_VOLUME>  (1) 
156.6

>  <PUBCHEM_COORDINATE_TYPE>  (1) 
2
5
10

$$$$
