45832
     RDKit          3D

 24 27  0  0  1  0  0  0  0  0999 V2000
   -3.8912   -4.5898   -0.4826 Cl  0  0  0  0  0  0  0  0  0  0  0  0
   -2.7338    5.2852   -0.6777 Cl  0  0  0  0  0  0  0  0  0  0  0  0
    3.9058   -0.2682    0.6875 N   0  0  0  0  0  0  0  0  0  0  0  0
    1.0879   -0.1547    0.1173 N   0  0  0  0  0  0  0  0  0  0  0  0
    3.2296   -1.4521    0.1275 C   0  0  0  0  0  0  0  0  0  0  0  0
    3.3808    0.8106   -0.1688 C   0  0  0  0  0  0  0  0  0  0  0  0
    3.3422   -1.2772   -1.3933 C   0  0  0  0  0  0  0  0  0  0  0  0
    3.4436    0.2384   -1.5917 C   0  0  0  0  0  0  0  0  0  0  0  0
    1.7595   -1.3710    0.6043 C   0  0  0  0  0  0  0  0  0  0  0  0
    1.9208    1.0472    0.2874 C   0  0  0  0  0  0  0  0  0  0  0  0
   -0.2299    0.0120    0.7193 C   0  0  0  0  0  0  0  0  0  0  0  0
    5.3617   -0.3696    0.6557 C   0  0  0  0  0  0  0  0  0  0  0  0
   -1.1586   -1.1539    0.4142 C   0  0  0  0  0  0  0  0  0  0  0  0
   -0.8637    1.3491    0.3647 C   0  0  0  0  0  0  0  0  0  0  0  0
   -2.1329   -1.4889    1.3323 C   0  0  0  0  0  0  0  0  0  0  0  0
   -0.6341    2.4350    1.1847 C   0  0  0  0  0  0  0  0  0  0  0  0
   -0.9984   -1.8424   -0.7712 C   0  0  0  0  0  0  0  0  0  0  0  0
   -1.6505    1.4357   -0.7661 C   0  0  0  0  0  0  0  0  0  0  0  0
   -2.9836   -2.5586    1.0532 C   0  0  0  0  0  0  0  0  0  0  0  0
   -1.2162    3.6604    0.8602 C   0  0  0  0  0  0  0  0  0  0  0  0
   -1.8491   -2.9119   -1.0505 C   0  0  0  0  0  0  0  0  0  0  0  0
   -2.2326    2.6611   -1.0906 C   0  0  0  0  0  0  0  0  0  0  0  0
   -2.8419   -3.2700   -0.1383 C   0  0  0  0  0  0  0  0  0  0  0  0
   -2.0153    3.7736   -0.2775 C   0  0  0  0  0  0  0  0  0  0  0  0
  1 23  1  0
  2 24  1  0
  3  5  1  0
  3  6  1  0
  3 12  1  0
  4  9  1  0
  4 10  1  0
  4 11  1  0
  5  7  1  0
  5  9  1  0
  6  8  1  0
  6 10  1  0
  7  8  1  0
 11 13  1  0
 11 14  1  0
 13 15  2  0
 13 17  1  0
 14 16  2  0
 14 18  1  0
 15 19  1  0
 16 20  1  0
 17 21  2  0
 18 22  2  0
 19 23  2  0
 20 24  2  0
 21 23  1  0
 22 24  1  0
M  END
>  <PUBCHEM_COMPOUND_CID>  (1) 
45832

>  <PUBCHEM_CONFORMER_RMSD>  (1) 
0.8

>  <PUBCHEM_CONFORMER_DIVERSEORDER>  (1) 
1
3
6
2
5
4

>  <PUBCHEM_MMFF94_PARTIAL_CHARGES>  (1) 
30
1 -0.18
10 0.27
11 0.56
12 0.27
13 -0.14
14 -0.14
15 -0.15
16 -0.15
17 -0.15
18 -0.15
19 -0.15
2 -0.18
20 -0.15
21 -0.15
22 -0.15
23 0.18
24 0.18
3 -0.81
39 0.15
4 -0.81
40 0.15
41 0.15
42 0.15
43 0.15
44 0.15
45 0.15
46 0.15
5 0.27
6 0.27
9 0.27

>  <PUBCHEM_EFFECTIVE_ROTOR_COUNT>  (1) 
4.2

>  <PUBCHEM_PHARMACOPHORE_FEATURES>  (1) 
5
1 3 cation
1 4 cation
6 13 15 17 19 21 23 rings
6 14 16 18 20 22 24 rings
8 3 4 5 6 7 8 9 10 rings

>  <PUBCHEM_HEAVY_ATOM_COUNT>  (1) 
24

>  <PUBCHEM_ATOM_DEF_STEREO_COUNT>  (1) 
0

>  <PUBCHEM_ATOM_UDEF_STEREO_COUNT>  (1) 
2

>  <PUBCHEM_BOND_DEF_STEREO_COUNT>  (1) 
0

>  <PUBCHEM_BOND_UDEF_STEREO_COUNT>  (1) 
0

>  <PUBCHEM_ISOTOPIC_ATOM_COUNT>  (1) 
0

>  <PUBCHEM_COMPONENT_COUNT>  (1) 
1

>  <PUBCHEM_CACTVS_TAUTO_COUNT>  (1) 
1

>  <PUBCHEM_CONFORMER_ID>  (1) 
0000B30800000001

>  <PUBCHEM_MMFF94_ENERGY>  (1) 
80.0061

>  <PUBCHEM_FEATURE_SELFOVERLAP>  (1) 
25.374

>  <PUBCHEM_SHAPE_FINGERPRINT>  (1) 
10411042 1 18194395817365553770
11045515 52 18265049330822907499
11069576 57 16970505983279046757
11101153 10 18117846719193415316
11578080 2 17773865575046071113
121448 382 18055058883485647993
12160290 23 18193019074024770840
12173636 292 18122063104781194061
12553582 1 18196382634950784894
12730499 353 17471303855454436265
12788726 201 18261404363608166531
13004483 165 18339078306180578843
13134695 92 17975973494675005727
13140716 1 18339924929959704841
133893 2 17474689711227564955
13583140 156 17703205362325964802
13590594 115 18264211486510420347
13681431 1 17834125516639156089
13690498 29 18197527111092369542
138480 1 16249689141560871809
13911987 19 17320999958875357452
13955234 65 17114947687268861585
14178342 30 18335694997818266498
14347332 77 18339936999746422926
14955137 171 17834716976897407139
15664445 248 17836669773634619780
16087824 20 18410290299511723485
16988056 13 17832124389009041213
17539 30 18410568496399583213
1813 80 18053394467588888047
20600515 1 17844553139209933777
21049683 271 17613439260599441996
21285901 2 18130238085850952775
21304303 282 17905286733653955788
2132832 1 18041555966427505732
21524375 3 17900544475610516161
22182313 1 17917438584295103742
2255824 54 17332250204346642635
22907989 373 18338254690187700325
23366157 5 17473263657425785019
23557571 272 18343295960123457842
23558518 356 18187931621171030362
23598288 3 18188784855015295522
283562 15 18261668268412103658
3057174 1 17760656862799311285
3060560 45 17472699126792114420
3091708 16 9203652845761651657
3380486 145 18124023791890456137
352729 6 17907022776651629121
4017518 198 17478314345798828758
4409770 3 18410004404211746927
46194498 28 17257901207161562415
474 4 17473259873348633273
532947 4 17257663737744188052
59025328 239 17340935126699340039
6138700 20 16899054163733867958
6442390 28 18053680079035667457
6443956 14 17978791543108532901
7164475 11 18408326609739877278
7364860 26 17406277010946445395
77188 2 18121496023258618237
81228 2 18335991938212470409
90316 7 18340498857992238619
9709674 26 18271804567387184254

>  <PUBCHEM_SHAPE_MULTIPOLES>  (1) 
487.69
7.33
6.45
1.29
8.75
5.31
-0.14
-4.96
-0.5
-11.68
-1.21
0.09
-0.03
0.42

>  <PUBCHEM_SHAPE_SELFOVERLAP>  (1) 
1044.726

>  <PUBCHEM_SHAPE_VOLUME>  (1) 
273.1

>  <PUBCHEM_COORDINATE_TYPE>  (1) 
2
5
10

$$$$
