45836
     RDKit          3D

 21 23  0  0  1  0  0  0  0  0999 V2000
    1.0221   -0.1782   -0.1679 O   0  0  0  0  0  0  0  0  0  0  0  0
    1.7796   -2.2609    0.4549 O   0  0  0  0  0  0  0  0  0  0  0  0
   -2.6386    0.0839   -0.4800 N   0  0  0  0  0  0  0  0  0  0  0  0
   -5.4584   -0.2773   -0.0366 N   0  0  0  0  0  0  0  0  0  0  0  0
    7.1385    1.1925   -0.1705 N   0  0  0  0  0  0  0  0  0  0  0  0
   -3.5783    1.1479   -0.8760 C   0  0  0  0  0  0  0  0  0  0  0  0
   -3.1237   -0.2588    0.8689 C   0  0  0  0  0  0  0  0  0  0  0  0
   -3.6988    2.0386    0.3684 C   0  0  0  0  0  0  0  0  0  0  0  0
   -3.3942    1.0963    1.5371 C   0  0  0  0  0  0  0  0  0  0  0  0
   -4.9149    0.4392   -1.2024 C   0  0  0  0  0  0  0  0  0  0  0  0
   -4.4293   -1.0642    0.6628 C   0  0  0  0  0  0  0  0  0  0  0  0
   -1.2437    0.5140   -0.4965 C   0  0  0  0  0  0  0  0  0  0  0  0
   -6.6119   -1.0943   -0.3949 C   0  0  0  0  0  0  0  0  0  0  0  0
   -0.3227   -0.6363   -0.1222 C   0  0  0  0  0  0  0  0  0  0  0  0
    1.9779   -1.0967    0.1443 C   0  0  0  0  0  0  0  0  0  0  0  0
    3.3329   -0.4954    0.0612 C   0  0  0  0  0  0  0  0  0  0  0  0
    4.4004   -1.3013   -0.2775 C   0  0  0  0  0  0  0  0  0  0  0  0
    3.4827    0.8506    0.3257 C   0  0  0  0  0  0  0  0  0  0  0  0
    5.6735   -0.7367   -0.3548 C   0  0  0  0  0  0  0  0  0  0  0  0
    4.7558    1.4154    0.2482 C   0  0  0  0  0  0  0  0  0  0  0  0
    5.8513    0.6217   -0.0922 C   0  0  0  0  0  0  0  0  0  0  0  0
  1 14  1  0
  1 15  1  0
  2 15  2  0
  3  6  1  0
  3  7  1  0
  3 12  1  0
  4 10  1  0
  4 11  1  0
  4 13  1  0
  5 21  1  0
  6  8  1  0
  6 10  1  0
  7  9  1  0
  7 11  1  0
  8  9  1  0
 12 14  1  0
 15 16  1  0
 16 17  2  0
 16 18  1  0
 17 19  1  0
 18 20  2  0
 19 21  2  0
 20 21  1  0
M  END
>  <PUBCHEM_COMPOUND_CID>  (1) 
45836

>  <PUBCHEM_CONFORMER_RMSD>  (1) 
0.8

>  <PUBCHEM_CONFORMER_DIVERSEORDER>  (1) 
10
74
25
57
65
24
41
70
83
50
34
53
54
19
27
35
84
80
28
29
55
63
9
78
23
48
18
62
13
15
20
81
49
31
64
1
72
67
51
66
47
3
26
59
75
82
45
85
73
37
43
39
61
22
8
2
77
60
69
42
76
68
52
21
38
56
6
79
17
5
71
7
33
46
11
86
14
30
12
4
36
16
32
44
40
58

>  <PUBCHEM_MMFF94_PARTIAL_CHARGES>  (1) 
25
1 -0.43
10 0.27
11 0.27
12 0.27
13 0.27
14 0.28
15 0.63
16 0.09
17 -0.15
18 -0.15
19 -0.15
2 -0.57
20 -0.15
21 0.1
3 -0.81
39 0.15
4 -0.81
40 0.15
41 0.15
42 0.15
43 0.4
44 0.4
5 -0.9
6 0.27
7 0.27

>  <PUBCHEM_EFFECTIVE_ROTOR_COUNT>  (1) 
6.2

>  <PUBCHEM_PHARMACOPHORE_FEATURES>  (1) 
7
1 2 acceptor
1 3 cation
1 4 cation
1 5 cation
1 5 donor
6 16 17 18 19 20 21 rings
8 3 4 6 7 8 9 10 11 rings

>  <PUBCHEM_HEAVY_ATOM_COUNT>  (1) 
21

>  <PUBCHEM_ATOM_DEF_STEREO_COUNT>  (1) 
0

>  <PUBCHEM_ATOM_UDEF_STEREO_COUNT>  (1) 
2

>  <PUBCHEM_BOND_DEF_STEREO_COUNT>  (1) 
0

>  <PUBCHEM_BOND_UDEF_STEREO_COUNT>  (1) 
0

>  <PUBCHEM_ISOTOPIC_ATOM_COUNT>  (1) 
0

>  <PUBCHEM_COMPONENT_COUNT>  (1) 
1

>  <PUBCHEM_CACTVS_TAUTO_COUNT>  (1) 
2

>  <PUBCHEM_CONFORMER_ID>  (1) 
0000B30C0000000A

>  <PUBCHEM_MMFF94_ENERGY>  (1) 
67.3687

>  <PUBCHEM_FEATURE_SELFOVERLAP>  (1) 
35.524

>  <PUBCHEM_SHAPE_FINGERPRINT>  (1) 
10 15 18040992999494740128
10366900 7 17967253082976037129
10595046 47 18341894060806326835
10670039 82 17846785070658304424
10968037 39 18407758153907362319
11128504 68 16558746845244967696
11315181 36 15213305239818311277
11796584 16 12396301456668892440
12107183 9 17548701776998181803
12166972 35 18343022215687681152
12236239 1 17989208122653741048
12516196 113 18334012791607836149
12596602 18 18272936007284939041
12616971 3 9079105666083133874
12730499 353 18412548713190253958
12916748 109 17632863018647058900
13073987 5 18201440242472398520
13631057 29 18338514261554270595
14123256 10 18410574006636837123
1420 363 18409169913272036263
14251718 22 18411698785852796575
14251764 18 18334010593560195178
14528608 73 18411698777278536838
14933364 13 18343304760089636092
15183329 4 15195570078771141516
17093844 174 7925627783002150565
17834072 33 18201997728921626558
17844677 252 18343027653247626788
18222031 100 16588026801396244622
19489759 90 16588021308154054741
200 152 18412822487305933423
20281389 69 18334853935926706680
20645477 70 18201160945424473878
21065198 48 18341050709850121115
21150785 3 17275384339574423604
221357 26 18131067134571473872
22224240 67 17967529112503843986
2297311 6 15195566810295579099
23198884 109 16558754528904432758
23402655 69 18202282511909216030
23559900 14 18261668285797648801
26918003 58 11530483324183424924
300161 21 12829211083040240644
339767 52 13912323477597426724
34797466 226 16988849414647989188
3545911 37 18341612642086119150
4073 2 18040723584221863490
4325135 7 18341612646048829327
497634 4 18272652325265023101
5104073 3 18041844995512919963
542803 24 17704354355242802682
54446538 1 18201720660956057408
90127 26 18337681810528054130
9996256 80 18343019999658220342

>  <PUBCHEM_SHAPE_MULTIPOLES>  (1) 
405.49
17.95
1.69
0.95
8.74
0.03
0.09
1.38
-1.74
0.2
0.2
-1.13
0.16
0.04

>  <PUBCHEM_SHAPE_SELFOVERLAP>  (1) 
858.127

>  <PUBCHEM_SHAPE_VOLUME>  (1) 
227.2

>  <PUBCHEM_COORDINATE_TYPE>  (1) 
2
5
10

$$$$
