4583
     RDKit          3D

 26 29  0  0  1  0  0  0  0  0999 V2000
   -1.6951   -2.9042    0.0812 F   0  0  0  0  0  0  0  0  0  0  0  0
   -1.0003    1.7712   -0.1345 O   0  0  0  0  0  0  0  0  0  0  0  0
    3.3310   -2.4092   -0.0440 O   0  0  0  0  0  0  0  0  0  0  0  0
    5.6229   -1.2858    0.5635 O   0  0  0  0  0  0  0  0  0  0  0  0
    5.9711    0.6585   -0.5893 O   0  0  0  0  0  0  0  0  0  0  0  0
   -2.7212   -0.3460    0.0011 N   0  0  0  0  0  0  0  0  0  0  0  0
    1.8461    1.3819   -0.0839 N   0  0  0  0  0  0  0  0  0  0  0  0
   -5.5700   -0.1483   -0.0651 N   0  0  0  0  0  0  0  0  0  0  0  0
   -3.5162   -0.8102    1.1421 C   0  0  0  0  0  0  0  0  0  0  0  0
   -3.4259   -0.2962   -1.2861 C   0  0  0  0  0  0  0  0  0  0  0  0
    1.2590    2.7213    0.0097 C   0  0  0  0  0  0  0  0  0  0  0  0
   -1.3383   -0.5598   -0.0143 C   0  0  0  0  0  0  0  0  0  0  0  0
    0.9383    0.3039   -0.0723 C   0  0  0  0  0  0  0  0  0  0  0  0
   -0.4489    0.5143   -0.0823 C   0  0  0  0  0  0  0  0  0  0  0  0
   -4.8482   -0.0590    1.2101 C   0  0  0  0  0  0  0  0  0  0  0  0
   -4.7601    0.4392   -1.1395 C   0  0  0  0  0  0  0  0  0  0  0  0
   -0.0973    2.7283   -0.6970 C   0  0  0  0  0  0  0  0  0  0  0  0
    1.4126   -1.0212   -0.0426 C   0  0  0  0  0  0  0  0  0  0  0  0
   -0.8500   -1.8647    0.0263 C   0  0  0  0  0  0  0  0  0  0  0  0
    3.2036    1.1325   -0.0844 C   0  0  0  0  0  0  0  0  0  0  0  0
    0.5242   -2.1007    0.0052 C   0  0  0  0  0  0  0  0  0  0  0  0
    1.1460    3.1440    1.4768 C   0  0  0  0  0  0  0  0  0  0  0  0
    2.8785   -1.2713   -0.0543 C   0  0  0  0  0  0  0  0  0  0  0  0
   -6.8639    0.5268    0.0294 C   0  0  0  0  0  0  0  0  0  0  0  0
    3.7706   -0.0805   -0.0765 C   0  0  0  0  0  0  0  0  0  0  0  0
    5.2313   -0.1651   -0.0794 C   0  0  0  0  0  0  0  0  0  0  0  0
  1 19  1  0
  2 14  1  0
  2 17  1  0
  3 23  2  0
  4 26  1  0
  5 26  2  0
  6  9  1  0
  6 10  1  0
  6 12  1  0
  7 11  1  0
  7 13  1  0
  7 20  1  0
  8 15  1  0
  8 16  1  0
  8 24  1  0
  9 15  1  0
 10 16  1  0
 11 17  1  0
 11 22  1  0
 12 14  1  0
 12 19  2  0
 13 14  2  0
 13 18  1  0
 18 21  2  0
 18 23  1  0
 19 21  1  0
 20 25  2  0
 23 25  1  0
 25 26  1  0
M  END
>  <PUBCHEM_COMPOUND_CID>  (1) 
4583

>  <PUBCHEM_CONFORMER_RMSD>  (1) 
0.8

>  <PUBCHEM_CONFORMER_DIVERSEORDER>  (1) 
1
5
2
3
4

>  <PUBCHEM_MMFF94_PARTIAL_CHARGES>  (1) 
28
1 -0.19
10 0.37
11 0.37
12 0.1
13 0.1
14 0.08
15 0.27
16 0.27
17 0.28
18 0.09
19 0.19
2 -0.36
20 -0.05
21 -0.15
23 0.47
24 0.27
25 0.03
26 0.71
3 -0.57
38 0.15
39 0.15
4 -0.65
46 0.5
5 -0.57
6 -0.84
7 -0.57
8 -0.81
9 0.37

>  <PUBCHEM_EFFECTIVE_ROTOR_COUNT>  (1) 
3.8

>  <PUBCHEM_PHARMACOPHORE_FEATURES>  (1) 
13
1 2 acceptor
1 25 anion
1 3 acceptor
1 4 acceptor
1 5 acceptor
1 6 cation
1 7 cation
1 8 cation
3 4 5 26 anion
6 12 13 14 18 19 21 rings
6 2 7 11 13 14 17 rings
6 6 8 9 10 15 16 rings
6 7 13 18 20 23 25 rings

>  <PUBCHEM_HEAVY_ATOM_COUNT>  (1) 
26

>  <PUBCHEM_ATOM_DEF_STEREO_COUNT>  (1) 
0

>  <PUBCHEM_ATOM_UDEF_STEREO_COUNT>  (1) 
1

>  <PUBCHEM_BOND_DEF_STEREO_COUNT>  (1) 
0

>  <PUBCHEM_BOND_UDEF_STEREO_COUNT>  (1) 
0

>  <PUBCHEM_ISOTOPIC_ATOM_COUNT>  (1) 
0

>  <PUBCHEM_COMPONENT_COUNT>  (1) 
1

>  <PUBCHEM_CACTVS_TAUTO_COUNT>  (1) 
1

>  <PUBCHEM_CONFORMER_ID>  (1) 
000011E700000001

>  <PUBCHEM_MMFF94_ENERGY>  (1) 
89.0159

>  <PUBCHEM_FEATURE_SELFOVERLAP>  (1) 
66.454

>  <PUBCHEM_SHAPE_FINGERPRINT>  (1) 
10411042 1 18122626042039870686
10688039 33 18040998397361374108
10906281 52 18341630208286056134
10967382 1 18410292514833899582
1100329 8 18339080500898265522
11421498 54 13334723614178794797
11578080 2 17129563898778542306
11646440 116 18343587347415332753
12011746 2 18411140233740073668
12035758 1 18336818775235766024
12166972 35 18131067186474877113
12236239 1 17775565347472144639
12516196 113 18272087201593815904
12553582 1 18411130351405310874
12760667 363 18340484466042028766
12788726 201 18335980862098469136
12838862 33 18338218441196464868
13140716 1 18267304429060459682
13402501 40 18260827077671252285
13862211 1 18410851053771583334
13899415 154 18342747329390794800
14170010 4 18412542128741352849
14178342 30 17690833888394901225
14347332 77 17983582905920016310
14464042 87 18131356271838295569
14790565 3 18410301276298593324
14849402 71 18341057423190668049
15081414 286 18341058436395968734
15099037 51 18409729581759582791
15196674 1 18337673147473665878
15475509 8 17844273781415028484
15527383 91 18412545418443779761
15927050 60 17765996482538688996
1601671 61 18411419513904008938
16087824 20 18337392626412926325
16945 1 18411417358083737868
17492 89 17976535019079671010
17980427 23 17417823841511623265
17980427 26 17557122206475116292
18681886 176 17988634238246743347
19141452 34 18272368706540534230
19591789 44 18266178335732278485
20510252 161 18268991986594392952
20642791 105 18118953695157736456
20642791 178 17898581031880946764
20832881 197 18341891896153625657
21029758 11 18342453733947763936
21033648 29 18041543815817429797
21033650 10 15911673235486047235
21236236 1 18339080372234278549
21267235 1 18336831884394084574
21279426 13 18191302668034098501
21285901 2 18341337678190172134
21641784 216 18115324280109674740
21792934 111 18338504267080626352
21792961 116 17968093071790514574
221357 26 18409440363584812525
23184049 59 18411986879405615879
2334 1 17762053646240757988
23352939 185 18273216378655716392
23402539 116 18343295972491616239
23557571 272 18201447918085404324
23559900 14 18270675502010758504
23569914 2 15578895187836089284
23569943 247 17629500595773068606
3004659 81 18113618959413345798
3178227 256 18335432265978414115
335352 9 18410575106385939638
345986 75 18130218238384773256
34934 24 18409726287920989486
350125 39 18409730634417518989
4340502 62 16443064984866435626
5104073 3 18265892634893105146
59755656 215 18338804416707203654
6328613 192 18339370772058162704

>  <PUBCHEM_SHAPE_MULTIPOLES>  (1) 
489.37
12.21
2.83
0.96
6.3
1.07
-0.1
-1.27
0.18
-1.72
-0.41
0.77
0.29
0.24

>  <PUBCHEM_SHAPE_SELFOVERLAP>  (1) 
1072.596

>  <PUBCHEM_SHAPE_VOLUME>  (1) 
265.8

>  <PUBCHEM_COORDINATE_TYPE>  (1) 
2
5
10

$$$$
