45844
     RDKit          3D

 23 26  0  0  1  0  0  0  0  0999 V2000
   -1.4055   -2.0045   -2.4414 Cl  0  0  0  0  0  0  0  0  0  0  0  0
    0.9864    0.0277    0.0938 N   0  0  0  0  0  0  0  0  0  0  0  0
    3.8350   -0.1499    0.4577 N   0  0  0  0  0  0  0  0  0  0  0  0
    1.8627    1.0349   -0.5306 C   0  0  0  0  0  0  0  0  0  0  0  0
    1.6846   -1.2266   -0.2405 C   0  0  0  0  0  0  0  0  0  0  0  0
    2.2023    0.4496   -1.9084 C   0  0  0  0  0  0  0  0  0  0  0  0
    2.0828   -1.0652   -1.7141 C   0  0  0  0  0  0  0  0  0  0  0  0
    3.1155    1.1317    0.3731 C   0  0  0  0  0  0  0  0  0  0  0  0
    2.9252   -1.2854    0.6830 C   0  0  0  0  0  0  0  0  0  0  0  0
   -0.3851    0.0719   -0.4041 C   0  0  0  0  0  0  0  0  0  0  0  0
    4.9003   -0.1062    1.4525 C   0  0  0  0  0  0  0  0  0  0  0  0
   -1.2284   -1.0821    0.1176 C   0  0  0  0  0  0  0  0  0  0  0  0
   -1.0499    1.4176   -0.1540 C   0  0  0  0  0  0  0  0  0  0  0  0
   -1.7155   -2.0453   -0.7440 C   0  0  0  0  0  0  0  0  0  0  0  0
   -1.4808   -1.1216    1.4761 C   0  0  0  0  0  0  0  0  0  0  0  0
   -2.0163    1.8584   -1.0352 C   0  0  0  0  0  0  0  0  0  0  0  0
   -0.6672    2.1568    0.9468 C   0  0  0  0  0  0  0  0  0  0  0  0
   -2.4846   -3.0886   -0.2285 C   0  0  0  0  0  0  0  0  0  0  0  0
   -2.2500   -2.1649    1.9915 C   0  0  0  0  0  0  0  0  0  0  0  0
   -2.6260    3.0918   -0.8059 C   0  0  0  0  0  0  0  0  0  0  0  0
   -1.2770    3.3903    1.1760 C   0  0  0  0  0  0  0  0  0  0  0  0
   -2.7519   -3.1483    1.1392 C   0  0  0  0  0  0  0  0  0  0  0  0
   -2.2565    3.8577    0.2995 C   0  0  0  0  0  0  0  0  0  0  0  0
  1 14  1  0
  2  4  1  0
  2  5  1  0
  2 10  1  0
  3  8  1  0
  3  9  1  0
  3 11  1  0
  4  6  1  0
  4  8  1  0
  5  7  1  0
  5  9  1  0
  6  7  1  0
 10 12  1  0
 10 13  1  0
 12 14  2  0
 12 15  1  0
 13 16  2  0
 13 17  1  0
 14 18  1  0
 15 19  2  0
 16 20  1  0
 17 21  2  0
 18 22  2  0
 19 22  1  0
 20 23  2  0
 21 23  1  0
M  END
>  <PUBCHEM_COMPOUND_CID>  (1) 
45844

>  <PUBCHEM_CONFORMER_RMSD>  (1) 
0.8

>  <PUBCHEM_CONFORMER_DIVERSEORDER>  (1) 
2
1
5
3
4

>  <PUBCHEM_MMFF94_PARTIAL_CHARGES>  (1) 
30
1 -0.18
10 0.56
11 0.27
12 -0.14
13 -0.14
14 0.18
15 -0.15
16 -0.15
17 -0.15
18 -0.15
19 -0.15
2 -0.81
20 -0.15
21 -0.15
22 -0.15
23 -0.15
3 -0.81
38 0.15
39 0.15
4 0.27
40 0.15
41 0.15
42 0.15
43 0.15
44 0.15
45 0.15
46 0.15
5 0.27
8 0.27
9 0.27

>  <PUBCHEM_EFFECTIVE_ROTOR_COUNT>  (1) 
4.2

>  <PUBCHEM_PHARMACOPHORE_FEATURES>  (1) 
5
1 2 cation
1 3 cation
6 12 14 15 18 19 22 rings
6 13 16 17 20 21 23 rings
8 2 3 4 5 6 7 8 9 rings

>  <PUBCHEM_HEAVY_ATOM_COUNT>  (1) 
23

>  <PUBCHEM_ATOM_DEF_STEREO_COUNT>  (1) 
0

>  <PUBCHEM_ATOM_UDEF_STEREO_COUNT>  (1) 
3

>  <PUBCHEM_BOND_DEF_STEREO_COUNT>  (1) 
0

>  <PUBCHEM_BOND_UDEF_STEREO_COUNT>  (1) 
0

>  <PUBCHEM_ISOTOPIC_ATOM_COUNT>  (1) 
0

>  <PUBCHEM_COMPONENT_COUNT>  (1) 
1

>  <PUBCHEM_CACTVS_TAUTO_COUNT>  (1) 
1

>  <PUBCHEM_CONFORMER_ID>  (1) 
0000B31400000002

>  <PUBCHEM_MMFF94_ENERGY>  (1) 
77.6499

>  <PUBCHEM_FEATURE_SELFOVERLAP>  (1) 
25.374

>  <PUBCHEM_SHAPE_FINGERPRINT>  (1) 
11069576 57 12186962195009203888
11578080 2 17272548780569410377
12160290 23 18336845099459549005
12293681 4 18337662114362247671
12553582 1 18122643904597604791
12643181 29 17978235955510980718
12788726 201 18261968421884689835
12930653 34 18411125932216597882
13134695 92 17832696143001847127
13140716 1 18337677545541276281
133893 2 17189809581191312663
13583140 156 17416660558905794434
13681431 1 17689457278678372645
13911987 19 17104259854341742396
13965767 371 17772505380172944979
14178342 30 18260263011058060522
14787075 74 18271228436095404533
14790565 3 17183635827971429605
14844126 61 18267844199334295890
14955137 171 17190423056902295870
15420108 30 17267796789760987841
15906896 17 18338514140872628079
16945 1 18263661613941000741
1813 80 17982186813123862367
18981168 100 17488763180853014280
20197701 30 18046613513382324453
20567600 347 17978228254011269213
20600515 1 17825396437928604498
21033648 29 17828468186313795232
21304303 282 17902189431026438501
21524375 3 17977664204150620229
21731228 192 18048319942264188745
22182313 1 17917159316836403934
22907989 373 18194150506092376541
23419403 2 17613686607977125829
23557571 272 18341896294537343966
23558518 356 18266177236452870047
23598288 3 18336274487131419326
238 59 17621614817131975325
2748010 2 18057624078577943948
3091708 16 9203090982503638441
3380486 145 17917145121215213507
35225 105 17972912222369437347
376196 1 17412715369061445416
394222 165 17476342921491430721
404807 78 17531790404702464661
4340502 62 17830746348800423305
474 4 17693089665374968601
81228 2 18335998518413584417
90316 7 18270400632271534954
9981440 41 17772727434804018706

>  <PUBCHEM_SHAPE_MULTIPOLES>  (1) 
465.24
5.77
4.51
1.88
7.21
2.63
-0.45
-1.03
1.76
-6.25
0.7
-0.18
-0.91
0.53

>  <PUBCHEM_SHAPE_SELFOVERLAP>  (1) 
1005.673

>  <PUBCHEM_SHAPE_VOLUME>  (1) 
255.5

>  <PUBCHEM_COORDINATE_TYPE>  (1) 
2
5
10

$$$$
