45848
     RDKit          3D

 23 25  0  0  1  0  0  0  0  0999 V2000
   -4.6626   -1.8950   -0.2587 Cl  0  0  0  0  0  0  0  0  0  0  0  0
    1.0967   -1.1267    0.6236 O   0  0  0  0  0  0  0  0  0  0  0  0
   -4.4443    0.9748   -0.6021 N   0  0  0  0  0  0  0  0  0  0  0  0
   -3.4403    0.8788    0.4632 C   0  0  0  0  0  0  0  0  0  0  0  0
   -2.7226    2.2370    0.5235 C   0  0  0  0  0  0  0  0  0  0  0  0
   -1.5285    2.1732    1.4651 C   0  0  0  0  0  0  0  0  0  0  0  0
   -2.4837   -0.2940    0.3061 C   0  0  0  0  0  0  0  0  0  0  0  0
   -0.4994    1.1852    0.9275 C   0  0  0  0  0  0  0  0  0  0  0  0
   -1.1030   -0.1460    0.5544 C   0  0  0  0  0  0  0  0  0  0  0  0
   -0.2469   -1.2515    0.4172 C   0  0  0  0  0  0  0  0  0  0  0  0
   -2.9752   -1.5744   -0.0079 C   0  0  0  0  0  0  0  0  0  0  0  0
   -5.3523    2.0879   -0.3405 C   0  0  0  0  0  0  0  0  0  0  0  0
   -3.7910    1.1342   -1.8980 C   0  0  0  0  0  0  0  0  0  0  0  0
   -0.7508   -2.5046    0.0769 C   0  0  0  0  0  0  0  0  0  0  0  0
   -2.1156   -2.6674   -0.1283 C   0  0  0  0  0  0  0  0  0  0  0  0
    1.9511   -1.4535   -0.4691 C   0  0  0  0  0  0  0  0  0  0  0  0
    3.2121   -0.6471   -0.3629 C   0  0  0  0  0  0  0  0  0  0  0  0
    4.2968   -1.1543    0.3437 C   0  0  0  0  0  0  0  0  0  0  0  0
    3.2842    0.6004   -0.9727 C   0  0  0  0  0  0  0  0  0  0  0  0
    5.5485    0.8479   -0.1667 C   0  0  0  0  0  0  0  0  0  0  0  0
    5.4687   -0.4043    0.4423 C   0  0  0  0  0  0  0  0  0  0  0  0
    4.4563    1.3504   -0.8743 C   0  0  0  0  0  0  0  0  0  0  0  0
    6.8018    1.6492   -0.0623 C   0  0  0  0  0  0  0  0  0  0  0  0
  1 11  1  0
  2 10  1  0
  2 16  1  0
  3  4  1  0
  3 12  1  0
  3 13  1  0
  4  5  1  0
  4  7  1  0
  5  6  1  0
  6  8  1  0
  7  9  2  0
  7 11  1  0
  8  9  1  0
  9 10  1  0
 10 14  2  0
 11 15  2  0
 14 15  1  0
 16 17  1  0
 17 18  2  0
 17 19  1  0
 18 21  1  0
 19 22  2  0
 20 21  2  0
 20 22  1  0
 20 23  1  0
M  END
>  <PUBCHEM_COMPOUND_CID>  (1) 
45848

>  <PUBCHEM_CONFORMER_RMSD>  (1) 
0.8

>  <PUBCHEM_CONFORMER_DIVERSEORDER>  (1) 
1
25
15
18
26
23
17
10
4
6
20
11
27
19
21
24
9
13
12
5
16
2
22
14
3
7
8
28

>  <PUBCHEM_MMFF94_PARTIAL_CHARGES>  (1) 
27
1 -0.18
10 0.08
11 0.18
12 0.27
13 0.27
14 -0.15
15 -0.15
16 0.42
17 -0.14
18 -0.15
19 -0.15
2 -0.36
20 -0.14
21 -0.15
22 -0.15
23 0.14
3 -0.81
37 0.15
38 0.15
4 0.41
41 0.15
42 0.15
43 0.15
44 0.15
7 -0.14
8 0.14
9 -0.14

>  <PUBCHEM_EFFECTIVE_ROTOR_COUNT>  (1) 
4.8

>  <PUBCHEM_PHARMACOPHORE_FEATURES>  (1) 
5
1 2 acceptor
1 3 cation
6 17 18 19 20 21 22 rings
6 4 5 6 7 8 9 rings
6 7 9 10 11 14 15 rings

>  <PUBCHEM_HEAVY_ATOM_COUNT>  (1) 
23

>  <PUBCHEM_ATOM_DEF_STEREO_COUNT>  (1) 
0

>  <PUBCHEM_ATOM_UDEF_STEREO_COUNT>  (1) 
1

>  <PUBCHEM_BOND_DEF_STEREO_COUNT>  (1) 
0

>  <PUBCHEM_BOND_UDEF_STEREO_COUNT>  (1) 
0

>  <PUBCHEM_ISOTOPIC_ATOM_COUNT>  (1) 
0

>  <PUBCHEM_COMPONENT_COUNT>  (1) 
1

>  <PUBCHEM_CACTVS_TAUTO_COUNT>  (1) 
1

>  <PUBCHEM_CONFORMER_ID>  (1) 
0000B31800000001

>  <PUBCHEM_MMFF94_ENERGY>  (1) 
79.0009

>  <PUBCHEM_FEATURE_SELFOVERLAP>  (1) 
25.392

>  <PUBCHEM_SHAPE_FINGERPRINT>  (1) 
10014705 185 18334013886745134650
10366900 7 17418373584698747232
10411042 1 17834958955386992507
10498660 4 18342464737822502074
10906281 52 17844816897821283057
11961588 58 18040983017868950805
12107183 9 18118960292301298250
12166972 35 18114747139483592828
12236239 1 18187079559994410594
12293681 160 18129938967175067953
12596602 18 17894348904314407586
13103583 49 10881974813702394645
13383661 66 14475815602073344917
13583140 156 17386016026555119089
14739800 52 18269539677003889480
14767858 380 18270948082431673533
14790565 3 17983306924111642281
15196674 1 18410014338529176794
15463212 79 18113892762845444531
15840311 113 17837506159299550937
17492 89 18411706456918543194
19427546 20 18337672022519600447
19438510 23 15793675731433059373
20101258 96 17906459084002162035
20511986 3 18261660550508508816
20715895 44 18263360287536258125
20871999 31 18341607140359925375
21049683 271 17689162626937631415
21065198 48 18334574655731064482
21236236 1 18411136952891721399
23227448 37 18408325501089455101
23402539 116 18341889688688024534
235170 7 15841554024946083652
23557571 272 18201164338000036678
23559900 14 18200314304291450726
2748010 2 18198602489424937675
2838139 119 17314213485272029917
34797466 226 17703239537090146684
350125 39 18410295844003025939
351380 3 10087634893105290180
4214541 1 18408887351969208566
474 4 17894638080225644554
5104073 3 18113899355931285738
5283173 99 18411131446136999528
67856867 119 18336821997099937634
7237137 82 18411134775089926103
9981440 41 18335144219428213698
999808 66 10591768722725248820

>  <PUBCHEM_SHAPE_MULTIPOLES>  (1) 
464.35
13.73
2.84
1.09
16.95
0.4
0.2
-5.93
2.58
-2.66
-0.19
-0.55
-0.5
-0.32

>  <PUBCHEM_SHAPE_SELFOVERLAP>  (1) 
983.475

>  <PUBCHEM_SHAPE_VOLUME>  (1) 
261.9

>  <PUBCHEM_COORDINATE_TYPE>  (1) 
2
5
10

$$$$
