45854
     RDKit          3D

 26 28  0  0  1  0  0  0  0  0999 V2000
    5.3775    1.3331   -0.8031 Cl  0  0  0  0  0  0  0  0  0  0  0  0
   -5.7716   -2.1058   -0.1045 F   0  0  0  0  0  0  0  0  0  0  0  0
   -4.4482   -2.0387   -1.8215 F   0  0  0  0  0  0  0  0  0  0  0  0
   -3.6800   -2.6580    0.1162 F   0  0  0  0  0  0  0  0  0  0  0  0
   -0.3238    1.7745    0.5526 O   0  0  0  0  0  0  0  0  0  0  0  0
    4.6828   -1.4627   -0.4838 N   0  0  0  0  0  0  0  0  0  0  0  0
    3.8096   -0.9725    0.5881 C   0  0  0  0  0  0  0  0  0  0  0  0
    2.8974   -2.1425    0.9908 C   0  0  0  0  0  0  0  0  0  0  0  0
    1.8207   -1.6764    1.9603 C   0  0  0  0  0  0  0  0  0  0  0  0
    3.0374    0.2881    0.2273 C   0  0  0  0  0  0  0  0  0  0  0  0
    0.9130   -0.6614    1.2747 C   0  0  0  0  0  0  0  0  0  0  0  0
    1.6796    0.4365    0.5800 C   0  0  0  0  0  0  0  0  0  0  0  0
    0.9976    1.6191    0.2479 C   0  0  0  0  0  0  0  0  0  0  0  0
    3.6915    1.3689   -0.3921 C   0  0  0  0  0  0  0  0  0  0  0  0
    3.8950   -1.7766   -1.6723 C   0  0  0  0  0  0  0  0  0  0  0  0
    5.4262   -2.6354   -0.0320 C   0  0  0  0  0  0  0  0  0  0  0  0
    1.6572    2.6659   -0.3916 C   0  0  0  0  0  0  0  0  0  0  0  0
    3.0056    2.5436   -0.7048 C   0  0  0  0  0  0  0  0  0  0  0  0
   -1.2146    2.0061   -0.5353 C   0  0  0  0  0  0  0  0  0  0  0  0
   -2.5706    1.4704   -0.1806 C   0  0  0  0  0  0  0  0  0  0  0  0
   -2.8934    0.1537   -0.4899 C   0  0  0  0  0  0  0  0  0  0  0  0
   -3.4920    2.2953    0.4551 C   0  0  0  0  0  0  0  0  0  0  0  0
   -4.1538   -0.3443   -0.1592 C   0  0  0  0  0  0  0  0  0  0  0  0
   -4.7521    1.7973    0.7857 C   0  0  0  0  0  0  0  0  0  0  0  0
   -5.0830    0.4775    0.4787 C   0  0  0  0  0  0  0  0  0  0  0  0
   -4.5078   -1.7558   -0.4866 C   0  0  0  0  0  0  0  0  0  0  0  0
  1 14  1  0
  2 26  1  0
  3 26  1  0
  4 26  1  0
  5 13  1  0
  5 19  1  0
  6  7  1  0
  6 15  1  0
  6 16  1  0
  7  8  1  0
  7 10  1  0
  8  9  1  0
  9 11  1  0
 10 12  2  0
 10 14  1  0
 11 12  1  0
 12 13  1  0
 13 17  2  0
 14 18  2  0
 17 18  1  0
 19 20  1  0
 20 21  2  0
 20 22  1  0
 21 23  1  0
 22 24  2  0
 23 25  2  0
 23 26  1  0
 24 25  1  0
M  END
>  <PUBCHEM_COMPOUND_CID>  (1) 
45854

>  <PUBCHEM_CONFORMER_RMSD>  (1) 
0.8

>  <PUBCHEM_CONFORMER_DIVERSEORDER>  (1) 
1
73
42
33
75
89
84
67
87
56
61
66
35
92
15
80
90
7
19
58
30
53
96
4
16
8
31
6
82
21
37
22
54
64
27
29
3
62
39
25
13
55
72
78
81
44
14
18
28
68
93
65
32
49
2
86
10
45
34
63
94
38
43
41
52
88
85
83
24
57
46
79
17
5
48
74
71
91
59
47
40
12
36
95
50
20
77
26
69
70
9
60
23
11
51
76

>  <PUBCHEM_MMFF94_PARTIAL_CHARGES>  (1) 
30
1 -0.18
10 -0.14
11 0.14
12 -0.14
13 0.08
14 0.18
15 0.27
16 0.27
17 -0.15
18 -0.15
19 0.42
2 -0.34
20 -0.14
21 -0.15
22 -0.15
23 -0.14
24 -0.15
25 -0.15
26 1.16
3 -0.34
4 -0.34
40 0.15
41 0.15
44 0.15
45 0.15
46 0.15
47 0.15
5 -0.36
6 -0.81
7 0.41

>  <PUBCHEM_EFFECTIVE_ROTOR_COUNT>  (1) 
5.8

>  <PUBCHEM_PHARMACOPHORE_FEATURES>  (1) 
5
1 5 acceptor
1 6 cation
6 10 12 13 14 17 18 rings
6 20 21 22 23 24 25 rings
6 7 8 9 10 11 12 rings

>  <PUBCHEM_HEAVY_ATOM_COUNT>  (1) 
26

>  <PUBCHEM_ATOM_DEF_STEREO_COUNT>  (1) 
0

>  <PUBCHEM_ATOM_UDEF_STEREO_COUNT>  (1) 
1

>  <PUBCHEM_BOND_DEF_STEREO_COUNT>  (1) 
0

>  <PUBCHEM_BOND_UDEF_STEREO_COUNT>  (1) 
0

>  <PUBCHEM_ISOTOPIC_ATOM_COUNT>  (1) 
0

>  <PUBCHEM_COMPONENT_COUNT>  (1) 
1

>  <PUBCHEM_CACTVS_TAUTO_COUNT>  (1) 
1

>  <PUBCHEM_CONFORMER_ID>  (1) 
0000B31E00000001

>  <PUBCHEM_MMFF94_ENERGY>  (1) 
79.2968

>  <PUBCHEM_FEATURE_SELFOVERLAP>  (1) 
25.392

>  <PUBCHEM_SHAPE_FINGERPRINT>  (1) 
10074138 170 16255566688621913800
10462674 125 13752393103341311199
10595046 47 18411705425645980540
10616163 171 18411982503071337575
10622 236 18199167633885692615
108634 29 18115033038324169106
11186622 123 18335136548384195611
11315621 136 18335139821164780902
117089 54 18342466936530494287
11796584 16 18199751349457103460
12107183 9 18196379109088694465
12553582 1 18189606155709643617
12596599 1 18199761257798748040
12633257 1 18341615859211926029
13167823 11 18410856564330727105
13533116 47 18268144435175956641
13690498 29 18042411222621684260
14341114 176 18411423886555613513
14420673 8 18199193880040233559
14576447 43 18409166649302924932
14767858 380 17968676917187034206
15196674 1 18410575080484364057
15250474 111 18411130351268401167
15537594 2 18115312159584701739
17492 89 18339360868058406207
17909252 39 18271248351578655570
20028762 73 18337950091851294890
20281475 54 18410851071078299937
20691752 17 17530964670373102328
21033648 29 14620521090955788129
21054139 6 18262517112747427732
22393880 68 18114453470641125924
22950370 63 18412267211620748212
23379529 103 18127134074337014262
23559900 14 18341602746666787265
312423 11 18410293635936369445
4283 87 18334006168847068691
44062 13 18339642239997956997
463206 1 18333456434312935801
469060 322 14635443761768425227
5104073 3 18202845443802183921
6823239 73 17987813912040148982
7970288 3 18122343480705362102
9709674 26 18334581282148021617

>  <PUBCHEM_SHAPE_MULTIPOLES>  (1) 
504.27
13.48
3.49
1.25
7.34
0.37
-0.01
5.85
-2.51
-0.38
-0.39
-0.39
0.65
-1.69

>  <PUBCHEM_SHAPE_SELFOVERLAP>  (1) 
1075.581

>  <PUBCHEM_SHAPE_VOLUME>  (1) 
283.4

>  <PUBCHEM_COORDINATE_TYPE>  (1) 
2
5
10

$$$$
