45850
     RDKit          3D

 18 19  0  0  1  0  0  0  0  0999 V2000
   -2.6213    2.5505   -0.0051 Cl  0  0  0  0  0  0  0  0  0  0  0  0
    2.6616    0.0771   -0.7196 O   0  0  0  0  0  0  0  0  0  0  0  0
   -3.2139   -0.1970    0.7029 N   0  0  0  0  0  0  0  0  0  0  0  0
   -2.2514   -0.5236   -0.3549 C   0  0  0  0  0  0  0  0  0  0  0  0
   -1.9484   -2.0259   -0.2342 C   0  0  0  0  0  0  0  0  0  0  0  0
   -0.8096   -2.4215   -1.1631 C   0  0  0  0  0  0  0  0  0  0  0  0
   -0.9987    0.3400   -0.3379 C   0  0  0  0  0  0  0  0  0  0  0  0
    0.4701   -1.7066   -0.7444 C   0  0  0  0  0  0  0  0  0  0  0  0
    0.2771   -0.2232   -0.5502 C   0  0  0  0  0  0  0  0  0  0  0  0
    1.4139    0.6024   -0.5454 C   0  0  0  0  0  0  0  0  0  0  0  0
   -1.1003    1.7360   -0.1946 C   0  0  0  0  0  0  0  0  0  0  0  0
   -2.5992   -0.3717    2.0156 C   0  0  0  0  0  0  0  0  0  0  0  0
   -4.4058   -1.0308    0.5751 C   0  0  0  0  0  0  0  0  0  0  0  0
    1.2934    1.9792   -0.3728 C   0  0  0  0  0  0  0  0  0  0  0  0
    0.0359    2.5466   -0.2049 C   0  0  0  0  0  0  0  0  0  0  0  0
    3.6014    0.2822    0.3319 C   0  0  0  0  0  0  0  0  0  0  0  0
    4.5843   -0.8784    0.3462 C   0  0  0  0  0  0  0  0  0  0  0  0
    5.6111   -0.7353    1.4553 C   0  0  0  0  0  0  0  0  0  0  0  0
  1 11  1  0
  2 10  1  0
  2 16  1  0
  3  4  1  0
  3 12  1  0
  3 13  1  0
  4  5  1  0
  4  7  1  0
  5  6  1  0
  6  8  1  0
  7  9  2  0
  7 11  1  0
  8  9  1  0
  9 10  1  0
 10 14  2  0
 11 15  2  0
 14 15  1  0
 16 17  1  0
 17 18  1  0
M  END
>  <PUBCHEM_COMPOUND_CID>  (1) 
45850

>  <PUBCHEM_CONFORMER_RMSD>  (1) 
0.6

>  <PUBCHEM_CONFORMER_DIVERSEORDER>  (1) 
1
15
10
2
14
12
11
8
4
7
9
3
13
6
5

>  <PUBCHEM_MMFF94_PARTIAL_CHARGES>  (1) 
16
1 -0.18
10 0.08
11 0.18
12 0.27
13 0.27
14 -0.15
15 -0.15
16 0.28
2 -0.36
3 -0.81
32 0.15
33 0.15
4 0.41
7 -0.14
8 0.14
9 -0.14

>  <PUBCHEM_EFFECTIVE_ROTOR_COUNT>  (1) 
4.8

>  <PUBCHEM_PHARMACOPHORE_FEATURES>  (1) 
5
1 18 hydrophobe
1 2 acceptor
1 3 cation
6 4 5 6 7 8 9 rings
6 7 9 10 11 14 15 rings

>  <PUBCHEM_HEAVY_ATOM_COUNT>  (1) 
18

>  <PUBCHEM_ATOM_DEF_STEREO_COUNT>  (1) 
0

>  <PUBCHEM_ATOM_UDEF_STEREO_COUNT>  (1) 
1

>  <PUBCHEM_BOND_DEF_STEREO_COUNT>  (1) 
0

>  <PUBCHEM_BOND_UDEF_STEREO_COUNT>  (1) 
0

>  <PUBCHEM_ISOTOPIC_ATOM_COUNT>  (1) 
0

>  <PUBCHEM_COMPONENT_COUNT>  (1) 
1

>  <PUBCHEM_CACTVS_TAUTO_COUNT>  (1) 
1

>  <PUBCHEM_CONFORMER_ID>  (1) 
0000B31A00000001

>  <PUBCHEM_MMFF94_ENERGY>  (1) 
57.9469

>  <PUBCHEM_FEATURE_SELFOVERLAP>  (1) 
25.392

>  <PUBCHEM_SHAPE_FINGERPRINT>  (1) 
10967382 1 18124887995345504901
11132069 177 18130795559177641871
11357001 24 18334571300728557896
11680986 33 18051422759750845063
12251169 10 18271250520336614414
12403260 363 18340768251816470965
12553582 1 18411140277148721806
12633257 1 17846491574088737690
13140716 1 18197218263645151527
13172582 1 18270409402678928591
13380535 76 18193838141742540533
13544592 271 18267866069191546781
13862211 1 18411696621268732191
14178342 30 18126584335439147329
14420673 8 17689145713836955314
15042514 8 18336543803277358492
15209294 21 17489316247633071987
15375462 189 18189904286896510620
16728300 4 17823683184254621619
16945 1 18340784714004045645
17804303 29 18342177756798178652
1813 80 17604153645197270518
20510252 161 18202285762503503704
20871999 31 10881394331402625390
21029758 27 18260837020246352948
21637258 2 16515678995990948995
22182313 1 18126579928691490423
2297311 6 18341903957365655214
23184049 59 18341057414188490399
2334 1 17765442332556116679
23366157 5 17900540387155468292
23379529 103 12831784009132998361
23402539 116 18271515460105986807
23463225 33 18338524169341533565
23559900 14 16805887410930672676
24859131 72 18410858745804575635
25147074 1 17982734365677303174
2748010 2 18052837861491476183
4072396 5 18410577262612522055
465052 167 18188786070760306171
5104073 3 18125454235555209363
57426455 70 18335988639841103954
58807428 26 18194689167741747522
59554788 191 18334576824040969165
6992083 37 18271252740908695935
90316 7 18411415129048614732
9862522 239 18268985401792395237

>  <PUBCHEM_SHAPE_MULTIPOLES>  (1) 
361.45
7.88
2.71
1.21
10.06
0.91
0.52
-2.71
4.35
-1.55
-0.67
-0.08
-0.41
-0.28

>  <PUBCHEM_SHAPE_SELFOVERLAP>  (1) 
739.151

>  <PUBCHEM_SHAPE_VOLUME>  (1) 
211.1

>  <PUBCHEM_COORDINATE_TYPE>  (1) 
2
5
10

$$$$
