45856
     RDKit          3D

 19 20  0  0  1  0  0  0  0  0999 V2000
   -0.9660    2.1964   -1.6244 Cl  0  0  0  0  0  0  0  0  0  0  0  0
    3.9820   -0.2161    0.4334 O   0  0  0  0  0  0  0  0  0  0  0  0
   -2.0371   -0.0745   -0.1763 N   0  0  0  0  0  0  0  0  0  0  0  0
   -0.8305   -0.7605   -0.6511 C   0  0  0  0  0  0  0  0  0  0  0  0
   -0.7407   -2.0889    0.1175 C   0  0  0  0  0  0  0  0  0  0  0  0
    0.5844   -2.7836   -0.1615 C   0  0  0  0  0  0  0  0  0  0  0  0
    0.4367    0.0753   -0.5460 C   0  0  0  0  0  0  0  0  0  0  0  0
    1.7349   -1.9277    0.3562 C   0  0  0  0  0  0  0  0  0  0  0  0
    1.6478   -0.4913   -0.0963 C   0  0  0  0  0  0  0  0  0  0  0  0
   -3.2088   -0.9242   -0.3684 C   0  0  0  0  0  0  0  0  0  0  0  0
    0.4427    1.4138   -0.9795 C   0  0  0  0  0  0  0  0  0  0  0  0
    2.8054    0.3016   -0.0258 C   0  0  0  0  0  0  0  0  0  0  0  0
   -1.8889    0.2917    1.2292 C   0  0  0  0  0  0  0  0  0  0  0  0
    1.6030    2.1871   -0.9166 C   0  0  0  0  0  0  0  0  0  0  0  0
    2.7823    1.6334   -0.4330 C   0  0  0  0  0  0  0  0  0  0  0  0
   -3.4234   -1.2392   -1.8391 C   0  0  0  0  0  0  0  0  0  0  0  0
   -3.0872    0.9791    1.7204 C   0  0  0  0  0  0  0  0  0  0  0  0
    4.2297   -0.1148    1.8331 C   0  0  0  0  0  0  0  0  0  0  0  0
   -4.0662    1.5423    2.1280 C   0  0  0  0  0  0  0  0  0  0  0  0
  1 11  1  0
  2 12  1  0
  2 18  1  0
  3  4  1  0
  3 10  1  0
  3 13  1  0
  4  5  1  0
  4  7  1  0
  5  6  1  0
  6  8  1  0
  7  9  2  0
  7 11  1  0
  8  9  1  0
  9 12  1  0
 10 16  1  0
 11 14  2  0
 12 15  2  0
 13 17  1  0
 14 15  1  0
 17 19  3  0
M  END
>  <PUBCHEM_COMPOUND_CID>  (1) 
45856

>  <PUBCHEM_CONFORMER_RMSD>  (1) 
0.6

>  <PUBCHEM_CONFORMER_DIVERSEORDER>  (1) 
3
4
1
2

>  <PUBCHEM_MMFF94_PARTIAL_CHARGES>  (1) 
19
1 -0.18
10 0.27
11 0.18
12 0.08
13 0.47
14 -0.15
15 -0.15
17 -0.2
18 0.28
19 -0.18
2 -0.36
3 -0.81
31 0.15
32 0.15
39 0.18
4 0.41
7 -0.14
8 0.14
9 -0.14

>  <PUBCHEM_EFFECTIVE_ROTOR_COUNT>  (1) 
4.8

>  <PUBCHEM_PHARMACOPHORE_FEATURES>  (1) 
5
1 19 hydrophobe
1 2 acceptor
1 3 cation
6 4 5 6 7 8 9 rings
6 7 9 11 12 14 15 rings

>  <PUBCHEM_HEAVY_ATOM_COUNT>  (1) 
19

>  <PUBCHEM_ATOM_DEF_STEREO_COUNT>  (1) 
0

>  <PUBCHEM_ATOM_UDEF_STEREO_COUNT>  (1) 
1

>  <PUBCHEM_BOND_DEF_STEREO_COUNT>  (1) 
0

>  <PUBCHEM_BOND_UDEF_STEREO_COUNT>  (1) 
0

>  <PUBCHEM_ISOTOPIC_ATOM_COUNT>  (1) 
0

>  <PUBCHEM_COMPONENT_COUNT>  (1) 
1

>  <PUBCHEM_CACTVS_TAUTO_COUNT>  (1) 
1

>  <PUBCHEM_CONFORMER_ID>  (1) 
0000B32000000003

>  <PUBCHEM_MMFF94_ENERGY>  (1) 
65.1541

>  <PUBCHEM_FEATURE_SELFOVERLAP>  (1) 
25.392

>  <PUBCHEM_SHAPE_FINGERPRINT>  (1) 
10382601 240 18263938643711378746
10646746 165 17203613683279070936
10764073 3 12595893233857889791
10863032 1 16845017818413612006
10967382 1 18116986883239376852
11086676 242 18041002821625912664
11132069 177 18410849932710999700
11471102 22 18041006119691005232
11578080 2 17841957179398888801
11640471 11 17987816115548295105
11680986 33 17757265986082267028
12293681 160 16175123157931596197
124424 183 17023167328086182614
12553582 1 18186526488359982484
12592029 89 17823117038919059691
12633257 1 17604733121725729345
13140716 1 18116991289876062618
13172582 1 18334298694848497670
13296909 8 17846497036923394113
13965767 371 17770522845155164057
14178342 30 18411708681431443371
14713325 29 15103278910760945159
14790565 3 18190769516712249500
15209294 21 18131068203922943408
15309172 13 18334861631695587910
15490181 8 18268729357333271199
16945 1 18259987067635139158
19010151 120 18336813286267399143
192875 21 18270671099283833229
19433438 48 18412820274548514905
20691752 17 18261403208483971430
20739085 24 18042143044911343900
21197605 99 17689726260255797577
22182313 1 17974566901670497382
23184049 59 18260555549237373192
2334 1 17828765384816974150
23419403 2 17337816765530210225
23557571 272 16343710962369981289
2748010 2 17974281024304855062
2838139 119 15769763629613801712
3286 77 17845359093991316768
3472631 163 16988846034387506089
352729 6 18123751117196967638
474 4 18410865343180433931
539174 4 18127416652708324330
6992083 37 18263084468967698406
77492 1 18271812366678574157
7832392 63 18129677291633288939

>  <PUBCHEM_SHAPE_MULTIPOLES>  (1) 
382.03
6.58
2.62
1.78
0.28
0.42
-0.57
-0.97
-3.35
0.04
0.67
-1.52
-0.73
-1.72

>  <PUBCHEM_SHAPE_SELFOVERLAP>  (1) 
787.057

>  <PUBCHEM_SHAPE_VOLUME>  (1) 
219.8

>  <PUBCHEM_COORDINATE_TYPE>  (1) 
2
5
10

$$$$
