45867
     RDKit          3D

 20 22  0  0  1  0  0  0  0  0999 V2000
   -3.1994    1.5479    0.0850 N   0  0  0  0  0  0  0  0  0  0  0  0
    0.6850    0.2227   -3.3538 N   0  0  0  0  0  0  0  0  0  0  0  0
    0.3604    0.3740   -0.7242 C   0  0  0  0  0  0  0  0  0  0  0  0
   -0.1814    1.8060   -0.4373 C   0  0  0  0  0  0  0  0  0  0  0  0
   -2.1348    0.9796    0.9203 C   0  0  0  0  0  0  0  0  0  0  0  0
   -0.9069    1.8952    0.9019 C   0  0  0  0  0  0  0  0  0  0  0  0
   -0.6561   -0.7124   -0.3190 C   0  0  0  0  0  0  0  0  0  0  0  0
   -1.7943   -0.4247    0.4665 C   0  0  0  0  0  0  0  0  0  0  0  0
    1.7203    0.2212    0.0022 C   0  0  0  0  0  0  0  0  0  0  0  0
   -0.4241   -2.0541   -0.6979 C   0  0  0  0  0  0  0  0  0  0  0  0
   -2.6658   -1.4697    0.8310 C   0  0  0  0  0  0  0  0  0  0  0  0
    0.5431    0.2889   -2.2042 C   0  0  0  0  0  0  0  0  0  0  0  0
    2.8828    0.6494   -0.6245 C   0  0  0  0  0  0  0  0  0  0  0  0
    1.7591   -0.3423    1.2705 C   0  0  0  0  0  0  0  0  0  0  0  0
   -1.2978   -3.0757   -0.3265 C   0  0  0  0  0  0  0  0  0  0  0  0
   -2.4198   -2.7831    0.4374 C   0  0  0  0  0  0  0  0  0  0  0  0
   -3.5182    2.8984    0.5146 C   0  0  0  0  0  0  0  0  0  0  0  0
    4.1071    0.5115    0.0295 C   0  0  0  0  0  0  0  0  0  0  0  0
    2.9835   -0.4800    1.9245 C   0  0  0  0  0  0  0  0  0  0  0  0
    4.1574   -0.0531    1.3040 C   0  0  0  0  0  0  0  0  0  0  0  0
  1  5  1  0
  1 17  1  0
  2 12  3  0
  3  4  1  0
  3  7  1  0
  3  9  1  0
  3 12  1  0
  4  6  1  0
  5  6  1  0
  5  8  1  0
  7  8  2  0
  7 10  1  0
  8 11  1  0
  9 13  2  0
  9 14  1  0
 10 15  2  0
 11 16  2  0
 13 18  1  0
 14 19  2  0
 15 16  1  0
 18 20  2  0
 19 20  1  0
M  END
>  <PUBCHEM_COMPOUND_CID>  (1) 
45867

>  <PUBCHEM_CONFORMER_RMSD>  (1) 
0.6

>  <PUBCHEM_CONFORMER_DIVERSEORDER>  (1) 
1
5
2
4
7
6
8
9
3

>  <PUBCHEM_MMFF94_PARTIAL_CHARGES>  (1) 
28
1 -0.9
10 -0.15
11 -0.15
12 0.36
13 -0.15
14 -0.15
15 -0.15
16 -0.15
17 0.27
18 -0.15
19 -0.15
2 -0.56
20 -0.15
26 0.36
27 0.15
28 0.15
29 0.15
3 0.49
30 0.15
31 0.15
32 0.15
36 0.15
37 0.15
38 0.15
5 0.41
7 -0.14
8 -0.14
9 -0.14

>  <PUBCHEM_EFFECTIVE_ROTOR_COUNT>  (1) 
2.8

>  <PUBCHEM_PHARMACOPHORE_FEATURES>  (1) 
6
1 1 cation
1 1 donor
1 2 acceptor
6 3 4 5 6 7 8 rings
6 7 8 10 11 15 16 rings
6 9 13 14 18 19 20 rings

>  <PUBCHEM_HEAVY_ATOM_COUNT>  (1) 
20

>  <PUBCHEM_ATOM_DEF_STEREO_COUNT>  (1) 
1

>  <PUBCHEM_ATOM_UDEF_STEREO_COUNT>  (1) 
1

>  <PUBCHEM_BOND_DEF_STEREO_COUNT>  (1) 
0

>  <PUBCHEM_BOND_UDEF_STEREO_COUNT>  (1) 
0

>  <PUBCHEM_ISOTOPIC_ATOM_COUNT>  (1) 
0

>  <PUBCHEM_COMPONENT_COUNT>  (1) 
1

>  <PUBCHEM_CACTVS_TAUTO_COUNT>  (1) 
1

>  <PUBCHEM_CONFORMER_ID>  (1) 
0000B32B00000001

>  <PUBCHEM_MMFF94_ENERGY>  (1) 
60.9021

>  <PUBCHEM_FEATURE_SELFOVERLAP>  (1) 
30.466

>  <PUBCHEM_SHAPE_FINGERPRINT>  (1) 
10764073 3 15509949899147660669
10863032 1 18270679770812352050
11582403 64 17414405343701649193
11725454 13 17559659660136107673
12553582 1 18051132789297810874
12716301 132 18197804187378470351
12788726 201 18263372558405438099
13140716 1 15747826585980773491
13294875 104 16688249205754859544
13538477 17 18408317792061222872
13583140 156 17774706650413369242
13911987 19 15141248801733533334
14022347 108 17617419428769173891
14817 1 8356013845393883303
15375462 189 17971474254286537978
15852999 172 17987806206747578013
16752209 62 18411975892800424379
16945 1 18059010704284709266
17780758 139 18194656247793539418
1813 80 17240490191284667974
19049666 15 17416709984777363646
20600515 1 17841450420465379115
22112679 90 18114476655043193548
232386 152 18121227729283662687
23402539 116 18271796961168986167
23419403 2 17471243751137984524
23493267 7 18272943704219865272
23526113 38 16984086136712649022
23557571 272 17987821681551649269
23559900 14 18200610090145898446
23598288 3 18115887319987811587
23598291 2 17604729857339535452
238 59 16271923749340023924
2748010 2 18125468352864797143
394222 165 17028019451467602053
427121 178 17986409792889622377
4340502 62 18197783202938915217
6992083 37 17967249793152206133
7097593 13 18189041028671968762
77492 1 17895202150732824950
84936 182 17553766153563314409
90316 7 18198348561846347563

>  <PUBCHEM_SHAPE_MULTIPOLES>  (1) 
401.63
5.85
2.84
1.9
3.91
0.74
1.51
-1.35
-2.73
-4.09
-0.3
1.16
-0.08
-0.54

>  <PUBCHEM_SHAPE_SELFOVERLAP>  (1) 
872.486

>  <PUBCHEM_SHAPE_VOLUME>  (1) 
215.2

>  <PUBCHEM_COORDINATE_TYPE>  (1) 
2
5
10

$$$$
