45869
     RDKit          3D

 25 27  0  0  0  0  0  0  0  0999 V2000
    6.8078   -3.0455   -0.4600 Cl  0  0  0  0  0  0  0  0  0  0  0  0
    5.2785    3.9778    0.9888 Cl  0  0  0  0  0  0  0  0  0  0  0  0
   -5.4667    2.4922   -0.5250 O   0  0  0  0  0  0  0  0  0  0  0  0
    4.3880    0.1346    0.1245 N   0  0  0  0  0  0  0  0  0  0  0  0
   -1.0910   -0.9507   -0.4034 N   0  0  0  0  0  0  0  0  0  0  0  0
    3.0107   -0.1377   -0.0088 C   0  0  0  0  0  0  0  0  0  0  0  0
    5.3704   -0.7226   -0.5088 C   0  0  0  0  0  0  0  0  0  0  0  0
    4.8389    1.2834    0.8848 C   0  0  0  0  0  0  0  0  0  0  0  0
   -2.2348   -0.1151   -0.4127 C   0  0  0  0  0  0  0  0  0  0  0  0
   -3.4803   -0.5680    0.0525 C   0  0  0  0  0  0  0  0  0  0  0  0
    0.2804   -0.6785   -0.2721 C   0  0  0  0  0  0  0  0  0  0  0  0
    2.5862   -1.2380   -0.7538 C   0  0  0  0  0  0  0  0  0  0  0  0
    2.0729    0.6927    0.6047 C   0  0  0  0  0  0  0  0  0  0  0  0
   -4.5913    0.3080    0.0209 C   0  0  0  0  0  0  0  0  0  0  0  0
    1.2240   -1.5079   -0.8852 C   0  0  0  0  0  0  0  0  0  0  0  0
    0.7107    0.4229    0.4735 C   0  0  0  0  0  0  0  0  0  0  0  0
    5.6093   -1.9789    0.3140 C   0  0  0  0  0  0  0  0  0  0  0  0
    4.7367    2.5572    0.0607 C   0  0  0  0  0  0  0  0  0  0  0  0
   -2.0869    1.1833   -0.9016 C   0  0  0  0  0  0  0  0  0  0  0  0
   -4.4241    1.6114   -0.4748 C   0  0  0  0  0  0  0  0  0  0  0  0
   -3.6472   -1.8715    0.5478 C   0  0  0  0  0  0  0  0  0  0  0  0
   -3.1793    2.0450   -0.9323 C   0  0  0  0  0  0  0  0  0  0  0  0
   -5.8366   -0.1453    0.4857 C   0  0  0  0  0  0  0  0  0  0  0  0
   -4.8917   -2.3049    1.0059 C   0  0  0  0  0  0  0  0  0  0  0  0
   -5.9844   -1.4435    0.9747 C   0  0  0  0  0  0  0  0  0  0  0  0
  1 17  1  0
  2 18  1  0
  3 20  1  0
  4  6  1  0
  4  7  1  0
  4  8  1  0
  5  9  1  0
  5 11  1  0
  6 12  2  0
  6 13  1  0
  7 17  1  0
  8 18  1  0
  9 10  1  0
  9 19  2  0
 10 14  2  0
 10 21  1  0
 11 15  2  0
 11 16  1  0
 12 15  1  0
 13 16  2  0
 14 20  1  0
 14 23  1  0
 19 22  1  0
 20 22  2  0
 21 24  2  0
 23 25  2  0
 24 25  1  0
M  END
>  <PUBCHEM_COMPOUND_CID>  (1) 
45869

>  <PUBCHEM_CONFORMER_RMSD>  (1) 
0.8

>  <PUBCHEM_CONFORMER_DIVERSEORDER>  (1) 
3
110
103
99
90
5
63
26
57
45
31
93
104
50
111
86
75
54
30
102
105
78
79
34
73
80
76
81
107
29
24
10
47
88
58
115
13
114
38
39
67
1
101
65
95
68
113
60
22
108
82
85
28
21
87
84
52
49
37
94
35
42
74
61
66
112
19
89
70
43
41
83
9
69
33
7
40
97
23
72
77
20
71
53
32
64
109
18
12
62
91
48
6
106
15
46
11
2
55
25
36
8
59
44
17
92
51
56
96
4
27
98
100
14
16

>  <PUBCHEM_MMFF94_PARTIAL_CHARGES>  (1) 
35
1 -0.29
11 0.1
12 -0.15
13 -0.15
15 -0.15
16 -0.15
17 0.29
18 0.29
19 -0.15
2 -0.29
20 0.08
21 -0.15
22 -0.15
23 -0.15
24 -0.15
25 -0.15
3 -0.53
30 0.15
31 0.15
32 0.4
33 0.15
34 0.15
39 0.15
4 -0.84
40 0.15
41 0.15
42 0.15
43 0.15
44 0.15
45 0.45
5 -0.6
6 0.1
7 0.37
8 0.37
9 0.1

>  <PUBCHEM_EFFECTIVE_ROTOR_COUNT>  (1) 
7

>  <PUBCHEM_PHARMACOPHORE_FEATURES>  (1) 
7
1 3 donor
1 4 cation
1 5 cation
1 5 donor
6 10 14 21 23 24 25 rings
6 6 11 12 13 15 16 rings
6 9 10 14 19 20 22 rings

>  <PUBCHEM_HEAVY_ATOM_COUNT>  (1) 
25

>  <PUBCHEM_ATOM_DEF_STEREO_COUNT>  (1) 
0

>  <PUBCHEM_ATOM_UDEF_STEREO_COUNT>  (1) 
0

>  <PUBCHEM_BOND_DEF_STEREO_COUNT>  (1) 
0

>  <PUBCHEM_BOND_UDEF_STEREO_COUNT>  (1) 
0

>  <PUBCHEM_ISOTOPIC_ATOM_COUNT>  (1) 
0

>  <PUBCHEM_COMPONENT_COUNT>  (1) 
1

>  <PUBCHEM_CACTVS_TAUTO_COUNT>  (1) 
9

>  <PUBCHEM_CONFORMER_ID>  (1) 
0000B32D00000003

>  <PUBCHEM_MMFF94_ENERGY>  (1) 
101.1549

>  <PUBCHEM_FEATURE_SELFOVERLAP>  (1) 
35.547

>  <PUBCHEM_SHAPE_FINGERPRINT>  (1) 
10 15 18336540642207945712
10319926 262 18262508209048024034
10835480 77 18411693283894760473
11273773 46 18195532476693429014
11315181 36 17603874399081661359
11524674 6 17704353256185785303
11545043 162 18334858294527214954
12166972 35 18260838089883198140
12236239 1 16660368073539266671
12403259 415 18413388756725853004
12616971 3 17703783722078302902
12925494 130 18411976945574736601
13782708 43 18411704287442769375
14341114 176 18335704961488154721
14933364 13 18408608067462703236
15348495 7 18408885152713870698
15475509 35 17313648379767298098
16760501 71 18195245739838156272
17844677 252 18410017632473719752
18222031 100 16225765229241122078
18927931 339 18186526497277497311
19433438 28 18408040706171719454
21033648 29 18201987833686261545
21130935 74 18339930406444590067
21267235 1 18040726870314754771
21315759 148 18188213216211308946
21315764 268 18409445903607204004
22122407 14 16773251673136901771
23559900 14 18337950061084565758
23569914 2 17687412014931635229
23569943 247 16082761518756552754
2747138 104 17896331371092733627
4073 2 18040723575726893850
4144715 1 18333737935170272048
4214541 1 18334577906583158695
465052 167 18342178830962463694
5104073 3 18335697239253125080
57307002 103 18342460370299970842
9995097 60 18341330007215485782

>  <PUBCHEM_SHAPE_MULTIPOLES>  (1) 
502.4
18.03
3.46
0.99
4.25
1.89
0.04
-2.24
2.79
5.14
0.41
-0.23
0.08
3.31

>  <PUBCHEM_SHAPE_SELFOVERLAP>  (1) 
1059.671

>  <PUBCHEM_SHAPE_VOLUME>  (1) 
283.7

>  <PUBCHEM_COORDINATE_TYPE>  (1) 
2
5
10

$$$$
