45865
     RDKit          3D

 20 21  0  0  0  0  0  0  0  0999 V2000
   -2.7591    1.9894   -0.0003 O   0  0  0  0  0  0  0  0  0  0  0  0
    1.4434   -2.5402   -1.0976 O   0  0  0  0  0  0  0  0  0  0  0  0
    1.4424   -2.5406    1.0977 O   0  0  0  0  0  0  0  0  0  0  0  0
    3.4609   -0.5687    1.0973 O   0  0  0  0  0  0  0  0  0  0  0  0
    3.4616   -0.5666   -1.0979 O   0  0  0  0  0  0  0  0  0  0  0  0
   -4.1165   -0.8497    1.0983 O   0  0  0  0  0  0  0  0  0  0  0  0
   -4.1184   -0.8492   -1.0970 O   0  0  0  0  0  0  0  0  0  0  0  0
    1.0635   -2.0738    0.0000 N   0  0  0  0  0  0  0  0  0  0  0  0
    3.0030   -0.1780   -0.0001 N   0  0  0  0  0  0  0  0  0  0  0  0
   -3.5335   -0.6903    0.0002 N   0  0  0  0  0  0  0  0  0  0  0  0
    0.5598    0.3807   -0.0001 C   0  0  0  0  0  0  0  0  0  0  0  0
   -0.4294    1.3929   -0.0002 C   0  0  0  0  0  0  0  0  0  0  0  0
    0.1637   -0.9667   -0.0003 C   0  0  0  0  0  0  0  0  0  0  0  0
   -1.7854    1.0278   -0.0006 C   0  0  0  0  0  0  0  0  0  0  0  0
    1.9160    0.7457    0.0004 C   0  0  0  0  0  0  0  0  0  0  0  0
   -2.1608   -0.3159   -0.0009 C   0  0  0  0  0  0  0  0  0  0  0  0
   -1.1881   -1.3112   -0.0005 C   0  0  0  0  0  0  0  0  0  0  0  0
   -0.0332    2.7402    0.0002 C   0  0  0  0  0  0  0  0  0  0  0  0
    2.2914    2.0894    0.0008 C   0  0  0  0  0  0  0  0  0  0  0  0
    1.3188    3.0848    0.0007 C   0  0  0  0  0  0  0  0  0  0  0  0
  1 14  1  0
  2  8  1  0
  3  8  2  0
  4  9  1  0
  5  9  2  0
  6 10  1  0
  7 10  2  0
  8 13  1  0
  9 15  1  0
 10 16  1  0
 11 12  1  0
 11 13  2  0
 11 15  1  0
 12 14  2  0
 12 18  1  0
 13 17  1  0
 14 16  1  0
 15 19  2  0
 16 17  2  0
 18 20  2  0
 19 20  1  0
M  CHG  6   2  -1   4  -1   6  -1   8   1   9   1  10   1
M  END
>  <PUBCHEM_COMPOUND_CID>  (1) 
45865

>  <PUBCHEM_CONFORMER_RMSD>  (1) 
0.6

>  <PUBCHEM_CONFORMER_DIVERSEORDER>  (1) 
1

>  <PUBCHEM_MMFF94_PARTIAL_CHARGES>  (1) 
23
1 -0.53
10 0.91
13 0.13
14 0.08
15 0.13
16 0.13
17 -0.15
18 -0.15
19 -0.15
2 -0.52
20 -0.15
21 0.15
22 0.15
23 0.15
24 0.15
25 0.45
3 -0.52
4 -0.52
5 -0.52
6 -0.52
7 -0.52
8 0.91
9 0.91

>  <PUBCHEM_EFFECTIVE_ROTOR_COUNT>  (1) 
3

>  <PUBCHEM_PHARMACOPHORE_FEATURES>  (1) 
12
1 1 donor
1 2 acceptor
1 2 anion
1 3 acceptor
1 4 acceptor
1 4 anion
1 5 acceptor
1 6 acceptor
1 6 anion
1 7 acceptor
6 11 12 13 14 16 17 rings
6 11 12 15 18 19 20 rings

>  <PUBCHEM_HEAVY_ATOM_COUNT>  (1) 
20

>  <PUBCHEM_ATOM_DEF_STEREO_COUNT>  (1) 
0

>  <PUBCHEM_ATOM_UDEF_STEREO_COUNT>  (1) 
0

>  <PUBCHEM_BOND_DEF_STEREO_COUNT>  (1) 
0

>  <PUBCHEM_BOND_UDEF_STEREO_COUNT>  (1) 
0

>  <PUBCHEM_ISOTOPIC_ATOM_COUNT>  (1) 
0

>  <PUBCHEM_COMPONENT_COUNT>  (1) 
1

>  <PUBCHEM_CACTVS_TAUTO_COUNT>  (1) 
6

>  <PUBCHEM_CONFORMER_ID>  (1) 
0000B32900000001

>  <PUBCHEM_MMFF94_ENERGY>  (1) 
86.5173

>  <PUBCHEM_FEATURE_SELFOVERLAP>  (1) 
61.176

>  <PUBCHEM_SHAPE_FINGERPRINT>  (1) 
10411042 1 18194683661858190819
10967382 1 18266740370842153284
11471102 20 18338230578726395349
11680986 33 18124876759368023977
12382932 28 18267297634417007128
12553582 1 18410297990732390827
13140716 1 18194120956680313467
13380535 76 17979914140080471532
14178342 30 18268703905620793512
14251717 144 18340762766737000151
14790565 3 18338537303394605924
16945 1 18410575110591255175
18186145 218 18268717288717489605
193761 8 18122344571077987268
20645477 70 18339353180224838487
20739085 24 18190484798929611569
20905425 154 18124877854954125254
21501502 16 18264768749104202043
2255824 54 18338239391566971340
23184049 29 17976254638765245562
2334 1 17762337315919435063
23388829 49 18342164583795715701
23419403 2 17608328490394040780
23463225 33 18408601470007990080
238 59 17905001011307965973
2748010 2 18196651787523359535
335352 9 18410573951219299413
34934 24 18266453196554636629
7364860 26 18341897440972144301
7832392 63 18197502813981995977
81228 2 17620187633816782283

>  <PUBCHEM_SHAPE_MULTIPOLES>  (1) 
355.56
5.64
3.14
0.87
3.88
0.76
0
-1.22
0
-1.55
0
-0.05
-0.39
0

>  <PUBCHEM_SHAPE_SELFOVERLAP>  (1) 
787.262

>  <PUBCHEM_SHAPE_VOLUME>  (1) 
188.3

>  <PUBCHEM_COORDINATE_TYPE>  (1) 
2
5
10

$$$$
