45870
     RDKit          3D

 23 26  0  0  0  0  0  0  0  0999 V2000
    0.1527    0.0719    0.5502 N   0  0  0  0  0  0  0  0  0  0  0  0
   -0.4254    0.2704   -0.5422 N   0  0  0  0  0  0  0  0  0  0  0  0
    3.0054   -3.7670   -0.0679 N   0  0  0  0  0  0  0  0  0  0  0  0
    2.5489    0.4205    0.1741 C   0  0  0  0  0  0  0  0  0  0  0  0
    3.8280   -0.1394   -0.0568 C   0  0  0  0  0  0  0  0  0  0  0  0
    1.4440   -0.4326    0.3198 C   0  0  0  0  0  0  0  0  0  0  0  0
   -2.8222   -0.0783   -0.1676 C   0  0  0  0  0  0  0  0  0  0  0  0
   -4.1013    0.4821    0.0622 C   0  0  0  0  0  0  0  0  0  0  0  0
    3.9627   -1.5352   -0.1347 C   0  0  0  0  0  0  0  0  0  0  0  0
   -1.7152    0.7740   -0.3126 C   0  0  0  0  0  0  0  0  0  0  0  0
    2.8524   -2.3670    0.0132 C   0  0  0  0  0  0  0  0  0  0  0  0
    1.5945   -1.8165    0.2399 C   0  0  0  0  0  0  0  0  0  0  0  0
    2.4139    1.8161    0.2519 C   0  0  0  0  0  0  0  0  0  0  0  0
    4.9345    0.7130   -0.2031 C   0  0  0  0  0  0  0  0  0  0  0  0
   -2.6877   -1.4740   -0.2454 C   0  0  0  0  0  0  0  0  0  0  0  0
   -4.2358    1.8779    0.1403 C   0  0  0  0  0  0  0  0  0  0  0  0
   -5.2082   -0.3698    0.2074 C   0  0  0  0  0  0  0  0  0  0  0  0
   -1.8673    2.1586   -0.2326 C   0  0  0  0  0  0  0  0  0  0  0  0
    3.5241    2.6480    0.1046 C   0  0  0  0  0  0  0  0  0  0  0  0
    4.7820    2.0975   -0.1226 C   0  0  0  0  0  0  0  0  0  0  0  0
   -3.1251    2.7095   -0.0063 C   0  0  0  0  0  0  0  0  0  0  0  0
   -3.7985   -2.3054   -0.0989 C   0  0  0  0  0  0  0  0  0  0  0  0
   -5.0564   -1.7543    0.1269 C   0  0  0  0  0  0  0  0  0  0  0  0
  1  2  2  0
  1  6  1  0
  2 10  1  0
  3 11  1  0
  4  5  1  0
  4  6  2  0
  4 13  1  0
  5  9  2  0
  5 14  1  0
  6 12  1  0
  7  8  1  0
  7 10  1  0
  7 15  2  0
  8 16  1  0
  8 17  2  0
  9 11  1  0
 10 18  2  0
 11 12  2  0
 13 19  2  0
 14 20  2  0
 15 22  1  0
 16 21  2  0
 17 23  1  0
 18 21  1  0
 19 20  1  0
 22 23  2  0
M  END
>  <PUBCHEM_COMPOUND_CID>  (1) 
45870

>  <PUBCHEM_CONFORMER_RMSD>  (1) 
0.6

>  <PUBCHEM_CONFORMER_DIVERSEORDER>  (1) 
1
3
2
6
4
5
8
7

>  <PUBCHEM_MMFF94_PARTIAL_CHARGES>  (1) 
34
1 -0.18
10 0.18
11 0.1
12 -0.15
13 -0.15
14 -0.15
15 -0.15
16 -0.15
17 -0.15
18 -0.15
19 -0.15
2 -0.18
20 -0.15
21 -0.15
22 -0.15
23 -0.15
24 0.15
25 0.15
26 0.15
27 0.15
28 0.15
29 0.15
3 -0.9
30 0.15
31 0.15
32 0.15
33 0.15
34 0.15
35 0.15
36 0.15
37 0.4
38 0.4
6 0.18
9 -0.15

>  <PUBCHEM_EFFECTIVE_ROTOR_COUNT>  (1) 
2

>  <PUBCHEM_PHARMACOPHORE_FEATURES>  (1) 
6
1 3 cation
1 3 donor
6 4 5 13 14 19 20 rings
6 4 5 6 9 11 12 rings
6 7 8 10 16 18 21 rings
6 7 8 15 17 22 23 rings

>  <PUBCHEM_HEAVY_ATOM_COUNT>  (1) 
23

>  <PUBCHEM_ATOM_DEF_STEREO_COUNT>  (1) 
0

>  <PUBCHEM_ATOM_UDEF_STEREO_COUNT>  (1) 
0

>  <PUBCHEM_BOND_DEF_STEREO_COUNT>  (1) 
0

>  <PUBCHEM_BOND_UDEF_STEREO_COUNT>  (1) 
0

>  <PUBCHEM_ISOTOPIC_ATOM_COUNT>  (1) 
0

>  <PUBCHEM_COMPONENT_COUNT>  (1) 
1

>  <PUBCHEM_CACTVS_TAUTO_COUNT>  (1) 
1

>  <PUBCHEM_CONFORMER_ID>  (1) 
0000B32E00000001

>  <PUBCHEM_MMFF94_ENERGY>  (1) 
84.3361

>  <PUBCHEM_FEATURE_SELFOVERLAP>  (1) 
30.499

>  <PUBCHEM_SHAPE_FINGERPRINT>  (1) 
10074138 170 17188092114354106208
10595046 47 18410855490198214113
10616163 171 18412544327474633463
11405975 8 18339360738792298961
11552529 35 17988640848296233923
11578080 2 17314490566080452349
12107183 9 17836370350116205537
12730499 353 18337117860126886322
12925494 130 18342734071075516809
13009979 54 17558555690991525570
13167823 11 18412262822237823407
13224815 77 18408037420532261473
13533116 47 18342170051742861647
13583140 156 17917413337622736760
13631057 29 18198904901919102395
14341114 176 18412269406528215625
14790565 3 18122349240003220532
14866123 147 16469245142644976058
15196674 1 18410293601122826925
15250474 111 18342725339058597359
15961568 22 17749110045272874420
17349148 13 17386007311966430061
17492 89 18410855421563848035
17844677 252 18340495473510263609
1813 80 17167867460980534853
18681886 176 18340764931996772384
20286276 3 18338804403183705515
20645477 70 18273218569268385230
21065198 57 18266740190669648805
21267235 1 18410582798434931055
21618674 54 18410290298303571285
21673915 165 18409166640337943703
221490 88 18410016507324351970
22393880 68 18341058441134009006
23559900 14 18269266868274311586
239999 70 18201445774802090006
245318 6 16954800975383679380
350125 39 18410855486430858444
3545911 37 18410012134794475949
4073 2 18187372051092678811
4214541 1 18411136892508822265
4280585 95 17695075401267115454
474 4 17821733874755500524
5104073 3 18410291380640618497
543358 83 18340772516444572368
59755656 215 18409451405739612334
6287921 2 18260556631822534892
6442390 28 18267019647428312304
6823239 73 18058179327945647862
77779 3 18411138004694264393
9709674 26 18408889512100803995

>  <PUBCHEM_SHAPE_MULTIPOLES>  (1) 
458.39
12.07
3.51
0.66
2.65
0.93
0
-0.28
0
-1.35
-0.03
0.01
-0.02
0.03

>  <PUBCHEM_SHAPE_SELFOVERLAP>  (1) 
1035.35

>  <PUBCHEM_SHAPE_VOLUME>  (1) 
238.5

>  <PUBCHEM_COORDINATE_TYPE>  (1) 
2
5
10

$$$$
