45871
     RDKit          3D

 20 22  0  0  1  0  0  0  0  0999 V2000
    0.5600   -0.9451    0.8927 N   0  0  0  0  0  0  0  0  0  0  0  0
    1.5386   -1.7453    0.2239 C   0  0  0  0  0  0  0  0  0  0  0  0
    2.9335   -1.4394    0.7992 C   0  0  0  0  0  0  0  0  0  0  0  0
   -0.7125   -0.6760    0.3468 C   0  0  0  0  0  0  0  0  0  0  0  0
    1.1487   -3.2150    0.3832 C   0  0  0  0  0  0  0  0  0  0  0  0
    3.5350   -0.1567    0.2769 C   0  0  0  0  0  0  0  0  0  0  0  0
   -1.6217    0.1120    1.0528 C   0  0  0  0  0  0  0  0  0  0  0  0
   -2.8921    0.3899    0.5226 C   0  0  0  0  0  0  0  0  0  0  0  0
   -3.2453   -0.1391   -0.7418 C   0  0  0  0  0  0  0  0  0  0  0  0
   -1.0598   -1.1965   -0.8964 C   0  0  0  0  0  0  0  0  0  0  0  0
   -2.3176   -0.9307   -1.4384 C   0  0  0  0  0  0  0  0  0  0  0  0
    4.3142   -0.1892   -0.8687 C   0  0  0  0  0  0  0  0  0  0  0  0
    3.2966    1.0297    0.9524 C   0  0  0  0  0  0  0  0  0  0  0  0
   -3.8198    1.1811    1.2194 C   0  0  0  0  0  0  0  0  0  0  0  0
   -4.5158    0.1390   -1.2721 C   0  0  0  0  0  0  0  0  0  0  0  0
    4.8697    0.9956   -1.3515 C   0  0  0  0  0  0  0  0  0  0  0  0
    3.8521    2.2145    0.4694 C   0  0  0  0  0  0  0  0  0  0  0  0
   -5.0776    1.4468    0.6777 C   0  0  0  0  0  0  0  0  0  0  0  0
   -5.4250    0.9269   -0.5656 C   0  0  0  0  0  0  0  0  0  0  0  0
    4.6387    2.1974   -0.6825 C   0  0  0  0  0  0  0  0  0  0  0  0
  1  2  1  0
  1  4  1  0
  2  3  1  0
  2  5  1  0
  3  6  1  0
  4  7  2  0
  4 10  1  0
  6 12  2  0
  6 13  1  0
  7  8  1  0
  8  9  2  0
  8 14  1  0
  9 11  1  0
  9 15  1  0
 10 11  2  0
 12 16  1  0
 13 17  2  0
 14 18  2  0
 15 19  2  0
 16 20  2  0
 17 20  1  0
 18 19  1  0
M  END
>  <PUBCHEM_COMPOUND_CID>  (1) 
45871

>  <PUBCHEM_CONFORMER_RMSD>  (1) 
0.6

>  <PUBCHEM_CONFORMER_DIVERSEORDER>  (1) 
6
133
62
21
59
65
81
100
82
42
33
127
19
24
91
124
14
75
10
84
27
48
115
141
74
15
53
123
49
9
1
125
110
35
108
101
87
26
97
17
104
136
140
113
121
83
29
12
138
52
107
67
20
94
40
126
111
5
105
56
89
122
92
11
131
102
95
116
41
88
120
114
54
57
90
7
129
106
55
98
130
60
86
68
63
117
18
76
58
80
31
32
47
143
119
139
45
73
46
128
71
109
77
13
30
22
112
69
99
4
79
8
144
134
135
103
23
38
66
142
51
34
25
44
36
50
39
16
3
43
28
61
85
64
2
118
78
37
93
96
70
132
72
137

>  <PUBCHEM_MMFF94_PARTIAL_CHARGES>  (1) 
30
1 -0.87
10 -0.15
11 -0.15
12 -0.15
13 -0.15
14 -0.15
15 -0.15
16 -0.15
17 -0.15
18 -0.15
19 -0.15
2 0.37
20 -0.15
24 0.4
28 0.15
29 0.15
3 0.14
30 0.15
31 0.15
32 0.15
33 0.15
34 0.15
35 0.15
36 0.15
37 0.15
38 0.15
39 0.15
4 0.1
6 -0.14
7 -0.15

>  <PUBCHEM_EFFECTIVE_ROTOR_COUNT>  (1) 
4

>  <PUBCHEM_PHARMACOPHORE_FEATURES>  (1) 
5
1 1 cation
1 1 donor
6 4 7 8 9 10 11 rings
6 6 12 13 16 17 20 rings
6 8 9 14 15 18 19 rings

>  <PUBCHEM_HEAVY_ATOM_COUNT>  (1) 
20

>  <PUBCHEM_ATOM_DEF_STEREO_COUNT>  (1) 
0

>  <PUBCHEM_ATOM_UDEF_STEREO_COUNT>  (1) 
1

>  <PUBCHEM_BOND_DEF_STEREO_COUNT>  (1) 
0

>  <PUBCHEM_BOND_UDEF_STEREO_COUNT>  (1) 
0

>  <PUBCHEM_ISOTOPIC_ATOM_COUNT>  (1) 
0

>  <PUBCHEM_COMPONENT_COUNT>  (1) 
1

>  <PUBCHEM_CACTVS_TAUTO_COUNT>  (1) 
1

>  <PUBCHEM_CONFORMER_ID>  (1) 
0000B32F00000006

>  <PUBCHEM_MMFF94_ENERGY>  (1) 
67.5859

>  <PUBCHEM_FEATURE_SELFOVERLAP>  (1) 
25.398

>  <PUBCHEM_SHAPE_FINGERPRINT>  (1) 
10319926 262 14779810630157948696
10498660 4 18337392750860885192
10670039 82 17917154900919446520
11796584 16 13901907786767655333
12363563 72 11455902372956865802
12616971 3 18339349778125787275
12633257 1 15430319195572094332
12730499 353 18334022678527703554
12839892 36 13406796610365078657
12892183 10 13190608465131852678
13544653 18 10880000155227639242
13828863 39 16010457866073644700
13955234 65 18042683914496114002
1420 369 9079122158868540820
14251740 57 11818988557200358992
14251764 30 12325336709108022144
14251764 75 17461741763467726652
14528608 73 18413103974524104221
14774955 27 18260548939404043476
14840074 17 18410018728075983133
14848178 5 9799692579972362309
14848178 96 18409165549828122928
15183329 4 17845947247203208484
15210252 30 18335142042175420336
15342168 16 18259987097583774798
15475509 8 15195295205470252345
15885798 251 9943535123788005578
17349148 13 10953744378537944833
17857418 61 7925624493189245809
17870717 6 15769779057120477701
17959699 21 18342174449304167025
1813 80 17695064401560626686
18222031 100 8862948294617885312
193927 3 11527956676823050252
19752476 56 18201997776894462112
19784866 34 18409164437251953042
19862831 5 17632297890992328882
204376 136 18186802478452914443
20567600 234 17240491338019473125
20775530 9 13396147831839800196
21033648 29 16805593746630898622
21315764 119 16128108732249530853
21857420 4 14470139948657765820
22079108 93 18114186345709151779
22849339 104 16916777544117476463
23366157 5 17628364766529071735
23559900 14 18267578022620013618
2637199 183 18343026588306759934
3004659 81 17561086848363161342
3472631 163 18343303690532127053
4409770 3 15604005301873937214
474 4 18408601461460208178
5104073 3 18040432204707475866
543368 44 18272085037225951177
57724786 102 17894352215956102276
6034566 193 17970359328036941620
633830 44 18413387652982665726
7808743 9 17751931461161078492
7970288 3 10231491700291702124
960060 61 13830130624345922016

>  <PUBCHEM_SHAPE_MULTIPOLES>  (1) 
406.61
12.42
2.4
1.35
2.36
0.85
-0.2
-8.38
-2.52
-2.39
0.33
0.29
-0.1
-1.21

>  <PUBCHEM_SHAPE_SELFOVERLAP>  (1) 
882.815

>  <PUBCHEM_SHAPE_VOLUME>  (1) 
221.9

>  <PUBCHEM_COORDINATE_TYPE>  (1) 
2
5
10

$$$$
