45878
     RDKit          3D

 22 24  0  0  1  0  0  0  0  0999 V2000
   -4.2421   -2.0682   -0.2460 Cl  0  0  0  0  0  0  0  0  0  0  0  0
    1.4651   -0.9669    0.6215 O   0  0  0  0  0  0  0  0  0  0  0  0
   -4.1898    0.8080   -0.6002 N   0  0  0  0  0  0  0  0  0  0  0  0
   -3.1799    0.7740    0.4632 C   0  0  0  0  0  0  0  0  0  0  0  0
   -2.5413    2.1713    0.5172 C   0  0  0  0  0  0  0  0  0  0  0  0
   -1.3438    2.1798    1.4565 C   0  0  0  0  0  0  0  0  0  0  0  0
   -2.1577   -0.3425    0.3085 C   0  0  0  0  0  0  0  0  0  0  0  0
   -0.2607    1.2505    0.9204 C   0  0  0  0  0  0  0  0  0  0  0  0
   -0.7873   -0.1145    0.5533 C   0  0  0  0  0  0  0  0  0  0  0  0
    0.1306   -1.1695    0.4183 C   0  0  0  0  0  0  0  0  0  0  0  0
   -2.5755   -1.6502    0.0001 C   0  0  0  0  0  0  0  0  0  0  0  0
   -3.5491    0.9999   -1.8981 C   0  0  0  0  0  0  0  0  0  0  0  0
   -5.1597    1.8682   -0.3409 C   0  0  0  0  0  0  0  0  0  0  0  0
   -0.3011   -2.4507    0.0837 C   0  0  0  0  0  0  0  0  0  0  0  0
   -1.6547   -2.6925   -0.1181 C   0  0  0  0  0  0  0  0  0  0  0  0
    2.3349   -1.2481   -0.4717 C   0  0  0  0  0  0  0  0  0  0  0  0
    3.5476   -0.3702   -0.3711 C   0  0  0  0  0  0  0  0  0  0  0  0
    3.5470    0.8775   -0.9849 C   0  0  0  0  0  0  0  0  0  0  0  0
    4.6608   -0.8119    0.3352 C   0  0  0  0  0  0  0  0  0  0  0  0
    4.6741    1.6938   -0.8913 C   0  0  0  0  0  0  0  0  0  0  0  0
    5.7879    0.0046    0.4288 C   0  0  0  0  0  0  0  0  0  0  0  0
    5.7945    1.2575   -0.1845 C   0  0  0  0  0  0  0  0  0  0  0  0
  1 11  1  0
  2 10  1  0
  2 16  1  0
  3  4  1  0
  3 12  1  0
  3 13  1  0
  4  5  1  0
  4  7  1  0
  5  6  1  0
  6  8  1  0
  7  9  2  0
  7 11  1  0
  8  9  1  0
  9 10  1  0
 10 14  2  0
 11 15  2  0
 14 15  1  0
 16 17  1  0
 17 18  2  0
 17 19  1  0
 18 20  1  0
 19 21  2  0
 20 22  2  0
 21 22  1  0
M  END
>  <PUBCHEM_COMPOUND_CID>  (1) 
45878

>  <PUBCHEM_CONFORMER_RMSD>  (1) 
0.8

>  <PUBCHEM_CONFORMER_DIVERSEORDER>  (1) 
1
11
17
14
22
8
18
23
24
3
15
19
9
7
4
25
5
20
10
21
13
6
2
12
16

>  <PUBCHEM_MMFF94_PARTIAL_CHARGES>  (1) 
27
1 -0.18
10 0.08
11 0.18
12 0.27
13 0.27
14 -0.15
15 -0.15
16 0.42
17 -0.14
18 -0.15
19 -0.15
2 -0.36
20 -0.15
21 -0.15
22 -0.15
3 -0.81
36 0.15
37 0.15
4 0.41
40 0.15
41 0.15
42 0.15
43 0.15
44 0.15
7 -0.14
8 0.14
9 -0.14

>  <PUBCHEM_EFFECTIVE_ROTOR_COUNT>  (1) 
4.8

>  <PUBCHEM_PHARMACOPHORE_FEATURES>  (1) 
5
1 2 acceptor
1 3 cation
6 17 18 19 20 21 22 rings
6 4 5 6 7 8 9 rings
6 7 9 10 11 14 15 rings

>  <PUBCHEM_HEAVY_ATOM_COUNT>  (1) 
22

>  <PUBCHEM_ATOM_DEF_STEREO_COUNT>  (1) 
0

>  <PUBCHEM_ATOM_UDEF_STEREO_COUNT>  (1) 
1

>  <PUBCHEM_BOND_DEF_STEREO_COUNT>  (1) 
0

>  <PUBCHEM_BOND_UDEF_STEREO_COUNT>  (1) 
0

>  <PUBCHEM_ISOTOPIC_ATOM_COUNT>  (1) 
0

>  <PUBCHEM_COMPONENT_COUNT>  (1) 
1

>  <PUBCHEM_CACTVS_TAUTO_COUNT>  (1) 
1

>  <PUBCHEM_CONFORMER_ID>  (1) 
0000B33600000001

>  <PUBCHEM_MMFF94_ENERGY>  (1) 
76.4113

>  <PUBCHEM_FEATURE_SELFOVERLAP>  (1) 
25.392

>  <PUBCHEM_SHAPE_FINGERPRINT>  (1) 
10014705 185 18333450941107695214
10366900 7 17489870436480911432
10411042 1 17835239322256853051
10498660 4 18342183275788787024
10906281 52 17988371347820239521
11961588 58 17968361387203402967
12107183 9 18118395151919804722
12166972 35 18114465668880977252
12173636 292 18270688562494186821
12236239 1 18186235139422497474
12293681 160 18129936768125432137
12403814 3 17894632556581047845
13383661 66 14547595028180245869
13583140 156 17386013840395744344
14767858 380 18342442735074433797
14790565 3 18127140667207019241
15196674 1 18409451405776600246
15420108 30 17043167166065963738
15461852 350 17560790075097713286
15463212 79 18113610196852056163
15840311 113 17909563757611334153
17492 54 18267283393033207181
17492 89 18411424994948021250
17959699 21 18261392282271318780
1813 80 12751232589128280850
20101258 96 17761501687019937899
20511986 3 18261660563483224360
20715895 44 18263360291731070100
20871999 31 18341607153128769735
21049683 271 17544485609683815447
21236236 1 18411138060988054499
23227448 37 18335704965661699196
23402539 116 18341889701773295542
235170 7 15769777910259000356
23557571 272 18200885070794700302
23559900 14 18272373023753066110
2748010 2 18198603606010946091
2838139 119 17241591858843414077
329604 57 18338518671762529279
350125 39 18338239362293055891
351380 3 10087635996959370996
394222 165 17970903354733728659
4214541 1 18408605885661527814
474 4 17968103027682754426
5104073 3 18186517726795595362
5283173 99 18411131454832429128
6786 2 12926261229397618235
7237137 82 18338514244009891551
9709674 26 17988092071555548174
9981440 41 18408044030762010410

>  <PUBCHEM_SHAPE_MULTIPOLES>  (1) 
443.77
12.12
2.79
1.11
13.36
0.58
0.21
-4.39
2.59
-2.51
-0.16
-0.44
-0.53
-0.45

>  <PUBCHEM_SHAPE_SELFOVERLAP>  (1) 
941.348

>  <PUBCHEM_SHAPE_VOLUME>  (1) 
248.9

>  <PUBCHEM_COORDINATE_TYPE>  (1) 
2
5
10

$$$$
