45876
     RDKit          3D

 18 19  0  0  1  0  0  0  0  0999 V2000
   -2.5543    2.4080   -0.8896 Cl  0  0  0  0  0  0  0  0  0  0  0  0
    2.6275    0.2264    0.8213 O   0  0  0  0  0  0  0  0  0  0  0  0
   -3.3578   -0.2154    0.0451 N   0  0  0  0  0  0  0  0  0  0  0  0
   -2.0721   -0.6474   -0.5138 C   0  0  0  0  0  0  0  0  0  0  0  0
   -1.8303   -2.0828   -0.0193 C   0  0  0  0  0  0  0  0  0  0  0  0
   -0.4280   -2.5486   -0.3840 C   0  0  0  0  0  0  0  0  0  0  0  0
   -0.9165    0.2924   -0.2026 C   0  0  0  0  0  0  0  0  0  0  0  0
    0.6050   -1.6852    0.3313 C   0  0  0  0  0  0  0  0  0  0  0  0
    0.3494   -0.2076    0.1679 C   0  0  0  0  0  0  0  0  0  0  0  0
    1.4018    0.6847    0.4330 C   0  0  0  0  0  0  0  0  0  0  0  0
   -1.0681    1.6819   -0.3635 C   0  0  0  0  0  0  0  0  0  0  0  0
   -3.2697   -0.1225    1.4995 C   0  0  0  0  0  0  0  0  0  0  0  0
   -4.4160   -1.1403   -0.3507 C   0  0  0  0  0  0  0  0  0  0  0  0
    1.2219    2.0590    0.2956 C   0  0  0  0  0  0  0  0  0  0  0  0
   -0.0106    2.5569   -0.1097 C   0  0  0  0  0  0  0  0  0  0  0  0
    3.7321    0.5418   -0.0219 C   0  0  0  0  0  0  0  0  0  0  0  0
    4.7717   -0.5180    0.1328 C   0  0  0  0  0  0  0  0  0  0  0  0
    5.2139   -1.2831   -0.8713 C   0  0  0  0  0  0  0  0  0  0  0  0
  1 11  1  0
  2 10  1  0
  2 16  1  0
  3  4  1  0
  3 12  1  0
  3 13  1  0
  4  5  1  0
  4  7  1  0
  5  6  1  0
  6  8  1  0
  7  9  2  0
  7 11  1  0
  8  9  1  0
  9 10  1  0
 10 14  2  0
 11 15  2  0
 14 15  1  0
 16 17  1  0
 17 18  2  0
M  END
>  <PUBCHEM_COMPOUND_CID>  (1) 
45876

>  <PUBCHEM_CONFORMER_RMSD>  (1) 
0.6

>  <PUBCHEM_CONFORMER_DIVERSEORDER>  (1) 
1
16
2
14
9
13
6
3
11
10
5
17
15
12
4
8
7

>  <PUBCHEM_MMFF94_PARTIAL_CHARGES>  (1) 
21
1 -0.18
10 0.08
11 0.18
12 0.27
13 0.27
14 -0.15
15 -0.15
16 0.42
17 -0.29
18 -0.3
2 -0.36
3 -0.81
32 0.15
33 0.15
36 0.15
37 0.15
38 0.15
4 0.41
7 -0.14
8 0.14
9 -0.14

>  <PUBCHEM_EFFECTIVE_ROTOR_COUNT>  (1) 
4.8

>  <PUBCHEM_PHARMACOPHORE_FEATURES>  (1) 
5
1 18 hydrophobe
1 2 acceptor
1 3 cation
6 4 5 6 7 8 9 rings
6 7 9 10 11 14 15 rings

>  <PUBCHEM_HEAVY_ATOM_COUNT>  (1) 
18

>  <PUBCHEM_ATOM_DEF_STEREO_COUNT>  (1) 
0

>  <PUBCHEM_ATOM_UDEF_STEREO_COUNT>  (1) 
1

>  <PUBCHEM_BOND_DEF_STEREO_COUNT>  (1) 
0

>  <PUBCHEM_BOND_UDEF_STEREO_COUNT>  (1) 
0

>  <PUBCHEM_ISOTOPIC_ATOM_COUNT>  (1) 
0

>  <PUBCHEM_COMPONENT_COUNT>  (1) 
1

>  <PUBCHEM_CACTVS_TAUTO_COUNT>  (1) 
1

>  <PUBCHEM_CONFORMER_ID>  (1) 
0000B33400000001

>  <PUBCHEM_MMFF94_ENERGY>  (1) 
60.4463

>  <PUBCHEM_FEATURE_SELFOVERLAP>  (1) 
25.392

>  <PUBCHEM_SHAPE_FINGERPRINT>  (1) 
104564 63 18335978679849036721
10693767 8 18129922560210704135
10759866 29 17823132316233464330
10967382 1 18193268817999453965
11132069 177 18340197591906097584
11458722 379 18409729521988853606
11543360 7 14996284738523832488
11578080 2 16735506353177022655
11680986 33 17976819010516067011
12011746 2 18408035204766895975
12032990 46 18411136948290584656
12186901 62 18261110725579479380
12403259 226 18268141136298363825
12553582 1 18336251423167829818
13140716 1 18120929770301260331
13221675 6 18335697286376341658
13862211 1 18410567405314885858
14022347 108 18114733936590542720
14790565 3 18410020917944970181
15099037 51 18410289237525913551
15196674 1 18411134766162446085
15209289 33 18272936028670163218
15442244 35 18196935689008860331
15848702 151 17703799097639437214
16752209 62 18334845100561508088
16945 1 18264190547758770969
17357779 13 18336809970943128037
17804303 29 18412263960367162088
19141452 34 18060137677865181150
193761 8 17978504235360577371
19591789 44 18410854356469415722
20028762 73 17985547994949738223
20510252 161 18343014484894053192
20871999 31 18335424552222509396
21029758 27 18187090571763010652
21267235 1 18410580608091631667
22182313 1 18195256520273907143
2334 1 17688303903775975779
23402539 116 18343014480487874286
23419403 2 15394488448158903931
23493267 7 17676762085401041113
23557571 272 18342179964791293908
23559900 14 18270955753591358368
23566358 2 18197218036244208318
2748010 2 18266733572188206397
3286 77 17274255179381130713
335352 9 18410854374097496357
43471831 8 18262230002768551690
465052 167 18116445906544805459
559249 180 18116707410292965114
59755656 215 18410290273109034175
6992083 37 18269000962854547459
7364860 26 17837487814855348176

>  <PUBCHEM_SHAPE_MULTIPOLES>  (1) 
361.45
7.92
2.78
0.92
7.99
0.58
0.12
-2.86
-0.74
-1.09
-0.5
-0.29
0.03
0.61

>  <PUBCHEM_SHAPE_SELFOVERLAP>  (1) 
743.624

>  <PUBCHEM_SHAPE_VOLUME>  (1) 
209.2

>  <PUBCHEM_COORDINATE_TYPE>  (1) 
2
5
10

$$$$
