45897
     RDKit          3D

 26 27  0  0  0  0  0  0  0  0999 V2000
    4.4840   -0.7330    0.5823 O   0  0  0  0  0  0  0  0  0  0  0  0
   -1.8180    0.4957    0.4150 N   0  0  0  0  0  0  0  0  0  0  0  0
   -1.5835   -1.2182    2.0952 N   0  0  0  0  0  0  0  0  0  0  0  0
   -3.2503    0.6962    0.6659 C   0  0  0  0  0  0  0  0  0  0  0  0
   -1.2316    1.3489   -0.5903 C   0  0  0  0  0  0  0  0  0  0  0  0
   -4.0847   -0.2989   -0.1361 C   0  0  0  0  0  0  0  0  0  0  0  0
   -0.7215    2.6463    0.0314 C   0  0  0  0  0  0  0  0  0  0  0  0
   -5.5870   -0.1597    0.1294 C   0  0  0  0  0  0  0  0  0  0  0  0
   -0.0465    3.5662   -0.9908 C   0  0  0  0  0  0  0  0  0  0  0  0
   -1.0871   -0.4309    1.1847 C   0  0  0  0  0  0  0  0  0  0  0  0
    0.3809   -0.5639    0.9740 C   0  0  0  0  0  0  0  0  0  0  0  0
   -6.3909   -1.1631   -0.6982 C   0  0  0  0  0  0  0  0  0  0  0  0
    0.4409    4.8587   -0.3356 C   0  0  0  0  0  0  0  0  0  0  0  0
    0.9017   -1.4579    0.0470 C   0  0  0  0  0  0  0  0  0  0  0  0
    2.3076   -1.5285   -0.0997 C   0  0  0  0  0  0  0  0  0  0  0  0
    1.1775    0.2541    1.7533 C   0  0  0  0  0  0  0  0  0  0  0  0
   -7.8799   -1.0577   -0.4092 C   0  0  0  0  0  0  0  0  0  0  0  0
    1.1479    5.7587   -1.3366 C   0  0  0  0  0  0  0  0  0  0  0  0
    3.1228   -0.7003    0.6888 C   0  0  0  0  0  0  0  0  0  0  0  0
    2.5600    0.1847    1.6090 C   0  0  0  0  0  0  0  0  0  0  0  0
    0.0864   -2.2861   -0.7416 C   0  0  0  0  0  0  0  0  0  0  0  0
    2.8567   -2.4250   -1.0307 C   0  0  0  0  0  0  0  0  0  0  0  0
    0.6492   -3.1711   -1.6616 C   0  0  0  0  0  0  0  0  0  0  0  0
    2.0317   -3.2404   -1.8060 C   0  0  0  0  0  0  0  0  0  0  0  0
    5.1303    0.4791    0.2045 C   0  0  0  0  0  0  0  0  0  0  0  0
    6.4033    0.1464   -0.5442 C   0  0  0  0  0  0  0  0  0  0  0  0
  1 19  1  0
  1 25  1  0
  2  4  1  0
  2  5  1  0
  2 10  1  0
  3 10  2  0
  4  6  1  0
  5  7  1  0
  6  8  1  0
  7  9  1  0
  8 12  1  0
  9 13  1  0
 10 11  1  0
 11 14  2  0
 11 16  1  0
 12 17  1  0
 13 18  1  0
 14 15  1  0
 14 21  1  0
 15 19  2  0
 15 22  1  0
 16 20  2  0
 19 20  1  0
 21 23  2  0
 22 24  2  0
 23 24  1  0
 25 26  1  0
M  END
>  <PUBCHEM_COMPOUND_CID>  (1) 
45897

>  <PUBCHEM_CONFORMER_RMSD>  (1) 
1

>  <PUBCHEM_CONFORMER_DIVERSEORDER>  (1) 
1
63
84
76
61
65
24
78
33
27
4
17
38
89
47
57
43
79
91
16
21
18
7
11
81
88
66
42
34
64
12
87
68
90
8
35
58
25
39
29
60
75
53
56
67
20
54
28
3
15
94
69
62
44
31
2
83
80
36
9
55
77
10
72
41
22
26
92
45
73
46
23
13
93
74
86
37
82
51
6
19
50
40
49
5
70
85
48
32
59
30
52
71
14
95

>  <PUBCHEM_MMFF94_PARTIAL_CHARGES>  (1) 
22
1 -0.36
10 0.41
11 0.09
16 -0.15
19 0.08
2 -0.79
20 -0.15
21 -0.15
22 -0.15
23 -0.15
24 -0.15
25 0.28
3 -0.85
4 0.37
43 0.15
5 0.37
50 0.15
51 0.15
52 0.4
53 0.15
54 0.15
55 0.15

>  <PUBCHEM_EFFECTIVE_ROTOR_COUNT>  (1) 
12

>  <PUBCHEM_PHARMACOPHORE_FEATURES>  (1) 
7
1 1 acceptor
1 17 hydrophobe
1 18 hydrophobe
1 3 donor
3 2 3 10 cation
6 11 14 15 16 19 20 rings
6 14 15 21 22 23 24 rings

>  <PUBCHEM_HEAVY_ATOM_COUNT>  (1) 
26

>  <PUBCHEM_ATOM_DEF_STEREO_COUNT>  (1) 
0

>  <PUBCHEM_ATOM_UDEF_STEREO_COUNT>  (1) 
0

>  <PUBCHEM_BOND_DEF_STEREO_COUNT>  (1) 
0

>  <PUBCHEM_BOND_UDEF_STEREO_COUNT>  (1) 
0

>  <PUBCHEM_ISOTOPIC_ATOM_COUNT>  (1) 
0

>  <PUBCHEM_COMPONENT_COUNT>  (1) 
1

>  <PUBCHEM_CACTVS_TAUTO_COUNT>  (1) 
1

>  <PUBCHEM_CONFORMER_ID>  (1) 
0000B34900000001

>  <PUBCHEM_MMFF94_ENERGY>  (1) 
64.2139

>  <PUBCHEM_FEATURE_SELFOVERLAP>  (1) 
35.546

>  <PUBCHEM_SHAPE_FINGERPRINT>  (1) 
10165383 225 17988637536928878480
10906281 52 18262537921695094129
11621639 148 18195240242517271200
12623949 98 17560809775643747951
1361 2 18341047522725943833
15238133 3 10737290112858068050
15664445 248 18408321064899927985
15927050 60 17691407833538810748
15961568 22 18336552625224821124
167882 2 18046066227227710445
1813 80 18410014295890571293
20344682 1 18341610399691334154
20600515 1 17677635106212795641
21285901 2 18340485556409736547
21344244 181 16271939215976427574
2260408 40 17914927338307696787
23114952 82 17839469891017834318
23557571 272 18263363594687085865
25019877 29 17704070720488334828
4340502 62 17274809285992193163
46194498 28 18335692893663813919
57527306 92 18113896066060144180
57527585 21 18194667186685313348
6913067 236 18271231734250219970
7399639 24 18200016336280834954

>  <PUBCHEM_SHAPE_MULTIPOLES>  (1) 
519.24
12.06
5.38
1.58
18.53
10.32
-0.22
-5.88
1.47
-3.18
4.26
-0.62
-0.47
0.21

>  <PUBCHEM_SHAPE_SELFOVERLAP>  (1) 
1058.953

>  <PUBCHEM_SHAPE_VOLUME>  (1) 
301.7

>  <PUBCHEM_COORDINATE_TYPE>  (1) 
2
5
10

$$$$
