45899
     RDKit          3D

 25 26  0  0  0  0  0  0  0  0999 V2000
    4.7751   -0.6000    0.5718 O   0  0  0  0  0  0  0  0  0  0  0  0
   -1.5834    0.4776    0.4208 N   0  0  0  0  0  0  0  0  0  0  0  0
   -1.3043   -1.2302    2.1004 N   0  0  0  0  0  0  0  0  0  0  0  0
   -3.0197    0.6433    0.6744 C   0  0  0  0  0  0  0  0  0  0  0  0
   -1.0199    1.3446   -0.5856 C   0  0  0  0  0  0  0  0  0  0  0  0
   -3.8313   -0.3717   -0.1260 C   0  0  0  0  0  0  0  0  0  0  0  0
   -0.5402    2.6540    0.0352 C   0  0  0  0  0  0  0  0  0  0  0  0
   -5.3360   -0.2691    0.1424 C   0  0  0  0  0  0  0  0  0  0  0  0
    0.1104    3.5900   -0.9883 C   0  0  0  0  0  0  0  0  0  0  0  0
   -0.8289   -0.4311    1.1890 C   0  0  0  0  0  0  0  0  0  0  0  0
    0.6415   -0.5285    0.9755 C   0  0  0  0  0  0  0  0  0  0  0  0
   -6.1169   -1.2916   -0.6837 C   0  0  0  0  0  0  0  0  0  0  0  0
    0.5675    4.8940   -0.3339 C   0  0  0  0  0  0  0  0  0  0  0  0
    1.2104   -1.4114    0.0434 C   0  0  0  0  0  0  0  0  0  0  0  0
    2.6173   -1.4479   -0.1061 C   0  0  0  0  0  0  0  0  0  0  0  0
    1.4480    0.3067    1.7491 C   0  0  0  0  0  0  0  0  0  0  0  0
   -7.6075   -1.2224   -0.3919 C   0  0  0  0  0  0  0  0  0  0  0  0
    1.2506    5.8108   -1.3362 C   0  0  0  0  0  0  0  0  0  0  0  0
    3.4138   -0.6002    0.6810 C   0  0  0  0  0  0  0  0  0  0  0  0
    2.8314    0.2709    1.6021 C   0  0  0  0  0  0  0  0  0  0  0  0
    0.4140   -2.2591   -0.7437 C   0  0  0  0  0  0  0  0  0  0  0  0
    3.1863   -2.3309   -1.0382 C   0  0  0  0  0  0  0  0  0  0  0  0
    0.9963   -3.1303   -1.6650 C   0  0  0  0  0  0  0  0  0  0  0  0
    2.3797   -3.1661   -1.8119 C   0  0  0  0  0  0  0  0  0  0  0  0
    5.3457    0.2988   -0.3749 C   0  0  0  0  0  0  0  0  0  0  0  0
  1 19  1  0
  1 25  1  0
  2  4  1  0
  2  5  1  0
  2 10  1  0
  3 10  2  0
  4  6  1  0
  5  7  1  0
  6  8  1  0
  7  9  1  0
  8 12  1  0
  9 13  1  0
 10 11  1  0
 11 14  2  0
 11 16  1  0
 12 17  1  0
 13 18  1  0
 14 15  1  0
 14 21  1  0
 15 19  2  0
 15 22  1  0
 16 20  2  0
 19 20  1  0
 21 23  2  0
 22 24  2  0
 23 24  1  0
M  END
>  <PUBCHEM_COMPOUND_CID>  (1) 
45899

>  <PUBCHEM_CONFORMER_RMSD>  (1) 
1

>  <PUBCHEM_CONFORMER_DIVERSEORDER>  (1) 
1
59
113
55
112
98
45
21
47
68
14
108
39
51
61
84
38
20
19
109
75
33
31
86
48
56
99
9
116
107
3
10
35
117
25
12
81
8
95
27
52
110
44
82
66
76
80
18
70
102
15
64
23
93
46
106
89
2
49
16
32
105
87
7
71
78
24
111
97
114
88
42
28
4
101
60
72
5
103
94
57
30
22
92
90
34
104
62
96
53
29
69
11
83
13
58
65
6
37
67
41
63
54
17
85
91
40
26
73
50
79
74
43
115
36
100
77

>  <PUBCHEM_MMFF94_PARTIAL_CHARGES>  (1) 
22
1 -0.36
10 0.41
11 0.09
16 -0.15
19 0.08
2 -0.79
20 -0.15
21 -0.15
22 -0.15
23 -0.15
24 -0.15
25 0.28
3 -0.85
4 0.37
42 0.15
49 0.15
5 0.37
50 0.15
51 0.4
52 0.15
53 0.15
54 0.15

>  <PUBCHEM_EFFECTIVE_ROTOR_COUNT>  (1) 
11

>  <PUBCHEM_PHARMACOPHORE_FEATURES>  (1) 
7
1 1 acceptor
1 17 hydrophobe
1 18 hydrophobe
1 3 donor
3 2 3 10 cation
6 11 14 15 16 19 20 rings
6 14 15 21 22 23 24 rings

>  <PUBCHEM_HEAVY_ATOM_COUNT>  (1) 
25

>  <PUBCHEM_ATOM_DEF_STEREO_COUNT>  (1) 
0

>  <PUBCHEM_ATOM_UDEF_STEREO_COUNT>  (1) 
0

>  <PUBCHEM_BOND_DEF_STEREO_COUNT>  (1) 
0

>  <PUBCHEM_BOND_UDEF_STEREO_COUNT>  (1) 
0

>  <PUBCHEM_ISOTOPIC_ATOM_COUNT>  (1) 
0

>  <PUBCHEM_COMPONENT_COUNT>  (1) 
1

>  <PUBCHEM_CACTVS_TAUTO_COUNT>  (1) 
1

>  <PUBCHEM_CONFORMER_ID>  (1) 
0000B34B00000001

>  <PUBCHEM_MMFF94_ENERGY>  (1) 
67.2642

>  <PUBCHEM_FEATURE_SELFOVERLAP>  (1) 
35.546

>  <PUBCHEM_SHAPE_FINGERPRINT>  (1) 
10165383 225 17916859240361674232
10764073 3 14794468645239092970
11621639 148 18195240242686056712
12403259 226 18127128563619523674
12623949 98 17560810879313205975
13149001 5 17822588208502128339
1361 2 18340767151603242572
15238133 3 7853564738793804810
15664445 248 18408602548318886673
15961568 22 18336553737753245612
167882 2 18046347702188557869
17492 54 18189069736033161812
1813 80 18410295779356989741
20344682 1 18341610399828497178
20600515 1 17749973079852518217
21285901 2 18340486660131968119
23114952 82 17910967837984965142
23557571 272 18263643970099427713
23559900 14 18270955873523473363
25019877 29 17704068530171103836
4340502 62 17274809294413322739
46194498 28 18335691802668306719
57527306 92 17967809501149591756
57527585 21 17394787917811310300
621550 34 18272359833412121370
6913067 236 18199732692219370522
7399639 24 18200297819974035314
9999458 23 17346024684219073155

>  <PUBCHEM_SHAPE_MULTIPOLES>  (1) 
498.66
10.8
5.57
1.61
21.84
11.31
-0.23
-7.32
1.2
-3.99
4.42
-0.87
-0.46
0.3

>  <PUBCHEM_SHAPE_SELFOVERLAP>  (1) 
1019.354

>  <PUBCHEM_SHAPE_VOLUME>  (1) 
288.9

>  <PUBCHEM_COORDINATE_TYPE>  (1) 
2
5
10

$$$$
