45906
     RDKit          3D

 14 16  0  0  0  0  0  0  0  0999 V2000
    2.6946   -1.4563    0.0475 S   0  0  0  0  0  0  0  0  0  0  0  0
    2.4705    1.1111   -0.0372 N   0  0  0  0  0  0  0  0  0  0  0  0
    4.6875    0.2974   -0.0140 N   0  0  0  0  0  0  0  0  0  0  0  0
   -3.8251   -0.5833   -0.3566 C   0  0  0  0  0  0  0  0  0  0  0  0
   -3.7738    0.7684    0.3427 C   0  0  0  0  0  0  0  0  0  0  0  0
   -2.6374   -1.4446    0.0668 C   0  0  0  0  0  0  0  0  0  0  0  0
   -2.5144    1.5304   -0.0641 C   0  0  0  0  0  0  0  0  0  0  0  0
   -1.3175   -0.7118    0.0134 C   0  0  0  0  0  0  0  0  0  0  0  0
   -1.2610    0.6904   -0.0080 C   0  0  0  0  0  0  0  0  0  0  0  0
   -0.1321   -1.4672    0.0448 C   0  0  0  0  0  0  0  0  0  0  0  0
   -0.0145    1.3410   -0.0372 C   0  0  0  0  0  0  0  0  0  0  0  0
    1.1014   -0.7977    0.0255 C   0  0  0  0  0  0  0  0  0  0  0  0
    1.1830    0.5948   -0.0173 C   0  0  0  0  0  0  0  0  0  0  0  0
    3.3387    0.1273   -0.0063 C   0  0  0  0  0  0  0  0  0  0  0  0
  1 12  1  0
  1 14  1  0
  2 13  1  0
  2 14  2  0
  3 14  1  0
  4  5  1  0
  4  6  1  0
  5  7  1  0
  6  8  1  0
  7  9  1  0
  8  9  2  0
  8 10  1  0
  9 11  1  0
 10 12  2  0
 11 13  2  0
 12 13  1  0
M  END
>  <PUBCHEM_COMPOUND_CID>  (1) 
45906

>  <PUBCHEM_CONFORMER_RMSD>  (1) 
0.4

>  <PUBCHEM_CONFORMER_DIVERSEORDER>  (1) 
1

>  <PUBCHEM_MMFF94_PARTIAL_CHARGES>  (1) 
16
1 -0.08
10 -0.15
11 -0.15
12 0.04
13 0.23
14 0.46
2 -0.57
23 0.15
24 0.15
25 0.4
26 0.4
3 -0.88
6 0.14
7 0.14
8 -0.14
9 -0.14

>  <PUBCHEM_EFFECTIVE_ROTOR_COUNT>  (1) 
0.8

>  <PUBCHEM_PHARMACOPHORE_FEATURES>  (1) 
5
1 3 donor
3 2 3 14 cation
5 1 2 12 13 14 rings
6 4 5 6 7 8 9 rings
6 8 9 10 11 12 13 rings

>  <PUBCHEM_HEAVY_ATOM_COUNT>  (1) 
14

>  <PUBCHEM_ATOM_DEF_STEREO_COUNT>  (1) 
0

>  <PUBCHEM_ATOM_UDEF_STEREO_COUNT>  (1) 
0

>  <PUBCHEM_BOND_DEF_STEREO_COUNT>  (1) 
0

>  <PUBCHEM_BOND_UDEF_STEREO_COUNT>  (1) 
0

>  <PUBCHEM_ISOTOPIC_ATOM_COUNT>  (1) 
0

>  <PUBCHEM_COMPONENT_COUNT>  (1) 
1

>  <PUBCHEM_CACTVS_TAUTO_COUNT>  (1) 
2

>  <PUBCHEM_CONFORMER_ID>  (1) 
0000B35200000001

>  <PUBCHEM_MMFF94_ENERGY>  (1) 
23.5944

>  <PUBCHEM_FEATURE_SELFOVERLAP>  (1) 
25.462

>  <PUBCHEM_SHAPE_FINGERPRINT>  (1) 
10608611 8 18411415107257397025
10967382 1 18410575058903863627
11132069 177 18411133628038167849
11401426 45 18412538829615437309
11471102 20 18410569565683000654
12032990 46 18411143540801711359
12251169 10 18408887330067065201
13221675 6 18409729564532286127
13380535 76 18410293609692078259
14144814 61 18410011018118498011
14325111 11 18410855442953586849
15196674 1 18410855425810783847
15219456 202 18272657800741644782
15442244 35 18194682557971825042
15536298 74 18342458097798105966
15775835 57 18410015411790823025
16945 1 18337676441613231659
18186145 218 18337674109398452428
18522853 276 18412824694069947017
200 152 18059848481085359215
20201158 50 18410856563956102747
20510252 161 18272371919249898849
20645477 70 18341047402557004903
21267235 1 18410583902379033431
21501502 16 18338795611306464419
2334 1 18410573980951585291
23402539 116 18342730827778011300
23402655 69 18341604868332691117
23463225 33 18408322159673522150
23559900 14 18271524209355242882
2748010 2 18410575054640577519
3312278 4 18412266137978741947
335352 9 18050285860385265207
474 4 17024037158365426212
4990 188 18059867134181105990
5104073 3 18410573950823459722
528886 8 18411132528473779659
53655031 270 18409729551641960202
53812653 166 18342735226083134608
54173680 148 18120376720348267443
57096353 35 18410292557440538799
6333449 129 18412823590595550821
69090 78 18343579646739482623
7364860 26 18196653110468849200
8809292 202 18188213220664596475
9709674 26 18412269440814438966

>  <PUBCHEM_SHAPE_MULTIPOLES>  (1) 
282
7.11
1.69
0.63
1.99
0.14
0
-0.37
0.03
-0.35
-0.01
-0.09
0.02
-0.12

>  <PUBCHEM_SHAPE_SELFOVERLAP>  (1) 
606.601

>  <PUBCHEM_SHAPE_VOLUME>  (1) 
157.7

>  <PUBCHEM_COORDINATE_TYPE>  (1) 
2
5
10

$$$$
