45903
     RDKit          3D

 24 26  0  0  0  0  0  0  0  0999 V2000
   -4.7770   -1.3715    0.5174 O   0  0  0  0  0  0  0  0  0  0  0  0
    1.5684   -0.1637    0.3770 N   0  0  0  0  0  0  0  0  0  0  0  0
    0.9816   -0.3422   -1.9232 N   0  0  0  0  0  0  0  0  0  0  0  0
   -0.8040   -0.5271   -0.3532 C   0  0  0  0  0  0  0  0  0  0  0  0
   -1.7140    0.5390   -0.2656 C   0  0  0  0  0  0  0  0  0  0  0  0
    0.6103   -0.3267   -0.6558 C   0  0  0  0  0  0  0  0  0  0  0  0
    2.9530    0.0332    0.1103 C   0  0  0  0  0  0  0  0  0  0  0  0
    1.1880   -0.2834    1.7873 C   0  0  0  0  0  0  0  0  0  0  0  0
   -3.0711    0.2679    0.0304 C   0  0  0  0  0  0  0  0  0  0  0  0
    3.8093   -1.0552    0.0048 C   0  0  0  0  0  0  0  0  0  0  0  0
   -1.2260   -1.8416   -0.1520 C   0  0  0  0  0  0  0  0  0  0  0  0
   -3.4783   -1.0613    0.2299 C   0  0  0  0  0  0  0  0  0  0  0  0
   -1.3068    1.8682   -0.4650 C   0  0  0  0  0  0  0  0  0  0  0  0
   -2.5606   -2.1082    0.1390 C   0  0  0  0  0  0  0  0  0  0  0  0
    3.4280    1.3299   -0.0419 C   0  0  0  0  0  0  0  0  0  0  0  0
   -3.9811    1.3340    0.1180 C   0  0  0  0  0  0  0  0  0  0  0  0
    0.8928    1.0778    2.3939 C   0  0  0  0  0  0  0  0  0  0  0  0
    5.1630   -0.8440   -0.2569 C   0  0  0  0  0  0  0  0  0  0  0  0
   -2.2245    2.9150   -0.3742 C   0  0  0  0  0  0  0  0  0  0  0  0
    3.3157   -2.4562    0.1663 C   0  0  0  0  0  0  0  0  0  0  0  0
   -3.5591    2.6485   -0.0832 C   0  0  0  0  0  0  0  0  0  0  0  0
    4.7817    1.5413   -0.3037 C   0  0  0  0  0  0  0  0  0  0  0  0
    5.6492    0.4544   -0.4113 C   0  0  0  0  0  0  0  0  0  0  0  0
   -5.6383   -1.6281   -0.5880 C   0  0  0  0  0  0  0  0  0  0  0  0
  1 12  1  0
  1 24  1  0
  2  6  1  0
  2  7  1  0
  2  8  1  0
  3  6  2  0
  4  5  1  0
  4  6  1  0
  4 11  2  0
  5  9  2  0
  5 13  1  0
  7 10  2  0
  7 15  1  0
  8 17  1  0
  9 12  1  0
  9 16  1  0
 10 18  1  0
 10 20  1  0
 11 14  1  0
 12 14  2  0
 13 19  2  0
 15 22  2  0
 16 21  2  0
 18 23  2  0
 19 21  1  0
 22 23  1  0
M  END
>  <PUBCHEM_COMPOUND_CID>  (1) 
45903

>  <PUBCHEM_CONFORMER_RMSD>  (1) 
0.8

>  <PUBCHEM_CONFORMER_DIVERSEORDER>  (1) 
1
16
28
17
26
22
10
25
29
7
20
21
13
23
24
19
12
4
3
14
6
15
9
8
27
18
5
2
11

>  <PUBCHEM_MMFF94_PARTIAL_CHARGES>  (1) 
32
1 -0.36
10 -0.14
11 -0.15
12 0.08
13 -0.15
14 -0.15
15 -0.15
16 -0.15
18 -0.15
19 -0.15
2 -0.52
20 0.14
21 -0.15
22 -0.15
23 -0.15
24 0.28
27 0.15
28 0.15
29 0.15
3 -0.85
30 0.15
31 0.15
35 0.15
36 0.15
4 0.09
40 0.15
41 0.15
42 0.15
43 0.4
6 0.41
7 0.1
8 0.37

>  <PUBCHEM_EFFECTIVE_ROTOR_COUNT>  (1) 
5

>  <PUBCHEM_PHARMACOPHORE_FEATURES>  (1) 
6
1 1 acceptor
1 3 donor
3 2 3 6 cation
6 4 5 9 11 12 14 rings
6 5 9 13 16 19 21 rings
6 7 10 15 18 22 23 rings

>  <PUBCHEM_HEAVY_ATOM_COUNT>  (1) 
24

>  <PUBCHEM_ATOM_DEF_STEREO_COUNT>  (1) 
0

>  <PUBCHEM_ATOM_UDEF_STEREO_COUNT>  (1) 
0

>  <PUBCHEM_BOND_DEF_STEREO_COUNT>  (1) 
0

>  <PUBCHEM_BOND_UDEF_STEREO_COUNT>  (1) 
0

>  <PUBCHEM_ISOTOPIC_ATOM_COUNT>  (1) 
0

>  <PUBCHEM_COMPONENT_COUNT>  (1) 
1

>  <PUBCHEM_CACTVS_TAUTO_COUNT>  (1) 
1

>  <PUBCHEM_CONFORMER_ID>  (1) 
0000B34F00000001

>  <PUBCHEM_MMFF94_ENERGY>  (1) 
108.3172

>  <PUBCHEM_FEATURE_SELFOVERLAP>  (1) 
30.473

>  <PUBCHEM_SHAPE_FINGERPRINT>  (1) 
10319926 262 18339067204338952434
10366900 7 18342170120040598763
10498660 4 18260537901459658941
10595046 47 18335422370162708540
10616163 171 18410576188754997942
11405975 8 18263078834514068106
12011746 2 18341043103879660687
12107183 9 17758954827373728226
12236239 1 17603864520187388463
12403259 415 17775277274766336577
12467345 10 18334579031806769316
12596599 1 16588320400606884082
12670546 56 18335417967515443942
12788726 201 18260540139374646771
13140716 1 18049454926855076451
13224815 77 16950276295955513722
13583140 156 17988063535687130386
13782708 43 17846500361006873399
13965767 371 17246683546631055237
14341114 176 18337116665894096660
14420673 8 17903357009676385506
14787075 74 17751081525001720441
15196674 1 18410012117682957716
17492 89 18337391539490710226
17844677 252 18411145731720329100
1813 80 16732707129937964342
20510252 161 18411983551011709513
21033648 29 17846483829709022880
21065198 48 18260265222755058626
21236236 1 18412826872393806581
21267235 1 18335710471810058103
221357 26 18343018917025482608
2297311 6 18411710901675827558
23175994 123 17275388694244143560
23352939 185 18200039567384932152
23402539 116 18341609348110200991
23557571 272 18342184374868021724
23559900 14 18410567401030162757
3009799 131 18187072993358517999
350125 39 18413671309818424353
4214541 1 18409730625705680468
5104073 3 18336826403519469306
7495541 125 17988639730987292416
77779 3 18409168784017215390
7808743 9 18265895761693132153
9709674 26 18410300177003308422

>  <PUBCHEM_SHAPE_MULTIPOLES>  (1) 
478.08
11.33
2.67
1.2
4.07
0.69
0.56
-1.31
-1.42
-2.21
-0.15
0.43
0.18
0.03

>  <PUBCHEM_SHAPE_SELFOVERLAP>  (1) 
1038.33

>  <PUBCHEM_SHAPE_VOLUME>  (1) 
262

>  <PUBCHEM_COORDINATE_TYPE>  (1) 
2
5
10

$$$$
