45916
     RDKit          3D

 15 16  0  0  0  0  0  0  0  0999 V2000
    2.3069    0.0576    0.3860 O   0  0  0  0  0  0  0  0  0  0  0  0
    0.5177   -2.0134    0.2089 O   0  0  0  0  0  0  0  0  0  0  0  0
    5.0758   -0.3558    0.4652 O   0  0  0  0  0  0  0  0  0  0  0  0
   -1.3204   -0.4627    0.0511 C   0  0  0  0  0  0  0  0  0  0  0  0
   -1.7656    0.8804    0.0183 C   0  0  0  0  0  0  0  0  0  0  0  0
    0.0531   -0.7281    0.1747 C   0  0  0  0  0  0  0  0  0  0  0  0
    0.9745    0.3156    0.2648 C   0  0  0  0  0  0  0  0  0  0  0  0
   -0.8241    1.9184    0.1103 C   0  0  0  0  0  0  0  0  0  0  0  0
    0.5367    1.6363    0.2328 C   0  0  0  0  0  0  0  0  0  0  0  0
   -2.2618   -1.5008   -0.0410 C   0  0  0  0  0  0  0  0  0  0  0  0
   -3.1391    1.1457   -0.1056 C   0  0  0  0  0  0  0  0  0  0  0  0
   -3.6227   -1.2187   -0.1636 C   0  0  0  0  0  0  0  0  0  0  0  0
    3.1608    0.5655   -0.6371 C   0  0  0  0  0  0  0  0  0  0  0  0
   -4.0605    0.1019   -0.1958 C   0  0  0  0  0  0  0  0  0  0  0  0
    4.3688   -0.3419   -0.7690 C   0  0  0  0  0  0  0  0  0  0  0  0
  1  7  1  0
  1 13  1  0
  2  6  1  0
  3 15  1  0
  4  5  1  0
  4  6  2  0
  4 10  1  0
  5  8  2  0
  5 11  1  0
  6  7  1  0
  7  9  2  0
  8  9  1  0
 10 12  2  0
 11 14  2  0
 12 14  1  0
 13 15  1  0
M  END
>  <PUBCHEM_COMPOUND_CID>  (1) 
45916

>  <PUBCHEM_CONFORMER_RMSD>  (1) 
0.6

>  <PUBCHEM_CONFORMER_DIVERSEORDER>  (1) 
2
6
7
9
12
8
10
11
5
1
4
3

>  <PUBCHEM_MMFF94_PARTIAL_CHARGES>  (1) 
21
1 -0.36
10 -0.15
11 -0.15
12 -0.15
13 0.28
14 -0.15
15 0.28
16 0.15
17 0.15
18 0.15
19 0.15
2 -0.53
22 0.15
23 0.15
26 0.45
27 0.4
3 -0.68
6 0.08
7 0.08
8 -0.15
9 -0.15

>  <PUBCHEM_EFFECTIVE_ROTOR_COUNT>  (1) 
3

>  <PUBCHEM_PHARMACOPHORE_FEATURES>  (1) 
6
1 1 acceptor
1 2 donor
1 3 acceptor
1 3 donor
6 4 5 10 11 12 14 rings
6 4 5 6 7 8 9 rings

>  <PUBCHEM_HEAVY_ATOM_COUNT>  (1) 
15

>  <PUBCHEM_ATOM_DEF_STEREO_COUNT>  (1) 
0

>  <PUBCHEM_ATOM_UDEF_STEREO_COUNT>  (1) 
0

>  <PUBCHEM_BOND_DEF_STEREO_COUNT>  (1) 
0

>  <PUBCHEM_BOND_UDEF_STEREO_COUNT>  (1) 
0

>  <PUBCHEM_ISOTOPIC_ATOM_COUNT>  (1) 
0

>  <PUBCHEM_COMPONENT_COUNT>  (1) 
1

>  <PUBCHEM_CACTVS_TAUTO_COUNT>  (1) 
3

>  <PUBCHEM_CONFORMER_ID>  (1) 
0000B35C00000002

>  <PUBCHEM_MMFF94_ENERGY>  (1) 
50.8181

>  <PUBCHEM_FEATURE_SELFOVERLAP>  (1) 
30.476

>  <PUBCHEM_SHAPE_FINGERPRINT>  (1) 
10062212 137 18408317791591828178
11132069 177 18411979165412373720
11401426 45 18413103965865493812
11458722 379 18409452470591152414
11543360 7 15936975252819952931
12032990 46 18340491170079503635
12236239 1 17821726122755853320
13288520 33 18413673496025265398
13690532 89 18335139795600569020
13862211 1 18411132567413776451
14911166 2 18410849967392686549
14993402 34 17967250922623200933
15196674 1 18410856611279877269
15536298 74 18270961374696447944
16945 1 18410845569420028297
17804303 29 18341895224995749585
17870717 6 18200051563734530998
18186145 218 17676481795771909548
19141452 34 17703512185545431207
193761 8 17834675998434392385
200 152 17275384300381563284
20645476 183 17676208008618094042
21029758 27 18187654638771899797
21267235 1 18410582807478780123
21501502 16 18194962937737039531
2334 1 18050282871547183617
23402539 116 18412538812836456134
23463225 33 18334852784200095314
23493267 7 17676202468574213817
23557571 272 18059024895273503900
23559900 14 18342458158423487756
2748010 2 18121772000925252697
3312278 4 18410856542897809409
43471831 8 18335417907592085074
5104073 3 18339644541609844000
559249 180 18116425947879201474
7364860 26 18055352702040345704
8809292 202 18189338029802681235

>  <PUBCHEM_SHAPE_MULTIPOLES>  (1) 
291.09
7.85
1.76
0.71
7.05
0.07
-0.05
-1.41
-1
-0.86
0.08
0.28
0
-0.05

>  <PUBCHEM_SHAPE_SELFOVERLAP>  (1) 
627.349

>  <PUBCHEM_SHAPE_VOLUME>  (1) 
160.8

>  <PUBCHEM_COORDINATE_TYPE>  (1) 
2
5
10

$$$$
