45923
     RDKit          3D

 21 22  0  0  0  0  0  0  0  0999 V2000
    6.2933    2.5496   -0.1921 Cl  0  0  0  0  0  0  0  0  0  0  0  0
    4.1498   -4.2175    0.2047 Cl  0  0  0  0  0  0  0  0  0  0  0  0
   -6.7794   -1.3140   -0.1358 O   0  0  0  0  0  0  0  0  0  0  0  0
    3.3944   -0.2550    0.0076 N   0  0  0  0  0  0  0  0  0  0  0  0
   -1.9531    1.4409    0.0677 N   0  0  0  0  0  0  0  0  0  0  0  0
    2.0503    0.1716    0.0234 C   0  0  0  0  0  0  0  0  0  0  0  0
    4.4261    0.5896   -0.5608 C   0  0  0  0  0  0  0  0  0  0  0  0
    3.7640   -1.5379    0.5722 C   0  0  0  0  0  0  0  0  0  0  0  0
    1.7065    1.4136   -0.5103 C   0  0  0  0  0  0  0  0  0  0  0  0
    1.0646   -0.6487    0.5720 C   0  0  0  0  0  0  0  0  0  0  0  0
   -0.6087    1.0151    0.0533 C   0  0  0  0  0  0  0  0  0  0  0  0
    5.0165    1.5135    0.4928 C   0  0  0  0  0  0  0  0  0  0  0  0
    3.6875   -2.6373   -0.4754 C   0  0  0  0  0  0  0  0  0  0  0  0
    0.3770    1.8355   -0.4952 C   0  0  0  0  0  0  0  0  0  0  0  0
   -0.2649   -0.2270    0.5870 C   0  0  0  0  0  0  0  0  0  0  0  0
   -3.1754    0.7431    0.0157 C   0  0  0  0  0  0  0  0  0  0  0  0
   -4.3069    1.2680    0.6421 C   0  0  0  0  0  0  0  0  0  0  0  0
   -3.2577   -0.4746   -0.6616 C   0  0  0  0  0  0  0  0  0  0  0  0
   -5.5176    0.5769    0.5913 C   0  0  0  0  0  0  0  0  0  0  0  0
   -4.4683   -1.1656   -0.7124 C   0  0  0  0  0  0  0  0  0  0  0  0
   -5.5982   -0.6398   -0.0860 C   0  0  0  0  0  0  0  0  0  0  0  0
  1 12  1  0
  2 13  1  0
  3 21  1  0
  4  6  1  0
  4  7  1  0
  4  8  1  0
  5 11  1  0
  5 16  1  0
  6  9  2  0
  6 10  1  0
  7 12  1  0
  8 13  1  0
  9 14  1  0
 10 15  2  0
 11 14  2  0
 11 15  1  0
 16 17  2  0
 16 18  1  0
 17 19  1  0
 18 20  2  0
 19 21  2  0
 20 21  1  0
M  END
>  <PUBCHEM_COMPOUND_CID>  (1) 
45923

>  <PUBCHEM_CONFORMER_RMSD>  (1) 
0.8

>  <PUBCHEM_CONFORMER_DIVERSEORDER>  (1) 
2
4
35
7
41
56
22
20
47
25
44
46
37
26
21
28
52
32
50
33
36
1
23
42
39
13
30
53
14
10
49
16
19
9
6
38
3
45
12
51
15
24
48
17
43
5
40
34
54
27
29
55
8
31
18
11

>  <PUBCHEM_MMFF94_PARTIAL_CHARGES>  (1) 
31
1 -0.29
10 -0.15
11 0.1
12 0.29
13 0.29
14 -0.15
15 -0.15
16 0.1
17 -0.15
18 -0.15
19 -0.15
2 -0.29
20 -0.15
21 0.08
26 0.15
27 0.15
3 -0.53
32 0.15
33 0.15
34 0.4
35 0.15
36 0.15
37 0.15
38 0.15
39 0.45
4 -0.84
5 -0.6
6 0.1
7 0.37
8 0.37
9 -0.15

>  <PUBCHEM_EFFECTIVE_ROTOR_COUNT>  (1) 
7

>  <PUBCHEM_PHARMACOPHORE_FEATURES>  (1) 
6
1 3 donor
1 4 cation
1 5 cation
1 5 donor
6 16 17 18 19 20 21 rings
6 6 9 10 11 14 15 rings

>  <PUBCHEM_HEAVY_ATOM_COUNT>  (1) 
21

>  <PUBCHEM_ATOM_DEF_STEREO_COUNT>  (1) 
0

>  <PUBCHEM_ATOM_UDEF_STEREO_COUNT>  (1) 
0

>  <PUBCHEM_BOND_DEF_STEREO_COUNT>  (1) 
0

>  <PUBCHEM_BOND_UDEF_STEREO_COUNT>  (1) 
0

>  <PUBCHEM_ISOTOPIC_ATOM_COUNT>  (1) 
0

>  <PUBCHEM_COMPONENT_COUNT>  (1) 
1

>  <PUBCHEM_CACTVS_TAUTO_COUNT>  (1) 
4

>  <PUBCHEM_CONFORMER_ID>  (1) 
0000B36300000002

>  <PUBCHEM_MMFF94_ENERGY>  (1) 
79.3859

>  <PUBCHEM_FEATURE_SELFOVERLAP>  (1) 
30.446

>  <PUBCHEM_SHAPE_FINGERPRINT>  (1) 
10595046 47 18342177760687022553
10906281 52 17968954101180452132
10912923 1 18060143106845911001
10968037 39 18340205288972944437
12107183 9 17838343977730588601
12236239 1 18413673508968507809
12596602 18 17917999381725961825
12730499 353 18411987979328629106
12788726 201 17132124506582437568
12916754 54 18266178327464220816
13073987 5 18413110541766541721
13167823 11 18341048515037579499
13533116 47 18342738494410984530
13551218 46 18341895148113963511
14251740 57 18341047411458234058
14461889 52 18335983181148752610
15196674 1 18410855421890194055
15250474 111 18130209536845166415
15537594 2 18131066073640608063
17492 89 18266737979009599590
17844677 252 18339930298684941065
17859628 70 18340769218242673982
1813 80 17822297851068663749
18335252 98 18335426819986685139
200 152 18410855478083712009
20645477 70 18334012749027460586
21065198 48 18272935994785360401
220451 1 18202007629211471457
22224240 67 18339919429114589280
22393880 68 17678449775546080623
22950370 63 18411984620268603515
23559900 14 18122897643302693850
239999 70 18060145328019093446
3004659 81 18261957349638686502
314194 84 18413386557739657115
34797466 226 17346045579420337628
4073 2 18335426815201016459
4325135 7 18411136982545198516
4340502 62 16370719357663511472
46194498 28 17385724733562705927
5104073 3 18201720596457338259
5758199 1 18341895255556795664
6025842 7 18410856556236619278
621550 34 18334288765454224700
9981440 41 17256524648415214745

>  <PUBCHEM_SHAPE_MULTIPOLES>  (1) 
420.08
15.72
3.19
0.81
10.23
3.31
0
0.75
-0.02
-6.92
-0.06
0.07
0.01
-0.81

>  <PUBCHEM_SHAPE_SELFOVERLAP>  (1) 
857.124

>  <PUBCHEM_SHAPE_VOLUME>  (1) 
246.2

>  <PUBCHEM_COORDINATE_TYPE>  (1) 
2
5
10

$$$$
