45924
     RDKit          3D

 23 24  0  0  0  0  0  0  0  0999 V2000
   -6.6365    2.5527   -0.2316 Cl  0  0  0  0  0  0  0  0  0  0  0  0
   -5.0398   -3.7093    1.3710 Cl  0  0  0  0  0  0  0  0  0  0  0  0
    6.3686   -1.1150   -0.2566 O   0  0  0  0  0  0  0  0  0  0  0  0
   -3.8341   -0.3424   -0.5056 N   0  0  0  0  0  0  0  0  0  0  0  0
    1.4378    1.4046    0.2887 N   0  0  0  0  0  0  0  0  0  0  0  0
   -2.5088    0.0966   -0.3066 C   0  0  0  0  0  0  0  0  0  0  0  0
   -4.8626    0.5916   -0.9186 C   0  0  0  0  0  0  0  0  0  0  0  0
   -4.1823   -1.7363   -0.3132 C   0  0  0  0  0  0  0  0  0  0  0  0
    0.1144    0.9659    0.0884 C   0  0  0  0  0  0  0  0  0  0  0  0
   -2.1806    1.4373   -0.5073 C   0  0  0  0  0  0  0  0  0  0  0  0
   -1.5261   -0.8098    0.0914 C   0  0  0  0  0  0  0  0  0  0  0  0
    2.6872    0.7653    0.1505 C   0  0  0  0  0  0  0  0  0  0  0  0
   -0.8698    1.8718   -0.3100 C   0  0  0  0  0  0  0  0  0  0  0  0
   -0.2154   -0.3755    0.2889 C   0  0  0  0  0  0  0  0  0  0  0  0
   -5.3789    1.3933    0.2659 C   0  0  0  0  0  0  0  0  0  0  0  0
   -4.5994   -2.0008    1.1249 C   0  0  0  0  0  0  0  0  0  0  0  0
    4.0869   -0.8822   -0.9282 C   0  0  0  0  0  0  0  0  0  0  0  0
    4.9956    0.5172    0.8189 C   0  0  0  0  0  0  0  0  0  0  0  0
    3.7596    1.1491    0.9557 C   0  0  0  0  0  0  0  0  0  0  0  0
    2.8509   -0.2503   -0.7915 C   0  0  0  0  0  0  0  0  0  0  0  0
    5.1593   -0.4985   -0.1230 C   0  0  0  0  0  0  0  0  0  0  0  0
    4.2422   -1.9672   -1.9422 C   0  0  0  0  0  0  0  0  0  0  0  0
    6.1318    0.9419    1.6899 C   0  0  0  0  0  0  0  0  0  0  0  0
  1 15  1  0
  2 16  1  0
  3 21  1  0
  4  6  1  0
  4  7  1  0
  4  8  1  0
  5  9  1  0
  5 12  1  0
  6 10  2  0
  6 11  1  0
  7 15  1  0
  8 16  1  0
  9 13  2  0
  9 14  1  0
 10 13  1  0
 11 14  2  0
 12 19  2  0
 12 20  1  0
 17 20  2  0
 17 21  1  0
 17 22  1  0
 18 19  1  0
 18 21  2  0
 18 23  1  0
M  END
>  <PUBCHEM_COMPOUND_CID>  (1) 
45924

>  <PUBCHEM_CONFORMER_RMSD>  (1) 
0.8

>  <PUBCHEM_CONFORMER_DIVERSEORDER>  (1) 
4
69
28
33
67
5
58
21
14
10
57
25
55
50
66
35
43
42
31
29
53
30
45
64
12
32
26
59
70
36
46
62
24
41
65
13
6
8
17
18
34
40
44
16
37
11
1
2
48
52
20
68
9
3
49
54
38
51
61
39
27
47
19
7
63
22
60
56
23
15

>  <PUBCHEM_MMFF94_PARTIAL_CHARGES>  (1) 
31
1 -0.29
10 -0.15
11 -0.15
12 0.1
13 -0.15
14 -0.15
15 0.29
16 0.29
17 -0.14
18 -0.14
19 -0.15
2 -0.29
20 -0.15
21 0.08
22 0.14
23 0.14
28 0.15
29 0.15
3 -0.53
30 0.15
31 0.15
32 0.4
37 0.15
38 0.15
4 -0.84
45 0.45
5 -0.6
6 0.1
7 0.37
8 0.37
9 0.1

>  <PUBCHEM_EFFECTIVE_ROTOR_COUNT>  (1) 
7

>  <PUBCHEM_PHARMACOPHORE_FEATURES>  (1) 
6
1 3 donor
1 4 cation
1 5 cation
1 5 donor
6 12 17 18 19 20 21 rings
6 6 9 10 11 13 14 rings

>  <PUBCHEM_HEAVY_ATOM_COUNT>  (1) 
23

>  <PUBCHEM_ATOM_DEF_STEREO_COUNT>  (1) 
0

>  <PUBCHEM_ATOM_UDEF_STEREO_COUNT>  (1) 
0

>  <PUBCHEM_BOND_DEF_STEREO_COUNT>  (1) 
0

>  <PUBCHEM_BOND_UDEF_STEREO_COUNT>  (1) 
0

>  <PUBCHEM_ISOTOPIC_ATOM_COUNT>  (1) 
0

>  <PUBCHEM_COMPONENT_COUNT>  (1) 
1

>  <PUBCHEM_CACTVS_TAUTO_COUNT>  (1) 
4

>  <PUBCHEM_CONFORMER_ID>  (1) 
0000B36400000004

>  <PUBCHEM_MMFF94_ENERGY>  (1) 
87.7275

>  <PUBCHEM_FEATURE_SELFOVERLAP>  (1) 
30.446

>  <PUBCHEM_SHAPE_FINGERPRINT>  (1) 
10835480 77 18131060545933659088
11545043 162 18339640139732355017
11796584 16 18408604747010060186
12236239 1 16081366332768625060
12616971 3 16008749108570444983
13533116 47 16988559057567731300
14386348 63 18343019991189267308
14856354 85 15792028744740705065
15183329 4 17967527956883198525
15348495 7 18340205288514177857
15361156 5 18342176682529165813
15537594 2 17530680983577704049
15799311 1 16805333179898019595
17093844 174 18412256251333584193
17844677 252 18261960755542334641
19141452 34 18202278121867161869
20511986 3 16558448847449863828
20645477 70 17632011954114238700
20681677 155 18336261263507467705
21279426 13 18270683065394984061
21623969 137 18059580230033956126
220451 1 17530962466938516824
2215653 11 18131068186685259949
22224240 67 17417232343770070968
23081809 10 16660361502133561650
23402539 116 18260540143247698389
23559900 14 18413103961723825636
239999 70 18341892992298401918
3004659 81 18187366536929709516
4073 2 18411138043290915522
5104073 3 18342175582996003929
59755656 215 18338234839107112829
59755656 520 18261107449463580629
6009941 240 18412824668748698801

>  <PUBCHEM_SHAPE_MULTIPOLES>  (1) 
461.24
17.39
2.81
1.28
2.66
1.85
0
1
-2.18
-5.88
-0.62
1.22
0.56
3.47

>  <PUBCHEM_SHAPE_SELFOVERLAP>  (1) 
943.21

>  <PUBCHEM_SHAPE_VOLUME>  (1) 
270.8

>  <PUBCHEM_COORDINATE_TYPE>  (1) 
2
5
10

$$$$
