45925
     RDKit          3D

 22 23  0  0  0  0  0  0  0  0999 V2000
   -3.8793   -3.3140    0.0596 Cl  0  0  0  0  0  0  0  0  0  0  0  0
   -5.1636    2.4520   -0.8308 Cl  0  0  0  0  0  0  0  0  0  0  0  0
    6.4693   -0.5651   -0.8803 O   0  0  0  0  0  0  0  0  0  0  0  0
   -3.7392   -0.2301   -0.2131 N   0  0  0  0  0  0  0  0  0  0  0  0
    1.5474    1.1425    1.0693 N   0  0  0  0  0  0  0  0  0  0  0  0
   -2.4103    0.1157    0.1091 C   0  0  0  0  0  0  0  0  0  0  0  0
   -4.6175   -0.7885    0.7956 C   0  0  0  0  0  0  0  0  0  0  0  0
   -4.2482   -0.0186   -1.5536 C   0  0  0  0  0  0  0  0  0  0  0  0
   -2.0907    0.5260    1.4033 C   0  0  0  0  0  0  0  0  0  0  0  0
   -1.4156    0.0466   -0.8663 C   0  0  0  0  0  0  0  0  0  0  0  0
    0.2201    0.7987    0.7472 C   0  0  0  0  0  0  0  0  0  0  0  0
   -0.7763    0.8674    1.7222 C   0  0  0  0  0  0  0  0  0  0  0  0
   -0.1013    0.3878   -0.5475 C   0  0  0  0  0  0  0  0  0  0  0  0
   -4.0592   -2.0925    1.3436 C   0  0  0  0  0  0  0  0  0  0  0  0
   -4.1865    1.4522   -1.9348 C   0  0  0  0  0  0  0  0  0  0  0  0
    2.7941    0.7044    0.5762 C   0  0  0  0  0  0  0  0  0  0  0  0
    2.9324   -0.5930    0.0829 C   0  0  0  0  0  0  0  0  0  0  0  0
    4.1644   -1.0246   -0.4086 C   0  0  0  0  0  0  0  0  0  0  0  0
    3.8876    1.5702    0.5780 C   0  0  0  0  0  0  0  0  0  0  0  0
    5.2580   -0.1588   -0.4069 C   0  0  0  0  0  0  0  0  0  0  0  0
    5.1195    1.1386    0.0863 C   0  0  0  0  0  0  0  0  0  0  0  0
    4.2948   -2.4170   -0.9316 C   0  0  0  0  0  0  0  0  0  0  0  0
  1 14  1  0
  2 15  1  0
  3 20  1  0
  4  6  1  0
  4  7  1  0
  4  8  1  0
  5 11  1  0
  5 16  1  0
  6  9  2  0
  6 10  1  0
  7 14  1  0
  8 15  1  0
  9 12  1  0
 10 13  2  0
 11 12  2  0
 11 13  1  0
 16 17  2  0
 16 19  1  0
 17 18  1  0
 18 20  2  0
 18 22  1  0
 19 21  2  0
 20 21  1  0
M  END
>  <PUBCHEM_COMPOUND_CID>  (1) 
45925

>  <PUBCHEM_CONFORMER_RMSD>  (1) 
0.8

>  <PUBCHEM_CONFORMER_DIVERSEORDER>  (1) 
1
84
110
129
93
57
26
108
65
38
17
117
6
83
47
69
85
112
66
107
103
121
123
10
51
122
37
33
94
5
36
75
71
120
79
62
111
97
49
96
8
40
106
64
12
42
88
14
56
95
89
81
27
124
109
4
28
114
125
113
7
58
25
126
104
55
119
9
54
45
44
92
21
102
22
32
60
43
53
76
105
73
31
77
3
2
115
19
67
128
91
101
16
23
80
35
48
118
13
50
59
20
74
116
52
41
11
98
86
30
72
82
15
127
46
34
29
78
61
68
99
39
87
63
90
70
18
24
100

>  <PUBCHEM_MMFF94_PARTIAL_CHARGES>  (1) 
31
1 -0.29
10 -0.15
11 0.1
12 -0.15
13 -0.15
14 0.29
15 0.29
16 0.1
17 -0.15
18 -0.14
19 -0.15
2 -0.29
20 0.08
21 -0.15
22 0.14
27 0.15
28 0.15
29 0.15
3 -0.53
30 0.15
35 0.4
36 0.15
37 0.15
38 0.15
4 -0.84
42 0.45
5 -0.6
6 0.1
7 0.37
8 0.37
9 -0.15

>  <PUBCHEM_EFFECTIVE_ROTOR_COUNT>  (1) 
7

>  <PUBCHEM_PHARMACOPHORE_FEATURES>  (1) 
6
1 3 donor
1 4 cation
1 5 cation
1 5 donor
6 16 17 18 19 20 21 rings
6 6 9 10 11 12 13 rings

>  <PUBCHEM_HEAVY_ATOM_COUNT>  (1) 
22

>  <PUBCHEM_ATOM_DEF_STEREO_COUNT>  (1) 
0

>  <PUBCHEM_ATOM_UDEF_STEREO_COUNT>  (1) 
0

>  <PUBCHEM_BOND_DEF_STEREO_COUNT>  (1) 
0

>  <PUBCHEM_BOND_UDEF_STEREO_COUNT>  (1) 
0

>  <PUBCHEM_ISOTOPIC_ATOM_COUNT>  (1) 
0

>  <PUBCHEM_COMPONENT_COUNT>  (1) 
1

>  <PUBCHEM_CACTVS_TAUTO_COUNT>  (1) 
7

>  <PUBCHEM_CONFORMER_ID>  (1) 
0000B36500000001

>  <PUBCHEM_MMFF94_ENERGY>  (1) 
83.3279

>  <PUBCHEM_FEATURE_SELFOVERLAP>  (1) 
30.446

>  <PUBCHEM_SHAPE_FINGERPRINT>  (1) 
10835480 77 18412819201181925936
10912923 1 15195285378020849072
11089746 13 15213303062749797238
11135609 201 10518540127598181634
11796584 16 18336824208728325170
12107183 9 17197158257571224994
12236239 1 17275388707487708904
12596602 18 13758066399047729158
12616971 3 16773804730926181528
12633257 1 14836410245765411738
13103583 49 17130448958653198763
13583140 156 18271519892333004901
13760787 5 17489305312667694992
14251764 75 11676609524029131846
14573314 32 18335134271951133133
15183329 4 18200585891820695637
15537594 2 17560805459127294134
15788980 27 17917709102219313669
17349148 13 15554441942234823685
17844677 252 18261396679959621045
17857418 61 16988555780302092580
18927931 339 17275114937450192725
200 152 17704349957259881024
20645477 70 18343299245736639510
20871999 31 17530684337577942355
21033648 29 18341316868936946753
21033650 10 17023471820082945500
21267235 1 17774736303041426198
21623969 137 18131078168453363358
22393880 68 18260263040690399378
23081809 10 16226040103027152440
23402539 116 16226039007340714022
23557571 272 17968096447086241316
23559900 14 18341889693083231824
2838139 119 14996286924994723278
3004659 81 18130781227546865412
314194 84 17561082510245536982
34797466 226 18041001781805957877
351380 3 17203611492993319406
46194498 28 18041845154405928668
5104073 3 17775291530438090826
5283173 99 18187643583120118797
542803 24 15864069867024904780
59755656 520 18340488864584483881

>  <PUBCHEM_SHAPE_MULTIPOLES>  (1) 
440.66
14.39
2.49
1.51
10.38
1.7
0.01
1.45
4.09
-2.8
0.23
-1.38
-0.26
2.59

>  <PUBCHEM_SHAPE_SELFOVERLAP>  (1) 
902.425

>  <PUBCHEM_SHAPE_VOLUME>  (1) 
257.2

>  <PUBCHEM_COORDINATE_TYPE>  (1) 
2
5
10

$$$$
