45920
     RDKit          3D

 26 29  0  0  1  0  0  0  0  0999 V2000
    3.0516    2.7843    0.8746 O   0  0  0  0  0  0  0  0  0  0  0  0
    4.8574    1.9065   -0.4565 O   0  0  0  0  0  0  0  0  0  0  0  0
   -2.6213    0.4371   -2.5644 O   0  0  0  0  0  0  0  0  0  0  0  0
   -3.7650    0.5538    2.0849 O   0  0  0  0  0  0  0  0  0  0  0  0
   -4.3863    1.1420   -0.5487 O   0  0  0  0  0  0  0  0  0  0  0  0
    0.5015   -2.8408    0.0863 N   0  0  0  0  0  0  0  0  0  0  0  0
    0.4766   -1.4882    0.7135 C   0  0  0  0  0  0  0  0  0  0  0  0
    1.6853   -0.6044    0.3690 C   0  0  0  0  0  0  0  0  0  0  0  0
    1.8539   -3.4072    0.0505 C   0  0  0  0  0  0  0  0  0  0  0  0
    2.7443   -2.5517   -0.8451 C   0  0  0  0  0  0  0  0  0  0  0  0
    2.7730   -1.1239   -0.3769 C   0  0  0  0  0  0  0  0  0  0  0  0
   -0.8356   -0.7788    0.3724 C   0  0  0  0  0  0  0  0  0  0  0  0
    1.7467    0.7218    0.8409 C   0  0  0  0  0  0  0  0  0  0  0  0
    3.8704   -0.3110   -0.7044 C   0  0  0  0  0  0  0  0  0  0  0  0
   -0.4031   -3.7718    0.7714 C   0  0  0  0  0  0  0  0  0  0  0  0
    2.8458    1.4886    0.5120 C   0  0  0  0  0  0  0  0  0  0  0  0
    3.8760    0.9882   -0.2448 C   0  0  0  0  0  0  0  0  0  0  0  0
   -1.7114   -0.4323    1.3926 C   0  0  0  0  0  0  0  0  0  0  0  0
   -1.1343   -0.4904   -0.9527 C   0  0  0  0  0  0  0  0  0  0  0  0
   -2.3306    0.1562   -1.2632 C   0  0  0  0  0  0  0  0  0  0  0  0
   -2.9079    0.2141    1.0821 C   0  0  0  0  0  0  0  0  0  0  0  0
    4.3259    3.0448    0.2517 C   0  0  0  0  0  0  0  0  0  0  0  0
   -3.2175    0.5086   -0.2458 C   0  0  0  0  0  0  0  0  0  0  0  0
   -2.1815    1.6963   -3.0692 C   0  0  0  0  0  0  0  0  0  0  0  0
   -3.5933    1.8403    2.6764 C   0  0  0  0  0  0  0  0  0  0  0  0
   -5.5207    0.3179   -0.8066 C   0  0  0  0  0  0  0  0  0  0  0  0
  1 16  1  0
  1 22  1  0
  2 17  1  0
  2 22  1  0
  3 20  1  0
  3 24  1  0
  4 21  1  0
  4 25  1  0
  5 23  1  0
  5 26  1  0
  6  7  1  0
  6  9  1  0
  6 15  1  0
  7  8  1  0
  7 12  1  0
  8 11  2  0
  8 13  1  0
  9 10  1  0
 10 11  1  0
 11 14  1  0
 12 18  2  0
 12 19  1  0
 13 16  2  0
 14 17  2  0
 16 17  1  0
 18 21  1  0
 19 20  2  0
 20 23  1  0
 21 23  2  0
M  END
>  <PUBCHEM_COMPOUND_CID>  (1) 
45920

>  <PUBCHEM_CONFORMER_RMSD>  (1) 
0.8

>  <PUBCHEM_CONFORMER_DIVERSEORDER>  (1) 
1
16
18
5
26
12
17
8
22
11
20
23
24
4
21
15
19
25
9
14
7
3
10
13
6
2

>  <PUBCHEM_MMFF94_PARTIAL_CHARGES>  (1) 
30
1 -0.36
10 0.14
11 -0.14
12 -0.14
13 -0.15
14 -0.15
15 0.27
16 0.08
17 0.08
18 -0.15
19 -0.15
2 -0.36
20 0.08
21 0.08
22 0.56
23 0.08
24 0.28
25 0.28
26 0.28
3 -0.36
32 0.15
33 0.15
37 0.15
38 0.15
4 -0.36
5 -0.36
6 -0.81
7 0.56
8 -0.14
9 0.27

>  <PUBCHEM_EFFECTIVE_ROTOR_COUNT>  (1) 
5.4

>  <PUBCHEM_PHARMACOPHORE_FEATURES>  (1) 
10
1 1 acceptor
1 2 acceptor
1 3 acceptor
1 4 acceptor
1 5 acceptor
1 6 cation
5 1 2 16 17 22 rings
6 12 18 19 20 21 23 rings
6 6 7 8 9 10 11 rings
6 8 11 13 14 16 17 rings

>  <PUBCHEM_HEAVY_ATOM_COUNT>  (1) 
26

>  <PUBCHEM_ATOM_DEF_STEREO_COUNT>  (1) 
0

>  <PUBCHEM_ATOM_UDEF_STEREO_COUNT>  (1) 
1

>  <PUBCHEM_BOND_DEF_STEREO_COUNT>  (1) 
0

>  <PUBCHEM_BOND_UDEF_STEREO_COUNT>  (1) 
0

>  <PUBCHEM_ISOTOPIC_ATOM_COUNT>  (1) 
0

>  <PUBCHEM_COMPONENT_COUNT>  (1) 
1

>  <PUBCHEM_CACTVS_TAUTO_COUNT>  (1) 
1

>  <PUBCHEM_CONFORMER_ID>  (1) 
0000B36000000001

>  <PUBCHEM_MMFF94_ENERGY>  (1) 
104.6821

>  <PUBCHEM_FEATURE_SELFOVERLAP>  (1) 
50.933

>  <PUBCHEM_SHAPE_FINGERPRINT>  (1) 
10165383 225 18117588230258660910
10366900 7 17823423682462030119
11725454 13 17967806171916655490
12160290 23 17835499893595481770
12173636 292 18056209196081033704
12236239 1 17560513993582132763
12549972 3 16952531269496940545
12730499 353 18408608067188643523
12788726 201 17131833166756839891
13034934 17 18040441009754246787
13134695 92 17976245851652859926
13140716 1 18339085999110714322
13583140 156 17905913391711860385
1361 2 18261662766748446925
14468879 13 17750213868931205445
14787075 74 18128815442522328435
15324884 4 17823441360574034899
15840311 113 18191310378413862165
16752209 62 15912755091041267599
1813 80 17556303852312748734
20511986 3 17417520333279019368
21033648 29 18114450228326212348
21756936 100 17917162696400633472
22122407 14 17983036465720713129
22182937 141 18196379340799981314
22907989 373 17549542255248799300
23557571 272 16951144893141143723
23559900 14 16299235588193851723
23598291 2 17773882991196211609
238 59 18120344632594442814
25 1 18342184379706314386
283562 15 17906730659047464114
350125 39 18050862301358808586
469060 322 17388258102811214131
474 4 18342737429438189738
5252454 2 18261968443786800870
621550 34 18041274371054404839
633830 44 18129678416793401330
6442390 28 18261109711799009367
7399639 24 18041269998693223639
7808743 9 17896604084325844652
81228 2 17682684274082553082

>  <PUBCHEM_SHAPE_MULTIPOLES>  (1) 
500.74
9.29
3.57
2.05
2.41
2.15
-0.6
-6.83
-0.56
-4.14
0.6
3.22
-1.26
0.56

>  <PUBCHEM_SHAPE_SELFOVERLAP>  (1) 
1092.161

>  <PUBCHEM_SHAPE_VOLUME>  (1) 
274.7

>  <PUBCHEM_COORDINATE_TYPE>  (1) 
2
5
10

$$$$
