45927
     RDKit          3D

 21 22  0  0  0  0  0  0  0  0999 V2000
   -2.1588   -0.9749   -2.2523 S   0  0  0  0  0  0  0  0  0  0  0  0
   -0.1161    0.1301   -0.2012 N   0  0  0  0  0  0  0  0  0  0  0  0
    4.1664   -0.6519   -0.4435 N   0  0  0  0  0  0  0  0  0  0  0  0
    1.2374    0.0450   -0.6942 C   0  0  0  0  0  0  0  0  0  0  0  0
    2.2135    0.6843    0.2930 C   0  0  0  0  0  0  0  0  0  0  0  0
    3.6738    0.6926   -0.1693 C   0  0  0  0  0  0  0  0  0  0  0  0
   -0.7845   -1.0774    0.1755 C   0  0  0  0  0  0  0  0  0  0  0  0
   -0.5911    1.4449    0.0961 C   0  0  0  0  0  0  0  0  0  0  0  0
   -1.7194   -1.6665   -0.6611 C   0  0  0  0  0  0  0  0  0  0  0  0
   -0.4648   -1.6376    1.4032 C   0  0  0  0  0  0  0  0  0  0  0  0
    4.1467   -1.4663    0.7731 C   0  0  0  0  0  0  0  0  0  0  0  0
    5.5201   -0.6021   -0.9987 C   0  0  0  0  0  0  0  0  0  0  0  0
   -1.3426    1.6517    1.2416 C   0  0  0  0  0  0  0  0  0  0  0  0
   -0.2902    2.4864   -0.7665 C   0  0  0  0  0  0  0  0  0  0  0  0
   -2.3506   -2.8444   -0.2611 C   0  0  0  0  0  0  0  0  0  0  0  0
   -1.0960   -2.8155    1.8034 C   0  0  0  0  0  0  0  0  0  0  0  0
   -1.8057    2.9351    1.5324 C   0  0  0  0  0  0  0  0  0  0  0  0
   -0.7531    3.7697   -0.4757 C   0  0  0  0  0  0  0  0  0  0  0  0
   -2.0389   -3.4189    0.9713 C   0  0  0  0  0  0  0  0  0  0  0  0
   -1.5109    3.9940    0.6737 C   0  0  0  0  0  0  0  0  0  0  0  0
   -3.9352   -0.6781   -2.0396 C   0  0  0  0  0  0  0  0  0  0  0  0
  1  9  1  0
  1 21  1  0
  2  4  1  0
  2  7  1  0
  2  8  1  0
  3  6  1  0
  3 11  1  0
  3 12  1  0
  4  5  1  0
  5  6  1  0
  7  9  2  0
  7 10  1  0
  8 13  2  0
  8 14  1  0
  9 15  1  0
 10 16  2  0
 13 17  1  0
 14 18  2  0
 15 19  2  0
 16 19  1  0
 17 20  2  0
 18 20  1  0
M  END
>  <PUBCHEM_COMPOUND_CID>  (1) 
45927

>  <PUBCHEM_CONFORMER_RMSD>  (1) 
0.8

>  <PUBCHEM_CONFORMER_DIVERSEORDER>  (1) 
1
39
15
48
28
22
24
13
41
12
42
3
10
45
19
16
37
18
30
49
40
47
36
5
7
23
32
46
27
29
38
14
2
9
20
4
8
21
17
35
31
50
44
26
33
11
34
25
6
43

>  <PUBCHEM_MMFF94_PARTIAL_CHARGES>  (1) 
29
1 -0.33
10 -0.15
11 0.27
12 0.27
13 -0.15
14 -0.15
15 -0.15
16 -0.15
17 -0.15
18 -0.15
19 -0.15
2 -0.57
20 -0.15
21 0.23
28 0.15
3 -0.81
35 0.15
36 0.15
37 0.15
38 0.15
39 0.15
4 0.37
40 0.15
41 0.15
42 0.15
6 0.27
7 0.1
8 0.1
9 0.1

>  <PUBCHEM_EFFECTIVE_ROTOR_COUNT>  (1) 
7

>  <PUBCHEM_PHARMACOPHORE_FEATURES>  (1) 
5
1 2 cation
1 21 hydrophobe
1 3 cation
6 7 9 10 15 16 19 rings
6 8 13 14 17 18 20 rings

>  <PUBCHEM_HEAVY_ATOM_COUNT>  (1) 
21

>  <PUBCHEM_ATOM_DEF_STEREO_COUNT>  (1) 
0

>  <PUBCHEM_ATOM_UDEF_STEREO_COUNT>  (1) 
0

>  <PUBCHEM_BOND_DEF_STEREO_COUNT>  (1) 
0

>  <PUBCHEM_BOND_UDEF_STEREO_COUNT>  (1) 
0

>  <PUBCHEM_ISOTOPIC_ATOM_COUNT>  (1) 
0

>  <PUBCHEM_COMPONENT_COUNT>  (1) 
1

>  <PUBCHEM_CACTVS_TAUTO_COUNT>  (1) 
1

>  <PUBCHEM_CONFORMER_ID>  (1) 
0000B36700000001

>  <PUBCHEM_MMFF94_ENERGY>  (1) 
84.9134

>  <PUBCHEM_FEATURE_SELFOVERLAP>  (1) 
25.372

>  <PUBCHEM_SHAPE_FINGERPRINT>  (1) 
1100329 8 18337684095672702081
12035759 4 17904456538272066479
12160290 23 18057064456992633332
12553582 1 18335986454056347362
12788726 201 18340194207414092626
13004483 165 18340768255663337754
13134695 92 17771056391757013397
13149001 5 18046885346231140111
13533116 47 17329444246800676219
13681431 1 17907852160675121768
14178342 30 18335412449310579194
14251740 79 18267856199224461766
14251757 17 17970891478758433045
14866123 147 18192994812082141458
15420108 30 17188959134559048840
1813 80 17697911359180906414
18915476 22 17258487272253663463
19049666 15 17613139085825656671
21120745 212 18121812614152263460
21524375 3 17981048518057681768
21731228 192 18049739416234119280
22907989 373 18335714857451371636
23114952 82 17540248078984977933
23175994 123 18266741475007542207
23526113 38 17976238446764744495
23558518 356 18194396684917331534
23559900 14 17104234561247654863
3027735 51 18130504124335828590
394222 165 16736052831967572243
57003041 14 17753620340416407995
621550 5 17462298146357739387
70251023 43 18059565940883341526
7364860 26 17329153979512998960
81228 2 18412254047656794960

>  <PUBCHEM_SHAPE_MULTIPOLES>  (1) 
426.06
6.64
4.93
1.79
12.42
3.64
-0.31
-4.05
-2.92
-4.45
2.03
-1.56
-0.59
-0.51

>  <PUBCHEM_SHAPE_SELFOVERLAP>  (1) 
868.462

>  <PUBCHEM_SHAPE_VOLUME>  (1) 
250.3

>  <PUBCHEM_COORDINATE_TYPE>  (1) 
2
5
10

$$$$
