45933
     RDKit          3D

 37 41  0  0  1  0  0  0  0  0999 V2000
    3.4155   -1.4005    0.5965 O   0  0  0  0  0  0  0  0  0  0  0  0
   -2.9382   -0.5490    1.1537 O   0  0  0  0  0  0  0  0  0  0  0  0
   -4.2911    0.4997   -1.1252 O   0  0  0  0  0  0  0  0  0  0  0  0
   -1.4586    2.1847    2.5329 O   0  0  0  0  0  0  0  0  0  0  0  0
    7.9265   -0.0596    0.6489 O   0  0  0  0  0  0  0  0  0  0  0  0
    7.9891   -2.3601    0.6452 O   0  0  0  0  0  0  0  0  0  0  0  0
   -5.1093   -0.9429   -2.7274 O   0  0  0  0  0  0  0  0  0  0  0  0
   -6.3680   -0.5366    0.3946 N   0  0  0  0  0  0  0  0  0  0  0  0
    2.6979   -0.3760   -0.1082 C   0  0  0  0  0  0  0  0  0  0  0  0
    1.2478   -0.3327    0.4473 C   0  0  0  0  0  0  0  0  0  0  0  0
    3.4552    0.9752   -0.0048 C   0  0  0  0  0  0  0  0  0  0  0  0
    0.4067    0.8575   -0.0920 C   0  0  0  0  0  0  0  0  0  0  0  0
   -1.0393    0.8897    0.5305 C   0  0  0  0  0  0  0  0  0  0  0  0
   -1.7541   -0.4904    0.3410 C   0  0  0  0  0  0  0  0  0  0  0  0
    4.6682    0.7721   -0.9671 C   0  0  0  0  0  0  0  0  0  0  0  0
    2.5698    2.1257   -0.5539 C   0  0  0  0  0  0  0  0  0  0  0  0
    1.1800    2.1816    0.0766 C   0  0  0  0  0  0  0  0  0  0  0  0
    2.8055   -0.7322   -1.6025 C   0  0  0  0  0  0  0  0  0  0  0  0
    0.5207   -1.6704    0.2191 C   0  0  0  0  0  0  0  0  0  0  0  0
   -0.8813   -1.6685    0.8117 C   0  0  0  0  0  0  0  0  0  0  0  0
    4.1089   -0.0977   -2.1088 C   0  0  0  0  0  0  0  0  0  0  0  0
   -1.9224    2.0198   -0.0691 C   0  0  0  0  0  0  0  0  0  0  0  0
    3.8923    1.3293    1.4310 C   0  0  0  0  0  0  0  0  0  0  0  0
   -2.1874   -0.7143   -1.1333 C   0  0  0  0  0  0  0  0  0  0  0  0
   -2.3061    1.7840   -1.5290 C   0  0  0  0  0  0  0  0  0  0  0  0
   -2.9998    0.4413   -1.7266 C   0  0  0  0  0  0  0  0  0  0  0  0
   -0.9267    1.2110    2.0101 C   0  0  0  0  0  0  0  0  0  0  0  0
    5.8841    0.1248   -0.3689 C   0  0  0  0  0  0  0  0  0  0  0  0
    6.9905    0.9240    0.1957 C   0  0  0  0  0  0  0  0  0  0  0  0
    6.1307   -1.1784   -0.2653 C   0  0  0  0  0  0  0  0  0  0  0  0
    7.4360   -1.3055    0.3845 C   0  0  0  0  0  0  0  0  0  0  0  0
   -5.2655   -0.2479   -1.7326 C   0  0  0  0  0  0  0  0  0  0  0  0
   -6.5570   -0.0736   -0.9731 C   0  0  0  0  0  0  0  0  0  0  0  0
   -5.9871   -1.9506    0.4141 C   0  0  0  0  0  0  0  0  0  0  0  0
   -7.5845   -0.3293    1.1836 C   0  0  0  0  0  0  0  0  0  0  0  0
   -5.7869   -2.4458    1.8364 C   0  0  0  0  0  0  0  0  0  0  0  0
   -7.9617    1.1416    1.2344 C   0  0  0  0  0  0  0  0  0  0  0  0
  1  9  1  0
  2 14  1  0
  3 26  1  0
  3 32  1  0
  4 27  2  0
  5 29  1  0
  5 31  1  0
  6 31  2  0
  7 32  2  0
  8 33  1  0
  8 34  1  0
  8 35  1  0
  9 10  1  0
  9 11  1  0
  9 18  1  0
 10 12  1  0
 10 19  1  0
 11 15  1  0
 11 16  1  0
 11 23  1  0
 12 13  1  0
 12 17  1  0
 13 14  1  0
 13 22  1  0
 13 27  1  0
 14 20  1  0
 14 24  1  0
 15 21  1  0
 15 28  1  0
 16 17  1  0
 18 21  1  0
 19 20  1  0
 22 25  1  0
 24 26  1  0
 25 26  1  0
 28 29  1  0
 28 30  2  0
 30 31  1  0
 32 33  1  0
 34 36  1  0
 35 37  1  0
M  END
>  <PUBCHEM_COMPOUND_CID>  (1) 
45933

>  <PUBCHEM_CONFORMER_RMSD>  (1) 
1

>  <PUBCHEM_CONFORMER_DIVERSEORDER>  (1) 
1
99
89
55
65
140
42
87
59
131
90
73
113
40
117
110
47
35
75
134
62
97
70
72
39
88
21
135
120
95
108
125
112
25
54
104
114
15
78
17
82
136
56
122
93
146
130
101
85
116
71
105
103
38
121
84
31
145
74
107
79
5
118
60
29
92
96
63
14
30
111
68
37
102
57
119
109
7
139
28
81
8
141
67
46
34
86
77
124
52
43
33
2
12
133
126
23
9
36
144
143
45
98
53
115
138
44
58
127
128
123
100
48
76
142
20
6
64
94
18
66
132
91
49
41
24
19
137
106
27
26
51
83
13
129
61
80
10
32
16
69
147
3
11
22
4
50

>  <PUBCHEM_MMFF94_PARTIAL_CHARGES>  (1) 
26
1 -0.68
13 0.06
14 0.28
15 0.14
2 -0.68
26 0.28
27 0.45
28 -0.28
29 0.42
3 -0.43
30 -0.14
31 0.71
32 0.66
33 0.33
34 0.27
35 0.27
4 -0.57
5 -0.43
6 -0.57
63 0.4
64 0.06
65 0.4
68 0.15
7 -0.57
8 -0.81
9 0.28

>  <PUBCHEM_EFFECTIVE_ROTOR_COUNT>  (1) 
10.6

>  <PUBCHEM_PHARMACOPHORE_FEATURES>  (1) 
13
1 1 acceptor
1 1 donor
1 2 acceptor
1 2 donor
1 4 acceptor
1 6 acceptor
1 7 acceptor
1 8 cation
5 5 28 29 30 31 rings
5 9 11 15 18 21 rings
6 10 12 13 14 19 20 rings
6 13 14 22 24 25 26 rings
6 9 10 11 12 16 17 rings

>  <PUBCHEM_HEAVY_ATOM_COUNT>  (1) 
37

>  <PUBCHEM_ATOM_DEF_STEREO_COUNT>  (1) 
6

>  <PUBCHEM_ATOM_UDEF_STEREO_COUNT>  (1) 
2

>  <PUBCHEM_BOND_DEF_STEREO_COUNT>  (1) 
0

>  <PUBCHEM_BOND_UDEF_STEREO_COUNT>  (1) 
0

>  <PUBCHEM_ISOTOPIC_ATOM_COUNT>  (1) 
0

>  <PUBCHEM_COMPONENT_COUNT>  (1) 
1

>  <PUBCHEM_CACTVS_TAUTO_COUNT>  (1) 
1

>  <PUBCHEM_CONFORMER_ID>  (1) 
0000B36D00000001

>  <PUBCHEM_MMFF94_ENERGY>  (1) 
113.0854

>  <PUBCHEM_FEATURE_SELFOVERLAP>  (1) 
66.207

>  <PUBCHEM_SHAPE_FINGERPRINT>  (1) 
10 15 12319734770030221830
10076449 9 17748831816868802413
11135609 12 18409731802753390970
11135926 11 18260544503389083563
12107698 1 17989201556076403024
12166972 35 17821730550635352236
12236239 1 17489589004438146677
13782708 43 18188212129711339107
13811026 1 18334006182433557708
13914758 101 16660360372715483306
14068700 675 17917986200651178264
14279260 333 18340208488702598187
14294032 229 16951396621169718709
14856354 85 17968100850561759183
15021287 119 17846502564947373641
15064986 266 18336553741837307060
15131766 46 13540455541676811594
15142383 8 14764630802531369192
15183329 4 18186516627389351553
15510800 12 18341623573221681822
1577012 14 13912591741597724053
15849732 13 16917353641139856425
17349148 13 18202004322614408004
18608769 82 18113337535359044739
21267235 1 18335139774283988196
21781051 124 17677063420106224531
21792961 116 18113329783259437335
21792965 78 18261946354459742134
23559900 14 18263072366087910020
23569917 315 18041002808810395218
3178227 256 18409171021252259778
3383291 50 17458063776443615002
4098825 35 17240201058006416710
484989 97 17894919567454449466
58083652 198 17417805193153916825
59755656 520 13406793341657446369
6009941 240 17846502543783513671
999808 66 18333168375599824663

>  <PUBCHEM_SHAPE_MULTIPOLES>  (1) 
715.38
21.48
2.19
1.91
1.5
0.27
0.25
8.12
-1.91
-0.06
-0.64
-2.23
-0.36
0.4

>  <PUBCHEM_SHAPE_SELFOVERLAP>  (1) 
1528.414

>  <PUBCHEM_SHAPE_VOLUME>  (1) 
394.5

>  <PUBCHEM_COORDINATE_TYPE>  (1) 
2
5
10

$$$$
