45930
     RDKit          3D

 16 15  0  0  0  0  0  0  0  0999 V2000
   -7.5049   -1.2776   -0.2955 N   0  0  0  0  0  0  0  0  0  0  0  0
    7.5282   -1.2518    0.3654 N   0  0  0  0  0  0  0  0  0  0  0  0
   -7.5647    1.0798   -0.4000 N   0  0  0  0  0  0  0  0  0  0  0  0
    7.5585    1.1075    0.3280 N   0  0  0  0  0  0  0  0  0  0  0  0
   -0.6223    0.0817    0.4705 C   0  0  0  0  0  0  0  0  0  0  0  0
    0.6220    0.0595   -0.4250 C   0  0  0  0  0  0  0  0  0  0  0  0
   -1.9347   -0.0017   -0.3125 C   0  0  0  0  0  0  0  0  0  0  0  0
    1.9685    0.0792    0.3063 C   0  0  0  0  0  0  0  0  0  0  0  0
   -3.1789    0.0989    0.5762 C   0  0  0  0  0  0  0  0  0  0  0  0
    3.1732   -0.0002   -0.6340 C   0  0  0  0  0  0  0  0  0  0  0  0
   -4.5228    0.0008   -0.1517 C   0  0  0  0  0  0  0  0  0  0  0  0
    4.4904    0.0356    0.1467 C   0  0  0  0  0  0  0  0  0  0  0  0
   -5.7287    0.0551    0.7846 C   0  0  0  0  0  0  0  0  0  0  0  0
    5.7163   -0.0071   -0.7655 C   0  0  0  0  0  0  0  0  0  0  0  0
   -7.0142   -0.0300   -0.0142 C   0  0  0  0  0  0  0  0  0  0  0  0
    7.0141   -0.0297    0.0207 C   0  0  0  0  0  0  0  0  0  0  0  0
  1 15  1  0
  2 16  1  0
  3 15  2  0
  4 16  2  0
  5  6  1  0
  5  7  1  0
  6  8  1  0
  7  9  1  0
  8 10  1  0
  9 11  1  0
 10 12  1  0
 11 13  1  0
 12 14  1  0
 13 15  1  0
 14 16  1  0
M  END
>  <PUBCHEM_COMPOUND_CID>  (1) 
45930

>  <PUBCHEM_CONFORMER_RMSD>  (1) 
1

>  <PUBCHEM_CONFORMER_DIVERSEORDER>  (1) 
1
62
102
36
13
32
119
107
2
30
50
18
29
122
110
41
70
74
9
106
12
65
38
63
57
5
15
6
84
10
68
89
130
59
3
125
43
82
17
35
77
48
123
58
31
20
22
108
45
92
69
33
44
21
76
73
120
118
131
135
124
95
79
52
66
60
4
24
127
26
71
51
14
136
11
67
25
8
78
93
23
72
116
86
114
39
134
47
85
34
100
27
54
88
55
81
105
90
7
37
61
16
94
40
87
121
19
96
104
28
129
53
113
80
133
112
97
91
98
99
111
115
56
49
83
128
117
109
42
46
75
126
101
132
64
103

>  <PUBCHEM_MMFF94_PARTIAL_CHARGES>  (1) 
14
1 -0.85
13 0.06
14 0.06
15 0.44
16 0.44
2 -0.85
3 -0.85
37 0.4
38 0.4
39 0.4
4 -0.85
40 0.4
41 0.4
42 0.4

>  <PUBCHEM_EFFECTIVE_ROTOR_COUNT>  (1) 
11

>  <PUBCHEM_PHARMACOPHORE_FEATURES>  (1) 
6
1 1 donor
1 2 donor
1 3 donor
1 4 donor
3 1 3 15 cation
3 2 4 16 cation

>  <PUBCHEM_HEAVY_ATOM_COUNT>  (1) 
16

>  <PUBCHEM_ATOM_DEF_STEREO_COUNT>  (1) 
0

>  <PUBCHEM_ATOM_UDEF_STEREO_COUNT>  (1) 
0

>  <PUBCHEM_BOND_DEF_STEREO_COUNT>  (1) 
0

>  <PUBCHEM_BOND_UDEF_STEREO_COUNT>  (1) 
0

>  <PUBCHEM_ISOTOPIC_ATOM_COUNT>  (1) 
0

>  <PUBCHEM_COMPONENT_COUNT>  (1) 
1

>  <PUBCHEM_CACTVS_TAUTO_COUNT>  (1) 
1

>  <PUBCHEM_CONFORMER_ID>  (1) 
0000B36A00000001

>  <PUBCHEM_MMFF94_ENERGY>  (1) 
14.5214

>  <PUBCHEM_FEATURE_SELFOVERLAP>  (1) 
30.525

>  <PUBCHEM_SHAPE_FINGERPRINT>  (1) 
10066227 49 18340489950531318710
10968037 39 14836124351926632157
11315181 36 17775007899735716241
11638347 137 17131836431206713998
12091667 2 18259706701545759929
13073987 5 15913060754661950442
13533116 47 17313093121366801296
13885169 127 18261110751549892485
14123256 10 18411138030332082451
14251764 18 15841554063157222763
14251764 46 18410857659151417347
14729087 3 18259983752363732125
15716309 27 18343863316512962398
17834076 25 18411139134138697010
18006028 8 17748827423249225149
20621476 8 15357694184519273618
21315763 28 18410575084705653700
22224240 67 18408039628388389074
23521765 1 18341895194640672132
28498 318 14345788341021081450
33532 11 18335419033211198074
33684 2 18410855455833201003
57583515 80 17458067067011055489
59682541 35 17418089949100506418
67123 10 18343301491524376892
8209 1 18410575084663098412

>  <PUBCHEM_SHAPE_MULTIPOLES>  (1) 
309.35
27.57
0.88
0.79
0.03
0.07
0
1
0.05
0
0
0
-0.01
-0.04

>  <PUBCHEM_SHAPE_SELFOVERLAP>  (1) 
568.251

>  <PUBCHEM_SHAPE_VOLUME>  (1) 
190.2

>  <PUBCHEM_COORDINATE_TYPE>  (1) 
2
5
10

$$$$
