45939
     RDKit          3D

 21 23  0  0  1  0  0  0  0  0999 V2000
   -0.4715    1.3209    0.7875 S   0  0  0  0  0  0  0  0  0  0  0  0
   -0.0350    0.9763    2.1278 O   0  0  0  0  0  0  0  0  0  0  0  0
   -0.7640    2.7001    0.4415 O   0  0  0  0  0  0  0  0  0  0  0  0
   -0.4629    1.1252   -2.3684 O   0  0  0  0  0  0  0  0  0  0  0  0
    1.6565    0.0756    0.3810 N   0  0  0  0  0  0  0  0  0  0  0  0
    0.6138    0.6295   -0.3359 N   0  0  0  0  0  0  0  0  0  0  0  0
    3.2450   -1.7738   -0.0826 C   0  0  0  0  0  0  0  0  0  0  0  0
    2.9369    0.7712    0.1425 C   0  0  0  0  0  0  0  0  0  0  0  0
    4.0815   -1.2608    1.1016 C   0  0  0  0  0  0  0  0  0  0  0  0
    3.7334   -1.0842   -1.3666 C   0  0  0  0  0  0  0  0  0  0  0  0
    3.9165    0.2617    1.2201 C   0  0  0  0  0  0  0  0  0  0  0  0
    3.5175    0.4293   -1.2447 C   0  0  0  0  0  0  0  0  0  0  0  0
    1.7719   -1.3746    0.1427 C   0  0  0  0  0  0  0  0  0  0  0  0
    0.4699    0.6251   -1.7533 C   0  0  0  0  0  0  0  0  0  0  0  0
   -1.9582    0.4205    0.4532 C   0  0  0  0  0  0  0  0  0  0  0  0
   -3.0863    1.1096    0.0468 C   0  0  0  0  0  0  0  0  0  0  0  0
   -1.9611   -0.9541    0.6050 C   0  0  0  0  0  0  0  0  0  0  0  0
   -4.2578    0.3997   -0.2169 C   0  0  0  0  0  0  0  0  0  0  0  0
   -3.1325   -1.6640    0.3412 C   0  0  0  0  0  0  0  0  0  0  0  0
   -4.2808   -0.9870   -0.0697 C   0  0  0  0  0  0  0  0  0  0  0  0
   -5.5327   -1.7463   -0.3529 C   0  0  0  0  0  0  0  0  0  0  0  0
  1  2  2  0
  1  3  2  0
  1  6  1  0
  1 15  1  0
  4 14  2  0
  5  6  1  0
  5  8  1  0
  5 13  1  0
  6 14  1  0
  7  9  1  0
  7 10  1  0
  7 13  1  0
  8 11  1  0
  8 12  1  0
  9 11  1  0
 10 12  1  0
 15 16  2  0
 15 17  1  0
 16 18  1  0
 17 19  2  0
 18 20  2  0
 19 20  1  0
 20 21  1  0
M  END
>  <PUBCHEM_COMPOUND_CID>  (1) 
45939

>  <PUBCHEM_CONFORMER_RMSD>  (1) 
0.8

>  <PUBCHEM_CONFORMER_DIVERSEORDER>  (1) 
5
14
12
13
10
6
11
3
9
4
1
2
7
8

>  <PUBCHEM_MMFF94_PARTIAL_CHARGES>  (1) 
21
1 1.45
13 0.27
14 0.75
15 -0.01
16 -0.15
17 -0.15
18 -0.15
19 -0.15
2 -0.65
20 -0.14
21 0.14
3 -0.65
34 0.06
35 0.15
36 0.15
37 0.15
38 0.15
4 -0.57
5 -0.47
6 -0.45
8 0.27

>  <PUBCHEM_EFFECTIVE_ROTOR_COUNT>  (1) 
5.2

>  <PUBCHEM_PHARMACOPHORE_FEATURES>  (1) 
5
1 2 acceptor
1 3 acceptor
1 4 acceptor
6 15 16 17 18 19 20 rings
8 5 7 8 9 10 11 12 13 rings

>  <PUBCHEM_HEAVY_ATOM_COUNT>  (1) 
21

>  <PUBCHEM_ATOM_DEF_STEREO_COUNT>  (1) 
0

>  <PUBCHEM_ATOM_UDEF_STEREO_COUNT>  (1) 
0

>  <PUBCHEM_BOND_DEF_STEREO_COUNT>  (1) 
0

>  <PUBCHEM_BOND_UDEF_STEREO_COUNT>  (1) 
0

>  <PUBCHEM_ISOTOPIC_ATOM_COUNT>  (1) 
0

>  <PUBCHEM_COMPONENT_COUNT>  (1) 
1

>  <PUBCHEM_CACTVS_TAUTO_COUNT>  (1) 
1

>  <PUBCHEM_CONFORMER_ID>  (1) 
0000B37300000005

>  <PUBCHEM_MMFF94_ENERGY>  (1) 
45.957

>  <PUBCHEM_FEATURE_SELFOVERLAP>  (1) 
25.39

>  <PUBCHEM_SHAPE_FINGERPRINT>  (1) 
11370993 70 18411411787289927347
11552529 35 14548154628196319007
11578080 2 17969481810315826284
11796584 16 18412542111619733199
12363563 72 18130797775813153259
12553582 1 18338533992000317907
12633257 1 18057332677720874242
12916748 109 8214133062899214013
13224815 77 18060140929302720882
13544653 18 18410296925733566763
13583140 156 17845918650546313593
14115302 16 18188497998750511479
14178342 30 18120926206037560906
14252887 29 17132119052100532498
14787075 74 17843958367712006040
15196674 1 18412262826775487875
15309172 13 15554446271308462100
15342816 4 18333169470515934446
16945 1 18336838497941860360
17349148 13 18186525388521476075
17834072 14 18343018887250829339
1813 80 17821730533112416013
18186145 218 13912327871449112696
18222031 100 16917068875754012549
192875 21 16153703198649429680
19862831 5 15140678068381077299
200 152 18333731299598643818
20261772 1 16415474965070000413
20281475 54 18343308041507882625
20626108 58 17822845523633736067
21250096 35 18412825811146637355
21503847 285 10807939275429083402
22854114 59 14764630806694415779
23184049 59 16128655249451926852
23402539 116 16515680005545373572
23419403 2 18046595006078459564
23557571 272 17988377987470179989
23559900 14 18342458097776818616
2637199 183 9943532933174972712
2871803 45 18409450284310503930
296302 2 17749396983162362012
3004659 81 18259984859853319146
31174 14 16988837294075992704
3286 77 18336259055741147360
427121 178 13614251424631816791
463206 1 18340204223747961951
465052 167 17203335536886262023
5104073 3 18059855017413947091
5161694 15 13334743418409827842
633830 44 11384113046333234289
6442390 28 13254508812130809748
960060 61 17095245825772372262
9709674 26 18411142424131625427
9981440 41 16451529296103030333

>  <PUBCHEM_SHAPE_MULTIPOLES>  (1) 
408.45
9.57
1.98
1.53
5.14
0.11
0.43
-5.12
0.23
0.67
-0.15
-1.03
0.43
-0.11

>  <PUBCHEM_SHAPE_SELFOVERLAP>  (1) 
855.383

>  <PUBCHEM_SHAPE_VOLUME>  (1) 
234.1

>  <PUBCHEM_COORDINATE_TYPE>  (1) 
2
5
10

$$$$
