45945
     RDKit          3D

 13 14  0  0  0  0  0  0  0  0999 V2000
   -1.6140   -2.4990   -0.0002 Br  0  0  0  0  0  0  0  0  0  0  0  0
    1.5390   -2.8880    0.0000 Br  0  0  0  0  0  0  0  0  0  0  0  0
   -3.4436   -0.2518    0.0005 O   0  0  0  0  0  0  0  0  0  0  0  0
    0.2600   -0.1377    0.0000 C   0  0  0  0  0  0  0  0  0  0  0  0
    0.4437    1.2656    0.0000 C   0  0  0  0  0  0  0  0  0  0  0  0
   -1.0437   -0.6597   -0.0001 C   0  0  0  0  0  0  0  0  0  0  0  0
   -0.6819    2.1056   -0.0001 C   0  0  0  0  0  0  0  0  0  0  0  0
    1.3855   -0.9777    0.0000 C   0  0  0  0  0  0  0  0  0  0  0  0
    1.7474    1.7875    0.0001 C   0  0  0  0  0  0  0  0  0  0  0  0
   -2.1505    0.1896   -0.0002 C   0  0  0  0  0  0  0  0  0  0  0  0
   -1.9699    1.5695   -0.0002 C   0  0  0  0  0  0  0  0  0  0  0  0
    2.6737   -0.4418    0.0001 C   0  0  0  0  0  0  0  0  0  0  0  0
    2.8543    0.9381    0.0000 C   0  0  0  0  0  0  0  0  0  0  0  0
  1  6  1  0
  2  8  1  0
  3 10  1  0
  4  5  1  0
  4  6  2  0
  4  8  1  0
  5  7  2  0
  5  9  1  0
  6 10  1  0
  7 11  1  0
  8 12  2  0
  9 13  2  0
 10 11  2  0
 12 13  1  0
M  END
>  <PUBCHEM_COMPOUND_CID>  (1) 
45945

>  <PUBCHEM_CONFORMER_RMSD>  (1) 
0.4

>  <PUBCHEM_CONFORMER_DIVERSEORDER>  (1) 
1

>  <PUBCHEM_MMFF94_PARTIAL_CHARGES>  (1) 
17
1 -0.11
10 0.08
11 -0.15
12 -0.15
13 -0.15
14 0.15
15 0.15
16 0.15
17 0.15
18 0.15
19 0.45
2 -0.11
3 -0.53
6 0.11
7 -0.15
8 0.11
9 -0.15

>  <PUBCHEM_EFFECTIVE_ROTOR_COUNT>  (1) 
0

>  <PUBCHEM_PHARMACOPHORE_FEATURES>  (1) 
5
1 1 hydrophobe
1 2 hydrophobe
1 3 donor
6 4 5 6 7 10 11 rings
6 4 5 8 9 12 13 rings

>  <PUBCHEM_HEAVY_ATOM_COUNT>  (1) 
13

>  <PUBCHEM_ATOM_DEF_STEREO_COUNT>  (1) 
0

>  <PUBCHEM_ATOM_UDEF_STEREO_COUNT>  (1) 
0

>  <PUBCHEM_BOND_DEF_STEREO_COUNT>  (1) 
0

>  <PUBCHEM_BOND_UDEF_STEREO_COUNT>  (1) 
0

>  <PUBCHEM_ISOTOPIC_ATOM_COUNT>  (1) 
0

>  <PUBCHEM_COMPONENT_COUNT>  (1) 
1

>  <PUBCHEM_CACTVS_TAUTO_COUNT>  (1) 
3

>  <PUBCHEM_CONFORMER_ID>  (1) 
0000B37900000001

>  <PUBCHEM_MMFF94_ENERGY>  (1) 
54.635

>  <PUBCHEM_FEATURE_SELFOVERLAP>  (1) 
25.398

>  <PUBCHEM_SHAPE_FINGERPRINT>  (1) 
10967382 1 18410575088979340103
11132069 177 18339355391711113048
12382932 28 18340486784675327547
12524768 44 18408605837921034875
13140716 1 18267020742033069506
13380535 76 18409725192276866250
16945 1 18410855451633322148
17990270 104 18266177223541633098
193761 8 18266740168994254790
20201158 50 18408884035837692195
20588541 1 18410013264465404537
20645477 70 18337383851941855567
21501502 16 18267587896743700865
2334 1 17978229687970949322
23463225 33 18335135410396794328
23552423 10 18263932042193280316
23559900 14 18199197196757254302
241688 4 17689718562902951402
2748010 2 18122343746475648686
2897 32 18409449141901580414
528886 8 18339356486869666736
66348 1 18410856572598726390
7364860 26 18269834225222900586
8809292 202 18261959638624172914

>  <PUBCHEM_SHAPE_MULTIPOLES>  (1) 
273.55
4.05
3.11
0.63
0.57
1.63
0
-0.02
0
-0.3
0
-0.02
0.06
0

>  <PUBCHEM_SHAPE_SELFOVERLAP>  (1) 
572.164

>  <PUBCHEM_SHAPE_VOLUME>  (1) 
161.3

>  <PUBCHEM_COORDINATE_TYPE>  (1) 
2
5
10

$$$$
