45942
     RDKit          3D

 15 16  0  0  0  0  0  0  0  0999 V2000
   -1.8172    3.1221    0.0001 Br  0  0  0  0  0  0  0  0  0  0  0  0
    0.1442   -3.2070   -0.0179 Br  0  0  0  0  0  0  0  0  0  0  0  0
    3.1076   -2.1607    0.0147 Br  0  0  0  0  0  0  0  0  0  0  0  0
   -2.9878   -2.3625    0.0072 Br  0  0  0  0  0  0  0  0  0  0  0  0
   -3.3738    0.5693    0.0008 O   0  0  0  0  0  0  0  0  0  0  0  0
    0.2673    1.0747   -0.0006 C   0  0  0  0  0  0  0  0  0  0  0  0
    0.7180   -0.2669   -0.0003 C   0  0  0  0  0  0  0  0  0  0  0  0
   -1.1127    1.3356    0.0000 C   0  0  0  0  0  0  0  0  0  0  0  0
   -0.2244   -1.3080    0.0005 C   0  0  0  0  0  0  0  0  0  0  0  0
    2.0980   -0.5278   -0.0009 C   0  0  0  0  0  0  0  0  0  0  0  0
    1.2098    2.1158   -0.0015 C   0  0  0  0  0  0  0  0  0  0  0  0
   -2.0349    0.2887    0.0008 C   0  0  0  0  0  0  0  0  0  0  0  0
   -1.5916   -1.0305    0.0011 C   0  0  0  0  0  0  0  0  0  0  0  0
    3.0204    0.5190   -0.0018 C   0  0  0  0  0  0  0  0  0  0  0  0
    2.5771    1.8382   -0.0021 C   0  0  0  0  0  0  0  0  0  0  0  0
  1  8  1  0
  2  9  1  0
  3 10  1  0
  4 13  1  0
  5 12  1  0
  6  7  1  0
  6  8  2  0
  6 11  1  0
  7  9  2  0
  7 10  1  0
  8 12  1  0
  9 13  1  0
 10 14  2  0
 11 15  2  0
 12 13  2  0
 14 15  1  0
M  END
>  <PUBCHEM_COMPOUND_CID>  (1) 
45942

>  <PUBCHEM_CONFORMER_RMSD>  (1) 
0.4

>  <PUBCHEM_CONFORMER_DIVERSEORDER>  (1) 
1

>  <PUBCHEM_MMFF94_PARTIAL_CHARGES>  (1) 
17
1 -0.11
10 0.11
11 -0.15
12 0.08
13 0.11
14 -0.15
15 -0.15
16 0.15
17 0.15
18 0.15
19 0.45
2 -0.11
3 -0.11
4 -0.11
5 -0.53
8 0.11
9 0.11

>  <PUBCHEM_EFFECTIVE_ROTOR_COUNT>  (1) 
0

>  <PUBCHEM_PHARMACOPHORE_FEATURES>  (1) 
7
1 1 hydrophobe
1 2 hydrophobe
1 3 hydrophobe
1 4 hydrophobe
1 5 donor
6 6 7 10 11 14 15 rings
6 6 7 8 9 12 13 rings

>  <PUBCHEM_HEAVY_ATOM_COUNT>  (1) 
15

>  <PUBCHEM_ATOM_DEF_STEREO_COUNT>  (1) 
0

>  <PUBCHEM_ATOM_UDEF_STEREO_COUNT>  (1) 
0

>  <PUBCHEM_BOND_DEF_STEREO_COUNT>  (1) 
0

>  <PUBCHEM_BOND_UDEF_STEREO_COUNT>  (1) 
0

>  <PUBCHEM_ISOTOPIC_ATOM_COUNT>  (1) 
0

>  <PUBCHEM_COMPONENT_COUNT>  (1) 
1

>  <PUBCHEM_CACTVS_TAUTO_COUNT>  (1) 
3

>  <PUBCHEM_CONFORMER_ID>  (1) 
0000B37600000001

>  <PUBCHEM_MMFF94_ENERGY>  (1) 
67.16

>  <PUBCHEM_FEATURE_SELFOVERLAP>  (1) 
35.549

>  <PUBCHEM_SHAPE_FINGERPRINT>  (1) 
10693767 8 17047365131451873863
10967382 1 18050286169712613359
11680986 33 18410854365133216426
12423570 1 12326821049056030088
12553582 1 17979071913946780823
13140716 1 18410858771875222403
14178342 30 18338783512705273986
14790565 3 17688330283861506709
15442244 35 18338797810456236106
16945 1 18338517422085035303
193761 8 18338798909772574535
19591789 44 16754664084532817265
20510252 161 18271248351410064641
20588541 1 17977103792385623171
21501502 16 18410857693585125674
23184049 29 18410290294230351442
2334 1 18266740366794962919
23402539 116 18055344996915995943
23419403 2 16104077788758383257
23463225 33 18336826390555659826
23558518 356 18333735688928626352
23559900 14 17982451495928880854
2748010 2 18338234985120117927
335352 9 18266741273122642647
7364860 26 18341892991992329882
8809292 202 18334581213254698827

>  <PUBCHEM_SHAPE_MULTIPOLES>  (1) 
326.59
4.85
4.01
0.65
0.49
0.5
0
0.61
-0.02
-1.01
0.01
0.01
0.04
0

>  <PUBCHEM_SHAPE_SELFOVERLAP>  (1) 
656.561

>  <PUBCHEM_SHAPE_VOLUME>  (1) 
201.4

>  <PUBCHEM_COORDINATE_TYPE>  (1) 
2
5
10

$$$$
