45949
     RDKit          3D

 21 23  0  0  1  0  0  0  0  0999 V2000
    3.2566   -1.5571   -0.5214 O   0  0  0  0  0  0  0  0  0  0  0  0
   -2.3242   -0.4499    1.9189 O   0  0  0  0  0  0  0  0  0  0  0  0
   -4.1727    0.5801   -0.0361 N   0  0  0  0  0  0  0  0  0  0  0  0
   -2.1780   -0.7828    0.5326 C   0  0  0  0  0  0  0  0  0  0  0  0
   -2.7608    0.3505   -0.3338 C   0  0  0  0  0  0  0  0  0  0  0  0
   -0.7337   -1.0279    0.2423 C   0  0  0  0  0  0  0  0  0  0  0  0
    1.5420   -0.2237    0.1081 C   0  0  0  0  0  0  0  0  0  0  0  0
   -4.9578   -0.6219   -0.3175 C   0  0  0  0  0  0  0  0  0  0  0  0
   -4.6815    1.7138   -0.8079 C   0  0  0  0  0  0  0  0  0  0  0  0
    0.1845    0.0212    0.3857 C   0  0  0  0  0  0  0  0  0  0  0  0
    1.9141   -1.5014   -0.2978 C   0  0  0  0  0  0  0  0  0  0  0  0
    2.7418    0.5460    0.1313 C   0  0  0  0  0  0  0  0  0  0  0  0
   -0.3184   -2.2969   -0.1676 C   0  0  0  0  0  0  0  0  0  0  0  0
    1.0246   -2.5639   -0.4488 C   0  0  0  0  0  0  0  0  0  0  0  0
    3.7590   -0.3180   -0.2621 C   0  0  0  0  0  0  0  0  0  0  0  0
   -6.4191   -0.4207    0.0459 C   0  0  0  0  0  0  0  0  0  0  0  0
   -3.8780    2.9727   -0.5287 C   0  0  0  0  0  0  0  0  0  0  0  0
    3.0773    1.8769    0.4418 C   0  0  0  0  0  0  0  0  0  0  0  0
    5.0990    0.0500   -0.3703 C   0  0  0  0  0  0  0  0  0  0  0  0
    4.4169    2.2761    0.3424 C   0  0  0  0  0  0  0  0  0  0  0  0
    5.4082    1.3768   -0.0569 C   0  0  0  0  0  0  0  0  0  0  0  0
  1 11  1  0
  1 15  1  0
  2  4  1  0
  3  5  1  0
  3  8  1  0
  3  9  1  0
  4  5  1  0
  4  6  1  0
  6 10  2  0
  6 13  1  0
  7 10  1  0
  7 11  2  0
  7 12  1  0
  8 16  1  0
  9 17  1  0
 11 14  1  0
 12 15  2  0
 12 18  1  0
 13 14  2  0
 15 19  1  0
 18 20  2  0
 19 21  2  0
 20 21  1  0
M  END
>  <PUBCHEM_COMPOUND_CID>  (1) 
45949

>  <PUBCHEM_CONFORMER_RMSD>  (1) 
0.8

>  <PUBCHEM_CONFORMER_DIVERSEORDER>  (1) 
3
10
11
8
9
2
6
1
17
16
13
7
14
15
12
5
4

>  <PUBCHEM_MMFF94_PARTIAL_CHARGES>  (1) 
25
1 -0.28
10 -0.15
11 0.14
13 -0.15
14 -0.15
15 0.14
18 -0.15
19 -0.15
2 -0.68
20 -0.15
21 -0.15
29 0.15
3 -0.81
30 0.15
31 0.15
38 0.4
39 0.15
4 0.42
40 0.15
41 0.15
42 0.15
5 0.27
6 -0.14
8 0.27
9 0.27

>  <PUBCHEM_EFFECTIVE_ROTOR_COUNT>  (1) 
5

>  <PUBCHEM_PHARMACOPHORE_FEATURES>  (1) 
7
1 1 acceptor
1 2 acceptor
1 2 donor
1 3 cation
5 1 7 11 12 15 rings
6 12 15 18 19 20 21 rings
6 6 7 10 11 13 14 rings

>  <PUBCHEM_HEAVY_ATOM_COUNT>  (1) 
21

>  <PUBCHEM_ATOM_DEF_STEREO_COUNT>  (1) 
0

>  <PUBCHEM_ATOM_UDEF_STEREO_COUNT>  (1) 
1

>  <PUBCHEM_BOND_DEF_STEREO_COUNT>  (1) 
0

>  <PUBCHEM_BOND_UDEF_STEREO_COUNT>  (1) 
0

>  <PUBCHEM_ISOTOPIC_ATOM_COUNT>  (1) 
0

>  <PUBCHEM_COMPONENT_COUNT>  (1) 
1

>  <PUBCHEM_CACTVS_TAUTO_COUNT>  (1) 
1

>  <PUBCHEM_CONFORMER_ID>  (1) 
0000B37D00000003

>  <PUBCHEM_MMFF94_ENERGY>  (1) 
46.0118

>  <PUBCHEM_FEATURE_SELFOVERLAP>  (1) 
35.721

>  <PUBCHEM_SHAPE_FINGERPRINT>  (1) 
10411042 1 17836369242427184302
10693767 8 17703237192139029862
11128504 68 16200431402867640537
11595378 159 16515959255634625405
11796584 16 11743840248634476269
12236239 1 17275393092369684803
12403259 415 18409737256823812621
12596602 18 15068913000302802917
12633257 1 15936411173332227102
12670546 177 17917709132252358743
12730499 353 18411425011520696339
12769317 202 18342448210488030544
12916748 109 18335140899359671857
13103583 49 11314308283333633757
13402501 40 18407755941303418381
13583140 156 17968101962008847018
13740256 8 9583515430103269380
14251751 18 11527947863233875321
14251764 38 18260553337530260797
14528608 73 18342173375630648639
15196674 1 18337670819670028269
15537594 2 13614526251352802165
15961568 22 18186239537015867597
17844677 252 18340774736905832045
18186145 218 18130241427361732858
200 152 17632296761479259467
20645477 56 18335140920871561563
20645477 70 18130794412775055254
21033648 29 18411410748060978776
21315763 129 18409164381190641701
21315764 268 18260258668424488380
221357 26 18272084994239393889
22289505 5 18342737373962583828
22950370 63 9367345959309160922
231179 274 18409733963058838666
23227448 37 18270398416015669527
23402655 69 18202561748374515711
23559900 14 18123746457115136371
2838139 119 18410284839722151516
2916195 48 18260545623953112981
29717793 49 16845303730481825740
335352 9 18341617036502412046
3545911 37 18411984688634691315
4325135 7 18272930557725957495
474 4 18343023306698557818
495365 180 17346308363104811232
5104073 3 18115591440017636777
5281201 14 18270685264270559567
59755656 520 18113892805763793410

>  <PUBCHEM_SHAPE_MULTIPOLES>  (1) 
415.45
13.16
2.65
0.87
7.5
0.66
-0.22
6.58
1.34
-0.1
0.41
0.4
-0.01
1.17

>  <PUBCHEM_SHAPE_SELFOVERLAP>  (1) 
897.166

>  <PUBCHEM_SHAPE_VOLUME>  (1) 
232.1

>  <PUBCHEM_COORDINATE_TYPE>  (1) 
2
5
10

$$$$
