45956
     RDKit          3D

 13 12  0  0  0  0  0  0  0  0999 V2000
   -0.1601   -0.7105   -0.1763 O   0  0  0  0  0  0  0  0  0  0  0  0
   -1.4141    0.7660    1.0574 O   0  0  0  0  0  0  0  0  0  0  0  0
    3.4782    0.1172   -0.1172 N   0  0  0  0  0  0  0  0  0  0  0  0
   -2.3881   -1.0258   -0.0484 N   0  0  0  0  0  0  0  0  0  0  0  0
    2.2172   -0.6431   -0.5016 C   0  0  0  0  0  0  0  0  0  0  0  0
    3.6263    0.1213    1.3975 C   0  0  0  0  0  0  0  0  0  0  0  0
    4.6890   -0.5595   -0.7435 C   0  0  0  0  0  0  0  0  0  0  0  0
    3.3806    1.5499   -0.6211 C   0  0  0  0  0  0  0  0  0  0  0  0
    1.0173    0.0161    0.1495 C   0  0  0  0  0  0  0  0  0  0  0  0
   -1.3333   -0.2296    0.3455 C   0  0  0  0  0  0  0  0  0  0  0  0
   -3.7604   -0.7865    0.3349 C   0  0  0  0  0  0  0  0  0  0  0  0
   -4.4031    0.0984   -0.6807 C   0  0  0  0  0  0  0  0  0  0  0  0
   -4.9494    1.2860   -0.3960 C   0  0  0  0  0  0  0  0  0  0  0  0
  1  9  1  0
  1 10  1  0
  2 10  2  0
  3  5  1  0
  3  6  1  0
  3  7  1  0
  3  8  1  0
  4 10  1  0
  4 11  1  0
  5  9  1  0
 11 12  1  0
 12 13  2  0
M  CHG  1   3   1
M  END
>  <PUBCHEM_COMPOUND_CID>  (1) 
45956

>  <PUBCHEM_CONFORMER_RMSD>  (1) 
0.8

>  <PUBCHEM_CONFORMER_DIVERSEORDER>  (1) 
1
27
32
43
3
30
49
31
2
22
47
25
23
14
33
19
13
17
4
38
51
37
41
20
8
24
53
9
28
34
16
35
10
45
5
7
15
40
26
6
29
44
21
12
48
36
54
42
18
50
46
11
52
39

>  <PUBCHEM_MMFF94_PARTIAL_CHARGES>  (1) 
17
1 -0.43
10 0.78
11 0.44
12 -0.29
13 -0.3
2 -0.57
27 0.37
3 -1.01
30 0.15
31 0.15
32 0.15
4 -0.73
5 0.5
6 0.5
7 0.5
8 0.5
9 0.28

>  <PUBCHEM_EFFECTIVE_ROTOR_COUNT>  (1) 
7

>  <PUBCHEM_PHARMACOPHORE_FEATURES>  (1) 
4
1 13 hydrophobe
1 2 acceptor
1 3 cation
1 4 donor

>  <PUBCHEM_HEAVY_ATOM_COUNT>  (1) 
13

>  <PUBCHEM_ATOM_DEF_STEREO_COUNT>  (1) 
0

>  <PUBCHEM_ATOM_UDEF_STEREO_COUNT>  (1) 
0

>  <PUBCHEM_BOND_DEF_STEREO_COUNT>  (1) 
0

>  <PUBCHEM_BOND_UDEF_STEREO_COUNT>  (1) 
0

>  <PUBCHEM_ISOTOPIC_ATOM_COUNT>  (1) 
0

>  <PUBCHEM_COMPONENT_COUNT>  (1) 
1

>  <PUBCHEM_CACTVS_TAUTO_COUNT>  (1) 
2

>  <PUBCHEM_CONFORMER_ID>  (1) 
0000B38400000001

>  <PUBCHEM_MMFF94_ENERGY>  (1) 
27.1366

>  <PUBCHEM_FEATURE_SELFOVERLAP>  (1) 
20.297

>  <PUBCHEM_SHAPE_FINGERPRINT>  (1) 
10680689 15 18260837029089494907
10912923 1 16877941667710368483
11062470 55 17967250909886030799
11401426 45 17989480827613168811
11987891 38 10952056658143426845
13955234 65 14273734063014774200
14123238 8 16443066110332281515
14252887 29 12179840594060679460
15242439 84 18273497862069295910
17834072 8 18334856100057233949
17834074 16 11887955466770023437
17834076 25 18040436581400287015
18186145 218 17530677740471174318
200 152 16200149876673004043
20279233 1 16988847198027996598
20432913 95 10375872991491922141
20645477 56 17968098595318683423
20645477 70 17917436371527395750
21119208 17 18342177769187136902
212847 35 17167859751414082692
22485316 2 16845568725447520967
22959321 105 18339645663007822495
23402539 116 18131063831461665143
23402655 69 18412547625998668580
23557571 272 18059582325677374621
23559900 14 18343303656678822790
42 15 15430029942050771538
522135 26 16588020204458229458
542803 24 16950005833064103046
58051976 378 15985108496197843734
633830 44 18114460145173310686
90127 26 18041007270795144009

>  <PUBCHEM_SHAPE_MULTIPOLES>  (1) 
245.83
11.24
1.18
0.99
3.97
0.39
-0.23
1.99
1.64
0.25
0.13
-0.65
0.03
0.13

>  <PUBCHEM_SHAPE_SELFOVERLAP>  (1) 
455.129

>  <PUBCHEM_SHAPE_VOLUME>  (1) 
156.8

>  <PUBCHEM_COORDINATE_TYPE>  (1) 
2
5
10

$$$$
