45954
     RDKit          3D

 21 22  0  0  0  0  0  0  0  0999 V2000
   -2.1229   -1.5343   -0.9357 O   0  0  0  0  0  0  0  0  0  0  0  0
    0.3280   -0.7432   -1.4494 O   0  0  0  0  0  0  0  0  0  0  0  0
   -5.7731   -0.1772    0.2277 O   0  0  0  0  0  0  0  0  0  0  0  0
   -4.5603   -1.7285   -0.7428 O   0  0  0  0  0  0  0  0  0  0  0  0
    1.2908    0.3678    0.3793 N   0  0  0  0  0  0  0  0  0  0  0  0
   -4.6659   -0.6301   -0.1477 N   0  0  0  0  0  0  0  0  0  0  0  0
    2.6719    0.0952    0.2212 C   0  0  0  0  0  0  0  0  0  0  0  0
    3.2142   -1.0338    0.8152 C   0  0  0  0  0  0  0  0  0  0  0  0
    3.4551    0.9623   -0.5246 C   0  0  0  0  0  0  0  0  0  0  0  0
   -1.0957    0.4193   -0.0234 C   0  0  0  0  0  0  0  0  0  0  0  0
    4.5741   -1.3027    0.6592 C   0  0  0  0  0  0  0  0  0  0  0  0
    4.8150    0.6935   -0.6802 C   0  0  0  0  0  0  0  0  0  0  0  0
    0.2237   -0.0457   -0.4287 C   0  0  0  0  0  0  0  0  0  0  0  0
    5.3747   -0.4391   -0.0887 C   0  0  0  0  0  0  0  0  0  0  0  0
    2.3830   -1.9780    1.6219 C   0  0  0  0  0  0  0  0  0  0  0  0
    2.8858    2.1832   -1.1712 C   0  0  0  0  0  0  0  0  0  0  0  0
   -2.2371   -0.3379   -0.2875 C   0  0  0  0  0  0  0  0  0  0  0  0
   -1.2077    1.6424    0.6380 C   0  0  0  0  0  0  0  0  0  0  0  0
   -3.4903    0.1278    0.1101 C   0  0  0  0  0  0  0  0  0  0  0  0
   -2.4611    2.1084    1.0355 C   0  0  0  0  0  0  0  0  0  0  0  0
   -3.6022    1.3507    0.7717 C   0  0  0  0  0  0  0  0  0  0  0  0
  1 17  1  0
  2 13  2  0
  3  6  1  0
  4  6  2  0
  5  7  1  0
  5 13  1  0
  6 19  1  0
  7  8  2  0
  7  9  1  0
  8 11  1  0
  8 15  1  0
  9 12  2  0
  9 16  1  0
 10 13  1  0
 10 17  2  0
 10 18  1  0
 11 14  2  0
 12 14  1  0
 17 19  1  0
 18 20  2  0
 19 21  2  0
 20 21  1  0
M  CHG  2   3  -1   6   1
M  END
>  <PUBCHEM_COMPOUND_CID>  (1) 
45954

>  <PUBCHEM_CONFORMER_RMSD>  (1) 
0.6

>  <PUBCHEM_CONFORMER_DIVERSEORDER>  (1) 
4
5
1
3
2
6

>  <PUBCHEM_MMFF94_PARTIAL_CHARGES>  (1) 
29
1 -0.53
10 0.09
11 -0.15
12 -0.15
13 0.54
14 -0.15
15 0.14
16 0.14
17 0.08
18 -0.15
19 0.13
2 -0.57
20 -0.15
21 -0.15
22 0.37
23 0.15
24 0.15
25 0.15
3 -0.52
32 0.15
33 0.15
34 0.15
35 0.45
4 -0.52
5 -0.55
6 0.91
7 0.12
8 -0.14
9 -0.14

>  <PUBCHEM_EFFECTIVE_ROTOR_COUNT>  (1) 
4

>  <PUBCHEM_PHARMACOPHORE_FEATURES>  (1) 
8
1 1 donor
1 2 acceptor
1 3 acceptor
1 3 anion
1 4 acceptor
1 5 donor
6 10 17 18 19 20 21 rings
6 7 8 9 11 12 14 rings

>  <PUBCHEM_HEAVY_ATOM_COUNT>  (1) 
21

>  <PUBCHEM_ATOM_DEF_STEREO_COUNT>  (1) 
0

>  <PUBCHEM_ATOM_UDEF_STEREO_COUNT>  (1) 
0

>  <PUBCHEM_BOND_DEF_STEREO_COUNT>  (1) 
0

>  <PUBCHEM_BOND_UDEF_STEREO_COUNT>  (1) 
0

>  <PUBCHEM_ISOTOPIC_ATOM_COUNT>  (1) 
0

>  <PUBCHEM_COMPONENT_COUNT>  (1) 
1

>  <PUBCHEM_CACTVS_TAUTO_COUNT>  (1) 
9

>  <PUBCHEM_CONFORMER_ID>  (1) 
0000B38200000004

>  <PUBCHEM_MMFF94_ENERGY>  (1) 
93.1112

>  <PUBCHEM_FEATURE_SELFOVERLAP>  (1) 
40.678

>  <PUBCHEM_SHAPE_FINGERPRINT>  (1) 
10366900 7 17240771661860760200
10616163 171 18413390955470066438
11045515 52 18040148531156337525
11578080 2 18193806367416956428
11615757 297 18187644691569528972
11963148 33 18060129977485394103
12107183 9 17616531761701553008
12236239 1 18409168809359894132
12403259 415 16558743495049092712
12670546 56 18411135835915368352
12788726 201 18272094872837943425
12839892 36 18059850628057915151
13167823 11 18408603651751091195
13533116 47 18259983756067791019
13583140 156 17822865182168762577
13862211 1 18060133289236591383
14341114 176 18409735053711545490
14341114 328 18411704266004167779
14386348 63 15985108513509665716
16752209 62 18059844056747051647
17349148 13 18273212002073355781
17492 89 18339362942111229587
17804303 29 17846494855043091193
17834072 33 18335138695904259970
1813 80 17896047551047938062
18222031 100 17632003256594486877
18681886 176 18272650173607467272
19422 9 18410575063657701978
200 152 18260265248250588385
20645477 70 17095795530436958554
21033648 29 16588014745022384597
21065198 48 18337110064544979240
21267235 1 18412271631178726722
2255824 54 18186243939958069324
22646028 1 18409728448104539824
2297311 6 17703518739338333864
23175994 123 15864078671750105765
23402539 116 18130782369997499933
23557571 272 17274554147554383573
23559900 14 17968658336161706713
312423 11 18409177609874536172
34797466 226 17203335550605048420
4214541 1 18341332210333060096
465052 167 18272092737743500023
474 4 17968946434658723196
5104073 3 18272090504254823393
573450 72 18342454807467925161
602551 16 17203317957611662190
67856867 119 18338796831452158040
7097593 13 18049154475942595514
7495541 125 17775564277645636040

>  <PUBCHEM_SHAPE_MULTIPOLES>  (1) 
398.73
11.65
1.98
1.15
2.43
0.27
-0.05
-2.02
0.21
-0.28
-0.21
-0.12
-0.1
-2.18

>  <PUBCHEM_SHAPE_SELFOVERLAP>  (1) 
863.151

>  <PUBCHEM_SHAPE_VOLUME>  (1) 
218.4

>  <PUBCHEM_COORDINATE_TYPE>  (1) 
2
5
10

$$$$
