45953
     RDKit          3D

 21 22  0  0  0  0  0  0  0  0999 V2000
   -1.7602    1.0156   -1.2690 O   0  0  0  0  0  0  0  0  0  0  0  0
    0.4831   -1.4741   -1.3127 O   0  0  0  0  0  0  0  0  0  0  0  0
   -5.6428    0.8686   -0.0760 O   0  0  0  0  0  0  0  0  0  0  0  0
   -4.0756    1.8247   -1.2797 O   0  0  0  0  0  0  0  0  0  0  0  0
    0.9917   -0.0515    0.4825 N   0  0  0  0  0  0  0  0  0  0  0  0
   -4.4546    0.9477   -0.4679 N   0  0  0  0  0  0  0  0  0  0  0  0
    2.3778    0.1862    0.3125 C   0  0  0  0  0  0  0  0  0  0  0  0
    2.9344    1.3842    0.7291 C   0  0  0  0  0  0  0  0  0  0  0  0
    3.1502   -0.8024   -0.2757 C   0  0  0  0  0  0  0  0  0  0  0  0
    4.5171   -0.5865   -0.4516 C   0  0  0  0  0  0  0  0  0  0  0  0
   -1.2560   -0.8689    0.1088 C   0  0  0  0  0  0  0  0  0  0  0  0
    4.3014    1.6000    0.5533 C   0  0  0  0  0  0  0  0  0  0  0  0
    5.0930    0.6145   -0.0368 C   0  0  0  0  0  0  0  0  0  0  0  0
    0.1403   -0.8382   -0.3042 C   0  0  0  0  0  0  0  0  0  0  0  0
    2.1115    2.4568    1.3664 C   0  0  0  0  0  0  0  0  0  0  0  0
   -2.1721    0.0599   -0.3848 C   0  0  0  0  0  0  0  0  0  0  0  0
   -1.6722   -1.8465    1.0128 C   0  0  0  0  0  0  0  0  0  0  0  0
    5.3631   -1.6395   -1.0841 C   0  0  0  0  0  0  0  0  0  0  0  0
   -3.5045    0.0112    0.0252 C   0  0  0  0  0  0  0  0  0  0  0  0
   -3.0046   -1.8952    1.4231 C   0  0  0  0  0  0  0  0  0  0  0  0
   -3.9207   -0.9666    0.9290 C   0  0  0  0  0  0  0  0  0  0  0  0
  1 16  1  0
  2 14  2  0
  3  6  1  0
  4  6  2  0
  5  7  1  0
  5 14  1  0
  6 19  1  0
  7  8  2  0
  7  9  1  0
  8 12  1  0
  8 15  1  0
  9 10  2  0
 10 13  1  0
 10 18  1  0
 11 14  1  0
 11 16  2  0
 11 17  1  0
 12 13  2  0
 16 19  1  0
 17 20  2  0
 19 21  2  0
 20 21  1  0
M  CHG  2   3  -1   6   1
M  END
>  <PUBCHEM_COMPOUND_CID>  (1) 
45953

>  <PUBCHEM_CONFORMER_RMSD>  (1) 
0.6

>  <PUBCHEM_CONFORMER_DIVERSEORDER>  (1) 
1
4
8
6
5
3
11
9
2
7
10

>  <PUBCHEM_MMFF94_PARTIAL_CHARGES>  (1) 
29
1 -0.53
10 -0.14
11 0.09
12 -0.15
13 -0.15
14 0.54
15 0.14
16 0.08
17 -0.15
18 0.14
19 0.13
2 -0.57
20 -0.15
21 -0.15
22 0.15
23 0.37
24 0.15
25 0.15
29 0.15
3 -0.52
33 0.15
34 0.15
35 0.45
4 -0.52
5 -0.55
6 0.91
7 0.12
8 -0.14
9 -0.15

>  <PUBCHEM_EFFECTIVE_ROTOR_COUNT>  (1) 
4

>  <PUBCHEM_PHARMACOPHORE_FEATURES>  (1) 
8
1 1 donor
1 2 acceptor
1 3 acceptor
1 3 anion
1 4 acceptor
1 5 donor
6 11 16 17 19 20 21 rings
6 7 8 9 10 12 13 rings

>  <PUBCHEM_HEAVY_ATOM_COUNT>  (1) 
21

>  <PUBCHEM_ATOM_DEF_STEREO_COUNT>  (1) 
0

>  <PUBCHEM_ATOM_UDEF_STEREO_COUNT>  (1) 
0

>  <PUBCHEM_BOND_DEF_STEREO_COUNT>  (1) 
0

>  <PUBCHEM_BOND_UDEF_STEREO_COUNT>  (1) 
0

>  <PUBCHEM_ISOTOPIC_ATOM_COUNT>  (1) 
0

>  <PUBCHEM_COMPONENT_COUNT>  (1) 
1

>  <PUBCHEM_CACTVS_TAUTO_COUNT>  (1) 
9

>  <PUBCHEM_CONFORMER_ID>  (1) 
0000B38100000001

>  <PUBCHEM_MMFF94_ENERGY>  (1) 
77.8196

>  <PUBCHEM_FEATURE_SELFOVERLAP>  (1) 
40.678

>  <PUBCHEM_SHAPE_FINGERPRINT>  (1) 
10366900 7 18259979392465368611
11045977 3 18408888446816564935
11370993 144 18341346542860382523
11405975 8 18334010601490831482
11471102 20 18131633396292371994
11545043 162 18187653534590856162
11595378 159 16153696596799594253
12236239 1 15913611648863841423
12390115 104 18116716210512266541
12403259 415 18410299133093581787
12507560 40 18337675320822037226
12596602 18 14923952236525187149
13134695 92 17632576067925169576
13402501 40 18411133615343689797
13583140 156 18341053016068697922
13631057 29 13336172886352263336
13675066 3 18337955696413636210
13760787 5 17346606278826174442
14341114 176 18408612469345414721
14341114 328 14562533963749427832
14573314 32 18333453144626683542
15081414 286 18129952286159036760
15242439 84 18409451371116304966
17349148 13 15913334602019531526
17844677 252 18041569125822055032
1813 80 14418132881434366462
18335252 114 17845644855768128853
192875 21 16702303451196025298
200 152 16988843865038267011
20645477 56 18259988154641666523
20645477 70 17988928855860270838
21033648 29 18340479066724819256
21065198 57 18335703883625553810
21065201 7 18040997375380567338
21279426 13 18196652900020440908
21503847 285 17458348567573194220
21792961 116 18338811035583765270
221357 26 18272647909495538204
2215653 11 18341333318677183414
22289505 5 18272089405492482304
23175994 123 18201728335825011120
23402539 116 18333447660254146559
23557571 272 18187659019570054351
23559900 14 18259988163115686502
2838139 119 17131278944261796273
3004659 81 18115031797669821070
3298306 158 18409732820540301782
351380 180 18272368676401604585
3545911 37 18259989249362422303
5104073 3 18260546727437845186
5281201 14 18337960081733552980
542803 24 15864073178249433278
57724786 102 18200886169990213672
602551 16 17531530996286889234
633830 44 18261948639376347574
67856867 119 13398045640185087826
90127 26 18261116308989452538
9971528 1 17489585650295262626

>  <PUBCHEM_SHAPE_MULTIPOLES>  (1) 
398.73
11.96
2.12
1.22
0.79
0.45
0.03
1.37
-1.38
0.55
0.32
-0.5
0
2.65

>  <PUBCHEM_SHAPE_SELFOVERLAP>  (1) 
861.353

>  <PUBCHEM_SHAPE_VOLUME>  (1) 
219.5

>  <PUBCHEM_COORDINATE_TYPE>  (1) 
2
5
10

$$$$
