45968
     RDKit          3D

 23 24  0  0  0  0  0  0  0  0999 V2000
   -0.7669    0.2995    1.3645 O   0  0  0  0  0  0  0  0  0  0  0  0
   -1.4936    0.2880   -0.8338 O   0  0  0  0  0  0  0  0  0  0  0  0
    4.4887    0.8134   -0.4969 N   0  0  0  0  0  0  0  0  0  0  0  0
   -3.0070    0.1182    0.9447 N   0  0  0  0  0  0  0  0  0  0  0  0
    3.0534    0.6558    0.0109 C   0  0  0  0  0  0  0  0  0  0  0  0
    2.5786   -0.6003    0.1880 C   0  0  0  0  0  0  0  0  0  0  0  0
    3.3695   -1.8386   -0.0815 C   0  0  0  0  0  0  0  0  0  0  0  0
    4.8052    2.3012   -0.6192 C   0  0  0  0  0  0  0  0  0  0  0  0
    4.6096    0.1195   -1.8508 C   0  0  0  0  0  0  0  0  0  0  0  0
    5.5088    0.1863    0.4512 C   0  0  0  0  0  0  0  0  0  0  0  0
    2.3729    1.8063    0.2431 C   0  0  0  0  0  0  0  0  0  0  0  0
    1.2688   -0.7230    0.6517 C   0  0  0  0  0  0  0  0  0  0  0  0
    2.7442   -2.7043   -1.1904 C   0  0  0  0  0  0  0  0  0  0  0  0
    3.5842   -2.6851    1.1863 C   0  0  0  0  0  0  0  0  0  0  0  0
    0.5110    0.4189    0.9112 C   0  0  0  0  0  0  0  0  0  0  0  0
    1.0631    1.6836    0.7069 C   0  0  0  0  0  0  0  0  0  0  0  0
   -1.7599    0.2380    0.3616 C   0  0  0  0  0  0  0  0  0  0  0  0
   -4.2626    0.0260    0.3025 C   0  0  0  0  0  0  0  0  0  0  0  0
   -5.4112   -0.0898    1.0693 C   0  0  0  0  0  0  0  0  0  0  0  0
   -4.3211    0.0542   -1.0818 C   0  0  0  0  0  0  0  0  0  0  0  0
   -6.6505   -0.1797    0.4353 C   0  0  0  0  0  0  0  0  0  0  0  0
   -5.5602   -0.0356   -1.7158 C   0  0  0  0  0  0  0  0  0  0  0  0
   -6.7250   -0.1526   -0.9572 C   0  0  0  0  0  0  0  0  0  0  0  0
  1 15  1  0
  1 17  1  0
  2 17  2  0
  3  5  1  0
  3  8  1  0
  3  9  1  0
  3 10  1  0
  4 17  1  0
  4 18  1  0
  5  6  2  0
  5 11  1  0
  6  7  1  0
  6 12  1  0
  7 13  1  0
  7 14  1  0
 11 16  2  0
 12 15  2  0
 15 16  1  0
 18 19  2  0
 18 20  1  0
 19 21  1  0
 20 22  2  0
 21 23  2  0
 22 23  1  0
M  CHG  1   3   1
M  END
>  <PUBCHEM_COMPOUND_CID>  (1) 
45968

>  <PUBCHEM_CONFORMER_RMSD>  (1) 
0.8

>  <PUBCHEM_CONFORMER_DIVERSEORDER>  (1) 
1
33
16
36
24
11
4
35
25
12
6
15
13
32
2
23
10
9
5
31
26
34
14
3
20
22
27
29
28
21
19
17
7
8
30
18

>  <PUBCHEM_MMFF94_PARTIAL_CHARGES>  (1) 
30
1 -0.23
10 0.5
11 -0.15
12 -0.15
15 0.08
16 -0.15
17 0.78
18 0.12
19 -0.15
2 -0.57
20 -0.15
21 -0.15
22 -0.15
23 -0.15
3 -0.87
34 0.15
35 0.15
4 -0.55
42 0.15
43 0.37
44 0.15
45 0.15
46 0.15
47 0.15
48 0.15
5 0.36
6 -0.14
7 0.14
8 0.5
9 0.5

>  <PUBCHEM_EFFECTIVE_ROTOR_COUNT>  (1) 
6

>  <PUBCHEM_PHARMACOPHORE_FEATURES>  (1) 
6
1 2 acceptor
1 3 cation
1 4 donor
3 7 13 14 hydrophobe
6 18 19 20 21 22 23 rings
6 5 6 11 12 15 16 rings

>  <PUBCHEM_HEAVY_ATOM_COUNT>  (1) 
23

>  <PUBCHEM_ATOM_DEF_STEREO_COUNT>  (1) 
0

>  <PUBCHEM_ATOM_UDEF_STEREO_COUNT>  (1) 
0

>  <PUBCHEM_BOND_DEF_STEREO_COUNT>  (1) 
0

>  <PUBCHEM_BOND_UDEF_STEREO_COUNT>  (1) 
0

>  <PUBCHEM_ISOTOPIC_ATOM_COUNT>  (1) 
0

>  <PUBCHEM_COMPONENT_COUNT>  (1) 
1

>  <PUBCHEM_CACTVS_TAUTO_COUNT>  (1) 
2

>  <PUBCHEM_CONFORMER_ID>  (1) 
0000B39000000001

>  <PUBCHEM_MMFF94_ENERGY>  (1) 
118.1849

>  <PUBCHEM_FEATURE_SELFOVERLAP>  (1) 
30.446

>  <PUBCHEM_SHAPE_FINGERPRINT>  (1) 
10673678 19 17605853618601260388
10693767 8 17987530230099686006
11045977 3 11167935879189892085
11719270 70 18333725815421766730
11796584 16 16702020902862540951
12107183 9 17411636700903863963
12236239 1 17489593363508185921
12516196 113 15339119056628276841
12596602 18 16056876944468907019
12730499 353 18260271875369146154
12788726 201 17560811987387744849
12916748 109 16443067188427121073
13150687 139 18200609102757406532
13533116 47 18202001002087801691
13540713 5 18122922932218170408
13668630 136 17561367301063445325
13675066 3 12895348902738437793
13836976 161 18413392059798232054
14573314 32 18040150695956413197
14576447 43 18060420209535351480
14863182 85 17489301941783318150
15183329 4 18130504159444204501
15250474 111 17846203472036187279
15348495 7 11743829288326082943
15475509 35 14907907003643890990
15537594 2 17632293484677857647
15799311 1 18130237038137706991
16991971 28 18190462646090114490
17134984 74 18272361023261000551
17349148 13 16845575318628326703
17492 89 18054792776218439926
17844677 252 18187083906590932853
17857418 61 17917423216659252227
18222031 100 16702301256694668209
18681886 176 16271643489823233784
20645477 70 18410015403259313666
21285901 2 18114180791831121956
21315763 178 17704068486867982539
21521239 73 17845951662783029910
21641784 216 18261126135617202701
220451 1 17775006795712985851
22061861 79 18333447621741722607
221357 26 18335414656539179725
22224240 67 17917700332555231946
22289505 5 18187359922179089084
2303208 19 17676498229071178051
23081809 10 18202562857267258539
23522609 53 17630916913316082745
23557571 272 16515682221648343380
23559900 14 18269833276109046753
29717793 49 17775574142890362325
3004659 81 17418373610458150609
314194 84 18202566163833355451
3472631 163 15213314061712838014
34797466 226 17168152243361605399
351380 3 17275103933917904229
4072396 5 18334848438473836040
4073 2 18114468967510845347
42630746 31 18410294709799506378
4340502 62 18113054948091416682
46194498 28 18259704510047342444
5281201 14 18114461180534644725
59682541 52 18336817616148418919
6025842 7 18409167705975513054
7164475 11 18128259982596258760
960060 61 18413390929768197885

>  <PUBCHEM_SHAPE_MULTIPOLES>  (1) 
451.63
16.31
2.04
1.42
23.59
0.93
-0.39
-0.03
-3.88
-4.46
-0.03
0.4
0.21
-0.46

>  <PUBCHEM_SHAPE_SELFOVERLAP>  (1) 
950.371

>  <PUBCHEM_SHAPE_VOLUME>  (1) 
255.7

>  <PUBCHEM_COORDINATE_TYPE>  (1) 
2
5
10

$$$$
