45964
     RDKit          3D

 18 18  0  0  0  0  0  0  0  0999 V2000
    1.4953    0.6476    0.9549 O   0  0  0  0  0  0  0  0  0  0  0  0
    1.9243    1.3289   -1.2264 O   0  0  0  0  0  0  0  0  0  0  0  0
   -3.2426    0.7656   -0.0253 N   0  0  0  0  0  0  0  0  0  0  0  0
    3.3429    1.9302    0.5081 N   0  0  0  0  0  0  0  0  0  0  0  0
   -1.9114    0.0112    0.0160 C   0  0  0  0  0  0  0  0  0  0  0  0
   -4.2458    0.0396    0.8664 C   0  0  0  0  0  0  0  0  0  0  0  0
   -3.7349    0.8140   -1.4691 C   0  0  0  0  0  0  0  0  0  0  0  0
   -3.1088    2.2009    0.4793 C   0  0  0  0  0  0  0  0  0  0  0  0
    0.4409   -1.3225    0.0881 C   0  0  0  0  0  0  0  0  0  0  0  0
    1.7307   -2.0736    0.1205 C   0  0  0  0  0  0  0  0  0  0  0  0
   -0.8332    0.6945    0.4688 C   0  0  0  0  0  0  0  0  0  0  0  0
   -1.9238   -1.2765   -0.4043 C   0  0  0  0  0  0  0  0  0  0  0  0
    0.3798    0.0069    0.5060 C   0  0  0  0  0  0  0  0  0  0  0  0
   -0.7110   -1.9642   -0.3672 C   0  0  0  0  0  0  0  0  0  0  0  0
    2.1840   -2.5231   -1.2808 C   0  0  0  0  0  0  0  0  0  0  0  0
    1.6809   -3.2859    1.0687 C   0  0  0  0  0  0  0  0  0  0  0  0
    2.2366    1.3137   -0.0394 C   0  0  0  0  0  0  0  0  0  0  0  0
    4.2961    2.6926   -0.2643 C   0  0  0  0  0  0  0  0  0  0  0  0
  1 13  1  0
  1 17  1  0
  2 17  2  0
  3  5  1  0
  3  6  1  0
  3  7  1  0
  3  8  1  0
  4 17  1  0
  4 18  1  0
  5 11  2  0
  5 12  1  0
  9 10  1  0
  9 13  2  0
  9 14  1  0
 10 15  1  0
 10 16  1  0
 11 13  1  0
 12 14  2  0
M  CHG  1   3   1
M  END
>  <PUBCHEM_COMPOUND_CID>  (1) 
45964

>  <PUBCHEM_CONFORMER_RMSD>  (1) 
0.6

>  <PUBCHEM_CONFORMER_DIVERSEORDER>  (1) 
1
18
30
17
20
21
26
36
34
7
19
35
27
16
37
11
24
14
28
12
25
8
32
33
22
13
29
31
6
15
23
9
10
4
5
2
3

>  <PUBCHEM_MMFF94_PARTIAL_CHARGES>  (1) 
20
1 -0.23
10 0.14
11 -0.15
12 -0.15
13 0.08
14 -0.15
17 0.78
18 0.3
2 -0.57
29 0.15
3 -0.87
30 0.15
31 0.15
38 0.37
4 -0.73
5 0.36
6 0.5
7 0.5
8 0.5
9 -0.14

>  <PUBCHEM_EFFECTIVE_ROTOR_COUNT>  (1) 
5

>  <PUBCHEM_PHARMACOPHORE_FEATURES>  (1) 
5
1 2 acceptor
1 3 cation
1 4 donor
3 10 15 16 hydrophobe
6 5 9 11 12 13 14 rings

>  <PUBCHEM_HEAVY_ATOM_COUNT>  (1) 
18

>  <PUBCHEM_ATOM_DEF_STEREO_COUNT>  (1) 
0

>  <PUBCHEM_ATOM_UDEF_STEREO_COUNT>  (1) 
0

>  <PUBCHEM_BOND_DEF_STEREO_COUNT>  (1) 
0

>  <PUBCHEM_BOND_UDEF_STEREO_COUNT>  (1) 
0

>  <PUBCHEM_ISOTOPIC_ATOM_COUNT>  (1) 
0

>  <PUBCHEM_COMPONENT_COUNT>  (1) 
1

>  <PUBCHEM_CACTVS_TAUTO_COUNT>  (1) 
2

>  <PUBCHEM_CONFORMER_ID>  (1) 
0000B38C00000001

>  <PUBCHEM_MMFF94_ENERGY>  (1) 
67.6972

>  <PUBCHEM_FEATURE_SELFOVERLAP>  (1) 
25.371

>  <PUBCHEM_SHAPE_FINGERPRINT>  (1) 
10382601 240 18187081737405536664
10726558 24 18341056332120599340
12173636 292 18051407667468297692
12500047 106 18052818332845445120
12592029 89 18408325497179681306
12644460 14 18335991865182286803
12788726 201 17033047802204764322
13132413 78 17766278669751697500
13134695 92 17901654969432868423
13140716 1 18337676317534310915
13380535 21 18341900722664820619
13464514 151 18271254850011918900
13583140 156 17823690876762275971
14123255 52 18337952393315214904
14181834 199 18339070476375992574
14250199 8 18269830918118980565
15042514 8 17543353112839231106
15502722 9 18411141311755681385
16945 1 18124030131436609003
1813 80 17626958482071228766
18186145 218 18058739133750925416
18785283 64 18261397741290777122
18981168 100 17894908495318651199
19765921 60 18342177816510840178
20510252 161 17981328107474820640
20600515 1 17910099218924469050
20645476 183 18045217408677201868
20645477 56 18122913298295594040
20645477 70 18341887438620936271
20671657 1 18338238167511659622
21029758 27 18049446933082389194
212916 134 18127392648711561784
21501502 16 18343293773948635687
21524375 3 18267018538867807530
2255824 54 18267581321244164523
2334 1 18341604949852907191
23366157 5 18260828164039716522
23402539 116 17910387626046187662
23419403 2 17830502424057552674
23559900 14 17986959729773170536
25 1 18271811267119655392
25147074 1 18201424888212735303
2748010 2 18409733958690239207
298252 57 18263641947570940264
305870 269 18335415807320830914
3071541 12 18340209574854277706
3071541 158 18122065303719598743
3091708 16 9476417457161235002
312423 11 18130225944241910105
474 4 18335696148325948832
559249 180 18266455589938129992
5939293 188 17980199686485322582
6049 1 17750240197296896909
6138700 20 18339930317004254254
7364860 26 18343303626392258782
74978 22 18266173938203121811
81228 2 17116902073022881634
81539 233 18334572460358847000
84936 182 18272367555674090840

>  <PUBCHEM_SHAPE_MULTIPOLES>  (1) 
348.73
6.81
3.45
1.11
2.63
0.88
-0.22
-4.97
-0.39
-4.22
0.11
0.16
0.2
-0.15

>  <PUBCHEM_SHAPE_SELFOVERLAP>  (1) 
707.291

>  <PUBCHEM_SHAPE_VOLUME>  (1) 
205.1

>  <PUBCHEM_COORDINATE_TYPE>  (1) 
2
5
10

$$$$
