45974
     RDKit          3D

 21 22  0  0  0  0  0  0  0  0999 V2000
    2.4918    0.3015   -0.8168 O   0  0  0  0  0  0  0  0  0  0  0  0
    2.8709    0.3193    1.4657 O   0  0  0  0  0  0  0  0  0  0  0  0
   -2.8590    1.6126    0.1834 N   0  0  0  0  0  0  0  0  0  0  0  0
    4.6411   -0.1578    0.0343 N   0  0  0  0  0  0  0  0  0  0  0  0
   -2.0858   -1.1991    0.0449 C   0  0  0  0  0  0  0  0  0  0  0  0
   -2.1932   -2.1091   -1.1918 C   0  0  0  0  0  0  0  0  0  0  0  0
   -1.7780   -2.1391    1.2290 C   0  0  0  0  0  0  0  0  0  0  0  0
   -2.4319   -3.5013   -0.6273 C   0  0  0  0  0  0  0  0  0  0  0  0
   -1.5628   -3.5189    0.6177 C   0  0  0  0  0  0  0  0  0  0  0  0
   -1.0860   -0.0802   -0.1443 C   0  0  0  0  0  0  0  0  0  0  0  0
   -1.4786    1.2576   -0.0740 C   0  0  0  0  0  0  0  0  0  0  0  0
    0.2497   -0.3999   -0.3939 C   0  0  0  0  0  0  0  0  0  0  0  0
   -0.5386    2.2724   -0.2527 C   0  0  0  0  0  0  0  0  0  0  0  0
   -3.3551    1.0388    1.5404 C   0  0  0  0  0  0  0  0  0  0  0  0
   -3.8819    1.0938   -0.8744 C   0  0  0  0  0  0  0  0  0  0  0  0
   -3.0576    3.1539    0.2164 C   0  0  0  0  0  0  0  0  0  0  0  0
    1.1899    0.6149   -0.5727 C   0  0  0  0  0  0  0  0  0  0  0  0
    0.7957    1.9510   -0.5021 C   0  0  0  0  0  0  0  0  0  0  0  0
    3.3112    0.1643    0.3271 C   0  0  0  0  0  0  0  0  0  0  0  0
    5.6058   -0.3317    1.1109 C   0  0  0  0  0  0  0  0  0  0  0  0
    5.1525   -0.3430   -1.3198 C   0  0  0  0  0  0  0  0  0  0  0  0
  1 17  1  0
  1 19  1  0
  2 19  2  0
  3 11  1  0
  3 14  1  0
  3 15  1  0
  3 16  1  0
  4 19  1  0
  4 20  1  0
  4 21  1  0
  5  6  1  0
  5  7  1  0
  5 10  1  0
  6  8  1  0
  7  9  1  0
  8  9  1  0
 10 11  2  0
 10 12  1  0
 11 13  1  0
 12 17  2  0
 13 18  2  0
 17 18  1  0
M  CHG  1   3   1
M  END
>  <PUBCHEM_COMPOUND_CID>  (1) 
45974

>  <PUBCHEM_CONFORMER_RMSD>  (1) 
0.8

>  <PUBCHEM_CONFORMER_DIVERSEORDER>  (1) 
1
3
5
4
6
14
7
2
9
11
13
12
10
8

>  <PUBCHEM_MMFF94_PARTIAL_CHARGES>  (1) 
20
1 -0.23
10 -0.14
11 0.36
12 -0.15
13 -0.15
14 0.5
15 0.5
16 0.5
17 0.08
18 -0.15
19 0.78
2 -0.57
20 0.3
21 0.3
3 -0.87
31 0.15
32 0.15
4 -0.66
42 0.15
5 0.14

>  <PUBCHEM_EFFECTIVE_ROTOR_COUNT>  (1) 
6

>  <PUBCHEM_PHARMACOPHORE_FEATURES>  (1) 
4
1 2 acceptor
1 3 cation
5 5 6 7 8 9 rings
6 10 11 12 13 17 18 rings

>  <PUBCHEM_HEAVY_ATOM_COUNT>  (1) 
21

>  <PUBCHEM_ATOM_DEF_STEREO_COUNT>  (1) 
0

>  <PUBCHEM_ATOM_UDEF_STEREO_COUNT>  (1) 
0

>  <PUBCHEM_BOND_DEF_STEREO_COUNT>  (1) 
0

>  <PUBCHEM_BOND_UDEF_STEREO_COUNT>  (1) 
0

>  <PUBCHEM_ISOTOPIC_ATOM_COUNT>  (1) 
0

>  <PUBCHEM_COMPONENT_COUNT>  (1) 
1

>  <PUBCHEM_CACTVS_TAUTO_COUNT>  (1) 
1

>  <PUBCHEM_CONFORMER_ID>  (1) 
0000B39600000001

>  <PUBCHEM_MMFF94_ENERGY>  (1) 
99.738

>  <PUBCHEM_FEATURE_SELFOVERLAP>  (1) 
20.297

>  <PUBCHEM_SHAPE_FINGERPRINT>  (1) 
10319926 262 18270097082244033474
10366900 7 17917988352592869112
10616163 171 18409731777036958374
1100329 8 18410574033040020473
11370993 144 17561096786769557170
11405975 8 18413105066052465632
11552529 35 17988645258927018682
11578080 2 17057238063059094787
12236239 1 17531537495020768284
12346177 29 18412539942080740326
12363563 72 18194122056213442862
12500047 106 18340764849743456024
12553582 1 18049174554825280046
12616971 3 17022903441907689540
12643181 29 18269000787479073550
12788726 201 18264216974713882603
13004483 165 18055349403832315119
13052359 8 18408319982367891191
13140716 1 18267873950393250913
13583140 156 17274813705961387466
14178342 30 18410569600406937154
14844126 61 18338227267059145426
14866123 147 18409448098594513979
15042514 8 18337962289494631067
16752209 62 18262507199752015907
16945 1 18411709781117053317
19591789 44 17977668610591919510
20554085 129 17982427336078458225
20600515 1 18342749494075976196
20681677 155 18335706009961315408
21033648 29 18198894834152446480
21452121 199 17834383901829465945
22182313 1 18198084511604983679
22224240 67 18271816666669279897
23184049 29 18121501512042160669
23402539 116 18271516559855043405
23419403 2 17200495610627339427
23557571 272 18272080656343108536
23558518 356 18115875281215657568
23559900 14 18271254824885460078
23598288 3 18117014340949677063
23728640 28 18408886235072152539
25147074 1 18191600845717006781
257057 1 17907858753866405575
3027735 51 18341889718874823103
312423 11 18118134786137141196
5104073 3 18341887533384543424
5364581 5 18126830811418628944
5385378 56 17835247740545461513
54173680 148 18338518659135973437
559249 180 18187919547991223426
58807428 26 18194691358528665321
5924683 9 18341885338086756562
59755656 520 18129388116202281257
602551 16 18411980256956383786
7364860 26 17403174799244908301
81228 2 18268997647340261339
9709674 26 18272091578471478566

>  <PUBCHEM_SHAPE_MULTIPOLES>  (1) 
410.47
8.81
3.65
1.24
15.59
2.13
-0.2
-0.25
-0.69
-5.48
-0.01
0.23
0.25
-0.36

>  <PUBCHEM_SHAPE_SELFOVERLAP>  (1) 
844.751

>  <PUBCHEM_SHAPE_VOLUME>  (1) 
238.8

>  <PUBCHEM_COORDINATE_TYPE>  (1) 
2
5
10

$$$$
