45978
     RDKit          3D

 18 17  0  0  0  0  0  0  0  0999 V2000
    6.7013   -0.4630    0.0598 O   0  0  0  0  0  0  0  0  0  0  0  0
    8.0385    1.4101    0.0051 O   0  0  0  0  0  0  0  0  0  0  0  0
   -7.1048    0.1349    0.0689 N   0  0  0  0  0  0  0  0  0  0  0  0
    8.9455   -0.6985    0.1395 N   0  0  0  0  0  0  0  0  0  0  0  0
   -5.9015   -0.7297    0.0554 C   0  0  0  0  0  0  0  0  0  0  0  0
   -4.6370    0.1086   -0.0846 C   0  0  0  0  0  0  0  0  0  0  0  0
   -3.3501   -0.7211   -0.0556 C   0  0  0  0  0  0  0  0  0  0  0  0
   -2.1111    0.1752   -0.1219 C   0  0  0  0  0  0  0  0  0  0  0  0
   -0.8240   -0.6496   -0.0518 C   0  0  0  0  0  0  0  0  0  0  0  0
   -7.0619    1.1144    1.2509 C   0  0  0  0  0  0  0  0  0  0  0  0
   -8.3826   -0.7075    0.1959 C   0  0  0  0  0  0  0  0  0  0  0  0
   -7.2035    0.9560   -1.2252 C   0  0  0  0  0  0  0  0  0  0  0  0
    0.4133    0.2497   -0.0851 C   0  0  0  0  0  0  0  0  0  0  0  0
    1.7321   -0.5289   -0.1074 C   0  0  0  0  0  0  0  0  0  0  0  0
    3.0083    0.3184   -0.0795 C   0  0  0  0  0  0  0  0  0  0  0  0
    4.2911   -0.5160   -0.0104 C   0  0  0  0  0  0  0  0  0  0  0  0
    5.5426    0.3546   -0.0168 C   0  0  0  0  0  0  0  0  0  0  0  0
    7.9037    0.1924    0.0628 C   0  0  0  0  0  0  0  0  0  0  0  0
  1 17  1  0
  1 18  1  0
  2 18  2  0
  3  5  1  0
  3 10  1  0
  3 11  1  0
  3 12  1  0
  4 18  1  0
  5  6  1  0
  6  7  1  0
  7  8  1  0
  8  9  1  0
  9 13  1  0
 13 14  1  0
 14 15  1  0
 15 16  1  0
 16 17  1  0
M  CHG  1   3   1
M  END
>  <PUBCHEM_COMPOUND_CID>  (1) 
45978

>  <PUBCHEM_CONFORMER_RMSD>  (1) 
1.2

>  <PUBCHEM_CONFORMER_DIVERSEORDER>  (1) 
1
40
13
55
49
11
43
9
3
79
44
23
24
78
75
61
30
45
63
32
46
52
71
21
47
22
8
27
14
77
6
5
33
38
36
20
18
2
51
12
60
28
72
35
56
19
31
57
76
29
7
54
15
48
58
64
37
16
53
59
70
26
80
73
67
69
34
42
4
62
17
68
10
41
66
74
39
25
50
65

>  <PUBCHEM_MMFF94_PARTIAL_CHARGES>  (1) 
12
1 -0.43
10 0.5
11 0.5
12 0.5
17 0.28
18 0.78
2 -0.57
3 -1.01
4 -0.8
48 0.37
49 0.37
5 0.5

>  <PUBCHEM_EFFECTIVE_ROTOR_COUNT>  (1) 
12

>  <PUBCHEM_PHARMACOPHORE_FEATURES>  (1) 
3
1 2 acceptor
1 3 cation
1 4 donor

>  <PUBCHEM_HEAVY_ATOM_COUNT>  (1) 
18

>  <PUBCHEM_ATOM_DEF_STEREO_COUNT>  (1) 
0

>  <PUBCHEM_ATOM_UDEF_STEREO_COUNT>  (1) 
0

>  <PUBCHEM_BOND_DEF_STEREO_COUNT>  (1) 
0

>  <PUBCHEM_BOND_UDEF_STEREO_COUNT>  (1) 
0

>  <PUBCHEM_ISOTOPIC_ATOM_COUNT>  (1) 
0

>  <PUBCHEM_COMPONENT_COUNT>  (1) 
1

>  <PUBCHEM_CACTVS_TAUTO_COUNT>  (1) 
2

>  <PUBCHEM_CONFORMER_ID>  (1) 
0000B39A00000001

>  <PUBCHEM_MMFF94_ENERGY>  (1) 
27.4914

>  <PUBCHEM_FEATURE_SELFOVERLAP>  (1) 
15.223

>  <PUBCHEM_SHAPE_FINGERPRINT>  (1) 
11315181 36 18343584045687768529
11638347 137 16877937219068463410
12091667 2 17458063764566190167
13885169 127 18186238416239652133
14123256 10 18410856559639789570
14251764 18 17989488506835326624
14251764 46 17846499235761916367
14428016 248 18409738378438622156
14729087 3 18114177519620001541
16120349 18 18334856164877778436
17093844 174 17240763978802311129
18006028 8 17346598577501556520
20621476 8 18260265239961308214
21150785 3 15339120138854487918
22224240 67 17603585240176512106
23035841 295 12540697028746634737
232437 2 18408041814510996458
23521765 1 18341894095345406654
246663 6 10809341131427003410
28498 318 18410011014519953926
33532 11 8070038757303050248
33684 2 18412544310531920098
59567204 34 18340204082436151249
59682541 35 17968098650462298385
67123 10 18410856581114632551
8209 1 18410855464423135598

>  <PUBCHEM_SHAPE_MULTIPOLES>  (1) 
348.73
32.73
1.01
0.78
24.11
0.14
0
3.37
1.7
-0.34
0.03
-1.34
0.18
-0.05

>  <PUBCHEM_SHAPE_SELFOVERLAP>  (1) 
638.827

>  <PUBCHEM_SHAPE_VOLUME>  (1) 
223

>  <PUBCHEM_COORDINATE_TYPE>  (1) 
2
5
10

$$$$
