45980
     RDKit          3D

 21 21  0  0  0  0  0  0  0  0999 V2000
    1.9855    0.0021   -0.7792 O   0  0  0  0  0  0  0  0  0  0  0  0
    2.4336    0.0055    1.5024 O   0  0  0  0  0  0  0  0  0  0  0  0
   -3.4855   -0.0025    0.4152 N   0  0  0  0  0  0  0  0  0  0  0  0
    4.1581    0.0044   -0.0496 N   0  0  0  0  0  0  0  0  0  0  0  0
   -1.9901   -0.0014    0.0884 C   0  0  0  0  0  0  0  0  0  0  0  0
   -0.0297    1.2083   -0.3402 C   0  0  0  0  0  0  0  0  0  0  0  0
   -0.0275   -1.2076   -0.3392 C   0  0  0  0  0  0  0  0  0  0  0  0
   -1.3903   -1.2088   -0.0419 C   0  0  0  0  0  0  0  0  0  0  0  0
   -1.3925    1.2072   -0.0427 C   0  0  0  0  0  0  0  0  0  0  0  0
    0.6812    2.5124   -0.4961 C   0  0  0  0  0  0  0  0  0  0  0  0
    0.6858   -2.5104   -0.4941 C   0  0  0  0  0  0  0  0  0  0  0  0
    0.6529    0.0010   -0.4884 C   0  0  0  0  0  0  0  0  0  0  0  0
   -3.6970   -0.7246    1.7429 C   0  0  0  0  0  0  0  0  0  0  0  0
   -4.2340   -0.7084   -0.7120 C   0  0  0  0  0  0  0  0  0  0  0  0
   -4.0488    1.4109    0.5473 C   0  0  0  0  0  0  0  0  0  0  0  0
    0.6649    3.3480    0.7969 C   0  0  0  0  0  0  0  0  0  0  0  0
    0.1275    3.3464   -1.6660 C   0  0  0  0  0  0  0  0  0  0  0  0
    0.1336   -3.3464   -1.6632 C   0  0  0  0  0  0  0  0  0  0  0  0
    0.6714   -3.3450    0.7997 C   0  0  0  0  0  0  0  0  0  0  0  0
    2.8352    0.0033    0.3424 C   0  0  0  0  0  0  0  0  0  0  0  0
    5.2656    0.0058    0.8775 C   0  0  0  0  0  0  0  0  0  0  0  0
  1 12  1  0
  1 20  1  0
  2 20  2  0
  3  5  1  0
  3 13  1  0
  3 14  1  0
  3 15  1  0
  4 20  1  0
  4 21  1  0
  5  8  2  0
  5  9  1  0
  6  9  2  0
  6 10  1  0
  6 12  1  0
  7  8  1  0
  7 11  1  0
  7 12  2  0
 10 16  1  0
 10 17  1  0
 11 18  1  0
 11 19  1  0
M  CHG  1   3   1
M  END
>  <PUBCHEM_COMPOUND_CID>  (1) 
45980

>  <PUBCHEM_CONFORMER_RMSD>  (1) 
0.8

>  <PUBCHEM_CONFORMER_DIVERSEORDER>  (1) 
1
3
2

>  <PUBCHEM_MMFF94_PARTIAL_CHARGES>  (1) 
20
1 -0.23
10 0.14
11 0.14
12 0.08
13 0.5
14 0.5
15 0.5
2 -0.57
20 0.78
21 0.3
22 0.15
23 0.15
3 -0.87
4 -0.73
47 0.37
5 0.36
6 -0.14
7 -0.14
8 -0.15
9 -0.15

>  <PUBCHEM_EFFECTIVE_ROTOR_COUNT>  (1) 
6

>  <PUBCHEM_PHARMACOPHORE_FEATURES>  (1) 
6
1 2 acceptor
1 3 cation
1 4 donor
3 10 16 17 hydrophobe
3 11 18 19 hydrophobe
6 5 6 7 8 9 12 rings

>  <PUBCHEM_HEAVY_ATOM_COUNT>  (1) 
21

>  <PUBCHEM_ATOM_DEF_STEREO_COUNT>  (1) 
0

>  <PUBCHEM_ATOM_UDEF_STEREO_COUNT>  (1) 
0

>  <PUBCHEM_BOND_DEF_STEREO_COUNT>  (1) 
0

>  <PUBCHEM_BOND_UDEF_STEREO_COUNT>  (1) 
0

>  <PUBCHEM_ISOTOPIC_ATOM_COUNT>  (1) 
0

>  <PUBCHEM_COMPONENT_COUNT>  (1) 
1

>  <PUBCHEM_CACTVS_TAUTO_COUNT>  (1) 
2

>  <PUBCHEM_CONFORMER_ID>  (1) 
0000B39C00000001

>  <PUBCHEM_MMFF94_ENERGY>  (1) 
76.2664

>  <PUBCHEM_FEATURE_SELFOVERLAP>  (1) 
30.446

>  <PUBCHEM_SHAPE_FINGERPRINT>  (1) 
10382601 240 18195258727650071371
10906281 52 18188787054170744605
1100329 8 18267300022366043522
11680986 33 18048312546240587232
13083527 12 17975393751252166643
13140716 1 18194974160866353323
13544592 271 18409453544559511563
13583140 156 17531521109356537115
13965767 371 16910921356188469769
14178342 30 18341346517501970259
14223421 5 17979073782294127086
14787075 74 17488452143379048105
14790565 3 18410303522883253644
14943834 7 17689433110728482844
14955137 171 18267888196551527146
15042514 8 18409726292363825210
15420108 30 18058441024423756607
1601671 61 18410014291047445517
16945 1 18338809978436169823
19784866 170 18336831874891182768
20028762 73 18057043721334212031
20510252 161 18340482258444766992
20511035 2 17973177406445562301
20600515 1 18340775922301403964
20671657 1 18047478004072934229
20739085 24 17835836043674168873
20905425 154 18122626041965569662
21029758 27 18259990400519451644
21330990 113 18269278971740207984
21421861 104 17681836206877086603
22182313 1 18120381951876370989
23184049 59 18338516442816881984
2334 1 17907024228851689247
23402539 116 18272079500886058062
23419403 2 15372527575593585660
23558518 356 17185854117916963012
23559900 14 18046910368610477078
2748010 2 18122071896990147039
3250762 1 17690279309580328262
34934 24 18268426841907518925
350125 39 18121508118129285667
352729 6 18125733528414440719
394222 165 17026036018680148980
43471831 8 18263360292184685634
465052 167 17968953010079320451
589210 1 17762053233818324550
59755656 215 18124036728553679990
81228 2 17758133500846532177
9981440 41 17117983572011622648

>  <PUBCHEM_SHAPE_MULTIPOLES>  (1) 
410.47
6.77
3.92
1.34
1.36
0.11
-0.02
0.04
2.83
0.73
-1.21
-0.15
-0.11
-0.03

>  <PUBCHEM_SHAPE_SELFOVERLAP>  (1) 
831.212

>  <PUBCHEM_SHAPE_VOLUME>  (1) 
242.8

>  <PUBCHEM_COORDINATE_TYPE>  (1) 
2
5
10

$$$$
