45984
     RDKit          3D

 13 13  0  0  0  0  0  0  0  0999 V2000
   -0.6426    2.1785    0.0048 O   0  0  0  0  0  0  0  0  0  0  0  0
   -1.9564   -0.3142   -0.0035 N   0  0  0  0  0  0  0  0  0  0  0  0
   -0.4299   -0.2019    0.0000 C   0  0  0  0  0  0  0  0  0  0  0  0
   -2.3398   -1.7913   -0.0086 C   0  0  0  0  0  0  0  0  0  0  0  0
   -2.4980    0.3918   -1.2434 C   0  0  0  0  0  0  0  0  0  0  0  0
   -2.5859    0.3365    1.2266 C   0  0  0  0  0  0  0  0  0  0  0  0
    0.1098    1.0407    0.0046 C   0  0  0  0  0  0  0  0  0  0  0  0
    0.2584   -1.3707   -0.0022 C   0  0  0  0  0  0  0  0  0  0  0  0
    1.5020    1.1264    0.0073 C   0  0  0  0  0  0  0  0  0  0  0  0
    1.6505   -1.2850    0.0008 C   0  0  0  0  0  0  0  0  0  0  0  0
    2.2723   -0.0364    0.0055 C   0  0  0  0  0  0  0  0  0  0  0  0
    2.1856    2.4538    0.0107 C   0  0  0  0  0  0  0  0  0  0  0  0
    2.4740   -2.5283   -0.0026 C   0  0  0  0  0  0  0  0  0  0  0  0
  1  7  1  0
  2  3  1  0
  2  4  1  0
  2  5  1  0
  2  6  1  0
  3  7  2  0
  3  8  1  0
  7  9  1  0
  8 10  2  0
  9 11  2  0
  9 12  1  0
 10 11  1  0
 10 13  1  0
M  CHG  1   2   1
M  END
>  <PUBCHEM_COMPOUND_CID>  (1) 
45984

>  <PUBCHEM_CONFORMER_RMSD>  (1) 
0.4

>  <PUBCHEM_CONFORMER_DIVERSEORDER>  (1) 
1
2

>  <PUBCHEM_MMFF94_PARTIAL_CHARGES>  (1) 
16
1 -0.53
10 -0.14
11 -0.15
12 0.14
13 0.14
2 -0.87
23 0.15
24 0.15
3 0.36
31 0.45
4 0.5
5 0.5
6 0.5
7 0.08
8 -0.15
9 -0.14

>  <PUBCHEM_EFFECTIVE_ROTOR_COUNT>  (1) 
1

>  <PUBCHEM_PHARMACOPHORE_FEATURES>  (1) 
3
1 1 donor
1 2 cation
6 3 7 8 9 10 11 rings

>  <PUBCHEM_HEAVY_ATOM_COUNT>  (1) 
13

>  <PUBCHEM_ATOM_DEF_STEREO_COUNT>  (1) 
0

>  <PUBCHEM_ATOM_UDEF_STEREO_COUNT>  (1) 
0

>  <PUBCHEM_BOND_DEF_STEREO_COUNT>  (1) 
0

>  <PUBCHEM_BOND_UDEF_STEREO_COUNT>  (1) 
0

>  <PUBCHEM_ISOTOPIC_ATOM_COUNT>  (1) 
0

>  <PUBCHEM_COMPONENT_COUNT>  (1) 
1

>  <PUBCHEM_CACTVS_TAUTO_COUNT>  (1) 
3

>  <PUBCHEM_CONFORMER_ID>  (1) 
0000B3A000000001

>  <PUBCHEM_MMFF94_ENERGY>  (1) 
62.7275

>  <PUBCHEM_FEATURE_SELFOVERLAP>  (1) 
15.223

>  <PUBCHEM_SHAPE_FINGERPRINT>  (1) 
1 1 18266176317424703708
12524768 44 18335420174980778595
14614273 12 18046053019981047375
161256 15 18409174289838436100
16945 1 18410855438874890892
17844478 74 17822025202492358305
17990270 104 18409162212358874690
193761 8 18338797810551389416
20201158 50 18335691737162570071
20645477 70 18338226159353247711
20871998 184 17622725310885645302
21040471 1 17906453586469584736
21501502 16 18410856607227568075
21524375 3 17903635525382893856
2334 1 17978227489327423938
23419403 2 16610179696794699456
23552423 10 18410296942633822022
23559900 14 17621032068050070590
241688 4 17978226063377202512
2748010 2 18121785199243481430
5084963 1 18122341543331518585
528886 8 18412261778476179697
63268167 104 18411981373030695753
7364860 26 18342459253149303990
74978 22 18411982425456068647
81228 2 17546163000723788410

>  <PUBCHEM_SHAPE_MULTIPOLES>  (1) 
256.68
4.04
2.63
0.85
1.04
0.01
-0.01
0.63
0.04
-1.83
0
0.62
-0.1
0.02

>  <PUBCHEM_SHAPE_SELFOVERLAP>  (1) 
526.625

>  <PUBCHEM_SHAPE_VOLUME>  (1) 
152.3

>  <PUBCHEM_COORDINATE_TYPE>  (1) 
2
5
10

$$$$
