45982
     RDKit          3D

 18 18  0  0  1  0  0  0  0  0999 V2000
    1.3584   -0.5386    0.8256 O   0  0  0  0  0  0  0  0  0  0  0  0
    2.0549   -1.5266   -1.1605 O   0  0  0  0  0  0  0  0  0  0  0  0
   -0.3752    2.4015    0.3756 N   0  0  0  0  0  0  0  0  0  0  0  0
    3.5852   -0.5411    0.2780 N   0  0  0  0  0  0  0  0  0  0  0  0
   -0.2140    1.3135   -0.6764 C   0  0  0  0  0  0  0  0  0  0  0  0
   -0.7391   -0.0263   -0.2149 C   0  0  0  0  0  0  0  0  0  0  0  0
    0.3886    2.0094    1.6322 C   0  0  0  0  0  0  0  0  0  0  0  0
    0.1751    3.7139   -0.1637 C   0  0  0  0  0  0  0  0  0  0  0  0
   -1.8504    2.5692    0.7103 C   0  0  0  0  0  0  0  0  0  0  0  0
   -0.8804    1.7952   -1.9627 C   0  0  0  0  0  0  0  0  0  0  0  0
    0.0766   -0.8781    0.5128 C   0  0  0  0  0  0  0  0  0  0  0  0
   -2.0422   -0.3748   -0.5336 C   0  0  0  0  0  0  0  0  0  0  0  0
   -2.5423   -1.6074   -0.1135 C   0  0  0  0  0  0  0  0  0  0  0  0
   -0.4238   -2.1106    0.9329 C   0  0  0  0  0  0  0  0  0  0  0  0
   -1.7332   -2.4752    0.6196 C   0  0  0  0  0  0  0  0  0  0  0  0
   -3.9419   -1.9985   -0.4480 C   0  0  0  0  0  0  0  0  0  0  0  0
    2.3228   -0.9262   -0.1239 C   0  0  0  0  0  0  0  0  0  0  0  0
    4.7811   -0.7993   -0.4898 C   0  0  0  0  0  0  0  0  0  0  0  0
  1 11  1  0
  1 17  1  0
  2 17  2  0
  3  5  1  0
  3  7  1  0
  3  8  1  0
  3  9  1  0
  4 17  1  0
  4 18  1  0
  5  6  1  0
  5 10  1  0
  6 11  2  0
  6 12  1  0
 11 14  1  0
 12 13  2  0
 13 15  1  0
 13 16  1  0
 14 15  2  0
M  CHG  1   3   1
M  END
>  <PUBCHEM_COMPOUND_CID>  (1) 
45982

>  <PUBCHEM_CONFORMER_RMSD>  (1) 
0.6

>  <PUBCHEM_CONFORMER_DIVERSEORDER>  (1) 
1
56
19
42
11
16
33
53
25
46
36
22
50
7
35
41
31
26
39
5
14
9
8
12
47
38
34
54
27
45
51
6
29
55
52
24
13
43
32
49
17
10
23
15
30
40
18
2
28
21
3
37
4
44
20
48

>  <PUBCHEM_MMFF94_PARTIAL_CHARGES>  (1) 
21
1 -0.23
11 0.08
12 -0.15
13 -0.14
14 -0.15
15 -0.15
16 0.14
17 0.78
18 0.3
2 -0.57
3 -1.01
32 0.15
33 0.15
34 0.15
38 0.37
4 -0.73
5 0.65
6 -0.14
7 0.5
8 0.5
9 0.5

>  <PUBCHEM_EFFECTIVE_ROTOR_COUNT>  (1) 
5

>  <PUBCHEM_PHARMACOPHORE_FEATURES>  (1) 
4
1 2 acceptor
1 3 cation
1 4 donor
6 6 11 12 13 14 15 rings

>  <PUBCHEM_HEAVY_ATOM_COUNT>  (1) 
18

>  <PUBCHEM_ATOM_DEF_STEREO_COUNT>  (1) 
0

>  <PUBCHEM_ATOM_UDEF_STEREO_COUNT>  (1) 
1

>  <PUBCHEM_BOND_DEF_STEREO_COUNT>  (1) 
0

>  <PUBCHEM_BOND_UDEF_STEREO_COUNT>  (1) 
0

>  <PUBCHEM_ISOTOPIC_ATOM_COUNT>  (1) 
0

>  <PUBCHEM_COMPONENT_COUNT>  (1) 
1

>  <PUBCHEM_CACTVS_TAUTO_COUNT>  (1) 
2

>  <PUBCHEM_CONFORMER_ID>  (1) 
0000B39E00000001

>  <PUBCHEM_MMFF94_ENERGY>  (1) 
69.7623

>  <PUBCHEM_FEATURE_SELFOVERLAP>  (1) 
20.297

>  <PUBCHEM_SHAPE_FINGERPRINT>  (1) 
1 1 17329714734664337247
1100329 8 18411423878050393433
11680986 33 17829608714514939603
12173636 292 17907018374637607404
13027679 85 18410293648620798221
13132413 78 18411991247609071041
13134695 92 18126001800597964279
14181834 199 17980201116767870495
14614273 12 17970342611913273575
14790565 3 18123195606264286737
14817 1 15002242794134328921
15490181 7 17617106810472494330
16945 1 18049152281251061209
17134986 127 17328024265912756252
17357779 13 18340470253641701895
20510252 161 18335980874640726034
20511035 2 16602361443498319649
20600515 1 18339096984977654710
21029758 11 18338512053513422671
21041028 32 18266194979326740803
21160774 45 18191863418843249853
21296965 67 18341331183914965131
21339142 36 18410565180521404622
21524375 3 17396999963085897482
23352939 185 18199759196541461296
23402539 116 18410568479257157150
23419403 2 18128229346357165605
23557571 272 18342184336746196070
2748010 2 18123438761394270977
305870 269 17403458971276302135
3250762 1 17468482963340498315
350125 39 17543635231675485347
394222 165 16811494649892191761
430814 3 17617664250035440496
4663303 62 17906172106992191571
532947 4 17692820702149687532
5845 1 12728497333985795614
6786 2 16043158136284217016
7364860 26 17907298011362832419
81228 2 18335997371467568298
84936 31 17557701662076454938

>  <PUBCHEM_SHAPE_MULTIPOLES>  (1) 
348.73
5.13
3.86
1.27
3.99
3.43
-0.15
-4.98
-1.09
-0.91
0.42
-0.02
0.54
0.34

>  <PUBCHEM_SHAPE_SELFOVERLAP>  (1) 
708.936

>  <PUBCHEM_SHAPE_VOLUME>  (1) 
204.4

>  <PUBCHEM_COORDINATE_TYPE>  (1) 
2
5
10

$$$$
