45996
     RDKit          3D

 17 17  0  0  0  0  0  0  0  0999 V2000
   -2.2934    0.0617    0.9755 O   0  0  0  0  0  0  0  0  0  0  0  0
   -2.7326    0.2134   -1.3026 O   0  0  0  0  0  0  0  0  0  0  0  0
    2.1694   -1.4932   -0.0634 N   0  0  0  0  0  0  0  0  0  0  0  0
   -4.4278   -0.2746    0.2042 N   0  0  0  0  0  0  0  0  0  0  0  0
    1.1989   -0.3420    0.2120 C   0  0  0  0  0  0  0  0  0  0  0  0
    1.6901    0.9200    0.1855 C   0  0  0  0  0  0  0  0  0  0  0  0
    1.4037   -2.8106    0.0173 C   0  0  0  0  0  0  0  0  0  0  0  0
    3.2883   -1.4510    0.9736 C   0  0  0  0  0  0  0  0  0  0  0  0
    2.8029   -1.3951   -1.4497 C   0  0  0  0  0  0  0  0  0  0  0  0
   -0.0877   -0.6924    0.4621 C   0  0  0  0  0  0  0  0  0  0  0  0
    3.1182    1.2555   -0.0959 C   0  0  0  0  0  0  0  0  0  0  0  0
    0.7905    1.9554    0.4387 C   0  0  0  0  0  0  0  0  0  0  0  0
   -0.9874    0.3429    0.7152 C   0  0  0  0  0  0  0  0  0  0  0  0
   -0.5483    1.6668    0.7036 C   0  0  0  0  0  0  0  0  0  0  0  0
    3.2572    2.4156   -1.0769 C   0  0  0  0  0  0  0  0  0  0  0  0
   -3.1284    0.0159   -0.1576 C   0  0  0  0  0  0  0  0  0  0  0  0
   -5.5136   -0.3886   -0.7416 C   0  0  0  0  0  0  0  0  0  0  0  0
  1 13  1  0
  1 16  1  0
  2 16  2  0
  3  5  1  0
  3  7  1  0
  3  8  1  0
  3  9  1  0
  4 16  1  0
  4 17  1  0
  5  6  2  0
  5 10  1  0
  6 11  1  0
  6 12  1  0
 10 13  2  0
 11 15  1  0
 12 14  2  0
 13 14  1  0
M  CHG  1   3   1
M  END
>  <PUBCHEM_COMPOUND_CID>  (1) 
45996

>  <PUBCHEM_CONFORMER_RMSD>  (1) 
0.6

>  <PUBCHEM_CONFORMER_DIVERSEORDER>  (1) 
1
29
35
24
28
18
21
27
6
23
9
14
31
26
33
13
7
36
11
22
34
37
10
25
12
5
16
3
15
17
32
4
30
19
20
8
2

>  <PUBCHEM_MMFF94_PARTIAL_CHARGES>  (1) 
20
1 -0.23
10 -0.15
11 0.14
12 -0.15
13 0.08
14 -0.15
16 0.78
17 0.3
2 -0.57
27 0.15
3 -0.87
30 0.15
31 0.15
35 0.37
4 -0.73
5 0.36
6 -0.14
7 0.5
8 0.5
9 0.5

>  <PUBCHEM_EFFECTIVE_ROTOR_COUNT>  (1) 
5

>  <PUBCHEM_PHARMACOPHORE_FEATURES>  (1) 
5
1 15 hydrophobe
1 2 acceptor
1 3 cation
1 4 donor
6 5 6 10 12 13 14 rings

>  <PUBCHEM_HEAVY_ATOM_COUNT>  (1) 
17

>  <PUBCHEM_ATOM_DEF_STEREO_COUNT>  (1) 
0

>  <PUBCHEM_ATOM_UDEF_STEREO_COUNT>  (1) 
0

>  <PUBCHEM_BOND_DEF_STEREO_COUNT>  (1) 
0

>  <PUBCHEM_BOND_UDEF_STEREO_COUNT>  (1) 
0

>  <PUBCHEM_ISOTOPIC_ATOM_COUNT>  (1) 
0

>  <PUBCHEM_COMPONENT_COUNT>  (1) 
1

>  <PUBCHEM_CACTVS_TAUTO_COUNT>  (1) 
2

>  <PUBCHEM_CONFORMER_ID>  (1) 
0000B3AC00000001

>  <PUBCHEM_MMFF94_ENERGY>  (1) 
86.2764

>  <PUBCHEM_FEATURE_SELFOVERLAP>  (1) 
25.371

>  <PUBCHEM_SHAPE_FINGERPRINT>  (1) 
11471102 20 18410572907441837497
11806522 49 18271808973955194466
12251169 10 8790893964486550833
12553582 1 18194980542586784250
12616999 72 18337952393404489413
12730499 353 18263368156385414049
13083527 12 18337094675940843464
13257819 101 17241874579218358564
13836976 161 18410011082764456292
14181834 199 18261116253439701252
14251717 144 18412825789265540930
14252887 29 17703507705546485299
14576447 43 17987228001529127391
14863182 85 17918272043772971254
15477762 27 18341047428300181267
16945 1 18264503797140992442
18186145 218 18040716931375134545
19422 9 18059862731755244233
20388580 30 18271529693237371270
20645477 70 18410855460629594555
20671657 53 18263081007435190802
21501502 16 18339651022752793072
21501925 9 18341605975959317986
22112679 90 17632029537014406137
22289505 5 18335409167507685229
2255824 54 18410579465741022786
22802520 49 17969492715384905621
23114952 82 18114465569653591892
23388829 49 18271238305776600922
23402539 116 18124040018857597526
23402655 69 18412259558706269669
23419403 2 17242704569248393046
23557571 272 17631446774571676250
23559900 14 18187081754395560426
23598291 2 17988098689910195209
25 1 18336827614283884881
25147074 1 18270133309270425040
257057 1 17758390773745820690
2748010 2 18193578854746118602
3060560 45 18338238279471096404
3071541 37 18335423512455464056
3286 77 17822846485701044534
4072396 5 18336249241699100560
42630746 31 18413105086735907082
5281201 14 18187078434712992245
58051976 378 18337674221057364340
7164475 11 18271247093153724561
7364860 26 18202847656216535224
81228 2 17689157807825777904
81539 233 18188494695699082244
8272917 22 18411706482560668157

>  <PUBCHEM_SHAPE_MULTIPOLES>  (1) 
328.15
7.79
2.44
1.11
11.87
0.29
-0.24
0.64
-2.29
-3.13
-0.19
-0.24
0.02
-0.54

>  <PUBCHEM_SHAPE_SELFOVERLAP>  (1) 
668.241

>  <PUBCHEM_SHAPE_VOLUME>  (1) 
192

>  <PUBCHEM_COORDINATE_TYPE>  (1) 
2
5
10

$$$$
