46002
     RDKit          3D

 19 19  0  0  0  0  0  0  0  0999 V2000
    1.3192    0.0634    0.6155 O   0  0  0  0  0  0  0  0  0  0  0  0
    2.5232    0.4659   -1.3191 O   0  0  0  0  0  0  0  0  0  0  0  0
   -1.9797   -0.9680   -0.0073 N   0  0  0  0  0  0  0  0  0  0  0  0
    3.0698   -1.3813   -0.0155 N   0  0  0  0  0  0  0  0  0  0  0  0
   -1.0494   -0.2258   -0.9557 C   0  0  0  0  0  0  0  0  0  0  0  0
   -2.3983   -2.2886   -0.6372 C   0  0  0  0  0  0  0  0  0  0  0  0
   -1.2565   -1.2380    1.3044 C   0  0  0  0  0  0  0  0  0  0  0  0
   -3.2146   -0.1195    0.2596 C   0  0  0  0  0  0  0  0  0  0  0  0
   -0.5858    1.0934   -0.4119 C   0  0  0  0  0  0  0  0  0  0  0  0
   -3.1162   -2.0136   -1.9404 C   0  0  0  0  0  0  0  0  0  0  0  0
   -2.1860   -1.9759    2.2430 C   0  0  0  0  0  0  0  0  0  0  0  0
    0.5768    1.1742    0.3478 C   0  0  0  0  0  0  0  0  0  0  0  0
   -1.3360    2.2344   -0.6789 C   0  0  0  0  0  0  0  0  0  0  0  0
    0.9938    2.4086    0.8457 C   0  0  0  0  0  0  0  0  0  0  0  0
   -0.9190    3.4688   -0.1809 C   0  0  0  0  0  0  0  0  0  0  0  0
    0.2458    3.5561    0.5815 C   0  0  0  0  0  0  0  0  0  0  0  0
    2.3304   -0.2345   -0.3257 C   0  0  0  0  0  0  0  0  0  0  0  0
    4.1475   -1.8165   -0.8923 C   0  0  0  0  0  0  0  0  0  0  0  0
    2.8352   -2.2031    1.1674 C   0  0  0  0  0  0  0  0  0  0  0  0
  1 12  1  0
  1 17  1  0
  2 17  2  0
  3  5  1  0
  3  6  1  0
  3  7  1  0
  3  8  1  0
  4 17  1  0
  4 18  1  0
  4 19  1  0
  5  9  1  0
  6 10  1  0
  7 11  1  0
  9 12  2  0
  9 13  1  0
 12 14  1  0
 13 15  2  0
 14 16  2  0
 15 16  1  0
M  CHG  1   3   1
M  END
>  <PUBCHEM_COMPOUND_CID>  (1) 
46002

>  <PUBCHEM_CONFORMER_RMSD>  (1) 
0.8

>  <PUBCHEM_CONFORMER_DIVERSEORDER>  (1) 
1
18
31
10
21
5
9
15
4
16
25
26
22
23
27
11
19
12
28
8
30
14
2
20
7
29
17
13
3
6
24

>  <PUBCHEM_MMFF94_PARTIAL_CHARGES>  (1) 
21
1 -0.23
12 0.08
13 -0.15
14 -0.15
15 -0.15
16 -0.15
17 0.78
18 0.3
19 0.3
2 -0.57
3 -1.01
35 0.15
36 0.15
37 0.15
38 0.15
4 -0.66
5 0.65
6 0.5
7 0.5
8 0.5
9 -0.14

>  <PUBCHEM_EFFECTIVE_ROTOR_COUNT>  (1) 
7

>  <PUBCHEM_PHARMACOPHORE_FEATURES>  (1) 
3
1 2 acceptor
1 3 cation
6 9 12 13 14 15 16 rings

>  <PUBCHEM_HEAVY_ATOM_COUNT>  (1) 
19

>  <PUBCHEM_ATOM_DEF_STEREO_COUNT>  (1) 
0

>  <PUBCHEM_ATOM_UDEF_STEREO_COUNT>  (1) 
0

>  <PUBCHEM_BOND_DEF_STEREO_COUNT>  (1) 
0

>  <PUBCHEM_BOND_UDEF_STEREO_COUNT>  (1) 
0

>  <PUBCHEM_ISOTOPIC_ATOM_COUNT>  (1) 
0

>  <PUBCHEM_COMPONENT_COUNT>  (1) 
1

>  <PUBCHEM_CACTVS_TAUTO_COUNT>  (1) 
1

>  <PUBCHEM_CONFORMER_ID>  (1) 
0000B3B200000001

>  <PUBCHEM_MMFF94_ENERGY>  (1) 
69.3401

>  <PUBCHEM_FEATURE_SELFOVERLAP>  (1) 
15.223

>  <PUBCHEM_SHAPE_FINGERPRINT>  (1) 
104564 63 18192439579984146474
107951 10 17252620900778259174
10906281 52 18045483460073639393
11578080 2 17560501993501543985
12553582 1 18411416219759558230
12788726 201 18264775346226690474
14817 1 9033088896736865570
14844126 61 18123735479547960826
15852999 172 17105062476333666915
15906896 17 18048608027079172512
16752209 62 18120645838645427997
16945 1 18125705816878998645
20645476 183 17830184510725852548
20645477 70 17762317507831388519
20671657 53 18200300156325988071
20832881 197 18261659412374103147
21452121 199 18338498829519906960
21524375 3 17471568828701870208
21731516 1 18341055202254219238
2255824 54 17909268327256191500
23184049 29 18339627976232049872
23526113 38 17970055845742653755
23557571 272 18340765936892298104
23598288 3 18193298328619317028
23598291 2 17842577394045064543
23728640 28 17836070183336749466
238 59 17760920040951986175
257057 1 18341034289968491836
2748010 2 17250612552658473313
3060560 45 17547275066166898708
31174 14 17830477307152290963
43471831 8 17115783324215643293
576247 118 18264225736325574488
6992083 37 18059873761089017491
7364860 26 17910110553411234461
81228 2 18335979766365168536
9709674 26 17769648707878583646

>  <PUBCHEM_SHAPE_MULTIPOLES>  (1) 
369.31
5.28
4.13
1.57
3.15
3.46
0.29
-5.5
-1.29
-0.34
0.43
-0.83
-1.14
0.07

>  <PUBCHEM_SHAPE_SELFOVERLAP>  (1) 
741.515

>  <PUBCHEM_SHAPE_VOLUME>  (1) 
218.5

>  <PUBCHEM_COORDINATE_TYPE>  (1) 
2
5
10

$$$$
