46004
     RDKit          3D

 12 12  0  0  0  0  0  0  0  0999 V2000
    0.4669    2.2334   -0.2299 O   0  0  0  0  0  0  0  0  0  0  0  0
   -2.0889   -0.1522    0.1116 N   0  0  0  0  0  0  0  0  0  0  0  0
   -1.0590   -0.0549   -1.0046 C   0  0  0  0  0  0  0  0  0  0  0  0
   -1.8736    0.9840    1.1012 C   0  0  0  0  0  0  0  0  0  0  0  0
   -3.4879   -0.0522   -0.4791 C   0  0  0  0  0  0  0  0  0  0  0  0
   -1.9352   -1.4855    0.8291 C   0  0  0  0  0  0  0  0  0  0  0  0
    0.3545   -0.1446   -0.5096 C   0  0  0  0  0  0  0  0  0  0  0  0
    1.0497    1.0046   -0.1468 C   0  0  0  0  0  0  0  0  0  0  0  0
    0.9600   -1.3941   -0.4203 C   0  0  0  0  0  0  0  0  0  0  0  0
    2.3637    0.9034    0.3101 C   0  0  0  0  0  0  0  0  0  0  0  0
    2.2740   -1.4954    0.0366 C   0  0  0  0  0  0  0  0  0  0  0  0
    2.9759   -0.3466    0.4017 C   0  0  0  0  0  0  0  0  0  0  0  0
  1  8  1  0
  2  3  1  0
  2  4  1  0
  2  5  1  0
  2  6  1  0
  3  7  1  0
  7  8  2  0
  7  9  1  0
  8 10  1  0
  9 11  2  0
 10 12  2  0
 11 12  1  0
M  CHG  1   2   1
M  END
>  <PUBCHEM_COMPOUND_CID>  (1) 
46004

>  <PUBCHEM_CONFORMER_RMSD>  (1) 
0.6

>  <PUBCHEM_CONFORMER_DIVERSEORDER>  (1) 
2
1

>  <PUBCHEM_MMFF94_PARTIAL_CHARGES>  (1) 
17
1 -0.53
10 -0.15
11 -0.15
12 -0.15
2 -1.01
24 0.15
25 0.15
26 0.15
27 0.15
28 0.45
3 0.65
4 0.5
5 0.5
6 0.5
7 -0.14
8 0.08
9 -0.15

>  <PUBCHEM_EFFECTIVE_ROTOR_COUNT>  (1) 
2

>  <PUBCHEM_PHARMACOPHORE_FEATURES>  (1) 
3
1 1 donor
1 2 cation
6 7 8 9 10 11 12 rings

>  <PUBCHEM_HEAVY_ATOM_COUNT>  (1) 
12

>  <PUBCHEM_ATOM_DEF_STEREO_COUNT>  (1) 
0

>  <PUBCHEM_ATOM_UDEF_STEREO_COUNT>  (1) 
0

>  <PUBCHEM_BOND_DEF_STEREO_COUNT>  (1) 
0

>  <PUBCHEM_BOND_UDEF_STEREO_COUNT>  (1) 
0

>  <PUBCHEM_ISOTOPIC_ATOM_COUNT>  (1) 
0

>  <PUBCHEM_COMPONENT_COUNT>  (1) 
1

>  <PUBCHEM_CACTVS_TAUTO_COUNT>  (1) 
3

>  <PUBCHEM_CONFORMER_ID>  (1) 
0000B3B400000002

>  <PUBCHEM_MMFF94_ENERGY>  (1) 
41.6321

>  <PUBCHEM_FEATURE_SELFOVERLAP>  (1) 
15.223

>  <PUBCHEM_SHAPE_FINGERPRINT>  (1) 
10219947 1 18412542119766153430
11471102 22 18411426124064614018
12382932 28 18409166597583573306
12696612 119 18339372953652901684
13839132 238 13542202557888436243
14993402 34 18273214213949741174
15375462 478 17917705782066922263
15775835 57 17275103963528994779
161256 15 18199470974429493902
16945 1 18411145752678012388
17990270 104 18262520410970944858
20201158 50 18334290959417485123
20653091 64 18335431204662516688
20871998 22 18127976291611634558
2748010 2 17981873152358281918
29004967 10 18335420158096289026
369184 2 18411981356114687483
5084963 1 18272650138540834145
63268167 104 18412823594632191688
8030462 33 18272379675849805429

>  <PUBCHEM_SHAPE_MULTIPOLES>  (1) 
236.1
4.59
1.72
0.94
1.28
0.26
-0.06
-0.6
-0.45
-0.47
-0.12
0.39
-0.01
0.04

>  <PUBCHEM_SHAPE_SELFOVERLAP>  (1) 
477.253

>  <PUBCHEM_SHAPE_VOLUME>  (1) 
140.4

>  <PUBCHEM_COORDINATE_TYPE>  (1) 
2
5
10

$$$$
