46006
     RDKit          3D

 16 16  0  0  0  0  0  0  0  0999 V2000
    2.2706   -0.4861    0.8332 O   0  0  0  0  0  0  0  0  0  0  0  0
    2.3132    0.7897   -1.1101 O   0  0  0  0  0  0  0  0  0  0  0  0
   -3.0356    1.0432   -0.0570 N   0  0  0  0  0  0  0  0  0  0  0  0
    4.0879    0.8399    0.3832 N   0  0  0  0  0  0  0  0  0  0  0  0
   -2.5935   -0.0251    0.9327 C   0  0  0  0  0  0  0  0  0  0  0  0
   -3.3298    0.3970   -1.4032 C   0  0  0  0  0  0  0  0  0  0  0  0
   -4.2918    1.7272    0.4627 C   0  0  0  0  0  0  0  0  0  0  0  0
   -1.9275    2.0735   -0.2203 C   0  0  0  0  0  0  0  0  0  0  0  0
   -1.3559   -0.7534    0.4979 C   0  0  0  0  0  0  0  0  0  0  0  0
   -0.1065   -0.2730    0.8735 C   0  0  0  0  0  0  0  0  0  0  0  0
   -1.4700   -1.9024   -0.2767 C   0  0  0  0  0  0  0  0  0  0  0  0
    1.0440   -0.9505    0.4695 C   0  0  0  0  0  0  0  0  0  0  0  0
   -0.3196   -2.5798   -0.6808 C   0  0  0  0  0  0  0  0  0  0  0  0
    0.9374   -2.1038   -0.3077 C   0  0  0  0  0  0  0  0  0  0  0  0
    2.8514    0.4267   -0.0683 C   0  0  0  0  0  0  0  0  0  0  0  0
    4.9257    1.7768   -0.3286 C   0  0  0  0  0  0  0  0  0  0  0  0
  1 12  1  0
  1 15  1  0
  2 15  2  0
  3  5  1  0
  3  6  1  0
  3  7  1  0
  3  8  1  0
  4 15  1  0
  4 16  1  0
  5  9  1  0
  9 10  2  0
  9 11  1  0
 10 12  1  0
 11 13  2  0
 12 14  2  0
 13 14  1  0
M  CHG  1   3   1
M  END
>  <PUBCHEM_COMPOUND_CID>  (1) 
46006

>  <PUBCHEM_CONFORMER_RMSD>  (1) 
0.6

>  <PUBCHEM_CONFORMER_DIVERSEORDER>  (1) 
1
49
55
25
30
26
52
9
50
35
10
51
36
24
38
46
18
31
17
15
20
6
33
19
16
32
5
47
29
43
41
44
39
23
21
54
34
22
3
48
4
27
7
40
12
37
42
8
45
28
53
13
14
11
2

>  <PUBCHEM_MMFF94_PARTIAL_CHARGES>  (1) 
21
1 -0.23
10 -0.15
11 -0.15
12 0.08
13 -0.15
14 -0.15
15 0.78
16 0.3
2 -0.57
28 0.15
29 0.15
3 -1.01
30 0.15
31 0.15
32 0.37
4 -0.73
5 0.65
6 0.5
7 0.5
8 0.5
9 -0.14

>  <PUBCHEM_EFFECTIVE_ROTOR_COUNT>  (1) 
5

>  <PUBCHEM_PHARMACOPHORE_FEATURES>  (1) 
4
1 2 acceptor
1 3 cation
1 4 donor
6 9 10 11 12 13 14 rings

>  <PUBCHEM_HEAVY_ATOM_COUNT>  (1) 
16

>  <PUBCHEM_ATOM_DEF_STEREO_COUNT>  (1) 
0

>  <PUBCHEM_ATOM_UDEF_STEREO_COUNT>  (1) 
0

>  <PUBCHEM_BOND_DEF_STEREO_COUNT>  (1) 
0

>  <PUBCHEM_BOND_UDEF_STEREO_COUNT>  (1) 
0

>  <PUBCHEM_ISOTOPIC_ATOM_COUNT>  (1) 
0

>  <PUBCHEM_COMPONENT_COUNT>  (1) 
1

>  <PUBCHEM_CACTVS_TAUTO_COUNT>  (1) 
2

>  <PUBCHEM_CONFORMER_ID>  (1) 
0000B3B600000001

>  <PUBCHEM_MMFF94_ENERGY>  (1) 
51.1367

>  <PUBCHEM_FEATURE_SELFOVERLAP>  (1) 
20.297

>  <PUBCHEM_SHAPE_FINGERPRINT>  (1) 
10498660 4 18410854360732942541
10681291 71 18339653264751802717
11031198 65 18129661881649333715
12138202 97 17703230723458884054
12500047 106 18200312242716983498
13618510 140 18409165480702139572
14123255 52 18411702084298061032
14250199 8 17980475660046803077
14897335 6 18411132533011619322
15342168 16 18339648828562392865
15775835 57 18410293614050069888
16945 1 18130494336337261419
17134986 127 18340773645804979254
1741750 31 18413671326803121418
17834072 32 18338802316125343060
1798214 55 18410297986284825924
18186145 218 17988096551200909522
20645477 56 18199760309133065634
20671657 1 18194125113950472174
20671657 53 12535627193468324242
20871999 31 17988639765320741359
21499 59 18341046341852595535
21524375 3 18409443674329344818
23114952 82 17915468194163181711
23402539 116 18060697291151064216
23419403 2 16910931376226182831
23557571 272 18128826415672834558
25 1 18272931583500344139
27216 239 18260834846839712433
305870 269 18260828198510309210
4175511 318 18058734731440575822
474 4 18266458707372009601
76465 3 8213846060437075121
81228 2 17767676518482912147
83771 10 9511457831680729354

>  <PUBCHEM_SHAPE_MULTIPOLES>  (1) 
307.57
7.65
2.53
1.03
5.11
0.74
0.13
-7.01
0.5
-0.29
0.47
-0.38
0
-0.33

>  <PUBCHEM_SHAPE_SELFOVERLAP>  (1) 
619.834

>  <PUBCHEM_SHAPE_VOLUME>  (1) 
181.1

>  <PUBCHEM_COORDINATE_TYPE>  (1) 
2
5
10

$$$$
