46008
     RDKit          3D

 20 20  0  0  0  0  0  0  0  0999 V2000
   -0.0854    0.1909    0.9512 O   0  0  0  0  0  0  0  0  0  0  0  0
   -1.3259    1.1769   -0.7323 O   0  0  0  0  0  0  0  0  0  0  0  0
   -4.6065   -0.9852    0.4929 O   0  0  0  0  0  0  0  0  0  0  0  0
    2.3107   -2.0243   -0.2988 N   0  0  0  0  0  0  0  0  0  0  0  0
   -2.3453   -0.3840    0.7085 N   0  0  0  0  0  0  0  0  0  0  0  0
   -3.7329    0.5461   -0.9779 N   0  0  0  0  0  0  0  0  0  0  0  0
    1.6215   -0.9357   -1.0437 C   0  0  0  0  0  0  0  0  0  0  0  0
    1.8154   -2.0851    1.1512 C   0  0  0  0  0  0  0  0  0  0  0  0
    2.0416   -3.3833   -0.9560 C   0  0  0  0  0  0  0  0  0  0  0  0
    3.8261   -1.7914   -0.2795 C   0  0  0  0  0  0  0  0  0  0  0  0
    1.8440    0.4176   -0.4532 C   0  0  0  0  0  0  0  0  0  0  0  0
    1.0086    0.9411    0.5077 C   0  0  0  0  0  0  0  0  0  0  0  0
    2.9301    1.1794   -0.8840 C   0  0  0  0  0  0  0  0  0  0  0  0
    1.2028    2.1878    1.0606 C   0  0  0  0  0  0  0  0  0  0  0  0
    3.1524    2.4455   -0.3426 C   0  0  0  0  0  0  0  0  0  0  0  0
    2.2888    2.9498    0.6297 C   0  0  0  0  0  0  0  0  0  0  0  0
   -1.2627    0.4007    0.2192 C   0  0  0  0  0  0  0  0  0  0  0  0
   -2.0816   -1.2554    1.8563 C   0  0  0  0  0  0  0  0  0  0  0  0
   -3.6394   -0.3239    0.1033 C   0  0  0  0  0  0  0  0  0  0  0  0
   -4.9623    0.7325   -1.7127 C   0  0  0  0  0  0  0  0  0  0  0  0
  1 12  1  0
  1 17  1  0
  2 17  2  0
  3 19  2  0
  4  7  1  0
  4  8  1  0
  4  9  1  0
  4 10  1  0
  5 17  1  0
  5 18  1  0
  5 19  1  0
  6 19  1  0
  6 20  1  0
  7 11  1  0
 11 12  2  0
 11 13  1  0
 12 14  1  0
 13 15  2  0
 14 16  2  0
 15 16  1  0
M  CHG  1   4   1
M  END
>  <PUBCHEM_COMPOUND_CID>  (1) 
46008

>  <PUBCHEM_CONFORMER_RMSD>  (1) 
0.8

>  <PUBCHEM_CONFORMER_DIVERSEORDER>  (1) 
1
32
83
55
59
45
26
71
24
54
51
70
37
65
50
79
77
22
57
76
31
47
52
38
46
25
74
5
66
60
49
67
15
43
11
73
69
44
75
33
78
82
81
64
35
62
14
8
80
63
20
41
53
56
30
17
28
58
16
13
19
7
36
18
48
29
72
23
2
68
4
27
39
21
42
61
40
9
6
3
34
12
10

>  <PUBCHEM_MMFF94_PARTIAL_CHARGES>  (1) 
25
1 -0.23
10 0.5
11 -0.14
12 0.08
13 -0.15
14 -0.15
15 -0.15
16 -0.15
17 0.78
18 0.3
19 0.69
2 -0.57
20 0.3
3 -0.57
32 0.15
33 0.15
34 0.15
35 0.15
39 0.37
4 -1.01
5 -0.42
6 -0.73
7 0.65
8 0.5
9 0.5

>  <PUBCHEM_EFFECTIVE_ROTOR_COUNT>  (1) 
7

>  <PUBCHEM_PHARMACOPHORE_FEATURES>  (1) 
5
1 2 acceptor
1 3 acceptor
1 4 cation
1 6 donor
6 11 12 13 14 15 16 rings

>  <PUBCHEM_HEAVY_ATOM_COUNT>  (1) 
20

>  <PUBCHEM_ATOM_DEF_STEREO_COUNT>  (1) 
0

>  <PUBCHEM_ATOM_UDEF_STEREO_COUNT>  (1) 
0

>  <PUBCHEM_BOND_DEF_STEREO_COUNT>  (1) 
0

>  <PUBCHEM_BOND_UDEF_STEREO_COUNT>  (1) 
0

>  <PUBCHEM_ISOTOPIC_ATOM_COUNT>  (1) 
0

>  <PUBCHEM_COMPONENT_COUNT>  (1) 
1

>  <PUBCHEM_CACTVS_TAUTO_COUNT>  (1) 
2

>  <PUBCHEM_CONFORMER_ID>  (1) 
0000B3B800000001

>  <PUBCHEM_MMFF94_ENERGY>  (1) 
69.6437

>  <PUBCHEM_FEATURE_SELFOVERLAP>  (1) 
25.371

>  <PUBCHEM_SHAPE_FINGERPRINT>  (1) 
11265709 11 18051136895697619170
12363563 72 18125728885143434614
12553582 1 18053123747384314234
12730499 353 18267030629564723459
13004483 165 17835791998410631822
15375358 24 18114459080274511697
15502722 9 18411702114151673133
16945 1 18200327622667972440
17134984 74 17697851990471096847
17539 30 17476079030084072806
17818456 19 17129312944134985681
18186145 218 17967530134816849589
20369508 70 18335411318911389995
20645477 70 18411984667429081607
21452121 199 18267859476627393306
22112679 90 17629506123790623120
2255824 54 18272376416191264708
23419403 2 16881560070779120146
23526113 38 18118119178010027698
23557571 272 17604151531788406853
23559900 14 18186517709014533877
23596394 208 18407757045262344701
238 59 18340769341989155687
257057 1 17979922614314287880
3060560 45 18268993257683640748
33824 294 18340493390477414450
3472631 163 16660921196723657301
495365 180 18341599460578527193
5161694 15 17967818198025537535
59682541 52 18198881675321353717
633830 44 17557454211572850217
7364860 26 18412265043031080768
7399639 24 18122339353378414601
7471813 234 18059005086546730724
7615 1 17560807602279077649
81228 2 17547856248688585936
81539 233 18337109089613952036
8272917 22 18271821132807006465
9709674 26 18259988214512810899

>  <PUBCHEM_SHAPE_MULTIPOLES>  (1) 
379.04
7.81
3.27
1.41
10.59
0.66
0.1
0.19
-2.59
-4.57
0.02
0.89
0.19
1.24

>  <PUBCHEM_SHAPE_SELFOVERLAP>  (1) 
769.02

>  <PUBCHEM_SHAPE_VOLUME>  (1) 
222.1

>  <PUBCHEM_COORDINATE_TYPE>  (1) 
2
5
10

$$$$
