46000
     RDKit          3D

 44 49  0  0  0  0  0  0  0  0999 V2000
    3.1735   -3.6104   -0.1733 S   0  0  0  0  0  0  0  0  0  0  0  0
   -3.1813   -3.6139    0.1951 S   0  0  0  0  0  0  0  0  0  0  0  0
    3.1237    2.9477    1.8386 N   0  0  0  0  0  0  0  0  0  0  0  0
   -3.1118    2.9757   -1.8764 N   0  0  0  0  0  0  0  0  0  0  0  0
    3.2824   -0.6636    0.8113 N   0  0  0  0  0  0  0  0  0  0  0  0
   -3.2767   -0.6714   -0.8032 N   0  0  0  0  0  0  0  0  0  0  0  0
    2.7021    4.2144    1.0812 C   0  0  0  0  0  0  0  0  0  0  0  0
   -2.7284    4.2024   -1.1370 C   0  0  0  0  0  0  0  0  0  0  0  0
    1.1909    4.2102    0.9055 C   0  0  0  0  0  0  0  0  0  0  0  0
   -1.2256    4.1921   -0.8999 C   0  0  0  0  0  0  0  0  0  0  0  0
    2.7912    1.7308    1.0569 C   0  0  0  0  0  0  0  0  0  0  0  0
   -2.7711    1.7185   -1.0635 C   0  0  0  0  0  0  0  0  0  0  0  0
    0.7270    5.4337    0.1138 C   0  0  0  0  0  0  0  0  0  0  0  0
   -0.7878    5.4185   -0.0980 C   0  0  0  0  0  0  0  0  0  0  0  0
    4.6335    3.0299    2.1027 C   0  0  0  0  0  0  0  0  0  0  0  0
    2.4021    2.9395    3.1933 C   0  0  0  0  0  0  0  0  0  0  0  0
   -4.6195    2.9609   -2.1660 C   0  0  0  0  0  0  0  0  0  0  0  0
   -2.3686    2.8914   -3.2174 C   0  0  0  0  0  0  0  0  0  0  0  0
    3.6348    0.5633    1.5374 C   0  0  0  0  0  0  0  0  0  0  0  0
   -3.6254    0.5544   -1.5332 C   0  0  0  0  0  0  0  0  0  0  0  0
    3.9874   -0.9377   -0.3880 C   0  0  0  0  0  0  0  0  0  0  0  0
    2.2191   -1.4460    1.3289 C   0  0  0  0  0  0  0  0  0  0  0  0
   -2.2218   -1.4633   -1.3233 C   0  0  0  0  0  0  0  0  0  0  0  0
   -3.9762   -0.9350    0.4017 C   0  0  0  0  0  0  0  0  0  0  0  0
    3.9934   -2.2310   -0.9473 C   0  0  0  0  0  0  0  0  0  0  0  0
    2.0498   -2.7894    0.9393 C   0  0  0  0  0  0  0  0  0  0  0  0
   -2.0589   -2.8059   -0.9282 C   0  0  0  0  0  0  0  0  0  0  0  0
   -3.9874   -2.2253    0.9674 C   0  0  0  0  0  0  0  0  0  0  0  0
    4.6817    0.0689   -1.0941 C   0  0  0  0  0  0  0  0  0  0  0  0
    1.2654   -0.9132    2.2236 C   0  0  0  0  0  0  0  0  0  0  0  0
   -1.2700   -0.9413   -2.2265 C   0  0  0  0  0  0  0  0  0  0  0  0
   -4.6595    0.0798    1.1070 C   0  0  0  0  0  0  0  0  0  0  0  0
    4.6883   -2.4958   -2.1409 C   0  0  0  0  0  0  0  0  0  0  0  0
    0.9889   -3.5586    1.4498 C   0  0  0  0  0  0  0  0  0  0  0  0
   -1.0064   -3.5847   -1.4413 C   0  0  0  0  0  0  0  0  0  0  0  0
   -4.6767   -2.4796    2.1665 C   0  0  0  0  0  0  0  0  0  0  0  0
    5.3665   -0.1987   -2.2826 C   0  0  0  0  0  0  0  0  0  0  0  0
    0.2101   -1.6808    2.7241 C   0  0  0  0  0  0  0  0  0  0  0  0
   -0.2229   -1.7183   -2.7296 C   0  0  0  0  0  0  0  0  0  0  0  0
   -5.3387   -0.1774    2.3009 C   0  0  0  0  0  0  0  0  0  0  0  0
    5.3725   -1.4831   -2.8049 C   0  0  0  0  0  0  0  0  0  0  0  0
    0.0735   -3.0059    2.3392 C   0  0  0  0  0  0  0  0  0  0  0  0
   -0.0928   -3.0423   -2.3390 C   0  0  0  0  0  0  0  0  0  0  0  0
   -5.3501   -1.4592    2.8296 C   0  0  0  0  0  0  0  0  0  0  0  0
  1 25  1  0
  1 26  1  0
  2 27  1  0
  2 28  1  0
  3  7  1  0
  3 11  1  0
  3 15  1  0
  3 16  1  0
  4  8  1  0
  4 12  1  0
  4 17  1  0
  4 18  1  0
  5 19  1  0
  5 21  1  0
  5 22  1  0
  6 20  1  0
  6 23  1  0
  6 24  1  0
  7  9  1  0
  8 10  1  0
  9 13  1  0
 10 14  1  0
 11 19  1  0
 12 20  1  0
 13 14  1  0
 21 25  2  0
 21 29  1  0
 22 26  2  0
 22 30  1  0
 23 27  2  0
 23 31  1  0
 24 28  2  0
 24 32  1  0
 25 33  1  0
 26 34  1  0
 27 35  1  0
 28 36  1  0
 29 37  2  0
 30 38  2  0
 31 39  2  0
 32 40  2  0
 33 41  2  0
 34 42  2  0
 35 43  2  0
 36 44  2  0
 37 41  1  0
 38 42  1  0
 39 43  1  0
 40 44  1  0
M  CHG  2   3   1   4   1
M  END
>  <PUBCHEM_COMPOUND_CID>  (1) 
46000

>  <PUBCHEM_CONFORMER_RMSD>  (1) 
1.6

>  <PUBCHEM_CONFORMER_DIVERSEORDER>  (1) 
2
55
4
58
8
42
20
26
7
44
52
41
51
27
22
40
57
62
29
38
11
25
36
54
60
14
45
5
56
47
63
18
6
12
21
13
61
10
24
64
59
17
43
49
50
31
1
28
19
33
46
53
32
39
37
34
35
3
16
30
23
9
15
48

>  <PUBCHEM_MMFF94_PARTIAL_CHARGES>  (1) 
56
1 -0.2
11 0.5
12 0.5
15 0.5
16 0.5
17 0.5
18 0.5
19 0.37
2 -0.2
20 0.37
21 0.1
22 0.1
23 0.1
24 0.1
25 0.1
26 0.1
27 0.1
28 0.1
29 -0.15
3 -1.01
30 -0.15
31 -0.15
32 -0.15
33 -0.15
34 -0.15
35 -0.15
36 -0.15
37 -0.15
38 -0.15
39 -0.15
4 -1.01
40 -0.15
41 -0.15
42 -0.15
43 -0.15
44 -0.15
5 -0.57
6 -0.57
7 0.5
77 0.15
78 0.15
79 0.15
8 0.5
80 0.15
81 0.15
82 0.15
83 0.15
84 0.15
85 0.15
86 0.15
87 0.15
88 0.15
89 0.15
90 0.15
91 0.15
92 0.15

>  <PUBCHEM_EFFECTIVE_ROTOR_COUNT>  (1) 
13.8

>  <PUBCHEM_PHARMACOPHORE_FEATURES>  (1) 
11
1 3 cation
1 4 cation
1 5 cation
1 6 cation
4 9 10 13 14 hydrophobe
6 1 5 21 22 25 26 rings
6 2 6 23 24 27 28 rings
6 21 25 29 33 37 41 rings
6 22 26 30 34 38 42 rings
6 23 27 31 35 39 43 rings
6 24 28 32 36 40 44 rings

>  <PUBCHEM_HEAVY_ATOM_COUNT>  (1) 
44

>  <PUBCHEM_ATOM_DEF_STEREO_COUNT>  (1) 
0

>  <PUBCHEM_ATOM_UDEF_STEREO_COUNT>  (1) 
0

>  <PUBCHEM_BOND_DEF_STEREO_COUNT>  (1) 
0

>  <PUBCHEM_BOND_UDEF_STEREO_COUNT>  (1) 
0

>  <PUBCHEM_ISOTOPIC_ATOM_COUNT>  (1) 
0

>  <PUBCHEM_COMPONENT_COUNT>  (1) 
1

>  <PUBCHEM_CACTVS_TAUTO_COUNT>  (1) 
1

>  <PUBCHEM_CONFORMER_ID>  (1) 
0000B3B000000002

>  <PUBCHEM_MMFF94_ENERGY>  (1) 
181.7721

>  <PUBCHEM_FEATURE_SELFOVERLAP>  (1) 
55.886

>  <PUBCHEM_SHAPE_FINGERPRINT>  (1) 
10581848 197 17623609404630213609
10842077 115 18122310623662410544
14017579 3 17183947599415267470
14040222 75 17981302527119129764
14289585 56 18198084507161933730
15264996 142 16682615286736287410
15444296 121 17323233715136618162
161222 619 17684922896883209227
18738133 556 18051159126015735725
20764821 26 18046593876575926920
21987440 362 13826514137181478851
22121540 332 18188786066460070498
46939830 39 17914928441654887552
50080093 196 17617926372042502930
5081480 168 18060146435682792462

>  <PUBCHEM_SHAPE_MULTIPOLES>  (1) 
893.27
11.2
7.88
3.66
0.2
10.13
-0.02
-2.36
0
0.01
-0.02
-0.09
-0.14
6.06

>  <PUBCHEM_SHAPE_SELFOVERLAP>  (1) 
1877.615

>  <PUBCHEM_SHAPE_VOLUME>  (1) 
505.8

>  <PUBCHEM_COORDINATE_TYPE>  (1) 
2
5
10

$$$$
