46012
     RDKit          3D

 20 20  0  0  0  0  0  0  0  0999 V2000
    1.8154   -0.1503   -0.6282 O   0  0  0  0  0  0  0  0  0  0  0  0
    2.0981   -1.7298    1.0390 O   0  0  0  0  0  0  0  0  0  0  0  0
    0.3398    2.1451    0.1276 N   0  0  0  0  0  0  0  0  0  0  0  0
    3.9787   -0.8404   -0.0012 N   0  0  0  0  0  0  0  0  0  0  0  0
   -3.7626   -0.6308    0.0831 C   0  0  0  0  0  0  0  0  0  0  0  0
   -0.2902    0.8584   -0.0814 C   0  0  0  0  0  0  0  0  0  0  0  0
   -2.2432   -0.4943   -0.1095 C   0  0  0  0  0  0  0  0  0  0  0  0
   -1.6686    0.7351    0.0933 C   0  0  0  0  0  0  0  0  0  0  0  0
   -0.6952    3.2311    0.5355 C   0  0  0  0  0  0  0  0  0  0  0  0
    1.0710    2.6406   -1.1518 C   0  0  0  0  0  0  0  0  0  0  0  0
    1.4232    2.1753    1.2505 C   0  0  0  0  0  0  0  0  0  0  0  0
    0.4677   -0.2519   -0.4531 C   0  0  0  0  0  0  0  0  0  0  0  0
   -4.1925   -2.0876   -0.1941 C   0  0  0  0  0  0  0  0  0  0  0  0
   -4.4972    0.3105   -0.8959 C   0  0  0  0  0  0  0  0  0  0  0  0
   -4.2465   -0.2753    1.5073 C   0  0  0  0  0  0  0  0  0  0  0  0
   -1.5311   -1.6088   -0.4756 C   0  0  0  0  0  0  0  0  0  0  0  0
   -0.1527   -1.4855   -0.6503 C   0  0  0  0  0  0  0  0  0  0  0  0
    2.6017   -0.9736    0.2091 C   0  0  0  0  0  0  0  0  0  0  0  0
    4.9185   -1.6248    0.7869 C   0  0  0  0  0  0  0  0  0  0  0  0
    4.5657    0.0570   -0.9910 C   0  0  0  0  0  0  0  0  0  0  0  0
  1 12  1  0
  1 18  1  0
  2 18  2  0
  3  6  1  0
  3  9  1  0
  3 10  1  0
  3 11  1  0
  4 18  1  0
  4 19  1  0
  4 20  1  0
  5  7  1  0
  5 13  1  0
  5 14  1  0
  5 15  1  0
  6  8  2  0
  6 12  1  0
  7  8  1  0
  7 16  2  0
 12 17  2  0
 16 17  1  0
M  CHG  1   3   1
M  END
>  <PUBCHEM_COMPOUND_CID>  (1) 
46012

>  <PUBCHEM_CONFORMER_RMSD>  (1) 
0.8

>  <PUBCHEM_CONFORMER_DIVERSEORDER>  (1) 
3
7
1
8
9
2
5
4
6

>  <PUBCHEM_MMFF94_PARTIAL_CHARGES>  (1) 
20
1 -0.23
10 0.5
11 0.5
12 0.08
16 -0.15
17 -0.15
18 0.78
19 0.3
2 -0.57
20 0.3
21 0.15
3 -0.87
4 -0.66
40 0.15
41 0.15
5 0.14
6 0.36
7 -0.14
8 -0.15
9 0.5

>  <PUBCHEM_EFFECTIVE_ROTOR_COUNT>  (1) 
5

>  <PUBCHEM_PHARMACOPHORE_FEATURES>  (1) 
4
1 2 acceptor
1 3 cation
4 5 13 14 15 hydrophobe
6 6 7 8 12 16 17 rings

>  <PUBCHEM_HEAVY_ATOM_COUNT>  (1) 
20

>  <PUBCHEM_ATOM_DEF_STEREO_COUNT>  (1) 
0

>  <PUBCHEM_ATOM_UDEF_STEREO_COUNT>  (1) 
0

>  <PUBCHEM_BOND_DEF_STEREO_COUNT>  (1) 
0

>  <PUBCHEM_BOND_UDEF_STEREO_COUNT>  (1) 
0

>  <PUBCHEM_ISOTOPIC_ATOM_COUNT>  (1) 
0

>  <PUBCHEM_COMPONENT_COUNT>  (1) 
1

>  <PUBCHEM_CACTVS_TAUTO_COUNT>  (1) 
1

>  <PUBCHEM_CONFORMER_ID>  (1) 
0000B3BC00000003

>  <PUBCHEM_MMFF94_ENERGY>  (1) 
94.628

>  <PUBCHEM_FEATURE_SELFOVERLAP>  (1) 
20.297

>  <PUBCHEM_SHAPE_FINGERPRINT>  (1) 
104564 63 18269557135033337189
10465860 250 18408317765895760455
10906281 52 18198071287690738429
11578080 2 17896577584140466116
11680986 33 18124312963332542723
12236239 1 18186523194384174558
12403259 226 18266170811735624621
124424 183 18260544511830883535
12553582 1 18412262830738223591
12633257 1 18049196442717119219
12644460 14 18190754213300129209
12788726 201 18338526240090737642
13009979 54 17917163796228726803
13132413 78 18409730638374363293
13134695 92 18342448283676762445
13140716 1 18270686484315818467
13257819 101 13542186013711212571
13862211 1 18413384328346013447
14022349 108 18270679903935362664
14178342 30 17917726686311711455
14787075 74 18187651335873607458
14955137 171 18199489773058671771
15042514 8 18122907525816707048
15209294 21 17274553005578159179
15375462 189 18261111867861717914
15536298 74 18129659845344237928
1601671 61 18272657813642234287
16945 1 18130784529912550839
17349148 13 17775281716348264967
17357779 13 18270665481509133333
17804303 29 18343865536852772703
17980427 23 17132115749671907681
1813 80 18336839623328689798
18222031 100 18202558497031811111
200 152 17822010878644843178
20028762 73 17845090856421578047
20097449 115 18411980260586972513
20510252 161 18128254489337926482
20600515 1 17988372532397438420
20671657 1 18125726935475851037
21029758 11 18341888589271264237
21029758 27 18335426763508174557
21041028 32 18413392037923001449
21267235 1 18409175385424628086
21501502 16 18125446556021788615
21524375 3 17550392173426681301
221490 88 18118971536071971955
22182313 1 18265589096384992876
2255824 54 18263931118664574535
2297311 6 18200883877295004094
23175994 123 18261112946056556863
23184049 59 18273210932367912303
2334 1 18053664956492487935
23366157 5 17972876135922678764
23402539 116 18271797995575947383
23419403 2 18194935566016555092
23557571 272 18058741182782180574
23558518 356 17903645085779920586
23559900 14 18261948647686453901
23622692 118 18057595676434651431
25147074 1 18128827528670874383
2748010 2 18340468020185270437
312423 11 18126573546934934823
314173 85 18201440246688387294
3286 77 18337107990424116943
335352 9 18411980248408641063
34934 24 18270677705281248796
350125 39 18338803433233266231
352729 6 17621029859502138380
5104073 3 18128266773657095843
537710 114 18408610270765037060
68521 5 18339925909339030500
69474 34 18130493193849197448
7364860 26 18127127704351478441
81228 2 18051707542095148313
9709674 26 18048310339234428851

>  <PUBCHEM_SHAPE_MULTIPOLES>  (1) 
389.89
8.69
2.88
1.12
1.35
2.27
0.15
-5.34
0.55
0.61
0.27
0.01
0.2
-0.55

>  <PUBCHEM_SHAPE_SELFOVERLAP>  (1) 
791.052

>  <PUBCHEM_SHAPE_VOLUME>  (1) 
230.5

>  <PUBCHEM_COORDINATE_TYPE>  (1) 
2
5
10

$$$$
