46016
     RDKit          3D

 12 11  0  0  0  0  0  0  0  0999 V2000
    2.7785   -0.5593   -0.0002 O   0  0  0  0  0  0  0  0  0  0  0  0
    4.0823    1.3381    0.0051 O   0  0  0  0  0  0  0  0  0  0  0  0
   -3.3603    0.0166    0.0087 N   0  0  0  0  0  0  0  0  0  0  0  0
    5.0270   -0.7582    0.0173 N   0  0  0  0  0  0  0  0  0  0  0  0
   -2.1229   -0.8003   -0.0087 C   0  0  0  0  0  0  0  0  0  0  0  0
   -0.9156    0.1247   -0.0457 C   0  0  0  0  0  0  0  0  0  0  0  0
   -3.4324    0.9257   -1.2266 C   0  0  0  0  0  0  0  0  0  0  0  0
   -4.6067   -0.8800    0.0133 C   0  0  0  0  0  0  0  0  0  0  0  0
   -3.4099    0.9071    1.2585 C   0  0  0  0  0  0  0  0  0  0  0  0
    0.3866   -0.6720   -0.0181 C   0  0  0  0  0  0  0  0  0  0  0  0
    1.6044    0.2409   -0.0110 C   0  0  0  0  0  0  0  0  0  0  0  0
    3.9691    0.1169    0.0073 C   0  0  0  0  0  0  0  0  0  0  0  0
  1 11  1  0
  1 12  1  0
  2 12  2  0
  3  5  1  0
  3  7  1  0
  3  8  1  0
  3  9  1  0
  4 12  1  0
  5  6  1  0
  6 10  1  0
 10 11  1  0
M  CHG  1   3   1
M  END
>  <PUBCHEM_COMPOUND_CID>  (1) 
46016

>  <PUBCHEM_CONFORMER_RMSD>  (1) 
0.6

>  <PUBCHEM_CONFORMER_DIVERSEORDER>  (1) 
1
17
11
31
19
3
5
27
33
4
32
2
23
30
9
20
10
18
22
29
25
8
24
26
12
13
14
21
28
16
15
6
7

>  <PUBCHEM_MMFF94_PARTIAL_CHARGES>  (1) 
12
1 -0.43
11 0.28
12 0.78
2 -0.57
3 -1.01
30 0.37
31 0.37
4 -0.8
5 0.5
7 0.5
8 0.5
9 0.5

>  <PUBCHEM_EFFECTIVE_ROTOR_COUNT>  (1) 
6

>  <PUBCHEM_PHARMACOPHORE_FEATURES>  (1) 
3
1 2 acceptor
1 3 cation
1 4 donor

>  <PUBCHEM_HEAVY_ATOM_COUNT>  (1) 
12

>  <PUBCHEM_ATOM_DEF_STEREO_COUNT>  (1) 
0

>  <PUBCHEM_ATOM_UDEF_STEREO_COUNT>  (1) 
0

>  <PUBCHEM_BOND_DEF_STEREO_COUNT>  (1) 
0

>  <PUBCHEM_BOND_UDEF_STEREO_COUNT>  (1) 
0

>  <PUBCHEM_ISOTOPIC_ATOM_COUNT>  (1) 
0

>  <PUBCHEM_COMPONENT_COUNT>  (1) 
1

>  <PUBCHEM_CACTVS_TAUTO_COUNT>  (1) 
2

>  <PUBCHEM_CONFORMER_ID>  (1) 
0000B3C000000001

>  <PUBCHEM_MMFF94_ENERGY>  (1) 
28.4592

>  <PUBCHEM_FEATURE_SELFOVERLAP>  (1) 
15.223

>  <PUBCHEM_SHAPE_FINGERPRINT>  (1) 
10680689 15 17749112183896762443
11062470 55 18272370879914967206
13081056 2 18333730234388894596
14123238 8 18409168835066329470
17834072 33 18341893038614685934
17834076 25 16702305658735465798
18186145 218 18410015425013308978
190213 19 18342737416453002346
1986462 14 18411420618000858455
20279233 1 16588027896401940859
20645477 70 18272656710458567006
20719005 15 18410573998215876494
20828058 21 17095241414951416990
2306618 200 18335702702942375729
23380061 127 17917993876041877699
23402539 116 17275099509711354965
300161 21 11169911718949211410
42788 4 18410573994142377327
90127 26 17530970172252647228

>  <PUBCHEM_SHAPE_MULTIPOLES>  (1) 
225.25
10.92
1.09
0.87
7.39
0.12
0.01
0.06
0.09
-0.18
0
-0.98
0.26
0

>  <PUBCHEM_SHAPE_SELFOVERLAP>  (1) 
413.431

>  <PUBCHEM_SHAPE_VOLUME>  (1) 
144.7

>  <PUBCHEM_COORDINATE_TYPE>  (1) 
2
5
10

$$$$
