46022
     RDKit          3D

 16 16  0  0  0  0  0  0  0  0999 V2000
    1.7295    2.8681    0.0918 Cl  0  0  0  0  0  0  0  0  0  0  0  0
    1.7586   -0.0213    0.9224 O   0  0  0  0  0  0  0  0  0  0  0  0
    2.2618   -0.6267   -1.2655 O   0  0  0  0  0  0  0  0  0  0  0  0
   -2.9078   -0.8760   -0.0070 N   0  0  0  0  0  0  0  0  0  0  0  0
    3.7727   -1.0104    0.4527 N   0  0  0  0  0  0  0  0  0  0  0  0
   -1.7125    0.0797    0.0211 C   0  0  0  0  0  0  0  0  0  0  0  0
   -3.4155   -0.9846   -1.4421 C   0  0  0  0  0  0  0  0  0  0  0  0
   -3.9952   -0.3295    0.9139 C   0  0  0  0  0  0  0  0  0  0  0  0
   -2.5380   -2.2775    0.4741 C   0  0  0  0  0  0  0  0  0  0  0  0
   -0.5345   -0.4244    0.4608 C   0  0  0  0  0  0  0  0  0  0  0  0
   -1.9333    1.3496   -0.3956 C   0  0  0  0  0  0  0  0  0  0  0  0
    0.5547    0.4466    0.4862 C   0  0  0  0  0  0  0  0  0  0  0  0
   -0.8440    2.2207   -0.3700 C   0  0  0  0  0  0  0  0  0  0  0  0
    0.4000    1.7692    0.0708 C   0  0  0  0  0  0  0  0  0  0  0  0
    2.5813   -0.5650   -0.0819 C   0  0  0  0  0  0  0  0  0  0  0  0
    4.8221   -1.6185   -0.3316 C   0  0  0  0  0  0  0  0  0  0  0  0
  1 14  1  0
  2 12  1  0
  2 15  1  0
  3 15  2  0
  4  6  1  0
  4  7  1  0
  4  8  1  0
  4  9  1  0
  5 15  1  0
  5 16  1  0
  6 10  2  0
  6 11  1  0
 10 12  1  0
 11 13  2  0
 12 14  2  0
 13 14  1  0
M  CHG  1   4   1
M  END
>  <PUBCHEM_COMPOUND_CID>  (1) 
46022

>  <PUBCHEM_CONFORMER_RMSD>  (1) 
0.6

>  <PUBCHEM_CONFORMER_DIVERSEORDER>  (1) 
1
27
21
33
18
8
22
17
36
29
31
23
28
25
16
24
34
32
15
26
13
9
7
35
14
10
30
4
19
12
11
20
5
3
6
2

>  <PUBCHEM_MMFF94_PARTIAL_CHARGES>  (1) 
20
1 -0.18
10 -0.15
11 -0.15
12 0.08
13 -0.15
14 0.18
15 0.78
16 0.3
2 -0.23
26 0.15
27 0.15
28 0.15
29 0.37
3 -0.57
4 -0.87
5 -0.73
6 0.36
7 0.5
8 0.5
9 0.5

>  <PUBCHEM_EFFECTIVE_ROTOR_COUNT>  (1) 
4

>  <PUBCHEM_PHARMACOPHORE_FEATURES>  (1) 
4
1 3 acceptor
1 4 cation
1 5 donor
6 6 10 11 12 13 14 rings

>  <PUBCHEM_HEAVY_ATOM_COUNT>  (1) 
16

>  <PUBCHEM_ATOM_DEF_STEREO_COUNT>  (1) 
0

>  <PUBCHEM_ATOM_UDEF_STEREO_COUNT>  (1) 
0

>  <PUBCHEM_BOND_DEF_STEREO_COUNT>  (1) 
0

>  <PUBCHEM_BOND_UDEF_STEREO_COUNT>  (1) 
0

>  <PUBCHEM_ISOTOPIC_ATOM_COUNT>  (1) 
0

>  <PUBCHEM_COMPONENT_COUNT>  (1) 
1

>  <PUBCHEM_CACTVS_TAUTO_COUNT>  (1) 
2

>  <PUBCHEM_CONFORMER_ID>  (1) 
0000B3C600000001

>  <PUBCHEM_MMFF94_ENERGY>  (1) 
60.4235

>  <PUBCHEM_FEATURE_SELFOVERLAP>  (1) 
20.297

>  <PUBCHEM_SHAPE_FINGERPRINT>  (1) 
10989021 7 18410857680779605016
11206711 2 18114731651683752285
11543360 7 15213307438551572402
11578080 2 16880158232134980468
12138202 78 18337949124718463148
12553582 1 18335413547857213043
12932764 1 17386273407166238419
13140716 1 18338806727103807019
13296908 3 18188487016445165739
14115302 16 17821734943896343535
14911166 2 18263350405164643765
15775835 57 7853583421800769711
16752209 62 18116132412454670179
16945 1 18261944198474894777
18186145 218 17603577569396238273
19141452 34 18060701671975553759
20281475 54 18339928215720475131
20645477 70 18192979625246132975
20671657 53 18409449206252340813
20871998 22 18337953501411255849
20871999 31 18262513685025785804
21041028 32 18341061760980822129
21061003 4 17346590838334174128
21501502 16 18341056297471158833
221490 88 18263087784925343002
22213442 358 18411698777389501412
22721475 48 18342742926827601319
23402539 116 18336262332690580206
23557571 272 18199756847579355028
23559900 14 18195236721250405346
23598294 1 18118677725700728714
2748010 2 18116421721441399981
3071541 250 18336271222935564992
5902787 121 18409165536774169394
7364860 26 18269273641575173288
81228 2 18197509423699307448
81539 233 17901379310258822172
83771 10 18342459227047190938
8809292 202 18333734636640949211

>  <PUBCHEM_SHAPE_MULTIPOLES>  (1) 
309.44
7.14
2.59
0.99
3.62
1.4
-0.19
-5.4
-0.42
0.84
-0.07
-0.44
-0.21
0.29

>  <PUBCHEM_SHAPE_SELFOVERLAP>  (1) 
623.297

>  <PUBCHEM_SHAPE_VOLUME>  (1) 
185.6

>  <PUBCHEM_COORDINATE_TYPE>  (1) 
2
5
10

$$$$
