46026
     RDKit          3D

 20 20  0  0  0  0  0  0  0  0999 V2000
    2.5104   -0.2316    0.8104 O   0  0  0  0  0  0  0  0  0  0  0  0
    2.8445   -0.4062   -1.4726 O   0  0  0  0  0  0  0  0  0  0  0  0
   -3.0071   -0.5258   -0.0976 N   0  0  0  0  0  0  0  0  0  0  0  0
    4.6948   -0.2259   -0.0749 N   0  0  0  0  0  0  0  0  0  0  0  0
   -1.4996   -0.4285    0.1491 C   0  0  0  0  0  0  0  0  0  0  0  0
   -3.5025   -1.9705   -0.0820 C   0  0  0  0  0  0  0  0  0  0  0  0
   -0.9363    0.8035    0.1505 C   0  0  0  0  0  0  0  0  0  0  0  0
   -3.3194    0.0690   -1.4677 C   0  0  0  0  0  0  0  0  0  0  0  0
   -3.7355    0.2377    1.0048 C   0  0  0  0  0  0  0  0  0  0  0  0
   -1.6961    2.0700   -0.0737 C   0  0  0  0  0  0  0  0  0  0  0  0
   -0.8498   -1.6030    0.3473 C   0  0  0  0  0  0  0  0  0  0  0  0
   -4.9992   -1.9864   -0.3036 C   0  0  0  0  0  0  0  0  0  0  0  0
    0.4385    0.8716    0.3772 C   0  0  0  0  0  0  0  0  0  0  0  0
   -1.2264    2.8204   -1.3332 C   0  0  0  0  0  0  0  0  0  0  0  0
   -1.6448    3.0084    1.1457 C   0  0  0  0  0  0  0  0  0  0  0  0
    0.5251   -1.5349    0.5738 C   0  0  0  0  0  0  0  0  0  0  0  0
    1.1690   -0.2976    0.5889 C   0  0  0  0  0  0  0  0  0  0  0  0
    3.3235   -0.2969   -0.3445 C   0  0  0  0  0  0  0  0  0  0  0  0
    5.6584   -0.2806   -1.1649 C   0  0  0  0  0  0  0  0  0  0  0  0
    5.2526   -0.0927    1.2670 C   0  0  0  0  0  0  0  0  0  0  0  0
  1 17  1  0
  1 18  1  0
  2 18  2  0
  3  5  1  0
  3  6  1  0
  3  8  1  0
  3  9  1  0
  4 18  1  0
  4 19  1  0
  4 20  1  0
  5  7  2  0
  5 11  1  0
  6 12  1  0
  7 10  1  0
  7 13  1  0
 10 14  1  0
 10 15  1  0
 11 16  2  0
 13 17  2  0
 16 17  1  0
M  CHG  1   3   1
M  END
>  <PUBCHEM_COMPOUND_CID>  (1) 
46026

>  <PUBCHEM_CONFORMER_RMSD>  (1) 
0.8

>  <PUBCHEM_CONFORMER_DIVERSEORDER>  (1) 
2
25
20
39
16
21
31
29
36
27
5
34
41
10
7
22
28
9
37
30
18
19
40
3
38
8
4
14
32
17
6
24
26
35
11
12
1
33
13
23
15

>  <PUBCHEM_MMFF94_PARTIAL_CHARGES>  (1) 
20
1 -0.23
10 0.14
11 -0.15
13 -0.15
16 -0.15
17 0.08
18 0.78
19 0.3
2 -0.57
20 0.3
3 -0.87
30 0.15
34 0.15
4 -0.66
41 0.15
5 0.36
6 0.5
7 -0.14
8 0.5
9 0.5

>  <PUBCHEM_EFFECTIVE_ROTOR_COUNT>  (1) 
6

>  <PUBCHEM_PHARMACOPHORE_FEATURES>  (1) 
4
1 2 acceptor
1 3 cation
3 10 14 15 hydrophobe
6 5 7 11 13 16 17 rings

>  <PUBCHEM_HEAVY_ATOM_COUNT>  (1) 
20

>  <PUBCHEM_ATOM_DEF_STEREO_COUNT>  (1) 
0

>  <PUBCHEM_ATOM_UDEF_STEREO_COUNT>  (1) 
0

>  <PUBCHEM_BOND_DEF_STEREO_COUNT>  (1) 
0

>  <PUBCHEM_BOND_UDEF_STEREO_COUNT>  (1) 
0

>  <PUBCHEM_ISOTOPIC_ATOM_COUNT>  (1) 
0

>  <PUBCHEM_COMPONENT_COUNT>  (1) 
1

>  <PUBCHEM_CACTVS_TAUTO_COUNT>  (1) 
1

>  <PUBCHEM_CONFORMER_ID>  (1) 
0000B3CA00000002

>  <PUBCHEM_MMFF94_ENERGY>  (1) 
103.6239

>  <PUBCHEM_FEATURE_SELFOVERLAP>  (1) 
20.297

>  <PUBCHEM_SHAPE_FINGERPRINT>  (1) 
11045515 52 17530962501372537405
11680986 33 17904199587785592731
121448 382 18114180804621052155
12166972 35 17458344190747987454
12173636 292 17982454793382316217
12236239 1 17603585219139349866
12390115 104 17985280577020633617
13140716 1 18264774439814589459
13288520 33 18273218612038716279
13862211 1 18336822086714041011
14142880 1 18189619332849194861
15961568 22 18264486368713221292
16945 1 18339070511088924859
17349148 13 17675926486881818930
17357779 13 18269538551063171717
1813 80 18339655524268298829
18222031 100 18269544095961123443
187816 3 18040715900324806603
19141452 34 17560239249246729151
192875 21 17676209091382122796
200 152 17240482511313014498
20300324 65 18409452479275759708
20510252 161 18341892961458275224
20645477 70 16917075422086057734
20871999 31 18412548678492639164
21029758 27 18261115231295675731
21033648 29 11169906212664508423
21041028 32 18271249438791047401
21267235 1 18339648949074808243
22182313 1 18118939603132518581
2297311 6 18343029899568159742
23402539 116 18409445890579831902
23557571 272 18341902887032770086
23558518 356 18044378227412054531
23559900 14 18412547639643199450
238078 22 18261115218104942299
25147074 1 18116425934392854810
2748010 2 18121489413356703875
283562 15 18409165493808665835
2838139 119 15575535982434810183
314173 85 18272932756332371003
3268164 11 18412539882220230164
68521 5 18408882936600403433
7364860 26 17837771489044932577
81228 2 18336839627402117337

>  <PUBCHEM_SHAPE_MULTIPOLES>  (1) 
389.89
10.06
2.52
1.26
12.12
1.85
-0.22
-4.39
-1.29
-3.3
0.02
0.4
0.37
-0.14

>  <PUBCHEM_SHAPE_SELFOVERLAP>  (1) 
789.222

>  <PUBCHEM_SHAPE_VOLUME>  (1) 
230.4

>  <PUBCHEM_COORDINATE_TYPE>  (1) 
2
5
10

$$$$
