46035
     RDKit          3D

 19 19  0  0  0  0  0  0  0  0999 V2000
    3.8981    0.6631    0.1363 N   0  0  0  0  0  0  0  0  0  0  0  0
   -3.7466    0.7813   -0.3171 N   0  0  0  0  0  0  0  0  0  0  0  0
    2.6766   -0.0863    0.6488 C   0  0  0  0  0  0  0  0  0  0  0  0
    5.1129   -0.2522    0.1866 C   0  0  0  0  0  0  0  0  0  0  0  0
    2.4042   -1.3214   -0.2043 C   0  0  0  0  0  0  0  0  0  0  0  0
    3.6561    1.1062   -1.2994 C   0  0  0  0  0  0  0  0  0  0  0  0
    4.1467    1.8847    1.0093 C   0  0  0  0  0  0  0  0  0  0  0  0
    1.1596   -2.1297    0.1856 C   0  0  0  0  0  0  0  0  0  0  0  0
   -2.5077    0.0463   -0.1901 C   0  0  0  0  0  0  0  0  0  0  0  0
   -4.5663    0.9302    1.0033 C   0  0  0  0  0  0  0  0  0  0  0  0
   -0.1322   -1.3632    0.0533 C   0  0  0  0  0  0  0  0  0  0  0  0
    6.3237    0.4982   -0.3237 C   0  0  0  0  0  0  0  0  0  0  0  0
   -3.5041    2.2379   -0.8059 C   0  0  0  0  0  0  0  0  0  0  0  0
   -4.7197    0.0995   -1.3206 C   0  0  0  0  0  0  0  0  0  0  0  0
   -1.8005    0.0734    1.0120 C   0  0  0  0  0  0  0  0  0  0  0  0
   -2.0198   -0.6899   -1.2697 C   0  0  0  0  0  0  0  0  0  0  0  0
   -0.6055   -0.6356    1.1344 C   0  0  0  0  0  0  0  0  0  0  0  0
   -0.8249   -1.3990   -1.1473 C   0  0  0  0  0  0  0  0  0  0  0  0
   -4.9505   -0.4433    1.5086 C   0  0  0  0  0  0  0  0  0  0  0  0
  1  3  1  0
  1  4  1  0
  1  6  1  0
  1  7  1  0
  2  9  1  0
  2 10  1  0
  2 13  1  0
  2 14  1  0
  3  5  1  0
  4 12  1  0
  5  8  1  0
  8 11  1  0
  9 15  2  0
  9 16  1  0
 10 19  1  0
 11 17  2  0
 11 18  1  0
 15 17  1  0
 16 18  2  0
M  CHG  2   1   1   2   1
M  END
>  <PUBCHEM_COMPOUND_CID>  (1) 
46035

>  <PUBCHEM_CONFORMER_RMSD>  (1) 
0.8

>  <PUBCHEM_CONFORMER_DIVERSEORDER>  (1) 
27
17
59
66
43
49
8
19
26
23
56
52
34
24
36
45
4
48
29
50
47
35
55
68
65
63
62
51
42
58
16
60
39
12
38
44
40
5
57
9
46
13
7
53
25
33
30
32
67
11
61
20
37
18
64
28
10
21
3
41
6
22
1
15
54
14
2
31

>  <PUBCHEM_MMFF94_PARTIAL_CHARGES>  (1) 
20
1 -1.01
10 0.5
11 -0.14
13 0.5
14 0.5
15 -0.15
16 -0.15
17 -0.15
18 -0.15
2 -0.87
3 0.5
4 0.5
45 0.15
46 0.15
47 0.15
48 0.15
6 0.5
7 0.5
8 0.14
9 0.36

>  <PUBCHEM_EFFECTIVE_ROTOR_COUNT>  (1) 
7

>  <PUBCHEM_PHARMACOPHORE_FEATURES>  (1) 
3
1 1 cation
1 2 cation
6 9 11 15 16 17 18 rings

>  <PUBCHEM_HEAVY_ATOM_COUNT>  (1) 
19

>  <PUBCHEM_ATOM_DEF_STEREO_COUNT>  (1) 
0

>  <PUBCHEM_ATOM_UDEF_STEREO_COUNT>  (1) 
0

>  <PUBCHEM_BOND_DEF_STEREO_COUNT>  (1) 
0

>  <PUBCHEM_BOND_UDEF_STEREO_COUNT>  (1) 
0

>  <PUBCHEM_ISOTOPIC_ATOM_COUNT>  (1) 
0

>  <PUBCHEM_COMPONENT_COUNT>  (1) 
1

>  <PUBCHEM_CACTVS_TAUTO_COUNT>  (1) 
1

>  <PUBCHEM_CONFORMER_ID>  (1) 
0000B3D30000001B

>  <PUBCHEM_MMFF94_ENERGY>  (1) 
78.4359

>  <PUBCHEM_FEATURE_SELFOVERLAP>  (1) 
15.223

>  <PUBCHEM_SHAPE_FINGERPRINT>  (1) 
100836 57 18408326592628352398
10354089 29 17676207983623295408
10447042 23 11815903327931164460
10803635 8 12895353278777648109
11045977 3 16587746459958538217
11128504 68 16988838401718612161
11132069 177 15791734049448273803
11552529 35 16951136221459833482
11796584 16 11095884860662523941
12507557 5 17240204330950935573
12596602 18 15791734113688361860
12633257 1 16081361990741214152
12788726 201 15338571418075465355
12839892 36 15213023752030513619
13544653 18 11025795392517189626
13583140 156 16732974336764311051
14251731 8 11167943545827535867
14251751 18 11815885773751095968
14251752 14 14548747161821203214
14251764 18 17676202494919043370
14251764 30 14057267646850448152
14251764 38 18041839498124346149
14252887 29 11025793185531597568
14289901 80 18260545576956529307
14341114 176 16515685529284694850
14787075 74 17968667128576680387
15183329 4 17560805394850451734
15188451 53 14851893598989165137
17349148 13 14129352792708181107
17834072 8 18202010915478755086
1798214 20 10303814263413803100
18186145 218 17131540687599104979
18222031 100 10953737824581446402
18335252 114 18129093429468701573
193927 3 8286198392025594472
19784866 240 10087639320926246738
19862831 5 17203609289532808258
200 152 12535631578846379670
20374829 77 12247677153963549770
20645476 183 17846207869460108615
20645477 56 18412545418148283374
20871999 31 16702013218876255343
21250096 35 8862942775247403438
22079108 93 18335425694388684043
22646028 28 8718828699742118070
22854114 59 17312822662685993291
23198884 109 16845856797261772603
23227448 37 18270958076018704693
23402539 116 16056883520153111584
23402655 69 17917711314501874582
23557571 272 17676497150200969115
23559900 14 16589437371350993587
26918003 58 8718824288552216178
2838139 119 18413383237904114748
3004659 81 13829865577993821044
314173 85 7853579023590936290
351380 3 8934999274264044572
3545911 37 18412548712704729906
4028521 119 18202843262290872440
4325135 7 18410014360299613803
474 4 18187363233661859438
4921388 177 16200424810467232079
4990 188 15482667974714760227
5104073 3 17751084617879210777
5283173 99 12391242564814680530
59682541 35 17968670427190613897
59755656 520 18259984894545821826
633830 44 17987243218609183271
960060 61 13110963128265339160
9996256 80 18411982485427868374

>  <PUBCHEM_SHAPE_MULTIPOLES>  (1) 
381.05
12.91
1.85
1.38
8.23
0.2
-0.03
5.63
0.45
0.25
-0.16
-1.14
0.1
0.31

>  <PUBCHEM_SHAPE_SELFOVERLAP>  (1) 
748.33

>  <PUBCHEM_SHAPE_VOLUME>  (1) 
230.9

>  <PUBCHEM_COORDINATE_TYPE>  (1) 
2
5
10

$$$$
