46031
     RDKit          3D

 14 14  0  0  0  0  0  0  0  0999 V2000
    3.7920   -0.1621    0.0068 O   0  0  0  0  0  0  0  0  0  0  0  0
   -1.7575   -0.9053   -0.0048 N   0  0  0  0  0  0  0  0  0  0  0  0
   -0.2427   -0.6859   -0.0018 C   0  0  0  0  0  0  0  0  0  0  0  0
    0.2117    0.5903    0.0013 C   0  0  0  0  0  0  0  0  0  0  0  0
   -0.6749    1.7923    0.0043 C   0  0  0  0  0  0  0  0  0  0  0  0
   -2.0359   -2.4058   -0.0077 C   0  0  0  0  0  0  0  0  0  0  0  0
   -2.3474   -0.2411   -1.2458 C   0  0  0  0  0  0  0  0  0  0  0  0
   -2.4313   -0.2988    1.2243 C   0  0  0  0  0  0  0  0  0  0  0  0
    0.5236   -1.8054   -0.0021 C   0  0  0  0  0  0  0  0  0  0  0  0
    1.5948    0.7704    0.0044 C   0  0  0  0  0  0  0  0  0  0  0  0
   -0.4884    2.6618   -1.2525 C   0  0  0  0  0  0  0  0  0  0  0  0
   -0.4932    2.6522    1.2683 C   0  0  0  0  0  0  0  0  0  0  0  0
    1.9068   -1.6253    0.0010 C   0  0  0  0  0  0  0  0  0  0  0  0
    2.4424   -0.3374    0.0043 C   0  0  0  0  0  0  0  0  0  0  0  0
  1 14  1  0
  2  3  1  0
  2  6  1  0
  2  7  1  0
  2  8  1  0
  3  4  2  0
  3  9  1  0
  4  5  1  0
  4 10  1  0
  5 11  1  0
  5 12  1  0
  9 13  2  0
 10 14  2  0
 13 14  1  0
M  CHG  1   2   1
M  END
>  <PUBCHEM_COMPOUND_CID>  (1) 
46031

>  <PUBCHEM_CONFORMER_RMSD>  (1) 
0.6

>  <PUBCHEM_CONFORMER_DIVERSEORDER>  (1) 
1

>  <PUBCHEM_MMFF94_PARTIAL_CHARGES>  (1) 
16
1 -0.53
10 -0.15
13 -0.15
14 0.08
2 -0.87
25 0.15
26 0.15
3 0.36
33 0.15
34 0.45
4 -0.14
5 0.14
6 0.5
7 0.5
8 0.5
9 -0.15

>  <PUBCHEM_EFFECTIVE_ROTOR_COUNT>  (1) 
2

>  <PUBCHEM_PHARMACOPHORE_FEATURES>  (1) 
4
1 1 donor
1 2 cation
3 5 11 12 hydrophobe
6 3 4 9 10 13 14 rings

>  <PUBCHEM_HEAVY_ATOM_COUNT>  (1) 
14

>  <PUBCHEM_ATOM_DEF_STEREO_COUNT>  (1) 
0

>  <PUBCHEM_ATOM_UDEF_STEREO_COUNT>  (1) 
0

>  <PUBCHEM_BOND_DEF_STEREO_COUNT>  (1) 
0

>  <PUBCHEM_BOND_UDEF_STEREO_COUNT>  (1) 
0

>  <PUBCHEM_ISOTOPIC_ATOM_COUNT>  (1) 
0

>  <PUBCHEM_COMPONENT_COUNT>  (1) 
1

>  <PUBCHEM_CACTVS_TAUTO_COUNT>  (1) 
6

>  <PUBCHEM_CONFORMER_ID>  (1) 
0000B3CF00000001

>  <PUBCHEM_MMFF94_ENERGY>  (1) 
81.7048

>  <PUBCHEM_FEATURE_SELFOVERLAP>  (1) 
20.297

>  <PUBCHEM_SHAPE_FINGERPRINT>  (1) 
1 1 17330834033169704677
11132069 177 18342455963236062490
11206711 2 18338234865035100828
12382932 28 18341618130611510875
13027679 85 18340769355090439337
13132413 78 18269850859388852809
13140716 1 18338799043338872634
13380535 21 17979654337698322342
14614273 12 18263359183871827980
14617773 55 17770482158787218829
14817 1 13887467703107972789
15490181 7 17543068978881540468
15490181 8 17404863648614568400
16945 1 18410292488947986254
17775402 16 18263641921526712764
193761 8 17978510836688790790
20525323 117 18270394980268471258
20588541 1 18410288108097214231
21061003 4 18266465475902948939
21501502 16 18123185706506256182
2334 1 18050849111287233058
23419403 2 15446551126560854611
23559900 14 18412254039984205898
241688 4 18338512053233601267
2748010 2 18194675097634620382
3071541 158 18118115007607086261
353137 74 18262789649474870999
5084963 1 17831012795068574547
528886 8 18412259549430682379
568465 68 17679050276446427619
63268167 104 18196089078088080699
7364860 26 17622447559402701250
81228 2 18338520733383540400

>  <PUBCHEM_SHAPE_MULTIPOLES>  (1) 
277.26
3.69
2.93
1.07
2.3
1.23
0
-1.55
0.03
-1.05
0
-0.66
0.55
0.01

>  <PUBCHEM_SHAPE_SELFOVERLAP>  (1) 
565.832

>  <PUBCHEM_SHAPE_VOLUME>  (1) 
164.3

>  <PUBCHEM_COORDINATE_TYPE>  (1) 
2
5
10

$$$$
