46047
     RDKit          3D

 12 12  0  0  0  0  0  0  0  0999 V2000
    2.9681   -1.9080   -0.0001 O   0  0  0  0  0  0  0  0  0  0  0  0
   -1.9712   -0.4644   -0.0001 N   0  0  0  0  0  0  0  0  0  0  0  0
   -0.6148    0.2448   -0.0001 C   0  0  0  0  0  0  0  0  0  0  0  0
   -2.7409   -0.0514   -1.2514 C   0  0  0  0  0  0  0  0  0  0  0  0
   -2.7328   -0.0677    1.2615 C   0  0  0  0  0  0  0  0  0  0  0  0
   -1.8277   -1.9849   -0.0099 C   0  0  0  0  0  0  0  0  0  0  0  0
    0.4879   -0.5418   -0.0001 C   0  0  0  0  0  0  0  0  0  0  0  0
   -0.6316    1.5992    0.0000 C   0  0  0  0  0  0  0  0  0  0  0  0
    1.7239    0.1045    0.0001 C   0  0  0  0  0  0  0  0  0  0  0  0
    0.6046    2.2455    0.0002 C   0  0  0  0  0  0  0  0  0  0  0  0
    1.7823    1.4981    0.0002 C   0  0  0  0  0  0  0  0  0  0  0  0
    2.9523   -0.6738   -0.0003 C   0  0  0  0  0  0  0  0  0  0  0  0
  1 12  2  0
  2  3  1  0
  2  4  1  0
  2  5  1  0
  2  6  1  0
  3  7  2  0
  3  8  1  0
  7  9  1  0
  8 10  2  0
  9 11  2  0
  9 12  1  0
 10 11  1  0
M  CHG  1   2   1
M  END
>  <PUBCHEM_COMPOUND_CID>  (1) 
46047

>  <PUBCHEM_CONFORMER_RMSD>  (1) 
0.6

>  <PUBCHEM_CONFORMER_DIVERSEORDER>  (1) 
1
2

>  <PUBCHEM_MMFF94_PARTIAL_CHARGES>  (1) 
17
1 -0.57
10 -0.15
11 -0.15
12 0.42
2 -0.87
22 0.15
23 0.15
24 0.15
25 0.15
26 0.06
3 0.36
4 0.5
5 0.5
6 0.5
7 -0.15
8 -0.15
9 0.09

>  <PUBCHEM_EFFECTIVE_ROTOR_COUNT>  (1) 
2

>  <PUBCHEM_PHARMACOPHORE_FEATURES>  (1) 
3
1 1 acceptor
1 2 cation
6 3 7 8 9 10 11 rings

>  <PUBCHEM_HEAVY_ATOM_COUNT>  (1) 
12

>  <PUBCHEM_ATOM_DEF_STEREO_COUNT>  (1) 
0

>  <PUBCHEM_ATOM_UDEF_STEREO_COUNT>  (1) 
0

>  <PUBCHEM_BOND_DEF_STEREO_COUNT>  (1) 
0

>  <PUBCHEM_BOND_UDEF_STEREO_COUNT>  (1) 
0

>  <PUBCHEM_ISOTOPIC_ATOM_COUNT>  (1) 
0

>  <PUBCHEM_COMPONENT_COUNT>  (1) 
1

>  <PUBCHEM_CACTVS_TAUTO_COUNT>  (1) 
1

>  <PUBCHEM_CONFORMER_ID>  (1) 
0000B3DF00000001

>  <PUBCHEM_MMFF94_ENERGY>  (1) 
50.8328

>  <PUBCHEM_FEATURE_SELFOVERLAP>  (1) 
15.223

>  <PUBCHEM_SHAPE_FINGERPRINT>  (1) 
12524768 44 18409727408463835378
12932764 1 17676480683364771939
14128692 85 18411143549734426956
16945 1 18338517555187180736
17844478 74 17676498288720600265
17990270 104 18264484173076668722
20201158 50 18336256916372790542
20645477 70 18265323092349857511
20711985 344 17898839167551852276
207724 885 18411989052579940147
20871998 184 18055073155782778806
20871998 22 18341905043412359470
23552423 10 18192999437386761956
23559900 14 18123740964817030082
2748010 2 18265330792713989926
63268167 104 18339360889206039265
7364860 26 18198623422584088496
74978 22 18411982502791730279
8030462 33 17916307327952002365
81228 2 18120932798533174880

>  <PUBCHEM_SHAPE_MULTIPOLES>  (1) 
236.1
4.43
2.11
0.88
0.22
0.15
0
-1.9
0
0.86
0
-0.75
0.03
0

>  <PUBCHEM_SHAPE_SELFOVERLAP>  (1) 
483.459

>  <PUBCHEM_SHAPE_VOLUME>  (1) 
139.4

>  <PUBCHEM_COORDINATE_TYPE>  (1) 
2
5
10

$$$$
