46045
     RDKit          3D

 11 10  0  0  0  0  0  0  0  0999 V2000
    2.9505    1.5897   -0.3212 F   0  0  0  0  0  0  0  0  0  0  0  0
    1.0679   -0.2357    0.4544 O   0  0  0  0  0  0  0  0  0  0  0  0
    0.0503   -2.1388   -0.3627 O   0  0  0  0  0  0  0  0  0  0  0  0
   -1.9510    0.4245   -0.0163 N   0  0  0  0  0  0  0  0  0  0  0  0
   -1.2024   -0.5109    0.9222 C   0  0  0  0  0  0  0  0  0  0  0  0
   -2.3893   -0.3434   -1.2549 C   0  0  0  0  0  0  0  0  0  0  0  0
   -3.1757    0.9825    0.6945 C   0  0  0  0  0  0  0  0  0  0  0  0
   -1.0369    1.5699   -0.4268 C   0  0  0  0  0  0  0  0  0  0  0  0
    0.0162   -1.0839    0.2559 C   0  0  0  0  0  0  0  0  0  0  0  0
    2.3091   -0.6475   -0.1274 C   0  0  0  0  0  0  0  0  0  0  0  0
    3.3613    0.3935    0.1822 C   0  0  0  0  0  0  0  0  0  0  0  0
  1 11  1  0
  2  9  1  0
  2 10  1  0
  3  9  2  0
  4  5  1  0
  4  6  1  0
  4  7  1  0
  4  8  1  0
  5  9  1  0
 10 11  1  0
M  CHG  1   4   1
M  END
>  <PUBCHEM_COMPOUND_CID>  (1) 
46045

>  <PUBCHEM_CONFORMER_RMSD>  (1) 
0.6

>  <PUBCHEM_CONFORMER_DIVERSEORDER>  (1) 
3
40
10
4
42
9
39
41
36
18
7
34
1
8
29
35
31
12
32
25
30
14
33
13
28
43
27
24
37
5
22
44
2
21
6
17
26
20
38
15
23
11
16
19

>  <PUBCHEM_MMFF94_PARTIAL_CHARGES>  (1) 
11
1 -0.34
10 0.28
11 0.34
2 -0.43
3 -0.57
4 -1.01
5 0.56
6 0.5
7 0.5
8 0.5
9 0.66

>  <PUBCHEM_EFFECTIVE_ROTOR_COUNT>  (1) 
5

>  <PUBCHEM_PHARMACOPHORE_FEATURES>  (1) 
2
1 3 acceptor
1 4 cation

>  <PUBCHEM_HEAVY_ATOM_COUNT>  (1) 
11

>  <PUBCHEM_ATOM_DEF_STEREO_COUNT>  (1) 
0

>  <PUBCHEM_ATOM_UDEF_STEREO_COUNT>  (1) 
0

>  <PUBCHEM_BOND_DEF_STEREO_COUNT>  (1) 
0

>  <PUBCHEM_BOND_UDEF_STEREO_COUNT>  (1) 
0

>  <PUBCHEM_ISOTOPIC_ATOM_COUNT>  (1) 
0

>  <PUBCHEM_COMPONENT_COUNT>  (1) 
1

>  <PUBCHEM_CACTVS_TAUTO_COUNT>  (1) 
1

>  <PUBCHEM_CONFORMER_ID>  (1) 
0000B3DD00000003

>  <PUBCHEM_MMFF94_ENERGY>  (1) 
25.1345

>  <PUBCHEM_FEATURE_SELFOVERLAP>  (1) 
10.148

>  <PUBCHEM_SHAPE_FINGERPRINT>  (1) 
10857977 72 16951148191591540089
12897270 3 18341319012146278095
12932764 1 17240201015030467530
14325111 11 18412263926070655866
14390081 3 18335420149358687432
15775835 57 18273215278980440836
17846911 113 18334572434330931337
20653085 51 18271534112769248682
21028194 46 18187650154546188518
23211744 41 17968377823484361211
23235685 24 18334575715865072601
23552423 10 18127684920808727687
369184 2 16732699441513746811
5084963 1 18129933503565008730
6333449 129 18337952414910922450

>  <PUBCHEM_SHAPE_MULTIPOLES>  (1) 
202.38
5.08
1.66
0.94
2.28
0.1
0.08
-2.07
-0.03
0.24
0.2
-0.6
0.06
-0.26

>  <PUBCHEM_SHAPE_SELFOVERLAP>  (1) 
374.041

>  <PUBCHEM_SHAPE_VOLUME>  (1) 
130.6

>  <PUBCHEM_COORDINATE_TYPE>  (1) 
2
5
10

$$$$
