46055
     RDKit          3D

 21 20  0  0  0  0  0  0  0  0999 V2000
    4.9913   -0.0657    0.0622 N   0  0  0  0  0  0  0  0  0  0  0  0
   -4.9866    0.0739    0.0613 N   0  0  0  0  0  0  0  0  0  0  0  0
    3.7994   -0.0492   -0.8215 C   0  0  0  0  0  0  0  0  0  0  0  0
   -3.7873    0.0097   -0.8083 C   0  0  0  0  0  0  0  0  0  0  0  0
    2.5444   -0.0252    0.0396 C   0  0  0  0  0  0  0  0  0  0  0  0
   -2.5402   -0.0057    0.0631 C   0  0  0  0  0  0  0  0  0  0  0  0
    5.0228    1.1799    0.9587 C   0  0  0  0  0  0  0  0  0  0  0  0
    4.9812   -1.3050    0.9678 C   0  0  0  0  0  0  0  0  0  0  0  0
    6.2837   -0.0902   -0.7655 C   0  0  0  0  0  0  0  0  0  0  0  0
   -5.0478   -1.1407    0.9985 C   0  0  0  0  0  0  0  0  0  0  0  0
   -4.9666    1.3422    0.9264 C   0  0  0  0  0  0  0  0  0  0  0  0
   -6.2711    0.0914   -0.7795 C   0  0  0  0  0  0  0  0  0  0  0  0
    1.2527   -0.0570   -0.7818 C   0  0  0  0  0  0  0  0  0  0  0  0
   -1.2728   -0.0246   -0.7926 C   0  0  0  0  0  0  0  0  0  0  0  0
   -0.0132   -0.0039    0.0766 C   0  0  0  0  0  0  0  0  0  0  0  0
    6.2699    1.1462    1.8148 C   0  0  0  0  0  0  0  0  0  0  0  0
    4.9502   -2.5498    0.1084 C   0  0  0  0  0  0  0  0  0  0  0  0
    6.3578    1.1624   -1.6110 C   0  0  0  0  0  0  0  0  0  0  0  0
   -6.3034   -1.0589    1.8388 C   0  0  0  0  0  0  0  0  0  0  0  0
   -4.9063    2.5577    0.0274 C   0  0  0  0  0  0  0  0  0  0  0  0
   -6.3582   -1.1876   -1.5831 C   0  0  0  0  0  0  0  0  0  0  0  0
  1  3  1  0
  1  7  1  0
  1  8  1  0
  1  9  1  0
  2  4  1  0
  2 10  1  0
  2 11  1  0
  2 12  1  0
  3  5  1  0
  4  6  1  0
  5 13  1  0
  6 14  1  0
  7 16  1  0
  8 17  1  0
  9 18  1  0
 10 19  1  0
 11 20  1  0
 12 21  1  0
 13 15  1  0
 14 15  1  0
M  CHG  2   1   1   2   1
M  END
>  <PUBCHEM_COMPOUND_CID>  (1) 
46055

>  <PUBCHEM_CONFORMER_RMSD>  (1) 
1.2

>  <PUBCHEM_CONFORMER_DIVERSEORDER>  (1) 
1
6
13
14
2
15
12
10
3
8
9
4
11
7
5

>  <PUBCHEM_MMFF94_PARTIAL_CHARGES>  (1) 
10
1 -1.01
10 0.5
11 0.5
12 0.5
2 -1.01
3 0.5
4 0.5
7 0.5
8 0.5
9 0.5

>  <PUBCHEM_EFFECTIVE_ROTOR_COUNT>  (1) 
14

>  <PUBCHEM_PHARMACOPHORE_FEATURES>  (1) 
3
1 1 cation
1 2 cation
5 5 6 13 14 15 hydrophobe

>  <PUBCHEM_HEAVY_ATOM_COUNT>  (1) 
21

>  <PUBCHEM_ATOM_DEF_STEREO_COUNT>  (1) 
0

>  <PUBCHEM_ATOM_UDEF_STEREO_COUNT>  (1) 
0

>  <PUBCHEM_BOND_DEF_STEREO_COUNT>  (1) 
0

>  <PUBCHEM_BOND_UDEF_STEREO_COUNT>  (1) 
0

>  <PUBCHEM_ISOTOPIC_ATOM_COUNT>  (1) 
0

>  <PUBCHEM_COMPONENT_COUNT>  (1) 
1

>  <PUBCHEM_CACTVS_TAUTO_COUNT>  (1) 
1

>  <PUBCHEM_CONFORMER_ID>  (1) 
0000B3E700000001

>  <PUBCHEM_MMFF94_ENERGY>  (1) 
78.9514

>  <PUBCHEM_FEATURE_SELFOVERLAP>  (1) 
15.223

>  <PUBCHEM_SHAPE_FINGERPRINT>  (1) 
10638233 991 18409734001497825676
11315181 36 17821734953435590605
12091667 2 18342178865015551813
12166972 35 17846499261405646392
12516196 113 17167865278836552348
12596602 18 18260833674144952728
13073987 5 18410293579669096257
13533116 47 18340486669444953098
15183329 4 18410855460128161814
15716309 27 16370443362938268057
17093844 174 14923942371433337605
17844677 252 18201720652086658401
19489759 90 18412262827228953957
20281389 69 17917709101913352105
220451 1 18272655653400545070
23035841 295 8935000374055137077
23081809 10 18410292488705179004
23559900 14 17386005122124011501
5104073 3 18338516330989262993

>  <PUBCHEM_SHAPE_MULTIPOLES>  (1) 
422.21
23.52
1.8
1.55
0.03
0.04
0.23
0.09
1.56
0.04
0.34
-0.01
0
-0.01

>  <PUBCHEM_SHAPE_SELFOVERLAP>  (1) 
779.548

>  <PUBCHEM_SHAPE_VOLUME>  (1) 
266.7

>  <PUBCHEM_COORDINATE_TYPE>  (1) 
2
5
10

$$$$
