4606
     RDKit          3D

 11 11  0  0  1  0  0  0  0  0999 V2000
   -2.9447    0.8824    0.0937 S   0  0  0  0  0  0  0  0  0  0  0  0
   -0.7637   -0.4406   -0.6344 O   0  0  0  0  0  0  0  0  0  0  0  0
    1.9797   -0.0536    0.0242 N   0  0  0  0  0  0  0  0  0  0  0  0
    1.0427    1.0736   -0.1750 C   0  0  0  0  0  0  0  0  0  0  0  0
   -0.3543    0.6323    0.2294 C   0  0  0  0  0  0  0  0  0  0  0  0
   -1.3716    1.7581    0.0908 C   0  0  0  0  0  0  0  0  0  0  0  0
    3.4103    0.3438   -0.3720 C   0  0  0  0  0  0  0  0  0  0  0  0
    2.0020   -0.4965    1.4954 C   0  0  0  0  0  0  0  0  0  0  0  0
    1.5721   -1.2650   -0.8286 C   0  0  0  0  0  0  0  0  0  0  0  0
   -2.1714   -0.6578   -0.4643 C   0  0  0  0  0  0  0  0  0  0  0  0
   -2.4011   -1.7766    0.5409 C   0  0  0  0  0  0  0  0  0  0  0  0
  1  6  1  0
  1 10  1  0
  2  5  1  0
  2 10  1  0
  3  4  1  0
  3  7  1  0
  3  8  1  0
  3  9  1  0
  4  5  1  0
  5  6  1  0
 10 11  1  0
M  CHG  1   3   1
M  END
>  <PUBCHEM_COMPOUND_CID>  (1) 
4606

>  <PUBCHEM_CONFORMER_RMSD>  (1) 
0.6

>  <PUBCHEM_CONFORMER_DIVERSEORDER>  (1) 
1
2
5
4
3

>  <PUBCHEM_MMFF94_PARTIAL_CHARGES>  (1) 
10
1 -0.46
10 0.51
2 -0.56
3 -1.01
4 0.5
5 0.28
6 0.23
7 0.5
8 0.5
9 0.5

>  <PUBCHEM_EFFECTIVE_ROTOR_COUNT>  (1) 
3

>  <PUBCHEM_PHARMACOPHORE_FEATURES>  (1) 
3
1 2 acceptor
1 3 cation
5 1 2 5 6 10 rings

>  <PUBCHEM_HEAVY_ATOM_COUNT>  (1) 
11

>  <PUBCHEM_ATOM_DEF_STEREO_COUNT>  (1) 
0

>  <PUBCHEM_ATOM_UDEF_STEREO_COUNT>  (1) 
2

>  <PUBCHEM_BOND_DEF_STEREO_COUNT>  (1) 
0

>  <PUBCHEM_BOND_UDEF_STEREO_COUNT>  (1) 
0

>  <PUBCHEM_ISOTOPIC_ATOM_COUNT>  (1) 
0

>  <PUBCHEM_COMPONENT_COUNT>  (1) 
1

>  <PUBCHEM_CACTVS_TAUTO_COUNT>  (1) 
1

>  <PUBCHEM_CONFORMER_ID>  (1) 
000011FE00000001

>  <PUBCHEM_MMFF94_ENERGY>  (1) 
42.4937

>  <PUBCHEM_FEATURE_SELFOVERLAP>  (1) 
15.223

>  <PUBCHEM_SHAPE_FINGERPRINT>  (1) 
10857977 72 18272081742632191571
12138202 97 18336539430995168895
12716758 59 18268147557010610369
12897270 3 18412828001416317556
12932764 1 17530962462490730972
13380535 21 18199485289091293614
14325111 11 18270401560169275493
15310529 11 16805321050709895277
15775835 57 17530682091320556811
16945 1 18411415073113793557
17990270 104 18412266163648455286
20201158 50 18342737407857962071
20645464 45 17202746164299115338
20653091 64 18115304608710538968
20871998 184 18273218625029016087
21040471 1 18126000455872481597
21061003 4 17489309732246857320
23235685 24 18271240534527231676
23552423 10 18114744966019118149
2748010 2 18198050585415621637
29004967 10 18272372004969564987
3248919 1 18411973642026285389
3312278 4 18335704965809352899
369184 2 17603863373515483885
5084963 1 17274820311025002894
528716 315 18335995241205740724
75552 356 18409167727086066855

>  <PUBCHEM_SHAPE_MULTIPOLES>  (1) 
219.37
4.86
1.66
0.98
1
0.13
-0.24
0.18
-0.05
-1
-0.05
0.43
0.24
0.03

>  <PUBCHEM_SHAPE_SELFOVERLAP>  (1) 
407.566

>  <PUBCHEM_SHAPE_VOLUME>  (1) 
143.1

>  <PUBCHEM_COORDINATE_TYPE>  (1) 
2
5
10

$$$$
