46063
     RDKit          3D

 19 21  0  0  0  0  0  0  0  0999 V2000
    3.1217    0.1374   -0.9081 O   0  0  0  0  0  0  0  0  0  0  0  0
    3.4701    0.0389    1.3886 O   0  0  0  0  0  0  0  0  0  0  0  0
   -1.4730   -1.3690   -0.1912 N   0  0  0  0  0  0  0  0  0  0  0  0
   -4.9329   -0.2648    0.4532 N   0  0  0  0  0  0  0  0  0  0  0  0
    5.2355   -0.2162   -0.0948 N   0  0  0  0  0  0  0  0  0  0  0  0
   -0.4188   -0.4968   -0.3302 C   0  0  0  0  0  0  0  0  0  0  0  0
   -0.9278    0.7940   -0.1815 C   0  0  0  0  0  0  0  0  0  0  0  0
   -2.3342    0.6740    0.0532 C   0  0  0  0  0  0  0  0  0  0  0  0
   -2.6418   -0.6860    0.0415 C   0  0  0  0  0  0  0  0  0  0  0  0
    0.9354   -0.7528   -0.5745 C   0  0  0  0  0  0  0  0  0  0  0  0
   -0.0392    1.8851   -0.2817 C   0  0  0  0  0  0  0  0  0  0  0  0
   -1.3658   -2.8117   -0.2783 C   0  0  0  0  0  0  0  0  0  0  0  0
   -3.3730    1.5921    0.2738 C   0  0  0  0  0  0  0  0  0  0  0  0
    1.7955    0.3445   -0.6697 C   0  0  0  0  0  0  0  0  0  0  0  0
   -3.9345   -1.1529    0.2405 C   0  0  0  0  0  0  0  0  0  0  0  0
    1.3176    1.6448   -0.5260 C   0  0  0  0  0  0  0  0  0  0  0  0
   -4.6389    1.0550    0.4649 C   0  0  0  0  0  0  0  0  0  0  0  0
    3.9142   -0.0119    0.2454 C   0  0  0  0  0  0  0  0  0  0  0  0
    6.2898   -0.4036    0.8747 C   0  0  0  0  0  0  0  0  0  0  0  0
  1 14  1  0
  1 18  1  0
  2 18  2  0
  3  6  1  0
  3  9  1  0
  3 12  1  0
  4 15  2  0
  4 17  1  0
  5 18  1  0
  5 19  1  0
  6  7  2  0
  6 10  1  0
  7  8  1  0
  7 11  1  0
  8  9  2  0
  8 13  1  0
  9 15  1  0
 10 14  2  0
 11 16  2  0
 13 17  2  0
 14 16  1  0
M  END
>  <PUBCHEM_COMPOUND_CID>  (1) 
46063

>  <PUBCHEM_CONFORMER_RMSD>  (1) 
0.6

>  <PUBCHEM_CONFORMER_DIVERSEORDER>  (1) 
1
13
14
6
9
4
11
18
7
17
15
8
10
5
12
3
2
16

>  <PUBCHEM_MMFF94_PARTIAL_CHARGES>  (1) 
24
1 -0.23
10 -0.15
11 -0.15
12 0.26
13 -0.15
14 0.08
15 0.16
16 -0.15
17 0.16
18 0.78
19 0.3
2 -0.57
20 0.15
21 0.15
25 0.15
26 0.15
27 0.15
28 0.15
29 0.37
3 0.05
4 -0.62
5 -0.73
6 -0.15
9 -0.15

>  <PUBCHEM_EFFECTIVE_ROTOR_COUNT>  (1) 
3

>  <PUBCHEM_PHARMACOPHORE_FEATURES>  (1) 
7
1 2 acceptor
1 3 cation
1 4 acceptor
1 5 donor
5 3 6 7 8 9 rings
6 4 8 9 13 15 17 rings
6 6 7 10 11 14 16 rings

>  <PUBCHEM_HEAVY_ATOM_COUNT>  (1) 
19

>  <PUBCHEM_ATOM_DEF_STEREO_COUNT>  (1) 
0

>  <PUBCHEM_ATOM_UDEF_STEREO_COUNT>  (1) 
0

>  <PUBCHEM_BOND_DEF_STEREO_COUNT>  (1) 
0

>  <PUBCHEM_BOND_UDEF_STEREO_COUNT>  (1) 
0

>  <PUBCHEM_ISOTOPIC_ATOM_COUNT>  (1) 
0

>  <PUBCHEM_COMPONENT_COUNT>  (1) 
1

>  <PUBCHEM_CACTVS_TAUTO_COUNT>  (1) 
2

>  <PUBCHEM_CONFORMER_ID>  (1) 
0000B3EF00000001

>  <PUBCHEM_MMFF94_ENERGY>  (1) 
46.6226

>  <PUBCHEM_FEATURE_SELFOVERLAP>  (1) 
35.706

>  <PUBCHEM_SHAPE_FINGERPRINT>  (1) 
10062212 137 18335983151062836303
11045977 3 17988919003162920464
11132069 177 18341901770742076133
11401426 45 18272370862946146789
11524674 6 17346875633801289702
12119455 92 16845289428056094396
12236239 1 17821731632861381324
12251169 10 18410575106222357044
12403260 363 18341332305539616085
12553582 1 17968641792485388906
13140716 1 18267868465498110417
13214271 11 18272931609449496117
13288520 33 18187365423884118708
13544592 145 17987813916562268302
13551218 46 18189330182918790322
13675066 3 18131073744288336677
13760787 5 17530689830914986564
13862211 1 18338800130350875927
14341114 176 18343862221908374752
15042514 8 18266464385530401403
15048467 5 12679187089913099323
15196674 1 18338239365818175685
15209294 21 17988933219283098121
15375462 189 17822284678546358816
15536298 74 18200039430141020831
16945 1 18340780346228007831
17804303 29 18413109489093501988
1813 80 17168431463480765310
19141452 34 18342737442291806918
200 152 15647050452420462036
20028762 73 18128261280151817991
20510252 161 18129948866631631657
20600515 1 18341059574668291220
21033648 29 17346023494397341192
21267235 1 18335431178681911054
212916 134 18272641329563124795
21501502 16 18122912189950795669
21637258 2 15936406770953877584
22182313 1 18193561064569300069
2297311 6 18341903957265590820
23035841 295 18260548905898840946
23175994 123 14706932847479188255
23366157 5 17899698156858808964
23402539 116 18343858927109010197
23559900 14 18200891577954893598
23622692 118 18127402582617443879
25147074 1 18192152805117850876
2748010 2 18195542402150976607
296302 2 13901912197957621749
335352 9 18409731777047008085
351380 3 17603861187978510930
4409770 3 17823963550960919405
465052 167 17895207644296846083
5104073 3 18267033919478284033
5385378 56 18196662791883660827
559249 180 18186795851096434242
58807428 26 18338808805846996131
5924683 9 17773585199417788719
69090 78 18202003252719041783

>  <PUBCHEM_SHAPE_MULTIPOLES>  (1) 
364.33
10.8
1.91
0.86
11.21
0.62
-0.08
0.51
-3.67
-1.59
0.21
0.6
-0.02
-0.38

>  <PUBCHEM_SHAPE_SELFOVERLAP>  (1) 
805.374

>  <PUBCHEM_SHAPE_VOLUME>  (1) 
196.1

>  <PUBCHEM_COORDINATE_TYPE>  (1) 
2
5
10

$$$$
