46064
     RDKit          3D

 10  9  0  0  0  0  0  0  0  0999 V2000
    3.2055    1.4171    0.7715 Cl  0  0  0  0  0  0  0  0  0  0  0  0
    0.7474   -0.1124   -0.2122 O   0  0  0  0  0  0  0  0  0  0  0  0
   -0.3054   -2.1020    0.2043 O   0  0  0  0  0  0  0  0  0  0  0  0
   -2.5653    1.8855   -0.1576 O   0  0  0  0  0  0  0  0  0  0  0  0
   -1.5425   -0.1453    0.0401 N   0  0  0  0  0  0  0  0  0  0  0  0
   -1.4653    1.3232   -0.1911 N   0  0  0  0  0  0  0  0  0  0  0  0
    2.0024   -0.8023   -0.2419 C   0  0  0  0  0  0  0  0  0  0  0  0
    3.1231    0.1844   -0.5127 C   0  0  0  0  0  0  0  0  0  0  0  0
   -0.3605   -0.8866    0.0249 C   0  0  0  0  0  0  0  0  0  0  0  0
   -2.8393   -0.7616    0.2748 C   0  0  0  0  0  0  0  0  0  0  0  0
  1  8  1  0
  2  7  1  0
  2  9  1  0
  3  9  2  0
  4  6  2  0
  5  6  1  0
  5  9  1  0
  5 10  1  0
  7  8  1  0
M  END
>  <PUBCHEM_COMPOUND_CID>  (1) 
46064

>  <PUBCHEM_CONFORMER_RMSD>  (1) 
0.6

>  <PUBCHEM_CONFORMER_DIVERSEORDER>  (1) 
1
18
67
46
59
82
61
53
74
64
87
14
52
23
45
83
55
85
57
79
33
30
44
66
47
15
68
58
81
29
54
86
8
21
27
26
63
20
93
69
78
75
60
12
34
31
22
24
7
11
72
84
5
10
28
76
6
35
17
62
80
37
51
73
39
88
19
38
89
70
36
16
50
43
90
77
42
4
56
25
92
91
41
48
49
32
71
2
65
40
13
9
3

>  <PUBCHEM_MMFF94_PARTIAL_CHARGES>  (1) 
10
1 -0.29
10 0.3
2 -0.43
3 -0.57
4 -0.16
5 -0.18
6 -0.02
7 0.28
8 0.29
9 0.78

>  <PUBCHEM_EFFECTIVE_ROTOR_COUNT>  (1) 
5

>  <PUBCHEM_PHARMACOPHORE_FEATURES>  (1) 
1
1 3 acceptor

>  <PUBCHEM_HEAVY_ATOM_COUNT>  (1) 
10

>  <PUBCHEM_ATOM_DEF_STEREO_COUNT>  (1) 
0

>  <PUBCHEM_ATOM_UDEF_STEREO_COUNT>  (1) 
0

>  <PUBCHEM_BOND_DEF_STEREO_COUNT>  (1) 
0

>  <PUBCHEM_BOND_UDEF_STEREO_COUNT>  (1) 
0

>  <PUBCHEM_ISOTOPIC_ATOM_COUNT>  (1) 
0

>  <PUBCHEM_COMPONENT_COUNT>  (1) 
1

>  <PUBCHEM_CACTVS_TAUTO_COUNT>  (1) 
1

>  <PUBCHEM_CONFORMER_ID>  (1) 
0000B3F000000001

>  <PUBCHEM_MMFF94_ENERGY>  (1) 
12.5085

>  <PUBCHEM_FEATURE_SELFOVERLAP>  (1) 
5.074

>  <PUBCHEM_SHAPE_FINGERPRINT>  (1) 
10857977 72 18114750437691246371
12932764 1 18273501182290096830
14325111 11 18409169878891088454
14390081 3 18412824685717343676
19973954 147 18413111645420240204
20653085 51 18130234752465479778
21028194 46 18341619213254252222
21040471 1 18335707122030940390
23211744 41 18343306959070836718
3248919 1 17312828190509324346

>  <PUBCHEM_SHAPE_MULTIPOLES>  (1) 
180.1
5.33
1.85
0.7
1.92
0.32
0.05
1.91
0.37
-0.71
0.09
0.32
0.06
0.63

>  <PUBCHEM_SHAPE_SELFOVERLAP>  (1) 
323.627

>  <PUBCHEM_SHAPE_VOLUME>  (1) 
117.2

>  <PUBCHEM_COORDINATE_TYPE>  (1) 
2
5
10

$$$$
