46076
     RDKit          3D

 24 26  0  0  1  0  0  0  0  0999 V2000
   -0.3059   -0.3438   -0.1079 O   0  0  0  0  0  0  0  0  0  0  0  0
    0.8761   -2.2932    0.0726 O   0  0  0  0  0  0  0  0  0  0  0  0
   -5.1255    0.1045   -0.3310 N   0  0  0  0  0  0  0  0  0  0  0  0
    1.9348   -0.2088   -0.0474 N   0  0  0  0  0  0  0  0  0  0  0  0
   -6.4266   -0.5437   -0.5843 C   0  0  0  0  0  0  0  0  0  0  0  0
   -7.5043    0.5326   -0.8175 C   0  0  0  0  0  0  0  0  0  0  0  0
   -5.1491    1.0360    0.8022 C   0  0  0  0  0  0  0  0  0  0  0  0
   -7.5778    1.5428    0.3236 C   0  0  0  0  0  0  0  0  0  0  0  0
   -6.1995    2.1288    0.6023 C   0  0  0  0  0  0  0  0  0  0  0  0
   -4.0254   -0.8475   -0.2051 C   0  0  0  0  0  0  0  0  0  0  0  0
   -6.8768   -1.5496    0.4866 C   0  0  0  0  0  0  0  0  0  0  0  0
   -2.6882   -0.1136   -0.2006 C   0  0  0  0  0  0  0  0  0  0  0  0
   -1.5191   -1.0832   -0.0923 C   0  0  0  0  0  0  0  0  0  0  0  0
    0.8565   -1.0717   -0.0176 C   0  0  0  0  0  0  0  0  0  0  0  0
    3.3095   -0.5307    0.0197 C   0  0  0  0  0  0  0  0  0  0  0  0
    4.2913    0.4627   -0.0237 C   0  0  0  0  0  0  0  0  0  0  0  0
    5.6520    0.0800    0.0468 C   0  0  0  0  0  0  0  0  0  0  0  0
    3.6382   -1.8759    0.1293 C   0  0  0  0  0  0  0  0  0  0  0  0
    3.9657    1.8244   -0.1347 C   0  0  0  0  0  0  0  0  0  0  0  0
    5.9778   -1.2816    0.1581 C   0  0  0  0  0  0  0  0  0  0  0  0
    6.6470    1.0702    0.0042 C   0  0  0  0  0  0  0  0  0  0  0  0
    4.9762   -2.2521    0.1991 C   0  0  0  0  0  0  0  0  0  0  0  0
    4.9674    2.7947   -0.1759 C   0  0  0  0  0  0  0  0  0  0  0  0
    6.3055    2.4184   -0.1066 C   0  0  0  0  0  0  0  0  0  0  0  0
  1 13  1  0
  1 14  1  0
  2 14  2  0
  3  5  1  0
  3  7  1  0
  3 10  1  0
  4 14  1  0
  4 15  1  0
  5  6  1  0
  5 11  1  0
  6  8  1  0
  7  9  1  0
  8  9  1  0
 10 12  1  0
 12 13  1  0
 15 16  1  0
 15 18  2  0
 16 17  2  0
 16 19  1  0
 17 20  1  0
 17 21  1  0
 18 22  1  0
 19 23  2  0
 20 22  2  0
 21 24  2  0
 23 24  1  0
M  END
>  <PUBCHEM_COMPOUND_CID>  (1) 
46076

>  <PUBCHEM_CONFORMER_RMSD>  (1) 
1

>  <PUBCHEM_CONFORMER_DIVERSEORDER>  (1) 
1
426
31
378
475
314
260
472
237
390
951
766
681
254
519
356
324
261
907
21
554
552
404
353
321
95
438
235
195
492
593
493
699
629
715
539
722
135
483
884
162
60
334
38
651
757
618
241
179
409
568
643
656
125
248
50
916
542
49
867
748
535
316
306
65
271
253
293
918
35
746
414
391
481
861
383
421
2
541
584
247
300
63
319
717
107
718
249
312
941
205
277
509
881
473
136
714
752
278
101
229
877
567
47
358
931
37
134
574
4
133
223
230
366
826
108
805
3
820
523
725
374
613
258
131
905
538
115
440
157
13
870
110
351
452
558
127
547
742
946
443
631
698
143
182
603
29
208
445
224
22
697
537
121
193
485
126
406
240
270
933
330
454
467
188
498
777
41
251
518
628
6
77
790
635
464
305
444
621
948
24
194
142
16
59
687
781
27
28
359
164
824
118
386
853
274
220
318
566
44
32
72
354
441
303
180
854
149
148
812
563
562
301
395
502
708
140
75
73
910
33
550
754
371
825
311
524
141
190
902
114
129
447
30
337
55
14
48
232
252
400
446
363
835
405
797
451
886
342
84
555
139
289
692
214
844
827
556
530
500
171
67
167
422
9
320
15
633
113
703
516
494
81
912

>  <PUBCHEM_MMFF94_PARTIAL_CHARGES>  (1) 
25
1 -0.43
10 0.27
13 0.28
14 0.78
15 0.12
18 -0.15
19 -0.15
2 -0.57
20 -0.15
21 -0.15
22 -0.15
23 -0.15
24 -0.15
3 -0.81
4 -0.55
43 0.37
44 0.15
45 0.15
46 0.15
47 0.15
48 0.15
49 0.15
5 0.27
50 0.15
7 0.27

>  <PUBCHEM_EFFECTIVE_ROTOR_COUNT>  (1) 
8.2

>  <PUBCHEM_PHARMACOPHORE_FEATURES>  (1) 
6
1 2 acceptor
1 3 cation
1 4 donor
6 15 16 17 18 20 22 rings
6 16 17 19 21 23 24 rings
6 3 5 6 7 8 9 rings

>  <PUBCHEM_HEAVY_ATOM_COUNT>  (1) 
24

>  <PUBCHEM_ATOM_DEF_STEREO_COUNT>  (1) 
0

>  <PUBCHEM_ATOM_UDEF_STEREO_COUNT>  (1) 
1

>  <PUBCHEM_BOND_DEF_STEREO_COUNT>  (1) 
0

>  <PUBCHEM_BOND_UDEF_STEREO_COUNT>  (1) 
0

>  <PUBCHEM_ISOTOPIC_ATOM_COUNT>  (1) 
0

>  <PUBCHEM_COMPONENT_COUNT>  (1) 
1

>  <PUBCHEM_CACTVS_TAUTO_COUNT>  (1) 
2

>  <PUBCHEM_CONFORMER_ID>  (1) 
0000B3FC00000001

>  <PUBCHEM_MMFF94_ENERGY>  (1) 
55.8863

>  <PUBCHEM_FEATURE_SELFOVERLAP>  (1) 
30.472

>  <PUBCHEM_SHAPE_FINGERPRINT>  (1) 
10411042 1 17977381630681205282
10595046 47 18341610434594690087
10638233 991 18272086123578253481
10835480 77 18335700567842151475
11315181 36 18410572886995551663
11719270 70 17632293436990632142
12236239 1 18343581828582927319
125118 31 18410575067736904553
12596602 18 18408042910054425667
13167372 99 18341613685415252864
13533116 47 17095795517356884770
13785724 45 17836931101485240526
14251732 16 18335702771566757563
14251764 18 18342174470952907965
14429380 56 18336816542242915493
14461889 52 18041842942613952698
14849402 71 18339646754025032937
14933364 13 18410012135089452783
15183329 4 17203331113307408401
15419008 145 18189041015945861440
15461852 350 17632289095869816077
1577012 14 18343021082232403013
16120349 18 18409725158507757397
17093844 174 17312820469144271007
19427546 62 18336547226841521218
20157964 124 18411138039555305586
20281389 69 18260828176971831365
21130935 74 18259704484747426683
21298829 104 18339361972028921404
21315763 28 18412261723063883663
22224240 67 17676204684730164435
22956985 138 13120214329350759224
23081809 10 18130499786755988799
255183 451 17842567241344732238
328310 630 18341619209434389353
335352 9 18410859863793934638
3663271 9 18407760335434380731
397830 11 17459204026200216345
4073 2 18114466759333620362
444735 82 18260270784611568220
44555599 121 18343025458561900745
5104073 3 18113336435663048242
5758199 1 18186522103177560235
6328613 192 18413670214749541409
999808 66 11311763017701812541

>  <PUBCHEM_SHAPE_MULTIPOLES>  (1) 
472.21
25.73
2.64
0.72
27.94
0.77
-0.01
9.43
-0.17
-3.13
-0.19
0.65
0.06
-0.86

>  <PUBCHEM_SHAPE_SELFOVERLAP>  (1) 
994.198

>  <PUBCHEM_SHAPE_VOLUME>  (1) 
265.9

>  <PUBCHEM_COORDINATE_TYPE>  (1) 
2
5
10

$$$$
