46082
     RDKit          3D

 10  9  0  0  0  0  0  0  0  0999 V2000
    3.2179   -1.4959    0.2164 O   0  0  0  0  0  0  0  0  0  0  0  0
   -3.2058   -1.5147    0.2133 O   0  0  0  0  0  0  0  0  0  0  0  0
    0.0006    0.3765   -0.0472 N   0  0  0  0  0  0  0  0  0  0  0  0
    0.9442   -0.7422    0.3703 C   0  0  0  0  0  0  0  0  0  0  0  0
   -1.4075    0.0595    0.4355 C   0  0  0  0  0  0  0  0  0  0  0  0
    0.4647    1.6882    0.5694 C   0  0  0  0  0  0  0  0  0  0  0  0
    0.0011    0.5008   -1.5641 C   0  0  0  0  0  0  0  0  0  0  0  0
    2.3389   -0.4369   -0.1392 C   0  0  0  0  0  0  0  0  0  0  0  0
   -1.8773   -1.2315   -0.2053 C   0  0  0  0  0  0  0  0  0  0  0  0
   -0.4768    2.7962    0.1508 C   0  0  0  0  0  0  0  0  0  0  0  0
  1  8  1  0
  2  9  1  0
  3  4  1  0
  3  5  1  0
  3  6  1  0
  3  7  1  0
  4  8  1  0
  5  9  1  0
  6 10  1  0
M  CHG  1   3   1
M  END
>  <PUBCHEM_COMPOUND_CID>  (1) 
46082

>  <PUBCHEM_CONFORMER_RMSD>  (1) 
0.6

>  <PUBCHEM_CONFORMER_DIVERSEORDER>  (1) 
1
18
17
19
6
5
14
15
13
16
12
10
9
8
7
3
11
4
2

>  <PUBCHEM_MMFF94_PARTIAL_CHARGES>  (1) 
11
1 -0.68
2 -0.68
27 0.4
28 0.4
3 -1.01
4 0.5
5 0.5
6 0.5
7 0.5
8 0.28
9 0.28

>  <PUBCHEM_EFFECTIVE_ROTOR_COUNT>  (1) 
5

>  <PUBCHEM_PHARMACOPHORE_FEATURES>  (1) 
5
1 1 acceptor
1 1 donor
1 2 acceptor
1 2 donor
1 3 cation

>  <PUBCHEM_HEAVY_ATOM_COUNT>  (1) 
10

>  <PUBCHEM_ATOM_DEF_STEREO_COUNT>  (1) 
0

>  <PUBCHEM_ATOM_UDEF_STEREO_COUNT>  (1) 
0

>  <PUBCHEM_BOND_DEF_STEREO_COUNT>  (1) 
0

>  <PUBCHEM_BOND_UDEF_STEREO_COUNT>  (1) 
0

>  <PUBCHEM_ISOTOPIC_ATOM_COUNT>  (1) 
0

>  <PUBCHEM_COMPONENT_COUNT>  (1) 
1

>  <PUBCHEM_CACTVS_TAUTO_COUNT>  (1) 
1

>  <PUBCHEM_CONFORMER_ID>  (1) 
0000B40200000001

>  <PUBCHEM_MMFF94_ENERGY>  (1) 
35.5151

>  <PUBCHEM_FEATURE_SELFOVERLAP>  (1) 
25.371

>  <PUBCHEM_SHAPE_FINGERPRINT>  (1) 
1 1 17690559014867320317
12423570 1 15167509235964646385
137420 1 14132980957187712680
14128692 85 18113907086413404110
16945 1 18195254308207662708
19021347 4 17547574773189869496
20653085 51 9223225286734245282
20653091 64 18055368069643580489
20711978 78 18051111881591536733
20871998 184 18130504111424059014
21040471 1 17619069430449389248
23552449 1 18268990886798149312
23552449 11 18199192978102109583
29004967 10 18341323491686397978
528862 383 18054500589213062752
81228 2 18268151950530234217

>  <PUBCHEM_SHAPE_MULTIPOLES>  (1) 
189.08
3.53
2.38
0.94
0.5
1.78
-0.39
-3.31
0.41
-0.49
0.32
0
0.16
-0.04

>  <PUBCHEM_SHAPE_SELFOVERLAP>  (1) 
341.234

>  <PUBCHEM_SHAPE_VOLUME>  (1) 
124.1

>  <PUBCHEM_COORDINATE_TYPE>  (1) 
2
5
10

$$$$
