46080
     RDKit          3D

 19 20  0  0  0  0  0  0  0  0999 V2000
    0.2039   -0.8771    1.0075 O   0  0  0  0  0  0  0  0  0  0  0  0
   -0.5888   -0.0292   -0.9971 O   0  0  0  0  0  0  0  0  0  0  0  0
    4.3854    1.3370    0.1096 N   0  0  0  0  0  0  0  0  0  0  0  0
   -2.0152   -0.4302    0.8216 N   0  0  0  0  0  0  0  0  0  0  0  0
    3.5478    0.2080   -0.0050 C   0  0  0  0  0  0  0  0  0  0  0  0
    2.2750    0.2235    0.5654 C   0  0  0  0  0  0  0  0  0  0  0  0
    1.4803   -0.8929    0.4358 C   0  0  0  0  0  0  0  0  0  0  0  0
    3.9916   -0.9233   -0.6897 C   0  0  0  0  0  0  0  0  0  0  0  0
    1.8898   -2.0238   -0.2333 C   0  0  0  0  0  0  0  0  0  0  0  0
    3.1625   -2.0393   -0.8037 C   0  0  0  0  0  0  0  0  0  0  0  0
    5.8262    1.1821    0.1380 C   0  0  0  0  0  0  0  0  0  0  0  0
    3.8166    2.6679    0.1864 C   0  0  0  0  0  0  0  0  0  0  0  0
   -3.2728   -0.0481    0.3534 C   0  0  0  0  0  0  0  0  0  0  0  0
   -0.7935   -0.4021    0.1525 C   0  0  0  0  0  0  0  0  0  0  0  0
   -4.3877   -0.1524    1.1851 C   0  0  0  0  0  0  0  0  0  0  0  0
   -3.4153    0.4374   -0.9465 C   0  0  0  0  0  0  0  0  0  0  0  0
   -5.6451    0.2290    0.7171 C   0  0  0  0  0  0  0  0  0  0  0  0
   -4.6729    0.8188   -1.4144 C   0  0  0  0  0  0  0  0  0  0  0  0
   -5.7877    0.7147   -0.5827 C   0  0  0  0  0  0  0  0  0  0  0  0
  1  7  1  0
  1 14  1  0
  2 14  2  0
  3  5  1  0
  3 11  1  0
  3 12  1  0
  4 13  1  0
  4 14  1  0
  5  6  2  0
  5  8  1  0
  6  7  1  0
  7  9  2  0
  8 10  2  0
  9 10  1  0
 13 15  2  0
 13 16  1  0
 15 17  1  0
 16 18  2  0
 17 19  2  0
 18 19  1  0
M  END
>  <PUBCHEM_COMPOUND_CID>  (1) 
46080

>  <PUBCHEM_CONFORMER_RMSD>  (1) 
0.8

>  <PUBCHEM_CONFORMER_DIVERSEORDER>  (1) 
1
26
16
35
34
10
2
27
23
38
13
4
37
25
28
31
30
11
14
19
21
18
15
7
8
36
12
32
17
6
20
24
29
9
22
33
5
3

>  <PUBCHEM_MMFF94_PARTIAL_CHARGES>  (1) 
29
1 -0.23
10 -0.15
11 0.37
12 0.37
13 0.12
14 0.78
15 -0.15
16 -0.15
17 -0.15
18 -0.15
19 -0.15
2 -0.57
20 0.15
21 0.15
22 0.15
23 0.15
3 -0.84
30 0.37
31 0.15
32 0.15
33 0.15
34 0.15
35 0.15
4 -0.55
5 0.1
6 -0.15
7 0.08
8 -0.15
9 -0.15

>  <PUBCHEM_EFFECTIVE_ROTOR_COUNT>  (1) 
5

>  <PUBCHEM_PHARMACOPHORE_FEATURES>  (1) 
5
1 2 acceptor
1 3 cation
1 4 donor
6 13 15 16 17 18 19 rings
6 5 6 7 8 9 10 rings

>  <PUBCHEM_HEAVY_ATOM_COUNT>  (1) 
19

>  <PUBCHEM_ATOM_DEF_STEREO_COUNT>  (1) 
0

>  <PUBCHEM_ATOM_UDEF_STEREO_COUNT>  (1) 
0

>  <PUBCHEM_BOND_DEF_STEREO_COUNT>  (1) 
0

>  <PUBCHEM_BOND_UDEF_STEREO_COUNT>  (1) 
0

>  <PUBCHEM_ISOTOPIC_ATOM_COUNT>  (1) 
0

>  <PUBCHEM_COMPONENT_COUNT>  (1) 
1

>  <PUBCHEM_CACTVS_TAUTO_COUNT>  (1) 
2

>  <PUBCHEM_CONFORMER_ID>  (1) 
0000B40000000001

>  <PUBCHEM_MMFF94_ENERGY>  (1) 
74.9212

>  <PUBCHEM_FEATURE_SELFOVERLAP>  (1) 
25.371

>  <PUBCHEM_SHAPE_FINGERPRINT>  (1) 
10693767 8 17488475083628117102
10912923 1 17632296740300075395
11128504 68 17203889677724615337
11287383 113 18409169922015016755
11471102 20 18342459231864482050
12236239 1 17275106106712504403
12403259 415 18113622248825271775
12616971 3 17703508801031891967
12633257 1 12324243862335312281
12730499 353 18408329877988664250
12769317 202 18341325682404958552
12788726 201 16486705675256964795
13402501 40 18114176462557432420
13631057 29 17985255516461591271
13760787 19 17561080323764474215
13760787 5 17917713466000992995
13836976 161 17704353238963224198
13955234 65 18337107865622600338
14170010 4 18343300341496755266
14528608 73 18201718470211253213
15081414 286 18409737261319993676
15342168 16 18265055906623533860
15788980 27 10665229259145203355
16079462 125 17894621544543591445
17349148 13 13262398843194361619
17834072 33 18202280320964400063
17844677 252 18340493257724013253
18335252 98 18341896338125943895
20369508 70 18189332364830910842
20612939 158 18201442450244071422
20645477 56 18187082871218847771
20645477 70 18272657796615859206
21033648 29 17822010887440382717
21033650 10 15266246711652627106
21150785 3 18130498713393648327
21452121 103 18114456791088481242
220451 1 16774080661727788903
221357 26 18341895147523132724
22289505 5 18411978027467878636
22849339 104 15769208487789572797
23402655 69 18059855077802003166
23557571 272 17168149975265692319
23559900 14 17168712903385970450
2916195 48 18113334232571307713
29717793 49 17203334360165358574
300161 21 17489863830320062979
3004659 81 16486982743803003318
341906 21 16588020182635305053
34797466 226 18412829088428015991
3545911 37 18409452504766008178
42630746 31 18272370858962578054
4325135 7 18341330102279584463
449060 50 18408888446964296987
474 4 18340770437691126064
5104073 3 17168704112310303753
5281201 14 18340772516022611876
542803 24 17560802117653131083
543368 44 17775000232670895393
59682541 52 17417268575966838444
6025842 7 18273215262070078126
633830 44 18271530776065086331
7164475 11 17488192487173902344
8272917 22 18131358466408386614
90127 26 18335143029906095717
960060 61 17132114636721093318

>  <PUBCHEM_SHAPE_MULTIPOLES>  (1) 
369.31
14.27
1.83
1.1
8.18
0.31
0.1
5.81
0.9
-3.47
0.18
1.15
-0.03
1.08

>  <PUBCHEM_SHAPE_SELFOVERLAP>  (1) 
783.349

>  <PUBCHEM_SHAPE_VOLUME>  (1) 
206

>  <PUBCHEM_COORDINATE_TYPE>  (1) 
2
5
10

$$$$
