46099
     RDKit          3D

 17 17  0  0  1  0  0  0  0  0999 V2000
    1.3534    0.4582   -0.9280 O   0  0  0  0  0  0  0  0  0  0  0  0
    2.1110    1.2018    1.1406 O   0  0  0  0  0  0  0  0  0  0  0  0
   -1.0406   -2.5278   -0.2906 N   0  0  0  0  0  0  0  0  0  0  0  0
    3.5893    0.3486   -0.4307 N   0  0  0  0  0  0  0  0  0  0  0  0
   -0.2369   -1.5140    0.3913 C   0  0  0  0  0  0  0  0  0  0  0  0
   -0.7381   -0.1152    0.0922 C   0  0  0  0  0  0  0  0  0  0  0  0
   -0.2130   -1.7983    1.8949 C   0  0  0  0  0  0  0  0  0  0  0  0
    0.0865    0.7896   -0.5523 C   0  0  0  0  0  0  0  0  0  0  0  0
   -2.0245    0.2210    0.4761 C   0  0  0  0  0  0  0  0  0  0  0  0
   -2.5013    1.5038    0.2065 C   0  0  0  0  0  0  0  0  0  0  0  0
   -0.5383   -3.8674    0.0130 C   0  0  0  0  0  0  0  0  0  0  0  0
   -1.0380   -2.2961   -1.7345 C   0  0  0  0  0  0  0  0  0  0  0  0
   -0.3906    2.0724   -0.8220 C   0  0  0  0  0  0  0  0  0  0  0  0
   -1.6844    2.4295   -0.4424 C   0  0  0  0  0  0  0  0  0  0  0  0
   -3.8844    1.8869    0.6120 C   0  0  0  0  0  0  0  0  0  0  0  0
    2.3445    0.7151    0.0382 C   0  0  0  0  0  0  0  0  0  0  0  0
    4.8053    0.4921    0.3356 C   0  0  0  0  0  0  0  0  0  0  0  0
  1  8  1  0
  1 16  1  0
  2 16  2  0
  3  5  1  0
  3 11  1  0
  3 12  1  0
  4 16  1  0
  4 17  1  0
  5  6  1  0
  5  7  1  0
  6  8  2  0
  6  9  1  0
  8 13  1  0
  9 10  2  0
 10 14  1  0
 10 15  1  0
 13 14  2  0
M  END
>  <PUBCHEM_COMPOUND_CID>  (1) 
46099

>  <PUBCHEM_CONFORMER_RMSD>  (1) 
0.6

>  <PUBCHEM_CONFORMER_DIVERSEORDER>  (1) 
1
65
106
104
37
58
21
43
15
71
103
52
14
11
56
32
85
90
67
94
42
45
35
108
36
99
28
83
60
101
74
48
61
25
105
12
102
100
109
49
80
29
111
51
72
78
34
55
47
62
84
33
112
9
22
31
53
18
89
107
39
96
50
19
95
82
73
24
30
91
17
5
75
63
76
92
57
97
77
38
10
54
16
40
70
46
23
88
98
68
7
41
3
69
93
59
110
87
86
8
64
6
79
44
13
81
4
2
66
26
27
20

>  <PUBCHEM_MMFF94_PARTIAL_CHARGES>  (1) 
20
1 -0.23
10 -0.14
11 0.27
12 0.27
13 -0.15
14 -0.15
15 0.14
16 0.78
17 0.3
2 -0.57
22 0.15
29 0.15
3 -0.81
30 0.15
34 0.37
4 -0.73
5 0.41
6 -0.14
8 0.08
9 -0.15

>  <PUBCHEM_EFFECTIVE_ROTOR_COUNT>  (1) 
5

>  <PUBCHEM_PHARMACOPHORE_FEATURES>  (1) 
4
1 2 acceptor
1 3 cation
1 4 donor
6 6 8 9 10 13 14 rings

>  <PUBCHEM_HEAVY_ATOM_COUNT>  (1) 
17

>  <PUBCHEM_ATOM_DEF_STEREO_COUNT>  (1) 
0

>  <PUBCHEM_ATOM_UDEF_STEREO_COUNT>  (1) 
1

>  <PUBCHEM_BOND_DEF_STEREO_COUNT>  (1) 
0

>  <PUBCHEM_BOND_UDEF_STEREO_COUNT>  (1) 
0

>  <PUBCHEM_ISOTOPIC_ATOM_COUNT>  (1) 
0

>  <PUBCHEM_COMPONENT_COUNT>  (1) 
1

>  <PUBCHEM_CACTVS_TAUTO_COUNT>  (1) 
2

>  <PUBCHEM_CONFORMER_ID>  (1) 
0000B41300000001

>  <PUBCHEM_MMFF94_ENERGY>  (1) 
49.4156

>  <PUBCHEM_FEATURE_SELFOVERLAP>  (1) 
20.297

>  <PUBCHEM_SHAPE_FINGERPRINT>  (1) 
1 1 18195248802091133991
10922049 32 18339649927482917073
11265709 11 17834113426359387614
11322862 65 18412268315638138998
11578080 2 16768737245385151283
12035759 4 18122874613319223359
12423570 1 13345450110627839413
12553582 1 17616267204997081758
12592029 89 18122913027221764882
13004483 165 17767951392353117870
13083527 12 17755841053746804667
14648413 74 17400639320888688013
15042514 8 18335146430998143331
15309172 13 18336549317609541873
15775835 57 18337954489201064464
15906896 17 18188786070375093267
16945 1 18267314316254438551
20524608 308 18342739654178559798
20645476 183 17097243672785906644
20645477 70 17902789666403508397
20711985 344 18196919183587042690
20871998 184 18337403736891109212
20905425 154 17542231155284481246
21501502 16 18193839469161962220
21524375 3 18336548222429486545
23388829 49 17117197841561244693
23402539 116 18271236235708008967
23419403 2 17408860541075643447
23558518 356 18046623675332988704
23559900 14 18272090488272477864
23598288 3 17899160439895520246
23728640 28 18408603690812212890
257057 1 17691403435417920071
2748010 2 18192738698939528239
3250762 1 17913199055561592048
43471831 8 18190463757546471137
4663303 62 17834116342652419349
6338986 31 17619908795681251814
69090 78 18413667998098017244
7364860 26 17835804097412067221
81228 2 18122045757381495913
81539 233 18116999879805431917
84936 31 17125058873137788999

>  <PUBCHEM_SHAPE_MULTIPOLES>  (1) 
328.15
5.24
3.68
1.25
5.2
3.99
-0.08
-4.66
-1.01
-1.68
0.46
-0.1
0.6
-0.22

>  <PUBCHEM_SHAPE_SELFOVERLAP>  (1) 
668.74

>  <PUBCHEM_SHAPE_VOLUME>  (1) 
191.2

>  <PUBCHEM_COORDINATE_TYPE>  (1) 
2
5
10

$$$$
