46095
     RDKit          3D

 16 16  0  0  0  0  0  0  0  0999 V2000
    2.4851   -0.1955    0.8887 O   0  0  0  0  0  0  0  0  0  0  0  0
    2.6150    0.7622   -1.2260 O   0  0  0  0  0  0  0  0  0  0  0  0
   -4.1003    1.3249   -0.4599 N   0  0  0  0  0  0  0  0  0  0  0  0
    4.2242    1.2131    0.3831 N   0  0  0  0  0  0  0  0  0  0  0  0
   -2.3869   -0.1955    0.5075 C   0  0  0  0  0  0  0  0  0  0  0  0
   -2.8159    0.6614   -0.6811 C   0  0  0  0  0  0  0  0  0  0  0  0
   -1.0495   -0.8627    0.2996 C   0  0  0  0  0  0  0  0  0  0  0  0
    0.1064   -0.2079    0.6954 C   0  0  0  0  0  0  0  0  0  0  0  0
   -1.0014   -2.1198   -0.2825 C   0  0  0  0  0  0  0  0  0  0  0  0
   -4.0230    2.2153    0.6977 C   0  0  0  0  0  0  0  0  0  0  0  0
   -5.1614    0.3359   -0.2741 C   0  0  0  0  0  0  0  0  0  0  0  0
    1.3421   -0.8259    0.5038 C   0  0  0  0  0  0  0  0  0  0  0  0
    0.2345   -2.7375   -0.4745 C   0  0  0  0  0  0  0  0  0  0  0  0
    1.4063   -2.0905   -0.0813 C   0  0  0  0  0  0  0  0  0  0  0  0
    3.0758    0.6182   -0.0974 C   0  0  0  0  0  0  0  0  0  0  0  0
    5.0491    2.1044   -0.3989 C   0  0  0  0  0  0  0  0  0  0  0  0
  1 12  1  0
  1 15  1  0
  2 15  2  0
  3  6  1  0
  3 10  1  0
  3 11  1  0
  4 15  1  0
  4 16  1  0
  5  6  1  0
  5  7  1  0
  7  8  2  0
  7  9  1  0
  8 12  1  0
  9 13  2  0
 12 14  2  0
 13 14  1  0
M  END
>  <PUBCHEM_COMPOUND_CID>  (1) 
46095

>  <PUBCHEM_CONFORMER_RMSD>  (1) 
0.8

>  <PUBCHEM_CONFORMER_DIVERSEORDER>  (1) 
1
69
48
31
4
72
75
63
54
27
79
46
36
37
61
50
21
32
33
64
62
16
23
47
13
60
85
20
90
70
51
80
52
92
44
38
3
67
19
87
83
88
57
42
26
86
10
8
73
49
39
28
12
7
9
68
34
25
41
15
81
18
59
11
22
78
30
2
55
91
40
35
58
5
14
43
74
6
65
56
24
53
89
76
82
84
77
17
45
66
71
29

>  <PUBCHEM_MMFF94_PARTIAL_CHARGES>  (1) 
21
1 -0.23
10 0.27
11 0.27
12 0.08
13 -0.15
14 -0.15
15 0.78
16 0.3
2 -0.57
21 0.15
22 0.15
29 0.15
3 -0.81
30 0.15
31 0.37
4 -0.73
5 0.14
6 0.27
7 -0.14
8 -0.15
9 -0.15

>  <PUBCHEM_EFFECTIVE_ROTOR_COUNT>  (1) 
6

>  <PUBCHEM_PHARMACOPHORE_FEATURES>  (1) 
4
1 2 acceptor
1 3 cation
1 4 donor
6 7 8 9 12 13 14 rings

>  <PUBCHEM_HEAVY_ATOM_COUNT>  (1) 
16

>  <PUBCHEM_ATOM_DEF_STEREO_COUNT>  (1) 
0

>  <PUBCHEM_ATOM_UDEF_STEREO_COUNT>  (1) 
0

>  <PUBCHEM_BOND_DEF_STEREO_COUNT>  (1) 
0

>  <PUBCHEM_BOND_UDEF_STEREO_COUNT>  (1) 
0

>  <PUBCHEM_ISOTOPIC_ATOM_COUNT>  (1) 
0

>  <PUBCHEM_COMPONENT_COUNT>  (1) 
1

>  <PUBCHEM_CACTVS_TAUTO_COUNT>  (1) 
2

>  <PUBCHEM_CONFORMER_ID>  (1) 
0000B40F00000001

>  <PUBCHEM_MMFF94_ENERGY>  (1) 
42.0564

>  <PUBCHEM_FEATURE_SELFOVERLAP>  (1) 
20.297

>  <PUBCHEM_SHAPE_FINGERPRINT>  (1) 
11796584 16 12751232580427524373
122479 349 18187648045849206170
12363563 72 9079116682537214792
12390115 104 18340222876125458865
12500047 106 18270962483351410958
12633257 1 15357980117962350196
14123255 352 18334576884238939668
14123255 52 18411138060592162248
14415576 193 18268709407626600591
14774955 27 18334851702137505173
14897335 6 18411133636601988490
15188451 53 13912614904773420833
15342168 16 18409448042859730565
15422964 175 10809607200055551456
15885798 251 9007060179790322991
17134986 127 18411704279200481286
1741750 31 18411418444626041946
17539 30 17697588154186630918
17834072 32 18337674234385598692
1798214 55 18409732854509052388
18186145 218 16916775293459647619
18222031 100 12035735292730572611
18785283 64 18263078825734748850
19784866 34 18342178847340050889
204376 136 18410573993931445787
20645477 56 18127140881817428026
20671657 1 18266179426749489039
20871999 31 18058725960711435463
21250096 35 9439403523430088877
21499 59 18412822469567076943
21524375 3 18334290976665854659
22485316 2 9222932786797882595
2255824 54 18053382098431403855
22620623 9 16915646197976175215
23402539 116 18201714098504426964
23557571 272 18127980912874612398
23590187 49 18409447015818974348
25 1 18343016670815738987
298252 57 18410291445144489202
351380 3 10879996865019323165
394222 165 18335415716868497546
474 4 18337107852763376761
57096353 35 17845353498071020781
58051976 378 18413669128175660623
59345606 38 18408885161135045445
6327066 14 18335415811415975260
633830 44 18199186183785594503
76465 3 8862651392140058049
7808743 9 18337952419332880160
81539 233 18335697200624961443

>  <PUBCHEM_SHAPE_MULTIPOLES>  (1) 
307.57
9.48
2.67
0.89
0.84
0.82
-0.03
-9.5
-0.98
-0.63
-0.26
-0.06
-0.11
-0.48

>  <PUBCHEM_SHAPE_SELFOVERLAP>  (1) 
620.283

>  <PUBCHEM_SHAPE_VOLUME>  (1) 
179.9

>  <PUBCHEM_COORDINATE_TYPE>  (1) 
2
5
10

$$$$
