46107
     RDKit          3D

 14 14  0  0  0  0  0  0  0  0999 V2000
    1.6449    0.2821   -0.9346 O   0  0  0  0  0  0  0  0  0  0  0  0
    2.2187   -0.2797    1.2474 O   0  0  0  0  0  0  0  0  0  0  0  0
   -2.8989   -1.0022    0.0138 N   0  0  0  0  0  0  0  0  0  0  0  0
    3.7595   -0.4806   -0.4754 N   0  0  0  0  0  0  0  0  0  0  0  0
   -1.8828   -0.0246   -0.0147 C   0  0  0  0  0  0  0  0  0  0  0  0
   -0.6058   -0.3589   -0.4658 C   0  0  0  0  0  0  0  0  0  0  0  0
   -2.1552    1.2769    0.4073 C   0  0  0  0  0  0  0  0  0  0  0  0
    0.3990    0.6082   -0.4946 C   0  0  0  0  0  0  0  0  0  0  0  0
   -4.2867   -0.6238   -0.1634 C   0  0  0  0  0  0  0  0  0  0  0  0
   -2.5672   -2.4000    0.2067 C   0  0  0  0  0  0  0  0  0  0  0  0
   -1.1502    2.2438    0.3787 C   0  0  0  0  0  0  0  0  0  0  0  0
    0.1270    1.9095   -0.0722 C   0  0  0  0  0  0  0  0  0  0  0  0
    2.5265   -0.1759    0.0637 C   0  0  0  0  0  0  0  0  0  0  0  0
    4.8712   -0.9749    0.3031 C   0  0  0  0  0  0  0  0  0  0  0  0
  1  8  1  0
  1 13  1  0
  2 13  2  0
  3  5  1  0
  3  9  1  0
  3 10  1  0
  4 13  1  0
  4 14  1  0
  5  6  2  0
  5  7  1  0
  6  8  1  0
  7 11  2  0
  8 12  2  0
 11 12  1  0
M  END
>  <PUBCHEM_COMPOUND_CID>  (1) 
46107

>  <PUBCHEM_CONFORMER_RMSD>  (1) 
0.6

>  <PUBCHEM_CONFORMER_DIVERSEORDER>  (1) 
1
31
58
52
55
26
12
19
24
41
32
43
37
66
13
38
18
57
51
63
6
30
5
48
21
54
40
14
44
11
10
20
46
27
22
65
59
61
17
33
39
53
42
56
47
49
8
64
45
36
62
25
9
50
23
60
29
28
7
34
35
3
16
15
2
4

>  <PUBCHEM_MMFF94_PARTIAL_CHARGES>  (1) 
19
1 -0.23
10 0.37
11 -0.15
12 -0.15
13 0.78
14 0.3
15 0.15
16 0.15
2 -0.57
23 0.15
24 0.15
25 0.37
3 -0.84
4 -0.73
5 0.1
6 -0.15
7 -0.15
8 0.08
9 0.37

>  <PUBCHEM_EFFECTIVE_ROTOR_COUNT>  (1) 
4

>  <PUBCHEM_PHARMACOPHORE_FEATURES>  (1) 
4
1 2 acceptor
1 3 cation
1 4 donor
6 5 6 7 8 11 12 rings

>  <PUBCHEM_HEAVY_ATOM_COUNT>  (1) 
14

>  <PUBCHEM_ATOM_DEF_STEREO_COUNT>  (1) 
0

>  <PUBCHEM_ATOM_UDEF_STEREO_COUNT>  (1) 
0

>  <PUBCHEM_BOND_DEF_STEREO_COUNT>  (1) 
0

>  <PUBCHEM_BOND_UDEF_STEREO_COUNT>  (1) 
0

>  <PUBCHEM_ISOTOPIC_ATOM_COUNT>  (1) 
0

>  <PUBCHEM_COMPONENT_COUNT>  (1) 
1

>  <PUBCHEM_CACTVS_TAUTO_COUNT>  (1) 
2

>  <PUBCHEM_CONFORMER_ID>  (1) 
0000B41B00000001

>  <PUBCHEM_MMFF94_ENERGY>  (1) 
50.5026

>  <PUBCHEM_FEATURE_SELFOVERLAP>  (1) 
20.297

>  <PUBCHEM_SHAPE_FINGERPRINT>  (1) 
10130415 120 18339083795591641201
11046707 91 18334575724634387650
11578080 2 17823113740400358620
124424 183 18408320017117909343
12500047 106 18193832648310589556
14115302 16 18041284360879290447
15375462 189 18113901584618320403
15653759 3 17917989447735403946
16752209 62 18262787493923475789
16945 1 18340498776651597453
17804303 29 18272091586623478392
19422 9 18334582313393612796
200 152 16877941612155270844
20645477 70 17976814608623481647
20671657 53 17894351090015067004
20871998 184 18130788923474145413
21650355 55 18412543180539062840
2297311 6 18130238077524502188
232386 152 18337960085654000151
23402539 116 18272644628709710445
23552423 10 17902236946697870925
23557571 272 18059306366018661172
23559900 14 18411412930304960048
25 1 11819262361022015517
3086196 2 18342455919922541888
43471831 8 18264488386498270946
5493415 88 18267305515908737931
5902787 121 18265331892436770147
7364860 26 18125722537150102880
75552 356 18411420583430103853
81228 2 18199487497079393913
8809292 202 18262522605936824331

>  <PUBCHEM_SHAPE_MULTIPOLES>  (1) 
266.41
7.35
2.06
0.81
5.89
0.26
0.05
-4.38
0.45
-1.6
0.26
0.29
0.02
-0.22

>  <PUBCHEM_SHAPE_SELFOVERLAP>  (1) 
542.175

>  <PUBCHEM_SHAPE_VOLUME>  (1) 
154.4

>  <PUBCHEM_COORDINATE_TYPE>  (1) 
2
5
10

$$$$
