46101
     RDKit          3D

 16 16  0  0  0  0  0  0  0  0999 V2000
   -0.6234   -1.1289    0.9712 O   0  0  0  0  0  0  0  0  0  0  0  0
   -1.3044   -1.0831   -1.2515 O   0  0  0  0  0  0  0  0  0  0  0  0
   -1.2798    2.0606   -0.2079 N   0  0  0  0  0  0  0  0  0  0  0  0
   -2.6885   -1.9452    0.3988 N   0  0  0  0  0  0  0  0  0  0  0  0
   -0.4438    1.7218    0.9432 C   0  0  0  0  0  0  0  0  0  0  0  0
    0.7026    0.8244    0.5592 C   0  0  0  0  0  0  0  0  0  0  0  0
    0.5534   -0.5556    0.5935 C   0  0  0  0  0  0  0  0  0  0  0  0
    1.9046    1.4024    0.1729 C   0  0  0  0  0  0  0  0  0  0  0  0
    2.8374   -0.8020   -0.1545 C   0  0  0  0  0  0  0  0  0  0  0  0
    1.6256   -1.3725    0.2350 C   0  0  0  0  0  0  0  0  0  0  0  0
    2.9769    0.5856   -0.1856 C   0  0  0  0  0  0  0  0  0  0  0  0
   -0.4917    2.7554   -1.2251 C   0  0  0  0  0  0  0  0  0  0  0  0
   -2.4150    2.8829    0.2092 C   0  0  0  0  0  0  0  0  0  0  0  0
    3.9839   -1.6752   -0.5380 C   0  0  0  0  0  0  0  0  0  0  0  0
   -1.5312   -1.3651   -0.0786 C   0  0  0  0  0  0  0  0  0  0  0  0
   -3.8066   -2.3056   -0.4417 C   0  0  0  0  0  0  0  0  0  0  0  0
  1  7  1  0
  1 15  1  0
  2 15  2  0
  3  5  1  0
  3 12  1  0
  3 13  1  0
  4 15  1  0
  4 16  1  0
  5  6  1  0
  6  7  2  0
  6  8  1  0
  7 10  1  0
  8 11  2  0
  9 10  2  0
  9 11  1  0
  9 14  1  0
M  END
>  <PUBCHEM_COMPOUND_CID>  (1) 
46101

>  <PUBCHEM_CONFORMER_RMSD>  (1) 
0.6

>  <PUBCHEM_CONFORMER_DIVERSEORDER>  (1) 
4
64
70
30
74
5
76
62
17
60
43
67
56
65
63
22
53
59
37
71
33
15
51
34
24
68
72
39
57
14
78
75
48
7
3
49
73
58
13
46
47
25
41
61
54
32
29
40
69
45
16
50
42
12
44
35
20
55
38
11
19
6
66
31
26
52
23
77
36
27
1
10
28
8
9
18
2
21

>  <PUBCHEM_MMFF94_PARTIAL_CHARGES>  (1) 
20
1 -0.23
10 -0.15
11 -0.15
12 0.27
13 0.27
14 0.14
15 0.78
16 0.3
19 0.15
2 -0.57
20 0.15
21 0.15
3 -0.81
31 0.37
4 -0.73
5 0.41
6 -0.14
7 0.08
8 -0.15
9 -0.14

>  <PUBCHEM_EFFECTIVE_ROTOR_COUNT>  (1) 
5

>  <PUBCHEM_PHARMACOPHORE_FEATURES>  (1) 
4
1 2 acceptor
1 3 cation
1 4 donor
6 6 7 8 9 10 11 rings

>  <PUBCHEM_HEAVY_ATOM_COUNT>  (1) 
16

>  <PUBCHEM_ATOM_DEF_STEREO_COUNT>  (1) 
0

>  <PUBCHEM_ATOM_UDEF_STEREO_COUNT>  (1) 
0

>  <PUBCHEM_BOND_DEF_STEREO_COUNT>  (1) 
0

>  <PUBCHEM_BOND_UDEF_STEREO_COUNT>  (1) 
0

>  <PUBCHEM_ISOTOPIC_ATOM_COUNT>  (1) 
0

>  <PUBCHEM_COMPONENT_COUNT>  (1) 
1

>  <PUBCHEM_CACTVS_TAUTO_COUNT>  (1) 
2

>  <PUBCHEM_CONFORMER_ID>  (1) 
0000B41500000004

>  <PUBCHEM_MMFF94_ENERGY>  (1) 
45.2312

>  <PUBCHEM_FEATURE_SELFOVERLAP>  (1) 
20.297

>  <PUBCHEM_SHAPE_FINGERPRINT>  (1) 
1 1 17471572131494823572
104564 63 18413112779175438493
10756046 5 18337403660220105676
11206711 2 18337404781143188230
11578080 2 17560784555020188345
11680611 10 17970044700434175640
116883 192 18412545418285283991
12138202 97 18050857624002058814
12715332 25 18052822442374273426
13140716 1 18268702828074177336
15490181 7 17971746675630476504
15775835 57 17902237715117390604
161256 15 18270958080514197088
16945 1 18119803617213022912
17357779 13 18268411573150933087
20261772 1 18339942436905871017
20708731 107 17760648466106695895
20871999 31 18339373955024139638
21160774 45 18191301568385690653
21501502 16 18408328770150553524
21524375 3 17756154379631491168
22289505 5 18192412277457281903
22802520 49 18412818092757980044
23402539 116 18265038305705103694
23419403 2 17540766932631042380
23530152 11 17834110849521194425
23559900 14 18055349129798543810
2748010 2 18338784723490347121
3060560 45 17686897215876700341
3250762 1 18271512170050787936
54173680 148 18268432334896468386
68419 9 17606374593611814264
69090 78 18122344580042403368
7364860 26 17617940678794888887
81228 2 18334575767236115849

>  <PUBCHEM_SHAPE_MULTIPOLES>  (1) 
307.57
5.35
3.43
0.97
1.37
1.26
-0.11
-3.49
-0.96
-3.33
-0.5
-0.17
0.18
0.01

>  <PUBCHEM_SHAPE_SELFOVERLAP>  (1) 
625.834

>  <PUBCHEM_SHAPE_VOLUME>  (1) 
180

>  <PUBCHEM_COORDINATE_TYPE>  (1) 
2
5
10

$$$$
