46113
     RDKit          3D

 17 17  0  0  0  0  0  0  0  0999 V2000
   -3.4292    0.7148   -0.1221 O   0  0  0  0  0  0  0  0  0  0  0  0
   -3.1144   -1.5629    0.2230 O   0  0  0  0  0  0  0  0  0  0  0  0
    5.0909   -1.0295    0.3422 N   0  0  0  0  0  0  0  0  0  0  0  0
   -5.2489   -0.6735    0.0363 N   0  0  0  0  0  0  0  0  0  0  0  0
    2.9002    0.0515    0.1414 C   0  0  0  0  0  0  0  0  0  0  0  0
    2.1730    1.3811   -0.0755 C   0  0  0  0  0  0  0  0  0  0  0  0
    4.4158    0.2426    0.1138 C   0  0  0  0  0  0  0  0  0  0  0  0
    0.6764    1.2026   -0.0879 C   0  0  0  0  0  0  0  0  0  0  0  0
    0.0307    0.9450   -1.2878 C   0  0  0  0  0  0  0  0  0  0  0  0
   -0.0310    1.2999    1.1012 C   0  0  0  0  0  0  0  0  0  0  0  0
    6.5435   -0.8479    0.3501 C   0  0  0  0  0  0  0  0  0  0  0  0
    4.7072   -2.0072   -0.6776 C   0  0  0  0  0  0  0  0  0  0  0  0
   -1.3545    0.7809   -1.2991 C   0  0  0  0  0  0  0  0  0  0  0  0
   -1.4161    1.1356    1.0899 C   0  0  0  0  0  0  0  0  0  0  0  0
   -2.0778    0.8761   -0.1103 C   0  0  0  0  0  0  0  0  0  0  0  0
   -3.8710   -0.6095    0.0633 C   0  0  0  0  0  0  0  0  0  0  0  0
   -5.9948   -1.8997    0.1990 C   0  0  0  0  0  0  0  0  0  0  0  0
  1 15  1  0
  1 16  1  0
  2 16  2  0
  3  7  1  0
  3 11  1  0
  3 12  1  0
  4 16  1  0
  4 17  1  0
  5  6  1  0
  5  7  1  0
  6  8  1  0
  8  9  2  0
  8 10  1  0
  9 13  1  0
 10 14  2  0
 13 15  2  0
 14 15  1  0
M  END
>  <PUBCHEM_COMPOUND_CID>  (1) 
46113

>  <PUBCHEM_CONFORMER_RMSD>  (1) 
0.8

>  <PUBCHEM_CONFORMER_DIVERSEORDER>  (1) 
1
40
83
37
17
74
24
81
22
27
79
13
18
34
11
10
82
46
7
77
39
43
2
4
80
63
73
76
42
58
20
57
65
78
50
14
19
66
71
69
8
84
59
21
29
36
55
56
64
72
53
16
45
3
49
48
15
31
9
30
60
68
47
12
25
67
51
28
38
23
44
62
32
5
6
26
61
41
54
70
35
52
75
33

>  <PUBCHEM_MMFF94_PARTIAL_CHARGES>  (1) 
21
1 -0.23
10 -0.15
11 0.27
12 0.27
13 -0.15
14 -0.15
15 0.08
16 0.78
17 0.3
2 -0.57
24 0.15
25 0.15
3 -0.81
32 0.15
33 0.15
34 0.37
4 -0.73
6 0.14
7 0.27
8 -0.14
9 -0.15

>  <PUBCHEM_EFFECTIVE_ROTOR_COUNT>  (1) 
7

>  <PUBCHEM_PHARMACOPHORE_FEATURES>  (1) 
4
1 2 acceptor
1 3 cation
1 4 donor
6 8 9 10 13 14 15 rings

>  <PUBCHEM_HEAVY_ATOM_COUNT>  (1) 
17

>  <PUBCHEM_ATOM_DEF_STEREO_COUNT>  (1) 
0

>  <PUBCHEM_ATOM_UDEF_STEREO_COUNT>  (1) 
0

>  <PUBCHEM_BOND_DEF_STEREO_COUNT>  (1) 
0

>  <PUBCHEM_BOND_UDEF_STEREO_COUNT>  (1) 
0

>  <PUBCHEM_ISOTOPIC_ATOM_COUNT>  (1) 
0

>  <PUBCHEM_COMPONENT_COUNT>  (1) 
1

>  <PUBCHEM_CACTVS_TAUTO_COUNT>  (1) 
2

>  <PUBCHEM_CONFORMER_ID>  (1) 
0000B42100000001

>  <PUBCHEM_MMFF94_ENERGY>  (1) 
40.128

>  <PUBCHEM_FEATURE_SELFOVERLAP>  (1) 
20.297

>  <PUBCHEM_SHAPE_FINGERPRINT>  (1) 
100836 57 10375868593592986778
106641 1 15697993085098230719
11128504 68 15936416641205370670
117890 112 10592045760673220362
11796584 16 18408600353691052427
12596602 18 15626214754224262838
12633257 1 14836112274082924650
12670543 26 15430305919648691261
12916754 54 18334858316144859588
13288520 33 18334857216833185045
13533116 47 18341896345971807376
13551218 46 18343586239583276183
13685833 64 18335704970289189995
14178000 29 18040999569850477213
1420 369 18343025471520252478
14911166 2 15140959577950031157
15209294 21 12751241402047620397
17959699 21 8070020065388678030
18335252 114 7925644271350315162
193927 3 18335996319131931018
19784866 240 18335145297311289405
200 152 18408602548303289760
20374829 77 18040149595985829804
20526848 3 9655578530215892114
20645477 70 18260266386585739788
20871999 31 15574710270492446436
21267235 1 18260834817096785539
21637258 2 18410002260753969419
22224240 67 14908180863400641373
22713019 99 17313384551872144113
23379529 103 16953960931467421035
23402539 116 16081087026897988276
23503953 91 14405178504191906872
23559900 14 18336540641828462169
26918003 58 18272929397504557960
2916195 48 10879996861156411231
293599 30 9079117756315812537
3286 77 18409449202253188444
33382 64 18410858762968802658
351380 3 18408319995031448402
4028521 119 11530489917490954862
4072396 5 16917076563993476653
4325135 7 18041000674722279812
465052 167 18271249412203423287
5104073 3 17631450056470334402
559249 180 18408884006331947417
56616090 284 16660368090513355641
57724786 102 12391209631706886458
58807428 26 15554448491880570292
59682541 35 18271514387123688434
69474 34 15051727607790503817
76465 3 18408886252046241069
77188 2 18409730698494323589

>  <PUBCHEM_SHAPE_MULTIPOLES>  (1) 
328.15
13.94
1.89
1.01
5.29
0.7
0.13
11.63
-1.45
-0.31
-0.02
-0.07
-0.28
0.38

>  <PUBCHEM_SHAPE_SELFOVERLAP>  (1) 
657.624

>  <PUBCHEM_SHAPE_VOLUME>  (1) 
193.7

>  <PUBCHEM_COORDINATE_TYPE>  (1) 
2
5
10

$$$$
