46117
     RDKit          3D

 15 15  0  0  0  0  0  0  0  0999 V2000
   -2.3583    0.8761   -0.3753 O   0  0  0  0  0  0  0  0  0  0  0  0
   -2.5090   -1.2801    0.4813 O   0  0  0  0  0  0  0  0  0  0  0  0
    3.7826   -0.6693   -0.2505 N   0  0  0  0  0  0  0  0  0  0  0  0
   -4.4140   -0.1182   -0.1538 N   0  0  0  0  0  0  0  0  0  0  0  0
    3.2452    0.6050    0.2252 C   0  0  0  0  0  0  0  0  0  0  0  0
    1.7499    0.6779    0.0652 C   0  0  0  0  0  0  0  0  0  0  0  0
    1.1692    0.2587   -1.1235 C   0  0  0  0  0  0  0  0  0  0  0  0
    0.9737    1.1622    1.1085 C   0  0  0  0  0  0  0  0  0  0  0  0
    3.1997   -1.7815    0.4992 C   0  0  0  0  0  0  0  0  0  0  0  0
    5.2404   -0.6840   -0.1359 C   0  0  0  0  0  0  0  0  0  0  0  0
   -0.2162    0.3253   -1.2718 C   0  0  0  0  0  0  0  0  0  0  0  0
   -0.4117    1.2289    0.9603 C   0  0  0  0  0  0  0  0  0  0  0  0
   -1.0066    0.8105   -0.2301 C   0  0  0  0  0  0  0  0  0  0  0  0
   -3.0560   -0.2781    0.0303 C   0  0  0  0  0  0  0  0  0  0  0  0
   -5.3888   -1.1334    0.1712 C   0  0  0  0  0  0  0  0  0  0  0  0
  1 13  1  0
  1 14  1  0
  2 14  2  0
  3  5  1  0
  3  9  1  0
  3 10  1  0
  4 14  1  0
  4 15  1  0
  5  6  1  0
  6  7  2  0
  6  8  1  0
  7 11  1  0
  8 12  2  0
 11 13  2  0
 12 13  1  0
M  END
>  <PUBCHEM_COMPOUND_CID>  (1) 
46117

>  <PUBCHEM_CONFORMER_RMSD>  (1) 
0.6

>  <PUBCHEM_CONFORMER_DIVERSEORDER>  (1) 
1
48
54
17
28
21
50
33
60
40
13
23
5
29
9
25
4
30
44
46
36
62
63
57
34
55
65
52
6
47
37
32
8
61
53
31
7
39
15
56
2
11
14
27
64
43
24
26
22
16
45
3
58
59
49
35
10
20
38
18
19
42
41
12
51

>  <PUBCHEM_MMFF94_PARTIAL_CHARGES>  (1) 
20
1 -0.23
10 0.27
11 -0.15
12 -0.15
13 0.08
14 0.78
15 0.3
18 0.15
19 0.15
2 -0.57
26 0.15
27 0.15
28 0.37
3 -0.81
4 -0.73
5 0.41
6 -0.14
7 -0.15
8 -0.15
9 0.27

>  <PUBCHEM_EFFECTIVE_ROTOR_COUNT>  (1) 
5

>  <PUBCHEM_PHARMACOPHORE_FEATURES>  (1) 
4
1 2 acceptor
1 3 cation
1 4 donor
6 6 7 8 11 12 13 rings

>  <PUBCHEM_HEAVY_ATOM_COUNT>  (1) 
15

>  <PUBCHEM_ATOM_DEF_STEREO_COUNT>  (1) 
0

>  <PUBCHEM_ATOM_UDEF_STEREO_COUNT>  (1) 
0

>  <PUBCHEM_BOND_DEF_STEREO_COUNT>  (1) 
0

>  <PUBCHEM_BOND_UDEF_STEREO_COUNT>  (1) 
0

>  <PUBCHEM_ISOTOPIC_ATOM_COUNT>  (1) 
0

>  <PUBCHEM_COMPONENT_COUNT>  (1) 
1

>  <PUBCHEM_CACTVS_TAUTO_COUNT>  (1) 
2

>  <PUBCHEM_CONFORMER_ID>  (1) 
0000B42500000001

>  <PUBCHEM_MMFF94_ENERGY>  (1) 
42.1488

>  <PUBCHEM_FEATURE_SELFOVERLAP>  (1) 
20.297

>  <PUBCHEM_SHAPE_FINGERPRINT>  (1) 
10465860 250 18273494559276446561
106641 1 16630233809885906722
11031198 65 12829480454910082585
11543360 7 17676777530277452428
11769659 78 18334852784310761090
11796584 16 18409166593589643383
12251169 10 16774077388255684725
124424 183 18202841041824623781
12644460 14 17560233755946348720
12670543 26 14346066491260692018
12670546 177 15502668129931614838
13288520 33 18335140868967807812
13675066 3 14764635217810568533
13760787 5 17632286904418980652
14115302 16 18187935022715952607
14252887 29 17417818318436647534
14350558 41 18334299755700151606
14911166 2 14707212123427517444
14943859 89 9583518715605720405
14993402 34 16153427255063127553
15209294 21 13686300157951817450
15375462 189 18201992227369259150
15477762 27 18186803569701252364
16945 1 16487251058715283180
17834072 8 17676198070875888303
18186145 218 14851888105325131533
187816 3 14923946743045425932
19026448 4 18334284366679823516
19784866 240 18335992994784922358
200 152 18410292493385222520
20645477 70 18412826897562308222
20871998 22 17203062784851063844
20871999 31 17240476984006609525
21119208 17 17022620892513947503
21256008 61 17167864175135374156
212847 35 12319735878110828106
21293036 1 14129060313576793276
21637258 2 18260818302631125106
22485316 2 18412822521048480261
22713019 99 16805606970877426768
22854114 59 14979960263342144637
22926399 37 12829208862552724407
231179 274 9871754585036265354
23402539 116 17774999090594553861
23402655 69 13262667154497191191
23559900 14 18262514909070625744
26918003 58 18342737407673209202
2871803 45 17895192173571717490
3060560 45 15502370157879681194
33382 64 18333735701861319627
4047638 21 9871755706043893612
42 15 18412827988647336679
465052 167 18060142071600699375
4990 188 16081089281412790571
76465 3 18130215064868456983
83771 10 18411981360098489904

>  <PUBCHEM_SHAPE_MULTIPOLES>  (1) 
286.99
9.71
1.42
1.01
3.81
0.29
-0.1
5.4
0.47
-0.29
0.36
-0.14
-0.17
0.14

>  <PUBCHEM_SHAPE_SELFOVERLAP>  (1) 
582.217

>  <PUBCHEM_SHAPE_VOLUME>  (1) 
167.6

>  <PUBCHEM_COORDINATE_TYPE>  (1) 
2
5
10

$$$$
