46129
     RDKit          3D

 20 20  0  0  0  0  0  0  0  0999 V2000
   -4.7473   -0.2916    0.3986 O   0  0  0  0  0  0  0  0  0  0  0  0
    2.9633   -0.3690    0.0167 O   0  0  0  0  0  0  0  0  0  0  0  0
    1.5302    1.3346    0.5404 O   0  0  0  0  0  0  0  0  0  0  0  0
    6.5154    0.6115    0.0968 N   0  0  0  0  0  0  0  0  0  0  0  0
    0.7620   -0.8097   -0.0004 N   0  0  0  0  0  0  0  0  0  0  0  0
    5.3513   -0.2589   -0.0645 C   0  0  0  0  0  0  0  0  0  0  0  0
   -1.4554   -1.7871   -0.1595 C   0  0  0  0  0  0  0  0  0  0  0  0
   -0.6434   -0.6925    0.0959 C   0  0  0  0  0  0  0  0  0  0  0  0
    4.0661    0.5088    0.2011 C   0  0  0  0  0  0  0  0  0  0  0  0
   -3.3965   -0.4238    0.2995 C   0  0  0  0  0  0  0  0  0  0  0  0
   -2.8400   -1.6522   -0.0570 C   0  0  0  0  0  0  0  0  0  0  0  0
   -1.1837    0.5346    0.4509 C   0  0  0  0  0  0  0  0  0  0  0  0
   -5.2970    0.9931    0.1105 C   0  0  0  0  0  0  0  0  0  0  0  0
   -2.5684    0.6697    0.5533 C   0  0  0  0  0  0  0  0  0  0  0  0
   -6.7073    0.8145   -0.4305 C   0  0  0  0  0  0  0  0  0  0  0  0
   -0.8866   -3.1145   -0.5436 C   0  0  0  0  0  0  0  0  0  0  0  0
    7.7494   -0.1356   -0.1428 C   0  0  0  0  0  0  0  0  0  0  0  0
    6.4269    1.7564   -0.8088 C   0  0  0  0  0  0  0  0  0  0  0  0
    1.7140    0.1670    0.2185 C   0  0  0  0  0  0  0  0  0  0  0  0
   -7.3528    2.1447   -0.7750 C   0  0  0  0  0  0  0  0  0  0  0  0
  1 10  1  0
  1 13  1  0
  2  9  1  0
  2 19  1  0
  3 19  2  0
  4  6  1  0
  4 17  1  0
  4 18  1  0
  5  8  1  0
  5 19  1  0
  6  9  1  0
  7  8  2  0
  7 11  1  0
  7 16  1  0
  8 12  1  0
 10 11  2  0
 10 14  1  0
 12 14  2  0
 13 15  1  0
 15 20  1  0
M  END
>  <PUBCHEM_COMPOUND_CID>  (1) 
46129

>  <PUBCHEM_CONFORMER_RMSD>  (1) 
0.8

>  <PUBCHEM_CONFORMER_DIVERSEORDER>  (1) 
1
151
246
72
217
80
173
115
94
211
152
121
181
52
177
135
79
174
195
87
164
186
245
112
150
178
149
176
253
143
240
171
89
82
165
91
71
230
258
142
22
147
130
180
125
259
219
110
138
197
134
234
238
26
232
104
159
31
207
40
229
192
157
182
120
63
256
209
231
97
62
118
111
242
191
163
7
237
153
166
156
43
247
254
179
144
13
235
221
220
96
233
39
223
128
236
33
114
160
92
188
124
53
90
170
141
222
126
47
74
244
81
167
137
250
107
205
212
122
200
194
88
113
116
168
84
14
210
23
226
42
12
243
162
131
102
202
68
65
136
98
100
183
161
187
55
146
185
248
78
214
38
85
117
154
4
252
66
5
145
257
175
75
239
129
196
49
139
15
73
227
56
213
36
189
99
127
172
95
103
148
20
101
9
133
193
34
76
44
215
106
37
203
24
199
119
8
123
21
105
155
67
158
58
30
41
132
27
204
224
86
190
50
2
108
45
3
251
83
218
28
25
206
16
60
77
69
54
61
169
57
225
208
46
35
241
109
64
29
59
228
201
140
19
255
260
249
17
48
93
51
32
184
10
18
216
6
198
70
11

>  <PUBCHEM_MMFF94_PARTIAL_CHARGES>  (1) 
22
1 -0.36
10 0.08
11 -0.15
12 -0.15
13 0.28
14 -0.15
16 0.14
17 0.27
18 0.27
19 0.78
2 -0.43
25 0.15
26 0.15
29 0.15
3 -0.57
32 0.37
4 -0.81
5 -0.55
6 0.27
7 -0.14
8 0.12
9 0.28

>  <PUBCHEM_EFFECTIVE_ROTOR_COUNT>  (1) 
9

>  <PUBCHEM_PHARMACOPHORE_FEATURES>  (1) 
6
1 1 acceptor
1 20 hydrophobe
1 3 acceptor
1 4 cation
1 5 donor
6 7 8 10 11 12 14 rings

>  <PUBCHEM_HEAVY_ATOM_COUNT>  (1) 
20

>  <PUBCHEM_ATOM_DEF_STEREO_COUNT>  (1) 
0

>  <PUBCHEM_ATOM_UDEF_STEREO_COUNT>  (1) 
0

>  <PUBCHEM_BOND_DEF_STEREO_COUNT>  (1) 
0

>  <PUBCHEM_BOND_UDEF_STEREO_COUNT>  (1) 
0

>  <PUBCHEM_ISOTOPIC_ATOM_COUNT>  (1) 
0

>  <PUBCHEM_COMPONENT_COUNT>  (1) 
1

>  <PUBCHEM_CACTVS_TAUTO_COUNT>  (1) 
2

>  <PUBCHEM_CONFORMER_ID>  (1) 
0000B43100000001

>  <PUBCHEM_MMFF94_ENERGY>  (1) 
54.5384

>  <PUBCHEM_FEATURE_SELFOVERLAP>  (1) 
30.446

>  <PUBCHEM_SHAPE_FINGERPRINT>  (1) 
10411042 1 17835239322763287703
10835480 77 17988640857065705520
11315181 36 17417818382898028442
12236239 1 18114463444098298162
125118 31 18113339726125195124
12838862 33 18341314635574804880
13257819 101 17895745198403967807
13533116 47 17489591100440631630
13668630 136 12535634864544119724
14251757 52 18113334232745907224
14251764 18 18113894966300472899
14251764 46 14405183967516823308
14729087 3 18261108556790163565
15048467 5 18260267451505494644
15849732 13 18187367635776458797
17834072 8 18131350816870938320
20281389 69 17967248680766628724
20554085 129 17917131837261656538
20621476 66 18334860523567671357
20621476 8 18408041793373302486
20681677 155 18335419114641191906
21150785 3 14979954774690607344
21267235 1 18268996556208104355
2215653 11 17489593363787546236
22288116 15 17917699250255200287
23402539 116 18131064965438565207
23559900 14 17917142926961816064
28498 318 18340770356619588318
293599 30 18411698785995175939
300161 21 18342455963499916858
3004659 81 18411142433960905694
335352 9 18413669127584875348
3545911 37 18343303678021511266
4073 2 18114749364951982930
4214541 1 18342460391568942554
4463277 17 18334296487404294472
559249 180 18341894129874417846
59682541 35 10665238055169706084
59755656 215 18272091561043617862
59755656 520 18411129251852037751
6328613 192 18409171051597112396

>  <PUBCHEM_SHAPE_MULTIPOLES>  (1) 
384.02
20.1
2.14
0.74
14.58
1.17
0.05
-13.18
3.94
-1.99
0.57
-0.17
-0.11
0.18

>  <PUBCHEM_SHAPE_SELFOVERLAP>  (1) 
767.959

>  <PUBCHEM_SHAPE_VOLUME>  (1) 
228.4

>  <PUBCHEM_COORDINATE_TYPE>  (1) 
2
5
10

$$$$
