46125
     RDKit          3D

 20 20  0  0  0  0  0  0  0  0999 V2000
    2.6086    0.4131    0.8016 O   0  0  0  0  0  0  0  0  0  0  0  0
   -2.8781   -0.1399    0.7363 O   0  0  0  0  0  0  0  0  0  0  0  0
    2.5314    0.9816   -1.4517 O   0  0  0  0  0  0  0  0  0  0  0  0
   -2.8646    0.4412   -1.5150 O   0  0  0  0  0  0  0  0  0  0  0  0
    4.5501    0.9142   -0.3105 N   0  0  0  0  0  0  0  0  0  0  0  0
   -4.8520   -0.0596   -0.4280 N   0  0  0  0  0  0  0  0  0  0  0  0
    1.5213   -2.1504    0.1626 C   0  0  0  0  0  0  0  0  0  0  0  0
    0.6725   -0.9626    0.4762 C   0  0  0  0  0  0  0  0  0  0  0  0
    1.2537    0.2678    0.7826 C   0  0  0  0  0  0  0  0  0  0  0  0
   -0.7162   -1.0938    0.4615 C   0  0  0  0  0  0  0  0  0  0  0  0
    1.2943   -2.6729   -1.2679 C   0  0  0  0  0  0  0  0  0  0  0  0
    1.3277   -3.2942    1.1751 C   0  0  0  0  0  0  0  0  0  0  0  0
   -0.9424    1.2360    1.0600 C   0  0  0  0  0  0  0  0  0  0  0  0
   -1.5235    0.0055    0.7535 C   0  0  0  0  0  0  0  0  0  0  0  0
    0.4463    1.3670    1.0745 C   0  0  0  0  0  0  0  0  0  0  0  0
   -1.7912    2.4233    1.3751 C   0  0  0  0  0  0  0  0  0  0  0  0
    3.1808    0.7925   -0.4274 C   0  0  0  0  0  0  0  0  0  0  0  0
   -3.4854    0.1121   -0.5085 C   0  0  0  0  0  0  0  0  0  0  0  0
    5.4145    1.2913   -1.4044 C   0  0  0  0  0  0  0  0  0  0  0  0
   -5.7476    0.1279   -1.5456 C   0  0  0  0  0  0  0  0  0  0  0  0
  1  9  1  0
  1 17  1  0
  2 14  1  0
  2 18  1  0
  3 17  2  0
  4 18  2  0
  5 17  1  0
  5 19  1  0
  6 18  1  0
  6 20  1  0
  7  8  1  0
  7 11  1  0
  7 12  1  0
  8  9  2  0
  8 10  1  0
  9 15  1  0
 10 14  2  0
 13 14  1  0
 13 15  2  0
 13 16  1  0
M  END
>  <PUBCHEM_COMPOUND_CID>  (1) 
46125

>  <PUBCHEM_CONFORMER_RMSD>  (1) 
0.8

>  <PUBCHEM_CONFORMER_DIVERSEORDER>  (1) 
1
61
36
52
59
27
73
60
71
70
55
58
24
50
11
39
53
26
68
72
64
9
34
46
23
66
42
38
22
51
44
35
69
74
63
21
75
18
2
76
15
48
33
65
25
67
57
43
10
40
6
4
45
47
32
28
54
16
56
7
5
29
17
8
31
19
20
37
49
3
30
13
12
14
41
62

>  <PUBCHEM_MMFF94_PARTIAL_CHARGES>  (1) 
22
1 -0.23
10 -0.15
13 -0.14
14 0.08
15 -0.15
16 0.14
17 0.78
18 0.78
19 0.3
2 -0.23
20 0.3
22 0.15
29 0.15
3 -0.57
33 0.37
34 0.37
4 -0.57
5 -0.73
6 -0.73
7 0.14
8 -0.14
9 0.08

>  <PUBCHEM_EFFECTIVE_ROTOR_COUNT>  (1) 
7

>  <PUBCHEM_PHARMACOPHORE_FEATURES>  (1) 
6
1 3 acceptor
1 4 acceptor
1 5 donor
1 6 donor
3 7 11 12 hydrophobe
6 8 9 10 13 14 15 rings

>  <PUBCHEM_HEAVY_ATOM_COUNT>  (1) 
20

>  <PUBCHEM_ATOM_DEF_STEREO_COUNT>  (1) 
0

>  <PUBCHEM_ATOM_UDEF_STEREO_COUNT>  (1) 
0

>  <PUBCHEM_BOND_DEF_STEREO_COUNT>  (1) 
0

>  <PUBCHEM_BOND_UDEF_STEREO_COUNT>  (1) 
0

>  <PUBCHEM_ISOTOPIC_ATOM_COUNT>  (1) 
0

>  <PUBCHEM_COMPONENT_COUNT>  (1) 
1

>  <PUBCHEM_CACTVS_TAUTO_COUNT>  (1) 
4

>  <PUBCHEM_CONFORMER_ID>  (1) 
0000B42D00000001

>  <PUBCHEM_MMFF94_ENERGY>  (1) 
51.6836

>  <PUBCHEM_FEATURE_SELFOVERLAP>  (1) 
30.446

>  <PUBCHEM_SHAPE_FINGERPRINT>  (1) 
10756046 5 18055361240387259609
11796584 16 14045752525596709413
12251169 10 7997969072367363337
12553582 1 17631714033618093591
12616999 72 18410844461160229779
12633257 1 12540971979900554116
12730499 353 18334855039611852779
12788726 201 17774726347191514969
13083527 12 18045764716238821642
13149001 5 17984426514368154536
13257819 101 17313373552455598782
133893 2 18117570526398283138
13540713 5 18126851486630964601
13583140 156 17096100211227503568
14181834 199 18191311468496213430
14576447 43 17916850418467147135
14911166 2 18271526489165427121
15163728 17 17531547394387382716
15475509 35 13183016332741267669
16945 1 18272371987810769377
17980427 23 17909812259638050554
19784866 140 17988925556955790893
20645476 183 17896322600606003962
20645477 70 18270108025409824343
20723712 36 11891328738178418959
21501502 16 18126850391382655465
21524375 3 18410300216026655634
21637258 2 14764628598949571509
22713019 99 17846221098148803016
2297311 6 8141822577609608656
23114952 82 18116144468143085623
23184049 59 8502652606192835259
2334 1 17766834305497094625
23402539 116 18130799953615273552
23419403 2 17257033314096730898
23557571 272 16732997448262750129
23558518 356 18051413963979492081
23559900 14 18114454553004845259
23598291 2 17986118400822680667
25147074 1 18127697023973405041
266924 1 18199473164351326433
2838139 119 16950833808169486164
2871803 45 18060700593416464381
3060560 45 18271795869498238932
3071541 37 18335977601648773850
312423 11 18199752432094739419
33382 64 14764360339861375172
3759504 43 18041845150554118490
57003041 33 18409733975695983116
603831 33 18273211963328888009
69474 34 10737283588876234630
7164475 11 18055908806290287137
81539 233 18259703393677611282

>  <PUBCHEM_SHAPE_MULTIPOLES>  (1) 
378.15
8.99
2.66
1.56
4.05
2.06
-0.35
-3.6
-6.5
-1.95
0.72
0.22
-0.17
-1.18

>  <PUBCHEM_SHAPE_SELFOVERLAP>  (1) 
774.003

>  <PUBCHEM_SHAPE_VOLUME>  (1) 
217.3

>  <PUBCHEM_COORDINATE_TYPE>  (1) 
2
5
10

$$$$
