4613
     RDKit          3D

 25 28  0  0  1  0  0  0  0  0999 V2000
   -0.1701   -0.3283   -0.0605 O   0  0  0  0  0  0  0  0  0  0  0  0
    1.2955   -0.2900    1.7664 O   0  0  0  0  0  0  0  0  0  0  0  0
   -3.1027   -0.6448   -0.0076 N   0  0  0  0  0  0  0  0  0  0  0  0
   -2.1245   -1.3263    0.9583 C   0  0  0  0  0  0  0  0  0  0  0  0
    1.1761   -0.0195    0.3551 C   0  0  0  0  0  0  0  0  0  0  0  0
    2.1241   -0.9488   -0.4004 C   0  0  0  0  0  0  0  0  0  0  0  0
   -0.9158   -0.4367    1.1538 C   0  0  0  0  0  0  0  0  0  0  0  0
   -4.3011   -1.5794   -0.2086 C   0  0  0  0  0  0  0  0  0  0  0  0
   -3.5481    0.6797    0.6229 C   0  0  0  0  0  0  0  0  0  0  0  0
   -5.4138   -0.9113   -1.0064 C   0  0  0  0  0  0  0  0  0  0  0  0
   -4.6631    1.3420   -0.1765 C   0  0  0  0  0  0  0  0  0  0  0  0
    3.5820   -0.6681   -0.0121 C   0  0  0  0  0  0  0  0  0  0  0  0
    1.7631   -2.4179   -0.1421 C   0  0  0  0  0  0  0  0  0  0  0  0
    0.1008   -0.9871    2.1199 C   0  0  0  0  0  0  0  0  0  0  0  0
   -5.8472    0.4077   -0.3819 C   0  0  0  0  0  0  0  0  0  0  0  0
   -2.3550   -0.4108   -1.3200 C   0  0  0  0  0  0  0  0  0  0  0  0
    4.5462   -1.6211   -0.7148 C   0  0  0  0  0  0  0  0  0  0  0  0
    2.7303   -3.3681   -0.8445 C   0  0  0  0  0  0  0  0  0  0  0  0
    4.1790   -3.0803   -0.4628 C   0  0  0  0  0  0  0  0  0  0  0  0
    1.5139    1.4348    0.0622 C   0  0  0  0  0  0  0  0  0  0  0  0
    1.4603    1.9136   -1.2469 C   0  0  0  0  0  0  0  0  0  0  0  0
    1.8778    2.2897    1.1027 C   0  0  0  0  0  0  0  0  0  0  0  0
    1.7704    3.2468   -1.5155 C   0  0  0  0  0  0  0  0  0  0  0  0
    2.1879    3.6229    0.8342 C   0  0  0  0  0  0  0  0  0  0  0  0
    2.1342    4.1014   -0.4749 C   0  0  0  0  0  0  0  0  0  0  0  0
  1  5  1  0
  1  7  1  0
  2  5  1  0
  2 14  1  0
  3  4  1  0
  3  8  1  0
  3  9  1  0
  3 16  1  0
  4  7  1  0
  5  6  1  0
  5 20  1  0
  6 12  1  0
  6 13  1  0
  7 14  1  0
  8 10  1  0
  9 11  1  0
 10 15  1  0
 11 15  1  0
 12 17  1  0
 13 18  1  0
 17 19  1  0
 18 19  1  0
 20 21  2  0
 20 22  1  0
 21 23  1  0
 22 24  2  0
 23 25  2  0
 24 25  1  0
M  CHG  1   3   1
M  END
>  <PUBCHEM_COMPOUND_CID>  (1) 
4613

>  <PUBCHEM_CONFORMER_RMSD>  (1) 
0.8

>  <PUBCHEM_CONFORMER_DIVERSEORDER>  (1) 
3
45
66
61
46
58
64
47
50
53
37
52
42
25
67
51
55
38
27
62
49
33
34
56
35
17
13
54
12
60
40
44
4
26
32
57
14
59
23
36
48
28
43
15
39
30
18
22
2
29
19
41
63
31
11
9
6
16
20
21
7
65
5
1
8
10
24

>  <PUBCHEM_MMFF94_PARTIAL_CHARGES>  (1) 
21
1 -0.56
14 0.28
16 0.5
2 -0.56
20 -0.14
21 -0.15
22 -0.15
23 -0.15
24 -0.15
25 -0.15
3 -1.01
4 0.5
5 0.7
55 0.15
56 0.15
57 0.15
58 0.15
59 0.15
7 0.28
8 0.5
9 0.5

>  <PUBCHEM_EFFECTIVE_ROTOR_COUNT>  (1) 
7.4

>  <PUBCHEM_PHARMACOPHORE_FEATURES>  (1) 
7
1 1 acceptor
1 2 acceptor
1 3 cation
5 1 2 5 7 14 rings
6 20 21 22 23 24 25 rings
6 3 8 9 10 11 15 rings
6 6 12 13 17 18 19 rings

>  <PUBCHEM_HEAVY_ATOM_COUNT>  (1) 
25

>  <PUBCHEM_ATOM_DEF_STEREO_COUNT>  (1) 
0

>  <PUBCHEM_ATOM_UDEF_STEREO_COUNT>  (1) 
2

>  <PUBCHEM_BOND_DEF_STEREO_COUNT>  (1) 
0

>  <PUBCHEM_BOND_UDEF_STEREO_COUNT>  (1) 
0

>  <PUBCHEM_ISOTOPIC_ATOM_COUNT>  (1) 
0

>  <PUBCHEM_COMPONENT_COUNT>  (1) 
1

>  <PUBCHEM_CACTVS_TAUTO_COUNT>  (1) 
1

>  <PUBCHEM_CONFORMER_ID>  (1) 
0000120500000003

>  <PUBCHEM_MMFF94_ENERGY>  (1) 
73.0567

>  <PUBCHEM_FEATURE_SELFOVERLAP>  (1) 
35.565

>  <PUBCHEM_SHAPE_FINGERPRINT>  (1) 
10165383 225 17111053693645118768
10366900 7 17022903415916521585
10763959 59 18337666392250102677
10906281 52 18187945975346858976
10930396 42 18190997120667956386
11045515 52 18265059020400632414
11421498 54 12685092557637822006
11578080 2 13989226641544767254
12166972 35 18202000997876918705
12617007 42 18335986376451257470
12633257 1 16807549919672666417
12730499 353 18122355828630258603
12788726 201 17757838831814814586
13004483 165 18124029027677694670
13009979 54 17845666845541086441
13134695 92 18411704262015161900
13149001 5 17968395510159926890
13533116 47 18411982503356259015
13590594 115 18264780852380707849
13681431 1 18337687360000307952
13899415 180 18266161851811710190
13911987 19 18117868597624939798
13955234 65 18341333413119069163
14170010 4 18412823598879764296
14341114 328 11170208552797882391
14347329 18 16082200789337996845
14556957 393 17901984896853394694
15163728 17 17755315791525400684
15420108 30 17979616160029869328
15439362 3 18338236080353115860
15775530 1 17825972569300331010
167882 2 18265059213990957660
16988056 13 18335412457015089629
17349148 13 13758059802030450139
17492 89 18339922723059307535
1813 80 18338509725577812450
18186145 218 18040425608280981203
18335252 114 18194394491107019237
20238998 120 18269270167352786736
21285901 2 18053385392475881878
21304303 282 17050182574042317276
21478907 32 17905328425329031878
21503847 285 18261107478774367241
21524375 3 17683796984044420848
21860390 5 18334289911503461508
221357 26 18262515888866196133
22393880 68 18127703844154559295
23419403 2 14138542467637387834
23522609 53 17630628902168611393
23558518 356 17973434700641125162
23559900 14 18341604919972557699
238 59 18194699269747336042
249057 3 18341612548045140823
266924 78 18052570868891572530
283562 15 18047760295889977026
312423 11 18201450207134161411
340366 18 18272366443535861711
376196 1 17827909947374833241
4017518 198 17985837163029689660
4409770 3 17399513424991814037
44802255 64 17035600859789203932
46194498 28 18334855043637756015
474 4 17896310505946637945
495365 180 18196090160478225392
5081480 168 18410569557204077045
5281201 14 18410856573115561239
5895379 119 17916880018965669729
59755656 215 18338799030406848628
6086070 43 17970604339405590069
6287921 2 18263082278877269183
633830 44 18261382378557009399
6443956 14 18412547583238834484
70251023 43 18409731742708362043
7364860 26 18340205288445462728
7399639 24 17614302368753668123
7471813 234 18131633365573824209
81228 2 17829632569137263384
9709674 26 18336828688611479347
9971528 1 18341046337515267986
9981440 41 17906730663051950248

>  <PUBCHEM_SHAPE_MULTIPOLES>  (1) 
497.77
9.85
4.38
1.44
14.46
3.23
-0.36
-3.9
2.96
-6.8
1
-0.15
0.18
0.42

>  <PUBCHEM_SHAPE_SELFOVERLAP>  (1) 
1046.719

>  <PUBCHEM_SHAPE_VOLUME>  (1) 
277.9

>  <PUBCHEM_COORDINATE_TYPE>  (1) 
2
5
10

$$$$
