46136
     RDKit          3D

 25 25  0  0  0  0  0  0  0  0999 V2000
   -4.1264    1.2579   -0.5652 O   0  0  0  0  0  0  0  0  0  0  0  0
    3.5485    0.4394   -0.0165 O   0  0  0  0  0  0  0  0  0  0  0  0
    1.9901   -0.9352   -0.9714 O   0  0  0  0  0  0  0  0  0  0  0  0
    6.9913   -0.8634   -0.2612 N   0  0  0  0  0  0  0  0  0  0  0  0
    1.3934    1.0855    0.0577 N   0  0  0  0  0  0  0  0  0  0  0  0
   -6.9908   -1.1232   -0.0733 C   0  0  0  0  0  0  0  0  0  0  0  0
   -8.4289   -0.9823    0.4335 C   0  0  0  0  0  0  0  0  0  0  0  0
   -6.2130    0.1918   -0.0676 C   0  0  0  0  0  0  0  0  0  0  0  0
   -9.1995   -2.3031    0.4509 C   0  0  0  0  0  0  0  0  0  0  0  0
    5.9162    0.0557    0.0817 C   0  0  0  0  0  0  0  0  0  0  0  0
   -4.8016    0.0084   -0.6097 C   0  0  0  0  0  0  0  0  0  0  0  0
    8.2821   -0.1708   -0.2702 C   0  0  0  0  0  0  0  0  0  0  0  0
    7.0286   -1.9895    0.6750 C   0  0  0  0  0  0  0  0  0  0  0  0
    4.5760   -0.4863   -0.3893 C   0  0  0  0  0  0  0  0  0  0  0  0
  -10.6408   -2.0979    0.8921 C   0  0  0  0  0  0  0  0  0  0  0  0
    8.6258    0.3679    1.1082 C   0  0  0  0  0  0  0  0  0  0  0  0
    8.1029   -2.9911    0.2864 C   0  0  0  0  0  0  0  0  0  0  0  0
   -2.7651    1.2201   -0.4089 C   0  0  0  0  0  0  0  0  0  0  0  0
   -0.7236    2.2232    0.4056 C   0  0  0  0  0  0  0  0  0  0  0  0
    0.0054    1.1426   -0.0912 C   0  0  0  0  0  0  0  0  0  0  0  0
   -2.1088    2.2619    0.2466 C   0  0  0  0  0  0  0  0  0  0  0  0
   -2.0360    0.1396   -0.9059 C   0  0  0  0  0  0  0  0  0  0  0  0
   -0.6507    0.1008   -0.7473 C   0  0  0  0  0  0  0  0  0  0  0  0
    2.2714    0.0948   -0.3712 C   0  0  0  0  0  0  0  0  0  0  0  0
   -0.0468    3.3532    1.1112 C   0  0  0  0  0  0  0  0  0  0  0  0
  1 11  1  0
  1 18  1  0
  2 14  1  0
  2 24  1  0
  3 24  2  0
  4 10  1  0
  4 12  1  0
  4 13  1  0
  5 20  1  0
  5 24  1  0
  6  7  1  0
  6  8  1  0
  7  9  1  0
  8 11  1  0
  9 15  1  0
 10 14  1  0
 12 16  1  0
 13 17  1  0
 18 21  2  0
 18 22  1  0
 19 20  2  0
 19 21  1  0
 19 25  1  0
 20 23  1  0
 22 23  2  0
M  END
>  <PUBCHEM_COMPOUND_CID>  (1) 
46136

>  <PUBCHEM_CONFORMER_RMSD>  (1) 
1.2

>  <PUBCHEM_CONFORMER_DIVERSEORDER>  (1) 
1
36
18
61
38
6
40
67
49
14
57
20
21
59
29
48
2
44
22
11
47
37
24
41
45
5
56
15
58
8
34
33
17
43
31
23
26
62
32
12
51
7
39
42
25
64
63
28
52
50
66
54
53
46
35
10
65
19
30
13
16
27
60
55
4
3
9

>  <PUBCHEM_MMFF94_PARTIAL_CHARGES>  (1) 
22
1 -0.36
10 0.27
11 0.28
12 0.27
13 0.27
14 0.28
18 0.08
19 -0.14
2 -0.43
20 0.12
21 -0.15
22 -0.15
23 -0.15
24 0.78
25 0.14
3 -0.57
4 -0.81
5 -0.55
53 0.15
54 0.15
55 0.15
56 0.37

>  <PUBCHEM_EFFECTIVE_ROTOR_COUNT>  (1) 
14

>  <PUBCHEM_PHARMACOPHORE_FEATURES>  (1) 
7
1 1 acceptor
1 15 hydrophobe
1 3 acceptor
1 4 cation
1 5 donor
4 6 7 8 9 hydrophobe
6 18 19 20 21 22 23 rings

>  <PUBCHEM_HEAVY_ATOM_COUNT>  (1) 
25

>  <PUBCHEM_ATOM_DEF_STEREO_COUNT>  (1) 
0

>  <PUBCHEM_ATOM_UDEF_STEREO_COUNT>  (1) 
0

>  <PUBCHEM_BOND_DEF_STEREO_COUNT>  (1) 
0

>  <PUBCHEM_BOND_UDEF_STEREO_COUNT>  (1) 
0

>  <PUBCHEM_ISOTOPIC_ATOM_COUNT>  (1) 
0

>  <PUBCHEM_COMPONENT_COUNT>  (1) 
1

>  <PUBCHEM_CACTVS_TAUTO_COUNT>  (1) 
2

>  <PUBCHEM_CONFORMER_ID>  (1) 
0000B43800000001

>  <PUBCHEM_MMFF94_ENERGY>  (1) 
52.139

>  <PUBCHEM_FEATURE_SELFOVERLAP>  (1) 
35.52

>  <PUBCHEM_SHAPE_FINGERPRINT>  (1) 
10411042 1 18410293623331841397
10625338 86 13686304539652351771
106641 1 17703792539598584411
11135609 99 18339083821820835895
11409948 41 14996545279729820736
11463208 3 18337393743426579254
12166972 35 18260267430775119820
12236239 1 18336544894795241596
12539745 222 18272091570520237321
13530399 1 13038895677610511362
13540713 5 16986014981283369853
13673619 4 18334576872055703541
14251757 52 10807928263549707062
14344974 52 9439399122001194523
14428016 86 8502379944852909005
15419008 145 18059585668517530137
155225 1 10735888262272992139
15690457 1 18113617893359434731
15706992 2 12823301234438697227
1818759 1 18260550026490010683
18335252 98 18343303656668176102
2026 5 18187363195287514779
20721686 146 9943809989026196371
20771845 171 17970071251691118652
20771845 65 18337396049908277053
21130935 74 18268427928782385674
21267235 1 18343022189859549724
21792934 111 18059848459289640049
21792961 116 18338226064890055445
22224240 67 15554439695703086948
23524908 199 11674864581979923448
23569917 315 18337676287908142942
246663 6 18334016107934271247
3178227 256 17632576063371264782
34797466 226 16917065556752082236
5104073 3 17416408645713968162
54039377 194 18408042922986826127
5719381 82 18114183060433982931
59682541 35 18130785676594946394
636775 8 18409736157344171606
6691757 9 15554439709716909421
9953998 17 15410890774012582567

>  <PUBCHEM_SHAPE_MULTIPOLES>  (1) 
486.92
33.48
2.83
0.92
18.3
0.34
-0.07
-34.6
-9.11
0.69
-1.03
-0.01
0.07
1.05

>  <PUBCHEM_SHAPE_SELFOVERLAP>  (1) 
958.927

>  <PUBCHEM_SHAPE_VOLUME>  (1) 
293.1

>  <PUBCHEM_COORDINATE_TYPE>  (1) 
2
5
10

$$$$
