46133
     RDKit          3D

 23 23  0  0  0  0  0  0  0  0999 V2000
   -2.6702    0.4657   -0.0545 O   0  0  0  0  0  0  0  0  0  0  0  0
    5.0231    0.3884    0.6789 O   0  0  0  0  0  0  0  0  0  0  0  0
   -1.2377   -1.2987    0.2015 O   0  0  0  0  0  0  0  0  0  0  0  0
   -6.2052   -0.5514   -0.3353 N   0  0  0  0  0  0  0  0  0  0  0  0
   -0.4715    0.9161    0.1208 N   0  0  0  0  0  0  0  0  0  0  0  0
   -5.0578    0.3415   -0.2709 C   0  0  0  0  0  0  0  0  0  0  0  0
   -6.3072   -1.3535    0.8863 C   0  0  0  0  0  0  0  0  0  0  0  0
   -7.4407    0.2070   -0.5464 C   0  0  0  0  0  0  0  0  0  0  0  0
   -3.7713   -0.4495   -0.0954 C   0  0  0  0  0  0  0  0  0  0  0  0
   -7.4610   -2.3383    0.8016 C   0  0  0  0  0  0  0  0  0  0  0  0
   -7.3597    1.0481   -1.8090 C   0  0  0  0  0  0  0  0  0  0  0  0
    7.0329   -0.5188   -0.2544 C   0  0  0  0  0  0  0  0  0  0  0  0
    5.6022   -0.8083    0.1771 C   0  0  0  0  0  0  0  0  0  0  0  0
    7.7130   -1.7620   -0.8209 C   0  0  0  0  0  0  0  0  0  0  0  0
    0.9137    0.7986    0.2591 C   0  0  0  0  0  0  0  0  0  0  0  0
    1.7313    1.9289    0.2592 C   0  0  0  0  0  0  0  0  0  0  0  0
    3.6660    0.5240    0.5408 C   0  0  0  0  0  0  0  0  0  0  0  0
    3.1122    1.7912    0.4007 C   0  0  0  0  0  0  0  0  0  0  0  0
    1.4776   -0.4696    0.3998 C   0  0  0  0  0  0  0  0  0  0  0  0
    2.8585   -0.6074    0.5411 C   0  0  0  0  0  0  0  0  0  0  0  0
   -1.4296   -0.0930    0.1007 C   0  0  0  0  0  0  0  0  0  0  0  0
    9.1268   -1.4585   -1.2902 C   0  0  0  0  0  0  0  0  0  0  0  0
    1.1547    3.2994    0.1095 C   0  0  0  0  0  0  0  0  0  0  0  0
  1  9  1  0
  1 21  1  0
  2 13  1  0
  2 17  1  0
  3 21  2  0
  4  6  1  0
  4  7  1  0
  4  8  1  0
  5 15  1  0
  5 21  1  0
  6  9  1  0
  7 10  1  0
  8 11  1  0
 12 13  1  0
 12 14  1  0
 14 22  1  0
 15 16  2  0
 15 19  1  0
 16 18  1  0
 16 23  1  0
 17 18  2  0
 17 20  1  0
 19 20  2  0
M  END
>  <PUBCHEM_COMPOUND_CID>  (1) 
46133

>  <PUBCHEM_CONFORMER_RMSD>  (1) 
1

>  <PUBCHEM_CONFORMER_DIVERSEORDER>  (1) 
1
81
91
45
66
42
20
35
63
43
46
29
36
38
67
47
34
71
18
85
69
55
22
44
88
33
11
89
62
72
84
52
90
15
59
54
68
82
65
48
37
76
73
16
53
77
10
75
14
40
12
24
83
31
64
39
61
60
28
25
57
27
8
26
32
3
51
41
87
80
9
30
17
56
19
6
74
23
2
50
5
4
86
49
78
21
13
79
7
58
70

>  <PUBCHEM_MMFF94_PARTIAL_CHARGES>  (1) 
22
1 -0.43
13 0.28
15 0.12
16 -0.14
17 0.08
18 -0.15
19 -0.15
2 -0.36
20 -0.15
21 0.78
23 0.14
3 -0.57
4 -0.81
44 0.15
45 0.15
46 0.15
47 0.37
5 -0.55
6 0.27
7 0.27
8 0.27
9 0.28

>  <PUBCHEM_EFFECTIVE_ROTOR_COUNT>  (1) 
12

>  <PUBCHEM_PHARMACOPHORE_FEATURES>  (1) 
6
1 2 acceptor
1 22 hydrophobe
1 3 acceptor
1 4 cation
1 5 donor
6 15 16 17 18 19 20 rings

>  <PUBCHEM_HEAVY_ATOM_COUNT>  (1) 
23

>  <PUBCHEM_ATOM_DEF_STEREO_COUNT>  (1) 
0

>  <PUBCHEM_ATOM_UDEF_STEREO_COUNT>  (1) 
0

>  <PUBCHEM_BOND_DEF_STEREO_COUNT>  (1) 
0

>  <PUBCHEM_BOND_UDEF_STEREO_COUNT>  (1) 
0

>  <PUBCHEM_ISOTOPIC_ATOM_COUNT>  (1) 
0

>  <PUBCHEM_COMPONENT_COUNT>  (1) 
1

>  <PUBCHEM_CACTVS_TAUTO_COUNT>  (1) 
2

>  <PUBCHEM_CONFORMER_ID>  (1) 
0000B43500000001

>  <PUBCHEM_MMFF94_ENERGY>  (1) 
51.9722

>  <PUBCHEM_FEATURE_SELFOVERLAP>  (1) 
30.446

>  <PUBCHEM_SHAPE_FINGERPRINT>  (1) 
106641 1 12175612976511052990
11638347 137 13038908812025826292
12592606 108 18201433701200725431
13668630 136 18409729573175013931
13685833 64 18343021090848633578
14216079 64 18130507445094238246
14251764 18 17489591168996032560
15183329 4 18334852788663984753
15690457 1 16702295737851674966
15849732 13 18273210902572180052
17844677 252 18260831553517921205
1818759 1 17846508019656138166
20735858 18 10807931574700141724
21150785 3 16298387959254702094
21267235 1 18412548712651768144
21304303 172 18130512929229976936
21403212 168 9367345912966367100
21792961 116 17967819302143206778
22224240 67 9295283941782063148
23559900 14 18269548502085834161
246663 6 18060142020852362902
28498 318 18271804605530290972
3004659 81 18187082858750670840
328311 84 18413392050639007307
335352 9 18411135840088854246
4073 2 17676205823360280227
444769 64 18131631197296127263
465052 167 18341614845108968964
5470011 282 18113061532904068206
5758199 1 10665231436535418860
59755656 215 18261104150195630023

>  <PUBCHEM_SHAPE_MULTIPOLES>  (1) 
445.76
26.57
2.29
1.01
0.34
1.14
0.32
-17.1
9.05
-0.53
-0.17
0.57
-0.09
3.12

>  <PUBCHEM_SHAPE_SELFOVERLAP>  (1) 
883.36

>  <PUBCHEM_SHAPE_VOLUME>  (1) 
267.1

>  <PUBCHEM_COORDINATE_TYPE>  (1) 
2
5
10

$$$$
