46137
     RDKit          3D

 23 24  0  0  0  0  0  0  0  0999 V2000
    1.7851    0.6287    0.1248 O   0  0  0  0  0  0  0  0  0  0  0  0
   -5.9053    0.0617   -0.5005 O   0  0  0  0  0  0  0  0  0  0  0  0
    0.4589   -1.2162   -0.1354 O   0  0  0  0  0  0  0  0  0  0  0  0
    5.3801   -0.1555    0.3443 N   0  0  0  0  0  0  0  0  0  0  0  0
   -0.4331    0.9448   -0.0134 N   0  0  0  0  0  0  0  0  0  0  0  0
    6.4739    0.5713    1.0041 C   0  0  0  0  0  0  0  0  0  0  0  0
    5.7612   -0.5713   -1.0129 C   0  0  0  0  0  0  0  0  0  0  0  0
    7.7336   -0.2914    1.0955 C   0  0  0  0  0  0  0  0  0  0  0  0
    6.9976   -1.4711   -0.9875 C   0  0  0  0  0  0  0  0  0  0  0  0
    8.1638   -0.7917   -0.2787 C   0  0  0  0  0  0  0  0  0  0  0  0
    4.1699    0.6650    0.3070 C   0  0  0  0  0  0  0  0  0  0  0  0
    2.9355   -0.2064    0.1385 C   0  0  0  0  0  0  0  0  0  0  0  0
    0.5729   -0.0019   -0.0211 C   0  0  0  0  0  0  0  0  0  0  0  0
   -1.8257    0.7360   -0.1359 C   0  0  0  0  0  0  0  0  0  0  0  0
   -2.7153    1.8102   -0.1090 C   0  0  0  0  0  0  0  0  0  0  0  0
   -4.5676    0.2830   -0.3810 C   0  0  0  0  0  0  0  0  0  0  0  0
   -2.3069   -0.5648   -0.2860 C   0  0  0  0  0  0  0  0  0  0  0  0
   -4.0862    1.5837   -0.2315 C   0  0  0  0  0  0  0  0  0  0  0  0
   -3.6780   -0.7912   -0.4082 C   0  0  0  0  0  0  0  0  0  0  0  0
   -2.2276    3.2138    0.0492 C   0  0  0  0  0  0  0  0  0  0  0  0
   -6.4045   -1.1805   -0.0071 C   0  0  0  0  0  0  0  0  0  0  0  0
   -7.8436   -0.9871    0.4456 C   0  0  0  0  0  0  0  0  0  0  0  0
   -8.4387   -2.2693    0.9993 C   0  0  0  0  0  0  0  0  0  0  0  0
  1 12  1  0
  1 13  1  0
  2 16  1  0
  2 21  1  0
  3 13  2  0
  4  6  1  0
  4  7  1  0
  4 11  1  0
  5 13  1  0
  5 14  1  0
  6  8  1  0
  7  9  1  0
  8 10  1  0
  9 10  1  0
 11 12  1  0
 14 15  2  0
 14 17  1  0
 15 18  1  0
 15 20  1  0
 16 18  2  0
 16 19  1  0
 17 19  2  0
 21 22  1  0
 22 23  1  0
M  END
>  <PUBCHEM_COMPOUND_CID>  (1) 
46137

>  <PUBCHEM_CONFORMER_RMSD>  (1) 
1

>  <PUBCHEM_CONFORMER_DIVERSEORDER>  (1) 
1
27
32
41
46
20
44
42
53
6
12
25
18
35
43
37
29
28
26
34
23
7
50
52
31
15
51
45
13
39
30
4
49
5
48
47
21
24
3
54
36
40
22
10
2
14
38
16
19
9
33
17
11
55
8

>  <PUBCHEM_MMFF94_PARTIAL_CHARGES>  (1) 
22
1 -0.43
11 0.27
12 0.28
13 0.78
14 0.12
15 -0.14
16 0.08
17 -0.15
18 -0.15
19 -0.15
2 -0.36
20 0.14
21 0.28
3 -0.57
38 0.37
39 0.15
4 -0.81
40 0.15
41 0.15
5 -0.55
6 0.27
7 0.27

>  <PUBCHEM_EFFECTIVE_ROTOR_COUNT>  (1) 
10.2

>  <PUBCHEM_PHARMACOPHORE_FEATURES>  (1) 
7
1 2 acceptor
1 23 hydrophobe
1 3 acceptor
1 4 cation
1 5 donor
6 14 15 16 17 18 19 rings
6 4 6 7 8 9 10 rings

>  <PUBCHEM_HEAVY_ATOM_COUNT>  (1) 
23

>  <PUBCHEM_ATOM_DEF_STEREO_COUNT>  (1) 
0

>  <PUBCHEM_ATOM_UDEF_STEREO_COUNT>  (1) 
0

>  <PUBCHEM_BOND_DEF_STEREO_COUNT>  (1) 
0

>  <PUBCHEM_BOND_UDEF_STEREO_COUNT>  (1) 
0

>  <PUBCHEM_ISOTOPIC_ATOM_COUNT>  (1) 
0

>  <PUBCHEM_COMPONENT_COUNT>  (1) 
1

>  <PUBCHEM_CACTVS_TAUTO_COUNT>  (1) 
2

>  <PUBCHEM_CONFORMER_ID>  (1) 
0000B43900000001

>  <PUBCHEM_MMFF94_ENERGY>  (1) 
46.0757

>  <PUBCHEM_FEATURE_SELFOVERLAP>  (1) 
35.52

>  <PUBCHEM_SHAPE_FINGERPRINT>  (1) 
10411042 1 18337110181422128333
11315181 36 17313109652416620753
11524674 6 16128651963912800879
12166972 35 17821449083689842356
13073987 5 18270396080112427874
13288520 33 18411698781948342933
13673619 4 18273214205281230985
13685833 64 18131069329584130656
14123256 10 18333731312346661882
14251764 18 17060620005695600930
14251764 46 17894347782921949039
14429380 56 14923948976950919566
14933364 13 18202561757655780512
15183329 4 18336265648779697202
15419008 47 17917422117053316512
15461852 350 12252191783757871025
155225 1 11023838263001981691
15716309 27 17489584571514789748
17844677 252 18272936003776494408
1818759 1 18187652413905189043
18335252 98 18272653450836280102
18608769 82 18341893017361921575
19489759 90 18335701611830596616
21150785 3 15791449335623038923
21267235 1 18409451401555596429
21315759 40 17458061543741115626
21623969 137 16917350312603278924
21792934 111 18342734144453535241
2297311 6 18413388718013443397
23035841 295 18408040714730018507
23559900 14 18270951444695201496
23569943 247 17829610557536360970
246663 6 18412266146532032387
328311 84 18272653433197670022
3383291 50 18335702775624731859
34797466 226 17917712418519641692
4073 2 18409448125039271522
59682541 35 18342173409958797250
59755656 215 18409729534968973926
636775 8 18187654625982281203

>  <PUBCHEM_SHAPE_MULTIPOLES>  (1) 
445.76
27.01
2.04
0.89
13.24
1.15
0.06
-16.06
3.95
-3.63
0.1
0.82
-0.19
1.83

>  <PUBCHEM_SHAPE_SELFOVERLAP>  (1) 
903.217

>  <PUBCHEM_SHAPE_VOLUME>  (1) 
260.4

>  <PUBCHEM_COORDINATE_TYPE>  (1) 
2
5
10

$$$$
