46139
     RDKit          3D

 25 26  0  0  0  0  0  0  0  0999 V2000
    2.6721    0.7627   -0.0553 O   0  0  0  0  0  0  0  0  0  0  0  0
   -5.0246    0.8917    0.5360 O   0  0  0  0  0  0  0  0  0  0  0  0
    1.2358   -0.7782    0.8350 O   0  0  0  0  0  0  0  0  0  0  0  0
    6.2164   -0.2276    0.1538 N   0  0  0  0  0  0  0  0  0  0  0  0
    0.4766    1.2297   -0.0988 N   0  0  0  0  0  0  0  0  0  0  0  0
    6.1465   -1.5177   -0.5465 C   0  0  0  0  0  0  0  0  0  0  0  0
    7.4614    0.4844   -0.1671 C   0  0  0  0  0  0  0  0  0  0  0  0
    7.3290   -2.4129   -0.1730 C   0  0  0  0  0  0  0  0  0  0  0  0
    8.6869   -0.3455    0.2191 C   0  0  0  0  0  0  0  0  0  0  0  0
    8.6584   -1.7178   -0.4440 C   0  0  0  0  0  0  0  0  0  0  0  0
    5.0551    0.5978   -0.1774 C   0  0  0  0  0  0  0  0  0  0  0  0
    3.7698   -0.0797    0.2701 C   0  0  0  0  0  0  0  0  0  0  0  0
   -7.6899   -1.6965   -0.0601 C   0  0  0  0  0  0  0  0  0  0  0  0
   -7.0202   -0.3252   -0.0057 C   0  0  0  0  0  0  0  0  0  0  0  0
    1.4233    0.2989    0.2826 C   0  0  0  0  0  0  0  0  0  0  0  0
   -9.1038   -1.6027   -0.6329 C   0  0  0  0  0  0  0  0  0  0  0  0
   -5.5963   -0.4156    0.5244 C   0  0  0  0  0  0  0  0  0  0  0  0
   -0.9264    1.1583    0.0573 C   0  0  0  0  0  0  0  0  0  0  0  0
   -1.7332    2.1936   -0.3899 C   0  0  0  0  0  0  0  0  0  0  0  0
   -3.6757    0.9794    0.3779 C   0  0  0  0  0  0  0  0  0  0  0  0
   -9.7614   -2.9707   -0.7201 C   0  0  0  0  0  0  0  0  0  0  0  0
   -3.1160    2.1038   -0.2289 C   0  0  0  0  0  0  0  0  0  0  0  0
   -1.4702    0.0349    0.6626 C   0  0  0  0  0  0  0  0  0  0  0  0
   -2.8529   -0.0549    0.8239 C   0  0  0  0  0  0  0  0  0  0  0  0
   -1.1608    3.4097   -1.0430 C   0  0  0  0  0  0  0  0  0  0  0  0
  1 12  1  0
  1 15  1  0
  2 17  1  0
  2 20  1  0
  3 15  2  0
  4  6  1  0
  4  7  1  0
  4 11  1  0
  5 15  1  0
  5 18  1  0
  6  8  1  0
  7  9  1  0
  8 10  1  0
  9 10  1  0
 11 12  1  0
 13 14  1  0
 13 16  1  0
 14 17  1  0
 16 21  1  0
 18 19  2  0
 18 23  1  0
 19 22  1  0
 19 25  1  0
 20 22  2  0
 20 24  1  0
 23 24  2  0
M  END
>  <PUBCHEM_COMPOUND_CID>  (1) 
46139

>  <PUBCHEM_CONFORMER_RMSD>  (1) 
1

>  <PUBCHEM_CONFORMER_DIVERSEORDER>  (1) 
1
33
29
84
129
40
53
93
122
109
65
75
101
38
125
68
99
102
7
46
42
133
44
112
113
51
96
26
111
85
91
72
23
100
55
54
120
66
86
59
81
16
31
43
64
58
110
95
28
21
98
76
74
9
88
39
19
71
27
22
80
92
106
135
50
52
94
13
37
41
18
104
56
126
90
105
121
11
3
108
61
114
36
24
128
79
63
117
48
8
14
67
77
45
83
115
97
89
78
34
35
25
103
136
87
60
4
20
62
119
123
15
118
49
132
10
47
30
57
73
17
124
32
127
12
2
69
70
6
116
134
107
82
131
5
130

>  <PUBCHEM_MMFF94_PARTIAL_CHARGES>  (1) 
22
1 -0.43
11 0.27
12 0.28
15 0.78
17 0.28
18 0.12
19 -0.14
2 -0.36
20 0.08
22 -0.15
23 -0.15
24 -0.15
25 0.14
3 -0.57
4 -0.81
48 0.37
5 -0.55
52 0.15
53 0.15
54 0.15
6 0.27
7 0.27

>  <PUBCHEM_EFFECTIVE_ROTOR_COUNT>  (1) 
12.2

>  <PUBCHEM_PHARMACOPHORE_FEATURES>  (1) 
7
1 2 acceptor
1 21 hydrophobe
1 3 acceptor
1 4 cation
1 5 donor
6 18 19 20 22 23 24 rings
6 4 6 7 8 9 10 rings

>  <PUBCHEM_HEAVY_ATOM_COUNT>  (1) 
25

>  <PUBCHEM_ATOM_DEF_STEREO_COUNT>  (1) 
0

>  <PUBCHEM_ATOM_UDEF_STEREO_COUNT>  (1) 
0

>  <PUBCHEM_BOND_DEF_STEREO_COUNT>  (1) 
0

>  <PUBCHEM_BOND_UDEF_STEREO_COUNT>  (1) 
0

>  <PUBCHEM_ISOTOPIC_ATOM_COUNT>  (1) 
0

>  <PUBCHEM_COMPONENT_COUNT>  (1) 
1

>  <PUBCHEM_CACTVS_TAUTO_COUNT>  (1) 
2

>  <PUBCHEM_CONFORMER_ID>  (1) 
0000B43B00000001

>  <PUBCHEM_MMFF94_ENERGY>  (1) 
47.352

>  <PUBCHEM_FEATURE_SELFOVERLAP>  (1) 
35.52

>  <PUBCHEM_SHAPE_FINGERPRINT>  (1) 
10 15 11959734862933179855
10411042 1 18410574020503804325
106641 1 17417811772468644864
11135609 99 18129379470839478559
11181472 205 12468903278565047229
11463208 3 18130794409308906638
11497681 19 18412261710047100031
11524674 6 16988840566640774814
12539745 222 17775570823967222745
13740195 50 10519694610770348421
14202775 3 18272094851786028878
15183329 4 17895762786511211960
15198563 99 17023176098942516181
155225 1 7853584509261426271
15690457 1 18413670222843792082
16991971 28 18334015029849948803
1818759 1 18410295831034293307
18603816 31 17632289130119499399
2026 5 18341615867280491991
20771845 65 18200595921292330465
21095086 128 18272932725861567362
21130935 74 18129383696786708138
21267235 1 18261117374342146193
21315763 28 18413672408982340872
21792961 116 17313105255166259931
232437 2 18341896307971261739
23559900 14 18041565840135735144
23576562 1 16226898916519855783
3633792 109 11530475615250372256
3711267 37 7925636652558964783
54039377 194 18339641244288497415
9953998 17 12895352210137568869

>  <PUBCHEM_SHAPE_MULTIPOLES>  (1) 
486.92
32.28
2.8
0.82
0.76
0.39
0.02
-32.63
5.4
3.47
1.05
0.44
0.04
-0.54

>  <PUBCHEM_SHAPE_SELFOVERLAP>  (1) 
980.399

>  <PUBCHEM_SHAPE_VOLUME>  (1) 
286.4

>  <PUBCHEM_COORDINATE_TYPE>  (1) 
2
5
10

$$$$
