46148
     RDKit          3D

 25 26  0  0  1  0  0  0  0  0999 V2000
   -2.1417    1.5094   -0.6879 O   0  0  0  0  0  0  0  0  0  0  0  0
   -1.0445   -0.4922   -0.5466 O   0  0  0  0  0  0  0  0  0  0  0  0
    5.2729    0.0033    0.9069 O   0  0  0  0  0  0  0  0  0  0  0  0
   -5.3217   -0.2437    0.0773 N   0  0  0  0  0  0  0  0  0  0  0  0
    0.0424    1.5506   -0.1926 N   0  0  0  0  0  0  0  0  0  0  0  0
   -6.1954   -0.1604    1.2561 C   0  0  0  0  0  0  0  0  0  0  0  0
   -5.0327   -1.6418   -0.2719 C   0  0  0  0  0  0  0  0  0  0  0  0
   -7.5205   -0.8848    1.0133 C   0  0  0  0  0  0  0  0  0  0  0  0
   -6.3196   -2.4147   -0.5645 C   0  0  0  0  0  0  0  0  0  0  0  0
   -7.2924   -2.3361    0.6067 C   0  0  0  0  0  0  0  0  0  0  0  0
   -4.0795    0.4931    0.3080 C   0  0  0  0  0  0  0  0  0  0  0  0
   -3.3497    0.8156   -0.9982 C   0  0  0  0  0  0  0  0  0  0  0  0
   -4.1623    1.7012   -1.9342 C   0  0  0  0  0  0  0  0  0  0  0  0
   -1.0319    0.7308   -0.4785 C   0  0  0  0  0  0  0  0  0  0  0  0
    1.3752    1.1728    0.0884 C   0  0  0  0  0  0  0  0  0  0  0  0
    2.3492    2.1339    0.3595 C   0  0  0  0  0  0  0  0  0  0  0  0
    7.2357   -1.1038    0.0841 C   0  0  0  0  0  0  0  0  0  0  0  0
    1.7107   -0.1813    0.0925 C   0  0  0  0  0  0  0  0  0  0  0  0
    3.9949    0.3870    0.6385 C   0  0  0  0  0  0  0  0  0  0  0  0
    5.7315   -1.2011    0.2945 C   0  0  0  0  0  0  0  0  0  0  0  0
    3.6590    1.7409    0.6347 C   0  0  0  0  0  0  0  0  0  0  0  0
    7.7933   -2.3572   -0.5845 C   0  0  0  0  0  0  0  0  0  0  0  0
    3.0207   -0.5740    0.3674 C   0  0  0  0  0  0  0  0  0  0  0  0
    2.0177    3.5908    0.3630 C   0  0  0  0  0  0  0  0  0  0  0  0
    9.2887   -2.2383   -0.8319 C   0  0  0  0  0  0  0  0  0  0  0  0
  1 12  1  0
  1 14  1  0
  2 14  2  0
  3 19  1  0
  3 20  1  0
  4  6  1  0
  4  7  1  0
  4 11  1  0
  5 14  1  0
  5 15  1  0
  6  8  1  0
  7  9  1  0
  8 10  1  0
  9 10  1  0
 11 12  1  0
 12 13  1  0
 15 16  2  0
 15 18  1  0
 16 21  1  0
 16 24  1  0
 17 20  1  0
 17 22  1  0
 18 23  2  0
 19 21  2  0
 19 23  1  0
 22 25  1  0
M  END
>  <PUBCHEM_COMPOUND_CID>  (1) 
46148

>  <PUBCHEM_CONFORMER_RMSD>  (1) 
1

>  <PUBCHEM_CONFORMER_DIVERSEORDER>  (1) 
1
101
88
34
60
68
52
63
85
84
65
18
97
45
80
5
61
64
96
93
75
23
30
15
62
36
53
43
20
19
48
11
37
35
44
7
100
86
70
39
87
17
8
29
4
50
59
72
81
78
95
40
49
24
3
66
90
94
91
77
9
42
55
27
47
79
83
31
76
25
58
2
74
51
32
71
89
67
14
16
98
22
26
38
92
57
54
10
73
69
41
99
33
12
46
6
82
56
21
13
28

>  <PUBCHEM_MMFF94_PARTIAL_CHARGES>  (1) 
22
1 -0.43
11 0.27
12 0.28
14 0.78
15 0.12
16 -0.14
18 -0.15
19 0.08
2 -0.57
20 0.28
21 -0.15
23 -0.15
24 0.14
3 -0.36
4 -0.81
42 0.37
47 0.15
48 0.15
5 -0.55
51 0.15
6 0.27
7 0.27

>  <PUBCHEM_EFFECTIVE_ROTOR_COUNT>  (1) 
11.2

>  <PUBCHEM_PHARMACOPHORE_FEATURES>  (1) 
7
1 2 acceptor
1 25 hydrophobe
1 3 acceptor
1 4 cation
1 5 donor
6 15 16 18 19 21 23 rings
6 4 6 7 8 9 10 rings

>  <PUBCHEM_HEAVY_ATOM_COUNT>  (1) 
25

>  <PUBCHEM_ATOM_DEF_STEREO_COUNT>  (1) 
0

>  <PUBCHEM_ATOM_UDEF_STEREO_COUNT>  (1) 
1

>  <PUBCHEM_BOND_DEF_STEREO_COUNT>  (1) 
0

>  <PUBCHEM_BOND_UDEF_STEREO_COUNT>  (1) 
0

>  <PUBCHEM_ISOTOPIC_ATOM_COUNT>  (1) 
0

>  <PUBCHEM_COMPONENT_COUNT>  (1) 
1

>  <PUBCHEM_CACTVS_TAUTO_COUNT>  (1) 
2

>  <PUBCHEM_CONFORMER_ID>  (1) 
0000B44400000001

>  <PUBCHEM_MMFF94_ENERGY>  (1) 
48.6634

>  <PUBCHEM_FEATURE_SELFOVERLAP>  (1) 
35.52

>  <PUBCHEM_SHAPE_FINGERPRINT>  (1) 
10076449 9 18335989697094057858
10411042 1 18412546475712876360
11963148 33 18337100169352876930
12166972 35 18334577966370517520
125118 31 10663807599654643538
12616971 3 16988558056746042305
13533116 47 18337672048115434985
13668630 136 18409165506746256618
13673619 4 18187363229367171532
13685833 64 18413106148246917992
13690498 29 18040991817703318997
13782708 43 18041270024009255601
14123256 34 18408884027564171258
14556957 393 14996286868780782687
14598715 104 8862937252210144302
14729087 3 10231752288472498298
15880784 105 18337954610309267145
16120349 21 18343585148629797799
18222031 100 16153697765463364797
18335252 98 18412261741061053658
18643901 69 18113338600906475823
195137 95 10303813151571603038
20028762 73 18341890831044401719
21049683 271 18334580153331849772
21130935 74 18201154480992063835
21150785 3 14851608777921843386
21267235 1 18411983542564264520
21365058 113 18040156227648230324
21585481 151 18202004317729064758
23522609 53 18118715216423951717
246663 6 18410296887427221946
255183 451 18260551143102575252
465052 167 18272087197910700636
5104073 3 15553586556189111873
54039377 194 18411985741756539886
5937810 71 12324230643123028743
636775 8 18340493266910255054
8863177 126 18261391195238508770
9995097 26 18334862714929511190
999808 66 18411698772677998015

>  <PUBCHEM_SHAPE_MULTIPOLES>  (1) 
486.92
25.54
3.07
1.1
14.03
0.77
-0.24
-26.97
0.87
1.81
-0.27
-1.14
0.19
2.4

>  <PUBCHEM_SHAPE_SELFOVERLAP>  (1) 
982.756

>  <PUBCHEM_SHAPE_VOLUME>  (1) 
286.3

>  <PUBCHEM_COORDINATE_TYPE>  (1) 
2
5
10

$$$$
