46145
     RDKit          3D

 25 25  0  0  1  0  0  0  0  0999 V2000
    2.9249   -0.5136   -0.3963 O   0  0  0  0  0  0  0  0  0  0  0  0
   -4.7043   -0.7749    0.8706 O   0  0  0  0  0  0  0  0  0  0  0  0
    1.4611    1.1709    0.1038 O   0  0  0  0  0  0  0  0  0  0  0  0
    6.4212    0.6625   -0.0017 N   0  0  0  0  0  0  0  0  0  0  0  0
    0.7594   -1.0566   -0.1066 N   0  0  0  0  0  0  0  0  0  0  0  0
    5.2875   -0.2518   -0.0103 C   0  0  0  0  0  0  0  0  0  0  0  0
    3.9915    0.4415   -0.4377 C   0  0  0  0  0  0  0  0  0  0  0  0
    6.3670    1.5426    1.1675 C   0  0  0  0  0  0  0  0  0  0  0  0
    7.6839   -0.0795   -0.0187 C   0  0  0  0  0  0  0  0  0  0  0  0
    4.0522    1.0032   -1.8525 C   0  0  0  0  0  0  0  0  0  0  0  0
    7.5075    2.5464    1.1525 C   0  0  0  0  0  0  0  0  0  0  0  0
    7.7631   -1.0005   -1.2243 C   0  0  0  0  0  0  0  0  0  0  0  0
   -7.5556    1.3910   -0.2677 C   0  0  0  0  0  0  0  0  0  0  0  0
   -6.7908    0.1265    0.1168 C   0  0  0  0  0  0  0  0  0  0  0  0
   -9.0087    1.0760   -0.6217 C   0  0  0  0  0  0  0  0  0  0  0  0
   -5.3538    0.4367    0.5116 C   0  0  0  0  0  0  0  0  0  0  0  0
    1.6820   -0.0149   -0.1095 C   0  0  0  0  0  0  0  0  0  0  0  0
   -0.6152   -1.0013    0.1369 C   0  0  0  0  0  0  0  0  0  0  0  0
   -1.3954   -2.1570    0.0992 C   0  0  0  0  0  0  0  0  0  0  0  0
   -3.3571   -0.8497    0.6287 C   0  0  0  0  0  0  0  0  0  0  0  0
   -9.7825    2.3368   -0.9725 C   0  0  0  0  0  0  0  0  0  0  0  0
   -2.7663   -2.0812    0.3453 C   0  0  0  0  0  0  0  0  0  0  0  0
   -1.2056    0.2303    0.4209 C   0  0  0  0  0  0  0  0  0  0  0  0
   -2.5767    0.3060    0.6667 C   0  0  0  0  0  0  0  0  0  0  0  0
   -0.7893   -3.4894   -0.2012 C   0  0  0  0  0  0  0  0  0  0  0  0
  1  7  1  0
  1 17  1  0
  2 16  1  0
  2 20  1  0
  3 17  2  0
  4  6  1  0
  4  8  1  0
  4  9  1  0
  5 17  1  0
  5 18  1  0
  6  7  1  0
  7 10  1  0
  8 11  1  0
  9 12  1  0
 13 14  1  0
 13 15  1  0
 14 16  1  0
 15 21  1  0
 18 19  2  0
 18 23  1  0
 19 22  1  0
 19 25  1  0
 20 22  2  0
 20 24  1  0
 23 24  2  0
M  END
>  <PUBCHEM_COMPOUND_CID>  (1) 
46145

>  <PUBCHEM_CONFORMER_RMSD>  (1) 
1

>  <PUBCHEM_CONFORMER_DIVERSEORDER>  (1) 
8
95
16
76
74
112
106
31
123
15
140
42
49
3
63
48
127
119
9
85
138
104
52
28
118
144
69
86
29
158
47
149
35
103
64
66
124
83
113
13
72
55
24
131
126
78
92
34
56
7
132
97
136
137
120
159
156
88
53
107
116
12
91
108
135
105
10
114
59
80
54
38
102
75
142
2
157
58
43
128
94
111
129
40
57
150
33
147
45
26
65
98
5
17
96
14
143
82
154
153
62
130
87
101
121
68
61
51
67
25
81
122
79
90
32
41
99
109
36
37
139
152
73
155
110
6
145
70
18
115
4
23
160
141
100
22
93
19
125
1
89
11
46
44
84
60
71
117
20
134
133
39
30
146
27
151
21
50
77
148

>  <PUBCHEM_MMFF94_PARTIAL_CHARGES>  (1) 
22
1 -0.43
16 0.28
17 0.78
18 0.12
19 -0.14
2 -0.36
20 0.08
22 -0.15
23 -0.15
24 -0.15
25 0.14
3 -0.57
4 -0.81
5 -0.55
50 0.37
54 0.15
55 0.15
56 0.15
6 0.27
7 0.28
8 0.27
9 0.27

>  <PUBCHEM_EFFECTIVE_ROTOR_COUNT>  (1) 
13

>  <PUBCHEM_PHARMACOPHORE_FEATURES>  (1) 
6
1 2 acceptor
1 21 hydrophobe
1 3 acceptor
1 4 cation
1 5 donor
6 18 19 20 22 23 24 rings

>  <PUBCHEM_HEAVY_ATOM_COUNT>  (1) 
25

>  <PUBCHEM_ATOM_DEF_STEREO_COUNT>  (1) 
0

>  <PUBCHEM_ATOM_UDEF_STEREO_COUNT>  (1) 
1

>  <PUBCHEM_BOND_DEF_STEREO_COUNT>  (1) 
0

>  <PUBCHEM_BOND_UDEF_STEREO_COUNT>  (1) 
0

>  <PUBCHEM_ISOTOPIC_ATOM_COUNT>  (1) 
0

>  <PUBCHEM_COMPONENT_COUNT>  (1) 
1

>  <PUBCHEM_CACTVS_TAUTO_COUNT>  (1) 
2

>  <PUBCHEM_CONFORMER_ID>  (1) 
0000B44100000008

>  <PUBCHEM_MMFF94_ENERGY>  (1) 
54.5343

>  <PUBCHEM_FEATURE_SELFOVERLAP>  (1) 
30.446

>  <PUBCHEM_SHAPE_FINGERPRINT>  (1) 
10835480 77 17988363775755837256
11135609 99 10159111975897068681
12236239 1 18041847324055301410
125118 31 18334297604196505412
12539745 222 11602814680676835047
12616971 3 17531529914208292590
12838862 33 18339912766997600137
13540713 5 17485376573956111411
14117953 113 18336271171226990804
14344974 52 18342451570344601973
14428016 86 18409733929078746075
14429380 56 16415473887566466048
14729087 3 18334857212933902153
15131766 46 16373848692167809044
155225 1 18041277670439069013
1818759 1 10447926196622282709
18335252 98 7925913678106778930
20554085 129 18131338705116463914
21049683 271 11095874973843566075
21150785 3 15985104107068411697
21403212 168 18261109651621773627
21585482 111 18197775721264888608
21792934 111 18272363171403804376
21859007 373 18334287652456574644
23524908 199 18201441307545634974
23559900 14 17988077928196386448
246663 6 10592040267953562629
2838139 119 17749103409864100973
335352 9 18410859866780464564
3633792 109 18271530801381255019
4073 2 18265336300023009434

>  <PUBCHEM_SHAPE_MULTIPOLES>  (1) 
486.92
29.05
2.53
1.08
20.33
1.14
-0.22
-22.73
-4.62
1.06
0.08
-1.07
-0.38
2.91

>  <PUBCHEM_SHAPE_SELFOVERLAP>  (1) 
961.943

>  <PUBCHEM_SHAPE_VOLUME>  (1) 
292.9

>  <PUBCHEM_COORDINATE_TYPE>  (1) 
2
5
10

$$$$
