46149
     RDKit          3D

 26 27  0  0  1  0  0  0  0  0999 V2000
    2.8888   -2.0492   -0.3127 O   0  0  0  0  0  0  0  0  0  0  0  0
   -4.7445   -0.9263   -0.2193 O   0  0  0  0  0  0  0  0  0  0  0  0
    1.6029   -0.5857   -1.5105 O   0  0  0  0  0  0  0  0  0  0  0  0
    4.9667    0.9239    0.4716 N   0  0  0  0  0  0  0  0  0  0  0  0
    0.6775   -2.0723    0.0432 N   0  0  0  0  0  0  0  0  0  0  0  0
    5.1872    1.3961   -0.9026 C   0  0  0  0  0  0  0  0  0  0  0  0
    4.7494    2.0493    1.3914 C   0  0  0  0  0  0  0  0  0  0  0  0
    6.3982    2.3272   -0.9783 C   0  0  0  0  0  0  0  0  0  0  0  0
    5.9461    3.0017    1.3909 C   0  0  0  0  0  0  0  0  0  0  0  0
    6.2567    3.5007   -0.0157 C   0  0  0  0  0  0  0  0  0  0  0  0
    3.8350   -0.0014    0.5189 C   0  0  0  0  0  0  0  0  0  0  0  0
    4.0412   -1.2111   -0.3959 C   0  0  0  0  0  0  0  0  0  0  0  0
    5.2515   -2.0525   -0.0112 C   0  0  0  0  0  0  0  0  0  0  0  0
    1.6959   -1.4775   -0.6759 C   0  0  0  0  0  0  0  0  0  0  0  0
   -6.4448    0.7383    0.0889 C   0  0  0  0  0  0  0  0  0  0  0  0
   -6.8864    2.1673   -0.2191 C   0  0  0  0  0  0  0  0  0  0  0  0
   -0.7068   -1.7923   -0.0138 C   0  0  0  0  0  0  0  0  0  0  0  0
   -5.1054    0.4124   -0.5565 C   0  0  0  0  0  0  0  0  0  0  0  0
   -8.2108    2.5003    0.4671 C   0  0  0  0  0  0  0  0  0  0  0  0
   -1.5954   -2.4925    0.7882 C   0  0  0  0  0  0  0  0  0  0  0  0
   -3.4155   -1.2111   -0.1512 C   0  0  0  0  0  0  0  0  0  0  0  0
   -1.1489   -0.8067   -0.8838 C   0  0  0  0  0  0  0  0  0  0  0  0
   -2.9576   -2.2002    0.7194 C   0  0  0  0  0  0  0  0  0  0  0  0
   -2.5112   -0.5144   -0.9529 C   0  0  0  0  0  0  0  0  0  0  0  0
   -8.6368    3.9332    0.1904 C   0  0  0  0  0  0  0  0  0  0  0  0
   -1.1329   -3.5571    1.7293 C   0  0  0  0  0  0  0  0  0  0  0  0
  1 12  1  0
  1 14  1  0
  2 18  1  0
  2 21  1  0
  3 14  2  0
  4  6  1  0
  4  7  1  0
  4 11  1  0
  5 14  1  0
  5 17  1  0
  6  8  1  0
  7  9  1  0
  8 10  1  0
  9 10  1  0
 11 12  1  0
 12 13  1  0
 15 16  1  0
 15 18  1  0
 16 19  1  0
 17 20  2  0
 17 22  1  0
 19 25  1  0
 20 23  1  0
 20 26  1  0
 21 23  2  0
 21 24  1  0
 22 24  2  0
M  END
>  <PUBCHEM_COMPOUND_CID>  (1) 
46149

>  <PUBCHEM_CONFORMER_RMSD>  (1) 
1

>  <PUBCHEM_CONFORMER_DIVERSEORDER>  (1) 
1
188
156
144
8
66
107
128
205
181
13
72
100
172
121
23
150
201
153
194
35
189
187
112
17
120
99
119
137
89
138
173
178
110
117
98
15
49
55
199
106
11
90
163
208
139
88
175
60
131
166
200
81
69
196
143
75
73
102
197
191
6
148
109
140
31
129
158
59
206
155
85
114
170
58
38
64
154
65
37
132
87
202
27
95
157
147
51
122
177
70
50
74
53
134
97
111
162
141
136
130
52
61
24
203
62
152
79
30
71
133
92
142
176
43
165
159
126
54
182
82
105
145
48
118
3
10
179
28
160
209
184
149
41
207
174
36
195
46
125
164
9
135
4
123
103
84
7
180
25
171
151
190
12
21
185
161
76
57
44
47
113
198
124
16
94
77
115
56
34
18
93
19
96
167
42
146
26
204
127
5
192
33
210
68
104
101
80
186
40
116
32
193
29
91
168
20
183
86
78
63
108
39
2
169
14
22
67
211
45
83

>  <PUBCHEM_MMFF94_PARTIAL_CHARGES>  (1) 
22
1 -0.43
11 0.27
12 0.28
14 0.78
17 0.12
18 0.28
2 -0.36
20 -0.14
21 0.08
22 -0.15
23 -0.15
24 -0.15
26 0.14
3 -0.57
4 -0.81
47 0.37
5 -0.55
52 0.15
53 0.15
54 0.15
6 0.27
7 0.27

>  <PUBCHEM_EFFECTIVE_ROTOR_COUNT>  (1) 
12.2

>  <PUBCHEM_PHARMACOPHORE_FEATURES>  (1) 
7
1 2 acceptor
1 25 hydrophobe
1 3 acceptor
1 4 cation
1 5 donor
6 17 20 21 22 23 24 rings
6 4 6 7 8 9 10 rings

>  <PUBCHEM_HEAVY_ATOM_COUNT>  (1) 
26

>  <PUBCHEM_ATOM_DEF_STEREO_COUNT>  (1) 
0

>  <PUBCHEM_ATOM_UDEF_STEREO_COUNT>  (1) 
1

>  <PUBCHEM_BOND_DEF_STEREO_COUNT>  (1) 
0

>  <PUBCHEM_BOND_UDEF_STEREO_COUNT>  (1) 
0

>  <PUBCHEM_ISOTOPIC_ATOM_COUNT>  (1) 
0

>  <PUBCHEM_COMPONENT_COUNT>  (1) 
1

>  <PUBCHEM_CACTVS_TAUTO_COUNT>  (1) 
2

>  <PUBCHEM_CONFORMER_ID>  (1) 
0000B44500000001

>  <PUBCHEM_MMFF94_ENERGY>  (1) 
54.2304

>  <PUBCHEM_FEATURE_SELFOVERLAP>  (1) 
35.52

>  <PUBCHEM_SHAPE_FINGERPRINT>  (1) 
10693767 8 10375572799401214973
10981352 41 8070022264021920121
11393246 34 9223240641632426425
125118 31 18411700959248816037
12539765 74 18059580140419788487
12661589 4 9511462204364093364
12895837 130 18343581876470834469
12925494 130 18337389473537399473
13782708 43 8862951575619555823
13878862 14 18341033160977603884
13944108 23 18413390947740215160
14251751 18 9511200537971197482
14341114 328 17024296643367569394
14347332 77 10807672068191298846
14565420 104 18187082798484200075
14617042 71 18270967831188069017
15840311 113 18337394834252411533
16994733 274 18411132546381733897
20058555 10 18341895169494081793
20691028 202 18408605868323669525
21033648 29 18114184150569620987
21130935 74 18260268542908048187
21298829 104 18411138060650827917
21424621 283 18408042901522532595
21585482 111 18410856555356430812
22224240 67 17894917279286627507
23559900 14 18186525423667841254
23569943 247 9511195048966817853
270888 7 18411698794553370999
2748736 6 18410564115485695885
2838139 119 18342168913544880039
5104073 3 16516260668054855887
5385378 56 17823700755303510739
5718773 13 9223234039951596965
6898599 12 18060131094271115095

>  <PUBCHEM_SHAPE_MULTIPOLES>  (1) 
507.5
23.25
4.85
1.2
26.55
2.39
-0.2
34.77
-1.5
1.05
-1.65
-0.99
-0.08
0.95

>  <PUBCHEM_SHAPE_SELFOVERLAP>  (1) 
1022.958

>  <PUBCHEM_SHAPE_VOLUME>  (1) 
298.6

>  <PUBCHEM_COORDINATE_TYPE>  (1) 
2
5
10

$$$$
