46155
     RDKit          3D

 26 28  0  0  0  0  0  0  0  0999 V2000
    4.0345   -2.4741    2.7936 Cl  0  0  0  0  0  0  0  0  0  0  0  0
   -4.0312   -2.4778   -2.7915 Cl  0  0  0  0  0  0  0  0  0  0  0  0
    4.6737    0.7197   -2.0939 O   0  0  0  0  0  0  0  0  0  0  0  0
   -4.6754    0.7213    2.0920 O   0  0  0  0  0  0  0  0  0  0  0  0
    0.9931    0.5924   -0.6867 C   0  0  0  0  0  0  0  0  0  0  0  0
   -0.9934    0.5929    0.6885 C   0  0  0  0  0  0  0  0  0  0  0  0
    0.9926    1.9874   -0.6883 C   0  0  0  0  0  0  0  0  0  0  0  0
   -0.9944    1.9878    0.6866 C   0  0  0  0  0  0  0  0  0  0  0  0
    0.0002   -0.1049    0.0018 C   0  0  0  0  0  0  0  0  0  0  0  0
    2.0462   -0.1760   -1.4156 C   0  0  0  0  0  0  0  0  0  0  0  0
   -2.0471   -0.1749    1.4172 C   0  0  0  0  0  0  0  0  0  0  0  0
   -0.0013    2.6850   -0.0017 C   0  0  0  0  0  0  0  0  0  0  0  0
    3.2670   -0.4900   -0.5760 C   0  0  0  0  0  0  0  0  0  0  0  0
   -3.2670   -0.4900    0.5767 C   0  0  0  0  0  0  0  0  0  0  0  0
    2.0458    2.7552   -1.4176 C   0  0  0  0  0  0  0  0  0  0  0  0
   -2.0478    2.7562    1.4152 C   0  0  0  0  0  0  0  0  0  0  0  0
    4.5112   -0.0229   -0.9631 C   0  0  0  0  0  0  0  0  0  0  0  0
   -4.5116   -0.0225    0.9622 C   0  0  0  0  0  0  0  0  0  0  0  0
    3.1020   -1.2443    0.5736 C   0  0  0  0  0  0  0  0  0  0  0  0
   -3.1010   -1.2454   -0.5718 C   0  0  0  0  0  0  0  0  0  0  0  0
    5.6247   -0.3183   -0.1766 C   0  0  0  0  0  0  0  0  0  0  0  0
   -5.6244   -0.3190    0.1750 C   0  0  0  0  0  0  0  0  0  0  0  0
    4.2157   -1.5399    1.3597 C   0  0  0  0  0  0  0  0  0  0  0  0
   -4.2138   -1.5421   -1.3587 C   0  0  0  0  0  0  0  0  0  0  0  0
    5.4769   -1.0769    0.9849 C   0  0  0  0  0  0  0  0  0  0  0  0
   -5.4754   -1.0788   -0.9856 C   0  0  0  0  0  0  0  0  0  0  0  0
  1 23  1  0
  2 24  1  0
  3 17  1  0
  4 18  1  0
  5  7  2  0
  5  9  1  0
  5 10  1  0
  6  8  1  0
  6  9  2  0
  6 11  1  0
  7 12  1  0
  7 15  1  0
  8 12  2  0
  8 16  1  0
 10 13  1  0
 11 14  1  0
 13 17  2  0
 13 19  1  0
 14 18  2  0
 14 20  1  0
 17 21  1  0
 18 22  1  0
 19 23  2  0
 20 24  2  0
 21 25  2  0
 22 26  2  0
 23 25  1  0
 24 26  1  0
M  END
>  <PUBCHEM_COMPOUND_CID>  (1) 
46155

>  <PUBCHEM_CONFORMER_RMSD>  (1) 
0.8

>  <PUBCHEM_CONFORMER_DIVERSEORDER>  (1) 
64
1
50
71
55
56
3
75
26
28
58
87
89
83
2
35
79
37
16
66
43
67
13
22
18
76
49
65
57
7
36
52
62
41
63
91
85
82
31
54
73
34
5
12
51
88
78
44
84
8
4
15
72
33
42
20
68
23
69
10
77
94
74
61
95
32
19
14
81
25
70
40
30
38
17
86
59
53
29
47
93
90
21
92
11
24
46
80
60
48
45
27
9
39
6

>  <PUBCHEM_MMFF94_PARTIAL_CHARGES>  (1) 
36
1 -0.18
10 0.29
11 0.29
12 -0.15
13 -0.14
14 -0.14
15 0.14
16 0.14
17 0.08
18 0.08
19 -0.15
2 -0.18
20 -0.15
21 -0.15
22 -0.15
23 0.18
24 0.18
25 -0.15
26 -0.15
3 -0.53
31 0.15
32 0.15
39 0.15
4 -0.53
40 0.15
41 0.15
42 0.15
43 0.15
44 0.15
45 0.45
46 0.45
5 -0.14
6 -0.14
7 -0.14
8 -0.14
9 -0.15

>  <PUBCHEM_EFFECTIVE_ROTOR_COUNT>  (1) 
4

>  <PUBCHEM_PHARMACOPHORE_FEATURES>  (1) 
5
1 3 donor
1 4 donor
6 13 17 19 21 23 25 rings
6 14 18 20 22 24 26 rings
6 5 6 7 8 9 12 rings

>  <PUBCHEM_HEAVY_ATOM_COUNT>  (1) 
26

>  <PUBCHEM_ATOM_DEF_STEREO_COUNT>  (1) 
0

>  <PUBCHEM_ATOM_UDEF_STEREO_COUNT>  (1) 
0

>  <PUBCHEM_BOND_DEF_STEREO_COUNT>  (1) 
0

>  <PUBCHEM_BOND_UDEF_STEREO_COUNT>  (1) 
0

>  <PUBCHEM_ISOTOPIC_ATOM_COUNT>  (1) 
0

>  <PUBCHEM_COMPONENT_COUNT>  (1) 
1

>  <PUBCHEM_CACTVS_TAUTO_COUNT>  (1) 
5

>  <PUBCHEM_CONFORMER_ID>  (1) 
0000B44B00000040

>  <PUBCHEM_MMFF94_ENERGY>  (1) 
77.5741

>  <PUBCHEM_FEATURE_SELFOVERLAP>  (1) 
25.373

>  <PUBCHEM_SHAPE_FINGERPRINT>  (1) 
10447042 23 18040715862118285718
11045977 3 15698004019763277854
11069576 57 17968090885779320034
11135926 11 17604162479929089058
11265709 11 18410855455838807081
11552529 35 18058445401089980658
12553582 1 18338811064525020290
12788726 201 18340497676775953673
13004483 165 18261661580936604626
13083527 12 18201714097993009772
13533116 47 18040718039640351066
13692114 37 17403172595763999629
14251757 17 15719662169753234754
14429115 67 18189331282388148522
14508693 111 17914319423698497398
14840074 17 18411699872279432650
15183329 4 16515678914518172375
17349148 13 18410862061493116612
1813 80 18411136935115668980
18222031 100 18342463642711440860
18681886 176 17702677682184964364
200 152 18113338591904889414
20511986 3 18410848863058460101
20626108 58 17845084250502237367
21033648 29 16414909726210357416
2132832 1 18410860961997982188
21458453 9 15983674853194828090
23557571 272 17203342065141774969
23559900 14 17677339440827994104
25147074 1 18338536182323713121
2637199 183 11602536528901991421
3004659 81 18271248313187583397
314194 84 18113900459437226050
3383291 50 17489305352462534071
339767 52 18273495680405407311
3411729 13 17844520218544696784
3459 110 14620496969838802093
3459 83 17096916976283022543
345986 75 18410004403900725528
3729539 64 17095516254272487811
4098825 35 17458059349149899701
4394409 98 18128231490369020687
439807 62 17896044411643927995
46194498 28 15502952924838859446
463206 1 18198623418315547079
4756261 7 15044645837985172243
5104073 3 17916034636805807603
5283173 99 14706921839552147518
59682541 52 17604412085953357095
6442390 28 16845289454322095574
67856867 119 17987797565326574281
7471813 234 18411980290704679700

>  <PUBCHEM_SHAPE_MULTIPOLES>  (1) 
527.07
13.41
2.8
2.25
0.01
1.38
0
-8.17
0
-0.01
0
0
-1.03
-4.51

>  <PUBCHEM_SHAPE_SELFOVERLAP>  (1) 
1130.56

>  <PUBCHEM_SHAPE_VOLUME>  (1) 
294.2

>  <PUBCHEM_COORDINATE_TYPE>  (1) 
2
5
10

$$$$
