46153
     RDKit          3D

 12 13  0  0  0  0  0  0  0  0999 V2000
   -1.4909    1.0909    0.0001 O   0  0  0  0  0  0  0  0  0  0  0  0
   -3.7185    0.5573    0.0002 O   0  0  0  0  0  0  0  0  0  0  0  0
    3.8596   -0.5246    0.0002 N   0  0  0  0  0  0  0  0  0  0  0  0
    0.1551   -0.7022   -0.0002 C   0  0  0  0  0  0  0  0  0  0  0  0
   -0.1497    0.6564    0.0000 C   0  0  0  0  0  0  0  0  0  0  0  0
    1.4959   -1.0932   -0.0003 C   0  0  0  0  0  0  0  0  0  0  0  0
    2.5055   -0.1264    0.0000 C   0  0  0  0  0  0  0  0  0  0  0  0
    0.8461    1.6310    0.0000 C   0  0  0  0  0  0  0  0  0  0  0  0
   -0.9335   -1.6645    0.0001 C   0  0  0  0  0  0  0  0  0  0  0  0
    2.1810    1.2323    0.0000 C   0  0  0  0  0  0  0  0  0  0  0  0
   -2.2013   -1.2450    0.0002 C   0  0  0  0  0  0  0  0  0  0  0  0
   -2.5494    0.1881   -0.0004 C   0  0  0  0  0  0  0  0  0  0  0  0
  1  5  1  0
  1 12  1  0
  2 12  2  0
  3  7  1  0
  4  5  2  0
  4  6  1  0
  4  9  1  0
  5  8  1  0
  6  7  2  0
  7 10  1  0
  8 10  2  0
  9 11  2  0
 11 12  1  0
M  END
>  <PUBCHEM_COMPOUND_CID>  (1) 
46153

>  <PUBCHEM_CONFORMER_RMSD>  (1) 
0.4

>  <PUBCHEM_CONFORMER_DIVERSEORDER>  (1) 
1

>  <PUBCHEM_MMFF94_PARTIAL_CHARGES>  (1) 
19
1 -0.23
10 -0.15
11 -0.14
12 0.71
13 0.15
14 0.15
15 0.15
16 0.15
17 0.15
18 0.4
19 0.4
2 -0.57
3 -0.9
4 0.03
5 0.08
6 -0.15
7 0.1
8 -0.15
9 -0.18

>  <PUBCHEM_EFFECTIVE_ROTOR_COUNT>  (1) 
0

>  <PUBCHEM_PHARMACOPHORE_FEATURES>  (1) 
5
1 2 acceptor
1 3 cation
1 3 donor
6 1 4 5 9 11 12 rings
6 4 5 6 7 8 10 rings

>  <PUBCHEM_HEAVY_ATOM_COUNT>  (1) 
12

>  <PUBCHEM_ATOM_DEF_STEREO_COUNT>  (1) 
0

>  <PUBCHEM_ATOM_UDEF_STEREO_COUNT>  (1) 
0

>  <PUBCHEM_BOND_DEF_STEREO_COUNT>  (1) 
0

>  <PUBCHEM_BOND_UDEF_STEREO_COUNT>  (1) 
0

>  <PUBCHEM_ISOTOPIC_ATOM_COUNT>  (1) 
0

>  <PUBCHEM_COMPONENT_COUNT>  (1) 
1

>  <PUBCHEM_CACTVS_TAUTO_COUNT>  (1) 
1

>  <PUBCHEM_CONFORMER_ID>  (1) 
0000B44900000001

>  <PUBCHEM_MMFF94_ENERGY>  (1) 
47.4545

>  <PUBCHEM_FEATURE_SELFOVERLAP>  (1) 
25.399

>  <PUBCHEM_SHAPE_FINGERPRINT>  (1) 
10130415 120 18408037407858246002
10608611 8 18339076098440924337
11132069 177 18411975871388566656
11471102 20 18410569583047466677
12032990 46 18411427197843432422
12932764 1 17095790101070476390
13380535 76 18412544297225349935
14325111 11 18338517542265180193
14911166 2 18410855438653332142
14993402 34 18410855438653344974
15775835 57 18333735718877320261
16945 1 18410573968003249958
17844478 74 17967541176987831025
18511873 20 18410575084668360202
193761 8 17906453577489065158
19973954 147 18193277613881258731
20201158 50 18341613698279029742
20588541 1 18410859823910068558
21501502 16 18266458895859849638
23235685 24 18412820270417090849
23402539 116 18130496453671417581
23402655 69 18268978827073386013
23463225 33 18335981991474420314
23552423 10 18116994583846784294
23559900 14 18342181086004429668
2748010 2 18266741478943397454
5084963 1 18272088330980141922
528886 8 18411414007745496554
53812653 166 18413102862116882298
63268167 104 18411423937741566025
7364860 26 18198624535112720776
8809292 202 18260834825201631434

>  <PUBCHEM_SHAPE_MULTIPOLES>  (1) 
230.23
4.98
1.65
0.59
0.02
0
0
0.01
0
0.03
0
-0.01
-0.01
0

>  <PUBCHEM_SHAPE_SELFOVERLAP>  (1) 
502.841

>  <PUBCHEM_SHAPE_VOLUME>  (1) 
124.9

>  <PUBCHEM_COORDINATE_TYPE>  (1) 
2
5
10

$$$$
