46160
     RDKit          3D

 15 15  0  0  0  0  0  0  0  0999 V2000
   -1.6866    2.2913    0.0666 O   0  0  0  0  0  0  0  0  0  0  0  0
    2.3229   -0.0099    0.6865 C   0  0  0  0  0  0  0  0  0  0  0  0
    3.3953   -0.1741   -0.3926 C   0  0  0  0  0  0  0  0  0  0  0  0
    0.9156   -0.0897    0.0866 C   0  0  0  0  0  0  0  0  0  0  0  0
    4.8012   -0.0612    0.1993 C   0  0  0  0  0  0  0  0  0  0  0  0
   -0.1921    0.1006    1.1291 C   0  0  0  0  0  0  0  0  0  0  0  0
    5.8723   -0.1913   -0.8832 C   0  0  0  0  0  0  0  0  0  0  0  0
   -1.5855   -0.0493    0.5724 C   0  0  0  0  0  0  0  0  0  0  0  0
   -2.2591    1.0548    0.0704 C   0  0  0  0  0  0  0  0  0  0  0  0
    7.2718   -0.1128   -0.2944 C   0  0  0  0  0  0  0  0  0  0  0  0
   -2.1729   -1.3066    0.5742 C   0  0  0  0  0  0  0  0  0  0  0  0
   -3.5474    0.8987   -0.4412 C   0  0  0  0  0  0  0  0  0  0  0  0
   -4.1484   -0.3602   -0.4450 C   0  0  0  0  0  0  0  0  0  0  0  0
   -3.4614   -1.4629    0.0630 C   0  0  0  0  0  0  0  0  0  0  0  0
   -5.5258   -0.5273   -0.9916 C   0  0  0  0  0  0  0  0  0  0  0  0
  1  9  1  0
  2  3  1  0
  2  4  1  0
  3  5  1  0
  4  6  1  0
  5  7  1  0
  6  8  1  0
  7 10  1  0
  8  9  2  0
  8 11  1  0
  9 12  1  0
 11 14  2  0
 12 13  2  0
 13 14  1  0
 13 15  1  0
M  END
>  <PUBCHEM_COMPOUND_CID>  (1) 
46160

>  <PUBCHEM_CONFORMER_RMSD>  (1) 
0.6

>  <PUBCHEM_CONFORMER_DIVERSEORDER>  (1) 
1
55
130
161
140
5
153
170
102
38
15
156
18
124
175
166
159
165
163
105
134
85
77
104
151
79
93
3
34
69
119
136
90
8
49
29
168
110
129
30
133
47
39
172
157
54
81
131
19
171
14
92
58
169
152
17
111
126
123
103
24
36
109
56
120
28
112
101
91
68
44
52
114
60
148
113
106
2
20
6
95
4
64
13
25
139
138
9
116
59
16
125
164
73
162
70
31
173
127
61
40
155
41
46
50
167
48
137
37
115
99
83
78
107
32
51
11
65
146
147
149
158
57
141
98
7
89
72
100
135
22
42
35
33
108
26
75
53
174
67
87
96
145
143
21
88
66
27
94
118
43
84
12
117
142
144
154
62
128
45
82
23
76
150
132
121
160
10
71
80
122
97
63
74
86

>  <PUBCHEM_MMFF94_PARTIAL_CHARGES>  (1) 
13
1 -0.53
11 -0.15
12 -0.15
13 -0.14
14 -0.15
15 0.14
28 0.15
32 0.15
33 0.15
37 0.45
6 0.14
8 -0.14
9 0.08

>  <PUBCHEM_EFFECTIVE_ROTOR_COUNT>  (1) 
6

>  <PUBCHEM_PHARMACOPHORE_FEATURES>  (1) 
5
1 1 donor
1 10 hydrophobe
3 2 4 6 hydrophobe
3 3 5 7 hydrophobe
6 8 9 11 12 13 14 rings

>  <PUBCHEM_HEAVY_ATOM_COUNT>  (1) 
15

>  <PUBCHEM_ATOM_DEF_STEREO_COUNT>  (1) 
0

>  <PUBCHEM_ATOM_UDEF_STEREO_COUNT>  (1) 
0

>  <PUBCHEM_BOND_DEF_STEREO_COUNT>  (1) 
0

>  <PUBCHEM_BOND_UDEF_STEREO_COUNT>  (1) 
0

>  <PUBCHEM_ISOTOPIC_ATOM_COUNT>  (1) 
0

>  <PUBCHEM_COMPONENT_COUNT>  (1) 
1

>  <PUBCHEM_CACTVS_TAUTO_COUNT>  (1) 
9

>  <PUBCHEM_CONFORMER_ID>  (1) 
0000B45000000001

>  <PUBCHEM_MMFF94_ENERGY>  (1) 
20.2124

>  <PUBCHEM_FEATURE_SELFOVERLAP>  (1) 
25.384

>  <PUBCHEM_SHAPE_FINGERPRINT>  (1) 
10968037 39 18408322202734055975
11089746 13 16950284027413754388
11315181 36 18040722484894461716
12236239 1 17312816065573924923
13288520 33 17846779620238758053
13533116 47 17967801714062524858
13551218 46 12175636052800999308
13668630 136 16845577513414839190
1420 363 16343705435285199870
14251718 22 18343866615490827294
14350574 20 17275383218403219656
15348495 7 10881696740909371180
15716309 27 13901910003735599278
17834072 33 18259704515075083806
17834076 25 15791730810958341686
17844677 252 16988849380356751656
17870717 6 18342184357635502454
1813 80 14979689818316607232
18335252 98 16732708251140777931
187816 3 18187642514231976731
19489759 90 18334859407482621456
200 152 17060337418074499354
20281389 69 12468635045737719670
20300324 65 18407761421607386704
20645477 70 17560528288135426558
20767249 213 14779547889401224391
20871999 31 18336539444012283493
21267235 1 18409732906787027787
21637258 2 15769481111002034047
2297311 6 18342741818636407169
23402539 116 18408038507058741349
23466295 7 16986292031921578687
23557571 272 18272938189260590256
23559900 14 18337385062669095376
300161 21 17022900168952758002
351380 3 14405186149666009126
3545911 37 17967252000828855666

>  <PUBCHEM_SHAPE_MULTIPOLES>  (1) 
302.82
15.21
1.29
0.94
25.38
0.41
0.01
-2.26
-5.46
-1.64
0.05
-0.09
-0.06
0.08

>  <PUBCHEM_SHAPE_SELFOVERLAP>  (1) 
598.668

>  <PUBCHEM_SHAPE_VOLUME>  (1) 
182.1

>  <PUBCHEM_COORDINATE_TYPE>  (1) 
2
5
10

$$$$
