46169
     RDKit          3D

 31 33  0  0  1  0  0  0  0  0999 V2000
    3.9102   -2.3745    0.1519 O   0  0  0  0  0  0  0  0  0  0  0  0
    3.2127    0.5288    0.1742 O   0  0  0  0  0  0  0  0  0  0  0  0
    3.0866   -4.4669    0.6813 O   0  0  0  0  0  0  0  0  0  0  0  0
    2.9201    1.2892   -2.3839 O   0  0  0  0  0  0  0  0  0  0  0  0
    0.4516   -1.0536   -0.0589 N   0  0  0  0  0  0  0  0  0  0  0  0
   -2.3770   -0.6700    0.0485 N   0  0  0  0  0  0  0  0  0  0  0  0
   -0.2700   -0.5218   -1.2217 C   0  0  0  0  0  0  0  0  0  0  0  0
   -0.4004   -2.0046    0.6653 C   0  0  0  0  0  0  0  0  0  0  0  0
   -1.5469    0.2034   -0.7907 C   0  0  0  0  0  0  0  0  0  0  0  0
   -1.6827   -1.3296    1.1586 C   0  0  0  0  0  0  0  0  0  0  0  0
    1.6967   -1.6962   -0.4779 C   0  0  0  0  0  0  0  0  0  0  0  0
    2.7175   -1.7700    0.6600 C   0  0  0  0  0  0  0  0  0  0  0  0
   -3.7396   -0.3724    0.1608 C   0  0  0  0  0  0  0  0  0  0  0  0
    3.0745   -0.4039    1.2417 C   0  0  0  0  0  0  0  0  0  0  0  0
   -4.6646   -0.9152   -0.7311 C   0  0  0  0  0  0  0  0  0  0  0  0
   -4.1693    0.4773    1.1802 C   0  0  0  0  0  0  0  0  0  0  0  0
   -6.0194   -0.6079   -0.6038 C   0  0  0  0  0  0  0  0  0  0  0  0
   -5.5238    0.7845    1.3075 C   0  0  0  0  0  0  0  0  0  0  0  0
   -6.4489    0.2419    0.4155 C   0  0  0  0  0  0  0  0  0  0  0  0
   -4.2320   -1.8284   -1.8318 C   0  0  0  0  0  0  0  0  0  0  0  0
    3.9561   -3.7352    0.2274 C   0  0  0  0  0  0  0  0  0  0  0  0
   -7.8970    0.5717    0.5517 C   0  0  0  0  0  0  0  0  0  0  0  0
    2.8902    1.8308    0.4492 C   0  0  0  0  0  0  0  0  0  0  0  0
    5.2544   -4.2257   -0.3382 C   0  0  0  0  0  0  0  0  0  0  0  0
    2.3902    2.6702   -0.5466 C   0  0  0  0  0  0  0  0  0  0  0  0
    3.0665    2.3146    1.7456 C   0  0  0  0  0  0  0  0  0  0  0  0
    2.0663    3.9932   -0.2456 C   0  0  0  0  0  0  0  0  0  0  0  0
    2.7424    3.6376    2.0464 C   0  0  0  0  0  0  0  0  0  0  0  0
    2.1975    2.1849   -1.9060 C   0  0  0  0  0  0  0  0  0  0  0  0
    2.2424    4.4768    1.0509 C   0  0  0  0  0  0  0  0  0  0  0  0
    1.0956    2.7711   -2.7803 C   0  0  0  0  0  0  0  0  0  0  0  0
  1 12  1  0
  1 21  1  0
  2 14  1  0
  2 23  1  0
  3 21  2  0
  4 29  2  0
  5  7  1  0
  5  8  1  0
  5 11  1  0
  6  9  1  0
  6 10  1  0
  6 13  1  0
  7  9  1  0
  8 10  1  0
 11 12  1  0
 12 14  1  0
 13 15  2  0
 13 16  1  0
 15 17  1  0
 15 20  1  0
 16 18  2  0
 17 19  2  0
 18 19  1  0
 19 22  1  0
 21 24  1  0
 23 25  2  0
 23 26  1  0
 25 27  1  0
 25 29  1  0
 26 28  2  0
 27 30  2  0
 28 30  1  0
 29 31  1  0
M  END
>  <PUBCHEM_COMPOUND_CID>  (1) 
46169

>  <PUBCHEM_CONFORMER_RMSD>  (1) 
1

>  <PUBCHEM_CONFORMER_DIVERSEORDER>  (1) 
3
108
175
129
98
242
202
192
234
159
95
8
84
195
130
207
190
135
38
225
171
50
74
144
169
86
20
59
209
53
51
113
104
143
227
243
49
42
71
197
45
201
170
111
96
70
152
103
133
102
245
194
83
21
231
230
120
127
99
56
75
77
206
17
52
82
179
48
213
79
156
41
121
176
173
166
73
162
4
30
15
88
215
223
138
125
226
115
180
6
208
81
69
246
9
178
132
32
106
236
118
196
163
13
151
34
241
64
235
94
188
239
233
39
193
240
168
154
146
191
61
57
37
44
76
117
85
155
211
222
220
29
5
187
89
131
35
217
91
18
101
107
46
186
116
134
203
65
165
114
72
112
161
33
100
126
40
105
221
128
177
55
147
183
158
109
93
63
184
199
237
189
224
244
123
2
228
12
22
43
182
60
92
31
148
218
145
137
67
198
122
172
28
136
219
200
157
142
80
140
11
36
153
87
174
232
68
7
124
205
212
78
167
16
58
26
54
204
210
139
10
47
23
214
149
14
150
141
181
110
229
62
24
19
216
119
164
1
185
25
66
27
97
160
90
238

>  <PUBCHEM_MMFF94_PARTIAL_CHARGES>  (1) 
38
1 -0.43
10 0.37
11 0.27
12 0.28
13 0.1
14 0.28
15 -0.14
16 -0.15
17 -0.15
18 -0.15
19 -0.14
2 -0.36
20 0.14
21 0.66
22 0.14
23 0.08
24 0.06
25 0.09
26 -0.15
27 -0.15
28 -0.15
29 0.42
3 -0.57
30 -0.15
31 0.06
4 -0.57
45 0.15
46 0.15
47 0.15
5 -0.81
57 0.15
58 0.15
59 0.15
6 -0.84
60 0.15
7 0.27
8 0.27
9 0.37

>  <PUBCHEM_EFFECTIVE_ROTOR_COUNT>  (1) 
10.2

>  <PUBCHEM_PHARMACOPHORE_FEATURES>  (1) 
8
1 2 acceptor
1 3 acceptor
1 4 acceptor
1 5 cation
1 6 cation
6 13 15 16 17 18 19 rings
6 23 25 26 27 28 30 rings
6 5 6 7 8 9 10 rings

>  <PUBCHEM_HEAVY_ATOM_COUNT>  (1) 
31

>  <PUBCHEM_ATOM_DEF_STEREO_COUNT>  (1) 
0

>  <PUBCHEM_ATOM_UDEF_STEREO_COUNT>  (1) 
1

>  <PUBCHEM_BOND_DEF_STEREO_COUNT>  (1) 
0

>  <PUBCHEM_BOND_UDEF_STEREO_COUNT>  (1) 
0

>  <PUBCHEM_ISOTOPIC_ATOM_COUNT>  (1) 
0

>  <PUBCHEM_COMPONENT_COUNT>  (1) 
1

>  <PUBCHEM_CACTVS_TAUTO_COUNT>  (1) 
2

>  <PUBCHEM_CONFORMER_ID>  (1) 
0000B45900000003

>  <PUBCHEM_MMFF94_ENERGY>  (1) 
100.7807

>  <PUBCHEM_FEATURE_SELFOVERLAP>  (1) 
40.607

>  <PUBCHEM_SHAPE_FINGERPRINT>  (1) 
10483366 6 17969524718045902932
10937287 8 17907855463742407872
11331351 85 17984424040187605590
12107183 9 18056765317426974793
12156800 1 17337621963468488276
12166972 35 18271526390750366955
12633257 1 16734651199144245672
13533116 47 18409730664608260515
13590594 115 18195249918724622009
13878862 14 18262500555975601861
13965767 371 17972296680716257696
14739800 52 17845927550198703369
15021287 119 18271525278480833787
15420108 30 17979613952611260616
15664445 248 13398633899963929810
1979834 28 18115022034428247317
20775530 9 18190452762725787262
21033648 29 17313928810676487069
21049683 271 18334864866608153134
23559900 14 18261114088396986483
249057 25 17846501401353634665
34797466 226 16988010526231226213
44317340 157 18410295844098244475
474 4 18336263552403062153
513532 50 17846788437759579612
5219985 9 18265616477487300410
57816373 69 18201433615201627423
6523845 18 17689751917692987664
67856867 119 18272083924939950955
68570916 9 18272370902482164811
9981440 41 17978502371228967539

>  <PUBCHEM_SHAPE_MULTIPOLES>  (1) 
604.53
13.94
5.64
1.92
29.32
0.19
-0.94
3.6
2.42
-13.25
0.82
-0.82
-1.63
-0.81

>  <PUBCHEM_SHAPE_SELFOVERLAP>  (1) 
1268.653

>  <PUBCHEM_SHAPE_VOLUME>  (1) 
342.3

>  <PUBCHEM_COORDINATE_TYPE>  (1) 
2
5
10

$$$$
