46171
     RDKit          3D

 21 21  0  0  1  0  0  0  0  0999 V2000
   -5.5438   -1.4976    1.0450 Cl  0  0  0  0  0  0  0  0  0  0  0  0
   -1.9002   -1.3141   -0.5335 O   0  0  0  0  0  0  0  0  0  0  0  0
   -4.4051   -0.7508   -1.2320 O   0  0  0  0  0  0  0  0  0  0  0  0
   -0.7485    1.1694   -1.3474 C   0  0  0  0  0  0  0  0  0  0  0  0
    3.2915   -0.0817    1.3033 C   0  0  0  0  0  0  0  0  0  0  0  0
   -0.0400    0.1957   -0.4649 C   0  0  0  0  0  0  0  0  0  0  0  0
    1.8939   -0.4090    0.8062 C   0  0  0  0  0  0  0  0  0  0  0  0
   -0.9890    2.5587   -0.6937 C   0  0  0  0  0  0  0  0  0  0  0  0
    4.3156    0.0984    0.1623 C   0  0  0  0  0  0  0  0  0  0  0  0
    1.2434    0.4967   -0.0088 C   0  0  0  0  0  0  0  0  0  0  0  0
   -0.6474   -1.0048   -0.0970 C   0  0  0  0  0  0  0  0  0  0  0  0
   -0.0057    1.3586   -2.6864 C   0  0  0  0  0  0  0  0  0  0  0  0
   -1.8220    2.4687    0.5894 C   0  0  0  0  0  0  0  0  0  0  0  0
    3.2648    1.1650    2.1962 C   0  0  0  0  0  0  0  0  0  0  0  0
    4.4610   -1.1508   -0.7131 C   0  0  0  0  0  0  0  0  0  0  0  0
    1.3122   -1.6036    1.1834 C   0  0  0  0  0  0  0  0  0  0  0  0
    0.0288   -1.9045    0.7272 C   0  0  0  0  0  0  0  0  0  0  0  0
   -2.0112    3.8378    1.2245 C   0  0  0  0  0  0  0  0  0  0  0  0
    5.4672   -0.9292   -1.8323 C   0  0  0  0  0  0  0  0  0  0  0  0
   -2.9003   -1.5223    0.4618 C   0  0  0  0  0  0  0  0  0  0  0  0
   -4.2650   -1.1808   -0.0904 C   0  0  0  0  0  0  0  0  0  0  0  0
  1 21  1  0
  2 11  1  0
  2 20  1  0
  3 21  2  0
  4  6  1  0
  4  8  1  0
  4 12  1  0
  5  7  1  0
  5  9  1  0
  5 14  1  0
  6 10  2  0
  6 11  1  0
  7 10  1  0
  7 16  2  0
  8 13  1  0
  9 15  1  0
 11 17  2  0
 13 18  1  0
 15 19  1  0
 16 17  1  0
 20 21  1  0
M  END
>  <PUBCHEM_COMPOUND_CID>  (1) 
46171

>  <PUBCHEM_CONFORMER_RMSD>  (1) 
1

>  <PUBCHEM_CONFORMER_DIVERSEORDER>  (1) 
1
138
103
164
214
44
65
124
90
159
155
199
194
187
134
144
52
130
184
217
48
50
148
75
89
168
170
210
201
188
73
76
180
112
212
83
53
200
29
96
216
35
136
105
126
178
116
115
185
146
141
45
85
104
82
81
31
79
205
211
11
25
207
27
86
156
152
175
191
72
43
150
69
127
190
197
221
21
17
122
40
77
98
174
47
59
15
137
165
209
60
142
67
202
18
78
120
118
203
181
143
80
14
114
204
108
171
23
33
186
151
51
111
87
68
5
94
61
123
131
163
215
206
49
20
218
161
128
145
109
58
2
182
38
88
193
55
93
176
46
34
64
172
63
129
41
57
39
102
166
113
160
100
158
84
177
101
12
110
173
133
179
92
99
56
219
9
189
154
183
208
70
8
192
106
107
32
95
30
147
220
196
16
10
198
213
74
195
139
169
91
162
26
62
121
4
28
167
153
140
66
117
13
19
24
37
119
125
157
149
22
71
36
42
7
54
135
132
97
6
3

>  <PUBCHEM_MMFF94_PARTIAL_CHARGES>  (1) 
16
1 -0.21
10 -0.15
11 0.08
16 -0.15
17 -0.15
2 -0.36
20 0.34
21 0.72
28 0.15
3 -0.57
39 0.15
4 0.14
40 0.15
5 0.14
6 -0.14
7 -0.14

>  <PUBCHEM_EFFECTIVE_ROTOR_COUNT>  (1) 
9

>  <PUBCHEM_PHARMACOPHORE_FEATURES>  (1) 
6
1 12 hydrophobe
1 14 hydrophobe
1 18 hydrophobe
1 19 hydrophobe
1 2 acceptor
6 6 7 10 11 16 17 rings

>  <PUBCHEM_HEAVY_ATOM_COUNT>  (1) 
21

>  <PUBCHEM_ATOM_DEF_STEREO_COUNT>  (1) 
0

>  <PUBCHEM_ATOM_UDEF_STEREO_COUNT>  (1) 
2

>  <PUBCHEM_BOND_DEF_STEREO_COUNT>  (1) 
0

>  <PUBCHEM_BOND_UDEF_STEREO_COUNT>  (1) 
0

>  <PUBCHEM_ISOTOPIC_ATOM_COUNT>  (1) 
0

>  <PUBCHEM_COMPONENT_COUNT>  (1) 
1

>  <PUBCHEM_CACTVS_TAUTO_COUNT>  (1) 
1

>  <PUBCHEM_CONFORMER_ID>  (1) 
0000B45B00000001

>  <PUBCHEM_MMFF94_ENERGY>  (1) 
44.8429

>  <PUBCHEM_FEATURE_SELFOVERLAP>  (1) 
30.448

>  <PUBCHEM_SHAPE_FINGERPRINT>  (1) 
10165383 225 17977114457285596660
104564 63 18410009897527555641
11578080 2 16985220888357184197
11646440 116 18410296947794005115
12035759 4 17676499349287255742
12788726 201 18040712545791402578
12954195 1 18270126690962698214
13140716 1 17899402371177227154
13899415 154 18114190777867610955
14955137 171 18267033932469024667
15806764 133 17846213328790666552
1601671 61 17967810552667395511
16752209 62 18186793673732702974
16945 1 17824236367488873138
1813 80 18040431139523710071
18222031 100 18188765166922497535
20197701 30 10303825263014822269
20510252 161 18336530690589262288
20600515 1 17971457735852470640
20871999 31 18336840710488184878
23352939 185 17603590758977067389
23419403 2 16389528934870971982
23557571 272 18410299090149398159
25147074 1 17969780770620830914
2818148 4 18044374920740657242
312423 11 17896032149121563426
350125 39 18116417160270736058
394222 165 16081933809707188756
4098825 35 18271258123531067428
469060 322 17531243937430849497
6049 1 18131059429758581080
81228 2 18113897109262241851

>  <PUBCHEM_SHAPE_MULTIPOLES>  (1) 
422.3
9.51
3.03
1.94
0.65
3.08
-0.52
-5.64
-0.4
-3.21
0.86
1.3
0.8
0.55

>  <PUBCHEM_SHAPE_SELFOVERLAP>  (1) 
832.899

>  <PUBCHEM_SHAPE_VOLUME>  (1) 
253.8

>  <PUBCHEM_COORDINATE_TYPE>  (1) 
2
5
10

$$$$
