46179
     RDKit          3D

 21 21  0  0  1  0  0  0  0  0999 V2000
   -1.1519    0.0719    1.3102 O   0  0  0  0  0  0  0  0  0  0  0  0
    0.9159   -0.5825   -0.4771 O   0  0  0  0  0  0  0  0  0  0  0  0
    1.4999    1.9643   -1.0910 O   0  0  0  0  0  0  0  0  0  0  0  0
   -3.2590    0.1974   -0.5888 N   0  0  0  0  0  0  0  0  0  0  0  0
   -4.2110   -0.8099   -0.1157 C   0  0  0  0  0  0  0  0  0  0  0  0
   -3.1059    1.2579    0.4095 C   0  0  0  0  0  0  0  0  0  0  0  0
   -1.9719   -0.4138   -0.8914 C   0  0  0  0  0  0  0  0  0  0  0  0
   -1.2987   -0.9859    0.3585 C   0  0  0  0  0  0  0  0  0  0  0  0
   -3.6856   -1.4811    1.1501 C   0  0  0  0  0  0  0  0  0  0  0  0
   -4.4554   -1.8351   -1.2185 C   0  0  0  0  0  0  0  0  0  0  0  0
   -4.4590    1.8917    0.7197 C   0  0  0  0  0  0  0  0  0  0  0  0
   -2.1175    2.2999   -0.1041 C   0  0  0  0  0  0  0  0  0  0  0  0
    0.0767   -1.5887    0.0811 C   0  0  0  0  0  0  0  0  0  0  0  0
    2.2547   -0.6778   -0.2059 C   0  0  0  0  0  0  0  0  0  0  0  0
    3.0468    0.4641   -0.1319 C   0  0  0  0  0  0  0  0  0  0  0  0
    2.8120   -1.9371   -0.0037 C   0  0  0  0  0  0  0  0  0  0  0  0
    4.4084    0.3457    0.1472 C   0  0  0  0  0  0  0  0  0  0  0  0
    4.1735   -2.0554    0.2755 C   0  0  0  0  0  0  0  0  0  0  0  0
    2.4786    1.7887   -0.3398 C   0  0  0  0  0  0  0  0  0  0  0  0
    4.9717   -0.9141    0.3508 C   0  0  0  0  0  0  0  0  0  0  0  0
    3.0779    2.9995    0.3653 C   0  0  0  0  0  0  0  0  0  0  0  0
  1  8  1  0
  2 13  1  0
  2 14  1  0
  3 19  2  0
  4  5  1  0
  4  6  1  0
  4  7  1  0
  5  9  1  0
  5 10  1  0
  6 11  1  0
  6 12  1  0
  7  8  1  0
  8 13  1  0
 14 15  2  0
 14 16  1  0
 15 17  1  0
 15 19  1  0
 16 18  2  0
 17 20  2  0
 18 20  1  0
 19 21  1  0
M  END
>  <PUBCHEM_COMPOUND_CID>  (1) 
46179

>  <PUBCHEM_CONFORMER_RMSD>  (1) 
0.8

>  <PUBCHEM_CONFORMER_DIVERSEORDER>  (1) 
1
6
5
3
2
4
7

>  <PUBCHEM_MMFF94_PARTIAL_CHARGES>  (1) 
22
1 -0.68
13 0.28
14 0.08
15 0.09
16 -0.15
17 -0.15
18 -0.15
19 0.42
2 -0.36
20 -0.15
21 0.06
3 -0.57
4 -0.81
41 0.4
42 0.15
43 0.15
44 0.15
45 0.15
5 0.27
6 0.27
7 0.27
8 0.28

>  <PUBCHEM_EFFECTIVE_ROTOR_COUNT>  (1) 
8

>  <PUBCHEM_PHARMACOPHORE_FEATURES>  (1) 
8
1 1 acceptor
1 1 donor
1 2 acceptor
1 3 acceptor
1 4 cation
3 5 9 10 hydrophobe
3 6 11 12 hydrophobe
6 14 15 16 17 18 20 rings

>  <PUBCHEM_HEAVY_ATOM_COUNT>  (1) 
21

>  <PUBCHEM_ATOM_DEF_STEREO_COUNT>  (1) 
0

>  <PUBCHEM_ATOM_UDEF_STEREO_COUNT>  (1) 
1

>  <PUBCHEM_BOND_DEF_STEREO_COUNT>  (1) 
0

>  <PUBCHEM_BOND_UDEF_STEREO_COUNT>  (1) 
0

>  <PUBCHEM_ISOTOPIC_ATOM_COUNT>  (1) 
0

>  <PUBCHEM_COMPONENT_COUNT>  (1) 
1

>  <PUBCHEM_CACTVS_TAUTO_COUNT>  (1) 
2

>  <PUBCHEM_CONFORMER_ID>  (1) 
0000B46300000001

>  <PUBCHEM_MMFF94_ENERGY>  (1) 
109.0105

>  <PUBCHEM_FEATURE_SELFOVERLAP>  (1) 
40.606

>  <PUBCHEM_SHAPE_FINGERPRINT>  (1) 
10062212 137 18342736299972521515
10366900 7 17894633660372072002
1100329 8 16315825882963775576
11405975 8 18410577262617673731
12107183 9 17835519319326269466
12166972 35 18202845470167664250
12236239 1 18131911555554732862
12403259 226 18408879629343918172
12403260 363 18411412938351523670
12403814 3 18202003248650966575
12507557 5 18410571764658666417
12633257 1 18339648828098266605
12916754 54 18410854373913087559
13140716 1 18409456860274621337
13167823 11 18341890796594791343
13224815 77 18131356318903243059
13533116 47 18337953497263793175
13583140 156 17967807262823011203
14251739 40 18411980256571612798
14251764 38 18411420613574438033
14289901 80 18341891926503265643
14341114 176 18335991895336624139
14790565 3 18119254102672476812
15196674 1 18410575084821672300
15295992 7 18188788179182865481
15442244 35 18409729517656768150
15788980 27 17418089888955204766
1601671 61 18411703154419865316
17349148 13 18343018900072817514
17492 89 18413671300918117583
17802600 8 18409726270387309228
17844677 252 18343306959123532042
18186145 218 17748824111850389187
19050596 39 18410016520224694701
19930381 70 18122341552038043505
200 152 18411695513246193543
20715895 44 17984424036404510217
21033648 29 17095510795416390677
21267235 1 18410863165331607134
21709351 56 18341326721433415006
23227448 37 18340487751660381389
23402539 116 18411130325445947559
23557571 272 17561083596661233791
23559900 14 18410849945485450266
312423 11 18336837458565029927
3286 77 18335136505412949630
345986 75 17317585606041095522
350125 39 18410858763164007077
351380 180 18409164415544903843
4214541 1 18411981330107578275
474 4 18335703827606109259
5104073 3 18409730659748895488
67856867 119 18341886445956008968
9709674 26 18411425002952003638
9971528 1 18342175515089065598
9981440 41 17761204814875186760

>  <PUBCHEM_SHAPE_MULTIPOLES>  (1) 
409.58
10.72
2.87
0.97
0
1.5
-0.01
-1.6
-0.63
-0.68
-0.04
0.74
-0.09
-0.78

>  <PUBCHEM_SHAPE_SELFOVERLAP>  (1) 
834.034

>  <PUBCHEM_SHAPE_VOLUME>  (1) 
240.1

>  <PUBCHEM_COORDINATE_TYPE>  (1) 
2
5
10

$$$$
