46186
     RDKit          3D

 27 29  0  0  1  0  0  0  0  0999 V2000
   -3.8798   -1.8641   -0.6499 O   0  0  0  0  0  0  0  0  0  0  0  0
    2.7346   -3.6952    0.1772 O   0  0  0  0  0  0  0  0  0  0  0  0
    3.1460   -0.9475    0.0665 O   0  0  0  0  0  0  0  0  0  0  0  0
    2.4666    0.3324   -2.1928 O   0  0  0  0  0  0  0  0  0  0  0  0
   -0.2820   -1.6259   -0.4315 N   0  0  0  0  0  0  0  0  0  0  0  0
   -3.1069   -0.7283   -0.2342 C   0  0  0  0  0  0  0  0  0  0  0  0
   -2.2480   -1.1120    0.9929 C   0  0  0  0  0  0  0  0  0  0  0  0
   -2.1627   -0.3491   -1.3968 C   0  0  0  0  0  0  0  0  0  0  0  0
   -1.1305   -2.1097    0.6623 C   0  0  0  0  0  0  0  0  0  0  0  0
   -1.0690   -1.3939   -1.6475 C   0  0  0  0  0  0  0  0  0  0  0  0
    0.8032   -2.5703   -0.6953 C   0  0  0  0  0  0  0  0  0  0  0  0
   -4.1303    0.3445    0.1420 C   0  0  0  0  0  0  0  0  0  0  0  0
    1.6840   -2.7933    0.5365 C   0  0  0  0  0  0  0  0  0  0  0  0
   -5.0344    0.1113    1.1773 C   0  0  0  0  0  0  0  0  0  0  0  0
   -4.1576    1.5537   -0.5514 C   0  0  0  0  0  0  0  0  0  0  0  0
    2.3092   -1.5078    1.0736 C   0  0  0  0  0  0  0  0  0  0  0  0
   -5.9678    1.0897    1.5199 C   0  0  0  0  0  0  0  0  0  0  0  0
   -5.0908    2.5320   -0.2086 C   0  0  0  0  0  0  0  0  0  0  0  0
   -5.9959    2.3000    0.8270 C   0  0  0  0  0  0  0  0  0  0  0  0
    3.7797    0.2262    0.3759 C   0  0  0  0  0  0  0  0  0  0  0  0
    3.5548    1.3743   -0.3779 C   0  0  0  0  0  0  0  0  0  0  0  0
    4.6531    0.2537    1.4594 C   0  0  0  0  0  0  0  0  0  0  0  0
    4.2091    2.5605   -0.0453 C   0  0  0  0  0  0  0  0  0  0  0  0
    5.3072    1.4400    1.7919 C   0  0  0  0  0  0  0  0  0  0  0  0
    2.6433    1.3621   -1.5136 C   0  0  0  0  0  0  0  0  0  0  0  0
    5.0852    2.5933    1.0396 C   0  0  0  0  0  0  0  0  0  0  0  0
    1.8796    2.6237   -1.8973 C   0  0  0  0  0  0  0  0  0  0  0  0
  1  6  1  0
  2 13  1  0
  3 16  1  0
  3 20  1  0
  4 25  2  0
  5  9  1  0
  5 10  1  0
  5 11  1  0
  6  7  1  0
  6  8  1  0
  6 12  1  0
  7  9  1  0
  8 10  1  0
 11 13  1  0
 12 14  2  0
 12 15  1  0
 13 16  1  0
 14 17  1  0
 15 18  2  0
 17 19  2  0
 18 19  1  0
 20 21  2  0
 20 22  1  0
 21 23  1  0
 21 25  1  0
 22 24  2  0
 23 26  2  0
 24 26  1  0
 25 27  1  0
M  END
>  <PUBCHEM_COMPOUND_CID>  (1) 
46186

>  <PUBCHEM_CONFORMER_RMSD>  (1) 
1

>  <PUBCHEM_CONFORMER_DIVERSEORDER>  (1) 
2
381
190
408
488
331
98
281
221
184
430
242
128
338
60
432
233
407
92
367
298
99
129
48
360
135
150
144
243
374
201
378
42
132
364
472
185
200
480
271
416
125
418
56
29
160
479
1
365
95
321
375
208
474
455
230
205
410
450
401
475
265
349
299
58
405
23
133
314
153
186
248
57
14
306
234
31
193
293
322
342
180
414
37
308
33
317
411
143
380
454
377
291
210
491
161
357
253
391
269
123
310
332
217
218
8
304
442
339
154
68
228
43
470
134
238
384
345
278
112
78
147
89
97
261
436
215
256
20
294
319
427
103
18
169
327
489
222
330
255
376
59
45
121
341
309
303
412
311
79
445
61
28
456
268
75
382
141
355
370
460
188
257
114
66
163
16
386
44
403
175
158
122
232
241
244
167
358
395
439
86
295
392
189
275
178
27
260
423
70
127
176
333
344
223
286
413
76
415
165
171
130
63
239
404
73
289
390
371
469
120
74
443
284
462
264
137
354
420
346
96
468
119
219
447
245
170
440
449
336
434
227
307
155
426
250
471
385
301
181
231
40
292
183
398
207
379
476
146
267
273
192
172
348
117
277
196
406
206
85
451
235
487
47
372
209
102
88
279
21
481
67
213
368
424
100
383
110
204
240
396
463
53
290
287
312
457
24
373
458
17
272
446
429
164
126
274
453
87
296
159
113
452
105
258
394
115
435
107
220
236
104
140
108
366
425
369
466
111
80
5
335
465
254
467
326
225
212
166
237
203
441
313
464
7
362
285
157
363
409
6
399
91
461
353
282
118
297
325
483
490
131
397
324
177
262
202
71
50
431
216
30
93
315
151
15
486
334
229
174
224
148
55
41
139
39
259
421
82
65
302
351
34
46
252
400
9
83
485
419
329
198
11
347
4
477
484
251
361
343
266
280
149
283
337
101
168
350
49
340
263
270
247
77
156
51
352
197
276
402
482
389
136
433
64
359
84
194
422
448
162
10
393
22
152
316
288
52
211
387
32
249
320
459
187
94
142
195
226
428
145
173
25
182
106
328
246
473
214
116
305
109
323
81
318
417
35
19
54
444
199
438
12
62
478
26
191
36
388
356
179
437
90
72
38
69
13
3
300
124
138

>  <PUBCHEM_MMFF94_PARTIAL_CHARGES>  (1) 
36
1 -0.68
10 0.27
11 0.27
12 -0.14
13 0.28
14 -0.15
15 -0.15
16 0.28
17 -0.15
18 -0.15
19 -0.15
2 -0.68
20 0.08
21 0.09
22 -0.15
23 -0.15
24 -0.15
25 0.42
26 -0.15
27 0.06
3 -0.36
39 0.4
4 -0.57
40 0.15
41 0.15
44 0.15
45 0.15
46 0.4
47 0.15
48 0.15
49 0.15
5 -0.81
50 0.15
51 0.15
6 0.42
9 0.27

>  <PUBCHEM_EFFECTIVE_ROTOR_COUNT>  (1) 
8.2

>  <PUBCHEM_PHARMACOPHORE_FEATURES>  (1) 
10
1 1 acceptor
1 1 donor
1 2 acceptor
1 2 donor
1 3 acceptor
1 4 acceptor
1 5 cation
6 12 14 15 17 18 19 rings
6 20 21 22 23 24 26 rings
6 5 6 7 8 9 10 rings

>  <PUBCHEM_HEAVY_ATOM_COUNT>  (1) 
27

>  <PUBCHEM_ATOM_DEF_STEREO_COUNT>  (1) 
0

>  <PUBCHEM_ATOM_UDEF_STEREO_COUNT>  (1) 
1

>  <PUBCHEM_BOND_DEF_STEREO_COUNT>  (1) 
0

>  <PUBCHEM_BOND_UDEF_STEREO_COUNT>  (1) 
0

>  <PUBCHEM_ISOTOPIC_ATOM_COUNT>  (1) 
0

>  <PUBCHEM_COMPONENT_COUNT>  (1) 
1

>  <PUBCHEM_CACTVS_TAUTO_COUNT>  (1) 
2

>  <PUBCHEM_CONFORMER_ID>  (1) 
0000B46A00000002

>  <PUBCHEM_MMFF94_ENERGY>  (1) 
81.4609

>  <PUBCHEM_FEATURE_SELFOVERLAP>  (1) 
50.758

>  <PUBCHEM_SHAPE_FINGERPRINT>  (1) 
10042902 136 7925645422496119050
10483366 6 17898320289265217214
10673678 19 18129946664072602777
10674148 151 18335712667920526908
10928967 22 11747208121354455601
117089 54 10809885350839326080
11720765 8 17488198002349539670
12422481 6 18042387085158674808
12633257 1 17022900189784133050
12788726 201 17472148748155974854
12925494 130 17900259694390748357
13965767 371 18260534641953709318
14068700 675 13612302918719512052
14251764 30 12901810698094300680
14251764 75 18338804532070102608
14466204 15 18339074994676715808
14739800 52 18202279186976911713
14765038 42 18116432747008090860
14848178 5 10665231475284946633
14950920 106 16660365917603048705
15163728 17 17489315170081596775
15475509 35 12180720225017370821
17810953 82 18410295774424017904
19377110 9 18410015477091538939
1979834 28 18260836972701051557
21033648 29 18270390720204402144
21792934 111 17678476182292965489
22122407 14 18054520110578356937
23559900 14 17843976844788661343
2838139 119 18200589186360947533
3459 39 18129359640374164504
3472631 163 17775281690029802193
392239 28 16370721577902848315
5104073 3 18261107461452405411
513532 50 18201729405572730702
57724786 102 18058454192956750355
6371009 1 18191858144675813909
7064713 232 18335975480325098644
7970288 3 8430054061082564000
79837 15 18116433837127982802
960060 61 13039188091335348843
9981440 41 18337110167624720907

>  <PUBCHEM_SHAPE_MULTIPOLES>  (1) 
527.19
14.11
3.77
1.74
8.84
1.01
-0.37
-12.18
6.63
-1.8
-0.12
-0.82
-0.54
-0.63

>  <PUBCHEM_SHAPE_SELFOVERLAP>  (1) 
1115.536

>  <PUBCHEM_SHAPE_VOLUME>  (1) 
294.5

>  <PUBCHEM_COORDINATE_TYPE>  (1) 
2
5
10

$$$$
