46187
     RDKit          3D

 28 30  0  0  1  0  0  0  0  0999 V2000
   -2.8614    3.5304    1.0900 O   0  0  0  0  0  0  0  0  0  0  0  0
   -3.4952    0.8519    0.6959 O   0  0  0  0  0  0  0  0  0  0  0  0
    4.5267    0.5925   -1.7969 O   0  0  0  0  0  0  0  0  0  0  0  0
   -4.4301    1.0213   -1.8143 O   0  0  0  0  0  0  0  0  0  0  0  0
   -0.0263    1.3026    0.2240 N   0  0  0  0  0  0  0  0  0  0  0  0
    2.6081    0.1986    0.2366 N   0  0  0  0  0  0  0  0  0  0  0  0
    0.7030    1.1080   -1.0353 C   0  0  0  0  0  0  0  0  0  0  0  0
    0.9149    1.6379    1.2993 C   0  0  0  0  0  0  0  0  0  0  0  0
    1.7202   -0.0286   -0.9106 C   0  0  0  0  0  0  0  0  0  0  0  0
    1.9404    0.5196    1.5017 C   0  0  0  0  0  0  0  0  0  0  0  0
   -1.0326    2.3535    0.0766 C   0  0  0  0  0  0  0  0  0  0  0  0
   -1.8855    2.5142    1.3373 C   0  0  0  0  0  0  0  0  0  0  0  0
    3.8444   -0.4569    0.2511 C   0  0  0  0  0  0  0  0  0  0  0  0
   -2.6101    1.2330    1.7446 C   0  0  0  0  0  0  0  0  0  0  0  0
    4.7999   -0.2571   -0.7667 C   0  0  0  0  0  0  0  0  0  0  0  0
    4.1702   -1.3445    1.2968 C   0  0  0  0  0  0  0  0  0  0  0  0
    6.0286   -0.9168   -0.7393 C   0  0  0  0  0  0  0  0  0  0  0  0
    5.3989   -2.0043    1.3241 C   0  0  0  0  0  0  0  0  0  0  0  0
    6.3281   -1.7905    0.3061 C   0  0  0  0  0  0  0  0  0  0  0  0
   -3.7269   -0.4889    0.5434 C   0  0  0  0  0  0  0  0  0  0  0  0
   -4.0155   -1.0212   -0.7097 C   0  0  0  0  0  0  0  0  0  0  0  0
    4.8991    1.9583   -1.6259 C   0  0  0  0  0  0  0  0  0  0  0  0
   -3.6680   -1.3134    1.6632 C   0  0  0  0  0  0  0  0  0  0  0  0
   -4.2470   -2.3902   -0.8443 C   0  0  0  0  0  0  0  0  0  0  0  0
   -3.8993   -2.6824    1.5286 C   0  0  0  0  0  0  0  0  0  0  0  0
   -4.0797   -0.1722   -1.8912 C   0  0  0  0  0  0  0  0  0  0  0  0
   -4.1889   -3.2206    0.2749 C   0  0  0  0  0  0  0  0  0  0  0  0
   -3.7157   -0.7343   -3.2600 C   0  0  0  0  0  0  0  0  0  0  0  0
  1 12  1  0
  2 14  1  0
  2 20  1  0
  3 15  1  0
  3 22  1  0
  4 26  2  0
  5  7  1  0
  5  8  1  0
  5 11  1  0
  6  9  1  0
  6 10  1  0
  6 13  1  0
  7  9  1  0
  8 10  1  0
 11 12  1  0
 12 14  1  0
 13 15  2  0
 13 16  1  0
 15 17  1  0
 16 18  2  0
 17 19  2  0
 18 19  1  0
 20 21  2  0
 20 23  1  0
 21 24  1  0
 21 26  1  0
 23 25  2  0
 24 27  2  0
 25 27  1  0
 26 28  1  0
M  END
>  <PUBCHEM_COMPOUND_CID>  (1) 
46187

>  <PUBCHEM_CONFORMER_RMSD>  (1) 
1.2

>  <PUBCHEM_CONFORMER_DIVERSEORDER>  (1) 
2
364
270
291
297
28
480
284
93
235
418
252
269
18
85
21
16
185
154
324
378
121
37
315
38
3
118
100
131
186
306
470
115
380
304
457
213
149
198
383
35
62
95
481
483
102
422
99
326
311
10
249
345
148
40
155
328
388
460
188
510
390
184
29
27
464
141
454
82
34
76
146
382
263
253
6
9
350
32
33
130
275
135
127
337
45
23
254
271
438
410
105
30
15
293
363
318
48
39
395
79
349
250
319
162
320
406
55
178
166
362
283
280
11
86
122
67
434
431
7
356
142
334
73
59
36
374
123
501
4
42
75
69
308
1
54
152

>  <PUBCHEM_MMFF94_PARTIAL_CHARGES>  (1) 
37
1 -0.68
10 0.37
11 0.27
12 0.28
13 0.1
14 0.28
15 0.08
16 -0.15
17 -0.15
18 -0.15
19 -0.15
2 -0.36
20 0.08
21 0.09
22 0.28
23 -0.15
24 -0.15
25 -0.15
26 0.42
27 -0.15
28 0.06
3 -0.36
4 -0.57
42 0.15
43 0.4
44 0.15
45 0.15
46 0.15
5 -0.81
50 0.15
51 0.15
52 0.15
53 0.15
6 -0.84
7 0.27
8 0.27
9 0.37

>  <PUBCHEM_EFFECTIVE_ROTOR_COUNT>  (1) 
9.2

>  <PUBCHEM_PHARMACOPHORE_FEATURES>  (1) 
10
1 1 acceptor
1 1 donor
1 2 acceptor
1 3 acceptor
1 4 acceptor
1 5 cation
1 6 cation
6 13 15 16 17 18 19 rings
6 20 21 23 24 25 27 rings
6 5 6 7 8 9 10 rings

>  <PUBCHEM_HEAVY_ATOM_COUNT>  (1) 
28

>  <PUBCHEM_ATOM_DEF_STEREO_COUNT>  (1) 
0

>  <PUBCHEM_ATOM_UDEF_STEREO_COUNT>  (1) 
1

>  <PUBCHEM_BOND_DEF_STEREO_COUNT>  (1) 
0

>  <PUBCHEM_BOND_UDEF_STEREO_COUNT>  (1) 
0

>  <PUBCHEM_ISOTOPIC_ATOM_COUNT>  (1) 
0

>  <PUBCHEM_COMPONENT_COUNT>  (1) 
1

>  <PUBCHEM_CACTVS_TAUTO_COUNT>  (1) 
2

>  <PUBCHEM_CONFORMER_ID>  (1) 
0000B46B00000002

>  <PUBCHEM_MMFF94_ENERGY>  (1) 
105.6862

>  <PUBCHEM_FEATURE_SELFOVERLAP>  (1) 
50.761

>  <PUBCHEM_SHAPE_FINGERPRINT>  (1) 
105312 117 11674878879155521744
10675989 125 9723198439706683379
10928967 22 17632297903830135046
11135609 201 13684291458447639602
11273773 118 8862938416420042242
11370993 144 14548201830176934999
12616971 3 18115322076743666544
12633257 1 15697729219640356275
12969540 114 15357704093425524960
13782708 43 17417816085528758518
14114206 34 18335971005127594313
14251764 75 10882494917326581359
14844126 61 17846491501058429945
14848178 5 18409160009336090194
15183329 4 15502649382710500458
15250474 111 18334576789971225242
15484559 13 14138873150070616860
18927931 339 18202007611826068935
20775530 9 17980762967595162383
22393880 68 16877936148682570338
23559900 14 18411409639769583953
312425 83 16805871931662959119
328310 18 13407081383365021046
3383291 50 17561360674398535847
3459 110 14979954778721811203
392239 28 14692565541824240122
4015057 19 17604446175304094072
4098825 35 17240483585645578299
484985 159 18410295809575229187
508706 21 18131078082174112079
5283173 99 14779548959349202460
57816373 69 17759224221262154474
6431902 208 18413669110721919906
6669772 16 17476650148876588796
7970288 3 18269276935931582075

>  <PUBCHEM_SHAPE_MULTIPOLES>  (1) 
542.79
14.9
3.25
2.3
14.84
0.27
-1.19
-9.44
-3.17
-2.85
1.31
-2.01
0.15
-1.64

>  <PUBCHEM_SHAPE_SELFOVERLAP>  (1) 
1141.627

>  <PUBCHEM_SHAPE_VOLUME>  (1) 
306

>  <PUBCHEM_COORDINATE_TYPE>  (1) 
2
5
10

$$$$
