46184
     RDKit          3D

 27 29  0  0  1  0  0  0  0  0999 V2000
    4.3928    1.1029    1.3630 O   0  0  0  0  0  0  0  0  0  0  0  0
   -1.7156    4.2137    0.4702 O   0  0  0  0  0  0  0  0  0  0  0  0
   -2.9581    1.7738   -0.1302 O   0  0  0  0  0  0  0  0  0  0  0  0
   -6.1899   -1.4866    1.9849 O   0  0  0  0  0  0  0  0  0  0  0  0
    1.3140    2.1793   -0.1895 N   0  0  0  0  0  0  0  0  0  0  0  0
    3.6297    0.4042    0.3683 C   0  0  0  0  0  0  0  0  0  0  0  0
    2.2046    0.1386    0.9061 C   0  0  0  0  0  0  0  0  0  0  0  0
    3.5249    1.3174   -0.8735 C   0  0  0  0  0  0  0  0  0  0  0  0
    1.3676    1.4149    1.0608 C   0  0  0  0  0  0  0  0  0  0  0  0
    2.6591    2.5598   -0.6341 C   0  0  0  0  0  0  0  0  0  0  0  0
    0.4718    3.3645   -0.0306 C   0  0  0  0  0  0  0  0  0  0  0  0
    4.3706   -0.9143    0.1390 C   0  0  0  0  0  0  0  0  0  0  0  0
   -0.9588    3.0034    0.3762 C   0  0  0  0  0  0  0  0  0  0  0  0
    4.5262   -1.8171    1.1898 C   0  0  0  0  0  0  0  0  0  0  0  0
    4.8895   -1.2108   -1.1206 C   0  0  0  0  0  0  0  0  0  0  0  0
   -1.6527    2.0720   -0.6153 C   0  0  0  0  0  0  0  0  0  0  0  0
    5.2022   -3.0192    0.9805 C   0  0  0  0  0  0  0  0  0  0  0  0
    5.5653   -2.4129   -1.3298 C   0  0  0  0  0  0  0  0  0  0  0  0
    5.7217   -3.3170   -0.2793 C   0  0  0  0  0  0  0  0  0  0  0  0
   -3.4831    0.5594   -0.4831 C   0  0  0  0  0  0  0  0  0  0  0  0
   -4.3774   -0.0791    0.3695 C   0  0  0  0  0  0  0  0  0  0  0  0
   -3.1163   -0.0251   -1.6906 C   0  0  0  0  0  0  0  0  0  0  0  0
   -4.9110   -1.3168    0.0102 C   0  0  0  0  0  0  0  0  0  0  0  0
   -3.6501   -1.2627   -2.0499 C   0  0  0  0  0  0  0  0  0  0  0  0
   -4.5474   -1.9085   -1.1995 C   0  0  0  0  0  0  0  0  0  0  0  0
   -5.8464   -1.9905    0.8971 C   0  0  0  0  0  0  0  0  0  0  0  0
   -6.4332   -3.3437    0.5104 C   0  0  0  0  0  0  0  0  0  0  0  0
  1  6  1  0
  2 13  1  0
  3 16  1  0
  3 20  1  0
  4 26  2  0
  5  9  1  0
  5 10  1  0
  5 11  1  0
  6  7  1  0
  6  8  1  0
  6 12  1  0
  7  9  1  0
  8 10  1  0
 11 13  1  0
 12 14  2  0
 12 15  1  0
 13 16  1  0
 14 17  1  0
 15 18  2  0
 17 19  2  0
 18 19  1  0
 20 21  2  0
 20 22  1  0
 21 23  1  0
 22 24  2  0
 23 25  2  0
 23 26  1  0
 24 25  1  0
 26 27  1  0
M  END
>  <PUBCHEM_COMPOUND_CID>  (1) 
46184

>  <PUBCHEM_CONFORMER_RMSD>  (1) 
1.2

>  <PUBCHEM_CONFORMER_DIVERSEORDER>  (1) 
2
13
369
81
94
152
176
404
313
500
58
325
230
386
157
76
6
296
28
362
69
465
413
49
39
107
191
12
85
179
163
103
161
114
420
229
110
17
259
204
448
323
50
55
181
193
329
418
15
84
27
122
64
167
66
217
100
99
158
433
482
109
11
115
47
7
48
63
20
216
52
29
463
354
140
111
54
138
3
335
172
42
101
14
1
142
70
33
34
68
185
314
137
436
102
5
98
32
357
242
148
222
128
151
470
30
89
171
67
62
348
113
72
41
266
130
361
164
244
305
37
430
136
9
79
18
10
4
129
461
8

>  <PUBCHEM_MMFF94_PARTIAL_CHARGES>  (1) 
36
1 -0.68
10 0.27
11 0.27
12 -0.14
13 0.28
14 -0.15
15 -0.15
16 0.28
17 -0.15
18 -0.15
19 -0.15
2 -0.68
20 0.08
21 -0.15
22 -0.15
23 0.09
24 -0.15
25 -0.15
26 0.42
27 0.06
3 -0.36
39 0.4
4 -0.57
40 0.15
41 0.15
44 0.15
45 0.15
46 0.4
47 0.15
48 0.15
49 0.15
5 -0.81
50 0.15
51 0.15
6 0.42
9 0.27

>  <PUBCHEM_EFFECTIVE_ROTOR_COUNT>  (1) 
8.2

>  <PUBCHEM_PHARMACOPHORE_FEATURES>  (1) 
10
1 1 acceptor
1 1 donor
1 2 acceptor
1 2 donor
1 3 acceptor
1 4 acceptor
1 5 cation
6 12 14 15 17 18 19 rings
6 20 21 22 23 24 25 rings
6 5 6 7 8 9 10 rings

>  <PUBCHEM_HEAVY_ATOM_COUNT>  (1) 
27

>  <PUBCHEM_ATOM_DEF_STEREO_COUNT>  (1) 
0

>  <PUBCHEM_ATOM_UDEF_STEREO_COUNT>  (1) 
1

>  <PUBCHEM_BOND_DEF_STEREO_COUNT>  (1) 
0

>  <PUBCHEM_BOND_UDEF_STEREO_COUNT>  (1) 
0

>  <PUBCHEM_ISOTOPIC_ATOM_COUNT>  (1) 
0

>  <PUBCHEM_COMPONENT_COUNT>  (1) 
1

>  <PUBCHEM_CACTVS_TAUTO_COUNT>  (1) 
2

>  <PUBCHEM_CONFORMER_ID>  (1) 
0000B46800000002

>  <PUBCHEM_MMFF94_ENERGY>  (1) 
80.1477

>  <PUBCHEM_FEATURE_SELFOVERLAP>  (1) 
50.751

>  <PUBCHEM_SHAPE_FINGERPRINT>  (1) 
10042902 136 18338235934830285900
10169797 241 18272649039984560170
10622 236 18262513681110652338
10928967 22 18341887515350495287
11315621 136 18333454231749060932
11455722 242 18336549314686445878
117089 54 18409458002689020971
11991303 11 17897724259147309517
12107183 9 18271259291773280385
12166972 35 17822300088525371030
12422481 6 17489872596269329823
12633257 1 15841257229567781604
1361 87 17677340527787127603
13782708 43 17822288046149391779
13911852 28 18339359777447553205
14251740 57 18410012173564881912
14251764 30 18408889550839769195
14420673 8 18411141295324826949
14429380 30 18336261246116829154
14480069 147 18187370921569111611
14848178 96 8358261466468224588
14866123 147 18268712706578761321
15537594 2 18199752603603255165
15669420 48 17386303089806430364
15728490 83 18265336105694725459
16728300 4 18200039568613987843
17492 89 18409729551922015724
17909252 39 18338518642199061544
19303781 99 18335689530125010062
19319366 153 17905610252298259652
20691028 202 8069750749385677343
20775530 9 18411409601103659020
23379529 103 18410011039535214626
2748736 6 9367346998770796619
2838139 119 10954042385281491092
3459 39 9006765472029962222
345986 75 17916876832331849921
3737641 26 18411978087323016713
3862424 121 16300097803527591867
3991529 202 18191046663137477659
4112364 45 12103577337876334023
439807 62 18260270724465967503
44062 13 18263075522625271893
44880168 125 17274825714342327862
46194498 28 17386566997866084836
474113 269 18200589328865573887
484985 159 18265615386538921825
50009960 94 18044908261432601346
5104073 3 18202561752754360264
513202 73 18408891728999786729
56633871 153 18202001071028980743
613672 6 18266152050675209041
6431902 208 18339069407235214262
7808743 9 8430016686261024508
7918774 8 18334577970965697659
7970288 3 18338796835810195051
86090 222 17459745024834459067
88748 71 18408884053265734741

>  <PUBCHEM_SHAPE_MULTIPOLES>  (1) 
527.19
17.11
4.89
1.52
6.6
1.66
0.2
-21.65
-1.76
-0.72
-0.48
0.66
-0.7
0.8

>  <PUBCHEM_SHAPE_SELFOVERLAP>  (1) 
1113.832

>  <PUBCHEM_SHAPE_VOLUME>  (1) 
295.2

>  <PUBCHEM_COORDINATE_TYPE>  (1) 
2
5
10

$$$$
