46181
     RDKit          3D

 21 21  0  0  1  0  0  0  0  0999 V2000
    1.6477    2.0298   -2.1527 O   0  0  0  0  0  0  0  0  0  0  0  0
   -0.6253    0.6468   -1.2704 O   0  0  0  0  0  0  0  0  0  0  0  0
   -6.0146   -0.2716    1.1409 O   0  0  0  0  0  0  0  0  0  0  0  0
    3.2752   -0.2446    0.2739 N   0  0  0  0  0  0  0  0  0  0  0  0
    4.6260   -0.8087    0.3176 C   0  0  0  0  0  0  0  0  0  0  0  0
    2.9723    0.4421    1.5315 C   0  0  0  0  0  0  0  0  0  0  0  0
    3.1340    0.6645   -0.8553 C   0  0  0  0  0  0  0  0  0  0  0  0
    1.7006    1.1802   -1.0031 C   0  0  0  0  0  0  0  0  0  0  0  0
    4.9180   -1.5827   -0.9648 C   0  0  0  0  0  0  0  0  0  0  0  0
    4.7618   -1.7073    1.5428 C   0  0  0  0  0  0  0  0  0  0  0  0
    1.5411    0.9715    1.5137 C   0  0  0  0  0  0  0  0  0  0  0  0
    3.9725    1.5737    1.7458 C   0  0  0  0  0  0  0  0  0  0  0  0
    0.6714    0.0652   -1.1747 C   0  0  0  0  0  0  0  0  0  0  0  0
   -1.6736   -0.1098   -0.8195 C   0  0  0  0  0  0  0  0  0  0  0  0
   -2.7984    0.5154   -0.2918 C   0  0  0  0  0  0  0  0  0  0  0  0
   -1.6038   -1.4970   -0.8922 C   0  0  0  0  0  0  0  0  0  0  0  0
   -3.8657   -0.2556    0.1684 C   0  0  0  0  0  0  0  0  0  0  0  0
   -2.6712   -2.2680   -0.4321 C   0  0  0  0  0  0  0  0  0  0  0  0
   -3.8021   -1.6474    0.0983 C   0  0  0  0  0  0  0  0  0  0  0  0
   -5.0449    0.3913    0.7219 C   0  0  0  0  0  0  0  0  0  0  0  0
   -5.1210    1.9122    0.8016 C   0  0  0  0  0  0  0  0  0  0  0  0
  1  8  1  0
  2 13  1  0
  2 14  1  0
  3 20  2  0
  4  5  1  0
  4  6  1  0
  4  7  1  0
  5  9  1  0
  5 10  1  0
  6 11  1  0
  6 12  1  0
  7  8  1  0
  8 13  1  0
 14 15  2  0
 14 16  1  0
 15 17  1  0
 16 18  2  0
 17 19  2  0
 17 20  1  0
 18 19  1  0
 20 21  1  0
M  END
>  <PUBCHEM_COMPOUND_CID>  (1) 
46181

>  <PUBCHEM_CONFORMER_RMSD>  (1) 
0.8

>  <PUBCHEM_CONFORMER_DIVERSEORDER>  (1) 
5
21
38
47
49
27
8
73
18
14
50
72
29
78
45
31
43
13
20
46
77
41
67
32
68
25
66
74
30
36
23
6
75
42
28
69
61
55
10
26
39
11
53
58
12
35
2
24
71
63
19
1
65
70
17
22
54
48
3
60
56
16
7
62
64
76
37
15
40
59
51
4
57
44
33
9
52
34

>  <PUBCHEM_MMFF94_PARTIAL_CHARGES>  (1) 
22
1 -0.68
13 0.28
14 0.08
15 -0.15
16 -0.15
17 0.09
18 -0.15
19 -0.15
2 -0.36
20 0.42
21 0.06
3 -0.57
4 -0.81
41 0.4
42 0.15
43 0.15
44 0.15
45 0.15
5 0.27
6 0.27
7 0.27
8 0.28

>  <PUBCHEM_EFFECTIVE_ROTOR_COUNT>  (1) 
8

>  <PUBCHEM_PHARMACOPHORE_FEATURES>  (1) 
8
1 1 acceptor
1 1 donor
1 2 acceptor
1 3 acceptor
1 4 cation
3 5 9 10 hydrophobe
3 6 11 12 hydrophobe
6 14 15 16 17 18 19 rings

>  <PUBCHEM_HEAVY_ATOM_COUNT>  (1) 
21

>  <PUBCHEM_ATOM_DEF_STEREO_COUNT>  (1) 
0

>  <PUBCHEM_ATOM_UDEF_STEREO_COUNT>  (1) 
1

>  <PUBCHEM_BOND_DEF_STEREO_COUNT>  (1) 
0

>  <PUBCHEM_BOND_UDEF_STEREO_COUNT>  (1) 
0

>  <PUBCHEM_ISOTOPIC_ATOM_COUNT>  (1) 
0

>  <PUBCHEM_COMPONENT_COUNT>  (1) 
1

>  <PUBCHEM_CACTVS_TAUTO_COUNT>  (1) 
2

>  <PUBCHEM_CONFORMER_ID>  (1) 
0000B46500000005

>  <PUBCHEM_MMFF94_ENERGY>  (1) 
93.5296

>  <PUBCHEM_FEATURE_SELFOVERLAP>  (1) 
40.599

>  <PUBCHEM_SHAPE_FINGERPRINT>  (1) 
10319926 262 18272378572560428323
10692045 39 17845382050592182935
10730089 43 17274820307015346600
10928967 22 16805591577662345810
11140007 195 18202003205553542246
11370993 144 18202558484230973592
11405975 8 18201714076438746874
11543360 7 11386360426746774214
11991303 11 15214963174973569143
12403259 327 17775000210911007718
12553582 1 17385713712428781670
12596599 1 17604983887501949075
12596602 18 17822021947192361649
12616999 72 13045938010735809848
12633257 1 17917983984315554722
12670546 177 10953459626295543255
128620 24 11386365945632140951
12892183 10 18057594563452045562
13533116 47 17823142409665111603
13583140 156 17345746533304754807
13675066 3 18341891909085629943
14251732 17 17489307439029668025
14251758 9 18334290934037759965
14251764 30 16950562138645368538
14251764 38 16486704579908565497
14252887 29 17895180139437155916
14341114 176 18272371970810488384
14420673 8 18338521811553051406
14528608 73 11167939156112580786
14739800 52 18055918933291057688
14951699 99 18059010704533350752
15238133 3 17917441890570686280
15375358 24 16702306762784725425
15537594 2 17603866693562497570
1813 80 17458339745398950092
20645477 70 17096634586183223423
20715895 44 15625952980388568355
20775530 9 17903620901331390538
21033648 29 18270099228905469049
21065198 57 18059851821958206483
21065199 12 17987511674954294930
212916 134 18202847652027121215
21403212 168 18265327318839704475
21618674 57 18060701671505964403
21774942 28 15983425024191035969
22393880 68 9439140752814231010
22950370 63 17603588495629645454
23503953 91 18335137648037838853
235170 7 12324233949587923986
23559900 14 17916888892051111740
2838139 119 15913043163198755729
328317 168 11743833677107601254
351380 180 16988561286418400585
351380 3 17240483597887096931
3737641 26 17678447563970843754
465052 167 17603313656414505835
495365 180 16701752565848144695
5104073 3 18343299314076568499
5207 217 12180144068039488270
5281201 14 11386634183968077306
57724786 102 17561081444883015272
5924683 9 17845080939283419311
7970288 3 17458339715345216130
8509985 295 17632858611884051802
9841814 1 17240755229400528804

>  <PUBCHEM_SHAPE_MULTIPOLES>  (1) 
409.58
12.96
2.08
1.71
5.79
0.27
-0.33
0.5
5.63
0.15
0.26
-1.71
-0.53
-0.12

>  <PUBCHEM_SHAPE_SELFOVERLAP>  (1) 
828.501

>  <PUBCHEM_SHAPE_VOLUME>  (1) 
242.1

>  <PUBCHEM_COORDINATE_TYPE>  (1) 
2
5
10

$$$$
