46189
     RDKit          3D

 31 33  0  0  1  0  0  0  0  0999 V2000
    3.7051   -2.4621    0.0721 O   0  0  0  0  0  0  0  0  0  0  0  0
    3.1131    0.4641    0.1233 O   0  0  0  0  0  0  0  0  0  0  0  0
   -4.3025   -0.4268   -1.8643 O   0  0  0  0  0  0  0  0  0  0  0  0
    2.8370   -4.5234    0.6502 O   0  0  0  0  0  0  0  0  0  0  0  0
    2.7122    1.2321   -2.4177 O   0  0  0  0  0  0  0  0  0  0  0  0
    0.2891   -1.0193    0.0415 N   0  0  0  0  0  0  0  0  0  0  0  0
   -2.5143   -0.5353    0.2978 N   0  0  0  0  0  0  0  0  0  0  0  0
   -0.5564   -1.9387    0.8125 C   0  0  0  0  0  0  0  0  0  0  0  0
   -0.4739   -0.4632   -1.0828 C   0  0  0  0  0  0  0  0  0  0  0  0
   -1.7859   -1.2182    1.3714 C   0  0  0  0  0  0  0  0  0  0  0  0
   -1.6996    0.3073   -0.5867 C   0  0  0  0  0  0  0  0  0  0  0  0
    1.4866   -1.7061   -0.4412 C   0  0  0  0  0  0  0  0  0  0  0  0
    2.5632   -1.8152    0.6411 C   0  0  0  0  0  0  0  0  0  0  0  0
   -3.8576   -0.1893    0.4815 C   0  0  0  0  0  0  0  0  0  0  0  0
    2.9988   -0.4621    1.1992 C   0  0  0  0  0  0  0  0  0  0  0  0
   -4.7333   -0.1402   -0.6032 C   0  0  0  0  0  0  0  0  0  0  0  0
   -4.3190    0.1075    1.7641 C   0  0  0  0  0  0  0  0  0  0  0  0
   -6.0700    0.2059   -0.4054 C   0  0  0  0  0  0  0  0  0  0  0  0
   -5.6558    0.4537    1.9618 C   0  0  0  0  0  0  0  0  0  0  0  0
   -6.5312    0.5029    0.8771 C   0  0  0  0  0  0  0  0  0  0  0  0
    3.7066   -3.8236    0.1489 C   0  0  0  0  0  0  0  0  0  0  0  0
    2.8521    1.7770    0.4114 C   0  0  0  0  0  0  0  0  0  0  0  0
    2.3299    2.6327   -0.5587 C   0  0  0  0  0  0  0  0  0  0  0  0
    4.9548   -4.3604   -0.4835 C   0  0  0  0  0  0  0  0  0  0  0  0
   -4.3883   -1.7866   -2.2842 C   0  0  0  0  0  0  0  0  0  0  0  0
    3.1140    2.2554    1.6953 C   0  0  0  0  0  0  0  0  0  0  0  0
    2.0696    3.9667   -0.2447 C   0  0  0  0  0  0  0  0  0  0  0  0
    2.8535    3.5893    2.0092 C   0  0  0  0  0  0  0  0  0  0  0  0
    2.0481    2.1534   -1.9047 C   0  0  0  0  0  0  0  0  0  0  0  0
    2.3314    4.4449    1.0393 C   0  0  0  0  0  0  0  0  0  0  0  0
    0.9228    2.7777   -2.7209 C   0  0  0  0  0  0  0  0  0  0  0  0
  1 13  1  0
  1 21  1  0
  2 15  1  0
  2 22  1  0
  3 16  1  0
  3 25  1  0
  4 21  2  0
  5 29  2  0
  6  8  1  0
  6  9  1  0
  6 12  1  0
  7 10  1  0
  7 11  1  0
  7 14  1  0
  8 10  1  0
  9 11  1  0
 12 13  1  0
 13 15  1  0
 14 16  2  0
 14 17  1  0
 16 18  1  0
 17 19  2  0
 18 20  2  0
 19 20  1  0
 21 24  1  0
 22 23  2  0
 22 26  1  0
 23 27  1  0
 23 29  1  0
 26 28  2  0
 27 30  2  0
 28 30  1  0
 29 31  1  0
M  END
>  <PUBCHEM_COMPOUND_CID>  (1) 
46189

>  <PUBCHEM_CONFORMER_RMSD>  (1) 
1.2

>  <PUBCHEM_CONFORMER_DIVERSEORDER>  (1) 
3
77
134
13
131
28
35
92
82
121
137
42
94
34
78
124
32
23
136
139
64
90
102
45
19
109
105
81
106
123
27
116
111
66
127
99
24
56
86
43
26
39
30
54
119
104
21
138
33
97
16
15
115
130
114
91
47
25
96
133
83
7
103
113
80
101
93
84
38
10
122
22
46
100
117
62
70
125
120
135
50
128
129
51
65
44
20
69
107
58
132
11
6
110
41
63
85
72
75
87
36
9
37
59
14
40
12
68
118
112
95
18
98
17
48
73
140
71
60
126
61
29
52
57
55
4
89
76
108
67
1
74
53
8
5
79
2
31
49
88

>  <PUBCHEM_MMFF94_PARTIAL_CHARGES>  (1) 
39
1 -0.43
10 0.37
11 0.37
12 0.27
13 0.28
14 0.1
15 0.28
16 0.08
17 -0.15
18 -0.15
19 -0.15
2 -0.36
20 -0.15
21 0.66
22 0.08
23 0.09
24 0.06
25 0.28
26 -0.15
27 -0.15
28 -0.15
29 0.42
3 -0.36
30 -0.15
31 0.06
4 -0.57
45 0.15
46 0.15
47 0.15
48 0.15
5 -0.57
55 0.15
56 0.15
57 0.15
58 0.15
6 -0.81
7 -0.84
8 0.27
9 0.27

>  <PUBCHEM_EFFECTIVE_ROTOR_COUNT>  (1) 
11.2

>  <PUBCHEM_PHARMACOPHORE_FEATURES>  (1) 
9
1 2 acceptor
1 3 acceptor
1 4 acceptor
1 5 acceptor
1 6 cation
1 7 cation
6 14 16 17 18 19 20 rings
6 22 23 26 27 28 30 rings
6 6 7 8 9 10 11 rings

>  <PUBCHEM_HEAVY_ATOM_COUNT>  (1) 
31

>  <PUBCHEM_ATOM_DEF_STEREO_COUNT>  (1) 
0

>  <PUBCHEM_ATOM_UDEF_STEREO_COUNT>  (1) 
1

>  <PUBCHEM_BOND_DEF_STEREO_COUNT>  (1) 
0

>  <PUBCHEM_BOND_UDEF_STEREO_COUNT>  (1) 
0

>  <PUBCHEM_ISOTOPIC_ATOM_COUNT>  (1) 
0

>  <PUBCHEM_COMPONENT_COUNT>  (1) 
1

>  <PUBCHEM_CACTVS_TAUTO_COUNT>  (1) 
2

>  <PUBCHEM_CONFORMER_ID>  (1) 
0000B46D00000003

>  <PUBCHEM_MMFF94_ENERGY>  (1) 
109.7853

>  <PUBCHEM_FEATURE_SELFOVERLAP>  (1) 
45.682

>  <PUBCHEM_SHAPE_FINGERPRINT>  (1) 
10937287 8 17908699875771826816
11331351 85 17913214156703326174
12156800 1 17265566564090289788
12166972 35 18200876167279965043
12633257 1 16662032849844306960
12788726 201 17830737548180267170
13533116 47 18410295805016010971
13590594 115 18196373615249925241
13878862 14 18262502750703909437
13965767 371 17972297771643245216
15021287 119 18200312100756697027
15420108 30 17979331369506646312
15664445 248 13542465405412883715
1813 80 18126013662913170230
1979834 28 18187365492931182205
20775530 9 18191019002587214618
21033648 29 17604133896811062077
21049683 271 18262811666274289710
22122407 14 18268447758910467521
23559900 14 18259992569435809683
3380486 145 17764826331647034066
44317340 157 18410856586475262403
474 4 18340485681306686313
508706 21 17168687641137234045
513532 50 17988933300950988140
5219985 9 18267869372517633194
5912855 24 18128253592329007047
6823239 73 16660653954893719689

>  <PUBCHEM_SHAPE_MULTIPOLES>  (1) 
598.66
12.33
5.63
2.2
20.97
1.04
-0.96
2.95
2.08
-13.2
0.58
0.71
-1.42
-0.5

>  <PUBCHEM_SHAPE_SELFOVERLAP>  (1) 
1257.03

>  <PUBCHEM_SHAPE_VOLUME>  (1) 
337.6

>  <PUBCHEM_COORDINATE_TYPE>  (1) 
2
5
10

$$$$
