46191
     RDKit          3D

 28 30  0  0  1  0  0  0  0  0999 V2000
   -3.3385    3.6168    0.0251 O   0  0  0  0  0  0  0  0  0  0  0  0
   -3.7755    0.8932    0.3745 O   0  0  0  0  0  0  0  0  0  0  0  0
    6.7791   -0.4841   -1.5088 O   0  0  0  0  0  0  0  0  0  0  0  0
   -4.6559    0.3038   -2.0915 O   0  0  0  0  0  0  0  0  0  0  0  0
   -0.3351    1.4518   -0.1833 N   0  0  0  0  0  0  0  0  0  0  0  0
    2.3681    0.5893    0.1451 N   0  0  0  0  0  0  0  0  0  0  0  0
    0.4375    0.9758   -1.3375 C   0  0  0  0  0  0  0  0  0  0  0  0
    0.5531    2.1352    0.7646 C   0  0  0  0  0  0  0  0  0  0  0  0
    1.5274   -0.0061   -0.9012 C   0  0  0  0  0  0  0  0  0  0  0  0
    1.6479    1.1926    1.2706 C   0  0  0  0  0  0  0  0  0  0  0  0
   -1.4076    2.3460   -0.6179 C   0  0  0  0  0  0  0  0  0  0  0  0
   -2.3013    2.7807    0.5462 C   0  0  0  0  0  0  0  0  0  0  0  0
    3.6459    0.0551    0.3451 C   0  0  0  0  0  0  0  0  0  0  0  0
   -2.9457    1.6092    1.2841 C   0  0  0  0  0  0  0  0  0  0  0  0
    4.5996    0.0466   -0.6924 C   0  0  0  0  0  0  0  0  0  0  0  0
    4.0175   -0.4906    1.5902 C   0  0  0  0  0  0  0  0  0  0  0  0
    5.8733   -0.4860   -0.4929 C   0  0  0  0  0  0  0  0  0  0  0  0
    5.2910   -1.0232    1.7897 C   0  0  0  0  0  0  0  0  0  0  0  0
    6.2190   -1.0208    0.7483 C   0  0  0  0  0  0  0  0  0  0  0  0
   -3.9100   -0.4518    0.5930 C   0  0  0  0  0  0  0  0  0  0  0  0
   -4.1293   -1.3248   -0.4685 C   0  0  0  0  0  0  0  0  0  0  0  0
   -3.8227   -0.9338    1.8959 C   0  0  0  0  0  0  0  0  0  0  0  0
   -4.2621   -2.6919   -0.2251 C   0  0  0  0  0  0  0  0  0  0  0  0
   -3.9554   -2.3009    2.1392 C   0  0  0  0  0  0  0  0  0  0  0  0
   -4.2219   -0.8364   -1.8373 C   0  0  0  0  0  0  0  0  0  0  0  0
    8.0625   -1.0444   -1.2356 C   0  0  0  0  0  0  0  0  0  0  0  0
   -4.1752   -3.1797    1.0788 C   0  0  0  0  0  0  0  0  0  0  0  0
   -3.7854   -1.7216   -2.9984 C   0  0  0  0  0  0  0  0  0  0  0  0
  1 12  1  0
  2 14  1  0
  2 20  1  0
  3 17  1  0
  3 26  1  0
  4 25  2  0
  5  7  1  0
  5  8  1  0
  5 11  1  0
  6  9  1  0
  6 10  1  0
  6 13  1  0
  7  9  1  0
  8 10  1  0
 11 12  1  0
 12 14  1  0
 13 15  2  0
 13 16  1  0
 15 17  1  0
 16 18  2  0
 17 19  2  0
 18 19  1  0
 20 21  2  0
 20 22  1  0
 21 23  1  0
 21 25  1  0
 22 24  2  0
 23 27  2  0
 24 27  1  0
 25 28  1  0
M  END
>  <PUBCHEM_COMPOUND_CID>  (1) 
46191

>  <PUBCHEM_CONFORMER_RMSD>  (1) 
1.2

>  <PUBCHEM_CONFORMER_DIVERSEORDER>  (1) 
2
156
176
159
77
199
104
32
118
39
193
33
197
13
31
98
72
10
49
109
175
110
201
100
169
122
131
114
76
92
25
103
164
12
60
70
65
6
108
190
79
158
168
179
88
38
95
133
66
200
135
107
191
75
119
123
180
64
35
124
157
127
91
102
101
21
117
141
145
74
151
73
16
182
48
94
196
161
174
181
43
144
202
187
50
20
36
89
129
112
93
5
162
52
11
139
15
171
146
22
90
63
111
163
47
132
126
172
155
83
27
148
170
121
166
178
80
34
150
45
99
188
23
58
105
51
130
149
138
26
67
134
186
113
142
173
125
19
194
195
185
198
189
154
28
165
4
82
46
143
44
56
116
7
40
41
115
177
55
87
3
18
137
128
30
9
152
85
78
68
53
120
69
147
106
167
1
8
42
81
184
140
57
54
59
84
24
136
71
37
183
86
153
192
62
96
97
17
14
160
29
61

>  <PUBCHEM_MMFF94_PARTIAL_CHARGES>  (1) 
37
1 -0.68
10 0.37
11 0.27
12 0.28
13 0.1
14 0.28
15 -0.15
16 -0.15
17 0.08
18 -0.15
19 -0.15
2 -0.36
20 0.08
21 0.09
22 -0.15
23 -0.15
24 -0.15
25 0.42
26 0.28
27 -0.15
28 0.06
3 -0.36
4 -0.57
42 0.15
43 0.15
44 0.4
45 0.15
46 0.15
47 0.15
48 0.15
49 0.15
5 -0.81
53 0.15
6 -0.84
7 0.27
8 0.27
9 0.37

>  <PUBCHEM_EFFECTIVE_ROTOR_COUNT>  (1) 
9.2

>  <PUBCHEM_PHARMACOPHORE_FEATURES>  (1) 
10
1 1 acceptor
1 1 donor
1 2 acceptor
1 3 acceptor
1 4 acceptor
1 5 cation
1 6 cation
6 13 15 16 17 18 19 rings
6 20 21 22 23 24 27 rings
6 5 6 7 8 9 10 rings

>  <PUBCHEM_HEAVY_ATOM_COUNT>  (1) 
28

>  <PUBCHEM_ATOM_DEF_STEREO_COUNT>  (1) 
0

>  <PUBCHEM_ATOM_UDEF_STEREO_COUNT>  (1) 
1

>  <PUBCHEM_BOND_DEF_STEREO_COUNT>  (1) 
0

>  <PUBCHEM_BOND_UDEF_STEREO_COUNT>  (1) 
0

>  <PUBCHEM_ISOTOPIC_ATOM_COUNT>  (1) 
0

>  <PUBCHEM_COMPONENT_COUNT>  (1) 
1

>  <PUBCHEM_CACTVS_TAUTO_COUNT>  (1) 
2

>  <PUBCHEM_CONFORMER_ID>  (1) 
0000B46F00000002

>  <PUBCHEM_MMFF94_ENERGY>  (1) 
102.7862

>  <PUBCHEM_FEATURE_SELFOVERLAP>  (1) 
50.761

>  <PUBCHEM_SHAPE_FINGERPRINT>  (1) 
11135609 201 8574170340586372327
11315621 246 18261399923171080566
11545043 162 17846213328869612496
12422481 6 17275110543698636268
12633257 1 16701468999512237843
12655364 131 14475563564623203908
13782708 43 18060138718138706398
14251764 75 8428946866138298015
14466204 15 9655570791164339856
14844126 61 18202557372462275985
14950920 106 15482388741589834594
14955137 171 17561362877390191896
15021287 119 13686293565831081338
15183329 4 14851875963769174818
15250474 111 17968367941107589650
15352257 5 17988931016476909678
18927931 339 18413393137587239775
20691028 202 8141542248571923727
20775530 9 17824260617153977235
22393880 68 16443615891578395769
2303208 19 17561085774831969884
23559900 14 18335129947056683929
23569943 247 15122106089466305780
328310 18 12685091501276391543
3383291 50 18202562887569867607
392239 28 14836123316375667107
4015057 19 16226347983600332460
484985 159 18333453158144646939
504579 68 18041000609960199260
508706 21 18342181033420667999
5283173 99 13334736808729446780
58260988 647 17979344594028494487
6431902 208 18410013251639090234
999808 66 17274833402992676190

>  <PUBCHEM_SHAPE_MULTIPOLES>  (1) 
542.79
17.26
3.15
2.23
30.42
1.13
-0.7
-11.53
-3.08
-5.64
0.72
-1.78
-1.16
0.23

>  <PUBCHEM_SHAPE_SELFOVERLAP>  (1) 
1141.287

>  <PUBCHEM_SHAPE_VOLUME>  (1) 
306.1

>  <PUBCHEM_COORDINATE_TYPE>  (1) 
2
5
10

$$$$
