46194
     RDKit          3D

 12 12  0  0  1  0  0  0  0  0999 V2000
    2.5063   -1.9427    0.0130 O   0  0  0  0  0  0  0  0  0  0  0  0
   -2.4661   -1.8918   -0.0042 O   0  0  0  0  0  0  0  0  0  0  0  0
    2.4486   -0.5649   -0.0054 N   0  0  0  0  0  0  0  0  0  0  0  0
    1.2184    0.1255   -0.0026 C   0  0  0  0  0  0  0  0  0  0  0  0
   -1.1974    0.0967   -0.0006 C   0  0  0  0  0  0  0  0  0  0  0  0
    0.0188   -0.5863   -0.0032 C   0  0  0  0  0  0  0  0  0  0  0  0
    1.2018    1.5202    0.0007 C   0  0  0  0  0  0  0  0  0  0  0  0
   -1.2141    1.4914    0.0027 C   0  0  0  0  0  0  0  0  0  0  0  0
   -0.0144    2.2032    0.0033 C   0  0  0  0  0  0  0  0  0  0  0  0
   -2.4487   -0.6448   -0.0009 C   0  0  0  0  0  0  0  0  0  0  0  0
    3.7279    0.0971   -0.0050 C   0  0  0  0  0  0  0  0  0  0  0  0
   -3.7812    0.0964    0.0022 C   0  0  0  0  0  0  0  0  0  0  0  0
  1  3  1  0
  2 10  2  0
  3  4  1  0
  3 11  1  0
  4  6  2  0
  4  7  1  0
  5  6  1  0
  5  8  2  0
  5 10  1  0
  7  9  2  0
  8  9  1  0
 10 12  1  0
M  END
>  <PUBCHEM_COMPOUND_CID>  (1) 
46194

>  <PUBCHEM_CONFORMER_RMSD>  (1) 
0.6

>  <PUBCHEM_CONFORMER_DIVERSEORDER>  (1) 
3
13
10
7
1
14
4
16
2
15
11
5
9
12
8
6

>  <PUBCHEM_MMFF94_PARTIAL_CHARGES>  (1) 
17
1 -0.38
10 0.42
11 0.37
12 0.06
13 0.15
14 0.15
15 0.15
16 0.15
2 -0.57
23 0.4
3 -0.49
4 0.1
5 0.09
6 -0.15
7 -0.15
8 -0.15
9 -0.15

>  <PUBCHEM_EFFECTIVE_ROTOR_COUNT>  (1) 
2

>  <PUBCHEM_PHARMACOPHORE_FEATURES>  (1) 
3
1 1 anion
1 2 acceptor
6 4 5 6 7 8 9 rings

>  <PUBCHEM_HEAVY_ATOM_COUNT>  (1) 
12

>  <PUBCHEM_ATOM_DEF_STEREO_COUNT>  (1) 
0

>  <PUBCHEM_ATOM_UDEF_STEREO_COUNT>  (1) 
0

>  <PUBCHEM_BOND_DEF_STEREO_COUNT>  (1) 
0

>  <PUBCHEM_BOND_UDEF_STEREO_COUNT>  (1) 
0

>  <PUBCHEM_ISOTOPIC_ATOM_COUNT>  (1) 
0

>  <PUBCHEM_COMPONENT_COUNT>  (1) 
1

>  <PUBCHEM_CACTVS_TAUTO_COUNT>  (1) 
2

>  <PUBCHEM_CONFORMER_ID>  (1) 
0000B47200000003

>  <PUBCHEM_MMFF94_ENERGY>  (1) 
38.555

>  <PUBCHEM_FEATURE_SELFOVERLAP>  (1) 
15.223

>  <PUBCHEM_SHAPE_FINGERPRINT>  (1) 
10130415 120 18409166614884768145
12032990 46 18410580590821844803
14128692 85 18338239361454565116
14252887 29 18130520690013795014
16945 1 18410573989488895781
17990270 104 18192428795405291947
193761 8 17257934793504135205
20201158 50 18408602578004057371
20281407 28 18412266137962911138
20645477 70 18047742987002904103
20711985 365 18192991504687680702
20871998 184 18129941161407184876
20871998 22 18342749489500771454
21501502 16 18196094343992266176
21501925 9 18268420416214379547
23463225 33 18410858741488463791
23552423 10 18191308375892699125
23559900 14 18339635630412313082
2748010 2 18121497118322330333
3312278 4 18408888451011344490
7364860 26 18197779023033649553
81228 2 18264215707529933296
8809292 202 18188212103756769691

>  <PUBCHEM_SHAPE_MULTIPOLES>  (1) 
230.23
5.37
1.98
0.59
0.18
0.26
0
-1.91
0
0.1
0
-0.02
0.04
-0.01

>  <PUBCHEM_SHAPE_SELFOVERLAP>  (1) 
473.62

>  <PUBCHEM_SHAPE_VOLUME>  (1) 
133.8

>  <PUBCHEM_COORDINATE_TYPE>  (1) 
2
5
10

$$$$
