46199
     RDKit          3D

 20 21  0  0  1  0  0  0  0  0999 V2000
    3.8950    2.6765    0.0818 O   0  0  0  0  0  0  0  0  0  0  0  0
    1.9794   -3.3974   -0.7995 O   0  0  0  0  0  0  0  0  0  0  0  0
   -0.2156   -1.9553    0.1135 O   0  0  0  0  0  0  0  0  0  0  0  0
   -3.6012    0.9881   -2.2155 O   0  0  0  0  0  0  0  0  0  0  0  0
    2.6348    0.1254    0.1513 N   0  0  0  0  0  0  0  0  0  0  0  0
    2.6666   -1.3343    0.2142 C   0  0  0  0  0  0  0  0  0  0  0  0
    3.3212    0.6108   -1.0541 C   0  0  0  0  0  0  0  0  0  0  0  0
    3.2477    0.7128    1.3508 C   0  0  0  0  0  0  0  0  0  0  0  0
    1.9303   -1.9772   -0.9635 C   0  0  0  0  0  0  0  0  0  0  0  0
    3.2861    2.1359   -1.0914 C   0  0  0  0  0  0  0  0  0  0  0  0
    3.2133    2.2355    1.2565 C   0  0  0  0  0  0  0  0  0  0  0  0
    0.4680   -1.5501   -1.0684 C   0  0  0  0  0  0  0  0  0  0  0  0
   -1.2624   -1.1710    0.5183 C   0  0  0  0  0  0  0  0  0  0  0  0
   -2.0080   -0.4747   -0.4269 C   0  0  0  0  0  0  0  0  0  0  0  0
   -1.5708   -1.0778    1.8713 C   0  0  0  0  0  0  0  0  0  0  0  0
   -3.0743    0.3244   -0.0143 C   0  0  0  0  0  0  0  0  0  0  0  0
   -2.6371   -0.2790    2.2840 C   0  0  0  0  0  0  0  0  0  0  0  0
   -3.3888    0.4221    1.3412 C   0  0  0  0  0  0  0  0  0  0  0  0
   -3.8585    1.0553   -0.9970 C   0  0  0  0  0  0  0  0  0  0  0  0
   -5.0258    1.9300   -0.5524 C   0  0  0  0  0  0  0  0  0  0  0  0
  1 10  1  0
  1 11  1  0
  2  9  1  0
  3 12  1  0
  3 13  1  0
  4 19  2  0
  5  6  1  0
  5  7  1  0
  5  8  1  0
  6  9  1  0
  7 10  1  0
  8 11  1  0
  9 12  1  0
 13 14  2  0
 13 15  1  0
 14 16  1  0
 15 17  2  0
 16 18  2  0
 16 19  1  0
 17 18  1  0
 19 20  1  0
M  END
>  <PUBCHEM_COMPOUND_CID>  (1) 
46199

>  <PUBCHEM_CONFORMER_RMSD>  (1) 
0.8

>  <PUBCHEM_CONFORMER_DIVERSEORDER>  (1) 
2
18
185
186
51
100
110
206
73
153
196
56
178
234
140
230
116
26
167
139
37
99
76
212
157
128
165
135
133
205
112
83
10
198
39
221
114
158
13
93
57
23
176
202
191
141
154
109
211
12
201
200
159
29
92
216
182
207
161
97
118
197
149
147
151
219
36
148
30
192
146
150
152
6
208
184
195
104
24
156
227
3
223
171
77
164
210
27
32
162
16
49
145
232
96
225
190
137
173
19
181
68
66
238
233
170
127
187
194
46
143
213
5
42
142
111
119
69
102
203
85
88
160
67
136
47
20
87
62
183
222
15
91
84
199
204
45
220
14
138
4
228
126
115
155
21
53
41
214
226
17
1
58
179
120
130
124
94
103
86
81
236
113
70
22
123
131
121
237
90
108
48
166
132
193
163
64
40
34
209
175
71
180
117
144
33
98
31
107
224
231
60
174
9
50
172
59
55
125
217
61
38
89
188
168
101
189
65
129
7
215
75
218
106
229
169
235
74
177
63
54
35
52
72
8
43
44
122
78
79
134
95
80
11
25
82
105
28

>  <PUBCHEM_MMFF94_PARTIAL_CHARGES>  (1) 
25
1 -0.56
10 0.28
11 0.28
12 0.28
13 0.08
14 -0.15
15 -0.15
16 0.09
17 -0.15
18 -0.15
19 0.42
2 -0.68
20 0.06
3 -0.36
34 0.4
35 0.15
36 0.15
37 0.15
38 0.15
4 -0.57
5 -0.81
6 0.27
7 0.27
8 0.27
9 0.28

>  <PUBCHEM_EFFECTIVE_ROTOR_COUNT>  (1) 
7.2

>  <PUBCHEM_PHARMACOPHORE_FEATURES>  (1) 
8
1 1 acceptor
1 2 acceptor
1 2 donor
1 3 acceptor
1 4 acceptor
1 5 cation
6 1 5 7 8 10 11 rings
6 13 14 15 16 17 18 rings

>  <PUBCHEM_HEAVY_ATOM_COUNT>  (1) 
20

>  <PUBCHEM_ATOM_DEF_STEREO_COUNT>  (1) 
0

>  <PUBCHEM_ATOM_UDEF_STEREO_COUNT>  (1) 
1

>  <PUBCHEM_BOND_DEF_STEREO_COUNT>  (1) 
0

>  <PUBCHEM_BOND_UDEF_STEREO_COUNT>  (1) 
0

>  <PUBCHEM_ISOTOPIC_ATOM_COUNT>  (1) 
0

>  <PUBCHEM_COMPONENT_COUNT>  (1) 
1

>  <PUBCHEM_CACTVS_TAUTO_COUNT>  (1) 
2

>  <PUBCHEM_CONFORMER_ID>  (1) 
0000B47700000002

>  <PUBCHEM_MMFF94_ENERGY>  (1) 
53.4356

>  <PUBCHEM_FEATURE_SELFOVERLAP>  (1) 
40.601

>  <PUBCHEM_SHAPE_FINGERPRINT>  (1) 
10498660 4 18200878490651738224
11221954 11 18260545585055924909
11640471 11 17775280577685935870
11725454 13 17896578657818485823
12596602 18 13840853010147703677
12633257 1 16588571106801863356
12788726 201 14709786140609876817
13134695 92 18051979121520463694
13583140 156 18187933820220809227
13899415 180 17410505281600958590
14178342 30 16443354212016555067
14251751 18 12751246861183331612
14251764 38 18262515884329161669
14468879 13 18334294301197323937
14957384 54 18190450748560419720
15295992 7 17968947357780857451
15342168 16 18200892724505328945
15342816 4 14547866457624160023
15664445 248 13685714161367826059
18219364 16 18269844266492344712
192875 21 17916299433622894514
20291156 8 10954001685912944466
20621476 13 18410853248342031776
212916 134 16588584202478577437
21304303 282 17127008625645911998
21475661 188 17969491620316055149
21639500 275 18201442441158394603
21713013 43 12247410011292888040
21756936 100 17172094160331086140
21864079 5 17970913490825021708
22749437 52 18413668019530935160
23557571 272 17822592567719697859
23559900 14 17386301873851241399
238 59 17989488541168697688
341906 21 17022906748425872109
43658 37 18343293790764040333
4409770 3 14316846634777323511
474 4 18342454816184447107
4921388 177 13254812234558895659
495365 180 18341323431599034308
5969126 39 17335912184286280854
7097593 13 13767932307945344047
7615 1 17202766977779573811
7808743 9 17761502778452944260
90316 7 14851606570635863855

>  <PUBCHEM_SHAPE_MULTIPOLES>  (1) 
383.13
9.08
2.92
1.88
3.25
0.42
0.46
-7.08
-1.03
-2.95
-0.67
1.12
-0.17
1.69

>  <PUBCHEM_SHAPE_SELFOVERLAP>  (1) 
788.502

>  <PUBCHEM_SHAPE_VOLUME>  (1) 
220.5

>  <PUBCHEM_COORDINATE_TYPE>  (1) 
2
5
10

$$$$
