46218
     RDKit          3D

 14 14  0  0  1  0  0  0  0  0999 V2000
    4.4648    1.8270   -0.3071 Cl  0  0  0  0  0  0  0  0  0  0  0  0
   -1.4051   -1.3757   -0.2342 N   0  0  0  0  0  0  0  0  0  0  0  0
   -1.7843   -0.1112    0.3505 N   0  0  0  0  0  0  0  0  0  0  0  0
   -4.5222    2.2720   -0.4973 N   0  0  0  0  0  0  0  0  0  0  0  0
   -0.1978   -1.8812    0.4239 C   0  0  0  0  0  0  0  0  0  0  0  0
    0.9721   -0.9513    0.2409 C   0  0  0  0  0  0  0  0  0  0  0  0
   -2.9602    0.3935   -0.3450 C   0  0  0  0  0  0  0  0  0  0  0  0
   -2.5187   -2.3024   -0.0358 C   0  0  0  0  0  0  0  0  0  0  0  0
   -3.3550    1.7583    0.2112 C   0  0  0  0  0  0  0  0  0  0  0  0
    1.8091   -1.1136   -0.8541 C   0  0  0  0  0  0  0  0  0  0  0  0
    1.1966    0.0554    1.1692 C   0  0  0  0  0  0  0  0  0  0  0  0
    2.8926   -0.2519   -1.0242 C   0  0  0  0  0  0  0  0  0  0  0  0
    2.2800    0.9174    0.9993 C   0  0  0  0  0  0  0  0  0  0  0  0
    3.1281    0.7637   -0.0973 C   0  0  0  0  0  0  0  0  0  0  0  0
  1 14  1  0
  2  3  1  0
  2  5  1  0
  2  8  1  0
  3  7  1  0
  4  9  1  0
  5  6  1  0
  6 10  2  0
  6 11  1  0
  7  9  1  0
 10 12  1  0
 11 13  2  0
 12 14  2  0
 13 14  1  0
M  END
>  <PUBCHEM_COMPOUND_CID>  (1) 
46218

>  <PUBCHEM_CONFORMER_RMSD>  (1) 
0.6

>  <PUBCHEM_CONFORMER_DIVERSEORDER>  (1) 
3
21
33
23
36
14
28
31
32
24
22
30
29
15
18
17
20
12
7
19
35
27
25
16
26
1
6
10
34
4
13
9
5
2
11
8

>  <PUBCHEM_MMFF94_PARTIAL_CHARGES>  (1) 
21
1 -0.18
10 -0.15
11 -0.15
12 -0.15
13 -0.15
14 0.18
19 0.36
2 -0.54
25 0.15
26 0.15
27 0.15
28 0.15
29 0.36
3 -0.63
30 0.36
4 -0.99
5 0.41
6 -0.14
7 0.27
8 0.27
9 0.27

>  <PUBCHEM_EFFECTIVE_ROTOR_COUNT>  (1) 
5

>  <PUBCHEM_PHARMACOPHORE_FEATURES>  (1) 
4
1 3 donor
1 4 cation
1 4 donor
6 6 10 11 12 13 14 rings

>  <PUBCHEM_HEAVY_ATOM_COUNT>  (1) 
14

>  <PUBCHEM_ATOM_DEF_STEREO_COUNT>  (1) 
0

>  <PUBCHEM_ATOM_UDEF_STEREO_COUNT>  (1) 
0

>  <PUBCHEM_BOND_DEF_STEREO_COUNT>  (1) 
0

>  <PUBCHEM_BOND_UDEF_STEREO_COUNT>  (1) 
0

>  <PUBCHEM_ISOTOPIC_ATOM_COUNT>  (1) 
0

>  <PUBCHEM_COMPONENT_COUNT>  (1) 
1

>  <PUBCHEM_CACTVS_TAUTO_COUNT>  (1) 
1

>  <PUBCHEM_CONFORMER_ID>  (1) 
0000B48A00000003

>  <PUBCHEM_MMFF94_ENERGY>  (1) 
27.549

>  <PUBCHEM_FEATURE_SELFOVERLAP>  (1) 
20.297

>  <PUBCHEM_SHAPE_FINGERPRINT>  (1) 
10498660 4 18336263449334987781
10608611 8 18271243927646120232
11769659 78 10879727467901540132
122479 349 18260552199516147913
12654215 9 18131635569503651690
13294875 104 18268976605921309210
13464514 151 18412832365387926762
13764800 53 18334020488600420899
13839132 238 18410855494657030158
14123255 52 18335701598739972949
14251710 61 9871744698053542885
14252887 29 9438814198171953149
15775835 57 18187362121017403328
17134986 127 18265894666333377743
17357990 137 17458350770769844270
1741750 31 18411698768678124323
17834072 32 18408887360153565404
1798214 55 18335702689667044901
18186145 218 18130243613389368662
201361 129 18040708178310984906
20645477 56 18342183314042585739
20645477 70 17203343190750222230
20671657 1 18191302667865643875
20671657 53 13829839167706862419
20711983 171 18335136531472799452
21501925 9 8718529611194184283
21524375 3 18265610975428076139
21713013 43 16127801006648465709
22802520 49 18131642178946799298
22926399 65 18411984684698647608
23402539 116 18120647200198163910
23402655 69 17918274220957217597
23419403 2 17051864371719378802
23557571 272 18269566090045145006
23559900 14 18202007582563352558
25 1 18201445726850366243
305870 269 18187359935264503018
4028521 119 18343022185611977041
568465 68 13262667175718924092
633830 44 18056478344976787229
7808743 9 18335139816712071316

>  <PUBCHEM_SHAPE_MULTIPOLES>  (1) 
275.04
7.81
2.44
0.97
1.53
0.18
-0.07
6.34
1.56
2.32
0.17
-0.51
0
0.43

>  <PUBCHEM_SHAPE_SELFOVERLAP>  (1) 
539.646

>  <PUBCHEM_SHAPE_VOLUME>  (1) 
167.4

>  <PUBCHEM_COORDINATE_TYPE>  (1) 
2
5
10

$$$$
