4621
     RDKit          3D

 34 35  0  0  0  0  0  0  0  0999 V2000
   -3.3646   -0.8803    0.9980 O   0  0  0  0  0  0  0  0  0  0  0  0
    0.7317   -1.5969    1.2061 O   0  0  0  0  0  0  0  0  0  0  0  0
   -3.5015   -5.4271    1.5554 O   0  0  0  0  0  0  0  0  0  0  0  0
   -3.4521    0.3710   -0.9517 N   0  0  0  0  0  0  0  0  0  0  0  0
    2.0099   -2.3297   -0.5837 N   0  0  0  0  0  0  0  0  0  0  0  0
   -1.5603   -2.6333    0.1336 N   0  0  0  0  0  0  0  0  0  0  0  0
   -4.4414    1.3285   -0.4723 C   0  0  0  0  0  0  0  0  0  0  0  0
    2.8800   -1.1689   -0.7284 C   0  0  0  0  0  0  0  0  0  0  0  0
   -3.9277    2.0549    0.7993 C   0  0  0  0  0  0  0  0  0  0  0  0
    3.9571   -1.1507    0.3887 C   0  0  0  0  0  0  0  0  0  0  0  0
   -5.7180    0.5523   -0.1072 C   0  0  0  0  0  0  0  0  0  0  0  0
   -4.7750    2.3180   -1.5987 C   0  0  0  0  0  0  0  0  0  0  0  0
    3.5109   -1.1810   -2.1288 C   0  0  0  0  0  0  0  0  0  0  0  0
    2.0148    0.0952   -0.5910 C   0  0  0  0  0  0  0  0  0  0  0  0
   -1.9521   -1.5919   -0.8093 C   0  0  0  0  0  0  0  0  0  0  0  0
   -0.2751   -3.2193   -0.2507 C   0  0  0  0  0  0  0  0  0  0  0  0
   -2.9813   -0.6828   -0.1584 C   0  0  0  0  0  0  0  0  0  0  0  0
    0.8518   -2.3065    0.2035 C   0  0  0  0  0  0  0  0  0  0  0  0
   -2.6691    2.8756    0.6290 C   0  0  0  0  0  0  0  0  0  0  0  0
    4.9036    0.0285    0.3756 C   0  0  0  0  0  0  0  0  0  0  0  0
   -2.9872    0.5902   -2.3194 C   0  0  0  0  0  0  0  0  0  0  0  0
    2.4333   -3.5189   -1.3195 C   0  0  0  0  0  0  0  0  0  0  0  0
   -2.5892   -3.6718    0.2110 C   0  0  0  0  0  0  0  0  0  0  0  0
   -1.4204    2.2878    0.8319 C   0  0  0  0  0  0  0  0  0  0  0  0
    6.0941   -0.0407   -0.3481 C   0  0  0  0  0  0  0  0  0  0  0  0
   -2.7566    4.2203    0.2685 C   0  0  0  0  0  0  0  0  0  0  0  0
    4.5860    1.1858    1.0867 C   0  0  0  0  0  0  0  0  0  0  0  0
   -2.4757   -4.4438    1.5158 C   0  0  0  0  0  0  0  0  0  0  0  0
   -0.2594    3.0446    0.6747 C   0  0  0  0  0  0  0  0  0  0  0  0
    6.9671    1.0471   -0.3606 C   0  0  0  0  0  0  0  0  0  0  0  0
   -1.5953    4.9770    0.1111 C   0  0  0  0  0  0  0  0  0  0  0  0
    5.4591    2.2737    1.0741 C   0  0  0  0  0  0  0  0  0  0  0  0
   -0.3468    4.3890    0.3142 C   0  0  0  0  0  0  0  0  0  0  0  0
    6.6495    2.2042    0.3504 C   0  0  0  0  0  0  0  0  0  0  0  0
  1 17  2  0
  2 18  2  0
  3 28  1  0
  4  7  1  0
  4 17  1  0
  4 21  1  0
  5  8  1  0
  5 18  1  0
  5 22  1  0
  6 15  1  0
  6 16  1  0
  6 23  1  0
  7  9  1  0
  7 11  1  0
  7 12  1  0
  8 10  1  0
  8 13  1  0
  8 14  1  0
  9 19  1  0
 10 20  1  0
 15 17  1  0
 16 18  1  0
 19 24  2  0
 19 26  1  0
 20 25  2  0
 20 27  1  0
 23 28  1  0
 24 29  1  0
 25 30  1  0
 26 31  2  0
 27 32  2  0
 29 33  2  0
 30 34  2  0
 31 33  1  0
 32 34  1  0
M  END
>  <PUBCHEM_COMPOUND_CID>  (1) 
4621

>  <PUBCHEM_CONFORMER_RMSD>  (1) 
1.6

>  <PUBCHEM_CONFORMER_DIVERSEORDER>  (1) 
3
13
92
69
61
94
33
16
95
70
74
34
59
83
31
72
29
51
25
18
66
37
55
5
82
15
62
86
88
89
96
11
90
35
58
41
97
43
38
27
10
8
47
46
79
63
4
22
76
80
24
19
54
42
26
65
85
57
56
73
45
64
21
93
68
60
78
48
23
91
44
75
52
17
12
84
30
77
71
49
14
53
81
6
67
32
36
40
50
1
39
87
7
9
20
28
2

>  <PUBCHEM_MMFF94_PARTIAL_CHARGES>  (1) 
41
1 -0.57
10 0.14
15 0.33
16 0.33
17 0.57
18 0.57
19 -0.14
2 -0.57
20 -0.14
21 0.3
22 0.3
23 0.27
24 -0.15
25 -0.15
26 -0.15
27 -0.15
28 0.28
29 -0.15
3 -0.68
30 -0.15
31 -0.15
32 -0.15
33 -0.15
34 -0.15
4 -0.66
5 -0.66
6 -0.81
63 0.15
64 0.15
65 0.15
66 0.15
69 0.15
7 0.3
70 0.15
71 0.15
72 0.15
73 0.15
74 0.15
75 0.4
8 0.3
9 0.14

>  <PUBCHEM_EFFECTIVE_ROTOR_COUNT>  (1) 
14

>  <PUBCHEM_PHARMACOPHORE_FEATURES>  (1) 
9
1 1 acceptor
1 2 acceptor
1 3 acceptor
1 3 donor
1 6 cation
3 7 11 12 hydrophobe
3 8 13 14 hydrophobe
6 19 24 26 29 31 33 rings
6 20 25 27 30 32 34 rings

>  <PUBCHEM_HEAVY_ATOM_COUNT>  (1) 
34

>  <PUBCHEM_ATOM_DEF_STEREO_COUNT>  (1) 
0

>  <PUBCHEM_ATOM_UDEF_STEREO_COUNT>  (1) 
0

>  <PUBCHEM_BOND_DEF_STEREO_COUNT>  (1) 
0

>  <PUBCHEM_BOND_UDEF_STEREO_COUNT>  (1) 
0

>  <PUBCHEM_ISOTOPIC_ATOM_COUNT>  (1) 
0

>  <PUBCHEM_COMPONENT_COUNT>  (1) 
1

>  <PUBCHEM_CACTVS_TAUTO_COUNT>  (1) 
1

>  <PUBCHEM_CONFORMER_ID>  (1) 
0000120D00000003

>  <PUBCHEM_MMFF94_ENERGY>  (1) 
122.6954

>  <PUBCHEM_FEATURE_SELFOVERLAP>  (1) 
45.671

>  <PUBCHEM_SHAPE_FINGERPRINT>  (1) 
10032420 55 18056735703132258728
10675989 125 17905033764802761821
10871710 139 18198898120387515605
12107183 9 18189601762765845434
13402501 40 18343861139001784968
13561361 72 18341322397098148096
14092694 8 17273401778191312615
14394314 77 18342181008300373473
14765038 42 17916320358925477401
14840074 17 17917986179039237661
15001296 14 18049439249612581017
15320467 1 18412543215263109880
15776043 110 17825100420968519490
16067690 210 18262503905870537152
16112460 7 17915190017748124688
16992787 43 18340199675862918485
19611394 137 18117566343121814339
20764821 26 18194689382490612260
21033648 144 18200607929118686182
21033648 29 18115029593770856455
21344244 246 16973066174377129687
21795232 40 18188473765986586885
22956985 138 16530610630316917115
325973 47 18196929092419979520
437795 96 18269265923566324448
46194498 28 17487905510122715326
463206 1 18341613741419360520
50150288 127 16126992697808384032
550186 7 18272657874362464982
5776283 40 18053404114691979846
6036956 94 18408325466715120276
6371009 1 18051110524540146274
6608658 132 18200577194305790782
7288768 16 18260268508157360771
9981440 41 18117566115772760555

>  <PUBCHEM_SHAPE_MULTIPOLES>  (1) 
667.15
13.79
7.08
1.47
18.66
1.75
0.48
-7.36
0.63
-6.84
-2.58
-0.52
0.68
2.74

>  <PUBCHEM_SHAPE_SELFOVERLAP>  (1) 
1373.335

>  <PUBCHEM_SHAPE_VOLUME>  (1) 
383.3

>  <PUBCHEM_COORDINATE_TYPE>  (1) 
2
5
10

$$$$
