46212
     RDKit          3D

 30 35  0  0  1  0  0  0  0  0999 V2000
    3.0394   -1.1818   -0.8120 N   0  0  0  0  0  0  0  0  0  0  0  0
   -3.0391   -1.1821    0.8113 N   0  0  0  0  0  0  0  0  0  0  0  0
    1.2871    0.8502    0.2612 C   0  0  0  0  0  0  0  0  0  0  0  0
   -1.2871    0.8500   -0.2624 C   0  0  0  0  0  0  0  0  0  0  0  0
    1.0014    1.5719   -1.0738 C   0  0  0  0  0  0  0  0  0  0  0  0
    0.5028    1.5732    1.3779 C   0  0  0  0  0  0  0  0  0  0  0  0
    0.7519   -0.5943    0.1533 C   0  0  0  0  0  0  0  0  0  0  0  0
   -0.5028    1.5728   -1.3791 C   0  0  0  0  0  0  0  0  0  0  0  0
   -1.0014    1.5717    1.0727 C   0  0  0  0  0  0  0  0  0  0  0  0
   -0.7519   -0.5944   -0.1542 C   0  0  0  0  0  0  0  0  0  0  0  0
    2.7857    0.8504    0.5664 C   0  0  0  0  0  0  0  0  0  0  0  0
   -2.7858    0.8503   -0.5668 C   0  0  0  0  0  0  0  0  0  0  0  0
    3.5820    0.1649   -0.5505 C   0  0  0  0  0  0  0  0  0  0  0  0
   -3.5817    0.1646    0.5503 C   0  0  0  0  0  0  0  0  0  0  0  0
    5.0719    0.1790   -0.2623 C   0  0  0  0  0  0  0  0  0  0  0  0
   -5.0718    0.1789    0.2628 C   0  0  0  0  0  0  0  0  0  0  0  0
    3.5086   -2.1585    0.1721 C   0  0  0  0  0  0  0  0  0  0  0  0
   -3.5089   -2.1586   -0.1728 C   0  0  0  0  0  0  0  0  0  0  0  0
    5.7506   -1.0049    0.0803 C   0  0  0  0  0  0  0  0  0  0  0  0
   -5.7506   -1.0049   -0.0797 C   0  0  0  0  0  0  0  0  0  0  0  0
    5.0251   -2.3252    0.0953 C   0  0  0  0  0  0  0  0  0  0  0  0
   -5.0253   -2.3251   -0.0953 C   0  0  0  0  0  0  0  0  0  0  0  0
    5.7867    1.3856   -0.3188 C   0  0  0  0  0  0  0  0  0  0  0  0
   -5.7865    1.3856    0.3198 C   0  0  0  0  0  0  0  0  0  0  0  0
    7.1263   -0.9658    0.3467 C   0  0  0  0  0  0  0  0  0  0  0  0
   -7.1264   -0.9656   -0.3456 C   0  0  0  0  0  0  0  0  0  0  0  0
    7.1535    1.4153   -0.0422 C   0  0  0  0  0  0  0  0  0  0  0  0
   -7.1533    1.4155    0.0438 C   0  0  0  0  0  0  0  0  0  0  0  0
    7.8225    0.2407    0.2905 C   0  0  0  0  0  0  0  0  0  0  0  0
   -7.8226    0.2409   -0.2888 C   0  0  0  0  0  0  0  0  0  0  0  0
  1 13  1  0
  1 17  1  0
  2 14  1  0
  2 18  1  0
  3  5  1  0
  3  6  1  0
  3  7  1  0
  3 11  1  0
  4  8  1  0
  4  9  1  0
  4 10  1  0
  4 12  1  0
  5  8  1  0
  6  9  1  0
  7 10  1  0
 11 13  1  0
 12 14  1  0
 13 15  1  0
 14 16  1  0
 15 19  2  0
 15 23  1  0
 16 20  2  0
 16 24  1  0
 17 21  1  0
 18 22  1  0
 19 21  1  0
 19 25  1  0
 20 22  1  0
 20 26  1  0
 23 27  2  0
 24 28  2  0
 25 29  2  0
 26 30  2  0
 27 29  1  0
 28 30  1  0
M  END
>  <PUBCHEM_COMPOUND_CID>  (1) 
46212

>  <PUBCHEM_CONFORMER_RMSD>  (1) 
0.8

>  <PUBCHEM_CONFORMER_DIVERSEORDER>  (1) 
3
37
40
6
1
16
31
15
42
21
32
23
17
9
35
27
33
14
4
19
34
24
25
2
10
8
5
36
41
13
7
20
29
11
38
30
22
18
28
12
26
39

>  <PUBCHEM_MMFF94_PARTIAL_CHARGES>  (1) 
30
1 -0.9
13 0.41
14 0.41
15 -0.14
16 -0.14
17 0.27
18 0.27
19 -0.14
2 -0.9
20 -0.14
21 0.14
22 0.14
23 -0.15
24 -0.15
25 -0.15
26 -0.15
27 -0.15
28 -0.15
29 -0.15
30 -0.15
49 0.36
50 0.36
59 0.15
60 0.15
61 0.15
62 0.15
63 0.15
64 0.15
65 0.15
66 0.15

>  <PUBCHEM_EFFECTIVE_ROTOR_COUNT>  (1) 
6.8

>  <PUBCHEM_PHARMACOPHORE_FEATURES>  (1) 
9
1 1 cation
1 1 donor
1 2 cation
1 2 donor
6 1 13 15 17 19 21 rings
6 15 19 23 25 27 29 rings
6 16 20 24 26 28 30 rings
6 2 14 16 18 20 22 rings
8 3 4 5 6 7 8 9 10 rings

>  <PUBCHEM_HEAVY_ATOM_COUNT>  (1) 
30

>  <PUBCHEM_ATOM_DEF_STEREO_COUNT>  (1) 
0

>  <PUBCHEM_ATOM_UDEF_STEREO_COUNT>  (1) 
2

>  <PUBCHEM_BOND_DEF_STEREO_COUNT>  (1) 
0

>  <PUBCHEM_BOND_UDEF_STEREO_COUNT>  (1) 
0

>  <PUBCHEM_ISOTOPIC_ATOM_COUNT>  (1) 
0

>  <PUBCHEM_COMPONENT_COUNT>  (1) 
1

>  <PUBCHEM_CACTVS_TAUTO_COUNT>  (1) 
1

>  <PUBCHEM_CONFORMER_ID>  (1) 
0000B48400000003

>  <PUBCHEM_MMFF94_ENERGY>  (1) 
127.0421

>  <PUBCHEM_FEATURE_SELFOVERLAP>  (1) 
45.716

>  <PUBCHEM_SHAPE_FINGERPRINT>  (1) 
10299344 5 18410575088958059201
106641 1 15841547496204942224
11135926 11 18187354420352635887
11315181 36 17918277567506602033
11524674 6 17203607103732377271
11719270 70 18130787846023410182
11796584 16 18271813436320902055
11991303 11 13190353382207502737
12236239 1 18410576188469712965
12516196 113 17917992776103151192
12838862 33 18338782477222665635
13885169 127 18411699868353620001
14251764 18 18343865519831087677
14294032 229 14418958558736716143
14394314 77 18335141960512253017
15021287 119 17749117690615133205
15119646 104 18114186349882741300
15183329 4 17530679905440666259
15276724 80 18114456765049574407
15352257 5 18410571786128481415
15361156 5 18041003994003979709
15461852 350 17346594206094930183
15849732 13 16630525141533136357
15927050 60 17410768482182537184
16087824 20 18261671456027469317
16120349 18 18409727387000061813
17857418 61 18411702088450609987
18006028 8 17989487420203722393
18603816 31 18201144542939219591
18608769 82 18411978078706396520
18681886 176 18342451591196719145
19841028 212 18262797359749192410
20238998 120 18333731320937428636
21130935 74 18341896255587973354
21792934 111 18201708540864453088
22224240 67 14836403635842521676
23516275 137 18198082312302978475
23522609 53 18194431993659297188
23559900 14 18341888649870532521
23622692 88 15697997448458046688
249057 3 17385446544009161613
255183 451 18055642712246156838
3004659 81 18334574641964882810
3009799 131 16950281814788230548
335352 9 18413103971025566181
3383291 50 17749680683481389419
34797466 226 16487258790400292424
350125 39 18412261739874409732
3633792 109 18335983086839040385
397830 11 15697136599615471682
4017518 198 17704073997159011783
4073 2 18114749342522474778
4098825 35 18333447633978044381
4325135 7 18410012139695675990
4339292 15 16629951249405902543
439807 62 18410572869003468322
4625314 4 18410013243702744300
559249 180 18410012148507435927
6009941 240 17749112209804067627
6081469 158 14562806639593273634
6328613 192 18410857655399931609
99344 41 18410292497490902806

>  <PUBCHEM_SHAPE_MULTIPOLES>  (1) 
607.42
22.57
2.23
0.93
0
0.85
0
2.18
-0.01
0
0
0
-0.31
-0.34

>  <PUBCHEM_SHAPE_SELFOVERLAP>  (1) 
1336.667

>  <PUBCHEM_SHAPE_VOLUME>  (1) 
317.6

>  <PUBCHEM_COORDINATE_TYPE>  (1) 
2
5
10

$$$$
