46211
     RDKit          3D

 20 22  0  0  1  0  0  0  0  0999 V2000
   -0.3114    0.1223    1.8964 O   0  0  0  0  0  0  0  0  0  0  0  0
    2.2702    2.3996   -1.3321 N   0  0  0  0  0  0  0  0  0  0  0  0
   -1.3531    0.4139   -0.1867 C   0  0  0  0  0  0  0  0  0  0  0  0
   -2.4754   -0.5387    0.2470 C   0  0  0  0  0  0  0  0  0  0  0  0
   -1.7201    1.8703    0.1286 C   0  0  0  0  0  0  0  0  0  0  0  0
   -0.0337    0.0331    0.4824 C   0  0  0  0  0  0  0  0  0  0  0  0
   -3.8170   -0.1460   -0.3677 C   0  0  0  0  0  0  0  0  0  0  0  0
   -3.0629    2.2589   -0.4857 C   0  0  0  0  0  0  0  0  0  0  0  0
   -4.1742    1.3047   -0.0595 C   0  0  0  0  0  0  0  0  0  0  0  0
    0.3303   -1.4164    0.1162 C   0  0  0  0  0  0  0  0  0  0  0  0
    1.1479    0.9772    0.2025 C   0  0  0  0  0  0  0  0  0  0  0  0
    0.6789   -1.6909   -1.1820 C   0  0  0  0  0  0  0  0  0  0  0  0
    0.2900   -2.3668    1.1047 C   0  0  0  0  0  0  0  0  0  0  0  0
    2.0638    1.2077    1.1879 C   0  0  0  0  0  0  0  0  0  0  0  0
    1.2561    1.5613   -1.0210 C   0  0  0  0  0  0  0  0  0  0  0  0
    1.0093   -3.0048   -1.5141 C   0  0  0  0  0  0  0  0  0  0  0  0
    0.6205   -3.6806    0.7725 C   0  0  0  0  0  0  0  0  0  0  0  0
    3.1217    2.0647    0.9057 C   0  0  0  0  0  0  0  0  0  0  0  0
    0.9801   -3.9995   -0.5369 C   0  0  0  0  0  0  0  0  0  0  0  0
    3.1790    2.6300   -0.3582 C   0  0  0  0  0  0  0  0  0  0  0  0
  1  6  1  0
  2 15  2  0
  2 20  1  0
  3  4  1  0
  3  5  1  0
  3  6  1  0
  4  7  1  0
  5  8  1  0
  6 10  1  0
  6 11  1  0
  7  9  1  0
  8  9  1  0
 10 12  2  0
 10 13  1  0
 11 14  2  0
 11 15  1  0
 12 16  1  0
 13 17  2  0
 14 18  1  0
 16 19  2  0
 17 19  1  0
 18 20  2  0
M  END
>  <PUBCHEM_COMPOUND_CID>  (1) 
46211

>  <PUBCHEM_CONFORMER_RMSD>  (1) 
0.6

>  <PUBCHEM_CONFORMER_DIVERSEORDER>  (1) 
3
20
7
22
19
10
16
21
13
11
6
17
9
5
14
18
2
8
12
4
1
15

>  <PUBCHEM_MMFF94_PARTIAL_CHARGES>  (1) 
24
1 -0.68
10 -0.14
11 -0.14
12 -0.15
13 -0.15
14 -0.15
15 0.16
16 -0.15
17 -0.15
18 -0.15
19 -0.15
2 -0.62
20 0.16
32 0.4
33 0.15
34 0.15
35 0.15
36 0.15
37 0.15
38 0.15
39 0.15
40 0.15
41 0.15
6 0.57

>  <PUBCHEM_EFFECTIVE_ROTOR_COUNT>  (1) 
4.2

>  <PUBCHEM_PHARMACOPHORE_FEATURES>  (1) 
6
1 1 acceptor
1 1 donor
1 2 acceptor
6 10 12 13 16 17 19 rings
6 2 11 14 15 18 20 rings
6 3 4 5 7 8 9 rings

>  <PUBCHEM_HEAVY_ATOM_COUNT>  (1) 
20

>  <PUBCHEM_ATOM_DEF_STEREO_COUNT>  (1) 
0

>  <PUBCHEM_ATOM_UDEF_STEREO_COUNT>  (1) 
1

>  <PUBCHEM_BOND_DEF_STEREO_COUNT>  (1) 
0

>  <PUBCHEM_BOND_UDEF_STEREO_COUNT>  (1) 
0

>  <PUBCHEM_ISOTOPIC_ATOM_COUNT>  (1) 
0

>  <PUBCHEM_COMPONENT_COUNT>  (1) 
1

>  <PUBCHEM_CACTVS_TAUTO_COUNT>  (1) 
1

>  <PUBCHEM_CONFORMER_ID>  (1) 
0000B48300000003

>  <PUBCHEM_MMFF94_ENERGY>  (1) 
67.7663

>  <PUBCHEM_FEATURE_SELFOVERLAP>  (1) 
30.446

>  <PUBCHEM_SHAPE_FINGERPRINT>  (1) 
11578080 2 12196279288964958005
121448 382 17912906555688103813
12553582 1 17402618446308629571
12592029 89 18410291389320268978
12714826 92 17263586781582237624
12788726 201 17541377285990349042
13004483 165 17117182444620147794
13140716 1 18411136939479026377
133893 2 18196949772370362401
13538477 17 17683232930479485680
13681431 1 18053387591250866218
14004458 79 17474676525297846388
14181834 199 17984398773073805631
15042514 8 17832426766858409866
15502722 9 18340208492633399413
15852999 172 18057899124126009308
15906896 17 17902791100125792322
16752209 62 17834667571508500370
16945 1 18126839409029804067
1813 80 17551518739042664831
20197701 30 18269820030229211528
20567600 347 18339921614572207575
20600515 1 17109015838878742672
20602899 9 18128836302798404128
20645476 183 18192149519467946956
20905425 154 17980484455944718172
21304303 282 17548649356901546564
21421566 26 16828154930885816012
21524375 3 18338228383555125329
22112679 90 16895419762233074800
2255824 54 18266743480888962671
23366157 5 18189898617402367343
23419403 2 17467406275136804234
23557571 272 17479458293126016072
23559900 14 18194953042665087445
23598288 3 17610346317569321952
23728640 28 18122051264020043722
2748010 2 18121525662633119299
298252 57 18191299575241154369
3091708 16 9333991135866698443
3187 122 16253587558959472849
352729 6 18263365952740182497
458136 41 18340222837887595217
59755656 215 18263639567916711837
6138700 20 18267870472213695638
7364860 26 18269832017382701201
81228 2 17405419387318023379
81539 233 18409440389032576853
84936 31 17914595199089224478
90316 7 17330284277624835514

>  <PUBCHEM_SHAPE_MULTIPOLES>  (1) 
400.74
5.05
4.71
1.32
6.91
1.95
0.05
-2.26
-0.47
-5.45
-0.63
-0.69
0.15
0.35

>  <PUBCHEM_SHAPE_SELFOVERLAP>  (1) 
867.62

>  <PUBCHEM_SHAPE_VOLUME>  (1) 
215.7

>  <PUBCHEM_COORDINATE_TYPE>  (1) 
2
5
10

$$$$
