46225
     RDKit          3D

 24 25  0  0  1  0  0  0  0  0999 V2000
   -0.7223    2.4838    2.8705 Cl  0  0  0  0  0  0  0  0  0  0  0  0
    1.8051   -0.4089   -1.1527 O   0  0  0  0  0  0  0  0  0  0  0  0
   -1.6653    0.7195   -0.6255 N   0  0  0  0  0  0  0  0  0  0  0  0
   -0.3337    0.7078   -1.2289 C   0  0  0  0  0  0  0  0  0  0  0  0
    0.4927   -0.4170   -0.6045 C   0  0  0  0  0  0  0  0  0  0  0  0
   -2.3710   -0.5275   -0.9193 C   0  0  0  0  0  0  0  0  0  0  0  0
   -1.5705    0.9245    0.8195 C   0  0  0  0  0  0  0  0  0  0  0  0
   -0.4462    0.5553   -2.7461 C   0  0  0  0  0  0  0  0  0  0  0  0
   -3.7703   -0.5244   -0.3637 C   0  0  0  0  0  0  0  0  0  0  0  0
    3.9619    1.3343   -0.4646 C   0  0  0  0  0  0  0  0  0  0  0  0
    3.8792   -0.0811    0.0037 C   0  0  0  0  0  0  0  0  0  0  0  0
    2.8094   -0.8938   -0.3568 C   0  0  0  0  0  0  0  0  0  0  0  0
   -0.8590    2.2362    1.1133 C   0  0  0  0  0  0  0  0  0  0  0  0
   -3.9962   -0.9973    0.9215 C   0  0  0  0  0  0  0  0  0  0  0  0
   -4.8146   -0.0482   -1.1442 C   0  0  0  0  0  0  0  0  0  0  0  0
    5.1967    1.5892   -1.3485 C   0  0  0  0  0  0  0  0  0  0  0  0
    3.9348    2.3408    0.7003 C   0  0  0  0  0  0  0  0  0  0  0  0
    4.8928   -0.5913    0.8148 C   0  0  0  0  0  0  0  0  0  0  0  0
    2.7422   -2.2113    0.0850 C   0  0  0  0  0  0  0  0  0  0  0  0
    4.8311   -1.9114    1.2612 C   0  0  0  0  0  0  0  0  0  0  0  0
    3.7558   -2.7214    0.8963 C   0  0  0  0  0  0  0  0  0  0  0  0
   -5.2924   -0.9944    1.4364 C   0  0  0  0  0  0  0  0  0  0  0  0
   -6.1108   -0.0452   -0.6290 C   0  0  0  0  0  0  0  0  0  0  0  0
   -6.3497   -0.5182    0.6614 C   0  0  0  0  0  0  0  0  0  0  0  0
  1 13  1  0
  2  5  1  0
  2 12  1  0
  3  4  1  0
  3  6  1  0
  3  7  1  0
  4  5  1  0
  4  8  1  0
  6  9  1  0
  7 13  1  0
  9 14  2  0
  9 15  1  0
 10 11  1  0
 10 16  1  0
 10 17  1  0
 11 12  2  0
 11 18  1  0
 12 19  1  0
 14 22  1  0
 15 23  2  0
 18 20  2  0
 19 21  2  0
 20 21  1  0
 22 24  2  0
 23 24  1  0
M  END
>  <PUBCHEM_COMPOUND_CID>  (1) 
46225

>  <PUBCHEM_CONFORMER_RMSD>  (1) 
1

>  <PUBCHEM_CONFORMER_DIVERSEORDER>  (1) 
4
148
143
37
98
70
20
87
81
103
94
131
28
77
146
137
17
68
49
71
114
99
64
82
42
54
141
127
144
112
122
149
2
60
52
151
125
102
45
23
53
135
19
34
29
3
86
107
153
76
90
95
26
145
35
88
51
59
142
115
72
89
58
109
22
38
139
31
12
93
73
97
108
57
79
105
118
134
133
130
92
132
123
14
96
62
121
111
7
100
66
36
39
119
43
91
9
27
24
21
44
78
116
129
65
67
110
117
55
48
30
1
16
83
75
6
10
61
46
74
126
120
33
18
113
5
15
50
63
150
85
32
101
25
69
11
40
47
136
128
13
147
138
152
140
124
41
8
84
104
80
106
56

>  <PUBCHEM_MMFF94_PARTIAL_CHARGES>  (1) 
30
1 -0.29
10 0.14
11 -0.14
12 0.08
13 0.29
14 -0.15
15 -0.15
18 -0.15
19 -0.15
2 -0.36
20 -0.15
21 -0.15
22 -0.15
23 -0.15
24 -0.15
3 -0.81
4 0.27
44 0.15
45 0.15
46 0.15
47 0.15
48 0.15
49 0.15
5 0.28
50 0.15
51 0.15
52 0.15
6 0.41
7 0.27
9 -0.14

>  <PUBCHEM_EFFECTIVE_ROTOR_COUNT>  (1) 
9

>  <PUBCHEM_PHARMACOPHORE_FEATURES>  (1) 
5
1 2 acceptor
1 3 cation
3 10 16 17 hydrophobe
6 11 12 18 19 20 21 rings
6 9 14 15 22 23 24 rings

>  <PUBCHEM_HEAVY_ATOM_COUNT>  (1) 
24

>  <PUBCHEM_ATOM_DEF_STEREO_COUNT>  (1) 
0

>  <PUBCHEM_ATOM_UDEF_STEREO_COUNT>  (1) 
1

>  <PUBCHEM_BOND_DEF_STEREO_COUNT>  (1) 
0

>  <PUBCHEM_BOND_UDEF_STEREO_COUNT>  (1) 
0

>  <PUBCHEM_ISOTOPIC_ATOM_COUNT>  (1) 
0

>  <PUBCHEM_COMPONENT_COUNT>  (1) 
1

>  <PUBCHEM_CACTVS_TAUTO_COUNT>  (1) 
1

>  <PUBCHEM_CONFORMER_ID>  (1) 
0000B49100000004

>  <PUBCHEM_MMFF94_ENERGY>  (1) 
77.1501

>  <PUBCHEM_FEATURE_SELFOVERLAP>  (1) 
25.372

>  <PUBCHEM_SHAPE_FINGERPRINT>  (1) 
10165383 225 18042410291647801404
10366900 7 16443913748209148442
10670039 82 16845027740157616880
10835480 77 17894623764883519245
11595378 159 17632302220124217018
12363563 72 16588599612357265470
12516196 113 17989484126411945699
12596602 18 18272657882905465435
12616971 3 18271232880985369870
12633257 1 17917705820795942319
12788726 201 18060147513371658417
13009979 54 17986108510024772426
13533116 47 18335420153780495682
13544653 18 18408322181485955983
13899415 154 17774730865001192297
14251764 18 18343587348528174993
14341114 176 18341608188453368730
14341114 328 18131917073965118687
146900 427 18343022245962825144
14787075 74 18272089447903701847
14840074 17 17561088050679859653
14848160 23 17749387057598754203
15183329 4 13984659248731569479
1601671 61 16415205589295977337
17349148 13 14129053690705398988
17492 89 18126848196844790462
17909252 39 16734095752572362250
18222031 100 17060334141499807717
19377110 9 18272652329200937418
23227448 37 11887370522568367847
23559900 14 17385726898226326494
239999 70 17458343040060995306
2838139 119 11383845822733524651
3004659 81 15430040950052399702
312423 11 18270130002551255826
345986 75 17989487402928947209
404807 14 17465093847839543027
5104073 3 18260543377300303401
5283173 99 17531237310734091005
69474 34 17418368104362864041
8988823 20 18408882949205607287

>  <PUBCHEM_SHAPE_MULTIPOLES>  (1) 
484.93
14.34
2.47
2.02
9.53
0.54
0.01
-3.96
-1.83
-3.31
-1.62
0.4
0.9
-1.31

>  <PUBCHEM_SHAPE_SELFOVERLAP>  (1) 
992.584

>  <PUBCHEM_SHAPE_VOLUME>  (1) 
282.5

>  <PUBCHEM_COORDINATE_TYPE>  (1) 
2
5
10

$$$$
