46229
     RDKit          3D

 22 23  0  0  1  0  0  0  0  0999 V2000
    2.5771    5.2759   -0.3130 Cl  0  0  0  0  0  0  0  0  0  0  0  0
   -1.7285    0.4486    1.0451 O   0  0  0  0  0  0  0  0  0  0  0  0
    1.6911    1.3605    0.0155 N   0  0  0  0  0  0  0  0  0  0  0  0
    0.6355    0.6674    0.7529 C   0  0  0  0  0  0  0  0  0  0  0  0
    3.0058    0.8543    0.4080 C   0  0  0  0  0  0  0  0  0  0  0  0
    1.6105    2.8030    0.2421 C   0  0  0  0  0  0  0  0  0  0  0  0
   -0.7356    1.1593    0.3172 C   0  0  0  0  0  0  0  0  0  0  0  0
    3.1449   -0.6192    0.1315 C   0  0  0  0  0  0  0  0  0  0  0  0
    2.6557    3.5208   -0.5977 C   0  0  0  0  0  0  0  0  0  0  0  0
   -2.9387    0.2707    0.4272 C   0  0  0  0  0  0  0  0  0  0  0  0
   -3.4241   -1.0094    0.1815 C   0  0  0  0  0  0  0  0  0  0  0  0
    2.7829   -1.5351    1.1095 C   0  0  0  0  0  0  0  0  0  0  0  0
    3.6327   -1.0409   -1.0975 C   0  0  0  0  0  0  0  0  0  0  0  0
   -2.6442   -2.2180    0.5819 C   0  0  0  0  0  0  0  0  0  0  0  0
   -3.6734    1.3902    0.0501 C   0  0  0  0  0  0  0  0  0  0  0  0
   -4.6582   -1.1719   -0.4482 C   0  0  0  0  0  0  0  0  0  0  0  0
    2.9116   -2.9001    0.8535 C   0  0  0  0  0  0  0  0  0  0  0  0
    3.7612   -2.4061   -1.3535 C   0  0  0  0  0  0  0  0  0  0  0  0
    3.4006   -3.3357   -0.3780 C   0  0  0  0  0  0  0  0  0  0  0  0
   -1.6998   -2.6888   -0.5203 C   0  0  0  0  0  0  0  0  0  0  0  0
   -4.9074    1.2276   -0.5794 C   0  0  0  0  0  0  0  0  0  0  0  0
   -5.3998   -0.0533   -0.8285 C   0  0  0  0  0  0  0  0  0  0  0  0
  1  9  1  0
  2  7  1  0
  2 10  1  0
  3  4  1  0
  3  5  1  0
  3  6  1  0
  4  7  1  0
  5  8  1  0
  6  9  1  0
  8 12  2  0
  8 13  1  0
 10 11  2  0
 10 15  1  0
 11 14  1  0
 11 16  1  0
 12 17  1  0
 13 18  2  0
 14 20  1  0
 15 21  2  0
 16 22  2  0
 17 19  2  0
 18 19  1  0
 21 22  1  0
M  END
>  <PUBCHEM_COMPOUND_CID>  (1) 
46229

>  <PUBCHEM_CONFORMER_RMSD>  (1) 
1

>  <PUBCHEM_CONFORMER_DIVERSEORDER>  (1) 
1
453
159
395
266
269
558
517
647
547
301
489
75
645
442
608
548
34
359
197
452
515
403
353
45
659
32
59
321
528
73
176
184
469
83
546
160
4
38
256
651
432
5
68
390
111
51
238
35
88
222
226
112
611
106
42
307
207
605
319
255
348
3
288
311
16
271
400
173
23
509
237
228
191
241
248
162
17
473
427
574
189
6
26
232
20
31
576
535
151
349
86
230
244
78
285
482
379
10
114
231
58
92
290
396
236
47
66
445
52
562
19
388
104
55
253
422
9
14
622
101
415
455
219
80
468
522
168
273
458
115
79
128
172
48
72
134
107
21
203
614
305
25
438
287
143
531
37
156
24
354
29
36
457
265
2
336
642
18
178

>  <PUBCHEM_MMFF94_PARTIAL_CHARGES>  (1) 
30
1 -0.29
10 0.08
11 -0.14
12 -0.15
13 -0.15
14 0.14
15 -0.15
16 -0.15
17 -0.15
18 -0.15
19 -0.15
2 -0.36
21 -0.15
22 -0.15
3 -0.81
33 0.15
34 0.15
37 0.15
38 0.15
39 0.15
4 0.27
40 0.15
44 0.15
45 0.15
46 0.15
5 0.41
6 0.27
7 0.28
8 -0.14
9 0.29

>  <PUBCHEM_EFFECTIVE_ROTOR_COUNT>  (1) 
9

>  <PUBCHEM_PHARMACOPHORE_FEATURES>  (1) 
5
1 2 acceptor
1 20 hydrophobe
1 3 cation
6 10 11 15 16 21 22 rings
6 8 12 13 17 18 19 rings

>  <PUBCHEM_HEAVY_ATOM_COUNT>  (1) 
22

>  <PUBCHEM_ATOM_DEF_STEREO_COUNT>  (1) 
0

>  <PUBCHEM_ATOM_UDEF_STEREO_COUNT>  (1) 
0

>  <PUBCHEM_BOND_DEF_STEREO_COUNT>  (1) 
0

>  <PUBCHEM_BOND_UDEF_STEREO_COUNT>  (1) 
0

>  <PUBCHEM_ISOTOPIC_ATOM_COUNT>  (1) 
0

>  <PUBCHEM_COMPONENT_COUNT>  (1) 
1

>  <PUBCHEM_CACTVS_TAUTO_COUNT>  (1) 
1

>  <PUBCHEM_CONFORMER_ID>  (1) 
0000B49500000001

>  <PUBCHEM_MMFF94_ENERGY>  (1) 
63.8289

>  <PUBCHEM_FEATURE_SELFOVERLAP>  (1) 
25.372

>  <PUBCHEM_SHAPE_FINGERPRINT>  (1) 
10616163 171 18196090169078735371
12553582 1 18265910055185537778
12788726 201 17756715130957153026
13533116 47 18343300409936403785
14866123 147 17478334128126660435
17349148 13 17775286019805164559
17492 89 18340205288688770351
17818456 19 17773325530348840217
20645477 70 18411136973944259449
22393880 68 18195255635532029108
2255824 54 18338518655089094840
23559900 14 18341044194247777969
3004659 81 18116434748093455274
314173 41 18410579444355753154
339767 52 18340481162922437266
4280585 95 18338798901947959754
5207 123 18198903621765445911
6025842 7 18266457783469095037
960060 61 18187654548345471726
9709674 26 18410293653074287571
9981440 41 17830448745355859848

>  <PUBCHEM_SHAPE_MULTIPOLES>  (1) 
443.77
10.58
5.34
1.04
11.11
5.44
0.07
-2.45
2.57
-8.06
0.82
-0.46
-0.4
0.12

>  <PUBCHEM_SHAPE_SELFOVERLAP>  (1) 
907.258

>  <PUBCHEM_SHAPE_VOLUME>  (1) 
258.5

>  <PUBCHEM_COORDINATE_TYPE>  (1) 
2
5
10

$$$$
