46236
     RDKit          3D

 20 21  0  0  1  0  0  0  0  0999 V2000
   -2.5115    1.4121   -0.6122 O   0  0  0  0  0  0  0  0  0  0  0  0
    3.3667   -0.6652    0.4567 N   0  0  0  0  0  0  0  0  0  0  0  0
    3.0245    0.7407    0.2439 C   0  0  0  0  0  0  0  0  0  0  0  0
    1.5371    0.9208    0.0139 C   0  0  0  0  0  0  0  0  0  0  0  0
    4.8051   -0.8134    0.6760 C   0  0  0  0  0  0  0  0  0  0  0  0
    2.9376   -1.4740   -0.6835 C   0  0  0  0  0  0  0  0  0  0  0  0
    3.5212    1.5783    1.4245 C   0  0  0  0  0  0  0  0  0  0  0  0
    1.1009    1.4427   -1.1897 C   0  0  0  0  0  0  0  0  0  0  0  0
    0.6532    0.5590    1.0138 C   0  0  0  0  0  0  0  0  0  0  0  0
    5.5951   -0.3675   -0.5427 C   0  0  0  0  0  0  0  0  0  0  0  0
    3.2303   -2.9469   -0.4529 C   0  0  0  0  0  0  0  0  0  0  0  0
   -0.2678    1.6087   -1.4013 C   0  0  0  0  0  0  0  0  0  0  0  0
   -0.7156    0.7249    0.8023 C   0  0  0  0  0  0  0  0  0  0  0  0
   -1.1761    1.2497   -0.4053 C   0  0  0  0  0  0  0  0  0  0  0  0
   -3.3502    0.3714   -0.2498 C   0  0  0  0  0  0  0  0  0  0  0  0
   -3.0034   -0.9234   -0.5907 C   0  0  0  0  0  0  0  0  0  0  0  0
   -4.5134    0.6541    0.4431 C   0  0  0  0  0  0  0  0  0  0  0  0
   -3.8487   -1.9714   -0.2263 C   0  0  0  0  0  0  0  0  0  0  0  0
   -5.3587   -0.3940    0.8075 C   0  0  0  0  0  0  0  0  0  0  0  0
   -5.0262   -1.7067    0.4728 C   0  0  0  0  0  0  0  0  0  0  0  0
  1 14  1  0
  1 15  1  0
  2  3  1  0
  2  5  1  0
  2  6  1  0
  3  4  1  0
  3  7  1  0
  4  8  2  0
  4  9  1  0
  5 10  1  0
  6 11  1  0
  8 12  1  0
  9 13  2  0
 12 14  2  0
 13 14  1  0
 15 16  2  0
 15 17  1  0
 16 18  1  0
 17 19  2  0
 18 20  2  0
 19 20  1  0
M  END
>  <PUBCHEM_COMPOUND_CID>  (1) 
46236

>  <PUBCHEM_CONFORMER_RMSD>  (1) 
0.8

>  <PUBCHEM_CONFORMER_DIVERSEORDER>  (1) 
1
19
21
4
9
15
3
11
14
23
17
2
13
10
22
16
8
18
6
12
20
7
5

>  <PUBCHEM_MMFF94_PARTIAL_CHARGES>  (1) 
26
1 -0.17
12 -0.15
13 -0.15
14 0.08
15 0.08
16 -0.15
17 -0.15
18 -0.15
19 -0.15
2 -0.81
20 -0.15
29 0.15
3 0.41
30 0.15
37 0.15
38 0.15
39 0.15
4 -0.14
40 0.15
41 0.15
42 0.15
43 0.15
5 0.27
6 0.27
8 -0.15
9 -0.15

>  <PUBCHEM_EFFECTIVE_ROTOR_COUNT>  (1) 
6

>  <PUBCHEM_PHARMACOPHORE_FEATURES>  (1) 
4
1 1 acceptor
1 2 cation
6 15 16 17 18 19 20 rings
6 4 8 9 12 13 14 rings

>  <PUBCHEM_HEAVY_ATOM_COUNT>  (1) 
20

>  <PUBCHEM_ATOM_DEF_STEREO_COUNT>  (1) 
0

>  <PUBCHEM_ATOM_UDEF_STEREO_COUNT>  (1) 
1

>  <PUBCHEM_BOND_DEF_STEREO_COUNT>  (1) 
0

>  <PUBCHEM_BOND_UDEF_STEREO_COUNT>  (1) 
0

>  <PUBCHEM_ISOTOPIC_ATOM_COUNT>  (1) 
0

>  <PUBCHEM_COMPONENT_COUNT>  (1) 
1

>  <PUBCHEM_CACTVS_TAUTO_COUNT>  (1) 
1

>  <PUBCHEM_CONFORMER_ID>  (1) 
0000B49C00000001

>  <PUBCHEM_MMFF94_ENERGY>  (1) 
65.8136

>  <PUBCHEM_FEATURE_SELFOVERLAP>  (1) 
20.297

>  <PUBCHEM_SHAPE_FINGERPRINT>  (1) 
11089746 13 10231757751538900217
11128504 68 16805610282465978068
11552529 35 17488170681604023167
11796584 16 18273501156530784151
12107183 9 17626117342837908267
12553582 1 17603856819653885833
12596602 18 16343698884859245627
12633257 1 16702302394940148471
12670546 177 17167869689857506206
12892183 10 18131630114615929465
12916748 109 10015583943307883661
13103583 49 17632306678754035403
13167823 11 18411699902312107065
13288520 33 18334858311928558693
13402501 40 18410578361950758686
13464513 79 18333732420949124306
13544653 18 18342171168001699109
13551218 46 18412831287694468519
13583140 156 17917979577637463153
13675066 3 18410571808178298409
13911882 115 18342746204384007694
1420 369 18333731355575695403
14252887 29 18335419084064594200
14341114 176 18060139851308498064
14466204 15 9583523088499827318
14617045 38 18412271622525949990
14848178 96 10447925079092041675
15209294 21 11887954345582851749
15342816 4 17458619008509661984
15537594 2 17967250875742694243
15880784 105 18059857328433438371
17349148 13 16298381332077973248
17959699 21 9007057959213077231
1813 80 17748830717589160221
18222031 100 17749382697901039141
19141452 34 18410293601787445805
193927 3 18113628897529624083
20281475 54 18338236071931713589
21033648 29 12967132653508628227
21267235 1 18113624517032214899
21521721 280 18131068277881678512
21673915 165 18269548493612060655
22950370 63 18260551125410534853
23402539 116 17167858621842965076
23557571 272 18113896022588387564
23559900 14 18341323470180419880
26918003 58 18131348596520643345
2838139 119 8502372209042296026
33382 64 18412831282555151578
351380 3 18040151825073863219
4028521 119 9295291642642425287
4325135 7 18040438806741933948
4340502 62 18129938001187182216
441001 317 9439405731248766973
5104073 3 18342734126344699625
5924683 9 17488453243529265407
6433294 58 18266457607523661474
7495541 125 18408315576253737000

>  <PUBCHEM_SHAPE_MULTIPOLES>  (1) 
400.74
12.09
2.29
1.16
2.93
1.32
-0.01
5.7
2.13
-0.72
-0.38
-0.36
-0.39
0.76

>  <PUBCHEM_SHAPE_SELFOVERLAP>  (1) 
841.399

>  <PUBCHEM_SHAPE_VOLUME>  (1) 
228.1

>  <PUBCHEM_COORDINATE_TYPE>  (1) 
2
5
10

$$$$
