46233
     RDKit          3D

 22 23  0  0  1  0  0  0  0  0999 V2000
    2.5865    5.2688   -0.3033 Cl  0  0  0  0  0  0  0  0  0  0  0  0
   -1.7228    0.4410    1.0411 O   0  0  0  0  0  0  0  0  0  0  0  0
   -2.6971   -2.1140    0.5424 O   0  0  0  0  0  0  0  0  0  0  0  0
    1.6979    1.3533    0.0156 N   0  0  0  0  0  0  0  0  0  0  0  0
    0.6414    0.6591    0.7508 C   0  0  0  0  0  0  0  0  0  0  0  0
    3.0121    0.8452    0.4077 C   0  0  0  0  0  0  0  0  0  0  0  0
    1.6181    2.7953    0.2455 C   0  0  0  0  0  0  0  0  0  0  0  0
   -0.7290    1.1528    0.3155 C   0  0  0  0  0  0  0  0  0  0  0  0
    3.1504   -0.6276    0.1279 C   0  0  0  0  0  0  0  0  0  0  0  0
    2.6642    3.5144   -0.5920 C   0  0  0  0  0  0  0  0  0  0  0  0
    2.7873   -1.5456    1.1035 C   0  0  0  0  0  0  0  0  0  0  0  0
    3.6387   -1.0468   -1.1018 C   0  0  0  0  0  0  0  0  0  0  0  0
   -2.9328    0.2653    0.4222 C   0  0  0  0  0  0  0  0  0  0  0  0
    2.9152   -2.9101    0.8444 C   0  0  0  0  0  0  0  0  0  0  0  0
    3.7664   -2.4114   -1.3610 C   0  0  0  0  0  0  0  0  0  0  0  0
    3.4048   -3.3431   -0.3879 C   0  0  0  0  0  0  0  0  0  0  0  0
   -3.4142   -1.0158    0.1749 C   0  0  0  0  0  0  0  0  0  0  0  0
   -3.6698    1.3832    0.0456 C   0  0  0  0  0  0  0  0  0  0  0  0
   -4.6471   -1.1811   -0.4562 C   0  0  0  0  0  0  0  0  0  0  0  0
   -4.9028    1.2178   -0.5853 C   0  0  0  0  0  0  0  0  0  0  0  0
   -5.3915   -0.0642   -0.8363 C   0  0  0  0  0  0  0  0  0  0  0  0
   -1.7760   -2.6364   -0.4131 C   0  0  0  0  0  0  0  0  0  0  0  0
  1 10  1  0
  2  8  1  0
  2 13  1  0
  3 17  1  0
  3 22  1  0
  4  5  1  0
  4  6  1  0
  4  7  1  0
  5  8  1  0
  6  9  1  0
  7 10  1  0
  9 11  2  0
  9 12  1  0
 11 14  1  0
 12 15  2  0
 13 17  2  0
 13 18  1  0
 14 16  2  0
 15 16  1  0
 17 19  1  0
 18 20  2  0
 19 21  2  0
 20 21  1  0
M  END
>  <PUBCHEM_COMPOUND_CID>  (1) 
46233

>  <PUBCHEM_CONFORMER_RMSD>  (1) 
1

>  <PUBCHEM_CONFORMER_DIVERSEORDER>  (1) 
1
484
465
471
78
138
507
703
403
612
146
651
3
664
669
399
393
126
313
231
4
389
611
234
387
19
45
148
118
216
530
81
5
416
646
306
104
325
67
353
315
616
26
518
626
520
38
483
122
224
79
279
87
578
195
601
512
307
418
2
652
490
459
6
129
618
431
204
346
168
165
375
54
349
192
373
236
205
108
680
276
92
292
634
717
201
30
17
25
277
107
351
31
432
271
543
123
259
535
169
194
232
14
20
495
158
549
181
715
29
448
175
217
95
328
211
189
21
582
46
374
55
647
27
392
428
310
42
522
32
33
109
16
293
75
426
356
415
506
401
28
713
434
58
22
190
244
250
691
275
12
18
178
331
700
39
13
177
48
714
614
160
653
694
34
324
252
69
7
8

>  <PUBCHEM_MMFF94_PARTIAL_CHARGES>  (1) 
31
1 -0.29
10 0.29
11 -0.15
12 -0.15
13 0.08
14 -0.15
15 -0.15
16 -0.15
17 0.08
18 -0.15
19 -0.15
2 -0.36
20 -0.15
21 -0.15
22 0.28
3 -0.36
33 0.15
34 0.15
35 0.15
36 0.15
37 0.15
38 0.15
39 0.15
4 -0.81
40 0.15
41 0.15
5 0.27
6 0.41
7 0.27
8 0.28
9 -0.14

>  <PUBCHEM_EFFECTIVE_ROTOR_COUNT>  (1) 
9

>  <PUBCHEM_PHARMACOPHORE_FEATURES>  (1) 
5
1 2 acceptor
1 3 acceptor
1 4 cation
6 13 17 18 19 20 21 rings
6 9 11 12 14 15 16 rings

>  <PUBCHEM_HEAVY_ATOM_COUNT>  (1) 
22

>  <PUBCHEM_ATOM_DEF_STEREO_COUNT>  (1) 
0

>  <PUBCHEM_ATOM_UDEF_STEREO_COUNT>  (1) 
0

>  <PUBCHEM_BOND_DEF_STEREO_COUNT>  (1) 
0

>  <PUBCHEM_BOND_UDEF_STEREO_COUNT>  (1) 
0

>  <PUBCHEM_ISOTOPIC_ATOM_COUNT>  (1) 
0

>  <PUBCHEM_COMPONENT_COUNT>  (1) 
1

>  <PUBCHEM_CACTVS_TAUTO_COUNT>  (1) 
1

>  <PUBCHEM_CONFORMER_ID>  (1) 
0000B49900000001

>  <PUBCHEM_MMFF94_ENERGY>  (1) 
77.4503

>  <PUBCHEM_FEATURE_SELFOVERLAP>  (1) 
25.376

>  <PUBCHEM_SHAPE_FINGERPRINT>  (1) 
10616163 171 18196090164778499795
12553582 1 18265910050906401226
12788726 201 17756715130967676554
13533116 47 18343300409936423265
14866123 147 17406558009065449641
15842332 3 17915767364590190737
17349148 13 17775286019805151575
17492 89 18340486759375768983
17818456 19 17773325530343571953
20645477 70 18411136973933716441
2255824 54 18338518655094369576
23559900 14 18341606044721207049
3004659 81 18188773817102806098
314173 41 18410579444355746650
339767 52 18340762633598899354
4280585 95 18338798897647724194
5207 123 18198903621770727167
6025842 7 18266457783463820285
960060 61 18187654548345478230
9709674 26 18410293648779320275
9981440 41 17830730220332596488

>  <PUBCHEM_SHAPE_MULTIPOLES>  (1) 
437.9
10.63
5.3
1.03
11.84
5.64
0.07
-3.05
2.6
-8.09
0.85
-0.5
-0.38
0.06

>  <PUBCHEM_SHAPE_SELFOVERLAP>  (1) 
897.532

>  <PUBCHEM_SHAPE_VOLUME>  (1) 
254.4

>  <PUBCHEM_COORDINATE_TYPE>  (1) 
2
5
10

$$$$
