46238
     RDKit          3D

 15 15  0  0  1  0  0  0  0  0999 V2000
   -2.3094   -0.3310   -1.8201 O   0  0  0  0  0  0  0  0  0  0  0  0
    0.0370    2.1324   -0.1743 O   0  0  0  0  0  0  0  0  0  0  0  0
    3.4980   -1.1211    0.2137 O   0  0  0  0  0  0  0  0  0  0  0  0
   -4.2836   -0.2197    0.2385 N   0  0  0  0  0  0  0  0  0  0  0  0
   -1.9604    0.1177   -0.5077 C   0  0  0  0  0  0  0  0  0  0  0  0
   -2.8836   -0.5437    0.5403 C   0  0  0  0  0  0  0  0  0  0  0  0
   -0.4933   -0.2006   -0.3130 C   0  0  0  0  0  0  0  0  0  0  0  0
   -2.5867   -0.0729    1.9653 C   0  0  0  0  0  0  0  0  0  0  0  0
    0.4226    0.8257   -0.1565 C   0  0  0  0  0  0  0  0  0  0  0  0
   -0.1015   -1.5287   -0.2963 C   0  0  0  0  0  0  0  0  0  0  0  0
    1.7707    0.5150    0.0216 C   0  0  0  0  0  0  0  0  0  0  0  0
    1.2464   -1.8394   -0.1182 C   0  0  0  0  0  0  0  0  0  0  0  0
    2.1827   -0.8175    0.0407 C   0  0  0  0  0  0  0  0  0  0  0  0
    1.0595    3.1120   -0.0043 C   0  0  0  0  0  0  0  0  0  0  0  0
    4.4016   -0.0281    0.3702 C   0  0  0  0  0  0  0  0  0  0  0  0
  1  5  1  0
  2  9  1  0
  2 14  1  0
  3 13  1  0
  3 15  1  0
  4  6  1  0
  5  6  1  0
  5  7  1  0
  6  8  1  0
  7  9  2  0
  7 10  1  0
  9 11  1  0
 10 12  2  0
 11 13  2  0
 12 13  1  0
M  END
>  <PUBCHEM_COMPOUND_CID>  (1) 
46238

>  <PUBCHEM_CONFORMER_RMSD>  (1) 
0.6

>  <PUBCHEM_CONFORMER_DIVERSEORDER>  (1) 
2
25
28
39
36
7
14
30
24
21
29
42
4
27
19
10
6
13
41
32
35
37
40
33
34
15
43
23
11
9
38
31
26
8
17
12
3
16
22
18
20
1
5

>  <PUBCHEM_MMFF94_PARTIAL_CHARGES>  (1) 
20
1 -0.68
10 -0.15
11 -0.15
12 -0.15
13 0.08
14 0.28
15 0.28
2 -0.36
21 0.15
22 0.36
23 0.36
24 0.15
25 0.15
26 0.4
3 -0.36
4 -0.99
5 0.42
6 0.27
7 -0.14
9 0.08

>  <PUBCHEM_EFFECTIVE_ROTOR_COUNT>  (1) 
4

>  <PUBCHEM_PHARMACOPHORE_FEATURES>  (1) 
7
1 1 acceptor
1 1 donor
1 2 acceptor
1 3 acceptor
1 4 cation
1 4 donor
6 7 9 10 11 12 13 rings

>  <PUBCHEM_HEAVY_ATOM_COUNT>  (1) 
15

>  <PUBCHEM_ATOM_DEF_STEREO_COUNT>  (1) 
0

>  <PUBCHEM_ATOM_UDEF_STEREO_COUNT>  (1) 
2

>  <PUBCHEM_BOND_DEF_STEREO_COUNT>  (1) 
0

>  <PUBCHEM_BOND_UDEF_STEREO_COUNT>  (1) 
0

>  <PUBCHEM_ISOTOPIC_ATOM_COUNT>  (1) 
0

>  <PUBCHEM_COMPONENT_COUNT>  (1) 
1

>  <PUBCHEM_CACTVS_TAUTO_COUNT>  (1) 
1

>  <PUBCHEM_CONFORMER_ID>  (1) 
0000B49E00000002

>  <PUBCHEM_MMFF94_ENERGY>  (1) 
53.4468

>  <PUBCHEM_FEATURE_SELFOVERLAP>  (1) 
35.524

>  <PUBCHEM_SHAPE_FINGERPRINT>  (1) 
10219947 1 18411985753918663938
10465860 250 17895186688829447562
108231 29 18260272949200868378
11132069 177 18059279999198418130
11471102 22 18335995211061971859
12032990 46 18409170970055732022
12251169 10 18411990182409845339
124424 183 17894911823855040531
12759256 9 18411699932434939444
13132413 78 18272092664650168448
13140716 1 18266452299386351114
13172582 1 18341894116720048870
13214271 11 18411418371590505287
14252887 29 18342469105488289682
15375462 478 17989212529654125267
16945 1 18411132537369799246
17357990 137 17487367977848931097
17844478 74 17967816028644878102
193761 8 17761769968093705982
200 152 18201429299328608799
20201158 50 18040721337843054707
20671657 1 18124319564713399620
20871998 22 18269565948353617158
21029758 27 18333736823153680236
21041028 32 18411425003131384241
21061003 4 18334864904518566377
21256008 23 18409736161886811546
21501502 16 18049443935105279566
22112679 90 17274538857976926333
23402539 116 18271794710384765334
23493267 7 17386555856784072368
23526113 38 17898265252789212383
23557571 272 16877942689944363886
23559900 14 16081371869266117714
25610 137 18334859381617839668
2748010 2 18052533275464635062
3286 77 18188779469390011387
537710 114 18334020518807811660
568465 68 17896058627130505275
58734987 86 18409736170392427988
6992083 37 17989204845657101879
77492 1 17775568675802721703
81228 2 17902243212533156576

>  <PUBCHEM_SHAPE_MULTIPOLES>  (1) 
286.1
6.04
2.15
1.11
0.4
1.87
0.16
-1.42
1.41
1.33
-0.13
-1.13
-0.08
-0.05

>  <PUBCHEM_SHAPE_SELFOVERLAP>  (1) 
583.802

>  <PUBCHEM_SHAPE_VOLUME>  (1) 
167.7

>  <PUBCHEM_COORDINATE_TYPE>  (1) 
2
5
10

$$$$
