46249
     RDKit          3D

 14 14  0  0  1  0  0  0  0  0999 V2000
    1.1097   -2.6010   -0.5662 O   0  0  0  0  0  0  0  0  0  0  0  0
   -4.9572    1.2040    0.4070 O   0  0  0  0  0  0  0  0  0  0  0  0
   -1.6203   -0.0794   -0.4509 N   0  0  0  0  0  0  0  0  0  0  0  0
   -0.9303   -1.3364   -0.1350 C   0  0  0  0  0  0  0  0  0  0  0  0
    0.4478   -1.3616   -0.8336 C   0  0  0  0  0  0  0  0  0  0  0  0
    1.3813   -0.2607   -0.3772 C   0  0  0  0  0  0  0  0  0  0  0  0
   -0.8194   -1.4445    1.3870 C   0  0  0  0  0  0  0  0  0  0  0  0
   -2.9437   -0.0609    0.1477 C   0  0  0  0  0  0  0  0  0  0  0  0
    1.3699    0.9529   -1.0422 C   0  0  0  0  0  0  0  0  0  0  0  0
    2.2249   -0.4919    0.6952 C   0  0  0  0  0  0  0  0  0  0  0  0
   -3.6642    1.2365   -0.1828 C   0  0  0  0  0  0  0  0  0  0  0  0
    2.2298    1.9676   -0.6217 C   0  0  0  0  0  0  0  0  0  0  0  0
    3.0847    0.5228    1.1157 C   0  0  0  0  0  0  0  0  0  0  0  0
    3.0871    1.7524    0.4572 C   0  0  0  0  0  0  0  0  0  0  0  0
  1  5  1  0
  2 11  1  0
  3  4  1  0
  3  8  1  0
  4  5  1  0
  4  7  1  0
  5  6  1  0
  6  9  2  0
  6 10  1  0
  8 11  1  0
  9 12  1  0
 10 13  2  0
 12 14  2  0
 13 14  1  0
M  END
>  <PUBCHEM_COMPOUND_CID>  (1) 
46249

>  <PUBCHEM_CONFORMER_RMSD>  (1) 
0.6

>  <PUBCHEM_CONFORMER_DIVERSEORDER>  (1) 
21
1
37
11
27
16
42
64
48
47
22
17
26
61
12
9
50
40
29
14
59
52
44
58
57
46
2
31
53
7
28
63
38
55
33
3
8
39
13
24
10
18
35
34
62
23
51
60
6
5
65
4
19
36
25
32
15
30
56
41
20
43
54
49
45

>  <PUBCHEM_MMFF94_PARTIAL_CHARGES>  (1) 
21
1 -0.68
10 -0.15
11 0.28
12 -0.15
13 -0.15
14 -0.15
17 0.36
2 -0.68
23 0.15
24 0.15
27 0.4
28 0.15
29 0.15
3 -0.9
30 0.15
31 0.4
4 0.27
5 0.42
6 -0.14
8 0.27
9 -0.15

>  <PUBCHEM_EFFECTIVE_ROTOR_COUNT>  (1) 
5

>  <PUBCHEM_PHARMACOPHORE_FEATURES>  (1) 
7
1 1 acceptor
1 1 donor
1 2 acceptor
1 2 donor
1 3 cation
1 3 donor
6 6 9 10 12 13 14 rings

>  <PUBCHEM_HEAVY_ATOM_COUNT>  (1) 
14

>  <PUBCHEM_ATOM_DEF_STEREO_COUNT>  (1) 
0

>  <PUBCHEM_ATOM_UDEF_STEREO_COUNT>  (1) 
2

>  <PUBCHEM_BOND_DEF_STEREO_COUNT>  (1) 
0

>  <PUBCHEM_BOND_UDEF_STEREO_COUNT>  (1) 
0

>  <PUBCHEM_ISOTOPIC_ATOM_COUNT>  (1) 
0

>  <PUBCHEM_COMPONENT_COUNT>  (1) 
1

>  <PUBCHEM_CACTVS_TAUTO_COUNT>  (1) 
1

>  <PUBCHEM_CONFORMER_ID>  (1) 
0000B4A900000015

>  <PUBCHEM_MMFF94_ENERGY>  (1) 
27.8036

>  <PUBCHEM_FEATURE_SELFOVERLAP>  (1) 
35.522

>  <PUBCHEM_SHAPE_FINGERPRINT>  (1) 
10465860 228 18342179916813144653
12138202 97 16414352467215099678
122479 349 18336547213317685921
12251169 10 17895188952029415868
12897270 3 13182748094895875898
13571099 52 18059571433729437062
14128692 85 10375332040455806126
14252887 29 12396299248971059076
15061688 2 17274245271092207984
15775835 57 18271523194904392488
15906896 17 18048876587242912794
16945 1 17604130619529202694
18186145 218 18339365167351908925
20231682 184 17988923366469813517
20344682 6 12391512022561930698
20361792 2 11458692963026692842
21524375 3 18337382837838846239
21665062 11 18186518804331732668
21947302 44 18340776944345007255
230 275 18272377450998606845
23419403 2 16764189248570578666
23557571 272 17345750918866998391
305870 269 18412822508137516486
474 4 18409730651654942705
49207404 50 18189071883732652475
59915604 170 15267061522820247570
6333272 397 18334017194455365793
7364860 26 18200877249247862726
83771 10 11025793184835310634

>  <PUBCHEM_SHAPE_MULTIPOLES>  (1) 
271.39
6.43
2.23
1.11
7.21
0.44
0.14
-4.87
1.55
-0.38
-0.26
-0.42
0.18
0.03

>  <PUBCHEM_SHAPE_SELFOVERLAP>  (1) 
545.405

>  <PUBCHEM_SHAPE_VOLUME>  (1) 
159.8

>  <PUBCHEM_COORDINATE_TYPE>  (1) 
2
5
10

$$$$
