46253
     RDKit          3D

 13 13  0  0  1  0  0  0  0  0999 V2000
   -2.1783    1.2807   -1.3356 O   0  0  0  0  0  0  0  0  0  0  0  0
    3.6568   -0.0633    0.3019 O   0  0  0  0  0  0  0  0  0  0  0  0
   -4.1572   -0.4224   -0.1816 N   0  0  0  0  0  0  0  0  0  0  0  0
   -1.9295    0.6250   -0.0890 C   0  0  0  0  0  0  0  0  0  0  0  0
   -2.7242   -0.6986   -0.0198 C   0  0  0  0  0  0  0  0  0  0  0  0
   -0.4307    0.4407    0.0161 C   0  0  0  0  0  0  0  0  0  0  0  0
   -2.5316   -1.4306    1.3096 C   0  0  0  0  0  0  0  0  0  0  0  0
    0.2629    1.1016    1.0145 C   0  0  0  0  0  0  0  0  0  0  0  0
    0.2121   -0.3856   -0.8888 C   0  0  0  0  0  0  0  0  0  0  0  0
    1.6439    0.9312    1.1110 C   0  0  0  0  0  0  0  0  0  0  0  0
    1.5931   -0.5563   -0.7922 C   0  0  0  0  0  0  0  0  0  0  0  0
    2.3091    0.1022    0.2076 C   0  0  0  0  0  0  0  0  0  0  0  0
    4.2736   -0.9247   -0.6536 C   0  0  0  0  0  0  0  0  0  0  0  0
  1  4  1  0
  2 12  1  0
  2 13  1  0
  3  5  1  0
  4  5  1  0
  4  6  1  0
  5  7  1  0
  6  8  2  0
  6  9  1  0
  8 10  1  0
  9 11  2  0
 10 12  2  0
 11 12  1  0
M  END
>  <PUBCHEM_COMPOUND_CID>  (1) 
46253

>  <PUBCHEM_CONFORMER_RMSD>  (1) 
0.6

>  <PUBCHEM_CONFORMER_DIVERSEORDER>  (1) 
1
3
13
11
9
15
16
6
7
4
12
18
5
8
2
14
10
17

>  <PUBCHEM_MMFF94_PARTIAL_CHARGES>  (1) 
19
1 -0.68
10 -0.15
11 -0.15
12 0.08
13 0.28
19 0.15
2 -0.36
20 0.15
21 0.36
22 0.36
23 0.15
24 0.15
25 0.4
3 -0.99
4 0.42
5 0.27
6 -0.14
8 -0.15
9 -0.15

>  <PUBCHEM_EFFECTIVE_ROTOR_COUNT>  (1) 
3

>  <PUBCHEM_PHARMACOPHORE_FEATURES>  (1) 
6
1 1 acceptor
1 1 donor
1 2 acceptor
1 3 cation
1 3 donor
6 6 8 9 10 11 12 rings

>  <PUBCHEM_HEAVY_ATOM_COUNT>  (1) 
13

>  <PUBCHEM_ATOM_DEF_STEREO_COUNT>  (1) 
0

>  <PUBCHEM_ATOM_UDEF_STEREO_COUNT>  (1) 
2

>  <PUBCHEM_BOND_DEF_STEREO_COUNT>  (1) 
0

>  <PUBCHEM_BOND_UDEF_STEREO_COUNT>  (1) 
0

>  <PUBCHEM_ISOTOPIC_ATOM_COUNT>  (1) 
0

>  <PUBCHEM_COMPONENT_COUNT>  (1) 
1

>  <PUBCHEM_CACTVS_TAUTO_COUNT>  (1) 
1

>  <PUBCHEM_CONFORMER_ID>  (1) 
0000B4AD00000001

>  <PUBCHEM_MMFF94_ENERGY>  (1) 
36.5693

>  <PUBCHEM_FEATURE_SELFOVERLAP>  (1) 
30.448

>  <PUBCHEM_SHAPE_FINGERPRINT>  (1) 
10219947 1 17489871552808313714
11471102 22 17846224379203195466
11543360 7 17677065606835090430
12032990 46 17846503599875892198
12251169 10 16630811023272555383
124424 183 18343015562640187011
12932764 1 18337376201855800522
13296908 3 18272084985606780648
14993402 34 16225766324146428850
15219456 202 18342167903631667617
15375462 478 15985109621611117787
15653759 3 18410289215966557536
16945 1 17418088819603124572
17844478 74 18343866619015908120
18175812 5 18340205297109048965
19026448 4 18333446534983030428
19026448 5 17313383384047058740
200 152 16773787104955112805
20201158 50 18343023289492392715
20281407 28 18409453612899433475
20645476 183 15936406771523882283
20645477 70 18060413616697255334
20871998 22 16916240870531111860
20871999 31 17968090898336551029
21061003 4 18131639992787288377
21119208 17 16587742044769126667
22094290 60 17967817128277838140
23402539 116 17968085418227150799
23557571 272 18260266326488164948
23559900 14 18040995168194384960
77492 1 15864059966866720809
8030462 33 16008742507137392497
8809292 202 18412266176612829179

>  <PUBCHEM_SHAPE_MULTIPOLES>  (1) 
250.81
6.56
1.26
1.16
1.5
0.24
0.07
-2.31
0.61
0.52
0.11
-1.04
-0.05
0.61

>  <PUBCHEM_SHAPE_SELFOVERLAP>  (1) 
510.315

>  <PUBCHEM_SHAPE_VOLUME>  (1) 
147.3

>  <PUBCHEM_COORDINATE_TYPE>  (1) 
2
5
10

$$$$
