46255
     RDKit          3D

 14 14  0  0  1  0  0  0  0  0999 V2000
   -0.3981    1.2594    1.7945 O   0  0  0  0  0  0  0  0  0  0  0  0
   -2.5641    1.2610   -0.0966 N   0  0  0  0  0  0  0  0  0  0  0  0
   -1.3434    0.4771   -0.3280 C   0  0  0  0  0  0  0  0  0  0  0  0
   -1.5755   -0.9810    0.1212 C   0  0  0  0  0  0  0  0  0  0  0  0
   -0.1536    1.1610    0.3921 C   0  0  0  0  0  0  0  0  0  0  0  0
   -2.7757   -1.6382   -0.5711 C   0  0  0  0  0  0  0  0  0  0  0  0
    1.1658    0.4569    0.1320 C   0  0  0  0  0  0  0  0  0  0  0  0
   -2.9519   -3.0812   -0.1226 C   0  0  0  0  0  0  0  0  0  0  0  0
   -2.3907    2.6233   -0.5690 C   0  0  0  0  0  0  0  0  0  0  0  0
    1.5658   -0.5549    0.9840 C   0  0  0  0  0  0  0  0  0  0  0  0
    1.9321    0.8458   -0.9503 C   0  0  0  0  0  0  0  0  0  0  0  0
    2.7780   -1.2021    0.7450 C   0  0  0  0  0  0  0  0  0  0  0  0
    3.1444    0.1984   -1.1893 C   0  0  0  0  0  0  0  0  0  0  0  0
    3.5672   -0.8256   -0.3417 C   0  0  0  0  0  0  0  0  0  0  0  0
  1  5  1  0
  2  3  1  0
  2  9  1  0
  3  4  1  0
  3  5  1  0
  4  6  1  0
  5  7  1  0
  6  8  1  0
  7 10  2  0
  7 11  1  0
 10 12  1  0
 11 13  2  0
 12 14  2  0
 13 14  1  0
M  END
>  <PUBCHEM_COMPOUND_CID>  (1) 
46255

>  <PUBCHEM_CONFORMER_RMSD>  (1) 
0.6

>  <PUBCHEM_CONFORMER_DIVERSEORDER>  (1) 
1
31
17
18
24
16
39
33
10
28
35
19
32
20
42
36
15
44
23
34
8
29
40
22
38
12
14
25
27
3
2
13
37
41
5
26
21
6
9
7
4
11
43
30

>  <PUBCHEM_MMFF94_PARTIAL_CHARGES>  (1) 
18
1 -0.68
10 -0.15
11 -0.15
12 -0.15
13 -0.15
14 -0.15
2 -0.9
21 0.36
28 0.15
29 0.15
3 0.27
30 0.4
31 0.15
32 0.15
33 0.15
5 0.42
7 -0.14
9 0.27

>  <PUBCHEM_EFFECTIVE_ROTOR_COUNT>  (1) 
5

>  <PUBCHEM_PHARMACOPHORE_FEATURES>  (1) 
6
1 1 acceptor
1 1 donor
1 2 cation
1 2 donor
1 8 hydrophobe
6 7 10 11 12 13 14 rings

>  <PUBCHEM_HEAVY_ATOM_COUNT>  (1) 
14

>  <PUBCHEM_ATOM_DEF_STEREO_COUNT>  (1) 
0

>  <PUBCHEM_ATOM_UDEF_STEREO_COUNT>  (1) 
2

>  <PUBCHEM_BOND_DEF_STEREO_COUNT>  (1) 
0

>  <PUBCHEM_BOND_UDEF_STEREO_COUNT>  (1) 
0

>  <PUBCHEM_ISOTOPIC_ATOM_COUNT>  (1) 
0

>  <PUBCHEM_COMPONENT_COUNT>  (1) 
1

>  <PUBCHEM_CACTVS_TAUTO_COUNT>  (1) 
1

>  <PUBCHEM_CONFORMER_ID>  (1) 
0000B4AF00000001

>  <PUBCHEM_MMFF94_ENERGY>  (1) 
28.4982

>  <PUBCHEM_FEATURE_SELFOVERLAP>  (1) 
30.448

>  <PUBCHEM_SHAPE_FINGERPRINT>  (1) 
12202030 40 17346052098984994934
12500047 106 18267293232191540500
12553582 1 18265050426155950339
12932764 1 18336275573816440304
13296908 3 17704347784174967834
13538477 17 18335698304188606172
14115302 16 18340204072895838860
14128692 85 18408603682100588394
15279307 12 18116432544331737755
15775835 57 18041572329857102132
15852999 172 17913485744606851439
15906896 17 18187657842891161057
16752209 62 18338218394088851327
16945 1 18339917100250304025
18186145 218 15357701847078383912
18522853 266 18338233756743731638
20645476 183 18190462649534689975
20645477 70 17766832106970419255
20871998 22 18053097612713663139
21486144 27 15213605363495580780
21524375 3 17825667742802949629
23402539 116 16443060578567346444
23557571 272 18273490182936939048
23559900 14 18129091231278720554
23598291 2 17750508486317995810
2748010 2 17988063591115685824
298252 57 17898566467378028345
3082319 5 18040152924485205710
3250762 1 18127390436502873121
53748568 43 18041284261978978290
74978 22 18410853222614159724
81228 2 18338220674727080569
94968 8 18049723224123354807
9939556 21 18187647959949905652

>  <PUBCHEM_SHAPE_MULTIPOLES>  (1) 
277.26
5.75
2.63
1.14
1.31
0.49
-0.23
2.52
1.45
-3.59
0.22
0.49
-0.21
-0.45

>  <PUBCHEM_SHAPE_SELFOVERLAP>  (1) 
552.736

>  <PUBCHEM_SHAPE_VOLUME>  (1) 
164.5

>  <PUBCHEM_COORDINATE_TYPE>  (1) 
2
5
10

$$$$
