46264
     RDKit          3D

 20 20  0  0  1  0  0  0  0  0999 V2000
   -0.9824   -2.1500   -0.5991 O   0  0  0  0  0  0  0  0  0  0  0  0
    1.2796   -0.0817   -0.3210 N   0  0  0  0  0  0  0  0  0  0  0  0
   -0.0385   -0.0859    0.3274 C   0  0  0  0  0  0  0  0  0  0  0  0
   -1.0763   -0.7263   -0.6288 C   0  0  0  0  0  0  0  0  0  0  0  0
    1.3361    0.9600   -1.3426 C   0  0  0  0  0  0  0  0  0  0  0  0
    1.5600   -1.3913   -0.9027 C   0  0  0  0  0  0  0  0  0  0  0  0
    0.0624   -0.8011    1.6897 C   0  0  0  0  0  0  0  0  0  0  0  0
    1.5381    2.3286   -0.6944 C   0  0  0  0  0  0  0  0  0  0  0  0
    3.0656   -1.5824   -1.0787 C   0  0  0  0  0  0  0  0  0  0  0  0
   -2.4961   -0.2824   -0.3274 C   0  0  0  0  0  0  0  0  0  0  0  0
    1.0850   -0.1667    2.6265 C   0  0  0  0  0  0  0  0  0  0  0  0
    2.8298    2.3676    0.1230 C   0  0  0  0  0  0  0  0  0  0  0  0
    3.7971   -1.4693    0.2593 C   0  0  0  0  0  0  0  0  0  0  0  0
   -3.2770   -1.0069    0.5733 C   0  0  0  0  0  0  0  0  0  0  0  0
   -3.0200    0.8504   -0.9505 C   0  0  0  0  0  0  0  0  0  0  0  0
    3.0562    3.7376    0.7425 C   0  0  0  0  0  0  0  0  0  0  0  0
    5.2922   -1.6934    0.0979 C   0  0  0  0  0  0  0  0  0  0  0  0
   -4.5817   -0.5989    0.8506 C   0  0  0  0  0  0  0  0  0  0  0  0
   -4.3247    1.2584   -0.6729 C   0  0  0  0  0  0  0  0  0  0  0  0
   -5.1055    0.5336    0.2276 C   0  0  0  0  0  0  0  0  0  0  0  0
  1  4  1  0
  2  3  1  0
  2  5  1  0
  2  6  1  0
  3  4  1  0
  3  7  1  0
  4 10  1  0
  5  8  1  0
  6  9  1  0
  7 11  1  0
  8 12  1  0
  9 13  1  0
 10 14  2  0
 10 15  1  0
 12 16  1  0
 13 17  1  0
 14 18  1  0
 15 19  2  0
 18 20  2  0
 19 20  1  0
M  END
>  <PUBCHEM_COMPOUND_CID>  (1) 
46264

>  <PUBCHEM_CONFORMER_RMSD>  (1) 
1

>  <PUBCHEM_CONFORMER_DIVERSEORDER>  (1) 
34
36
24
33
53
47
11
62
4
58
6
56
64
23
51
31
25
46
65
48
26
60
41
52
2
68
44
7
8
54
30
21
57
18
63
61
15
22
45
32
43
10
35
37
12
16
59
40
49
9
1
13
69
55
67
3
27
28
20
5
17
29
38
50
42
66
39
14
19

>  <PUBCHEM_MMFF94_PARTIAL_CHARGES>  (1) 
18
1 -0.68
10 -0.14
14 -0.15
15 -0.15
18 -0.15
19 -0.15
2 -0.81
20 -0.15
3 0.27
4 0.42
40 0.4
41 0.15
42 0.15
49 0.15
5 0.27
50 0.15
51 0.15
6 0.27

>  <PUBCHEM_EFFECTIVE_ROTOR_COUNT>  (1) 
10

>  <PUBCHEM_PHARMACOPHORE_FEATURES>  (1) 
7
1 1 acceptor
1 1 donor
1 11 hydrophobe
1 16 hydrophobe
1 17 hydrophobe
1 2 cation
6 10 14 15 18 19 20 rings

>  <PUBCHEM_HEAVY_ATOM_COUNT>  (1) 
20

>  <PUBCHEM_ATOM_DEF_STEREO_COUNT>  (1) 
0

>  <PUBCHEM_ATOM_UDEF_STEREO_COUNT>  (1) 
2

>  <PUBCHEM_BOND_DEF_STEREO_COUNT>  (1) 
0

>  <PUBCHEM_BOND_UDEF_STEREO_COUNT>  (1) 
0

>  <PUBCHEM_ISOTOPIC_ATOM_COUNT>  (1) 
0

>  <PUBCHEM_COMPONENT_COUNT>  (1) 
1

>  <PUBCHEM_CACTVS_TAUTO_COUNT>  (1) 
1

>  <PUBCHEM_CONFORMER_ID>  (1) 
0000B4B800000022

>  <PUBCHEM_MMFF94_ENERGY>  (1) 
39.534

>  <PUBCHEM_FEATURE_SELFOVERLAP>  (1) 
35.52

>  <PUBCHEM_SHAPE_FINGERPRINT>  (1) 
10366900 7 16298392349154338353
11405975 8 18409175415494297307
12422481 6 18122029175278106016
12549972 3 17823152257529308488
12788726 201 17973163933777174882
13134695 92 18411697647860569396
13140716 1 18339083786532689055
13590594 115 18265062331678869992
14115302 16 17703792526313152311
14178342 30 17829328338965051478
14466204 15 18193838137246931025
15163728 17 17980213198711782076
15209289 33 17022911124807973867
15295992 7 18260844699673907691
17876694 64 17774453668049116888
17980427 23 17560529395651283280
1813 80 17630626530508056582
18186145 218 18129961043132453943
18785283 64 18337674225821875660
19765921 60 17415007038829075028
20600515 1 15267340734375631882
20832881 197 18187363169553802866
21033648 29 17630584752949614123
21041028 32 18340771442255018053
21452121 103 18409726292020726017
23175994 123 18269561545991026879
23402539 116 18339073792043525799
23558518 356 18117842328956201311
23559900 14 18412540990105579395
296302 2 12175618456409404647
3286 77 18186810179276269031
474229 33 10087338037744905478
5104073 3 18337967769993973875
5895379 119 17272875124558473793
633830 44 17168151169287634479
69474 34 18341039753958092070
7364860 26 18341334474076139948
7495541 125 18261402147473886383
81228 2 17759543083722648846
9981440 41 17760366991204371368

>  <PUBCHEM_SHAPE_MULTIPOLES>  (1) 
400.74
9.43
2.86
1.54
4.81
2.84
-0.89
-0.77
-0.19
-4.21
-0.06
-0.41
-0.12
0.96

>  <PUBCHEM_SHAPE_SELFOVERLAP>  (1) 
787.702

>  <PUBCHEM_SHAPE_VOLUME>  (1) 
241.6

>  <PUBCHEM_COORDINATE_TYPE>  (1) 
2
5
10

$$$$
