4627
     RDKit          2D

 24 27  0  0  1  0  0  0  0  0999 V2000
    0.0000    0.0000    0.0000 O   0  0  0  0  0  0  0  0  0  0  0  0
    0.0000    0.0000    0.0000 O   0  0  0  0  0  0  0  0  0  0  0  0
    0.0000    0.0000    0.0000 O   0  0  0  0  0  0  0  0  0  0  0  0
    0.0000    0.0000    0.0000 O   0  0  0  0  0  0  0  0  0  0  0  0
    0.0000    0.0000    0.0000 N   0  0  0  0  0  0  0  0  0  0  0  0
    0.0000    0.0000    0.0000 C   0  0  0  0  0  0  0  0  0  0  0  0
    0.0000    0.0000    0.0000 C   0  0  0  0  0  0  0  0  0  0  0  0
    0.0000    0.0000    0.0000 C   0  0  0  0  0  0  0  0  0  0  0  0
    0.0000    0.0000    0.0000 C   0  0  0  0  0  0  0  0  0  0  0  0
    0.0000    0.0000    0.0000 C   0  0  0  0  0  0  0  0  0  0  0  0
    0.0000    0.0000    0.0000 C   0  0  0  0  0  0  0  0  0  0  0  0
    0.0000    0.0000    0.0000 C   0  0  0  0  0  0  0  0  0  0  0  0
    0.0000    0.0000    0.0000 C   0  0  0  0  0  0  0  0  0  0  0  0
    0.0000    0.0000    0.0000 C   0  0  0  0  0  0  0  0  0  0  0  0
    0.0000    0.0000    0.0000 C   0  0  0  0  0  0  0  0  0  0  0  0
    0.0000    0.0000    0.0000 C   0  0  0  0  0  0  0  0  0  0  0  0
    0.0000    0.0000    0.0000 C   0  0  0  0  0  0  0  0  0  0  0  0
    0.0000    0.0000    0.0000 C   0  0  0  0  0  0  0  0  0  0  0  0
    0.0000    0.0000    0.0000 C   0  0  0  0  0  0  0  0  0  0  0  0
    0.0000    0.0000    0.0000 C   0  0  0  0  0  0  0  0  0  0  0  0
    0.0000    0.0000    0.0000 C   0  0  0  0  0  0  0  0  0  0  0  0
    0.0000    0.0000    0.0000 C   0  0  0  0  0  0  0  0  0  0  0  0
    0.0000    0.0000    0.0000 C   0  0  0  0  0  0  0  0  0  0  0  0
    0.0000    0.0000    0.0000 C   0  0  0  0  0  0  0  0  0  0  0  0
  1  8  1  0
  1  9  1  0
  2 12  1  0
  2 16  1  0
  3 16  2  0
  4 18  1  0
  5  6  1  0
  5  7  1  0
  5 13  1  0
  5 14  1  0
  6  8  1  0
  6 10  1  0
  7  9  1  0
  7 11  1  0
  8  9  1  0
 10 12  1  0
 11 12  1  0
 13 15  1  0
 16 17  1  0
 17 18  1  0
 17 19  1  0
 19 20  2  0
 19 21  1  0
 20 22  1  0
 21 23  2  0
 22 24  2  0
 23 24  1  0
M  CHG  1   5   1
M  END
>  <PUBCHEM_COMPOUND_CID>  (1) 
4627

>  <PUBCHEM_CONFORMER_RMSD>  (1) 
0.8

>  <PUBCHEM_CONFORMER_DIVERSEORDER>  (1) 
37
89
153
2
145
110
61
96
39
66
104
46
163
130
94
162
90
68
129
83
161
114
124
36
146
160
7
81
149
44
87
58
123
137
80
138
16
106
133
69
67
25
71
34
91
113
99
152
156
43
119
9
97
78
14
26
23
159
120
3
70
164
84
82
8
1
139
75
65
86
29
107
134
6
126
98
115
108
35
55
140
116
158
155
62
30
144
112
40
127
50
101
132
60
19
118
57
32
21
77
151
154
10
12
136
150
88
51
54
38
93
157
28
102
79
52
100
24
49
20
56
109
135
5
33
105
74
143
128
76
103
122
27
53
147
148
73
95
117
15
121
92
131
63
125
4
22
142
85
47
11
31
72
17
18
45
64
13
111
48
41
141
59
42

>  <PUBCHEM_MMFF94_PARTIAL_CHARGES>  (1) 
29
1 -0.3
12 0.28
13 0.5
14 0.5
16 0.66
17 0.2
18 0.28
19 -0.14
2 -0.43
20 -0.15
21 -0.15
22 -0.15
23 -0.15
24 -0.15
27 0.1
28 0.1
3 -0.57
4 -0.68
45 0.15
46 0.15
47 0.4
48 0.15
49 0.15
5 -1.01
50 0.15
6 0.6
7 0.6
8 -0.05
9 -0.05

>  <PUBCHEM_EFFECTIVE_ROTOR_COUNT>  (1) 
7

>  <PUBCHEM_PHARMACOPHORE_FEATURES>  (1) 
8
1 1 acceptor
1 3 acceptor
1 4 acceptor
1 4 donor
1 5 cation
6 1 5 6 7 8 9 rings
6 19 20 21 22 23 24 rings
8 5 6 7 8 9 10 11 12 rings

>  <PUBCHEM_HEAVY_ATOM_COUNT>  (1) 
24

>  <PUBCHEM_ATOM_DEF_STEREO_COUNT>  (1) 
0

>  <PUBCHEM_ATOM_UDEF_STEREO_COUNT>  (1) 
5

>  <PUBCHEM_BOND_DEF_STEREO_COUNT>  (1) 
0

>  <PUBCHEM_BOND_UDEF_STEREO_COUNT>  (1) 
0

>  <PUBCHEM_ISOTOPIC_ATOM_COUNT>  (1) 
0

>  <PUBCHEM_COMPONENT_COUNT>  (1) 
1

>  <PUBCHEM_CACTVS_TAUTO_COUNT>  (1) 
1

$$$$
