46276
     RDKit          3D

 19 20  0  0  1  0  0  0  0  0999 V2000
    1.6701   -1.9956   -0.8488 O   0  0  0  0  0  0  0  0  0  0  0  0
    3.3699    0.2653   -0.2906 N   0  0  0  0  0  0  0  0  0  0  0  0
    3.8029   -0.0534    1.0772 C   0  0  0  0  0  0  0  0  0  0  0  0
    3.9968    1.5049   -0.7709 C   0  0  0  0  0  0  0  0  0  0  0  0
    5.3219   -0.2164    1.1514 C   0  0  0  0  0  0  0  0  0  0  0  0
    5.5220    1.3930   -0.7570 C   0  0  0  0  0  0  0  0  0  0  0  0
    6.0386    1.0234    0.6289 C   0  0  0  0  0  0  0  0  0  0  0  0
    1.9124    0.3713   -0.3543 C   0  0  0  0  0  0  0  0  0  0  0  0
    1.2516   -0.9566    0.0353 C   0  0  0  0  0  0  0  0  0  0  0  0
   -0.2573   -0.8634   -0.0256 C   0  0  0  0  0  0  0  0  0  0  0  0
   -0.8646   -0.5040   -1.2163 C   0  0  0  0  0  0  0  0  0  0  0  0
   -0.9977   -1.1396    1.1107 C   0  0  0  0  0  0  0  0  0  0  0  0
   -3.0177   -0.6933   -0.1372 C   0  0  0  0  0  0  0  0  0  0  0  0
   -4.5049   -0.6011   -0.1970 C   0  0  0  0  0  0  0  0  0  0  0  0
   -2.2557   -0.4183   -1.2726 C   0  0  0  0  0  0  0  0  0  0  0  0
   -2.3888   -1.0541    1.0545 C   0  0  0  0  0  0  0  0  0  0  0  0
   -5.0156    0.8038    0.1573 C   0  0  0  0  0  0  0  0  0  0  0  0
   -6.5422    0.8761    0.1318 C   0  0  0  0  0  0  0  0  0  0  0  0
   -7.0416    2.2579    0.5229 C   0  0  0  0  0  0  0  0  0  0  0  0
  1  9  1  0
  2  3  1  0
  2  4  1  0
  2  8  1  0
  3  5  1  0
  4  6  1  0
  5  7  1  0
  6  7  1  0
  8  9  1  0
  9 10  1  0
 10 11  2  0
 10 12  1  0
 11 15  1  0
 12 16  2  0
 13 14  1  0
 13 15  2  0
 13 16  1  0
 14 17  1  0
 17 18  1  0
 18 19  1  0
M  END
>  <PUBCHEM_COMPOUND_CID>  (1) 
46276

>  <PUBCHEM_CONFORMER_RMSD>  (1) 
0.8

>  <PUBCHEM_CONFORMER_DIVERSEORDER>  (1) 
1
34
12
67
26
70
38
52
16
15
56
5
62
30
6
71
20
42
46
17
33
13
9
39
32
10
51
44
63
40
50
47
3
45
69
14
27
41
64
7
61
68
4
31
65
48
28
53
29
11
18
22
58
54
21
19
60
43
8
49
36
55
2
23
35
57
25
66
59
37
24

>  <PUBCHEM_MMFF94_PARTIAL_CHARGES>  (1) 
18
1 -0.68
10 -0.14
11 -0.15
12 -0.15
13 -0.14
14 0.14
15 -0.15
16 -0.15
2 -0.81
3 0.27
33 0.15
34 0.15
37 0.4
38 0.15
39 0.15
4 0.27
8 0.27
9 0.42

>  <PUBCHEM_EFFECTIVE_ROTOR_COUNT>  (1) 
7.2

>  <PUBCHEM_PHARMACOPHORE_FEATURES>  (1) 
6
1 1 acceptor
1 1 donor
1 19 hydrophobe
1 2 cation
6 10 11 12 13 15 16 rings
6 2 3 4 5 6 7 rings

>  <PUBCHEM_HEAVY_ATOM_COUNT>  (1) 
19

>  <PUBCHEM_ATOM_DEF_STEREO_COUNT>  (1) 
0

>  <PUBCHEM_ATOM_UDEF_STEREO_COUNT>  (1) 
1

>  <PUBCHEM_BOND_DEF_STEREO_COUNT>  (1) 
0

>  <PUBCHEM_BOND_UDEF_STEREO_COUNT>  (1) 
0

>  <PUBCHEM_ISOTOPIC_ATOM_COUNT>  (1) 
0

>  <PUBCHEM_COMPONENT_COUNT>  (1) 
1

>  <PUBCHEM_CACTVS_TAUTO_COUNT>  (1) 
1

>  <PUBCHEM_CONFORMER_ID>  (1) 
0000B4C400000001

>  <PUBCHEM_MMFF94_ENERGY>  (1) 
27.729

>  <PUBCHEM_FEATURE_SELFOVERLAP>  (1) 
30.446

>  <PUBCHEM_SHAPE_FINGERPRINT>  (1) 
10 15 17821737126631189041
106641 1 16878233047546405969
10906281 52 18188223060117835589
117890 112 18410011039566941249
12236239 1 18059851783572760126
12596602 18 17313108570475408833
12616971 3 14779556711871081955
12670543 26 14405190543269814297
12714333 28 17489586762185448411
13167372 99 18408603634571488393
13288520 33 8862943879845256771
13533116 47 17385999525586413882
13540713 4 15938359354051605103
13540713 5 14690910652903440383
13685833 64 10665231449362148989
13862211 1 9511466619189338732
1420 363 13984659252482970920
14251764 18 18040436620492667109
14341114 176 16877657972636401580
14350574 20 9367344834180677703
14508225 48 13830131689793510051
15048467 5 18342175553590634513
15183329 4 15554452872873525969
15238133 3 18335707151985104196
15348495 7 16226056634140165657
15510800 12 8430025530058317873
17980427 23 17967818305405170839
18222031 100 11887666256773399091
19784866 240 8286200569748080311
20281389 69 18334856113042712993
20526848 3 18412830174981414833
20567600 247 10231756678045275493
21033648 29 18199734994812452048
21150785 3 15841545285072348909
21267235 1 13406792199428149922
21637258 2 7925626679564865809
22122407 14 18335996353545086321
221357 26 13686301274844028482
22224240 67 17240483603163103515
23402539 116 18113889511512899383
23559900 14 17603884268764273982
2767999 5 18202563981842146097
2838139 119 18272362062833022321
2916195 48 18333734603051012593
300161 21 17346876767244913046
3009799 131 16487253274865381457
312425 54 16660366978570572113
351380 3 8142085351486368065
4072396 5 18342168960805396314
465052 167 11314314935905587721
5104073 3 17313663883881843920
5385378 56 18113897113715893858
542803 24 18334573572787109638
5718773 13 12324829941869868857
57724786 102 18115305717224084572
59682541 52 16486984951278959100
8272917 22 18259981566304642778
8863177 126 8213840580095851805

>  <PUBCHEM_SHAPE_MULTIPOLES>  (1) 
380.16
16.9
1.7
1.18
7.44
0.45
0.01
12.22
-3.62
0.97
-0.02
-0.43
-0.14
-0.92

>  <PUBCHEM_SHAPE_SELFOVERLAP>  (1) 
769.129

>  <PUBCHEM_SHAPE_VOLUME>  (1) 
222.9

>  <PUBCHEM_COORDINATE_TYPE>  (1) 
2
5
10

$$$$
