46284
     RDKit          3D

 16 17  0  0  0  0  0  0  0  0999 V2000
   -0.6465   -1.5516    0.1713 S   0  0  0  0  0  0  0  0  0  0  0  0
   -5.5414    0.2253    0.2106 N   0  0  0  0  0  0  0  0  0  0  0  0
    2.0414   -1.5465    0.1018 N   0  0  0  0  0  0  0  0  0  0  0  0
    1.1569    0.4904    0.0092 N   0  0  0  0  0  0  0  0  0  0  0  0
   -3.2159   -0.5542    0.1806 C   0  0  0  0  0  0  0  0  0  0  0  0
   -4.1505    0.6551    0.1293 C   0  0  0  0  0  0  0  0  0  0  0  0
   -1.7555   -0.1132    0.1180 C   0  0  0  0  0  0  0  0  0  0  0  0
    3.1078   -0.6876    0.0259 C   0  0  0  0  0  0  0  0  0  0  0  0
    0.8990   -0.7958    0.0887 C   0  0  0  0  0  0  0  0  0  0  0  0
    2.5296    0.5775   -0.0310 C   0  0  0  0  0  0  0  0  0  0  0  0
   -5.8817   -0.6361   -0.9232 C   0  0  0  0  0  0  0  0  0  0  0  0
   -6.4368    1.3826    0.2555 C   0  0  0  0  0  0  0  0  0  0  0  0
    4.4863   -0.9022    0.0029 C   0  0  0  0  0  0  0  0  0  0  0  0
    3.3608    1.7071   -0.1164 C   0  0  0  0  0  0  0  0  0  0  0  0
    5.2986    0.2334   -0.0822 C   0  0  0  0  0  0  0  0  0  0  0  0
    4.7479    1.5157   -0.1410 C   0  0  0  0  0  0  0  0  0  0  0  0
  1  7  1  0
  1  9  1  0
  2  6  1  0
  2 11  1  0
  2 12  1  0
  3  8  1  0
  3  9  1  0
  4  9  2  0
  4 10  1  0
  5  6  1  0
  5  7  1  0
  8 10  2  0
  8 13  1  0
 10 14  1  0
 13 15  2  0
 14 16  2  0
 15 16  1  0
M  END
>  <PUBCHEM_COMPOUND_CID>  (1) 
46284

>  <PUBCHEM_CONFORMER_RMSD>  (1) 
0.6

>  <PUBCHEM_CONFORMER_DIVERSEORDER>  (1) 
1
19
36
46
83
38
45
64
67
68
76
11
27
7
20
82
73
47
43
41
37
49
15
51
28
39
61
78
52
54
77
80
74
44
57
30
22
3
25
4
32
6
72
34
79
13
16
59
71
31
55
42
24
48
69
62
75
60
9
81
33
63
5
23
58
70
35
10
53
21
14
65
40
12
29
2
17
50
18
66
26
56
8

>  <PUBCHEM_MMFF94_PARTIAL_CHARGES>  (1) 
20
1 -0.29
10 0.23
11 0.27
12 0.27
13 -0.15
14 -0.15
15 -0.15
16 -0.15
2 -0.81
29 0.27
3 0.03
30 0.15
31 0.15
32 0.15
33 0.15
4 -0.57
6 0.27
7 0.23
8 -0.15
9 0.24

>  <PUBCHEM_EFFECTIVE_ROTOR_COUNT>  (1) 
5

>  <PUBCHEM_PHARMACOPHORE_FEATURES>  (1) 
5
1 2 cation
1 3 donor
3 3 4 9 cation
5 3 4 8 9 10 rings
6 8 10 13 14 15 16 rings

>  <PUBCHEM_HEAVY_ATOM_COUNT>  (1) 
16

>  <PUBCHEM_ATOM_DEF_STEREO_COUNT>  (1) 
0

>  <PUBCHEM_ATOM_UDEF_STEREO_COUNT>  (1) 
0

>  <PUBCHEM_BOND_DEF_STEREO_COUNT>  (1) 
0

>  <PUBCHEM_BOND_UDEF_STEREO_COUNT>  (1) 
0

>  <PUBCHEM_ISOTOPIC_ATOM_COUNT>  (1) 
0

>  <PUBCHEM_COMPONENT_COUNT>  (1) 
1

>  <PUBCHEM_CACTVS_TAUTO_COUNT>  (1) 
1

>  <PUBCHEM_CONFORMER_ID>  (1) 
0000B4CC00000001

>  <PUBCHEM_MMFF94_ENERGY>  (1) 
24.9114

>  <PUBCHEM_FEATURE_SELFOVERLAP>  (1) 
25.479

>  <PUBCHEM_SHAPE_FINGERPRINT>  (1) 
100836 57 18334018306271698589
10354089 29 17967254199714837592
10411042 1 17760929542027033898
10595046 47 18343299267385503759
11089746 13 18411696603734960682
11471102 20 18410857668326972858
12107183 9 17620759384263760059
12236239 1 18131631179778134383
13081056 2 18333731303798769589
13167372 99 18340207384537423761
13785724 45 17690278209932745850
14251718 22 17917710227774857023
14251764 18 18334852827735135882
14528608 73 18343017813630279189
15196674 1 18409731806557994707
17834072 33 18201717379600776895
17834072 8 18341902887665681854
20281389 69 18186801353646086941
20645477 70 18342177717969802582
212847 35 18413670223149598032
23402539 116 18130783469282332703
23402655 69 18342737442070124311
23557571 272 13758080670870392667
29717793 49 17704078369640465500
335352 9 18409731768895137614
351380 180 18409449185051784865
3545911 37 18334860523873554939
4047638 21 18333452049668310450
4072396 5 18410846652036760266
4073 2 17968101970424941979
42788 4 18411138035070187379
4325135 7 18343299297766890303
5104073 3 18188205506718541706
542803 24 18344145886901395223
59755656 520 17894627071813625587
8272917 22 18341334401172900982

>  <PUBCHEM_SHAPE_MULTIPOLES>  (1) 
318.18
15.71
1.61
0.68
18.73
0.15
0.05
5.28
1.11
-0.7
-0.03
0.36
-0.03
-0.51

>  <PUBCHEM_SHAPE_SELFOVERLAP>  (1) 
646.999

>  <PUBCHEM_SHAPE_VOLUME>  (1) 
188.5

>  <PUBCHEM_COORDINATE_TYPE>  (1) 
2
5
10

$$$$
