46287
     RDKit          3D

 19 20  0  0  1  0  0  0  0  0999 V2000
    2.4424   -0.8270   -0.7761 O   0  0  0  0  0  0  0  0  0  0  0  0
   -1.1217   -1.0373    0.1398 N   0  0  0  0  0  0  0  0  0  0  0  0
    0.2001   -1.4984   -0.2836 C   0  0  0  0  0  0  0  0  0  0  0  0
   -1.6747   -0.1027   -0.8396 C   0  0  0  0  0  0  0  0  0  0  0  0
   -2.0232   -2.1733    0.3281 C   0  0  0  0  0  0  0  0  0  0  0  0
    1.1704   -0.3318   -0.3794 C   0  0  0  0  0  0  0  0  0  0  0  0
   -3.0107    0.4393   -0.4055 C   0  0  0  0  0  0  0  0  0  0  0  0
   -1.4641   -3.1557    1.3433 C   0  0  0  0  0  0  0  0  0  0  0  0
   -4.1708   -0.2298   -0.7698 C   0  0  0  0  0  0  0  0  0  0  0  0
   -3.0634    1.6007    0.3525 C   0  0  0  0  0  0  0  0  0  0  0  0
   -5.4085    0.2725   -0.3680 C   0  0  0  0  0  0  0  0  0  0  0  0
   -4.3010    2.1030    0.7544 C   0  0  0  0  0  0  0  0  0  0  0  0
    3.5393   -0.1261   -0.3477 C   0  0  0  0  0  0  0  0  0  0  0  0
   -5.4737    1.4389    0.3941 C   0  0  0  0  0  0  0  0  0  0  0  0
    3.4414    1.2449   -0.1388 C   0  0  0  0  0  0  0  0  0  0  0  0
    4.7390   -0.7928   -0.1274 C   0  0  0  0  0  0  0  0  0  0  0  0
    4.5581    1.9586    0.2963 C   0  0  0  0  0  0  0  0  0  0  0  0
    5.8558   -0.0793    0.3078 C   0  0  0  0  0  0  0  0  0  0  0  0
    5.7653    1.2964    0.5196 C   0  0  0  0  0  0  0  0  0  0  0  0
  1  6  1  0
  1 13  1  0
  2  3  1  0
  2  4  1  0
  2  5  1  0
  3  6  1  0
  4  7  1  0
  5  8  1  0
  7  9  2  0
  7 10  1  0
  9 11  1  0
 10 12  2  0
 11 14  2  0
 12 14  1  0
 13 15  2  0
 13 16  1  0
 15 17  1  0
 16 18  2  0
 17 19  2  0
 18 19  1  0
M  END
>  <PUBCHEM_COMPOUND_CID>  (1) 
46287

>  <PUBCHEM_CONFORMER_RMSD>  (1) 
0.8

>  <PUBCHEM_CONFORMER_DIVERSEORDER>  (1) 
1
68
82
49
64
37
55
22
80
21
28
58
88
29
56
47
65
72
57
35
79
77
73
16
20
75
92
15
12
66
54
43
45
23
40
74
76
78
26
87
19
67
53
42
13
83
50
62
91
69
61
86
44
51
14
10
59
38
11
6
27
7
46
81
39
5
4
33
36
48
70
63
25
89
32
3
2
71
30
18
84
31
52
60
24
41
34
8
9
90
17
85

>  <PUBCHEM_MMFF94_PARTIAL_CHARGES>  (1) 
28
1 -0.36
10 -0.15
11 -0.15
12 -0.15
13 0.08
14 -0.15
15 -0.15
16 -0.15
17 -0.15
18 -0.15
19 -0.15
2 -0.81
3 0.27
31 0.15
32 0.15
33 0.15
34 0.15
35 0.15
36 0.15
37 0.15
38 0.15
39 0.15
4 0.41
40 0.15
5 0.27
6 0.28
7 -0.14
9 -0.15

>  <PUBCHEM_EFFECTIVE_ROTOR_COUNT>  (1) 
7

>  <PUBCHEM_PHARMACOPHORE_FEATURES>  (1) 
4
1 1 acceptor
1 2 cation
6 13 15 16 17 18 19 rings
6 7 9 10 11 12 14 rings

>  <PUBCHEM_HEAVY_ATOM_COUNT>  (1) 
19

>  <PUBCHEM_ATOM_DEF_STEREO_COUNT>  (1) 
0

>  <PUBCHEM_ATOM_UDEF_STEREO_COUNT>  (1) 
0

>  <PUBCHEM_BOND_DEF_STEREO_COUNT>  (1) 
0

>  <PUBCHEM_BOND_UDEF_STEREO_COUNT>  (1) 
0

>  <PUBCHEM_ISOTOPIC_ATOM_COUNT>  (1) 
0

>  <PUBCHEM_COMPONENT_COUNT>  (1) 
1

>  <PUBCHEM_CACTVS_TAUTO_COUNT>  (1) 
1

>  <PUBCHEM_CONFORMER_ID>  (1) 
0000B4CF00000001

>  <PUBCHEM_MMFF94_ENERGY>  (1) 
57.6504

>  <PUBCHEM_FEATURE_SELFOVERLAP>  (1) 
20.297

>  <PUBCHEM_SHAPE_FINGERPRINT>  (1) 
10595046 47 18131345315191918767
11089746 13 18413383242262073646
11405975 8 18334574677015821562
12596602 18 17240486948172993856
12633257 1 17967531311411159372
13103583 49 13695871372580960213
13167372 99 18201720605089892488
13402501 40 18272930527091928752
13533116 47 18263360300969896610
13673619 4 14907317811709173503
13685833 64 9583226263241370365
13785724 45 17695067696122276774
14178000 29 9799391322877218771
14251764 18 18408879642977568432
14251764 38 18340207517612961332
20645477 56 18333171660843728062
20645477 70 17274831203763907134
21033648 29 18059283388201752880
21065198 57 18337391655908001138
21236236 1 18338516447592254495
21315764 268 18409441484234062724
22079108 93 18407764729280603351
22224240 67 18260834778995825043
23272321 79 18343582945395698213
23402539 116 18412820300703447495
23503953 91 17894631500187956796
23559900 14 18342740676898221774
2838139 119 18131344198300299204
2916195 48 18413669097768004397
351380 180 18343581841457201868
351380 3 8574710195714587612
3545911 37 18409167718955029366
4073 2 18261113028368012210
4214541 1 18335700585211898686
441001 317 18342457053962583091
465052 167 12396302539211400720
5104073 3 18188201122300542424
54446538 1 18272367551173290845
59682541 35 18337120038287086195
5969126 39 18055065717264341759
59755656 520 18333447634067845063
6328613 192 18262528087000981148
90127 26 18271815674394307206
9981440 41 18413109467793167931

>  <PUBCHEM_SHAPE_MULTIPOLES>  (1) 
380.16
14.92
2.53
0.91
8.76
1.15
-0.08
-8.3
-1.21
-1.46
-1.1
-0.39
0.23
0.2

>  <PUBCHEM_SHAPE_SELFOVERLAP>  (1) 
790.103

>  <PUBCHEM_SHAPE_VOLUME>  (1) 
217.9

>  <PUBCHEM_COORDINATE_TYPE>  (1) 
2
5
10

$$$$
