46289
     RDKit          3D

 18 18  0  0  0  0  0  0  0  0999 V2000
    0.4624   -0.3983    0.0154 N   0  0  0  0  0  0  0  0  0  0  0  0
    4.2687   -0.4658    0.1090 C   0  0  0  0  0  0  0  0  0  0  0  0
    5.3791    0.5587   -0.1411 C   0  0  0  0  0  0  0  0  0  0  0  0
    2.8599    0.1094   -0.0578 C   0  0  0  0  0  0  0  0  0  0  0  0
    6.7849    0.0035    0.0975 C   0  0  0  0  0  0  0  0  0  0  0  0
    1.7970   -0.9653    0.1694 C   0  0  0  0  0  0  0  0  0  0  0  0
    7.8526    1.0632   -0.1783 C   0  0  0  0  0  0  0  0  0  0  0  0
   -0.5609   -1.4065    0.2530 C   0  0  0  0  0  0  0  0  0  0  0  0
   -5.8826    0.7410   -0.3677 C   0  0  0  0  0  0  0  0  0  0  0  0
   -1.9488   -0.8460    0.0909 C   0  0  0  0  0  0  0  0  0  0  0  0
   -4.5078    0.1862   -0.2073 C   0  0  0  0  0  0  0  0  0  0  0  0
   -2.5966   -0.2981    1.1891 C   0  0  0  0  0  0  0  0  0  0  0  0
   -2.5606   -0.8860   -1.1539 C   0  0  0  0  0  0  0  0  0  0  0  0
   -3.8828    0.2207    1.0392 C   0  0  0  0  0  0  0  0  0  0  0  0
   -3.8467   -0.3672   -1.3039 C   0  0  0  0  0  0  0  0  0  0  0  0
    9.2535    0.5085    0.0256 C   0  0  0  0  0  0  0  0  0  0  0  0
   -6.9235   -0.0081    0.4858 C   0  0  0  0  0  0  0  0  0  0  0  0
   -5.9478    2.2501   -0.0650 C   0  0  0  0  0  0  0  0  0  0  0  0
  1  6  1  0
  1  8  1  0
  2  3  1  0
  2  4  1  0
  3  5  1  0
  4  6  1  0
  5  7  1  0
  7 16  1  0
  8 10  1  0
  9 11  1  0
  9 17  1  0
  9 18  1  0
 10 12  2  0
 10 13  1  0
 11 14  2  0
 11 15  1  0
 12 14  1  0
 13 15  2  0
M  END
>  <PUBCHEM_COMPOUND_CID>  (1) 
46289

>  <PUBCHEM_CONFORMER_RMSD>  (1) 
0.8

>  <PUBCHEM_CONFORMER_DIVERSEORDER>  (1) 
1
182
81
35
134
74
199
209
36
230
65
260
168
144
242
245
126
215
217
176
267
60
191
268
197
151
165
115
100
226
112
119
188
72
204
111
131
122
33
104
117
157
239
108
234
193
142
123
9
222
179
135
29
15
51
63
43
202
155
24
160
76
5
254
79
171
21
238
7
37
153
31
80
186
103
128
83
89
92
161
214
116
255
184
243
64
91
41
84
219
16
143
71
192
158
48
34
118
50
210
181
257
97
136
45
44
13
237
167
93
212
241
129
2
94
49
73
88
141
121
95
154
195
231
96
82
39
114
246
252
173
4
265
107
185
40
213
205
30
38
247
211
206
177
27
159
229
70
218
187
170
169
10
220
99
149
162
152
56
87
68
140
61
235
23
132
146
223
58
67
98
77
139
248
253
47
207
208
156
124
259
249
106
17
261
244
55
163
3
251
78
174
42
133
178
263
6
203
172
130
201
225
22
198
127
227
110
180
102
125
232
258
46
18
52
86
228
221
189
59
240
200
175
25
66
14
266
190
28
148
150
20
19
11
54
85
120
62
101
8
145
12
69
164
166
250
233
137
216
236
105
256
109
196
147
183
224
57
53
26
113
264
262
75
194
90
32
138

>  <PUBCHEM_MMFF94_PARTIAL_CHARGES>  (1) 
15
1 -0.9
10 -0.14
11 -0.14
12 -0.15
13 -0.15
14 -0.15
15 -0.15
31 0.36
35 0.15
36 0.15
37 0.15
38 0.15
6 0.27
8 0.41
9 0.14

>  <PUBCHEM_EFFECTIVE_ROTOR_COUNT>  (1) 
9

>  <PUBCHEM_PHARMACOPHORE_FEATURES>  (1) 
6
1 1 cation
1 1 donor
1 16 hydrophobe
3 9 17 18 hydrophobe
5 2 3 4 5 7 hydrophobe
6 10 11 12 13 14 15 rings

>  <PUBCHEM_HEAVY_ATOM_COUNT>  (1) 
18

>  <PUBCHEM_ATOM_DEF_STEREO_COUNT>  (1) 
0

>  <PUBCHEM_ATOM_UDEF_STEREO_COUNT>  (1) 
0

>  <PUBCHEM_BOND_DEF_STEREO_COUNT>  (1) 
0

>  <PUBCHEM_BOND_UDEF_STEREO_COUNT>  (1) 
0

>  <PUBCHEM_ISOTOPIC_ATOM_COUNT>  (1) 
0

>  <PUBCHEM_COMPONENT_COUNT>  (1) 
1

>  <PUBCHEM_CACTVS_TAUTO_COUNT>  (1) 
1

>  <PUBCHEM_CONFORMER_ID>  (1) 
0000B4D100000001

>  <PUBCHEM_MMFF94_ENERGY>  (1) 
20.5007

>  <PUBCHEM_FEATURE_SELFOVERLAP>  (1) 
30.447

>  <PUBCHEM_SHAPE_FINGERPRINT>  (1) 
10 15 15285361734597728030
106641 1 17603590742414395747
10670039 82 17346883312527243929
10730089 173 18201438056308073729
10968037 39 16917349238513385607
11315181 36 16630246986750508578
12091667 2 18411701010355900371
125118 31 18335702789311440900
13073987 5 14490738024041607696
13288520 33 9943804487405061571
13668630 136 10735877279176199532
13685833 64 8502655905202407230
13964095 4 15123793972536758307
14123256 10 15267063649071489580
1420 363 9223232953662084986
14251764 18 17385722508669587962
14251764 46 17894630361847510691
14729087 3 18408321077605754480
14849402 71 13912904072321454174
15048467 5 18410292497295119852
15183329 4 17060623287462299074
155225 1 18411981330904579113
15690457 1 7997965760810590488
15716309 27 11458424644046304690
17780758 139 12324239464705324271
17834072 8 16917066668135359242
18335252 98 18130793382431582839
20281389 69 18187080655258394164
20621476 66 18260832613952479998
20621476 8 18412827972147956166
20735858 18 13551188888308386760
21095086 128 10953732297670822856
21150785 3 14333410052137695920
22224240 67 15430036578197172554
22288116 15 17703496788335342095
23035841 295 8790884086182758024
23559900 14 15625926677661123083
246663 6 11169910577099827568
28498 318 18271810100038524966
300161 21 18202844353487132046
33532 11 9511472117649817372
4325135 7 12031790266770038320
5385378 56 17676483900754609386
59682541 35 11746940902206883404
5969126 39 12751243584049523010
59755656 520 18260543446394716179
636775 72 18260266317988440269
8209 1 14836406934957380426

>  <PUBCHEM_SHAPE_MULTIPOLES>  (1) 
365.45
25.25
1.31
0.96
48.71
0.45
-0.05
11.67
-0.28
-1.31
-0.05
-1.12
-0.11
-0.21

>  <PUBCHEM_SHAPE_SELFOVERLAP>  (1) 
711.26

>  <PUBCHEM_SHAPE_VOLUME>  (1) 
220.9

>  <PUBCHEM_COORDINATE_TYPE>  (1) 
2
5
10

$$$$
