4628
     RDKit          3D

 19 21  0  0  0  0  0  0  0  0999 V2000
   -4.0523    0.6245    0.1367 O   0  0  0  0  0  0  0  0  0  0  0  0
   -3.6816   -1.7335   -0.1849 O   0  0  0  0  0  0  0  0  0  0  0  0
    1.4100   -2.4292   -0.2596 O   0  0  0  0  0  0  0  0  0  0  0  0
    3.8788   -1.9272    0.4619 O   0  0  0  0  0  0  0  0  0  0  0  0
    4.6461    0.0412   -0.4139 O   0  0  0  0  0  0  0  0  0  0  0  0
    0.7730    1.5661    0.2854 N   0  0  0  0  0  0  0  0  0  0  0  0
   -0.3588    0.7231    0.1655 C   0  0  0  0  0  0  0  0  0  0  0  0
   -0.1684   -0.6777   -0.0256 C   0  0  0  0  0  0  0  0  0  0  0  0
   -1.6817    1.2038    0.2255 C   0  0  0  0  0  0  0  0  0  0  0  0
    0.5636    2.9988    0.4807 C   0  0  0  0  0  0  0  0  0  0  0  0
   -2.7282    0.3086    0.0986 C   0  0  0  0  0  0  0  0  0  0  0  0
   -2.5182   -1.0351   -0.0846 C   0  0  0  0  0  0  0  0  0  0  0  0
   -1.2493   -1.5643   -0.1517 C   0  0  0  0  0  0  0  0  0  0  0  0
    2.0406    1.0180    0.2155 C   0  0  0  0  0  0  0  0  0  0  0  0
    1.2100   -1.2320   -0.0957 C   0  0  0  0  0  0  0  0  0  0  0  0
    2.3343   -0.2750    0.0401 C   0  0  0  0  0  0  0  0  0  0  0  0
   -4.6505   -0.6750   -0.0440 C   0  0  0  0  0  0  0  0  0  0  0  0
    0.4896    3.7340   -0.8417 C   0  0  0  0  0  0  0  0  0  0  0  0
    3.7430   -0.6691   -0.0081 C   0  0  0  0  0  0  0  0  0  0  0  0
  1 11  1  0
  1 17  1  0
  2 12  1  0
  2 17  1  0
  3 15  2  0
  4 19  1  0
  5 19  2  0
  6  7  1  0
  6 10  1  0
  6 14  1  0
  7  8  2  0
  7  9  1  0
  8 13  1  0
  8 15  1  0
  9 11  2  0
 10 18  1  0
 11 12  1  0
 12 13  2  0
 14 16  2  0
 15 16  1  0
 16 19  1  0
M  END
>  <PUBCHEM_COMPOUND_CID>  (1) 
4628

>  <PUBCHEM_CONFORMER_RMSD>  (1) 
0.6

>  <PUBCHEM_CONFORMER_DIVERSEORDER>  (1) 
1
2

>  <PUBCHEM_MMFF94_PARTIAL_CHARGES>  (1) 
22
1 -0.36
10 0.37
11 0.08
12 0.08
13 -0.15
14 -0.05
15 0.47
16 0.03
17 0.56
19 0.71
2 -0.36
20 0.15
23 0.15
24 0.15
3 -0.57
30 0.5
4 -0.65
5 -0.57
6 -0.57
7 0.1
8 0.09
9 -0.15

>  <PUBCHEM_EFFECTIVE_ROTOR_COUNT>  (1) 
2.6

>  <PUBCHEM_PHARMACOPHORE_FEATURES>  (1) 
11
1 1 acceptor
1 16 anion
1 2 acceptor
1 3 acceptor
1 4 acceptor
1 5 acceptor
1 6 cation
3 4 5 19 anion
5 1 2 11 12 17 rings
6 6 7 8 14 15 16 rings
6 7 8 9 11 12 13 rings

>  <PUBCHEM_HEAVY_ATOM_COUNT>  (1) 
19

>  <PUBCHEM_ATOM_DEF_STEREO_COUNT>  (1) 
0

>  <PUBCHEM_ATOM_UDEF_STEREO_COUNT>  (1) 
0

>  <PUBCHEM_BOND_DEF_STEREO_COUNT>  (1) 
0

>  <PUBCHEM_BOND_UDEF_STEREO_COUNT>  (1) 
0

>  <PUBCHEM_ISOTOPIC_ATOM_COUNT>  (1) 
0

>  <PUBCHEM_COMPONENT_COUNT>  (1) 
1

>  <PUBCHEM_CACTVS_TAUTO_COUNT>  (1) 
1

>  <PUBCHEM_CONFORMER_ID>  (1) 
0000121400000001

>  <PUBCHEM_MMFF94_ENERGY>  (1) 
55.1368

>  <PUBCHEM_FEATURE_SELFOVERLAP>  (1) 
56.397

>  <PUBCHEM_SHAPE_FINGERPRINT>  (1) 
10062212 137 18342451556483883903
10967382 1 18339642355608418616
11132069 177 18341607097046106242
11471102 20 18339918311794825055
11680986 33 18122064466280123488
12032990 46 18413392016474239794
12403259 226 18336258042107967781
12553582 1 18410567379491957843
13132413 78 18412827975462131405
13140716 1 18196940087509234227
138480 1 18338797921951838617
13862211 1 18412821378413658422
14790565 3 18339935886712056976
15196674 1 18412262826432505442
15442244 35 18412826906305308009
15536298 74 18201154472264810136
16945 1 18411702131727122755
17804303 29 18343303682084389417
18785283 64 17972889325830632617
193761 8 17763181745228949850
200 152 18060412526313742487
20510252 161 18198339564069191008
20645477 70 18191575570551504415
20671657 1 18195814200207984725
21029758 11 18413105065398441553
21029758 27 18408329890599019093
21267235 1 18340778086548189383
21421861 104 17755302275257831378
21501502 16 18125723628593515823
221490 88 18192155017105278635
22182313 1 18265026155005727332
2255824 54 18265617769522883141
2334 1 18340204214925152272
23366157 5 17970904694330987912
23402539 116 18343012264168873798
23419403 2 17630013054137898048
23463225 33 18410856551355920514
23557571 272 18200320892480405236
23558518 356 17615677870874912450
23559900 14 18267858553230536577
25147074 1 18058178396274886355
2748010 2 18340474656078248880
3071541 12 18122627411981145448
3071541 158 18408603694790727357
3091708 16 9355628455497560344
335352 9 18412262814133055885
34934 24 18339074878896812219
5104073 3 18413388752299206259
537710 114 18409454691368611548
6992083 37 18270134400466379345
7164475 11 18191023401002932478
7364860 26 18197497539535582568
81228 2 18122642564731020744
8809292 202 18261958543571153259
9709674 26 18120372314033367323
9981440 41 17329422264661708953

>  <PUBCHEM_SHAPE_MULTIPOLES>  (1) 
356.68
7.23
3.1
0.68
1.42
2.86
0.02
-3.6
0.1
-1.23
0.39
-0.08
0.19
-0.24

>  <PUBCHEM_SHAPE_SELFOVERLAP>  (1) 
790.977

>  <PUBCHEM_SHAPE_VOLUME>  (1) 
189.3

>  <PUBCHEM_COORDINATE_TYPE>  (1) 
2
5
10

$$$$
