46299
     RDKit          3D

 11 11  0  0  1  0  0  0  0  0999 V2000
    1.9457    1.3701    0.1106 N   0  0  0  0  0  0  0  0  0  0  0  0
    1.3754    2.3083   -0.7959 N   0  0  0  0  0  0  0  0  0  0  0  0
    1.4331    0.0384   -0.2381 C   0  0  0  0  0  0  0  0  0  0  0  0
    2.1594   -1.0370    0.5956 C   0  0  0  0  0  0  0  0  0  0  0  0
   -0.0782   -0.0014   -0.1031 C   0  0  0  0  0  0  0  0  0  0  0  0
    1.7585   -2.4572    0.2134 C   0  0  0  0  0  0  0  0  0  0  0  0
   -0.8098   -0.7842   -0.9759 C   0  0  0  0  0  0  0  0  0  0  0  0
   -0.6834    0.7466    0.8890 C   0  0  0  0  0  0  0  0  0  0  0  0
   -2.1987   -0.8203   -0.8518 C   0  0  0  0  0  0  0  0  0  0  0  0
   -2.0722    0.7101    1.0133 C   0  0  0  0  0  0  0  0  0  0  0  0
   -2.8299   -0.0734    0.1429 C   0  0  0  0  0  0  0  0  0  0  0  0
  1  2  1  0
  1  3  1  0
  3  4  1  0
  3  5  1  0
  4  6  1  0
  5  7  2  0
  5  8  1  0
  7  9  1  0
  8 10  2  0
  9 11  2  0
 10 11  1  0
M  END
>  <PUBCHEM_COMPOUND_CID>  (1) 
46299

>  <PUBCHEM_CONFORMER_RMSD>  (1) 
0.6

>  <PUBCHEM_CONFORMER_DIVERSEORDER>  (1) 
2
7
3
6
4
8
5
1

>  <PUBCHEM_MMFF94_PARTIAL_CHARGES>  (1) 
17
1 -0.63
10 -0.15
11 -0.15
15 0.36
19 0.15
2 -0.72
20 0.15
21 0.15
22 0.15
23 0.15
24 0.36
25 0.36
3 0.41
5 -0.14
7 -0.15
8 -0.15
9 -0.15

>  <PUBCHEM_EFFECTIVE_ROTOR_COUNT>  (1) 
3

>  <PUBCHEM_PHARMACOPHORE_FEATURES>  (1) 
4
1 1 donor
1 2 donor
1 6 hydrophobe
6 5 7 8 9 10 11 rings

>  <PUBCHEM_HEAVY_ATOM_COUNT>  (1) 
11

>  <PUBCHEM_ATOM_DEF_STEREO_COUNT>  (1) 
0

>  <PUBCHEM_ATOM_UDEF_STEREO_COUNT>  (1) 
1

>  <PUBCHEM_BOND_DEF_STEREO_COUNT>  (1) 
0

>  <PUBCHEM_BOND_UDEF_STEREO_COUNT>  (1) 
0

>  <PUBCHEM_ISOTOPIC_ATOM_COUNT>  (1) 
0

>  <PUBCHEM_COMPONENT_COUNT>  (1) 
1

>  <PUBCHEM_CACTVS_TAUTO_COUNT>  (1) 
1

>  <PUBCHEM_CONFORMER_ID>  (1) 
0000B4DB00000002

>  <PUBCHEM_MMFF94_ENERGY>  (1) 
24.4719

>  <PUBCHEM_FEATURE_SELFOVERLAP>  (1) 
21.633

>  <PUBCHEM_SHAPE_FINGERPRINT>  (1) 
10857977 72 16056588881196739939
12326174 3 17894619370999859288
12423570 1 11099502224005772679
16945 1 18409167714227538711
18185500 45 18272644679563612822
20653091 64 18412261739958818906
207724 885 18196937677673917235
21040471 1 17274554113526538897
23211744 25 17552071123001985017
23552423 10 18341330075913538703
2748010 2 16833493614094878509
29004967 10 17968095308903810866
369184 2 18335419067274835691
5084963 1 18272368633647039091
528862 383 18408602586609770850
81228 2 17467621603796916432

>  <PUBCHEM_SHAPE_MULTIPOLES>  (1) 
216.41
3.69
2
1.02
0.83
0.2
0
-0.79
-0.43
-1.58
0.27
0.27
0.07
-0.79

>  <PUBCHEM_SHAPE_SELFOVERLAP>  (1) 
436.245

>  <PUBCHEM_SHAPE_VOLUME>  (1) 
127.4

>  <PUBCHEM_COORDINATE_TYPE>  (1) 
2
5
10

$$$$
