46296
     RDKit          3D

 28 31  0  0  0  0  0  0  0  0999 V2000
    5.4740   -1.9702    1.2008 Cl  0  0  0  0  0  0  0  0  0  0  0  0
   -0.1770    1.1429   -2.2909 O   0  0  0  0  0  0  0  0  0  0  0  0
   -2.3337   -1.7588   -1.0143 N   0  0  0  0  0  0  0  0  0  0  0  0
    0.3338    0.1441   -1.6781 N   0  0  0  0  0  0  0  0  0  0  0  0
   -0.3959   -1.9899    0.2755 N   0  0  0  0  0  0  0  0  0  0  0  0
   -0.9723   -1.6802   -0.8516 C   0  0  0  0  0  0  0  0  0  0  0  0
   -0.1847   -1.1900   -2.0454 C   0  0  0  0  0  0  0  0  0  0  0  0
    1.2577    0.3104   -0.7439 C   0  0  0  0  0  0  0  0  0  0  0  0
    1.8140   -0.8590   -0.0108 C   0  0  0  0  0  0  0  0  0  0  0  0
   -3.2071   -1.8276    0.1344 C   0  0  0  0  0  0  0  0  0  0  0  0
    1.0021   -1.9231    0.4269 C   0  0  0  0  0  0  0  0  0  0  0  0
    1.7407    1.6719   -0.4154 C   0  0  0  0  0  0  0  0  0  0  0  0
   -3.6577   -0.4615    0.5790 C   0  0  0  0  0  0  0  0  0  0  0  0
   -2.9024   -2.0274   -2.3148 C   0  0  0  0  0  0  0  0  0  0  0  0
    3.1977   -0.8823    0.2303 C   0  0  0  0  0  0  0  0  0  0  0  0
    1.6088   -2.9812    1.1228 C   0  0  0  0  0  0  0  0  0  0  0  0
    3.7772   -1.9494    0.9140 C   0  0  0  0  0  0  0  0  0  0  0  0
    2.8344    2.1971   -1.0942 C   0  0  0  0  0  0  0  0  0  0  0  0
    1.0956    2.4108    0.5696 C   0  0  0  0  0  0  0  0  0  0  0  0
    2.9831   -2.9981    1.3623 C   0  0  0  0  0  0  0  0  0  0  0  0
   -2.9052    0.2361    1.5136 C   0  0  0  0  0  0  0  0  0  0  0  0
   -4.8197    0.0810    0.0479 C   0  0  0  0  0  0  0  0  0  0  0  0
    3.2889    3.4790   -0.7838 C   0  0  0  0  0  0  0  0  0  0  0  0
    1.5502    3.6926    0.8801 C   0  0  0  0  0  0  0  0  0  0  0  0
   -3.3229    1.5019    1.9251 C   0  0  0  0  0  0  0  0  0  0  0  0
   -5.2373    1.3466    0.4596 C   0  0  0  0  0  0  0  0  0  0  0  0
    2.6468    4.2269    0.2032 C   0  0  0  0  0  0  0  0  0  0  0  0
   -4.4888    2.0575    1.3980 C   0  0  0  0  0  0  0  0  0  0  0  0
  1 17  1  0
  2  4  1  0
  3  6  1  0
  3 10  1  0
  3 14  1  0
  4  7  1  0
  4  8  2  0
  5  6  2  0
  5 11  1  0
  6  7  1  0
  8  9  1  0
  8 12  1  0
  9 11  2  0
  9 15  1  0
 10 13  1  0
 11 16  1  0
 12 18  2  0
 12 19  1  0
 13 21  2  0
 13 22  1  0
 15 17  2  0
 16 20  2  0
 17 20  1  0
 18 23  1  0
 19 24  2  0
 21 25  1  0
 22 26  2  0
 23 27  2  0
 24 27  1  0
 25 28  2  0
 26 28  1  0
M  CHG  2   2  -1   4   1
M  END
>  <PUBCHEM_COMPOUND_CID>  (1) 
46296

>  <PUBCHEM_CONFORMER_RMSD>  (1) 
0.8

>  <PUBCHEM_CONFORMER_DIVERSEORDER>  (1) 
1
42
38
2
17
7
33
34
41
29
13
32
35
48
10
49
37
19
20
6
12
27
4
28
23
52
36
15
43
47
31
16
39
45
21
3
46
51
25
24
26
11
22
40
30
44
18
14
9
50
8
5

>  <PUBCHEM_MMFF94_PARTIAL_CHARGES>  (1) 
41
1 -0.18
10 0.51
11 0.18
12 0.09
13 -0.14
14 0.37
15 -0.15
16 -0.15
17 0.18
18 -0.15
19 -0.15
2 -0.63
20 -0.15
21 -0.15
22 -0.15
23 -0.15
24 -0.15
25 -0.15
26 -0.15
27 -0.15
28 -0.15
3 -0.79
36 0.15
37 0.15
38 0.15
39 0.15
4 0.53
40 0.15
41 0.15
42 0.15
43 0.15
44 0.15
45 0.15
46 0.15
47 0.15
48 0.15
5 -0.63
6 0.44
7 0.16
8 -0.17
9 0.09

>  <PUBCHEM_EFFECTIVE_ROTOR_COUNT>  (1) 
4.2

>  <PUBCHEM_PHARMACOPHORE_FEATURES>  (1) 
6
1 2 anion
3 3 5 6 cation
6 12 18 19 23 24 27 rings
6 13 21 22 25 26 28 rings
6 9 11 15 16 17 20 rings
7 4 5 6 7 8 9 11 rings

>  <PUBCHEM_HEAVY_ATOM_COUNT>  (1) 
28

>  <PUBCHEM_ATOM_DEF_STEREO_COUNT>  (1) 
0

>  <PUBCHEM_ATOM_UDEF_STEREO_COUNT>  (1) 
0

>  <PUBCHEM_BOND_DEF_STEREO_COUNT>  (1) 
0

>  <PUBCHEM_BOND_UDEF_STEREO_COUNT>  (1) 
0

>  <PUBCHEM_ISOTOPIC_ATOM_COUNT>  (1) 
0

>  <PUBCHEM_COMPONENT_COUNT>  (1) 
1

>  <PUBCHEM_CACTVS_TAUTO_COUNT>  (1) 
1

>  <PUBCHEM_CONFORMER_ID>  (1) 
0000B4D800000001

>  <PUBCHEM_MMFF94_ENERGY>  (1) 
106.6292

>  <PUBCHEM_FEATURE_SELFOVERLAP>  (1) 
30.462

>  <PUBCHEM_SHAPE_FINGERPRINT>  (1) 
10006869 2 18197788902350168971
10439779 11 17910394987974412145
10764073 3 16623779393200281494
10940486 97 17989483031069393622
1100329 8 18410296908674893562
11640471 11 18342748446224580047
11763715 3 16912244330079274079
12166972 35 18271237232251269395
12633257 1 18267595619654347865
13004483 165 17830728764449193010
13140716 1 18042398217814386258
13257819 101 15194987324639116194
13583140 156 18262250988184098627
13878862 14 18189595229956577333
14117953 113 17911247118102148877
14466204 15 18265893549546799003
14739800 52 17915449721772787208
14790565 3 18045230581490430124
14955137 171 18338525127415243546
15238133 3 18117291258781561151
15475509 8 18199204901443364510
15475509 84 18045501919747989044
15848702 68 18411141299119082677
17974551 9 17968678041993569299
17980427 23 18129938962895476009
20642791 268 18341884187125140114
20715895 44 17909271278906981241
20739085 24 17895474842623170284
20764821 26 17908441155817407673
21033648 29 16877661245770902125
2132832 1 18057861697833895527
23559900 14 17417267424303686087
25223398 141 15913324732522283453
345986 75 17463120254379222466
392239 28 18192687031010511186
513202 73 17545607747241972914
57307002 182 18267887042070449729
57527295 17 17982757421805527692
5895379 119 17702681968103149177
7097593 13 18409729521756978867
84936 182 18195810893193534016
9981440 41 17905321089171112648

>  <PUBCHEM_SHAPE_MULTIPOLES>  (1) 
557.28
9.27
4.84
1.89
5.91
3.98
0.71
-0.04
-3.95
-5.29
-0.73
0.79
-0.37
-3.34

>  <PUBCHEM_SHAPE_SELFOVERLAP>  (1) 
1213.262

>  <PUBCHEM_SHAPE_VOLUME>  (1) 
303.6

>  <PUBCHEM_COORDINATE_TYPE>  (1) 
2
5
10

$$$$
