46293
     RDKit          3D

 17 17  0  0  0  0  0  0  0  0999 V2000
    1.0126   -0.3746   -0.0418 N   0  0  0  0  0  0  0  0  0  0  0  0
    4.8412   -0.3646   -0.1078 C   0  0  0  0  0  0  0  0  0  0  0  0
    3.4044    0.1517    0.0183 C   0  0  0  0  0  0  0  0  0  0  0  0
    5.8987    0.7182    0.1182 C   0  0  0  0  0  0  0  0  0  0  0  0
    2.3513   -0.9377   -0.1821 C   0  0  0  0  0  0  0  0  0  0  0  0
   -0.0028   -1.4045   -0.2077 C   0  0  0  0  0  0  0  0  0  0  0  0
    7.3094    0.1658   -0.0907 C   0  0  0  0  0  0  0  0  0  0  0  0
   -5.3389    0.7237    0.3560 C   0  0  0  0  0  0  0  0  0  0  0  0
   -1.3945   -0.8490   -0.0606 C   0  0  0  0  0  0  0  0  0  0  0  0
   -3.9601    0.1743    0.2104 C   0  0  0  0  0  0  0  0  0  0  0  0
   -1.9908   -0.8231    1.1922 C   0  0  0  0  0  0  0  0  0  0  0  0
   -2.0612   -0.3712   -1.1800 C   0  0  0  0  0  0  0  0  0  0  0  0
   -3.2802   -0.3088    1.3284 C   0  0  0  0  0  0  0  0  0  0  0  0
   -3.3506    0.1430   -1.0438 C   0  0  0  0  0  0  0  0  0  0  0  0
    8.3670    1.2283    0.1630 C   0  0  0  0  0  0  0  0  0  0  0  0
   -5.4238    2.2122   -0.0317 C   0  0  0  0  0  0  0  0  0  0  0  0
   -6.3816   -0.0836   -0.4403 C   0  0  0  0  0  0  0  0  0  0  0  0
  1  5  1  0
  1  6  1  0
  2  3  1  0
  2  4  1  0
  3  5  1  0
  4  7  1  0
  6  9  1  0
  7 15  1  0
  8 10  1  0
  8 16  1  0
  8 17  1  0
  9 11  2  0
  9 12  1  0
 10 13  2  0
 10 14  1  0
 11 13  1  0
 12 14  2  0
M  END
>  <PUBCHEM_COMPOUND_CID>  (1) 
46293

>  <PUBCHEM_CONFORMER_RMSD>  (1) 
0.8

>  <PUBCHEM_CONFORMER_DIVERSEORDER>  (1) 
1
11
106
34
119
84
48
107
26
61
104
30
56
75
5
52
92
120
69
2
117
38
62
60
55
10
6
41
67
18
94
51
88
100
53
27
29
103
44
95
31
102
76
20
121
33
114
7
12
122
68
43
97
99
24
47
14
35
96
70
65
116
4
74
66
8
40
15
77
22
39
71
17
72
54
59
87
73
16
50
90
91
123
93
3
108
118
42
58
37
64
36
32
101
98
19
89
78
83
109
57
113
9
82
79
110
63
21
46
80
115
25
13
28
105
45
85
112
23
49
81
111
86

>  <PUBCHEM_MMFF94_PARTIAL_CHARGES>  (1) 
15
1 -0.9
10 -0.14
11 -0.15
12 -0.15
13 -0.15
14 -0.15
31 0.36
32 0.15
33 0.15
34 0.15
35 0.15
5 0.27
6 0.41
8 0.14
9 -0.14

>  <PUBCHEM_EFFECTIVE_ROTOR_COUNT>  (1) 
8

>  <PUBCHEM_PHARMACOPHORE_FEATURES>  (1) 
6
1 1 cation
1 1 donor
1 15 hydrophobe
3 8 16 17 hydrophobe
4 2 3 4 7 hydrophobe
6 9 10 11 12 13 14 rings

>  <PUBCHEM_HEAVY_ATOM_COUNT>  (1) 
17

>  <PUBCHEM_ATOM_DEF_STEREO_COUNT>  (1) 
0

>  <PUBCHEM_ATOM_UDEF_STEREO_COUNT>  (1) 
0

>  <PUBCHEM_BOND_DEF_STEREO_COUNT>  (1) 
0

>  <PUBCHEM_BOND_UDEF_STEREO_COUNT>  (1) 
0

>  <PUBCHEM_ISOTOPIC_ATOM_COUNT>  (1) 
0

>  <PUBCHEM_COMPONENT_COUNT>  (1) 
1

>  <PUBCHEM_CACTVS_TAUTO_COUNT>  (1) 
1

>  <PUBCHEM_CONFORMER_ID>  (1) 
0000B4D500000001

>  <PUBCHEM_MMFF94_ENERGY>  (1) 
20.6773

>  <PUBCHEM_FEATURE_SELFOVERLAP>  (1) 
30.446

>  <PUBCHEM_SHAPE_FINGERPRINT>  (1) 
10 15 15936412256286367516
106641 1 17822297898830112321
10968037 39 15841551877340622575
11315181 36 17821731667173542915
11524674 6 13045949005604798681
12091667 2 18411701006324631739
12236239 1 17704072863334480543
13288520 33 9799689299197291435
13533116 47 18187639147094168474
13668630 136 9511463329792996544
13685833 64 8286200548573911294
13964095 4 12535633756479240483
14123256 10 14333411151390847932
1420 363 8070028866056073274
14251764 18 17894346692211213562
14251764 46 18410573993741392238
14350574 20 10015863176411853586
14729087 3 18410572881846314888
15048467 5 18412825789961684684
15183329 4 16128661838744142366
15690457 1 11891336469167375512
15716309 27 12685090393691540306
17780758 139 13262398864822237341
17834072 8 16558750122484180554
17834076 25 18273214201281175230
18335252 98 17775570866484664583
200 152 9583516508272169927
20281389 69 18408601462045776864
20526848 3 18411421709218145476
20621476 66 18410295822290994460
20621476 8 18272091583425516814
20767249 213 18412826888777155667
21150785 3 13183020727241689096
21267235 1 14261348081370071603
22224240 67 16370723755767921274
22288116 15 17203315754472567037
23035841 295 8574711299795125380
23198884 109 16056884619443238474
246663 6 11095882687651516117
26918003 58 12107793999650274439
300161 21 17918273156533309022
3004659 81 12391508677093773150
351380 3 10953456345346555104
3545911 37 16988561311914190102
5104073 3 16081954644118885357
59682541 35 14562819880234181368
59755656 520 18410568504905875607
636775 72 18334857195042773061

>  <PUBCHEM_SHAPE_MULTIPOLES>  (1) 
344.87
21.26
1.34
0.98
38.03
0.5
0.07
10.88
0.24
-0.82
0.03
-1
-0.12
0.25

>  <PUBCHEM_SHAPE_SELFOVERLAP>  (1) 
673.374

>  <PUBCHEM_SHAPE_VOLUME>  (1) 
208

>  <PUBCHEM_COORDINATE_TYPE>  (1) 
2
5
10

$$$$
