4630
     RDKit          3D

 15 16  0  0  0  0  0  0  0  0999 V2000
    3.4158    1.2152    1.3377 O   0  0  0  0  0  0  0  0  0  0  0  0
   -2.9097    0.3965   -0.1498 N   0  0  0  0  0  0  0  0  0  0  0  0
    2.4720    0.1490   -0.5369 N   0  0  0  0  0  0  0  0  0  0  0  0
   -4.8098   -0.9391    0.0850 C   0  0  0  0  0  0  0  0  0  0  0  0
   -3.5737   -1.8328    0.0573 C   0  0  0  0  0  0  0  0  0  0  0  0
   -4.2815    0.4623    0.3532 C   0  0  0  0  0  0  0  0  0  0  0  0
   -2.4000   -0.8967    0.3054 C   0  0  0  0  0  0  0  0  0  0  0  0
    2.3727   -1.2014   -1.0377 C   0  0  0  0  0  0  0  0  0  0  0  0
    3.5210   -1.9097   -0.3472 C   0  0  0  0  0  0  0  0  0  0  0  0
   -2.0942    1.5094    0.3131 C   0  0  0  0  0  0  0  0  0  0  0  0
    3.6646   -1.1691    0.9770 C   0  0  0  0  0  0  0  0  0  0  0  0
    3.2039    0.2310    0.6453 C   0  0  0  0  0  0  0  0  0  0  0  0
    1.7549    1.2419   -1.1569 C   0  0  0  0  0  0  0  0  0  0  0  0
   -0.7284    1.4103   -0.2099 C   0  0  0  0  0  0  0  0  0  0  0  0
    0.3921    1.3331   -0.6357 C   0  0  0  0  0  0  0  0  0  0  0  0
  1 12  2  0
  2  6  1  0
  2  7  1  0
  2 10  1  0
  3  8  1  0
  3 12  1  0
  3 13  1  0
  4  5  1  0
  4  6  1  0
  5  7  1  0
  8  9  1  0
  9 11  1  0
 10 14  1  0
 11 12  1  0
 13 15  1  0
 14 15  3  0
M  END
>  <PUBCHEM_COMPOUND_CID>  (1) 
4630

>  <PUBCHEM_CONFORMER_RMSD>  (1) 
0.6

>  <PUBCHEM_CONFORMER_DIVERSEORDER>  (1) 
1
25
23
8
26
14
6
24
21
9
10
5
22
17
18
11
12
19
15
4
20
13
3
16
7
2

>  <PUBCHEM_MMFF94_PARTIAL_CHARGES>  (1) 
12
1 -0.57
10 0.47
11 0.06
12 0.57
13 0.5
14 -0.2
15 -0.2
2 -0.81
3 -0.66
6 0.27
7 0.27
8 0.3

>  <PUBCHEM_EFFECTIVE_ROTOR_COUNT>  (1) 
3.8

>  <PUBCHEM_PHARMACOPHORE_FEATURES>  (1) 
4
1 1 acceptor
1 2 cation
5 2 4 5 6 7 rings
5 3 8 9 11 12 rings

>  <PUBCHEM_HEAVY_ATOM_COUNT>  (1) 
15

>  <PUBCHEM_ATOM_DEF_STEREO_COUNT>  (1) 
0

>  <PUBCHEM_ATOM_UDEF_STEREO_COUNT>  (1) 
0

>  <PUBCHEM_BOND_DEF_STEREO_COUNT>  (1) 
0

>  <PUBCHEM_BOND_UDEF_STEREO_COUNT>  (1) 
0

>  <PUBCHEM_ISOTOPIC_ATOM_COUNT>  (1) 
0

>  <PUBCHEM_COMPONENT_COUNT>  (1) 
1

>  <PUBCHEM_CACTVS_TAUTO_COUNT>  (1) 
2

>  <PUBCHEM_CONFORMER_ID>  (1) 
0000121600000001

>  <PUBCHEM_MMFF94_ENERGY>  (1) 
16.0032

>  <PUBCHEM_FEATURE_SELFOVERLAP>  (1) 
20.297

>  <PUBCHEM_SHAPE_FINGERPRINT>  (1) 
10062212 137 18410011053169495095
10618630 7 18408044000374679861
122479 349 10879990259543913509
12346177 29 18189327988084792677
12410352 35 18260542312364678819
13764800 53 12535331433214388621
1420 369 18408326592391196451
14251764 30 16700352806585413246
14252887 29 18409450301643113704
14289901 80 16200436853508128141
15885798 251 18333735706478098421
177051 138 18409731746423060916
17834072 14 18412820283539415253
1798214 20 17821726130770963331
18186145 218 11602822376002571629
19107657 162 18341896272714458351
20281475 54 18408892840795267549
20291156 8 18261395528939566415
20442098 301 18341895203278216230
20621476 91 17896858999520150802
20645477 70 17967818300935785149
20671657 53 17676202476869015445
21065199 12 18202560648857866608
21501925 9 18408602590931215853
21864079 5 9583247110780405919
22485316 2 18410574007022153933
22646028 28 18259988162614286187
22959321 94 18335138678787707345
23559900 14 18341614789306373924
251288 83 18410568501032225688
31174 14 18059847377121021864
316301 35 18264766563467736114
4990 188 11025792089566123697
5374978 207 18060422408727522617
8988823 20 17774712156392708505
9709674 26 18334582390307632091
9882013 296 17060336365981617517

>  <PUBCHEM_SHAPE_MULTIPOLES>  (1) 
292.86
9.68
2.04
1.03
4.87
0.29
0.04
4.1
1.75
-0.18
-0.14
-1.04
-0.11
0.13

>  <PUBCHEM_SHAPE_SELFOVERLAP>  (1) 
592.07

>  <PUBCHEM_SHAPE_VOLUME>  (1) 
173.9

>  <PUBCHEM_COORDINATE_TYPE>  (1) 
2
5
10

$$$$
