46300
     RDKit          3D

 18 19  0  0  1  0  0  0  0  0999 V2000
   -1.9311    1.4706   -0.3832 O   0  0  0  0  0  0  0  0  0  0  0  0
    3.7837   -1.1964    0.1056 N   0  0  0  0  0  0  0  0  0  0  0  0
    3.5525    0.2475    0.1307 C   0  0  0  0  0  0  0  0  0  0  0  0
    2.0792    0.5759   -0.0073 C   0  0  0  0  0  0  0  0  0  0  0  0
    4.1493    0.8445    1.4073 C   0  0  0  0  0  0  0  0  0  0  0  0
    1.6540    1.3157   -1.0951 C   0  0  0  0  0  0  0  0  0  0  0  0
    1.1968    0.1276    0.9582 C   0  0  0  0  0  0  0  0  0  0  0  0
    5.2106   -1.4878    0.2402 C   0  0  0  0  0  0  0  0  0  0  0  0
    3.2578   -1.7768   -1.1293 C   0  0  0  0  0  0  0  0  0  0  0  0
    0.2983    1.6181   -1.2221 C   0  0  0  0  0  0  0  0  0  0  0  0
   -0.1591    0.4299    0.8313 C   0  0  0  0  0  0  0  0  0  0  0  0
   -0.6084    1.1750   -0.2589 C   0  0  0  0  0  0  0  0  0  0  0  0
   -2.8422    0.4529   -0.1553 C   0  0  0  0  0  0  0  0  0  0  0  0
   -2.6127   -0.7934   -0.7095 C   0  0  0  0  0  0  0  0  0  0  0  0
   -3.9584    0.7095    0.6202 C   0  0  0  0  0  0  0  0  0  0  0  0
   -3.5310   -1.8181   -0.4806 C   0  0  0  0  0  0  0  0  0  0  0  0
   -4.8765   -0.3154    0.8492 C   0  0  0  0  0  0  0  0  0  0  0  0
   -4.6628   -1.5792    0.2987 C   0  0  0  0  0  0  0  0  0  0  0  0
  1 12  1  0
  1 13  1  0
  2  3  1  0
  2  8  1  0
  2  9  1  0
  3  4  1  0
  3  5  1  0
  4  6  2  0
  4  7  1  0
  6 10  1  0
  7 11  2  0
 10 12  2  0
 11 12  1  0
 13 14  2  0
 13 15  1  0
 14 16  1  0
 15 17  2  0
 16 18  2  0
 17 18  1  0
M  END
>  <PUBCHEM_COMPOUND_CID>  (1) 
46300

>  <PUBCHEM_CONFORMER_RMSD>  (1) 
0.6

>  <PUBCHEM_CONFORMER_DIVERSEORDER>  (1) 
1
3
16
8
10
14
15
24
22
26
12
13
9
18
2
25
4
17
23
7
20
21
28
27
6
5
11
19

>  <PUBCHEM_MMFF94_PARTIAL_CHARGES>  (1) 
26
1 -0.17
10 -0.15
11 -0.15
12 0.08
13 0.08
14 -0.15
15 -0.15
16 -0.15
17 -0.15
18 -0.15
2 -0.81
23 0.15
24 0.15
3 0.41
31 0.15
32 0.15
33 0.15
34 0.15
35 0.15
36 0.15
37 0.15
4 -0.14
6 -0.15
7 -0.15
8 0.27
9 0.27

>  <PUBCHEM_EFFECTIVE_ROTOR_COUNT>  (1) 
4

>  <PUBCHEM_PHARMACOPHORE_FEATURES>  (1) 
4
1 1 acceptor
1 2 cation
6 13 14 15 16 17 18 rings
6 4 6 7 10 11 12 rings

>  <PUBCHEM_HEAVY_ATOM_COUNT>  (1) 
18

>  <PUBCHEM_ATOM_DEF_STEREO_COUNT>  (1) 
0

>  <PUBCHEM_ATOM_UDEF_STEREO_COUNT>  (1) 
1

>  <PUBCHEM_BOND_DEF_STEREO_COUNT>  (1) 
0

>  <PUBCHEM_BOND_UDEF_STEREO_COUNT>  (1) 
0

>  <PUBCHEM_ISOTOPIC_ATOM_COUNT>  (1) 
0

>  <PUBCHEM_COMPONENT_COUNT>  (1) 
1

>  <PUBCHEM_CACTVS_TAUTO_COUNT>  (1) 
1

>  <PUBCHEM_CONFORMER_ID>  (1) 
0000B4DC00000001

>  <PUBCHEM_MMFF94_ENERGY>  (1) 
64.3141

>  <PUBCHEM_FEATURE_SELFOVERLAP>  (1) 
20.297

>  <PUBCHEM_SHAPE_FINGERPRINT>  (1) 
11128504 68 17095534993335982558
11552529 35 17059201725990699983
12553582 1 17822003207806521707
12596602 18 15697996366321921707
12633257 1 16559029423891246527
12670546 177 13190345681578520675
12892183 10 17775002405517918217
13167823 11 18411138038974862186
13288520 33 18335422339733986084
13551218 46 18342744005402950063
13583140 156 17560786724005520024
13675066 3 18341894095461535689
1420 369 18335138712973580283
14252887 29 18408884049049706800
14289901 80 17988354970418941032
14576447 43 17749105586937908882
14848178 96 10015576207971816530
15342816 4 17822005394134772706
15375358 24 15913336788379405193
15848700 24 17821446855139326468
15880784 105 18202282532471754674
17349148 13 16878220879518876336
17959699 21 8646772187878024519
1813 80 17967254199704399061
18186145 218 16515404105367816685
19141452 34 18412545397174359935
193927 3 18187375341185281267
19422 9 18335709394379739885
19784866 170 14836130969738233272
200 152 17313377959456125137
20281475 54 18412263973357643597
20291156 8 18333167271613731925
204376 136 13614242611385701669
20645477 70 17749392632218157269
20671657 53 17313097575016141925
21065199 12 18059855064721877129
21267235 1 18187373138273188459
21673915 165 18271519900696469374
21713013 43 16588302869283572283
221357 26 11963388548604555759
22289505 5 11169911676453589514
22646028 28 18334013934353635391
23379529 103 17969798555727359147
23402539 116 17531245003062293164
23503958 8 18272091647333477371
235170 7 14201397144792541602
23559900 14 18272363166412511064
26918003 58 17989202608010672144
29717793 49 18261390083643611485
34797466 226 12468647105367485931
351380 3 18113618971396232858
4028521 119 8718828686873189815
42 15 18272654545298573139
465052 167 18118135886466927051
5104073 3 18272650138561992450
559249 180 18335417929488388247
5924683 9 17346025784195340447
633830 44 17022626385766940013
76465 3 18041551430905072362
7970288 3 18186519912486354987
9709674 26 18261959659988031683
9981440 41 17109881695960329097

>  <PUBCHEM_SHAPE_MULTIPOLES>  (1) 
359.58
10.83
1.88
1.17
0.8
0.52
-0.01
5.53
2.5
-0.25
-0.5
-0.48
-0.19
0.23

>  <PUBCHEM_SHAPE_SELFOVERLAP>  (1) 
761.897

>  <PUBCHEM_SHAPE_VOLUME>  (1) 
203

>  <PUBCHEM_COORDINATE_TYPE>  (1) 
2
5
10

$$$$
