46311
     RDKit          3D

 23 24  0  0  0  0  0  0  0  0999 V2000
    0.9964    0.9917    1.5619 O   0  0  0  0  0  0  0  0  0  0  0  0
    0.1562    2.3107   -0.1336 O   0  0  0  0  0  0  0  0  0  0  0  0
    4.0673    0.4325   -0.3985 N   0  0  0  0  0  0  0  0  0  0  0  0
    2.7138    0.1930    0.1010 C   0  0  0  0  0  0  0  0  0  0  0  0
    5.0294    0.4136    0.7027 C   0  0  0  0  0  0  0  0  0  0  0  0
    4.4242   -0.5653   -1.4063 C   0  0  0  0  0  0  0  0  0  0  0  0
    2.3212    1.2533    1.1175 C   0  0  0  0  0  0  0  0  0  0  0  0
   -2.4426    1.1324    0.4175 C   0  0  0  0  0  0  0  0  0  0  0  0
   -1.3391    1.2121    1.4405 C   0  0  0  0  0  0  0  0  0  0  0  0
    6.4334    0.7215    0.2105 C   0  0  0  0  0  0  0  0  0  0  0  0
    3.4345   -0.5596   -2.5589 C   0  0  0  0  0  0  0  0  0  0  0  0
   -2.7219   -0.0559   -0.2450 C   0  0  0  0  0  0  0  0  0  0  0  0
   -0.0052    1.5881    0.8404 C   0  0  0  0  0  0  0  0  0  0  0  0
   -1.9672   -1.2649    0.0183 C   0  0  0  0  0  0  0  0  0  0  0  0
   -3.1747    2.2836    0.1539 C   0  0  0  0  0  0  0  0  0  0  0  0
   -3.7503   -0.0942   -1.1866 C   0  0  0  0  0  0  0  0  0  0  0  0
   -4.2031    2.2451   -0.7877 C   0  0  0  0  0  0  0  0  0  0  0  0
   -4.4909    1.0564   -1.4579 C   0  0  0  0  0  0  0  0  0  0  0  0
   -0.8212   -1.5442   -0.7241 C   0  0  0  0  0  0  0  0  0  0  0  0
   -2.3888   -2.1448    1.0135 C   0  0  0  0  0  0  0  0  0  0  0  0
   -0.0945   -2.7076   -0.4707 C   0  0  0  0  0  0  0  0  0  0  0  0
   -1.6620   -3.3082    1.2669 C   0  0  0  0  0  0  0  0  0  0  0  0
   -0.5148   -3.5893    0.5248 C   0  0  0  0  0  0  0  0  0  0  0  0
  1  7  1  0
  1 13  1  0
  2 13  2  0
  3  4  1  0
  3  5  1  0
  3  6  1  0
  4  7  1  0
  5 10  1  0
  6 11  1  0
  8  9  1  0
  8 12  2  0
  8 15  1  0
  9 13  1  0
 12 14  1  0
 12 16  1  0
 14 19  2  0
 14 20  1  0
 15 17  2  0
 16 18  2  0
 17 18  1  0
 19 21  1  0
 20 22  2  0
 21 23  2  0
 22 23  1  0
M  END
>  <PUBCHEM_COMPOUND_CID>  (1) 
46311

>  <PUBCHEM_CONFORMER_RMSD>  (1) 
1

>  <PUBCHEM_CONFORMER_DIVERSEORDER>  (1) 
3
20
10
57
39
32
98
22
69
34
2
78
60
48
74
19
40
29
11
41
14
4
76
23
87
33
55
15
43
67
52
46
38
21
64
45
68
37
84
47
62
17
56
27
54
80
42
100
63
8
73
5
94
13
92
44
75
7
9
77
30
65
35
31
90
61
36
86
25
16
88
49
50
93
53
97
51
1
82
6
66
83
59
95
71
81
79
85
70
24
58
18
96
99
91
12
89
72
28
26

>  <PUBCHEM_MMFF94_PARTIAL_CHARGES>  (1) 
28
1 -0.43
13 0.66
15 -0.15
16 -0.15
17 -0.15
18 -0.15
19 -0.15
2 -0.57
20 -0.15
21 -0.15
22 -0.15
23 -0.15
3 -0.81
4 0.27
40 0.15
41 0.15
42 0.15
43 0.15
44 0.15
45 0.15
46 0.15
47 0.15
48 0.15
5 0.27
6 0.27
7 0.28
8 -0.14
9 0.2

>  <PUBCHEM_EFFECTIVE_ROTOR_COUNT>  (1) 
9

>  <PUBCHEM_PHARMACOPHORE_FEATURES>  (1) 
4
1 2 acceptor
1 3 cation
6 14 19 20 21 22 23 rings
6 8 12 15 16 17 18 rings

>  <PUBCHEM_HEAVY_ATOM_COUNT>  (1) 
23

>  <PUBCHEM_ATOM_DEF_STEREO_COUNT>  (1) 
0

>  <PUBCHEM_ATOM_UDEF_STEREO_COUNT>  (1) 
0

>  <PUBCHEM_BOND_DEF_STEREO_COUNT>  (1) 
0

>  <PUBCHEM_BOND_UDEF_STEREO_COUNT>  (1) 
0

>  <PUBCHEM_ISOTOPIC_ATOM_COUNT>  (1) 
0

>  <PUBCHEM_COMPONENT_COUNT>  (1) 
1

>  <PUBCHEM_CACTVS_TAUTO_COUNT>  (1) 
1

>  <PUBCHEM_CONFORMER_ID>  (1) 
0000B4E700000003

>  <PUBCHEM_MMFF94_ENERGY>  (1) 
55.126

>  <PUBCHEM_FEATURE_SELFOVERLAP>  (1) 
20.297

>  <PUBCHEM_SHAPE_FINGERPRINT>  (1) 
10366900 7 17203607099679853272
105312 117 18114457877556938829
10764073 3 17839787813166699507
107951 10 18186798080343230019
11370993 70 18409165480881435932
12788726 201 17987794108046700176
13257819 101 16951949675612876557
13402501 40 18202563990737782348
13726171 33 18049755033062703180
13941206 138 18187922841967623235
14251757 17 17846775183110332207
15163728 17 17388797709949632957
15375358 24 18060136553174138356
15463212 79 17822563997391484272
15475509 35 13468684924806252053
15664445 248 16675580122063047055
15880784 105 15267066934959042868
167882 2 18046617906986000075
20645476 183 18114172051778311651
22849339 104 18336558199570248798
22907989 373 18190472742971482671
23419403 2 17538879917632898651
23559900 14 17773862255205649808
340366 18 18113622321439465277
3759504 43 18260827094518662475
4015057 19 17560510802722366368
59755656 215 18411972560681016127
9709674 26 18054493970652934393
9981440 41 18335139761162378955

>  <PUBCHEM_SHAPE_MULTIPOLES>  (1) 
456.61
10.27
3.49
1.64
14.71
3.08
0.6
-5.09
3.2
-3.28
-0.99
0.63
0.11
1.57

>  <PUBCHEM_SHAPE_SELFOVERLAP>  (1) 
950.949

>  <PUBCHEM_SHAPE_VOLUME>  (1) 
260.6

>  <PUBCHEM_COORDINATE_TYPE>  (1) 
2
5
10

$$$$
