4631
     RDKit          3D

 19 19  0  0  1  0  0  0  0  0999 V2000
   -0.1533   -0.7351   -1.3375 O   0  0  0  0  0  0  0  0  0  0  0  0
   -2.0783    0.3011   -3.0557 O   0  0  0  0  0  0  0  0  0  0  0  0
    1.6580    0.8653    0.0354 O   0  0  0  0  0  0  0  0  0  0  0  0
   -3.0290    0.1149    0.5181 N   0  0  0  0  0  0  0  0  0  0  0  0
   -2.6648    0.7023   -0.7641 C   0  0  0  0  0  0  0  0  0  0  0  0
   -2.4692   -0.3597   -1.8487 C   0  0  0  0  0  0  0  0  0  0  0  0
   -3.1536    1.1410    1.5444 C   0  0  0  0  0  0  0  0  0  0  0  0
   -1.4050   -1.3962   -1.4953 C   0  0  0  0  0  0  0  0  0  0  0  0
   -1.8334    1.8889    1.7077 C   0  0  0  0  0  0  0  0  0  0  0  0
   -3.5840    0.4957    2.8579 C   0  0  0  0  0  0  0  0  0  0  0  0
    0.7258   -1.2871   -0.4447 C   0  0  0  0  0  0  0  0  0  0  0  0
    1.6309   -0.4812    0.2391 C   0  0  0  0  0  0  0  0  0  0  0  0
    0.7028   -2.6619   -0.2311 C   0  0  0  0  0  0  0  0  0  0  0  0
    2.5215   -1.0561    1.1458 C   0  0  0  0  0  0  0  0  0  0  0  0
    1.5934   -3.2365    0.6757 C   0  0  0  0  0  0  0  0  0  0  0  0
    2.5027   -2.4336    1.3640 C   0  0  0  0  0  0  0  0  0  0  0  0
    2.9140    1.5206    0.2003 C   0  0  0  0  0  0  0  0  0  0  0  0
    2.9819    2.6727   -0.7464 C   0  0  0  0  0  0  0  0  0  0  0  0
    3.1396    3.9449   -0.3649 C   0  0  0  0  0  0  0  0  0  0  0  0
  1  8  1  0
  1 11  1  0
  2  6  1  0
  3 12  1  0
  3 17  1  0
  4  5  1  0
  4  7  1  0
  5  6  1  0
  6  8  1  0
  7  9  1  0
  7 10  1  0
 11 12  2  0
 11 13  1  0
 12 14  1  0
 13 15  2  0
 14 16  2  0
 15 16  1  0
 17 18  1  0
 18 19  2  0
M  END
>  <PUBCHEM_COMPOUND_CID>  (1) 
4631

>  <PUBCHEM_CONFORMER_RMSD>  (1) 
0.8

>  <PUBCHEM_CONFORMER_DIVERSEORDER>  (1) 
5
40
125
23
65
34
109
183
264
241
211
165
89
42
291
20
289
294
286
280
16
274
273
261
147
299
156
275
50
272
301
193
149
195
231
12
284
198
232
145
133
99
79
26
161
265
31
128
167
252
152
236
97
41
262
116
234
150
201
256
53
196
74
110
281
244
177
98
77
191
199
240
119
59
249
101
188
253
114
285
47
237
277
246
129
103
82
80
45
213
258
126
180
200
48
73
76
144
174
64
62
17
226
91
38
197
194
222
61
220
63
162
212
217
186
51
176
297
66
83
43
270
85
263
151
52
57
239
166
68
120
269
112
71
155
138
189
248
192
141
171
6
32
72
95
81
136
96
118
187
2
170
21
139
250
243
58
214
255
247
107
181
84
70
11
28
233
3
283
78
206
22
268
54
75
216
100
111
279
225
102
9
235
203
25
69
205
164
210
172
132
271
168
55
123
267
300
115
202
282
207
92
39
154
90
251
276
127
10
173
238
88
278
298
27
160
49
122
44
227
124
159
29
7
14
146
108
293
106
60
19
292
158
184
37
135
178
117
215
229
157
130
219
242
163
148
8
182
56
179
93
134
15
1
218
4
259
254
113
18
288
257
290
175
224
46
296
105
36
230
260
266
13
104
221
137
33
131
245
142
121
208
223
287
190
209
153
67
295
204
143
24
185
35
94
228
87
169
86
30
140

>  <PUBCHEM_MMFF94_PARTIAL_CHARGES>  (1) 
26
1 -0.36
11 0.08
12 0.08
13 -0.15
14 -0.15
15 -0.15
16 -0.15
17 0.42
18 -0.29
19 -0.3
2 -0.68
24 0.36
3 -0.36
33 0.4
34 0.15
35 0.15
36 0.15
37 0.15
4 -0.9
40 0.15
41 0.15
42 0.15
5 0.27
6 0.28
7 0.27
8 0.28

>  <PUBCHEM_EFFECTIVE_ROTOR_COUNT>  (1) 
9

>  <PUBCHEM_PHARMACOPHORE_FEATURES>  (1) 
9
1 1 acceptor
1 19 hydrophobe
1 2 acceptor
1 2 donor
1 3 acceptor
1 4 cation
1 4 donor
3 7 9 10 hydrophobe
6 11 12 13 14 15 16 rings

>  <PUBCHEM_HEAVY_ATOM_COUNT>  (1) 
19

>  <PUBCHEM_ATOM_DEF_STEREO_COUNT>  (1) 
0

>  <PUBCHEM_ATOM_UDEF_STEREO_COUNT>  (1) 
1

>  <PUBCHEM_BOND_DEF_STEREO_COUNT>  (1) 
0

>  <PUBCHEM_BOND_UDEF_STEREO_COUNT>  (1) 
0

>  <PUBCHEM_ISOTOPIC_ATOM_COUNT>  (1) 
0

>  <PUBCHEM_COMPONENT_COUNT>  (1) 
1

>  <PUBCHEM_CACTVS_TAUTO_COUNT>  (1) 
1

>  <PUBCHEM_CONFORMER_ID>  (1) 
0000121700000005

>  <PUBCHEM_MMFF94_ENERGY>  (1) 
46.2179

>  <PUBCHEM_FEATURE_SELFOVERLAP>  (1) 
45.679

>  <PUBCHEM_SHAPE_FINGERPRINT>  (1) 
10291535 26 17408810264568551416
10366900 7 17386559142365644759
11640471 11 17917983945639672147
12156800 1 16319846255704869209
12403259 327 17610645028519038009
13009979 54 17915997128033984846
13965767 371 16837401303884161995
14123250 116 17911808173489565976
14468879 13 17460567399086189829
14713325 29 17342399684687495766
14787075 74 17837492221607786551
15534591 1 18057055819944912508
17357990 137 17988642943528105038
20510252 161 17398098839364442750
20739085 24 18267578001820007474
20905425 154 15979987095784841587
21756936 100 18055934318380415552
22182937 141 17689725576796198132
23419403 2 17530967938953757192
2803657 2 17916564501729523761
31174 14 18116449063049940073
3797600 57 17916045588524090827
394222 165 17536273202669122352
4175511 71 18051415067622926606
469060 322 16883285478709839713
539174 4 18411979152490821540
568465 68 17461160941817567907
6992083 37 17769072571747893751
8988823 20 18262536801404806665

>  <PUBCHEM_SHAPE_MULTIPOLES>  (1) 
368.42
6.15
3.96
2.41
2.18
1.24
0.3
3.98
-2.14
-5.6
-0.38
3.25
0.1
-2.25

>  <PUBCHEM_SHAPE_SELFOVERLAP>  (1) 
733.526

>  <PUBCHEM_SHAPE_VOLUME>  (1) 
219.4

>  <PUBCHEM_COORDINATE_TYPE>  (1) 
2
5
10

$$$$
