46324
     RDKit          3D

 16 16  0  0  0  0  0  0  0  0999 V2000
   -2.2611    2.3012   -0.1097 O   0  0  0  0  0  0  0  0  0  0  0  0
    2.9059   -0.1997   -0.1740 C   0  0  0  0  0  0  0  0  0  0  0  0
    1.7459    0.1058    0.7786 C   0  0  0  0  0  0  0  0  0  0  0  0
    4.2842    0.0281    0.4503 C   0  0  0  0  0  0  0  0  0  0  0  0
    0.3409   -0.0231    0.1823 C   0  0  0  0  0  0  0  0  0  0  0  0
    5.3999   -0.2050   -0.5708 C   0  0  0  0  0  0  0  0  0  0  0  0
   -0.7760    0.2383    1.1958 C   0  0  0  0  0  0  0  0  0  0  0  0
    6.7794   -0.0102    0.0583 C   0  0  0  0  0  0  0  0  0  0  0  0
   -2.1382    0.0117    0.5898 C   0  0  0  0  0  0  0  0  0  0  0  0
   -2.8088    1.0559   -0.0304 C   0  0  0  0  0  0  0  0  0  0  0  0
    7.8913   -0.2747   -0.9442 C   0  0  0  0  0  0  0  0  0  0  0  0
   -2.7004   -1.2548    0.6670 C   0  0  0  0  0  0  0  0  0  0  0  0
   -4.0682    0.8293   -0.5853 C   0  0  0  0  0  0  0  0  0  0  0  0
   -4.6439   -0.4393   -0.5140 C   0  0  0  0  0  0  0  0  0  0  0  0
   -3.9598   -1.4813    0.1123 C   0  0  0  0  0  0  0  0  0  0  0  0
   -5.9910   -0.6821   -1.1060 C   0  0  0  0  0  0  0  0  0  0  0  0
  1 10  1  0
  2  3  1  0
  2  4  1  0
  3  5  1  0
  4  6  1  0
  5  7  1  0
  6  8  1  0
  7  9  1  0
  8 11  1  0
  9 10  2  0
  9 12  1  0
 10 13  1  0
 12 15  2  0
 13 14  2  0
 14 15  1  0
 14 16  1  0
M  END
>  <PUBCHEM_COMPOUND_CID>  (1) 
46324

>  <PUBCHEM_CONFORMER_RMSD>  (1) 
0.8

>  <PUBCHEM_CONFORMER_DIVERSEORDER>  (1) 
1
121
26
118
8
77
42
30
124
31
53
114
40
98
110
23
106
101
68
95
105
108
15
61
116
87
120
56
122
59
10
79
63
119
2
117
91
4
66
28
112
81
123
27
48
32
76
14
45
19
24
107
72
41
113
33
89
93
92
96
25
73
83
11
55
104
78
35
44
85
13
60
12
75
125
22
90
21
20
67
57
64
109
7
54
70
5
51
111
17
9
18
52
29
97
99
6
58
3
49
80
86
34
46
82
94
88
103
84
36
50
37
43
39
74
16
115
100
69
38
47
62
71
102
65

>  <PUBCHEM_MMFF94_PARTIAL_CHARGES>  (1) 
13
1 -0.53
10 0.08
12 -0.15
13 -0.15
14 -0.14
15 -0.15
16 0.14
34 0.15
35 0.15
36 0.15
40 0.45
7 0.14
9 -0.14

>  <PUBCHEM_EFFECTIVE_ROTOR_COUNT>  (1) 
7

>  <PUBCHEM_PHARMACOPHORE_FEATURES>  (1) 
3
1 1 donor
1 11 hydrophobe
6 9 10 12 13 14 15 rings

>  <PUBCHEM_HEAVY_ATOM_COUNT>  (1) 
16

>  <PUBCHEM_ATOM_DEF_STEREO_COUNT>  (1) 
0

>  <PUBCHEM_ATOM_UDEF_STEREO_COUNT>  (1) 
0

>  <PUBCHEM_BOND_DEF_STEREO_COUNT>  (1) 
0

>  <PUBCHEM_BOND_UDEF_STEREO_COUNT>  (1) 
0

>  <PUBCHEM_ISOTOPIC_ATOM_COUNT>  (1) 
0

>  <PUBCHEM_COMPONENT_COUNT>  (1) 
1

>  <PUBCHEM_CACTVS_TAUTO_COUNT>  (1) 
9

>  <PUBCHEM_CONFORMER_ID>  (1) 
0000B4F400000001

>  <PUBCHEM_MMFF94_ENERGY>  (1) 
22.373

>  <PUBCHEM_FEATURE_SELFOVERLAP>  (1) 
15.223

>  <PUBCHEM_SHAPE_FINGERPRINT>  (1) 
10968037 39 18260828207062950095
11089746 13 16877944958314700236
11315181 36 17894635872116588636
12091667 2 18113344106991031386
13288520 33 18131631201542965205
13631057 29 15575289821085012507
13668630 136 17132117940173534094
14123256 10 18408040719336280662
1420 363 16630528440795552014
14251718 22 18343302565930819650
14251764 18 8574710195925291832
14350574 20 17418372510687904176
14729087 3 14201393893966106414
14849402 71 12103261847476953754
15048467 5 14706925146956357766
15183329 4 18040152890885168042
15348495 7 8141787371530211180
15716309 27 14261352453630746806
17834076 25 15719391741864555906
17844677 252 17060342929108598784
17870717 6 18412831282803129503
1813 80 15195017084267407528
18335252 98 16588030113201093627
19489759 90 18333733507396476264
200 152 17275101730330662627
20281389 69 12324236174976984806
20300324 65 18334575728829297185
21150785 3 18341895212727883356
21267235 1 18335985359140172227
2297311 6 18413951693752252521
23035841 295 15554447409722682990
23198884 109 17676487241774629554
23402539 116 18259701202906264380
23466295 7 17200777072456093351
23557571 272 18272091565138456105
23559900 14 18336259162503802968
300161 21 16370723743046361170
351380 3 14764347124621369222
7062679 117 18408605863928170034

>  <PUBCHEM_SHAPE_MULTIPOLES>  (1) 
323.4
18.49
1.26
1
33.68
0.38
0.01
-3.44
-7.26
-1.88
-0.02
-0.16
-0.07
0.23

>  <PUBCHEM_SHAPE_SELFOVERLAP>  (1) 
636.269

>  <PUBCHEM_SHAPE_VOLUME>  (1) 
195

>  <PUBCHEM_COORDINATE_TYPE>  (1) 
2
5
10

$$$$
