46323
     RDKit          3D

 17 17  0  0  0  0  0  0  0  0999 V2000
    2.7466   -2.2816    0.0230 O   0  0  0  0  0  0  0  0  0  0  0  0
   -2.3596    0.2190   -0.1229 C   0  0  0  0  0  0  0  0  0  0  0  0
   -3.7374    0.0088    0.5093 C   0  0  0  0  0  0  0  0  0  0  0  0
   -1.2020   -0.0102    0.8540 C   0  0  0  0  0  0  0  0  0  0  0  0
   -4.8558    0.2271   -0.5136 C   0  0  0  0  0  0  0  0  0  0  0  0
    0.1778    0.1277    0.2015 C   0  0  0  0  0  0  0  0  0  0  0  0
   -6.2316   -0.0210    0.1092 C   0  0  0  0  0  0  0  0  0  0  0  0
    1.3297   -0.0928    1.1896 C   0  0  0  0  0  0  0  0  0  0  0  0
   -7.3888    0.2135   -0.8640 C   0  0  0  0  0  0  0  0  0  0  0  0
    2.6976    0.0509    0.5709 C   0  0  0  0  0  0  0  0  0  0  0  0
   -8.7539   -0.1003   -0.2711 C   0  0  0  0  0  0  0  0  0  0  0  0
    3.3338   -1.0522    0.0206 C   0  0  0  0  0  0  0  0  0  0  0  0
    3.2992    1.3012    0.5659 C   0  0  0  0  0  0  0  0  0  0  0  0
    4.5989   -0.9020   -0.5471 C   0  0  0  0  0  0  0  0  0  0  0  0
    5.2142    0.3498   -0.5583 C   0  0  0  0  0  0  0  0  0  0  0  0
    4.5644    1.4514   -0.0017 C   0  0  0  0  0  0  0  0  0  0  0  0
    6.5668    0.5107   -1.1654 C   0  0  0  0  0  0  0  0  0  0  0  0
  1 12  1  0
  2  3  1  0
  2  4  1  0
  3  5  1  0
  4  6  1  0
  5  7  1  0
  6  8  1  0
  7  9  1  0
  8 10  1  0
  9 11  1  0
 10 12  2  0
 10 13  1  0
 12 14  1  0
 13 16  2  0
 14 15  2  0
 15 16  1  0
 15 17  1  0
M  END
>  <PUBCHEM_COMPOUND_CID>  (1) 
46323

>  <PUBCHEM_CONFORMER_RMSD>  (1) 
0.8

>  <PUBCHEM_CONFORMER_DIVERSEORDER>  (1) 
2
221
179
14
71
80
205
198
92
211
155
78
217
88
25
224
11
38
215
192
51
66
219
39
152
31
10
106
167
153
6
210
223
209
188
218
90
20
64
109
96
144
225
76
35
81
58
34
114
200
105
27
216
139
164
220
197
53
19
132
163
72
93
151
195
16
204
120
3
91
95
63
148
44
124
156
18
140
213
129
60
196
40
126
143
29
166
15
50
79
131
174
55
86
189
206
141
169
110
146
104
74
43
193
13
47
103
49
52
28
214
171
207
119
61
24
17
186
12
133
56
180
82
100
83
191
123
73
149
26
65
37
112
176
70
57
42
212
190
222
115
201
137
130
36
199
85
4
89
165
183
9
136
1
185
157
8
7
118
208
102
203
99
59
181
5
21
98
173
94
45
159
54
177
97
142
111
62
41
87
128
108
22
187
116
170
182
46
184
68
178
69
121
168
75
161
127
23
194
33
135
154
145
84
147
134
160
32
30
150
77
158
107
162
117
172
138
48
67
125
202
122
113
101
175

>  <PUBCHEM_MMFF94_PARTIAL_CHARGES>  (1) 
13
1 -0.53
10 -0.14
12 0.08
13 -0.15
14 -0.15
15 -0.14
16 -0.15
17 0.14
37 0.15
38 0.15
39 0.15
43 0.45
8 0.14

>  <PUBCHEM_EFFECTIVE_ROTOR_COUNT>  (1) 
8

>  <PUBCHEM_PHARMACOPHORE_FEATURES>  (1) 
3
1 1 donor
1 11 hydrophobe
6 10 12 13 14 15 16 rings

>  <PUBCHEM_HEAVY_ATOM_COUNT>  (1) 
17

>  <PUBCHEM_ATOM_DEF_STEREO_COUNT>  (1) 
0

>  <PUBCHEM_ATOM_UDEF_STEREO_COUNT>  (1) 
0

>  <PUBCHEM_BOND_DEF_STEREO_COUNT>  (1) 
0

>  <PUBCHEM_BOND_UDEF_STEREO_COUNT>  (1) 
0

>  <PUBCHEM_ISOTOPIC_ATOM_COUNT>  (1) 
0

>  <PUBCHEM_COMPONENT_COUNT>  (1) 
1

>  <PUBCHEM_CACTVS_TAUTO_COUNT>  (1) 
9

>  <PUBCHEM_CONFORMER_ID>  (1) 
0000B4F300000002

>  <PUBCHEM_MMFF94_ENERGY>  (1) 
21.9424

>  <PUBCHEM_FEATURE_SELFOVERLAP>  (1) 
15.223

>  <PUBCHEM_SHAPE_FINGERPRINT>  (1) 
10299344 5 17775287162672465223
10693767 8 17844539812491631838
11524674 6 14045737154452154541
11638347 137 10592045774144016397
11724838 91 12613040512982392201
125118 31 10737279122648674279
12714333 28 16805323297120099009
12730499 353 18260554419930260042
13533116 47 18201154360991604587
13668630 136 16845293847767320093
13685833 64 13614524056154832904
13836976 161 18202286909713231686
14123256 10 18413388739498517589
14251764 18 12612754618911633927
14251764 46 18410855468723390632
14729087 3 13767918015264711839
14933364 13 18409448077551752093
15048467 5 16081087086900819053
15183329 4 18201720635481341049
15348495 7 10807635823536891767
15475509 35 13757799140892401406
17834072 33 18343580746208684907
20281389 69 14418127409993535069
20645477 70 18341614759473815210
21130983 4 16081087082748387093
21150785 3 18334576850253247549
21267235 1 15123796179712092089
220451 1 18060414717053051119
221357 26 18412825776560506872
22224240 67 12829207789296554465
23035841 295 15697998548903117413
23402655 69 18412268328944793330
246663 6 15482676783792807453
28498 318 15410899540046335277
29717793 49 17203898461317928828
300161 21 15213018254572555465
3004659 81 17489867145913444321
3060560 45 18413112771387233822
33532 11 14764351518098880069
3472631 163 16443356407166569614
34797466 226 17748830709051973023
351380 3 16845570911754556085
3545911 37 18335140907796645201
4325135 7 17894912936077406197
4340502 62 8142087572090247721
465052 167 16056881359489441813
6025842 7 18408604726063153618
8209 1 18202282511576977949

>  <PUBCHEM_SHAPE_MULTIPOLES>  (1) 
343.98
22.35
1.21
0.98
43.07
0.36
0
-1.95
-7.92
-2.04
0.01
-0.38
-0.06
0.11

>  <PUBCHEM_SHAPE_SELFOVERLAP>  (1) 
673.622

>  <PUBCHEM_SHAPE_VOLUME>  (1) 
208.2

>  <PUBCHEM_COORDINATE_TYPE>  (1) 
2
5
10

$$$$
