46320
     RDKit          3D

 21 23  0  0  1  0  0  0  0  0999 V2000
    2.0269   -1.6790   -1.2285 O   0  0  0  0  0  0  0  0  0  0  0  0
    3.9713    0.2268   -0.2795 N   0  0  0  0  0  0  0  0  0  0  0  0
    4.4147   -0.4325    0.9568 C   0  0  0  0  0  0  0  0  0  0  0  0
    4.7074    1.4782   -0.5077 C   0  0  0  0  0  0  0  0  0  0  0  0
    5.9101   -0.7502    0.9071 C   0  0  0  0  0  0  0  0  0  0  0  0
    6.2122    1.2232   -0.6050 C   0  0  0  0  0  0  0  0  0  0  0  0
    6.7341    0.5027    0.6330 C   0  0  0  0  0  0  0  0  0  0  0  0
    2.5315    0.4810   -0.2359 C   0  0  0  0  0  0  0  0  0  0  0  0
    1.7493   -0.8324   -0.1138 C   0  0  0  0  0  0  0  0  0  0  0  0
    0.2572   -0.5863   -0.0672 C   0  0  0  0  0  0  0  0  0  0  0  0
   -0.4696   -1.0414    1.0195 C   0  0  0  0  0  0  0  0  0  0  0  0
   -0.3492    0.0885   -1.1127 C   0  0  0  0  0  0  0  0  0  0  0  0
   -2.4729   -0.1365    0.0172 C   0  0  0  0  0  0  0  0  0  0  0  0
   -1.8453   -0.8148    1.0620 C   0  0  0  0  0  0  0  0  0  0  0  0
   -1.7249    0.3151   -1.0701 C   0  0  0  0  0  0  0  0  0  0  0  0
   -3.8998    0.0993    0.0613 C   0  0  0  0  0  0  0  0  0  0  0  0
   -4.7785   -0.8370   -0.4837 C   0  0  0  0  0  0  0  0  0  0  0  0
   -4.3968    1.2627    0.6493 C   0  0  0  0  0  0  0  0  0  0  0  0
   -6.1541   -0.6099   -0.4410 C   0  0  0  0  0  0  0  0  0  0  0  0
   -5.7725    1.4895    0.6920 C   0  0  0  0  0  0  0  0  0  0  0  0
   -6.6511    0.5532    0.1468 C   0  0  0  0  0  0  0  0  0  0  0  0
  1  9  1  0
  2  3  1  0
  2  4  1  0
  2  8  1  0
  3  5  1  0
  4  6  1  0
  5  7  1  0
  6  7  1  0
  8  9  1  0
  9 10  1  0
 10 11  2  0
 10 12  1  0
 11 14  1  0
 12 15  2  0
 13 14  2  0
 13 15  1  0
 13 16  1  0
 16 17  2  0
 16 18  1  0
 17 19  1  0
 18 20  2  0
 19 21  2  0
 20 21  1  0
M  END
>  <PUBCHEM_COMPOUND_CID>  (1) 
46320

>  <PUBCHEM_CONFORMER_RMSD>  (1) 
0.8

>  <PUBCHEM_CONFORMER_DIVERSEORDER>  (1) 
1
2
6
4
8
3
7
9
5

>  <PUBCHEM_MMFF94_PARTIAL_CHARGES>  (1) 
26
1 -0.68
10 -0.14
11 -0.15
12 -0.15
14 -0.15
15 -0.15
17 -0.15
18 -0.15
19 -0.15
2 -0.81
20 -0.15
21 -0.15
3 0.27
35 0.15
36 0.15
37 0.4
38 0.15
39 0.15
4 0.27
40 0.15
41 0.15
42 0.15
43 0.15
44 0.15
8 0.27
9 0.42

>  <PUBCHEM_EFFECTIVE_ROTOR_COUNT>  (1) 
5.2

>  <PUBCHEM_PHARMACOPHORE_FEATURES>  (1) 
6
1 1 acceptor
1 1 donor
1 2 cation
6 10 11 12 13 14 15 rings
6 16 17 18 19 20 21 rings
6 2 3 4 5 6 7 rings

>  <PUBCHEM_HEAVY_ATOM_COUNT>  (1) 
21

>  <PUBCHEM_ATOM_DEF_STEREO_COUNT>  (1) 
0

>  <PUBCHEM_ATOM_UDEF_STEREO_COUNT>  (1) 
1

>  <PUBCHEM_BOND_DEF_STEREO_COUNT>  (1) 
0

>  <PUBCHEM_BOND_UDEF_STEREO_COUNT>  (1) 
0

>  <PUBCHEM_ISOTOPIC_ATOM_COUNT>  (1) 
0

>  <PUBCHEM_COMPONENT_COUNT>  (1) 
1

>  <PUBCHEM_CACTVS_TAUTO_COUNT>  (1) 
1

>  <PUBCHEM_CONFORMER_ID>  (1) 
0000B4F000000001

>  <PUBCHEM_MMFF94_ENERGY>  (1) 
50.9929

>  <PUBCHEM_FEATURE_SELFOVERLAP>  (1) 
30.446

>  <PUBCHEM_SHAPE_FINGERPRINT>  (1) 
10 15 15864069910338646348
10087517 78 18410293576007917381
10595046 47 18272370841671906599
106641 1 17385732426081461969
10670039 82 15913340056743847728
10688039 33 17385438804753103180
10906281 52 18189072978427242140
11315181 36 18334857247446341891
11719270 70 17703507710332258566
117890 112 18410294709430195688
12091667 2 18060418032524989519
12236239 1 17917991668128228118
12516196 113 10665227060085089646
12596602 18 17530689826673130865
12616971 3 14851614314087487883
12670543 26 13686304543335024937
13167372 99 18409449146397443056
13288520 33 8358255943704511257
13533116 47 17894625912599262626
13631057 29 18200026378548142247
13668630 136 10953734483434682368
13685833 64 7925909283426989300
14123256 10 12679461993558198352
1420 363 15430036547942613752
14251764 18 18260548943651505456
14341114 176 17312822676256587196
14849402 71 18263931097169652340
15048467 5 18202002114552656057
15183329 4 18343587343226146072
15348495 7 15864646070809824624
17980427 23 17750240359973236214
18222031 100 12468355726818585230
18335252 98 16988847206834320007
19489759 90 18202001032294633803
20281389 69 18186517709194102604
21130935 74 18333448733653449890
21150785 3 14476953489640227293
21236236 1 17895478145627334691
21267235 1 17531242817572812018
21637258 2 11242255194563515569
22224240 67 18113333128485189938
23035841 295 10015865379555879653
23402539 116 18408036334195757583
23536379 177 18272932704444642723
23559900 14 17822290253087088464
23622692 88 15213020461816837402
26918003 58 13551192190948443445
2838139 119 18343015593069591589
300161 21 18202281373505609735
3009799 131 15841832248363090992
34797466 226 17489597795893453325
3545911 37 16415480462828625198
397830 11 14997146811200887708
4073 2 18334300898135799874
4325135 7 18272368685634968223
4340502 62 17989488510914627103
445580 37 17703800205778091649
465052 167 11746940875898957528
5104073 3 17604430829332854064
542803 24 18411418414392374664
59755656 215 15913334580739815676
59755656 520 18260824925439436739

>  <PUBCHEM_SHAPE_MULTIPOLES>  (1) 
421.32
18.7
1.35
1.09
4.9
0.15
-0.04
5.28
2.74
0.33
0.04
0.05
-0.11
-1

>  <PUBCHEM_SHAPE_SELFOVERLAP>  (1) 
897.09

>  <PUBCHEM_SHAPE_VOLUME>  (1) 
235.6

>  <PUBCHEM_COORDINATE_TYPE>  (1) 
2
5
10

$$$$
