46338
     RDKit          3D

 42 47  0  0  0  0  0  0  0  0999 V2000
    4.4248    1.7246   -1.3845 N   0  0  0  0  0  0  0  0  0  0  0  0
   -2.0497    2.4577    1.8140 N   0  0  0  0  0  0  0  0  0  0  0  0
    3.8968    0.6100   -0.5618 C   0  0  0  0  0  0  0  0  0  0  0  0
   -2.6672    1.3718    0.9215 C   0  0  0  0  0  0  0  0  0  0  0  0
    3.2892    2.4373   -2.1330 C   0  0  0  0  0  0  0  0  0  0  0  0
   -1.5375    3.5842    0.9973 C   0  0  0  0  0  0  0  0  0  0  0  0
    5.0359   -0.3354   -0.2202 C   0  0  0  0  0  0  0  0  0  0  0  0
   -3.7704    1.9893    0.0770 C   0  0  0  0  0  0  0  0  0  0  0  0
    4.5362   -1.5265    0.5874 C   0  0  0  0  0  0  0  0  0  0  0  0
   -4.4470    0.9433   -0.7941 C   0  0  0  0  0  0  0  0  0  0  0  0
    2.2947    2.9882   -1.1220 C   0  0  0  0  0  0  0  0  0  0  0  0
   -0.4960    3.0585    0.0207 C   0  0  0  0  0  0  0  0  0  0  0  0
    1.1186    3.6689   -1.8237 C   0  0  0  0  0  0  0  0  0  0  0  0
    0.0964    4.1944   -0.8145 C   0  0  0  0  0  0  0  0  0  0  0  0
    5.4294    1.2079   -2.4244 C   0  0  0  0  0  0  0  0  0  0  0  0
    5.1396    2.7614   -0.5063 C   0  0  0  0  0  0  0  0  0  0  0  0
   -0.9186    1.8161    2.6306 C   0  0  0  0  0  0  0  0  0  0  0  0
   -3.1294    2.9398    2.7935 C   0  0  0  0  0  0  0  0  0  0  0  0
    3.5192   -2.3660   -0.1728 C   0  0  0  0  0  0  0  0  0  0  0  0
    3.7340   -1.1103    1.8121 C   0  0  0  0  0  0  0  0  0  0  0  0
   -3.4733    0.2378   -1.7273 C   0  0  0  0  0  0  0  0  0  0  0  0
   -4.9978   -0.2245    0.0118 C   0  0  0  0  0  0  0  0  0  0  0  0
    2.3011   -2.4298    0.5410 C   0  0  0  0  0  0  0  0  0  0  0  0
    2.4329   -1.6594    1.7587 C   0  0  0  0  0  0  0  0  0  0  0  0
   -3.4630   -1.1516   -1.4696 C   0  0  0  0  0  0  0  0  0  0  0  0
   -4.3984   -1.4354   -0.4026 C   0  0  0  0  0  0  0  0  0  0  0  0
    3.6798   -3.0244   -1.3811 C   0  0  0  0  0  0  0  0  0  0  0  0
    4.1410   -0.3284    2.8809 C   0  0  0  0  0  0  0  0  0  0  0  0
   -2.6610    0.7942   -2.7020 C   0  0  0  0  0  0  0  0  0  0  0  0
   -5.9343   -0.1985    1.0324 C   0  0  0  0  0  0  0  0  0  0  0  0
    1.2279   -3.1494    0.0412 C   0  0  0  0  0  0  0  0  0  0  0  0
    1.5240   -1.4195    2.7765 C   0  0  0  0  0  0  0  0  0  0  0  0
   -2.6416   -1.9977   -2.1971 C   0  0  0  0  0  0  0  0  0  0  0  0
   -4.7420   -2.6347    0.1997 C   0  0  0  0  0  0  0  0  0  0  0  0
    2.5981   -3.7494   -1.8842 C   0  0  0  0  0  0  0  0  0  0  0  0
    3.2247   -0.0867    3.9061 C   0  0  0  0  0  0  0  0  0  0  0  0
   -1.8336   -0.0587   -3.4347 C   0  0  0  0  0  0  0  0  0  0  0  0
   -6.2806   -1.4073    1.6388 C   0  0  0  0  0  0  0  0  0  0  0  0
    1.3838   -3.8107   -1.1805 C   0  0  0  0  0  0  0  0  0  0  0  0
    1.9288   -0.6263    3.8541 C   0  0  0  0  0  0  0  0  0  0  0  0
   -1.8245   -1.4411   -3.1853 C   0  0  0  0  0  0  0  0  0  0  0  0
   -5.6909   -2.6137    1.2262 C   0  0  0  0  0  0  0  0  0  0  0  0
  1  3  1  0
  1  5  1  0
  1 15  1  0
  1 16  1  0
  2  4  1  0
  2  6  1  0
  2 17  1  0
  2 18  1  0
  3  7  1  0
  4  8  1  0
  5 11  1  0
  6 12  1  0
  7  9  1  0
  8 10  1  0
  9 19  1  0
  9 20  1  0
 10 21  1  0
 10 22  1  0
 11 13  1  0
 12 14  1  0
 13 14  1  0
 19 23  1  0
 19 27  2  0
 20 24  2  0
 20 28  1  0
 21 25  1  0
 21 29  2  0
 22 26  2  0
 22 30  1  0
 23 24  1  0
 23 31  2  0
 24 32  1  0
 25 26  1  0
 25 33  2  0
 26 34  1  0
 27 35  1  0
 28 36  2  0
 29 37  1  0
 30 38  2  0
 31 39  1  0
 32 40  2  0
 33 41  1  0
 34 42  2  0
 35 39  2  0
 36 40  1  0
 37 41  2  0
 38 42  1  0
M  CHG  2   1   1   2   1
M  END
>  <PUBCHEM_COMPOUND_CID>  (1) 
46338

>  <PUBCHEM_CONFORMER_RMSD>  (1) 
1.8

>  <PUBCHEM_CONFORMER_DIVERSEORDER>  (1) 
1
41
10
11
36
21
26
54
20
13
49
27
38
25
33
55
29
37
34
15
18
52
35
43
45
24
19
48
7
23
28
40
2
14
30
4
31
17
12
16
50
3
39
47
8
51
42
5
53
56
9
6
22
44
46
32

>  <PUBCHEM_MMFF94_PARTIAL_CHARGES>  (1) 
48
1 -1.01
10 0.29
15 0.5
16 0.5
17 0.5
18 0.5
19 -0.14
2 -1.01
20 -0.14
21 -0.14
22 -0.14
27 -0.15
28 -0.15
29 -0.15
3 0.5
30 -0.15
31 -0.15
32 -0.15
33 -0.15
34 -0.15
35 -0.15
36 -0.15
37 -0.15
38 -0.15
39 -0.15
4 0.5
40 -0.15
41 -0.15
42 -0.15
5 0.5
6 0.5
77 0.15
78 0.15
79 0.15
80 0.15
81 0.15
82 0.15
83 0.15
84 0.15
85 0.15
86 0.15
87 0.15
88 0.15
89 0.15
9 0.29
90 0.15
91 0.15
92 0.15

>  <PUBCHEM_EFFECTIVE_ROTOR_COUNT>  (1) 
13.4

>  <PUBCHEM_PHARMACOPHORE_FEATURES>  (1) 
9
1 1 cation
1 2 cation
4 11 12 13 14 hydrophobe
5 10 21 22 25 26 rings
5 9 19 20 23 24 rings
6 19 23 27 31 35 39 rings
6 20 24 28 32 36 40 rings
6 21 25 29 33 37 41 rings
6 22 26 30 34 38 42 rings

>  <PUBCHEM_HEAVY_ATOM_COUNT>  (1) 
42

>  <PUBCHEM_ATOM_DEF_STEREO_COUNT>  (1) 
0

>  <PUBCHEM_ATOM_UDEF_STEREO_COUNT>  (1) 
0

>  <PUBCHEM_BOND_DEF_STEREO_COUNT>  (1) 
0

>  <PUBCHEM_BOND_UDEF_STEREO_COUNT>  (1) 
0

>  <PUBCHEM_ISOTOPIC_ATOM_COUNT>  (1) 
0

>  <PUBCHEM_COMPONENT_COUNT>  (1) 
1

>  <PUBCHEM_CACTVS_TAUTO_COUNT>  (1) 
1

>  <PUBCHEM_CONFORMER_ID>  (1) 
0000B50200000001

>  <PUBCHEM_MMFF94_ENERGY>  (1) 
159.0809

>  <PUBCHEM_FEATURE_SELFOVERLAP>  (1) 
45.998

>  <PUBCHEM_SHAPE_FINGERPRINT>  (1) 
10928967 22 17203321195927273643
13165054 342 17704351082804972536
15001296 14 18408889507726631156
150020 26 17342378480112689094
15264996 19 17326077520340787871
15297060 5 18059576957622037978
15721738 202 18335709368330543291
16993438 75 16391279443235037524
19315092 285 17023449894137424674
20764821 26 18056459875852451611
208703 8 18408606929159232844
21792965 11 17386301994009820115
25223398 141 18058442119703545890
42626532 9 17903093143601397127
86090 222 17024036045578129265

>  <PUBCHEM_SHAPE_MULTIPOLES>  (1) 
854.38
13.14
5.36
4.04
6.5
1.79
-1.69
-3.8
-1.2
-1.89
1.48
-1.49
0.05
-2.11

>  <PUBCHEM_SHAPE_SELFOVERLAP>  (1) 
1846.195

>  <PUBCHEM_SHAPE_VOLUME>  (1) 
473.8

>  <PUBCHEM_COORDINATE_TYPE>  (1) 
2
5
10

$$$$
