46332
     RDKit          3D

  7  6  0  0  0  0  0  0  0  0999 V2000
   -2.6577   -0.8070   -0.0008 F   0  0  0  0  0  0  0  0  0  0  0  0
    2.1916   -1.1785    0.0006 O   0  0  0  0  0  0  0  0  0  0  0  0
    2.0206    1.0966   -0.0005 O   0  0  0  0  0  0  0  0  0  0  0  0
   -0.8224    0.6980    0.0002 C   0  0  0  0  0  0  0  0  0  0  0  0
   -2.3044    0.5073    0.0009 C   0  0  0  0  0  0  0  0  0  0  0  0
    0.0636   -0.3064   -0.0002 C   0  0  0  0  0  0  0  0  0  0  0  0
    1.5088   -0.0101   -0.0001 C   0  0  0  0  0  0  0  0  0  0  0  0
  1  5  1  0
  2  7  1  0
  3  7  2  0
  4  5  1  0
  4  6  2  0
  6  7  1  0
M  END
>  <PUBCHEM_COMPOUND_CID>  (1) 
46332

>  <PUBCHEM_CONFORMER_RMSD>  (1) 
0.4

>  <PUBCHEM_CONFORMER_DIVERSEORDER>  (1) 
1
3
2

>  <PUBCHEM_MMFF94_PARTIAL_CHARGES>  (1) 
10
1 -0.34
11 0.15
12 0.5
2 -0.65
3 -0.57
4 -0.29
5 0.48
6 -0.14
7 0.71
8 0.15

>  <PUBCHEM_EFFECTIVE_ROTOR_COUNT>  (1) 
2

>  <PUBCHEM_PHARMACOPHORE_FEATURES>  (1) 
3
1 2 acceptor
1 3 acceptor
3 2 3 7 anion

>  <PUBCHEM_HEAVY_ATOM_COUNT>  (1) 
7

>  <PUBCHEM_ATOM_DEF_STEREO_COUNT>  (1) 
0

>  <PUBCHEM_ATOM_UDEF_STEREO_COUNT>  (1) 
0

>  <PUBCHEM_BOND_DEF_STEREO_COUNT>  (1) 
0

>  <PUBCHEM_BOND_UDEF_STEREO_COUNT>  (1) 
1

>  <PUBCHEM_ISOTOPIC_ATOM_COUNT>  (1) 
0

>  <PUBCHEM_COMPONENT_COUNT>  (1) 
1

>  <PUBCHEM_CACTVS_TAUTO_COUNT>  (1) 
1

>  <PUBCHEM_CONFORMER_ID>  (1) 
0000B4FC00000001

>  <PUBCHEM_MMFF94_ENERGY>  (1) 
5.0646

>  <PUBCHEM_FEATURE_SELFOVERLAP>  (1) 
15.278

>  <PUBCHEM_SHAPE_FINGERPRINT>  (1) 
14390081 3 18342455975709864865
20096714 4 18412263947698596448
21040471 1 18338517555345098496
23552423 10 18260832570380457655
29004967 10 18411982472458011961
5460574 1 9223234043898105825

>  <PUBCHEM_SHAPE_MULTIPOLES>  (1) 
125.04
3.73
1.08
0.57
0.93
0.01
0
0.44
0
-0.28
0
0.02
-0.02
0

>  <PUBCHEM_SHAPE_SELFOVERLAP>  (1) 
233.154

>  <PUBCHEM_SHAPE_VOLUME>  (1) 
77.8

>  <PUBCHEM_COORDINATE_TYPE>  (1) 
2
5
10

$$$$
