46349
     RDKit          3D

 23 22  0  0  0  0  0  0  0  0999 V2000
   -5.4638    1.3224   -0.1271 P   0  0  0  0  0  0  0  0  0  0  0  0
   -0.9448   -0.7207    0.2233 O   0  0  0  0  0  0  0  0  0  0  0  0
   -2.0036   -2.7702    0.1322 O   0  0  0  0  0  0  0  0  0  0  0  0
   -5.5404   -0.2781   -0.2167 O   0  0  0  0  0  0  0  0  0  0  0  0
   -5.3231    1.6080    1.4616 O   0  0  0  0  0  0  0  0  0  0  0  0
   -6.9893    1.7633   -0.4485 O   0  0  0  0  0  0  0  0  0  0  0  0
   -4.4177    1.9700   -0.9889 O   0  0  0  0  0  0  0  0  0  0  0  0
    5.3127   -0.4959    0.0887 C   0  0  0  0  0  0  0  0  0  0  0  0
    6.4480    0.5312    0.1190 C   0  0  0  0  0  0  0  0  0  0  0  0
    3.9199    0.1342    0.1604 C   0  0  0  0  0  0  0  0  0  0  0  0
    7.8375   -0.0932   -0.0273 C   0  0  0  0  0  0  0  0  0  0  0  0
    2.8265   -0.9373    0.1575 C   0  0  0  0  0  0  0  0  0  0  0  0
    8.9263    0.9819   -0.0638 C   0  0  0  0  0  0  0  0  0  0  0  0
    1.4312   -0.3073    0.1990 C   0  0  0  0  0  0  0  0  0  0  0  0
   10.3121    0.3640   -0.2482 C   0  0  0  0  0  0  0  0  0  0  0  0
    0.3248   -1.3546    0.1637 C   0  0  0  0  0  0  0  0  0  0  0  0
   11.3927    1.4311   -0.3187 C   0  0  0  0  0  0  0  0  0  0  0  0
   -2.0285   -1.5520    0.1993 C   0  0  0  0  0  0  0  0  0  0  0  0
   -3.2475   -0.7116    0.2702 C   0  0  0  0  0  0  0  0  0  0  0  0
   -4.4128   -1.0710   -0.2900 C   0  0  0  0  0  0  0  0  0  0  0  0
   -4.5804   -2.3581   -1.0381 C   0  0  0  0  0  0  0  0  0  0  0  0
   -6.2750    1.0292    2.3374 C   0  0  0  0  0  0  0  0  0  0  0  0
   -7.5046    1.5147   -1.7448 C   0  0  0  0  0  0  0  0  0  0  0  0
  1  4  1  0
  1  5  1  0
  1  6  1  0
  1  7  2  0
  2 16  1  0
  2 18  1  0
  3 18  2  0
  4 20  1  0
  5 22  1  0
  6 23  1  0
  8  9  1  0
  8 10  1  0
  9 11  1  0
 10 12  1  0
 11 13  1  0
 12 14  1  0
 13 15  1  0
 14 16  1  0
 15 17  1  0
 18 19  1  0
 19 20  2  0
 20 21  1  0
M  END
>  <PUBCHEM_COMPOUND_CID>  (1) 
46349

>  <PUBCHEM_CONFORMER_RMSD>  (1) 
1.2

>  <PUBCHEM_CONFORMER_DIVERSEORDER>  (1) 
1
172
115
84
144
119
16
187
38
148
107
75
94
99
88
105
6
46
40
117
5
124
67
50
135
121
116
175
27
62
43
19
70
102
48
189
79
73
150
41
25
138
11
33
167
69
47
31
149
134
185
145
57
51
18
155
58
80
181
93
10
141
160
120
97
151
100
59
186
9
178
71
7
152
13
118
129
15
63
68
66
103
136
42
56
32
131
162
164
173
83
127
157
176
179
85
130
174
8
177
161
126
90
143
111
29
35
169
109
132
137
154
95
188
28
86
23
78
55
44
37
139
96
110
98
113
168
34
133
64
52
147
159
182
146
61
142
140
89
114
166
65
125
3
92
82
122
77
156
26
123
163
12
74
49
30
183
180
108
20
101
158
170
128
91
106
87
39
24
54
165
153
45
2
112
76
60
53
184
22
21
17
104
171
72
4
14
81
36

>  <PUBCHEM_MMFF94_PARTIAL_CHARGES>  (1) 
15
1 1.51
16 0.28
18 0.71
19 -0.14
2 -0.43
20 -0.06
21 0.14
22 0.28
23 0.28
3 -0.57
4 -0.35
45 0.15
5 -0.55
6 -0.55
7 -0.7

>  <PUBCHEM_EFFECTIVE_ROTOR_COUNT>  (1) 
15

>  <PUBCHEM_PHARMACOPHORE_FEATURES>  (1) 
3
1 17 hydrophobe
1 3 acceptor
1 7 acceptor

>  <PUBCHEM_HEAVY_ATOM_COUNT>  (1) 
23

>  <PUBCHEM_ATOM_DEF_STEREO_COUNT>  (1) 
0

>  <PUBCHEM_ATOM_UDEF_STEREO_COUNT>  (1) 
0

>  <PUBCHEM_BOND_DEF_STEREO_COUNT>  (1) 
0

>  <PUBCHEM_BOND_UDEF_STEREO_COUNT>  (1) 
1

>  <PUBCHEM_ISOTOPIC_ATOM_COUNT>  (1) 
0

>  <PUBCHEM_COMPONENT_COUNT>  (1) 
1

>  <PUBCHEM_CACTVS_TAUTO_COUNT>  (1) 
1

>  <PUBCHEM_CONFORMER_ID>  (1) 
0000B50D00000001

>  <PUBCHEM_MMFF94_ENERGY>  (1) 
24.1352

>  <PUBCHEM_FEATURE_SELFOVERLAP>  (1) 
15.223

>  <PUBCHEM_SHAPE_FINGERPRINT>  (1) 
10 15 17822291258140960945
10835480 77 18272371958305634878
11315181 36 18131354124032783635
12089408 11 18261108604904982042
12091667 2 18411138073292941667
13530399 1 17676494991030419044
14428016 248 17386011698335932060
14729087 3 18411980265356446738
15183329 4 18272929392977352610
15510794 2 12324229560890509266
155225 1 18333729100354277573
15690457 1 11743843561082701476
1577012 14 18261385646784730322
1754908 1 13334735765517013668
1818759 1 9655578526690954040
195137 175 18411421718039870544
21057603 69 14836408039776734587
21095123 145 12829211079568401402
21360443 89 17531819081851570635
21756936 100 17748827415171000059
3711267 37 18187656799552517412
54039377 194 11887661906261730901
59521270 166 11959742542909783611
59521506 201 15433381125925513533
59567204 34 18409446977301899444
5969126 39 14476967765895456754
636775 8 12967121740218268653
9953998 17 14129062508811464305
9980921 7 17895185585893499221

>  <PUBCHEM_SHAPE_MULTIPOLES>  (1) 
441.96
35.59
2.19
1.18
93.58
0.51
-0.35
-22.47
4.84
-4.5
0.33
-3.47
-0.58
-0.47

>  <PUBCHEM_SHAPE_SELFOVERLAP>  (1) 
816.854

>  <PUBCHEM_SHAPE_VOLUME>  (1) 
278.5

>  <PUBCHEM_COORDINATE_TYPE>  (1) 
2
5
10

$$$$
