46346
     RDKit          3D

 20 20  0  0  0  0  0  0  0  0999 V2000
    7.0201   -0.0181    0.0579 Cl  0  0  0  0  0  0  0  0  0  0  0  0
   -3.7722   -0.4285   -0.5614 P   0  0  0  0  0  0  0  0  0  0  0  0
   -3.1820    0.8257    0.2754 O   0  0  0  0  0  0  0  0  0  0  0  0
   -3.4932   -1.6903    0.4157 O   0  0  0  0  0  0  0  0  0  0  0  0
   -5.3762   -0.2257   -0.4550 O   0  0  0  0  0  0  0  0  0  0  0  0
    1.1946   -0.3457   -0.5987 O   0  0  0  0  0  0  0  0  0  0  0  0
   -3.2365   -0.5724   -1.9575 O   0  0  0  0  0  0  0  0  0  0  0  0
    0.9771    0.8052    1.4253 O   0  0  0  0  0  0  0  0  0  0  0  0
   -1.8655    0.9799    0.5521 C   0  0  0  0  0  0  0  0  0  0  0  0
   -0.9409    0.0950    0.1490 C   0  0  0  0  0  0  0  0  0  0  0  0
    2.5812   -0.2687   -0.4437 C   0  0  0  0  0  0  0  0  0  0  0  0
   -1.5142    2.2057    1.3386 C   0  0  0  0  0  0  0  0  0  0  0  0
    3.2292   -1.2828    0.2254 C   0  0  0  0  0  0  0  0  0  0  0  0
    3.2449    0.8197   -0.9645 C   0  0  0  0  0  0  0  0  0  0  0  0
    0.5043    0.2517    0.4452 C   0  0  0  0  0  0  0  0  0  0  0  0
    4.6130   -1.2046    0.3819 C   0  0  0  0  0  0  0  0  0  0  0  0
    4.6288    0.8978   -0.8083 C   0  0  0  0  0  0  0  0  0  0  0  0
    5.3129   -0.1143   -0.1350 C   0  0  0  0  0  0  0  0  0  0  0  0
   -3.9683   -1.6290    1.7492 C   0  0  0  0  0  0  0  0  0  0  0  0
   -5.9571    0.8992   -1.0916 C   0  0  0  0  0  0  0  0  0  0  0  0
  1 18  1  0
  2  3  1  0
  2  4  1  0
  2  5  1  0
  2  7  2  0
  3  9  1  0
  4 19  1  0
  5 20  1  0
  6 11  1  0
  6 15  1  0
  8 15  2  0
  9 10  2  0
  9 12  1  0
 10 15  1  0
 11 13  2  0
 11 14  1  0
 13 16  1  0
 14 17  2  0
 16 18  2  0
 17 18  1  0
M  END
>  <PUBCHEM_COMPOUND_CID>  (1) 
46346

>  <PUBCHEM_CONFORMER_RMSD>  (1) 
0.8

>  <PUBCHEM_CONFORMER_DIVERSEORDER>  (1) 
4
188
256
271
217
194
202
61
372
39
219
195
26
348
57
350
362
96
347
404
130
86
397
259
163
369
71
358
324
326
340
190
148
299
85
23
199
89
424
43
161
224
192
320
21
393
341
7
415
225
282
50
240
293
95
364
93
300
356
68
94
109
295
253
218
400
160
154
265
186
427
128
19
243
46
276
10
124
386
216
35
106
38
247
6
244
131
187
222
228
116
311
29
301
206
321
235
305
27
220
413
208
25
387
421
239
5
396
34
142
180
183
414
207
417
81
155
317
388
126
118
345
31
197
268
164
90
13
291
173
198
127
9
410
310
92
201
33
422
78
88
36
103
62
47
264
8
181
191
425
378
408
416
308
274
238
272
41
309
145
307
297
104
212
234
44
172
179
210
423
17
318
384
52
214
366
314
140
403
74
196
45
82
283
315
294
236
83
165
58
171
28
125
250
254
229
226
327
303
2
203
334
232
323
287
402
382
151
221
16
147
18
102
3
136
233
242
405
342
59
304
98
178
153
363
200
162
149
24
129
37
79
377
113
361
290
336
355
20
395
65
261
313
144
330
375
246
159
176
278
1
175
322
245
286
346
332
111
380
407
32
133
398
22
279
107
170
110
138
54
298
205
411
87
215
284
339
100
120
258
269
316
252
64
351
319
385
91
42
406
12
302
134
370
230
60
135
15
49
337
357
412
333
249
56
255
368
365
275
119
289
374
296
328
306
189
231
266
77
379
14
84
117
166
53
169
137
257
331
168
353
399
158
392
343
335
270
132
338
390
381
139
55
184
371
51
121
419
263
66
72
63
157
273
262
376
329
70
114
367
30
73
373
241
152
101
105
409
156
80
267
11
292
394
40
76
354
418
288
97
182
67
112
280
185
223
349
213
383
99
123
115
281
277
237
312
325
193
150
391
48
167
143
260
420
69
177
174
344
108
251
209
146
360
227
401
248
285
75
359
426
204
122
352
389
211
141

>  <PUBCHEM_MMFF94_PARTIAL_CHARGES>  (1) 
25
1 -0.18
10 -0.14
11 0.08
12 0.14
13 -0.15
14 -0.15
15 0.71
16 -0.15
17 -0.15
18 0.18
19 0.28
2 1.51
20 0.28
21 0.15
25 0.15
26 0.15
27 0.15
28 0.15
3 -0.35
4 -0.55
5 -0.55
6 -0.23
7 -0.7
8 -0.57
9 -0.06

>  <PUBCHEM_EFFECTIVE_ROTOR_COUNT>  (1) 
7

>  <PUBCHEM_PHARMACOPHORE_FEATURES>  (1) 
3
1 7 acceptor
1 8 acceptor
6 11 13 14 16 17 18 rings

>  <PUBCHEM_HEAVY_ATOM_COUNT>  (1) 
20

>  <PUBCHEM_ATOM_DEF_STEREO_COUNT>  (1) 
0

>  <PUBCHEM_ATOM_UDEF_STEREO_COUNT>  (1) 
0

>  <PUBCHEM_BOND_DEF_STEREO_COUNT>  (1) 
0

>  <PUBCHEM_BOND_UDEF_STEREO_COUNT>  (1) 
1

>  <PUBCHEM_ISOTOPIC_ATOM_COUNT>  (1) 
0

>  <PUBCHEM_COMPONENT_COUNT>  (1) 
1

>  <PUBCHEM_CACTVS_TAUTO_COUNT>  (1) 
1

>  <PUBCHEM_CONFORMER_ID>  (1) 
0000B50A00000004

>  <PUBCHEM_MMFF94_ENERGY>  (1) 
51.0899

>  <PUBCHEM_FEATURE_SELFOVERLAP>  (1) 
15.223

>  <PUBCHEM_SHAPE_FINGERPRINT>  (1) 
10366900 7 17632577145270825259
10638233 991 13398620697988653978
10968037 39 18273493472997607533
11045515 52 17894914044316800885
11089746 13 14923943488066766660
11315181 36 18413392046338537945
11796584 16 18260266347773214218
12236239 1 18341895161087951438
12788726 201 18200589177797302905
12916748 109 13334735695847613767
13167823 11 18333735706435848466
13288520 33 16988841683521960669
13533116 47 18340762638088980506
14251752 14 18336256843812176789
14251764 18 18059860554713266377
15788980 27 18343021094832435974
18222031 100 16845570924270374840
18927931 339 18272099296047602822
200 152 18410573980861765100
20281389 69 9223226343649816494
20374829 77 17846490448759845901
20645477 56 11386369248804863585
20645477 70 17313380068512057522
20681677 155 17458341936322686323
20871999 31 18341045225657425425
21065198 48 18341051796962065674
23198884 109 17821725014696612517
23402539 116 18335140877890324532
23536379 177 17749387053060771599
23557571 272 18131072580553257024
23559900 14 18336260232003342208
26918003 58 18335140899101260943
29717793 49 18341335513869500606
300161 21 18259981565555069002
314173 85 17203335515453616809
4073 2 17023191560724242218
4325135 7 17489584580706396660
4921388 177 17167868599437232827
5104073 3 18129105529045449490
5283173 99 18187358797187970269
5385378 56 13262948555995936105
542803 24 13767927922751898086
59755656 520 13551191091331607049
633830 44 14996291339551112086
67856867 119 18262240031728190780
7495541 125 18272652385362832616

>  <PUBCHEM_SHAPE_MULTIPOLES>  (1) 
382.09
15.27
1.55
1.33
6.35
0.17
-0.09
1.13
3.14
-1.04
-0.57
-1.44
-0.18
0.1

>  <PUBCHEM_SHAPE_SELFOVERLAP>  (1) 
757.82

>  <PUBCHEM_SHAPE_VOLUME>  (1) 
228.4

>  <PUBCHEM_COORDINATE_TYPE>  (1) 
2
5
10

$$$$
