46342
     RDKit          3D

 13 13  0  0  0  0  0  0  0  0999 V2000
   -2.2995   -0.6838   -1.0178 S   0  0  0  0  0  0  0  0  0  0  0  0
   -0.0022   -0.7712   -0.2677 N   0  0  0  0  0  0  0  0  0  0  0  0
   -1.1544   -0.8374    0.1928 N   0  0  0  0  0  0  0  0  0  0  0  0
   -5.7047    1.0195    0.3702 N   0  0  0  0  0  0  0  0  0  0  0  0
    3.4128    0.6419   -0.0299 C   0  0  0  0  0  0  0  0  0  0  0  0
    3.0712   -0.6988   -0.6914 C   0  0  0  0  0  0  0  0  0  0  0  0
    2.1428    1.3521    0.4541 C   0  0  0  0  0  0  0  0  0  0  0  0
    1.0068   -0.9066    0.7925 C   0  0  0  0  0  0  0  0  0  0  0  0
    2.2519   -1.5969    0.2358 C   0  0  0  0  0  0  0  0  0  0  0  0
    1.3180    0.4662    1.3883 C   0  0  0  0  0  0  0  0  0  0  0  0
    4.1947    1.5337   -0.9928 C   0  0  0  0  0  0  0  0  0  0  0  0
   -3.4669    0.0699    0.1384 C   0  0  0  0  0  0  0  0  0  0  0  0
   -4.7705    0.4115   -0.5725 C   0  0  0  0  0  0  0  0  0  0  0  0
  1  3  1  0
  1 12  1  0
  2  3  2  0
  2  8  1  0
  4 13  1  0
  5  6  1  0
  5  7  1  0
  5 11  1  0
  6  9  1  0
  7 10  1  0
  8  9  1  0
  8 10  1  0
 12 13  1  0
M  END
>  <PUBCHEM_COMPOUND_CID>  (1) 
46342

>  <PUBCHEM_CONFORMER_RMSD>  (1) 
0.6

>  <PUBCHEM_CONFORMER_DIVERSEORDER>  (1) 
3
110
46
169
8
149
101
27
167
102
197
143
43
12
118
89
73
31
128
152
1
189
10
32
48
114
41
198
166
159
4
124
2
136
109
53
57
76
42
175
142
205
33
183
196
28
147
54
206
37
200
64
193
202
188
38
55
84
22
144
39
103
50
156
70
173
108
119
16
162
138
5
164
72
176
13
61
47
148
140
192
131
6
120
63
36
129
45
184
115
26
60
59
35
204
17
145
106
51
153
107
203
69
141
56
52
9
94
29
125
62
77
78
95
58
201
126
191
130
207
194
67
99
190
7
86
18
177
24
87
82
25
112
83
174
117
80
161
178
116
92
123
105
195
146
139
44
85
98
179
65
133
135
111
104
30
208
165
150
199
19
171
158
137
81
71
21
187
134
97
20
75
66
34
93
11
127
88
163
151
23
121
40
181
154
14
96
172
74
132
168
185
15
186
68
113
91
100
155
79
49
182
122
160
180
90
170
157

>  <PUBCHEM_MMFF94_PARTIAL_CHARGES>  (1) 
9
1 -0.16
12 0.23
13 0.27
2 -0.25
3 -0.07
31 0.36
32 0.36
4 -0.99
8 0.25

>  <PUBCHEM_EFFECTIVE_ROTOR_COUNT>  (1) 
5.2

>  <PUBCHEM_PHARMACOPHORE_FEATURES>  (1) 
3
1 4 cation
1 4 donor
6 5 6 7 8 9 10 rings

>  <PUBCHEM_HEAVY_ATOM_COUNT>  (1) 
13

>  <PUBCHEM_ATOM_DEF_STEREO_COUNT>  (1) 
0

>  <PUBCHEM_ATOM_UDEF_STEREO_COUNT>  (1) 
0

>  <PUBCHEM_BOND_DEF_STEREO_COUNT>  (1) 
0

>  <PUBCHEM_BOND_UDEF_STEREO_COUNT>  (1) 
0

>  <PUBCHEM_ISOTOPIC_ATOM_COUNT>  (1) 
0

>  <PUBCHEM_COMPONENT_COUNT>  (1) 
1

>  <PUBCHEM_CACTVS_TAUTO_COUNT>  (1) 
1

>  <PUBCHEM_CONFORMER_ID>  (1) 
0000B50600000003

>  <PUBCHEM_MMFF94_ENERGY>  (1) 
5.053

>  <PUBCHEM_FEATURE_SELFOVERLAP>  (1) 
15.223

>  <PUBCHEM_SHAPE_FINGERPRINT>  (1) 
100836 57 18333454269665405101
10447042 23 8142079828390254929
13955234 65 17822287925183413154
14251717 144 9367347045983463597
14252887 29 14562528432079223819
17041 50 16845289483706078881
177051 138 8935005883949525391
17834072 33 18341608252898763143
17834072 8 16056882425115974445
18186145 218 18338786858537720127
20645477 70 18272935985731559622
20820808 20 18335702775845666914
21119208 17 17132115757865845717
212847 35 18271803489155279081
21501925 9 8214148464372453519
21637258 2 13613977569539408796
21652331 79 18334574621060206757
22485316 2 8070022273244389651
23402655 69 18273495688715467941
23590187 302 17989487428793318928
25 1 18336263539549951578
251288 83 11241967070840202552
26918003 58 10665224861182899895
3060560 45 17203890777600032524
4047638 21 17967252005456015222
449060 50 17894631457196105047
449060 62 18407476665275389133
4990 188 17346599698740929407
522135 26 18271522018262688367
5374978 207 12757151260278400239
76465 3 11383568758355651092
93112 12 17274817012643171791
9882013 296 15213017142107421197

>  <PUBCHEM_SHAPE_MULTIPOLES>  (1) 
256.44
10.05
1.5
1.09
13.77
0.02
-0.04
4.67
1.83
-1.12
0.04
-0.37
0.09
-0.55

>  <PUBCHEM_SHAPE_SELFOVERLAP>  (1) 
478.135

>  <PUBCHEM_SHAPE_VOLUME>  (1) 
162

>  <PUBCHEM_COORDINATE_TYPE>  (1) 
2
5
10

$$$$
