46344
     RDKit          3D

 16 16  0  0  1  0  0  0  0  0999 V2000
    1.5760    0.4068   -0.0684 O   0  0  0  0  0  0  0  0  0  0  0  0
   -1.6498    0.8672   -0.7270 O   0  0  0  0  0  0  0  0  0  0  0  0
    2.0368   -1.5598   -1.1896 O   0  0  0  0  0  0  0  0  0  0  0  0
   -3.2532   -0.3766    0.3771 O   0  0  0  0  0  0  0  0  0  0  0  0
    0.1210   -1.4376    0.3491 C   0  0  0  0  0  0  0  0  0  0  0  0
   -1.2064   -1.4645   -0.4371 C   0  0  0  0  0  0  0  0  0  0  0  0
   -0.0076   -2.9707    0.4682 C   0  0  0  0  0  0  0  0  0  0  0  0
   -1.5296   -2.7790    0.3032 C   0  0  0  0  0  0  0  0  0  0  0  0
    1.3676   -0.8970   -0.4085 C   0  0  0  0  0  0  0  0  0  0  0  0
   -2.1798   -0.2737   -0.2011 C   0  0  0  0  0  0  0  0  0  0  0  0
    2.9384    0.8430   -0.1105 C   0  0  0  0  0  0  0  0  0  0  0  0
   -2.0183    2.0797   -0.0620 C   0  0  0  0  0  0  0  0  0  0  0  0
    3.7683   -0.0157    0.8316 C   0  0  0  0  0  0  0  0  0  0  0  0
    3.0041    2.3168    0.2599 C   0  0  0  0  0  0  0  0  0  0  0  0
   -1.5881    2.0023    1.3949 C   0  0  0  0  0  0  0  0  0  0  0  0
   -1.3795    3.2587   -0.7799 C   0  0  0  0  0  0  0  0  0  0  0  0
  1  9  1  0
  1 11  1  0
  2 10  1  0
  2 12  1  0
  3  9  2  0
  4 10  2  0
  5  6  1  0
  5  7  1  0
  5  9  1  0
  6  8  1  0
  6 10  1  0
  7  8  1  0
 11 13  1  0
 11 14  1  0
 12 15  1  0
 12 16  1  0
M  END
>  <PUBCHEM_COMPOUND_CID>  (1) 
46344

>  <PUBCHEM_CONFORMER_RMSD>  (1) 
0.8

>  <PUBCHEM_CONFORMER_DIVERSEORDER>  (1) 
1
4
89
6
116
150
93
59
41
5
28
9
132
21
109
151
123
61
68
62
157
14
117
73
65
125
81
69
83
20
60
144
126
71
149
146
64
121
98
24
94
55
114
36
131
111
31
13
92
45
47
139
38
101
145
108
77
84
97
136
19
67
112
70
16
104
127
35
15
51
25
33
128
29
86
54
22
105
91
3
82
49
85
58
26
107
138
140
66
103
141
110
72
43
17
18
11
75
90
119
142
30
143
10
34
37
79
76
118
2
148
155
88
44
153
158
106
42
129
102
52
120
152
100
7
134
40
147
23
57
130
99
80
115
96
113
32
124
8
27
48
135
56
122
50
137
87
154
74
78
156
95
133
63
159
53
39
12
46

>  <PUBCHEM_MMFF94_PARTIAL_CHARGES>  (1) 
10
1 -0.43
10 0.67
11 0.28
12 0.28
2 -0.43
3 -0.57
4 -0.57
5 0.05
6 0.05
9 0.67

>  <PUBCHEM_EFFECTIVE_ROTOR_COUNT>  (1) 
6.8

>  <PUBCHEM_PHARMACOPHORE_FEATURES>  (1) 
5
1 3 acceptor
1 4 acceptor
3 11 13 14 hydrophobe
3 12 15 16 hydrophobe
4 5 6 7 8 rings

>  <PUBCHEM_HEAVY_ATOM_COUNT>  (1) 
16

>  <PUBCHEM_ATOM_DEF_STEREO_COUNT>  (1) 
2

>  <PUBCHEM_ATOM_UDEF_STEREO_COUNT>  (1) 
0

>  <PUBCHEM_BOND_DEF_STEREO_COUNT>  (1) 
0

>  <PUBCHEM_BOND_UDEF_STEREO_COUNT>  (1) 
0

>  <PUBCHEM_ISOTOPIC_ATOM_COUNT>  (1) 
0

>  <PUBCHEM_COMPONENT_COUNT>  (1) 
1

>  <PUBCHEM_CACTVS_TAUTO_COUNT>  (1) 
1

>  <PUBCHEM_CONFORMER_ID>  (1) 
0000B50800000001

>  <PUBCHEM_MMFF94_ENERGY>  (1) 
29.2787

>  <PUBCHEM_FEATURE_SELFOVERLAP>  (1) 
25.372

>  <PUBCHEM_SHAPE_FINGERPRINT>  (1) 
12382932 28 18266746972333338459
13140716 1 18123751112901155960
13544592 271 18052532467699728679
14386348 128 18050870834936540772
15442244 35 18335973212940978242
15490181 7 18265900155249133287
16945 1 18410294709298645238
18219364 16 18049167665666114737
19868273 325 17978510063541650742
20510252 161 18266458896097486538
21041028 32 16249424163796385209
21524375 3 18341609265793594023
21639500 275 17398938385206841981
22802520 49 18199772347720940958
2334 1 17763743595428046356
23402539 116 18269259317737831031
23419403 2 16964607605184794623
23557571 272 17981059818543385900
23598294 1 18118401989017103386
2748010 2 18266466394930770893
305870 269 18119241766671067586
31174 14 17400949409291018001
353137 74 18411975845566008849
44154327 71 18191313873192726045
5939293 188 17042881292330890197
7364860 26 17834670500723513055
81228 2 18266194987394669579

>  <PUBCHEM_SHAPE_MULTIPOLES>  (1) 
305.8
4.97
3.9
0.97
3.97
0.66
0.1
1.69
0.62
-1.74
0.02
-0.02
0.21
0.3

>  <PUBCHEM_SHAPE_SELFOVERLAP>  (1) 
599.859

>  <PUBCHEM_SHAPE_VOLUME>  (1) 
186.5

>  <PUBCHEM_COORDINATE_TYPE>  (1) 
2
5
10

$$$$
