4634
     RDKit          3D

 26 27  0  0  1  0  0  0  0  0999 V2000
   -3.5726   -0.3106    1.1643 O   0  0  0  0  0  0  0  0  0  0  0  0
   -0.1076    0.6048    1.3569 O   0  0  0  0  0  0  0  0  0  0  0  0
   -1.6706    0.1163    2.9786 O   0  0  0  0  0  0  0  0  0  0  0  0
    4.7279    0.1795   -0.4583 N   0  0  0  0  0  0  0  0  0  0  0  0
   -1.8230   -1.2976   -0.1049 C   0  0  0  0  0  0  0  0  0  0  0  0
   -2.7980   -1.6560   -1.2344 C   0  0  0  0  0  0  0  0  0  0  0  0
   -1.6784   -2.4634    0.8826 C   0  0  0  0  0  0  0  0  0  0  0  0
   -2.2773   -0.0312    0.6184 C   0  0  0  0  0  0  0  0  0  0  0  0
   -2.3941   -2.9492   -1.9387 C   0  0  0  0  0  0  0  0  0  0  0  0
   -1.2761   -3.7552    0.1747 C   0  0  0  0  0  0  0  0  0  0  0  0
   -2.2428   -4.1035   -0.9529 C   0  0  0  0  0  0  0  0  0  0  0  0
   -2.4263    1.2244   -0.2360 C   0  0  0  0  0  0  0  0  0  0  0  0
   -1.3432    0.2276    1.8032 C   0  0  0  0  0  0  0  0  0  0  0  0
   -3.4361    2.1134    0.0623 C   0  0  0  0  0  0  0  0  0  0  0  0
   -1.5463    1.4263   -1.2769 C   0  0  0  0  0  0  0  0  0  0  0  0
   -3.5724    3.2609   -0.7190 C   0  0  0  0  0  0  0  0  0  0  0  0
   -1.6824    2.5738   -2.0580 C   0  0  0  0  0  0  0  0  0  0  0  0
   -2.6954    3.4910   -1.7792 C   0  0  0  0  0  0  0  0  0  0  0  0
    0.8580    0.8850    2.3751 C   0  0  0  0  0  0  0  0  0  0  0  0
    2.1991    0.5755    1.8811 C   0  0  0  0  0  0  0  0  0  0  0  0
    4.6484    0.0135    0.9874 C   0  0  0  0  0  0  0  0  0  0  0  0
    3.7824   -0.7120   -1.1330 C   0  0  0  0  0  0  0  0  0  0  0  0
    6.0900   -0.0733   -0.9327 C   0  0  0  0  0  0  0  0  0  0  0  0
    3.3014    0.3228    1.4763 C   0  0  0  0  0  0  0  0  0  0  0  0
    3.8552   -0.5490   -2.6418 C   0  0  0  0  0  0  0  0  0  0  0  0
    7.0803    0.8863   -0.2950 C   0  0  0  0  0  0  0  0  0  0  0  0
  1  8  1  0
  2 13  1  0
  2 19  1  0
  3 13  2  0
  4 21  1  0
  4 22  1  0
  4 23  1  0
  5  6  1  0
  5  7  1  0
  5  8  1  0
  6  9  1  0
  7 10  1  0
  8 12  1  0
  8 13  1  0
  9 11  1  0
 10 11  1  0
 12 14  2  0
 12 15  1  0
 14 16  1  0
 15 17  2  0
 16 18  2  0
 17 18  1  0
 19 20  1  0
 20 24  3  0
 21 24  1  0
 22 25  1  0
 23 26  1  0
M  END
>  <PUBCHEM_COMPOUND_CID>  (1) 
4634

>  <PUBCHEM_CONFORMER_RMSD>  (1) 
1.2

>  <PUBCHEM_CONFORMER_DIVERSEORDER>  (1) 
3
82
77
93
63
105
96
80
33
27
72
59
43
99
103
70
109
75
124
86
1
110
51
113
83
69
111
100
76
119
47
88
108
5
30
61
62
94
41
64
32
68
89
127
46
34
42
39
21
84
90
28
92
57
14
126
36
121
58
53
22
107
115
125
114
9
54
74
13
122
56
40
35
23
12
25
67
116
117
26
71
49
79
129
95
112
73
85
101
98
55
91
52
2
106
10
102
24
17
15
50
87
7
128
66
81
38
120
19
123
6
118
29
60
31
20
45
11
104
37
78
8
4
44
18
48
16
65
97

>  <PUBCHEM_MMFF94_PARTIAL_CHARGES>  (1) 
24
1 -0.68
12 -0.14
13 0.66
14 -0.15
15 -0.15
16 -0.15
17 -0.15
18 -0.15
19 0.48
2 -0.43
20 -0.2
21 0.47
22 0.27
23 0.27
24 -0.2
3 -0.57
38 0.4
39 0.15
4 -0.81
40 0.15
41 0.15
42 0.15
43 0.15
8 0.48

>  <PUBCHEM_EFFECTIVE_ROTOR_COUNT>  (1) 
9.2

>  <PUBCHEM_PHARMACOPHORE_FEATURES>  (1) 
6
1 1 acceptor
1 1 donor
1 3 acceptor
1 4 cation
6 12 14 15 16 17 18 rings
6 5 6 7 9 10 11 rings

>  <PUBCHEM_HEAVY_ATOM_COUNT>  (1) 
26

>  <PUBCHEM_ATOM_DEF_STEREO_COUNT>  (1) 
0

>  <PUBCHEM_ATOM_UDEF_STEREO_COUNT>  (1) 
1

>  <PUBCHEM_BOND_DEF_STEREO_COUNT>  (1) 
0

>  <PUBCHEM_BOND_UDEF_STEREO_COUNT>  (1) 
0

>  <PUBCHEM_ISOTOPIC_ATOM_COUNT>  (1) 
0

>  <PUBCHEM_COMPONENT_COUNT>  (1) 
1

>  <PUBCHEM_CACTVS_TAUTO_COUNT>  (1) 
1

>  <PUBCHEM_CONFORMER_ID>  (1) 
0000121A00000003

>  <PUBCHEM_MMFF94_ENERGY>  (1) 
54.5134

>  <PUBCHEM_FEATURE_SELFOVERLAP>  (1) 
30.454

>  <PUBCHEM_SHAPE_FINGERPRINT>  (1) 
10165383 225 18270686368420422929
105312 117 18339919312364157380
10764073 3 17059791026153752195
107951 10 18200869574473302581
10803635 8 18411699851405502570
11578080 2 17763488131623100713
12539773 59 17023192659761382631
12895836 83 18335136445331458080
12895837 130 18041292032134499748
13257819 37 18336813205396321597
13761468 95 17607801700113890740
14468879 13 17970362415981023427
14910302 57 18200019776444274048
14955137 171 18046054120368758091
15163728 17 17975697195155349377
15463212 79 18187075140235543386
15475509 8 18123726902994143087
15664445 248 17471852983870159437
1813 80 17977098291028753155
20600515 1 17469280045146416687
20693207 138 17987224698472553680
21285901 2 17625224853150669559
21756936 100 17313386691045737792
22907989 373 17896575372184120671
23559900 14 17346592015466567296
312425 83 18334021566995810964
3729539 64 17840871776205638135
4394409 98 17908138772981994350
469060 322 18046089269316076730
484985 159 17203612609416297846
508706 21 18343297089547253310
531348 171 18260545577172755274
58260988 587 17836369242643059425
58260988 647 16413484944357201135

>  <PUBCHEM_SHAPE_MULTIPOLES>  (1) 
512.48
11
4.25
2.63
26.72
2.35
-0.5
-3.17
3.66
-7.77
2.62
0.37
-0.42
0.95

>  <PUBCHEM_SHAPE_SELFOVERLAP>  (1) 
1049.083

>  <PUBCHEM_SHAPE_VOLUME>  (1) 
292

>  <PUBCHEM_COORDINATE_TYPE>  (1) 
2
5
10

$$$$
