46353
     RDKit          3D

 24 24  0  0  1  0  0  0  0  0999 V2000
   -4.3241    1.0299   -0.2967 P   0  0  0  0  0  0  0  0  0  0  0  0
    0.2985   -0.6921    0.2737 O   0  0  0  0  0  0  0  0  0  0  0  0
   -4.2760   -0.5699   -0.4132 O   0  0  0  0  0  0  0  0  0  0  0  0
   -4.1616    1.3005    1.2924 O   0  0  0  0  0  0  0  0  0  0  0  0
   -5.8882    1.3529   -0.5691 O   0  0  0  0  0  0  0  0  0  0  0  0
   -0.7264   -2.6276    1.0038 O   0  0  0  0  0  0  0  0  0  0  0  0
    6.8073    1.4092    0.5772 O   0  0  0  0  0  0  0  0  0  0  0  0
    6.0504   -0.2820    1.7545 O   0  0  0  0  0  0  0  0  0  0  0  0
   -3.3574    1.7727   -1.1746 O   0  0  0  0  0  0  0  0  0  0  0  0
    5.9183    0.5619    0.8352 N   0  0  0  0  0  0  0  0  0  0  0  0
    1.4840   -1.3776   -0.1437 C   0  0  0  0  0  0  0  0  0  0  0  0
    2.5680   -0.3664   -0.4316 C   0  0  0  0  0  0  0  0  0  0  0  0
    1.1717   -2.2433   -1.3592 C   0  0  0  0  0  0  0  0  0  0  0  0
    3.7248   -0.3748    0.3312 C   0  0  0  0  0  0  0  0  0  0  0  0
    2.3860    0.5503   -1.4546 C   0  0  0  0  0  0  0  0  0  0  0  0
    4.7263    0.5584    0.0639 C   0  0  0  0  0  0  0  0  0  0  0  0
    3.3876    1.4836   -1.7218 C   0  0  0  0  0  0  0  0  0  0  0  0
    4.5577    1.4877   -0.9626 C   0  0  0  0  0  0  0  0  0  0  0  0
   -0.7655   -1.4886    0.5675 C   0  0  0  0  0  0  0  0  0  0  0  0
   -1.9944   -0.7184    0.2614 C   0  0  0  0  0  0  0  0  0  0  0  0
   -3.1387   -1.2996   -0.1307 C   0  0  0  0  0  0  0  0  0  0  0  0
   -3.2710   -2.7831   -0.2926 C   0  0  0  0  0  0  0  0  0  0  0  0
   -4.3164    2.6258    1.7698 C   0  0  0  0  0  0  0  0  0  0  0  0
   -6.8611    0.6905    0.2199 C   0  0  0  0  0  0  0  0  0  0  0  0
  1  3  1  0
  1  4  1  0
  1  5  1  0
  1  9  2  0
  2 11  1  0
  2 19  1  0
  3 21  1  0
  4 23  1  0
  5 24  1  0
  6 19  2  0
  7 10  1  0
  8 10  2  0
 10 16  1  0
 11 12  1  0
 11 13  1  0
 12 14  2  0
 12 15  1  0
 14 16  1  0
 15 17  2  0
 16 18  2  0
 17 18  1  0
 19 20  1  0
 20 21  2  0
 21 22  1  0
M  CHG  2   7  -1  10   1
M  END
>  <PUBCHEM_COMPOUND_CID>  (1) 
46353

>  <PUBCHEM_CONFORMER_RMSD>  (1) 
1.2

>  <PUBCHEM_CONFORMER_DIVERSEORDER>  (1) 
6
97
163
30
74
46
110
122
123
141
35
142
27
162
84
18
101
86
93
40
139
70
58
16
78
151
66
113
3
53
37
48
153
105
23
15
36
51
126
4
138
89
147
114
129
65
87
118
120
109
77
137
63
9
24
62
136
131
73
157
160
90
124
67
107
75
161
156
144
88
20
68
135
52
134
69
94
5
14
79
111
95
17
57
82
99
71
117
76
72
106
158
103
50
10
85
80
8
140
121
108
83
39
145
159
128
54
127
102
42
98
21
146
22
154
19
41
13
164
60
7
55
28
116
34
38
49
155
11
125
59
132
33
44
91
96
25
1
92
26
112
152
149
148
47
61
130
143
32
12
100
64
56
43
2
29
133
115
150
81
45
104
31
119

>  <PUBCHEM_MMFF94_PARTIAL_CHARGES>  (1) 
28
1 1.51
10 0.91
11 0.42
12 -0.14
14 -0.15
15 -0.15
16 0.13
17 -0.15
18 -0.15
19 0.71
2 -0.43
20 -0.14
21 -0.06
22 0.14
23 0.28
24 0.28
29 0.15
3 -0.35
30 0.15
31 0.15
32 0.15
33 0.15
4 -0.55
5 -0.55
6 -0.57
7 -0.52
8 -0.52
9 -0.7

>  <PUBCHEM_EFFECTIVE_ROTOR_COUNT>  (1) 
9

>  <PUBCHEM_PHARMACOPHORE_FEATURES>  (1) 
6
1 6 acceptor
1 7 acceptor
1 7 anion
1 8 acceptor
1 9 acceptor
6 12 14 15 16 17 18 rings

>  <PUBCHEM_HEAVY_ATOM_COUNT>  (1) 
24

>  <PUBCHEM_ATOM_DEF_STEREO_COUNT>  (1) 
0

>  <PUBCHEM_ATOM_UDEF_STEREO_COUNT>  (1) 
0

>  <PUBCHEM_BOND_DEF_STEREO_COUNT>  (1) 
0

>  <PUBCHEM_BOND_UDEF_STEREO_COUNT>  (1) 
1

>  <PUBCHEM_ISOTOPIC_ATOM_COUNT>  (1) 
0

>  <PUBCHEM_COMPONENT_COUNT>  (1) 
1

>  <PUBCHEM_CACTVS_TAUTO_COUNT>  (1) 
1

>  <PUBCHEM_CONFORMER_ID>  (1) 
0000B51100000006

>  <PUBCHEM_MMFF94_ENERGY>  (1) 
64.0106

>  <PUBCHEM_FEATURE_SELFOVERLAP>  (1) 
30.53

>  <PUBCHEM_SHAPE_FINGERPRINT>  (1) 
10 15 17895198817754041073
12107183 9 18040987415820893370
12403260 363 18117556447126358110
12596602 18 15864359081126806257
12633257 1 17967253121957550164
13103583 49 12540693678714524391
14251764 18 17894630396207242782
14251764 38 18129381660513677024
14251764 75 17483694303733284777
14466204 15 18409163325156298424
14576447 43 11671788165487832382
14951699 99 18193831773029285688
15238133 3 18187931724692850516
15348495 7 15502384460136964565
15880784 105 12324539644143543269
17980427 23 18261109729136517854
21033648 29 18129928105466124080
21315763 76 18335135380517055653
21774942 28 17274546412861505728
22950370 63 9871479720225525262
23016692 55 9511461134457793635
23198884 109 17632298947955171165
23402539 116 18262510498197170334
235170 7 15697725813399351125
23559900 14 18270412590014927518
2838139 119 18409719677881665565
4098825 35 15841004256199470093
441001 317 18202002131347332195
46194498 28 15482373318836898609
465052 167 8574708013833881833
474 4 18260838072571303875
5104073 3 17531810293831075896
543368 44 18131633357885982657
6299153 45 18188201014409680970
6328613 192 17969230096163983092
8863177 126 11602827916911101932
9981440 41 18335424598998463619

>  <PUBCHEM_SHAPE_MULTIPOLES>  (1) 
445.82
16.37
2.66
1.42
2
0.74
-0.04
-10.47
-3.25
-2.62
-0.17
0.86
-0.51
-0.97

>  <PUBCHEM_SHAPE_SELFOVERLAP>  (1) 
898.053

>  <PUBCHEM_SHAPE_VOLUME>  (1) 
262.7

>  <PUBCHEM_COORDINATE_TYPE>  (1) 
2
5
10

$$$$
