46363
     RDKit          3D

 18 18  0  0  1  0  0  0  0  0999 V2000
    2.4797   -1.3721   -0.9238 O   0  0  0  0  0  0  0  0  0  0  0  0
   -2.9749   -1.2448    0.4256 O   0  0  0  0  0  0  0  0  0  0  0  0
    1.7501    0.3208    0.4930 N   0  0  0  0  0  0  0  0  0  0  0  0
   -1.6014    0.4845   -0.3110 N   0  0  0  0  0  0  0  0  0  0  0  0
    0.5278   -1.7659    0.4620 C   0  0  0  0  0  0  0  0  0  0  0  0
   -0.7453   -1.8055   -0.4088 C   0  0  0  0  0  0  0  0  0  0  0  0
    0.6135   -3.2946    0.2707 C   0  0  0  0  0  0  0  0  0  0  0  0
   -0.9113   -3.2735    0.0358 C   0  0  0  0  0  0  0  0  0  0  0  0
    1.7106   -0.9280   -0.0754 C   0  0  0  0  0  0  0  0  0  0  0  0
   -1.9125   -0.8362   -0.0359 C   0  0  0  0  0  0  0  0  0  0  0  0
    2.7656    1.3162    0.1341 C   0  0  0  0  0  0  0  0  0  0  0  0
   -2.5188    1.5771   -0.0810 C   0  0  0  0  0  0  0  0  0  0  0  0
    2.5147    2.5870    0.9527 C   0  0  0  0  0  0  0  0  0  0  0  0
    2.6420    1.6217   -1.3625 C   0  0  0  0  0  0  0  0  0  0  0  0
    4.1588    0.7562    0.4442 C   0  0  0  0  0  0  0  0  0  0  0  0
   -1.8365    2.8840   -0.4991 C   0  0  0  0  0  0  0  0  0  0  0  0
   -3.7751    1.3458   -0.9271 C   0  0  0  0  0  0  0  0  0  0  0  0
   -2.8871    1.6276    1.4065 C   0  0  0  0  0  0  0  0  0  0  0  0
  1  9  2  0
  2 10  2  0
  3  9  1  0
  3 11  1  0
  4 10  1  0
  4 12  1  0
  5  6  1  0
  5  7  1  0
  5  9  1  0
  6  8  1  0
  6 10  1  0
  7  8  1  0
 11 13  1  0
 11 14  1  0
 11 15  1  0
 12 16  1  0
 12 17  1  0
 12 18  1  0
M  END
>  <PUBCHEM_COMPOUND_CID>  (1) 
46363

>  <PUBCHEM_CONFORMER_RMSD>  (1) 
0.8

>  <PUBCHEM_CONFORMER_DIVERSEORDER>  (1) 
1
131
106
15
113
28
117
97
142
83
42
120
32
92
138
16
119
111
25
90
124
76
2
81
121
122
63
72
14
77
135
3
93
134
17
20
52
85
22
129
125
61
4
105
67
73
48
82
130
127
50
118
75
62
33
23
144
80
64
54
88
101
123
112
79
136
139
145
47
140
147
49
103
146
100
24
56
51
107
87
149
126
148
13
84
150
109
143
27
21
133
99
102
18
151
137
58
19
36
26
128
110
43
55
89
141
39
132
98
41
38
71
95
74
65
30
35
60
104
53
78
44
29
96
94
66
59
45
108
91
10
114
69
40
37
70
7
46
31
68
5
57
116
9
34
86
8
12
115
11
6

>  <PUBCHEM_MMFF94_PARTIAL_CHARGES>  (1) 
12
1 -0.57
10 0.58
11 0.3
12 0.3
2 -0.57
25 0.37
26 0.37
3 -0.73
4 -0.73
5 0.05
6 0.05
9 0.58

>  <PUBCHEM_EFFECTIVE_ROTOR_COUNT>  (1) 
6.8

>  <PUBCHEM_PHARMACOPHORE_FEATURES>  (1) 
7
1 1 acceptor
1 2 acceptor
1 3 donor
1 4 donor
4 11 13 14 15 hydrophobe
4 12 16 17 18 hydrophobe
4 5 6 7 8 rings

>  <PUBCHEM_HEAVY_ATOM_COUNT>  (1) 
18

>  <PUBCHEM_ATOM_DEF_STEREO_COUNT>  (1) 
0

>  <PUBCHEM_ATOM_UDEF_STEREO_COUNT>  (1) 
2

>  <PUBCHEM_BOND_DEF_STEREO_COUNT>  (1) 
0

>  <PUBCHEM_BOND_UDEF_STEREO_COUNT>  (1) 
0

>  <PUBCHEM_ISOTOPIC_ATOM_COUNT>  (1) 
0

>  <PUBCHEM_COMPONENT_COUNT>  (1) 
1

>  <PUBCHEM_CACTVS_TAUTO_COUNT>  (1) 
3

>  <PUBCHEM_CONFORMER_ID>  (1) 
0000B51B00000001

>  <PUBCHEM_MMFF94_ENERGY>  (1) 
37.4475

>  <PUBCHEM_FEATURE_SELFOVERLAP>  (1) 
35.521

>  <PUBCHEM_SHAPE_FINGERPRINT>  (1) 
10498660 4 18335420166712935509
11370993 70 18338503188416256036
11725454 13 16879607312363596437
12403259 327 15719396105393625261
128993 33 18339657662771979017
13140716 1 18338520742020928459
13618510 140 18410853235345963844
14250199 8 17979347569780395077
14386348 128 18339378399687640529
14648413 74 18120374250879014499
18186145 218 18270974440039281078
18219364 16 18263930947082511193
20510252 161 18124031488245029891
20621476 13 17471557846360192573
20671657 1 18123750855229842519
21041028 32 16970564213801709579
21524375 3 18412543206213804086
21639500 275 18048863114299017229
21731228 192 18409450280067927058
22094290 62 18338515218893770354
22182937 141 18271251615558511081
2334 1 18410014368235069885
23402539 116 18125711537749355614
23557571 272 17621046786390433452
23558518 356 18335139816743771703
238 59 17758363333009830669
2748010 2 18408613560446332487
305870 269 18335414639079495346
31174 14 17832448409752307801
350125 39 18410020926545045123
3524813 1 16907779346935118760
44154327 71 18046636873445469493
474 4 18195802973532458801
5262128 65 17487908808319695684
526903 126 18341321292911257005
5939293 188 17546156407484739255
7364860 26 18122902036389787671
7832392 63 17332799449286366717
81228 2 17977955905254467714

>  <PUBCHEM_SHAPE_MULTIPOLES>  (1) 
348.73
6.15
4.08
1.04
0.93
1.95
0
-4.55
0
-0.54
-0.18
0
-0.51
0.3

>  <PUBCHEM_SHAPE_SELFOVERLAP>  (1) 
688.658

>  <PUBCHEM_SHAPE_VOLUME>  (1) 
211.8

>  <PUBCHEM_COORDINATE_TYPE>  (1) 
2
5
10

$$$$
