46366
     RDKit          3D

 28 30  0  0  1  0  0  0  0  0999 V2000
    0.9691    1.8276   -0.4301 Cl  0  0  0  0  0  0  0  0  0  0  0  0
   -1.7449    0.4645    2.3624 Cl  0  0  0  0  0  0  0  0  0  0  0  0
    6.9525    0.3242    0.5261 Cl  0  0  0  0  0  0  0  0  0  0  0  0
   -5.9551    1.5257   -2.1236 Cl  0  0  0  0  0  0  0  0  0  0  0  0
    6.1466    3.1545   -0.8221 Cl  0  0  0  0  0  0  0  0  0  0  0  0
   -6.2940    2.8381    0.8159 Cl  0  0  0  0  0  0  0  0  0  0  0  0
    2.0181   -0.7098    0.7941 O   0  0  0  0  0  0  0  0  0  0  0  0
   -1.6982   -0.6080   -0.4456 O   0  0  0  0  0  0  0  0  0  0  0  0
    2.1411   -1.6700   -1.3373 O   0  0  0  0  0  0  0  0  0  0  0  0
   -2.9700   -2.4390    0.2712 O   0  0  0  0  0  0  0  0  0  0  0  0
    0.5892   -2.5996    0.3158 C   0  0  0  0  0  0  0  0  0  0  0  0
   -0.6694   -2.7753   -0.5592 C   0  0  0  0  0  0  0  0  0  0  0  0
    0.8489   -4.1066    0.1098 C   0  0  0  0  0  0  0  0  0  0  0  0
   -0.6678   -4.2570   -0.1295 C   0  0  0  0  0  0  0  0  0  0  0  0
    1.6689   -1.6276   -0.2091 C   0  0  0  0  0  0  0  0  0  0  0  0
   -1.9435   -1.9511   -0.1829 C   0  0  0  0  0  0  0  0  0  0  0  0
    2.9695    0.1904    0.4163 C   0  0  0  0  0  0  0  0  0  0  0  0
   -2.7873    0.2108   -0.1384 C   0  0  0  0  0  0  0  0  0  0  0  0
    2.6218    1.4099   -0.1648 C   0  0  0  0  0  0  0  0  0  0  0  0
   -2.9070    0.7563    1.1211 C   0  0  0  0  0  0  0  0  0  0  0  0
    4.3121   -0.1268    0.6215 C   0  0  0  0  0  0  0  0  0  0  0  0
   -3.7129    0.4404   -1.1345 C   0  0  0  0  0  0  0  0  0  0  0  0
    5.3073    0.7755    0.2456 C   0  0  0  0  0  0  0  0  0  0  0  0
   -4.8104    1.2550   -0.8563 C   0  0  0  0  0  0  0  0  0  0  0  0
    3.6169    2.3121   -0.5408 C   0  0  0  0  0  0  0  0  0  0  0  0
   -4.0047    1.5708    1.3993 C   0  0  0  0  0  0  0  0  0  0  0  0
    4.9596    1.9951   -0.3356 C   0  0  0  0  0  0  0  0  0  0  0  0
   -4.9564    1.8201    0.4105 C   0  0  0  0  0  0  0  0  0  0  0  0
  1 19  1  0
  2 20  1  0
  3 23  1  0
  4 24  1  0
  5 27  1  0
  6 28  1  0
  7 15  1  0
  7 17  1  0
  8 16  1  0
  8 18  1  0
  9 15  2  0
 10 16  2  0
 11 12  1  0
 11 13  1  0
 11 15  1  0
 12 14  1  0
 12 16  1  0
 13 14  1  0
 17 19  2  0
 17 21  1  0
 18 20  2  0
 18 22  1  0
 19 25  1  0
 20 26  1  0
 21 23  2  0
 22 24  2  0
 23 27  1  0
 24 28  1  0
 25 27  2  0
 26 28  2  0
M  END
>  <PUBCHEM_COMPOUND_CID>  (1) 
46366

>  <PUBCHEM_CONFORMER_RMSD>  (1) 
1.2

>  <PUBCHEM_CONFORMER_DIVERSEORDER>  (1) 
1
9
66
151
148
93
41
155
164
18
179
35
96
163
176
150
14
104
26
38
95
27
154
110
98
162
78
12
153
167
74
56
28
6
106
171
34
177
139
5
8
140
64
107
30
128
60
143
17
144
52
113
47
116
108
178
100
141
32
21
97
29
71
159
160
157
101
45
156
48
126
62
4
131
50
69
82
44
80
7
134
127
39
147
138
76
174
67
61
118
170
105
23
84
114
152
145
115
124
70
168
3
165
25
137
129
90
135
10
166
112
65
146
40
122
125
103
11
79
83
161
175
99
22
173
37
68
172
85
130
24
89
119
58
149
94
73
92
102
2
120
57
123
72
121
63
87
16
109
51
20
49
19
136
86
75
15
169
53
132
55
36
133
111
88
142
91
158
54
77
43
81
13
59
33
117
46
31
42

>  <PUBCHEM_MMFF94_PARTIAL_CHARGES>  (1) 
30
1 -0.18
10 -0.57
11 0.05
12 0.05
15 0.67
16 0.67
17 0.08
18 0.08
19 0.18
2 -0.18
20 0.18
21 -0.15
22 -0.15
23 0.18
24 0.18
25 -0.15
26 -0.15
27 0.18
28 0.18
3 -0.18
35 0.15
36 0.15
37 0.15
38 0.15
4 -0.18
5 -0.18
6 -0.18
7 -0.23
8 -0.23
9 -0.57

>  <PUBCHEM_EFFECTIVE_ROTOR_COUNT>  (1) 
6.8

>  <PUBCHEM_PHARMACOPHORE_FEATURES>  (1) 
5
1 10 acceptor
1 9 acceptor
4 11 12 13 14 rings
6 17 19 21 23 25 27 rings
6 18 20 22 24 26 28 rings

>  <PUBCHEM_HEAVY_ATOM_COUNT>  (1) 
28

>  <PUBCHEM_ATOM_DEF_STEREO_COUNT>  (1) 
0

>  <PUBCHEM_ATOM_UDEF_STEREO_COUNT>  (1) 
2

>  <PUBCHEM_BOND_DEF_STEREO_COUNT>  (1) 
0

>  <PUBCHEM_BOND_UDEF_STEREO_COUNT>  (1) 
0

>  <PUBCHEM_ISOTOPIC_ATOM_COUNT>  (1) 
0

>  <PUBCHEM_COMPONENT_COUNT>  (1) 
1

>  <PUBCHEM_CACTVS_TAUTO_COUNT>  (1) 
1

>  <PUBCHEM_CONFORMER_ID>  (1) 
0000B51E00000001

>  <PUBCHEM_MMFF94_ENERGY>  (1) 
72.713

>  <PUBCHEM_FEATURE_SELFOVERLAP>  (1) 
25.373

>  <PUBCHEM_SHAPE_FINGERPRINT>  (1) 
10937287 8 18411700997555478955
11135609 187 18410281507450301357
11763715 3 17114948245709744622
12107183 9 18335127688705271874
12390115 104 18339654432966953230
12422481 6 17458343039844568756
12788726 201 18124300868921688015
13103583 49 11746937551499415493
14117953 113 18337953390153887924
14251764 75 18411424986009238553
14294032 229 18129951203663773467
14767858 380 18201137933258181991
14790565 3 18409450297628097972
14840074 17 18041002851448383332
14849402 71 18194125105529569930
14931854 50 17917709076333725197
15439362 3 18341620265890582958
17138139 8 17701793653366307055
18608769 82 18270683190297584915
20511986 3 17702366382823656333
21033648 144 18335136432984172087
21033648 29 17314515825516186837
21298829 104 18270399378526875569
21388113 180 18188483567434070397
23569917 315 18413387631113184334
283562 15 18265048227365180123
350125 39 18266463290107421651
397830 11 18117860824140257641
4058900 60 18337678511987909289
4098825 35 13183022934180062179
4144715 1 18263652934619905834
44880168 125 13695853827866903568
474 4 18340201891400651095
5048184 11 18411984675828956257
5104073 3 18115578396497734656
6034566 193 18336275634062098541
6058803 2 17899688249138798886
6328613 192 18337392760015549580
6523845 18 17980242730568766551
9981440 41 18410294726726779099

>  <PUBCHEM_SHAPE_MULTIPOLES>  (1) 
563.97
15.1
4.58
1.41
4.97
4.81
-0.18
-17.45
1.35
0.24
0.59
-1.88
-0.6
-1.03

>  <PUBCHEM_SHAPE_SELFOVERLAP>  (1) 
1157.411

>  <PUBCHEM_SHAPE_VOLUME>  (1) 
330.3

>  <PUBCHEM_COORDINATE_TYPE>  (1) 
2
5
10

$$$$
