46364
     RDKit          3D

 30 34  0  0  1  0  0  0  0  0999 V2000
    3.1989   -2.1552   -1.1251 O   0  0  0  0  0  0  0  0  0  0  0  0
   -1.9419   -3.7823    0.4585 O   0  0  0  0  0  0  0  0  0  0  0  0
    2.1018   -0.8285    0.4644 N   0  0  0  0  0  0  0  0  0  0  0  0
   -1.1674   -1.6617   -0.1562 N   0  0  0  0  0  0  0  0  0  0  0  0
    1.5360   -3.2226    0.3038 C   0  0  0  0  0  0  0  0  0  0  0  0
    0.2870   -3.5938   -0.5227 C   0  0  0  0  0  0  0  0  0  0  0  0
    2.0715   -4.6343   -0.0145 C   0  0  0  0  0  0  0  0  0  0  0  0
    0.6018   -5.0680   -0.1938 C   0  0  0  0  0  0  0  0  0  0  0  0
    2.3799   -2.0218   -0.2120 C   0  0  0  0  0  0  0  0  0  0  0  0
   -1.0753   -3.0412   -0.0131 C   0  0  0  0  0  0  0  0  0  0  0  0
    2.6677    0.4365    0.2651 C   0  0  0  0  0  0  0  0  0  0  0  0
   -2.2509   -0.8213    0.1960 C   0  0  0  0  0  0  0  0  0  0  0  0
    1.9492    1.6166    0.5173 C   0  0  0  0  0  0  0  0  0  0  0  0
   -2.5109    0.3576   -0.5055 C   0  0  0  0  0  0  0  0  0  0  0  0
    3.9828    0.4887   -0.1982 C   0  0  0  0  0  0  0  0  0  0  0  0
   -3.0370   -1.2238    1.2669 C   0  0  0  0  0  0  0  0  0  0  0  0
    2.5736    2.8673    0.2967 C   0  0  0  0  0  0  0  0  0  0  0  0
   -3.6080    1.1582   -0.1073 C   0  0  0  0  0  0  0  0  0  0  0  0
    0.6249    1.5830    0.9836 C   0  0  0  0  0  0  0  0  0  0  0  0
   -1.7183    0.7690   -1.5894 C   0  0  0  0  0  0  0  0  0  0  0  0
    4.5968    1.7187   -0.4147 C   0  0  0  0  0  0  0  0  0  0  0  0
   -4.1161   -0.4367    1.6582 C   0  0  0  0  0  0  0  0  0  0  0  0
    3.8981    2.9012   -0.1694 C   0  0  0  0  0  0  0  0  0  0  0  0
   -4.4009    0.7468    0.9765 C   0  0  0  0  0  0  0  0  0  0  0  0
    1.8555    4.0476    0.5490 C   0  0  0  0  0  0  0  0  0  0  0  0
   -3.8802    2.3464   -0.8047 C   0  0  0  0  0  0  0  0  0  0  0  0
   -0.0737    2.7655    1.2287 C   0  0  0  0  0  0  0  0  0  0  0  0
   -2.0031    1.9527   -2.2708 C   0  0  0  0  0  0  0  0  0  0  0  0
    0.5404    3.9954    1.0118 C   0  0  0  0  0  0  0  0  0  0  0  0
   -3.0820    2.7399   -1.8792 C   0  0  0  0  0  0  0  0  0  0  0  0
  1  9  2  0
  2 10  2  0
  3  9  1  0
  3 11  1  0
  4 10  1  0
  4 12  1  0
  5  6  1  0
  5  7  1  0
  5  9  1  0
  6  8  1  0
  6 10  1  0
  7  8  1  0
 11 13  1  0
 11 15  2  0
 12 14  1  0
 12 16  2  0
 13 17  2  0
 13 19  1  0
 14 18  2  0
 14 20  1  0
 15 21  1  0
 16 22  1  0
 17 23  1  0
 17 25  1  0
 18 24  1  0
 18 26  1  0
 19 27  2  0
 20 28  2  0
 21 23  2  0
 22 24  2  0
 25 29  2  0
 26 30  2  0
 27 29  1  0
 28 30  1  0
M  END
>  <PUBCHEM_COMPOUND_CID>  (1) 
46364

>  <PUBCHEM_CONFORMER_RMSD>  (1) 
0.8

>  <PUBCHEM_CONFORMER_DIVERSEORDER>  (1) 
1
82
31
47
112
170
5
93
204
226
56
28
30
25
17
46
41
207
143
32
117
201
127
155
161
54
104
81
33
65
185
70
26
210
34
157
48
175
128
89
116
225
165
215
192
132
51
20
94
27
177
43
99
50
135
211
222
87
37
64
133
198
79
191
141
119
98
91
12
214
223
181
125
39
150
122
213
148
159
154
57
16
92
102
168
138
193
139
100
151
206
72
217
149
176
55
80
212
208
75
173
96
182
140
188
153
189
187
216
60
6
44
179
171
124
220
18
152
8
195
166
131
85
19
134
3
40
180
184
69
162
49
147
156
113
35
53
58
114
66
73
183
74
221
88
83
158
45
146
186
115
107
59
120
21
7
174
110
178
169
90
42
163
160
10
126
23
145
196
224
2
129
121
194
86
144
84
11
15
29
200
199
108
218
103
24
197
167
101
209
68
219
137
9
172
97
136
13
105
205
164
111
109
106
71
118
142
202
52
61
130
67
123
36
76
78
38
77
62
63
14
22
203
95
190
4

>  <PUBCHEM_MMFF94_PARTIAL_CHARGES>  (1) 
40
1 -0.57
10 0.58
11 0.12
12 0.12
15 -0.15
16 -0.15
19 -0.15
2 -0.57
20 -0.15
21 -0.15
22 -0.15
23 -0.15
24 -0.15
25 -0.15
26 -0.15
27 -0.15
28 -0.15
29 -0.15
3 -0.55
30 -0.15
37 0.37
38 0.37
39 0.15
4 -0.55
40 0.15
41 0.15
42 0.15
43 0.15
44 0.15
45 0.15
46 0.15
47 0.15
48 0.15
49 0.15
5 0.05
50 0.15
51 0.15
52 0.15
6 0.05
9 0.58

>  <PUBCHEM_EFFECTIVE_ROTOR_COUNT>  (1) 
6.8

>  <PUBCHEM_PHARMACOPHORE_FEATURES>  (1) 
9
1 1 acceptor
1 2 acceptor
1 3 donor
1 4 donor
4 5 6 7 8 rings
6 11 13 15 17 21 23 rings
6 12 14 16 18 22 24 rings
6 13 17 19 25 27 29 rings
6 14 18 20 26 28 30 rings

>  <PUBCHEM_HEAVY_ATOM_COUNT>  (1) 
30

>  <PUBCHEM_ATOM_DEF_STEREO_COUNT>  (1) 
0

>  <PUBCHEM_ATOM_UDEF_STEREO_COUNT>  (1) 
2

>  <PUBCHEM_BOND_DEF_STEREO_COUNT>  (1) 
0

>  <PUBCHEM_BOND_UDEF_STEREO_COUNT>  (1) 
0

>  <PUBCHEM_ISOTOPIC_ATOM_COUNT>  (1) 
0

>  <PUBCHEM_COMPONENT_COUNT>  (1) 
1

>  <PUBCHEM_CACTVS_TAUTO_COUNT>  (1) 
3

>  <PUBCHEM_CONFORMER_ID>  (1) 
0000B51C00000001

>  <PUBCHEM_MMFF94_ENERGY>  (1) 
99.7431

>  <PUBCHEM_FEATURE_SELFOVERLAP>  (1) 
45.726

>  <PUBCHEM_SHAPE_FINGERPRINT>  (1) 
10064457 181 17979926225934027680
10165383 225 18339092599905761809
10675989 125 17977931394072132692
1100329 8 18411983572740169282
12100795 323 18334291006804368493
12156800 1 12401698057016459661
12553582 1 17763753087590678738
12633257 1 18268710678609833920
13140716 1 18270111444008256232
1361 2 18049702299659224717
13642711 20 18341055116687053486
138480 1 18051133596883232442
140371 6 17833546804367248898
14114211 80 18196397967751624225
14415360 78 18197205056943236289
14659021 117 16678652647220127074
151778 21 18409732845924321073
15297060 5 15603446415165274145
19930381 70 18339644434683865515
20764821 26 18339068311738862102
21133410 62 15665075489443689245
23536364 44 17979657644986944278
238 59 18049966083074792941
3298306 158 18409727331207145855
5265222 85 18189915260870534796
6287921 2 17685780524512193669

>  <PUBCHEM_SHAPE_MULTIPOLES>  (1) 
595.69
7.64
7.06
1.42
1.05
6.27
-0.41
-4.17
-0.1
-4.22
0.1
1.46
-0.92
1.83

>  <PUBCHEM_SHAPE_SELFOVERLAP>  (1) 
1323.822

>  <PUBCHEM_SHAPE_VOLUME>  (1) 
317.9

>  <PUBCHEM_COORDINATE_TYPE>  (1) 
2
5
10

$$$$
