46361
     RDKit          3D

  8  8  0  0  1  0  0  0  0  0999 V2000
   -1.8470    0.1177    0.0244 N   0  0  0  0  0  0  0  0  0  0  0  0
    1.8486    0.1217   -0.0250 N   0  0  0  0  0  0  0  0  0  0  0  0
   -0.5362   -0.0767   -0.5539 C   0  0  0  0  0  0  0  0  0  0  0  0
    0.5381   -0.0751    0.5534 C   0  0  0  0  0  0  0  0  0  0  0  0
   -0.2412   -1.5806   -0.7317 C   0  0  0  0  0  0  0  0  0  0  0  0
    0.2463   -1.5796    0.7323 C   0  0  0  0  0  0  0  0  0  0  0  0
   -2.1285    1.5333    0.2028 C   0  0  0  0  0  0  0  0  0  0  0  0
    2.1198    1.5394   -0.2023 C   0  0  0  0  0  0  0  0  0  0  0  0
  1  3  1  0
  1  7  1  0
  2  4  1  0
  2  8  1  0
  3  4  1  0
  3  5  1  0
  4  6  1  0
  5  6  1  0
M  END
>  <PUBCHEM_COMPOUND_CID>  (1) 
46361

>  <PUBCHEM_CONFORMER_RMSD>  (1) 
0.6

>  <PUBCHEM_CONFORMER_DIVERSEORDER>  (1) 
1
5
6
3
4
2

>  <PUBCHEM_MMFF94_PARTIAL_CHARGES>  (1) 
8
1 -0.84
15 0.36
16 0.36
2 -0.84
3 0.21
4 0.21
7 0.27
8 0.27

>  <PUBCHEM_EFFECTIVE_ROTOR_COUNT>  (1) 
2.8

>  <PUBCHEM_PHARMACOPHORE_FEATURES>  (1) 
5
1 1 cation
1 1 donor
1 2 cation
1 2 donor
4 3 4 5 6 rings

>  <PUBCHEM_HEAVY_ATOM_COUNT>  (1) 
8

>  <PUBCHEM_ATOM_DEF_STEREO_COUNT>  (1) 
0

>  <PUBCHEM_ATOM_UDEF_STEREO_COUNT>  (1) 
2

>  <PUBCHEM_BOND_DEF_STEREO_COUNT>  (1) 
0

>  <PUBCHEM_BOND_UDEF_STEREO_COUNT>  (1) 
0

>  <PUBCHEM_ISOTOPIC_ATOM_COUNT>  (1) 
0

>  <PUBCHEM_COMPONENT_COUNT>  (1) 
1

>  <PUBCHEM_CACTVS_TAUTO_COUNT>  (1) 
1

>  <PUBCHEM_CONFORMER_ID>  (1) 
0000B51900000001

>  <PUBCHEM_MMFF94_ENERGY>  (1) 
23.0652

>  <PUBCHEM_FEATURE_SELFOVERLAP>  (1) 
25.371

>  <PUBCHEM_SHAPE_FINGERPRINT>  (1) 
137420 1 16087789567633199779
20096714 4 18410852140144841736
20653085 51 18271542964918482728
21040471 1 18342731927374028346
23552449 1 17763462120567419176
29004967 10 17615969902780886475
5084963 1 18341610408291720625
5943 1 14794217212751553570
68250623 7 18410857659152086434

>  <PUBCHEM_SHAPE_MULTIPOLES>  (1) 
154.67
2.58
1.89
0.83
0.02
0.06
0
-1.91
0
-0.01
0
0
0.21
-0.26

>  <PUBCHEM_SHAPE_SELFOVERLAP>  (1) 
294.987

>  <PUBCHEM_SHAPE_VOLUME>  (1) 
97

>  <PUBCHEM_COORDINATE_TYPE>  (1) 
2
5
10

$$$$
