46368
     RDKit          3D

 14 14  0  0  1  0  0  0  0  0999 V2000
   -5.5220    0.4304    0.0256 Cl  0  0  0  0  0  0  0  0  0  0  0  0
    1.1448    1.9593   -0.1753 O   0  0  0  0  0  0  0  0  0  0  0  0
   -1.5454   -0.2087    0.0612 N   0  0  0  0  0  0  0  0  0  0  0  0
   -0.5527   -0.1805   -1.0123 C   0  0  0  0  0  0  0  0  0  0  0  0
    0.8432   -0.3973   -0.4912 C   0  0  0  0  0  0  0  0  0  0  0  0
   -2.8806    0.0632   -0.4699 C   0  0  0  0  0  0  0  0  0  0  0  0
   -1.5212   -1.5007    0.7460 C   0  0  0  0  0  0  0  0  0  0  0  0
    1.6204    0.6847   -0.1002 C   0  0  0  0  0  0  0  0  0  0  0  0
    1.3340   -1.6940   -0.4112 C   0  0  0  0  0  0  0  0  0  0  0  0
   -3.8907    0.1189    0.6656 C   0  0  0  0  0  0  0  0  0  0  0  0
    2.9119    0.4664    0.3794 C   0  0  0  0  0  0  0  0  0  0  0  0
    2.6253   -1.9124    0.0686 C   0  0  0  0  0  0  0  0  0  0  0  0
    3.4143   -0.8321    0.4639 C   0  0  0  0  0  0  0  0  0  0  0  0
    2.0187    3.0030    0.2496 C   0  0  0  0  0  0  0  0  0  0  0  0
  1 10  1  0
  2  8  1  0
  2 14  1  0
  3  4  1  0
  3  6  1  0
  3  7  1  0
  4  5  1  0
  5  8  2  0
  5  9  1  0
  6 10  1  0
  8 11  1  0
  9 12  2  0
 11 13  2  0
 12 13  1  0
M  END
>  <PUBCHEM_COMPOUND_CID>  (1) 
46368

>  <PUBCHEM_CONFORMER_RMSD>  (1) 
0.6

>  <PUBCHEM_CONFORMER_DIVERSEORDER>  (1) 
19
63
6
12
57
49
34
17
62
16
24
27
42
37
59
2
58
47
3
40
54
61
11
5
55
48
50
8
45
4
53
26
60
32
44
7
35
10
23
56
9
38
30
25
18
39
14
31
52
13
22
15
1
51
36
20
28
43
33
29
41
46
21

>  <PUBCHEM_MMFF94_PARTIAL_CHARGES>  (1) 
18
1 -0.29
10 0.29
11 -0.15
12 -0.15
13 -0.15
14 0.28
2 -0.36
22 0.15
25 0.15
26 0.15
27 0.15
3 -0.81
4 0.41
5 -0.14
6 0.27
7 0.27
8 0.08
9 -0.15

>  <PUBCHEM_EFFECTIVE_ROTOR_COUNT>  (1) 
5

>  <PUBCHEM_PHARMACOPHORE_FEATURES>  (1) 
3
1 2 acceptor
1 3 cation
6 5 8 9 11 12 13 rings

>  <PUBCHEM_HEAVY_ATOM_COUNT>  (1) 
14

>  <PUBCHEM_ATOM_DEF_STEREO_COUNT>  (1) 
0

>  <PUBCHEM_ATOM_UDEF_STEREO_COUNT>  (1) 
0

>  <PUBCHEM_BOND_DEF_STEREO_COUNT>  (1) 
0

>  <PUBCHEM_BOND_UDEF_STEREO_COUNT>  (1) 
0

>  <PUBCHEM_ISOTOPIC_ATOM_COUNT>  (1) 
0

>  <PUBCHEM_COMPONENT_COUNT>  (1) 
1

>  <PUBCHEM_CACTVS_TAUTO_COUNT>  (1) 
1

>  <PUBCHEM_CONFORMER_ID>  (1) 
0000B52000000013

>  <PUBCHEM_MMFF94_ENERGY>  (1) 
46.98

>  <PUBCHEM_FEATURE_SELFOVERLAP>  (1) 
15.223

>  <PUBCHEM_SHAPE_FINGERPRINT>  (1) 
10219947 1 18342454816327034374
11471102 20 18410855451617394063
12162725 195 18202007607905485609
12251169 10 18411136943884873591
12346645 6 18343584040390676302
12507560 14 18339919290715578795
12633257 1 18114449154277816304
13675066 3 17967538982607604995
13922767 16 18408041788851507695
14252887 29 18270400477953717338
14648413 74 18263363745042570328
15501101 241 18259702306828897860
15775835 57 17417807382969753426
16945 1 18410565210987037190
18186145 218 18342747282451953687
20559304 39 18341336625696616380
20606313 2 18411418388680729595
20645477 70 18411418376292076935
20671657 1 18340493368855099333
20871998 22 18126850391736407942
212847 35 18259991444412548605
21501502 16 18265330797083089575
21524375 3 17696474361855502532
22169311 14 18186524323691236179
22892500 29 18409166619095241997
23402539 116 18272642416959724015
23557571 272 13470692529711058651
23558518 356 17899976337331664491
2748010 2 18048033262113792676
305870 269 18123184877556624992
3060560 45 17988933253600749278
31174 14 18334289864242834453
3286 77 18261394412654154077
351380 180 18410009910734496689
57426455 114 17894351072909200099
69090 78 18409726266678274583
7364860 26 18412266168238873596
81228 2 17834121849106337440

>  <PUBCHEM_SHAPE_MULTIPOLES>  (1) 
279.13
7.85
2.25
0.84
12.15
1.5
0.03
0.5
-1.25
-2.54
-0.2
0.16
-0.1
0.18

>  <PUBCHEM_SHAPE_SELFOVERLAP>  (1) 
552.565

>  <PUBCHEM_SHAPE_VOLUME>  (1) 
169.2

>  <PUBCHEM_COORDINATE_TYPE>  (1) 
2
5
10

$$$$
