46369
     RDKit          3D

 23 23  0  0  1  0  0  0  0  0999 V2000
    2.1469   -1.3573   -0.6487 O   0  0  0  0  0  0  0  0  0  0  0  0
   -5.2837    0.2666    0.7427 O   0  0  0  0  0  0  0  0  0  0  0  0
    1.0556    0.6525   -0.6479 O   0  0  0  0  0  0  0  0  0  0  0  0
    5.3172    0.4279    0.0528 N   0  0  0  0  0  0  0  0  0  0  0  0
   -0.0440   -1.3613   -0.1832 N   0  0  0  0  0  0  0  0  0  0  0  0
    4.0743   -0.2866    0.3099 C   0  0  0  0  0  0  0  0  0  0  0  0
    3.3619   -0.6875   -0.9841 C   0  0  0  0  0  0  0  0  0  0  0  0
    6.1744    0.4182    1.2403 C   0  0  0  0  0  0  0  0  0  0  0  0
    5.0453    1.8053   -0.3639 C   0  0  0  0  0  0  0  0  0  0  0  0
    4.1843   -1.6320   -1.8515 C   0  0  0  0  0  0  0  0  0  0  0  0
    5.5136    1.1436    2.4003 C   0  0  0  0  0  0  0  0  0  0  0  0
    6.3312    2.5411   -0.7003 C   0  0  0  0  0  0  0  0  0  0  0  0
    1.0373   -0.5639   -0.5041 C   0  0  0  0  0  0  0  0  0  0  0  0
   -1.3792   -0.9628    0.0545 C   0  0  0  0  0  0  0  0  0  0  0  0
   -2.3606   -1.9023    0.3710 C   0  0  0  0  0  0  0  0  0  0  0  0
   -4.0034   -0.1367    0.5171 C   0  0  0  0  0  0  0  0  0  0  0  0
   -3.6727   -1.4892    0.6023 C   0  0  0  0  0  0  0  0  0  0  0  0
   -1.7096    0.3899   -0.0302 C   0  0  0  0  0  0  0  0  0  0  0  0
   -3.0219    0.8028    0.2009 C   0  0  0  0  0  0  0  0  0  0  0  0
   -2.0347   -3.3573    0.4697 C   0  0  0  0  0  0  0  0  0  0  0  0
   -5.7289    1.4319    0.0502 C   0  0  0  0  0  0  0  0  0  0  0  0
   -7.2295    1.3269   -0.1746 C   0  0  0  0  0  0  0  0  0  0  0  0
   -7.7741    2.5303   -0.9230 C   0  0  0  0  0  0  0  0  0  0  0  0
  1  7  1  0
  1 13  1  0
  2 16  1  0
  2 21  1  0
  3 13  2  0
  4  6  1  0
  4  8  1  0
  4  9  1  0
  5 13  1  0
  5 14  1  0
  6  7  1  0
  7 10  1  0
  8 11  1  0
  9 12  1  0
 14 15  2  0
 14 18  1  0
 15 17  1  0
 15 20  1  0
 16 17  2  0
 16 19  1  0
 18 19  2  0
 21 22  1  0
 22 23  1  0
M  END
>  <PUBCHEM_COMPOUND_CID>  (1) 
46369

>  <PUBCHEM_CONFORMER_RMSD>  (1) 
1

>  <PUBCHEM_CONFORMER_DIVERSEORDER>  (1) 
1
13
35
23
62
67
25
18
44
19
27
36
9
34
22
60
61
37
6
63
64
53
42
50
68
12
28
33
54
40
30
59
48
45
8
10
14
3
58
69
24
66
57
49
16
4
55
51
15
7
11
29
46
47
65
52
43
31
17
32
56
38
21
39
20
41
26
2
5

>  <PUBCHEM_MMFF94_PARTIAL_CHARGES>  (1) 
22
1 -0.43
13 0.78
14 0.12
15 -0.14
16 0.08
17 -0.15
18 -0.15
19 -0.15
2 -0.36
20 0.14
21 0.28
3 -0.57
4 -0.81
40 0.37
41 0.15
42 0.15
43 0.15
5 -0.55
6 0.27
7 0.28
8 0.27
9 0.27

>  <PUBCHEM_EFFECTIVE_ROTOR_COUNT>  (1) 
11

>  <PUBCHEM_PHARMACOPHORE_FEATURES>  (1) 
6
1 2 acceptor
1 23 hydrophobe
1 3 acceptor
1 4 cation
1 5 donor
6 14 15 16 17 18 19 rings

>  <PUBCHEM_HEAVY_ATOM_COUNT>  (1) 
23

>  <PUBCHEM_ATOM_DEF_STEREO_COUNT>  (1) 
0

>  <PUBCHEM_ATOM_UDEF_STEREO_COUNT>  (1) 
1

>  <PUBCHEM_BOND_DEF_STEREO_COUNT>  (1) 
0

>  <PUBCHEM_BOND_UDEF_STEREO_COUNT>  (1) 
0

>  <PUBCHEM_ISOTOPIC_ATOM_COUNT>  (1) 
0

>  <PUBCHEM_COMPONENT_COUNT>  (1) 
1

>  <PUBCHEM_CACTVS_TAUTO_COUNT>  (1) 
2

>  <PUBCHEM_CONFORMER_ID>  (1) 
0000B52100000001

>  <PUBCHEM_MMFF94_ENERGY>  (1) 
55.3379

>  <PUBCHEM_FEATURE_SELFOVERLAP>  (1) 
30.446

>  <PUBCHEM_SHAPE_FINGERPRINT>  (1) 
10 15 18113624507746194809
10730089 47 10159710070913355932
10835480 77 18342461447434818445
12166972 35 12823290208877906067
12403259 118 18197209455305277610
125118 31 18336549335053382597
12596602 18 17749110040866545896
12616971 3 14851607721191362842
12778500 126 18041551469649267432
13533116 47 17846224297978761398
14341114 328 18115020931159215834
16079462 125 18343579633717274681
17980427 23 18261394515290498615
18335252 114 17132114641971187248
20157964 124 17917712361899038078
20281389 69 18041563542686388709
20554085 129 18270665498968571179
21033648 29 18059008505852271794
21150785 3 14908174257509071561
21585482 111 18263647419671479636
21859007 373 17822846481891757869
23081809 10 15430331251777441607
23559900 14 18342189843042268054
2748736 6 18409164398824470893
300161 21 18273213097052814415
312425 54 17240479256250109248
3472631 163 18409168817902362550
465052 167 11386361552629670648
5104073 3 17604437421511365736
53917941 68 18411694388445043903

>  <PUBCHEM_SHAPE_MULTIPOLES>  (1) 
445.76
20.21
2.77
1.32
8.47
0.6
0.31
-18.01
0.8
1.63
-0.35
-2.44
-0.09
2.04

>  <PUBCHEM_SHAPE_SELFOVERLAP>  (1) 
887.329

>  <PUBCHEM_SHAPE_VOLUME>  (1) 
266.4

>  <PUBCHEM_COORDINATE_TYPE>  (1) 
2
5
10

$$$$
