4637
     RDKit          3D

 24 27  0  0  1  0  0  0  0  0999 V2000
   -3.1358    1.0303    0.4509 O   0  0  0  0  0  0  0  0  0  0  0  0
   -0.0399    4.1535   -0.0904 O   0  0  0  0  0  0  0  0  0  0  0  0
    2.1367    0.8490    1.1443 O   0  0  0  0  0  0  0  0  0  0  0  0
    4.0747   -0.5185   -0.1060 O   0  0  0  0  0  0  0  0  0  0  0  0
   -2.7081   -1.6965    0.7881 N   0  0  0  0  0  0  0  0  0  0  0  0
   -0.7515    0.4736    0.5842 C   0  0  0  0  0  0  0  0  0  0  0  0
   -2.0507    0.4265   -0.2803 C   0  0  0  0  0  0  0  0  0  0  0  0
   -2.4145   -1.0579   -0.5184 C   0  0  0  0  0  0  0  0  0  0  0  0
   -0.4071    1.9640    0.8600 C   0  0  0  0  0  0  0  0  0  0  0  0
   -1.0432   -0.2379    1.9355 C   0  0  0  0  0  0  0  0  0  0  0  0
   -1.9061    1.2501   -1.5820 C   0  0  0  0  0  0  0  0  0  0  0  0
    0.3893   -0.3091   -0.1009 C   0  0  0  0  0  0  0  0  0  0  0  0
   -1.3194   -1.7471   -1.3572 C   0  0  0  0  0  0  0  0  0  0  0  0
   -0.2598    2.7861   -0.4250 C   0  0  0  0  0  0  0  0  0  0  0  0
   -1.6056   -1.6565    1.7517 C   0  0  0  0  0  0  0  0  0  0  0  0
   -1.5117    2.6992   -1.2936 C   0  0  0  0  0  0  0  0  0  0  0  0
    0.0976   -1.3635   -0.9964 C   0  0  0  0  0  0  0  0  0  0  0  0
    1.7400   -0.0496    0.1980 C   0  0  0  0  0  0  0  0  0  0  0  0
   -3.2647   -3.0402    0.6700 C   0  0  0  0  0  0  0  0  0  0  0  0
    1.1440   -2.0811   -1.6015 C   0  0  0  0  0  0  0  0  0  0  0  0
    2.7694   -0.7755   -0.4047 C   0  0  0  0  0  0  0  0  0  0  0  0
    2.4723   -1.7868   -1.3088 C   0  0  0  0  0  0  0  0  0  0  0  0
    2.9483    1.9351    0.7044 C   0  0  0  0  0  0  0  0  0  0  0  0
    4.6458   -1.2472    0.9782 C   0  0  0  0  0  0  0  0  0  0  0  0
  1  7  1  0
  2 14  1  0
  3 18  1  0
  3 23  1  0
  4 21  1  0
  4 24  1  0
  5  8  1  0
  5 15  1  0
  5 19  1  0
  6  7  1  0
  6  9  1  0
  6 10  1  0
  6 12  1  0
  7  8  1  0
  7 11  1  0
  8 13  1  0
  9 14  1  0
 10 15  1  0
 11 16  1  0
 12 17  2  0
 12 18  1  0
 13 17  1  0
 14 16  1  0
 17 20  1  0
 18 21  2  0
 20 22  2  0
 21 22  1  0
M  END
>  <PUBCHEM_COMPOUND_CID>  (1) 
4637

>  <PUBCHEM_CONFORMER_RMSD>  (1) 
0.6

>  <PUBCHEM_CONFORMER_DIVERSEORDER>  (1) 
2
5
3
6
1
7
4

>  <PUBCHEM_MMFF94_PARTIAL_CHARGES>  (1) 
24
1 -0.68
12 -0.14
13 0.14
14 0.28
15 0.27
17 -0.14
18 0.08
19 0.27
2 -0.68
20 -0.15
21 0.08
22 -0.15
23 0.28
24 0.28
3 -0.36
39 0.4
4 -0.36
43 0.15
44 0.4
45 0.15
5 -0.81
6 0.14
7 0.28
8 0.27

>  <PUBCHEM_EFFECTIVE_ROTOR_COUNT>  (1) 
3.6

>  <PUBCHEM_PHARMACOPHORE_FEATURES>  (1) 
11
1 1 acceptor
1 1 donor
1 2 acceptor
1 2 donor
1 3 acceptor
1 4 acceptor
1 5 cation
6 12 17 18 20 21 22 rings
6 5 6 7 8 10 15 rings
6 6 7 8 12 13 17 rings
6 6 7 9 11 14 16 rings

>  <PUBCHEM_HEAVY_ATOM_COUNT>  (1) 
24

>  <PUBCHEM_ATOM_DEF_STEREO_COUNT>  (1) 
0

>  <PUBCHEM_ATOM_UDEF_STEREO_COUNT>  (1) 
4

>  <PUBCHEM_BOND_DEF_STEREO_COUNT>  (1) 
0

>  <PUBCHEM_BOND_UDEF_STEREO_COUNT>  (1) 
0

>  <PUBCHEM_ISOTOPIC_ATOM_COUNT>  (1) 
0

>  <PUBCHEM_COMPONENT_COUNT>  (1) 
1

>  <PUBCHEM_CACTVS_TAUTO_COUNT>  (1) 
1

>  <PUBCHEM_CONFORMER_ID>  (1) 
0000121D00000002

>  <PUBCHEM_MMFF94_ENERGY>  (1) 
106.0982

>  <PUBCHEM_FEATURE_SELFOVERLAP>  (1) 
57.455

>  <PUBCHEM_SHAPE_FINGERPRINT>  (1) 
10165383 225 16533170778553517508
10863032 1 18343023323941509521
10948715 1 17616813232420491981
12035758 1 18338807732363401385
12077114 3 18268136570806254566
12403814 3 18271517688798542958
12423570 1 12513116389602340481
12788726 201 18042704843649434025
13140716 1 18413668019746959720
133893 2 17466256401249834217
13583140 156 18264187193832775522
14142880 1 18059861597472577665
14223421 5 18412265000134577534
14840074 17 17399782191614606672
14955137 171 17693110964402353288
16945 1 18195231227016328381
1813 80 18191045566986671451
19049666 15 17979922609729553766
19868273 325 18408895043939040239
20600515 1 17968111831906859927
20739085 24 18126586710392154922
21304303 282 17538526995094633308
22907989 373 18336842887540972692
2334 1 18127964402983422788
23402539 116 18263915562672804173
23419403 2 18058150886476521579
23493267 7 18262505984207231834
23557571 272 18338243661043727038
23559900 14 18259976081483121456
238 59 17693915420071696349
25 1 17116360563467126108
2748010 2 18271798060126764844
5895379 119 13340856776376413639
6442390 28 17688891747713870481
81228 2 18189919529418965577
9981440 41 17840562839704006242

>  <PUBCHEM_SHAPE_MULTIPOLES>  (1) 
465.45
5.42
3.62
1.63
5.08
2.53
0.07
-2.77
1.13
-1.47
-0.49
-0.33
-0.46
1.27

>  <PUBCHEM_SHAPE_SELFOVERLAP>  (1) 
1012.258

>  <PUBCHEM_SHAPE_VOLUME>  (1) 
250.8

>  <PUBCHEM_COORDINATE_TYPE>  (1) 
2
5
10

$$$$
