46375
     RDKit          3D

 19 20  0  0  0  0  0  0  0  0999 V2000
    1.4414    3.4598    0.4667 Cl  0  0  0  0  0  0  0  0  0  0  0  0
    5.3924   -0.0999   -0.4890 Cl  0  0  0  0  0  0  0  0  0  0  0  0
    0.6183   -2.0228    0.1074 S   0  0  0  0  0  0  0  0  0  0  0  0
   -3.7757   -0.1266   -0.2194 N   0  0  0  0  0  0  0  0  0  0  0  0
   -0.3422    1.0184    0.5350 N   0  0  0  0  0  0  0  0  0  0  0  0
    3.1600   -2.1495   -0.3126 N   0  0  0  0  0  0  0  0  0  0  0  0
   -2.7160    0.8041    0.1483 C   0  0  0  0  0  0  0  0  0  0  0  0
   -1.3736    0.0859    0.1995 C   0  0  0  0  0  0  0  0  0  0  0  0
   -5.0627    0.5661   -0.3081 C   0  0  0  0  0  0  0  0  0  0  0  0
   -3.8562   -1.2246    0.7457 C   0  0  0  0  0  0  0  0  0  0  0  0
    1.0244    0.7690    0.2927 C   0  0  0  0  0  0  0  0  0  0  0  0
   -5.0025    1.7108   -1.3051 C   0  0  0  0  0  0  0  0  0  0  0  0
   -4.9127   -2.2374    0.3382 C   0  0  0  0  0  0  0  0  0  0  0  0
    1.4965   -0.5392    0.0993 C   0  0  0  0  0  0  0  0  0  0  0  0
    1.9440    1.8195    0.2387 C   0  0  0  0  0  0  0  0  0  0  0  0
    2.8471   -0.8086   -0.1423 C   0  0  0  0  0  0  0  0  0  0  0  0
    3.2920    1.5763   -0.0005 C   0  0  0  0  0  0  0  0  0  0  0  0
    3.7552    0.2713   -0.1920 C   0  0  0  0  0  0  0  0  0  0  0  0
    2.0701   -2.8726   -0.2025 C   0  0  0  0  0  0  0  0  0  0  0  0
  1 15  1  0
  2 18  1  0
  3 14  1  0
  3 19  1  0
  4  7  1  0
  4  9  1  0
  4 10  1  0
  5  8  1  0
  5 11  1  0
  6 16  1  0
  6 19  2  0
  7  8  1  0
  9 12  1  0
 10 13  1  0
 11 14  2  0
 11 15  1  0
 14 16  1  0
 15 17  2  0
 16 18  2  0
 17 18  1  0
M  END
>  <PUBCHEM_COMPOUND_CID>  (1) 
46375

>  <PUBCHEM_CONFORMER_RMSD>  (1) 
0.8

>  <PUBCHEM_CONFORMER_DIVERSEORDER>  (1) 
1
19
23
14
20
18
9
16
21
17
13
4
8
3
6
12
7
11
15
2
10
5
22

>  <PUBCHEM_MMFF94_PARTIAL_CHARGES>  (1) 
20
1 -0.18
10 0.27
11 0.1
14 0.04
15 0.18
16 0.23
17 -0.15
18 0.18
19 0.23
2 -0.18
28 0.4
3 -0.08
35 0.15
36 0.15
4 -0.81
5 -0.87
6 -0.57
7 0.27
8 0.37
9 0.27

>  <PUBCHEM_EFFECTIVE_ROTOR_COUNT>  (1) 
6

>  <PUBCHEM_PHARMACOPHORE_FEATURES>  (1) 
6
1 4 cation
1 5 cation
1 5 donor
1 6 acceptor
5 3 6 14 16 19 rings
6 11 14 15 16 17 18 rings

>  <PUBCHEM_HEAVY_ATOM_COUNT>  (1) 
19

>  <PUBCHEM_ATOM_DEF_STEREO_COUNT>  (1) 
0

>  <PUBCHEM_ATOM_UDEF_STEREO_COUNT>  (1) 
0

>  <PUBCHEM_BOND_DEF_STEREO_COUNT>  (1) 
0

>  <PUBCHEM_BOND_UDEF_STEREO_COUNT>  (1) 
0

>  <PUBCHEM_ISOTOPIC_ATOM_COUNT>  (1) 
0

>  <PUBCHEM_COMPONENT_COUNT>  (1) 
1

>  <PUBCHEM_CACTVS_TAUTO_COUNT>  (1) 
1

>  <PUBCHEM_CONFORMER_ID>  (1) 
0000B52700000001

>  <PUBCHEM_MMFF94_ENERGY>  (1) 
52.1807

>  <PUBCHEM_FEATURE_SELFOVERLAP>  (1) 
30.517

>  <PUBCHEM_SHAPE_FINGERPRINT>  (1) 
10616163 171 18341053007963962591
10693767 8 17987518122339062742
10967382 1 18412267237970391538
11471102 20 18411980239259608228
11806522 49 18411705378680207042
13583140 156 18411978083665957165
13836976 161 18408608080373914220
13862211 1 18411704266811509834
13944108 23 16602636828834917501
14251717 144 18411982438298688034
15196674 1 18410012126389274579
19591789 44 18124880319827697899
200 152 17988640779349845521
20028762 73 18059295490856149502
20645477 56 18113896045028464573
20645477 70 18272087163176506887
21267235 1 18342188781641760142
21637258 2 15769496405501777702
21709351 56 18409726296315342965
221357 26 18338226060632381485
221490 88 18409736174713905603
22289505 5 18336821988003425476
22393880 68 18408319990910482847
22943178 12 18334851753977656481
23402539 116 17240482506996941812
23402655 69 18411980230659065781
23557571 272 17676485064790602757
23559900 14 18411693292674261569
2748010 2 18196947780328294056
2838139 119 16444214047943096596
2871803 45 18340489963415330596
3060560 45 18413670223349993172
33824 294 18411418427667764282
3545911 37 18408323281245691757
4072396 5 18335969888704869602
4214541 1 18409167719160919921
5104073 3 18409730660234211763
543358 83 18267305331167147993
57124632 79 17984689280425685056
58051976 378 18341896268398307526
59755656 215 18337390435926065502
6443956 14 18410013195799169196
9709674 26 18335142033500466387

>  <PUBCHEM_SHAPE_MULTIPOLES>  (1) 
383.66
11.14
3.2
0.81
10.37
0.27
0.09
-0.74
2.25
-0.92
-0.19
0.49
0.17
1.39

>  <PUBCHEM_SHAPE_SELFOVERLAP>  (1) 
767.853

>  <PUBCHEM_SHAPE_VOLUME>  (1) 
231

>  <PUBCHEM_COORDINATE_TYPE>  (1) 
2
5
10

$$$$
