46381
     RDKit          3D

 12 13  0  0  0  0  0  0  0  0999 V2000
    3.4107   -1.6922    0.0003 Br  0  0  0  0  0  0  0  0  0  0  0  0
    3.2645    1.6400    0.0000 Cl  0  0  0  0  0  0  0  0  0  0  0  0
   -1.8493   -1.1154   -0.0004 O   0  0  0  0  0  0  0  0  0  0  0  0
   -1.9161    1.1501    0.0000 N   0  0  0  0  0  0  0  0  0  0  0  0
   -3.9366   -0.1558    0.0001 N   0  0  0  0  0  0  0  0  0  0  0  0
   -0.5632   -0.6565    0.0000 C   0  0  0  0  0  0  0  0  0  0  0  0
   -0.6080    0.7299    0.0001 C   0  0  0  0  0  0  0  0  0  0  0  0
    0.6035   -1.4109    0.0000 C   0  0  0  0  0  0  0  0  0  0  0  0
    0.5970    1.4469   -0.0001 C   0  0  0  0  0  0  0  0  0  0  0  0
    1.7968   -0.6805   -0.0001 C   0  0  0  0  0  0  0  0  0  0  0  0
    1.7963    0.7198   -0.0002 C   0  0  0  0  0  0  0  0  0  0  0  0
   -2.5957    0.0245    0.0003 C   0  0  0  0  0  0  0  0  0  0  0  0
  1 10  1  0
  2 11  1  0
  3  6  1  0
  3 12  1  0
  4  7  1  0
  4 12  2  0
  5 12  1  0
  6  7  2  0
  6  8  1  0
  7  9  1  0
  8 10  2  0
  9 11  2  0
 10 11  1  0
M  END
>  <PUBCHEM_COMPOUND_CID>  (1) 
46381

>  <PUBCHEM_CONFORMER_RMSD>  (1) 
0.4

>  <PUBCHEM_CONFORMER_DIVERSEORDER>  (1) 
1

>  <PUBCHEM_MMFF94_PARTIAL_CHARGES>  (1) 
16
1 -0.11
10 0.11
11 0.18
12 0.56
13 0.15
14 0.15
15 0.4
16 0.4
2 -0.18
3 -0.28
4 -0.57
5 -0.88
6 0.14
7 0.23
8 -0.15
9 -0.15

>  <PUBCHEM_EFFECTIVE_ROTOR_COUNT>  (1) 
0

>  <PUBCHEM_PHARMACOPHORE_FEATURES>  (1) 
5
1 1 hydrophobe
1 5 donor
3 4 5 12 cation
5 3 4 6 7 12 rings
6 6 7 8 9 10 11 rings

>  <PUBCHEM_HEAVY_ATOM_COUNT>  (1) 
12

>  <PUBCHEM_ATOM_DEF_STEREO_COUNT>  (1) 
0

>  <PUBCHEM_ATOM_UDEF_STEREO_COUNT>  (1) 
0

>  <PUBCHEM_BOND_DEF_STEREO_COUNT>  (1) 
0

>  <PUBCHEM_BOND_UDEF_STEREO_COUNT>  (1) 
0

>  <PUBCHEM_ISOTOPIC_ATOM_COUNT>  (1) 
0

>  <PUBCHEM_COMPONENT_COUNT>  (1) 
1

>  <PUBCHEM_CACTVS_TAUTO_COUNT>  (1) 
2

>  <PUBCHEM_CONFORMER_ID>  (1) 
0000B52D00000001

>  <PUBCHEM_MMFF94_ENERGY>  (1) 
19.6438

>  <PUBCHEM_FEATURE_SELFOVERLAP>  (1) 
25.49

>  <PUBCHEM_SHAPE_FINGERPRINT>  (1) 
10608611 8 18408599245120212605
11471102 20 18410288112523939893
12032990 46 18338240366482323466
13380535 21 18337683030283084754
13380535 76 18337106894927705882
14325111 11 18410855468765796513
14576447 43 17841696698274848287
14897335 6 18340200903320568828
15219456 202 18334569127237684029
15536298 74 18343301466355855858
15775835 57 18271248329903358388
161256 15 18335136454211049372
16945 1 18266741474680150020
20201158 50 18338235959867028738
20645477 70 18411695470238504959
20871998 22 18127415540639231710
21501502 16 18340492170691170384
21501925 9 18338787940832445058
23235685 24 18337385062415803008
23402655 69 18341601625943508733
23463225 33 18410011009823903918
23552423 10 18334295361996164886
23559900 14 18124593082017907806
2748010 2 18409165506709281260
5084963 1 18271804579760506658
528886 8 18339075007450321704
53812653 166 18199746015313450384
63268167 104 18412547630035224992
7364860 26 18342457050115911272

>  <PUBCHEM_SHAPE_MULTIPOLES>  (1) 
238.94
5.55
1.86
0.61
1.42
0.12
0
-0.61
0
-1.63
0
-0.11
-0.01
0

>  <PUBCHEM_SHAPE_SELFOVERLAP>  (1) 
501.368

>  <PUBCHEM_SHAPE_VOLUME>  (1) 
141

>  <PUBCHEM_COORDINATE_TYPE>  (1) 
2
5
10

$$$$
