46393
     RDKit          3D

 13 14  0  0  0  0  0  0  0  0999 V2000
    4.4397   -0.9182    0.0033 Cl  0  0  0  0  0  0  0  0  0  0  0  0
   -1.0101    1.0786   -0.0016 O   0  0  0  0  0  0  0  0  0  0  0  0
   -2.9563   -0.1427   -0.0010 N   0  0  0  0  0  0  0  0  0  0  0  0
   -0.7842   -1.1765   -0.0012 N   0  0  0  0  0  0  0  0  0  0  0  0
    0.4587   -0.5911   -0.0008 C   0  0  0  0  0  0  0  0  0  0  0  0
    0.3244    0.7895   -0.0010 C   0  0  0  0  0  0  0  0  0  0  0  0
   -1.6033   -0.1479   -0.0018 C   0  0  0  0  0  0  0  0  0  0  0  0
    1.7461   -1.1467   -0.0003 C   0  0  0  0  0  0  0  0  0  0  0  0
    1.3840    1.6881   -0.0007 C   0  0  0  0  0  0  0  0  0  0  0  0
   -3.7556   -1.3819    0.0007 C   0  0  0  0  0  0  0  0  0  0  0  0
   -3.7467    1.1020    0.0047 C   0  0  0  0  0  0  0  0  0  0  0  0
    2.8417   -0.2710    0.0000 C   0  0  0  0  0  0  0  0  0  0  0  0
    2.6616    1.1177   -0.0002 C   0  0  0  0  0  0  0  0  0  0  0  0
  1 12  1  0
  2  6  1  0
  2  7  1  0
  3  7  1  0
  3 10  1  0
  3 11  1  0
  4  5  1  0
  4  7  2  0
  5  6  2  0
  5  8  1  0
  6  9  1  0
  8 12  2  0
  9 13  2  0
 12 13  1  0
M  END
>  <PUBCHEM_COMPOUND_CID>  (1) 
46393

>  <PUBCHEM_CONFORMER_RMSD>  (1) 
0.4

>  <PUBCHEM_CONFORMER_DIVERSEORDER>  (1) 
1

>  <PUBCHEM_MMFF94_PARTIAL_CHARGES>  (1) 
16
1 -0.18
10 0.37
11 0.37
12 0.18
13 -0.15
14 0.15
15 0.15
2 -0.28
22 0.15
3 -0.82
4 -0.57
5 0.23
6 0.14
7 0.56
8 -0.15
9 -0.15

>  <PUBCHEM_EFFECTIVE_ROTOR_COUNT>  (1) 
1

>  <PUBCHEM_PHARMACOPHORE_FEATURES>  (1) 
3
3 3 4 7 cation
5 2 4 5 6 7 rings
6 5 6 8 9 12 13 rings

>  <PUBCHEM_HEAVY_ATOM_COUNT>  (1) 
13

>  <PUBCHEM_ATOM_DEF_STEREO_COUNT>  (1) 
0

>  <PUBCHEM_ATOM_UDEF_STEREO_COUNT>  (1) 
0

>  <PUBCHEM_BOND_DEF_STEREO_COUNT>  (1) 
0

>  <PUBCHEM_BOND_UDEF_STEREO_COUNT>  (1) 
0

>  <PUBCHEM_ISOTOPIC_ATOM_COUNT>  (1) 
0

>  <PUBCHEM_COMPONENT_COUNT>  (1) 
1

>  <PUBCHEM_CACTVS_TAUTO_COUNT>  (1) 
1

>  <PUBCHEM_CONFORMER_ID>  (1) 
0000B53900000001

>  <PUBCHEM_MMFF94_ENERGY>  (1) 
26.5191

>  <PUBCHEM_FEATURE_SELFOVERLAP>  (1) 
15.341

>  <PUBCHEM_SHAPE_FINGERPRINT>  (1) 
10130415 120 18408038503154099216
10219947 1 18202003222400997942
10608611 8 18409726296320909549
11401426 45 18341324522578671712
11471102 20 18410288116455007780
11543360 7 15791741840107544062
11769659 78 18411695517176975415
12032990 46 18410296921174926642
12932764 1 17313373518253907281
13690532 89 18410292506185962154
13922767 16 18342734100633027784
14144814 61 18411701001971408409
14252887 29 17988650670791591870
14325111 11 18410574019775128481
15196674 1 18410856576851378724
15536298 74 18343018930385267992
16945 1 18410573976798919364
18186145 218 17967808358007302111
19422 9 18410298042261416349
200 152 18060129951677470727
20201158 50 18410013212957737850
20645477 70 18413105065219223695
20871998 22 18200038318124208310
21267235 1 18410864273512303695
21501502 16 18337955713308610359
21501925 9 18411409644290793442
221490 88 18191311678485439331
23402539 116 18342449318805702006
23402655 69 18412536596881537125
23463225 33 18409448072692061526
23559900 14 18412824664928354906
2748010 2 18193561305288018926
5104073 3 18411419531068113305
7364860 26 18270119157812061720
8809292 202 18187652439500893587

>  <PUBCHEM_SHAPE_MULTIPOLES>  (1) 
253.57
7.11
1.61
0.6
1.15
0.21
0
-1.54
-0.01
0.04
0
-0.05
0
0

>  <PUBCHEM_SHAPE_SELFOVERLAP>  (1) 
536.445

>  <PUBCHEM_SHAPE_VOLUME>  (1) 
147.2

>  <PUBCHEM_COORDINATE_TYPE>  (1) 
2
5
10

$$$$
