46394
     RDKit          3D

 17 18  0  0  0  0  0  0  0  0999 V2000
    4.8615    2.5463    0.0438 Cl  0  0  0  0  0  0  0  0  0  0  0  0
    1.2001   -1.9569   -0.0151 O   0  0  0  0  0  0  0  0  0  0  0  0
   -4.3836    0.9308   -0.2318 N   0  0  0  0  0  0  0  0  0  0  0  0
   -1.0796   -1.9132   -0.2978 N   0  0  0  0  0  0  0  0  0  0  0  0
    0.2597    0.0849   -0.3042 N   0  0  0  0  0  0  0  0  0  0  0  0
   -2.9561   -0.8056    0.8114 C   0  0  0  0  0  0  0  0  0  0  0  0
   -4.3550   -0.1920    0.6974 C   0  0  0  0  0  0  0  0  0  0  0  0
   -2.3711   -1.3052   -0.5092 C   0  0  0  0  0  0  0  0  0  0  0  0
    0.1040   -1.1968   -0.2135 C   0  0  0  0  0  0  0  0  0  0  0  0
   -3.5198    2.0141    0.2416 C   0  0  0  0  0  0  0  0  0  0  0  0
   -5.7530    1.4162   -0.4124 C   0  0  0  0  0  0  0  0  0  0  0  0
    1.6180    0.2231   -0.1504 C   0  0  0  0  0  0  0  0  0  0  0  0
    2.1971   -1.0247    0.0269 C   0  0  0  0  0  0  0  0  0  0  0  0
    2.4407    1.3586   -0.1471 C   0  0  0  0  0  0  0  0  0  0  0  0
    3.5559   -1.2480    0.2115 C   0  0  0  0  0  0  0  0  0  0  0  0
    3.8187    1.1734    0.0366 C   0  0  0  0  0  0  0  0  0  0  0  0
    4.3627   -0.1050    0.2122 C   0  0  0  0  0  0  0  0  0  0  0  0
  1 16  1  0
  2  9  1  0
  2 13  1  0
  3  7  1  0
  3 10  1  0
  3 11  1  0
  4  8  1  0
  4  9  1  0
  5  9  2  0
  5 12  1  0
  6  7  1  0
  6  8  1  0
 12 13  2  0
 12 14  1  0
 13 15  1  0
 14 16  2  0
 15 17  2  0
 16 17  1  0
M  END
>  <PUBCHEM_COMPOUND_CID>  (1) 
46394

>  <PUBCHEM_CONFORMER_RMSD>  (1) 
0.6

>  <PUBCHEM_CONFORMER_DIVERSEORDER>  (1) 
3
27
36
38
12
55
67
62
4
59
5
13
61
69
25
48
70
56
15
40
35
53
7
63
32
31
2
24
50
57
64
28
68
60
43
11
14
16
47
54
33
65
58
17
19
8
41
49
39
52
45
42
10
18
21
22
44
29
26
23
9
20
1
66
34
46
51
30
6
37

>  <PUBCHEM_MMFF94_PARTIAL_CHARGES>  (1) 
20
1 -0.18
10 0.27
11 0.27
12 0.23
13 0.14
14 -0.15
15 -0.15
16 0.18
17 -0.15
2 -0.28
24 0.4
3 -0.81
31 0.15
32 0.15
33 0.15
4 -0.85
5 -0.57
7 0.27
8 0.37
9 0.56

>  <PUBCHEM_EFFECTIVE_ROTOR_COUNT>  (1) 
5

>  <PUBCHEM_PHARMACOPHORE_FEATURES>  (1) 
5
1 3 cation
1 4 donor
3 4 5 9 cation
5 2 5 9 12 13 rings
6 12 13 14 15 16 17 rings

>  <PUBCHEM_HEAVY_ATOM_COUNT>  (1) 
17

>  <PUBCHEM_ATOM_DEF_STEREO_COUNT>  (1) 
0

>  <PUBCHEM_ATOM_UDEF_STEREO_COUNT>  (1) 
0

>  <PUBCHEM_BOND_DEF_STEREO_COUNT>  (1) 
0

>  <PUBCHEM_BOND_UDEF_STEREO_COUNT>  (1) 
0

>  <PUBCHEM_ISOTOPIC_ATOM_COUNT>  (1) 
0

>  <PUBCHEM_COMPONENT_COUNT>  (1) 
1

>  <PUBCHEM_CACTVS_TAUTO_COUNT>  (1) 
2

>  <PUBCHEM_CONFORMER_ID>  (1) 
0000B53A00000003

>  <PUBCHEM_MMFF94_ENERGY>  (1) 
28.8649

>  <PUBCHEM_FEATURE_SELFOVERLAP>  (1) 
25.493

>  <PUBCHEM_SHAPE_FINGERPRINT>  (1) 
10014705 185 18412261761786953195
11089746 13 18412255125614127070
12507560 40 18334020514286042851
12596602 18 17386002914041420745
12892183 10 18040441009675444171
13103583 49 12613327395940301941
13675066 3 18187653517442609171
14123255 352 18410575102128025085
14123255 52 18411982464052920891
1420 369 8358261453440949557
14251764 38 18268432334939166729
14790565 3 17829898981633006044
15188451 53 15937265533407997227
15196674 1 18410575093627605353
15239154 128 18411984688819418052
17834072 32 18412829092454243529
17834072 8 18272377438572836110
18915474 69 9655577413486978154
20157964 124 18338794508285742655
20739085 24 17967534567228263684
21065199 12 18187653526264750107
212847 35 18343017791992081448
21315764 268 18260823765882611189
21452121 103 18411976984307303440
21503847 285 18334296453118240306
21652331 79 18410576197487142881
21713013 43 11887678347127112019
22646028 28 8142089753732653987
23402655 69 18272368702440388390
23559900 14 18270965626830316810
2838139 119 18264199237042392837
335352 9 18411418385150861630
350125 39 18408040698394369612
351380 180 18336826403735817833
4259306 186 9223224123029996233
5104073 3 18261109694560573082
633830 44 18409163342310002102
636775 72 17621035800355993808
6430166 295 18411981360056285330
76465 3 10447388496554468540
90127 26 18335995223941761282

>  <PUBCHEM_SHAPE_MULTIPOLES>  (1) 
330.91
11.84
2.4
0.72
7.46
0.66
-0.05
7.66
-0.52
-0.76
0.08
0.33
-0.03
0.13

>  <PUBCHEM_SHAPE_SELFOVERLAP>  (1) 
682.295

>  <PUBCHEM_SHAPE_VOLUME>  (1) 
193.6

>  <PUBCHEM_COORDINATE_TYPE>  (1) 
2
5
10

$$$$
