46396
     RDKit          3D

 12 13  0  0  0  0  0  0  0  0999 V2000
   -3.8488   -1.0016    0.0026 Cl  0  0  0  0  0  0  0  0  0  0  0  0
    1.4706    1.4235   -0.0015 O   0  0  0  0  0  0  0  0  0  0  0  0
    1.3684   -0.8793   -0.0076 N   0  0  0  0  0  0  0  0  0  0  0  0
    3.4922    0.2968    0.0066 N   0  0  0  0  0  0  0  0  0  0  0  0
    0.0789   -0.4092   -0.0041 C   0  0  0  0  0  0  0  0  0  0  0  0
    0.1512    0.9783   -0.0019 C   0  0  0  0  0  0  0  0  0  0  0  0
    2.2042    0.2227   -0.0009 C   0  0  0  0  0  0  0  0  0  0  0  0
   -1.1453   -1.0435   -0.0024 C   0  0  0  0  0  0  0  0  0  0  0  0
   -0.9658    1.7878    0.0013 C   0  0  0  0  0  0  0  0  0  0  0  0
    1.7012   -2.2806    0.0048 C   0  0  0  0  0  0  0  0  0  0  0  0
   -2.2980   -0.2496    0.0009 C   0  0  0  0  0  0  0  0  0  0  0  0
   -2.2087    1.1546    0.0025 C   0  0  0  0  0  0  0  0  0  0  0  0
  1 11  1  0
  2  6  1  0
  2  7  1  0
  3  5  1  0
  3  7  1  0
  3 10  1  0
  4  7  2  0
  5  6  2  0
  5  8  1  0
  6  9  1  0
  8 11  2  0
  9 12  2  0
 11 12  1  0
M  END
>  <PUBCHEM_COMPOUND_CID>  (1) 
46396

>  <PUBCHEM_CONFORMER_RMSD>  (1) 
0.4

>  <PUBCHEM_CONFORMER_DIVERSEORDER>  (1) 
1

>  <PUBCHEM_MMFF94_PARTIAL_CHARGES>  (1) 
16
1 -0.18
10 0.37
11 0.18
12 -0.15
13 0.15
14 0.15
18 0.15
19 0.4
2 -0.23
3 -0.52
4 -0.85
5 0.1
6 0.08
7 0.65
8 -0.15
9 -0.15

>  <PUBCHEM_EFFECTIVE_ROTOR_COUNT>  (1) 
0

>  <PUBCHEM_PHARMACOPHORE_FEATURES>  (1) 
4
1 4 donor
3 3 4 7 cation
5 2 3 5 6 7 rings
6 5 6 8 9 11 12 rings

>  <PUBCHEM_HEAVY_ATOM_COUNT>  (1) 
12

>  <PUBCHEM_ATOM_DEF_STEREO_COUNT>  (1) 
0

>  <PUBCHEM_ATOM_UDEF_STEREO_COUNT>  (1) 
0

>  <PUBCHEM_BOND_DEF_STEREO_COUNT>  (1) 
0

>  <PUBCHEM_BOND_UDEF_STEREO_COUNT>  (1) 
0

>  <PUBCHEM_ISOTOPIC_ATOM_COUNT>  (1) 
0

>  <PUBCHEM_COMPONENT_COUNT>  (1) 
1

>  <PUBCHEM_CACTVS_TAUTO_COUNT>  (1) 
1

>  <PUBCHEM_CONFORMER_ID>  (1) 
0000B53C00000001

>  <PUBCHEM_MMFF94_ENERGY>  (1) 
38.7599

>  <PUBCHEM_FEATURE_SELFOVERLAP>  (1) 
20.41

>  <PUBCHEM_SHAPE_FINGERPRINT>  (1) 
11471102 20 18338230578721010173
12032990 46 18410863195575459863
12897270 3 18410291427885257957
12932764 1 17418080014682699947
13380535 21 18267878180719506080
13380535 76 18335701671548825138
14325111 11 18410573946496946849
16945 1 18410575106211891853
193761 8 18122344575420148005
19973954 147 18267023860237419701
20201158 50 18334857246818945323
20588541 1 18336269041118292643
20645477 70 18339636751235858007
20871998 184 18202282481301080759
20871998 22 18341624689337795047
21501502 16 18266742389481784395
2334 1 17690280834088145703
23402539 116 18340194284633768519
23402655 69 18267848520656854269
23463225 33 18408322181053361094
23552423 10 18189621552982770183
23559900 14 17405144029224919310
2748010 2 18266739069487856511
5084963 1 18201159935394606377
528886 8 18339356482453438618
7364860 26 18199466567735376422
8809292 202 18042690679137929811

>  <PUBCHEM_SHAPE_MULTIPOLES>  (1) 
232.99
4.86
1.94
0.6
1.08
0.29
0
1.08
0.01
-0.21
0
0.06
0.01
0

>  <PUBCHEM_SHAPE_SELFOVERLAP>  (1) 
497.806

>  <PUBCHEM_SHAPE_VOLUME>  (1) 
133.1

>  <PUBCHEM_COORDINATE_TYPE>  (1) 
2
5
10

$$$$
