46398
     RDKit          3D

 12 13  0  0  0  0  0  0  0  0999 V2000
    4.2553   -0.5948   -0.0004 Cl  0  0  0  0  0  0  0  0  0  0  0  0
   -3.5415   -0.8333    0.0006 S   0  0  0  0  0  0  0  0  0  0  0  0
   -1.3760    0.8114   -0.0002 O   0  0  0  0  0  0  0  0  0  0  0  0
   -0.9117   -1.4069   -0.0001 N   0  0  0  0  0  0  0  0  0  0  0  0
    0.2620   -0.6926    0.0000 C   0  0  0  0  0  0  0  0  0  0  0  0
   -0.0183    0.6658    0.0000 C   0  0  0  0  0  0  0  0  0  0  0  0
    1.6012   -1.1082    0.0001 C   0  0  0  0  0  0  0  0  0  0  0  0
    0.9398    1.6720    0.0001 C   0  0  0  0  0  0  0  0  0  0  0  0
   -1.8355   -0.4712   -0.0004 C   0  0  0  0  0  0  0  0  0  0  0  0
    2.5974   -0.1211    0.0003 C   0  0  0  0  0  0  0  0  0  0  0  0
    2.2708    1.2406    0.0002 C   0  0  0  0  0  0  0  0  0  0  0  0
   -4.2435    0.8382   -0.0003 C   0  0  0  0  0  0  0  0  0  0  0  0
  1 10  1  0
  2  9  1  0
  2 12  1  0
  3  6  1  0
  3  9  1  0
  4  5  1  0
  4  9  2  0
  5  6  2  0
  5  7  1  0
  6  8  1  0
  7 10  2  0
  8 11  2  0
 10 11  1  0
M  END
>  <PUBCHEM_COMPOUND_CID>  (1) 
46398

>  <PUBCHEM_CONFORMER_RMSD>  (1) 
0.4

>  <PUBCHEM_CONFORMER_DIVERSEORDER>  (1) 
1
5
3
2
4

>  <PUBCHEM_MMFF94_PARTIAL_CHARGES>  (1) 
15
1 -0.18
10 0.18
11 -0.15
12 0.23
13 0.15
14 0.15
15 0.15
2 -0.29
3 -0.28
4 -0.57
5 0.23
6 0.14
7 -0.15
8 -0.15
9 0.53

>  <PUBCHEM_EFFECTIVE_ROTOR_COUNT>  (1) 
1

>  <PUBCHEM_PHARMACOPHORE_FEATURES>  (1) 
3
1 12 hydrophobe
5 3 4 5 6 9 rings
6 5 6 7 8 10 11 rings

>  <PUBCHEM_HEAVY_ATOM_COUNT>  (1) 
12

>  <PUBCHEM_ATOM_DEF_STEREO_COUNT>  (1) 
0

>  <PUBCHEM_ATOM_UDEF_STEREO_COUNT>  (1) 
0

>  <PUBCHEM_BOND_DEF_STEREO_COUNT>  (1) 
0

>  <PUBCHEM_BOND_UDEF_STEREO_COUNT>  (1) 
0

>  <PUBCHEM_ISOTOPIC_ATOM_COUNT>  (1) 
0

>  <PUBCHEM_COMPONENT_COUNT>  (1) 
1

>  <PUBCHEM_CACTVS_TAUTO_COUNT>  (1) 
1

>  <PUBCHEM_CONFORMER_ID>  (1) 
0000B53E00000001

>  <PUBCHEM_MMFF94_ENERGY>  (1) 
16.1609

>  <PUBCHEM_FEATURE_SELFOVERLAP>  (1) 
15.341

>  <PUBCHEM_SHAPE_FINGERPRINT>  (1) 
10130415 120 18407755945682080168
10219947 1 18272936028733505526
10608611 8 18337387244644317733
11401426 45 18343014493198624558
11471102 20 18410570703880950125
12032990 46 18410579482936670702
12932764 1 16878208853394143211
13380535 76 18411983554932565495
13690532 89 18410573981014973250
13922767 16 18342735221619414105
14325111 11 18410574037123705281
14911166 2 18410296904263985654
14993402 34 18341896285567763646
15536298 74 18271525394344340448
16945 1 18410574002500222822
18186145 218 18040989661687615271
18522853 276 18342455932955117488
193761 8 17618221711041827906
200 152 17989200452216683807
20201158 50 18410576179980310482
20645477 70 18413388739213934607
20871998 22 18199193897420504302
21501502 16 18194119844141326247
23402539 116 18202273693434067662
23402655 69 18269261393045694789
23463225 33 18408885127065314454
23552423 10 18117277171436295966
23559900 14 18341895208569974988
2748010 2 18121784103810692510
5104073 3 18410856598415835009
528886 8 18411695499928430674
53655031 270 18411700950226053120
53812653 166 18411414003482112864
7364860 26 18198624522333307464
8809292 202 18187088402931315387

>  <PUBCHEM_SHAPE_MULTIPOLES>  (1) 
241.82
6.86
1.52
0.61
2.19
0.26
0
-0.47
0
-0.12
0
0
-0.01
0

>  <PUBCHEM_SHAPE_SELFOVERLAP>  (1) 
500.139

>  <PUBCHEM_SHAPE_VOLUME>  (1) 
142.6

>  <PUBCHEM_COORDINATE_TYPE>  (1) 
2
5
10

$$$$
