4640
     RDKit          3D

 28 31  0  0  0  0  0  0  0  0999 V2000
   -3.9882    3.0089    0.2696 O   0  0  0  0  0  0  0  0  0  0  0  0
   -6.4149    1.8491   -0.3794 O   0  0  0  0  0  0  0  0  0  0  0  0
    1.5975   -1.2556   -0.1884 N   0  0  0  0  0  0  0  0  0  0  0  0
    4.1949   -0.0711   -0.0919 N   0  0  0  0  0  0  0  0  0  0  0  0
   -4.1131   -2.4550   -0.1701 N   0  0  0  0  0  0  0  0  0  0  0  0
    1.8433   -0.0700    0.6415 C   0  0  0  0  0  0  0  0  0  0  0  0
    2.4351   -1.2043   -1.3930 C   0  0  0  0  0  0  0  0  0  0  0  0
    0.1834   -1.3443   -0.5503 C   0  0  0  0  0  0  0  0  0  0  0  0
    3.3097    0.0044    1.0743 C   0  0  0  0  0  0  0  0  0  0  0  0
    3.9208   -1.1689   -1.0276 C   0  0  0  0  0  0  0  0  0  0  0  0
   -0.6956   -1.4931    0.6940 C   0  0  0  0  0  0  0  0  0  0  0  0
   -2.1508   -1.6100    0.3480 C   0  0  0  0  0  0  0  0  0  0  0  0
   -3.0510   -0.5324    0.2204 C   0  0  0  0  0  0  0  0  0  0  0  0
    5.5095    0.3992    0.0031 C   0  0  0  0  0  0  0  0  0  0  0  0
   -2.8116   -2.7773    0.1072 C   0  0  0  0  0  0  0  0  0  0  0  0
   -4.2880   -1.0909   -0.1083 C   0  0  0  0  0  0  0  0  0  0  0  0
   -2.9514    0.8672    0.3489 C   0  0  0  0  0  0  0  0  0  0  0  0
   -2.3598   -4.1817    0.1072 C   0  0  0  0  0  0  0  0  0  0  0  0
    6.2084    0.3576    1.2259 C   0  0  0  0  0  0  0  0  0  0  0  0
    6.1743    0.9278   -1.1214 C   0  0  0  0  0  0  0  0  0  0  0  0
   -5.4350   -0.3167   -0.3158 C   0  0  0  0  0  0  0  0  0  0  0  0
   -4.0905    1.6543    0.1442 C   0  0  0  0  0  0  0  0  0  0  0  0
   -5.3122    1.0694   -0.1831 C   0  0  0  0  0  0  0  0  0  0  0  0
    7.5191    0.8256    1.3207 C   0  0  0  0  0  0  0  0  0  0  0  0
    7.4850    1.3957   -1.0268 C   0  0  0  0  0  0  0  0  0  0  0  0
    8.1573    1.3446    0.1943 C   0  0  0  0  0  0  0  0  0  0  0  0
   -3.6535    3.7431   -0.9054 C   0  0  0  0  0  0  0  0  0  0  0  0
   -7.2225    2.1246    0.7620 C   0  0  0  0  0  0  0  0  0  0  0  0
  1 22  1  0
  1 27  1  0
  2 23  1  0
  2 28  1  0
  3  6  1  0
  3  7  1  0
  3  8  1  0
  4  9  1  0
  4 10  1  0
  4 14  1  0
  5 15  1  0
  5 16  1  0
  6  9  1  0
  7 10  1  0
  8 11  1  0
 11 12  1  0
 12 13  1  0
 12 15  2  0
 13 16  2  0
 13 17  1  0
 14 19  2  0
 14 20  1  0
 15 18  1  0
 16 21  1  0
 17 22  2  0
 19 24  1  0
 20 25  2  0
 21 23  2  0
 22 23  1  0
 24 26  2  0
 25 26  1  0
M  END
>  <PUBCHEM_COMPOUND_CID>  (1) 
4640

>  <PUBCHEM_CONFORMER_RMSD>  (1) 
0.8

>  <PUBCHEM_CONFORMER_DIVERSEORDER>  (1) 
1
42
6
26
106
111
60
23
68
75
52
109
108
74
10
76
66
11
73
22
107
103
92
67
86
79
40
72
41
39
27
100
98
56
83
97
31
50
18
57
90
47
93
63
64
101
104
12
94
82
30
37
5
34
70
21
96
25
58
85
69
99
17
78
55
65
110
36
71
8
13
24
102
49
43
48
20
84
4
32
59
54
53
7
2
61
87
45
51
14
88
80
105
19
33
44
38
35
62
77
89
9
95
29
81
28
3
46
15
91
16

>  <PUBCHEM_MMFF94_PARTIAL_CHARGES>  (1) 
35
1 -0.36
10 0.37
11 0.18
12 -0.18
14 0.1
15 -0.33
16 -0.15
17 -0.15
18 0.18
19 -0.15
2 -0.36
20 -0.15
21 -0.15
22 0.08
23 0.08
24 -0.15
25 -0.15
26 -0.15
27 0.28
28 0.28
3 -0.81
4 -0.84
41 0.27
42 0.15
46 0.15
47 0.15
48 0.15
49 0.15
5 0.03
50 0.15
51 0.15
6 0.27
7 0.27
8 0.27
9 0.37

>  <PUBCHEM_EFFECTIVE_ROTOR_COUNT>  (1) 
7.2

>  <PUBCHEM_PHARMACOPHORE_FEATURES>  (1) 
10
1 1 acceptor
1 2 acceptor
1 3 cation
1 4 cation
1 5 cation
1 5 donor
5 5 12 13 15 16 rings
6 13 16 17 21 22 23 rings
6 14 19 20 24 25 26 rings
6 3 4 6 7 9 10 rings

>  <PUBCHEM_HEAVY_ATOM_COUNT>  (1) 
28

>  <PUBCHEM_ATOM_DEF_STEREO_COUNT>  (1) 
0

>  <PUBCHEM_ATOM_UDEF_STEREO_COUNT>  (1) 
0

>  <PUBCHEM_BOND_DEF_STEREO_COUNT>  (1) 
0

>  <PUBCHEM_BOND_UDEF_STEREO_COUNT>  (1) 
0

>  <PUBCHEM_ISOTOPIC_ATOM_COUNT>  (1) 
0

>  <PUBCHEM_COMPONENT_COUNT>  (1) 
1

>  <PUBCHEM_CACTVS_TAUTO_COUNT>  (1) 
1

>  <PUBCHEM_CONFORMER_ID>  (1) 
0000122000000001

>  <PUBCHEM_MMFF94_ENERGY>  (1) 
94.1562

>  <PUBCHEM_FEATURE_SELFOVERLAP>  (1) 
50.846

>  <PUBCHEM_SHAPE_FINGERPRINT>  (1) 
10 15 18260270737213550649
100830 39 18409164411772546264
10087517 78 18334010601100649188
10190206 1 18271512179484852183
10411042 1 17905889541907132403
10816530 145 17313100899552554479
10835480 77 18202566168228276458
10883706 163 18186800270671400557
11315181 36 17895190077427372647
11991303 11 16845008043669382318
12236239 1 17603862343066536218
12838862 33 18262506019269226949
13911987 19 16630528431689042879
14598715 104 18059843013945861624
14739800 52 18337377267303317130
14856354 85 18264774427072651350
15183329 4 18410576202040664200
15328684 2 17969202539046800240
155225 5 18339361842578847096
15604295 49 18197774613400540336
1577012 14 18113899386301666890
15876981 60 18189055472277882735
16126227 98 18341620270286102105
16989713 51 17487331783965051367
17980427 23 18040438832026733846
18608769 82 18411423938612244555
20771845 165 18271536294766110287
21033648 29 18336277764460972159
21150785 3 12391514213786464434
21307412 95 9655277209129184905
21792961 116 17918003771937054730
22122407 14 17968953014733282172
23081809 10 17822569529979566386
23522609 53 17604164713475685716
23559900 14 18202275944071206409
23569914 152 16337534752555114132
24771293 8 18341052927019181357
3411729 13 18335980888101134706
397830 11 11242259601748763230
4073 2 18261115205674247458
44249763 50 17846203506253000094
44555599 121 17967818297279608972
445580 37 18410302436598600748
59567204 34 18411418423046203985
5969126 39 18128249189940036695
6327066 14 18335979771308592565
636775 72 18413668023937166104
6700243 42 17622487060207088895
7808743 9 18408882915225657603
999808 66 12103560939902291877

>  <PUBCHEM_SHAPE_MULTIPOLES>  (1) 
549.55
22.53
3.58
1.09
29.31
0.5
0.03
-16.48
-1.26
-7.61
0.4
1.55
-0.15
0.26

>  <PUBCHEM_SHAPE_SELFOVERLAP>  (1) 
1179.965

>  <PUBCHEM_SHAPE_VOLUME>  (1) 
306.5

>  <PUBCHEM_COORDINATE_TYPE>  (1) 
2
5
10

$$$$
