46401
     RDKit          3D

 19 21  0  0  1  0  0  0  0  0999 V2000
   -0.9684    1.2345   -0.0116 O   0  0  0  0  0  0  0  0  0  0  0  0
    4.7211   -0.3501    2.0352 O   0  0  0  0  0  0  0  0  0  0  0  0
   -0.5538   -0.9895   -0.1499 N   0  0  0  0  0  0  0  0  0  0  0  0
    4.4032   -0.2119   -0.3604 C   0  0  0  0  0  0  0  0  0  0  0  0
    2.9785    0.2259   -0.2653 C   0  0  0  0  0  0  0  0  0  0  0  0
    1.9619   -0.7403   -0.2645 C   0  0  0  0  0  0  0  0  0  0  0  0
    4.8421   -1.0955    0.8287 C   0  0  0  0  0  0  0  0  0  0  0  0
    0.6339   -0.2993   -0.1739 C   0  0  0  0  0  0  0  0  0  0  0  0
    4.6951   -0.9445   -1.6845 C   0  0  0  0  0  0  0  0  0  0  0  0
    2.6823    1.5918   -0.1785 C   0  0  0  0  0  0  0  0  0  0  0  0
    0.3841    1.0625   -0.0897 C   0  0  0  0  0  0  0  0  0  0  0  0
    1.3630    2.0485   -0.0876 C   0  0  0  0  0  0  0  0  0  0  0  0
   -1.4556   -0.0372   -0.0541 C   0  0  0  0  0  0  0  0  0  0  0  0
   -2.8869   -0.1445    0.0114 C   0  0  0  0  0  0  0  0  0  0  0  0
   -3.6746    1.0059    0.1108 C   0  0  0  0  0  0  0  0  0  0  0  0
   -3.5003   -1.4001   -0.0229 C   0  0  0  0  0  0  0  0  0  0  0  0
   -5.0641    0.9016    0.1753 C   0  0  0  0  0  0  0  0  0  0  0  0
   -4.8898   -1.5044    0.0413 C   0  0  0  0  0  0  0  0  0  0  0  0
   -5.6717   -0.3535    0.1403 C   0  0  0  0  0  0  0  0  0  0  0  0
  1 11  1  0
  1 13  1  0
  2  7  1  0
  3  8  1  0
  3 13  2  0
  4  5  1  0
  4  7  1  0
  4  9  1  0
  5  6  2  0
  5 10  1  0
  6  8  1  0
  8 11  2  0
 10 12  2  0
 11 12  1  0
 13 14  1  0
 14 15  2  0
 14 16  1  0
 15 17  1  0
 16 18  2  0
 17 19  2  0
 18 19  1  0
M  END
>  <PUBCHEM_COMPOUND_CID>  (1) 
46401

>  <PUBCHEM_CONFORMER_RMSD>  (1) 
0.6

>  <PUBCHEM_CONFORMER_DIVERSEORDER>  (1) 
1
8
3
5
2
4
7
6

>  <PUBCHEM_MMFF94_PARTIAL_CHARGES>  (1) 
27
1 -0.28
10 -0.15
11 0.14
12 -0.15
13 0.43
14 0.05
15 -0.15
16 -0.15
17 -0.15
18 -0.15
19 -0.15
2 -0.68
21 0.15
27 0.15
28 0.15
29 0.4
3 -0.57
30 0.15
31 0.15
32 0.15
33 0.15
34 0.15
4 0.14
5 -0.14
6 -0.15
7 0.28
8 0.23

>  <PUBCHEM_EFFECTIVE_ROTOR_COUNT>  (1) 
3

>  <PUBCHEM_PHARMACOPHORE_FEATURES>  (1) 
6
1 2 acceptor
1 2 donor
1 9 hydrophobe
5 1 3 8 11 13 rings
6 14 15 16 17 18 19 rings
6 5 6 8 10 11 12 rings

>  <PUBCHEM_HEAVY_ATOM_COUNT>  (1) 
19

>  <PUBCHEM_ATOM_DEF_STEREO_COUNT>  (1) 
0

>  <PUBCHEM_ATOM_UDEF_STEREO_COUNT>  (1) 
1

>  <PUBCHEM_BOND_DEF_STEREO_COUNT>  (1) 
0

>  <PUBCHEM_BOND_UDEF_STEREO_COUNT>  (1) 
0

>  <PUBCHEM_ISOTOPIC_ATOM_COUNT>  (1) 
0

>  <PUBCHEM_COMPONENT_COUNT>  (1) 
1

>  <PUBCHEM_CACTVS_TAUTO_COUNT>  (1) 
1

>  <PUBCHEM_CONFORMER_ID>  (1) 
0000B54100000001

>  <PUBCHEM_MMFF94_ENERGY>  (1) 
42.5636

>  <PUBCHEM_FEATURE_SELFOVERLAP>  (1) 
30.564

>  <PUBCHEM_SHAPE_FINGERPRINT>  (1) 
10014705 185 11095898046987459475
11405975 8 18409732897906839185
11796584 16 17240203226975776090
12107183 9 17760084017278156801
12236239 1 17821731619559715534
13167823 11 18410575132335227519
13288520 33 18412269428171610567
13533116 47 16056608616756315806
13675066 3 17775283867572751668
13760787 5 17022624169326185022
13862211 1 18409727361361990231
14252887 29 17846504707956453070
14341114 176 18338244855282135113
15196674 1 18411421751967299981
15536298 74 18342459287087335061
15788980 27 18040436594564672761
15885798 251 18408039598313133432
17349148 13 18411422816918475969
17857418 61 18186793686528083651
17862501 102 18410572890177500881
1813 80 17821451252853515892
18186145 218 18040991882206819365
18222031 100 18341619200559176508
19141452 34 17918273168727173455
19784866 140 14201391655839732404
200 152 18060422426075969221
20028762 73 18201717413892950943
20369508 70 18260826025420075692
20374829 77 18334574642297224437
20645477 70 18411986883779704804
21033648 29 16844994720142635945
21267235 1 18339372937216993439
21682296 61 17559410071028420798
221490 88 18193003827159849523
22646028 1 18259702302428519514
23402539 116 18272084998834658589
23522609 53 17898038804628348877
23536379 177 16225764090699962623
23557571 272 18129955459306223836
23559900 14 18342459278529023032
239999 70 18273501169879961838
26918003 58 18272088301384823729
29717793 49 18202566185582264933
3004659 81 18261398845234503012
335352 9 18411140217166976685
3411729 13 18268141153869292736
3545911 37 18411423895646331221
4072396 5 18338507556661473866
4214541 1 18411421709386840117
4340502 62 14692854691849181693
4463277 17 18410859871613709796
465052 167 18334018302209177610
5104073 3 18339365270431378049
5374978 207 18342453755675801800
542803 24 14996002146903097719
559249 180 18335134259577771555
59755656 215 18336266752380739623
59755656 520 17095241424454098643
633830 44 17894910793136638485
7495541 125 18040438823246601980
77779 3 18339365261936316757
8863177 126 17824559684306208947
960060 61 17458069270139328870
9709674 26 18193282016703083867
9841814 1 18334571369922918552
9971528 1 17988927760479904340
9981440 41 17256806123033157865

>  <PUBCHEM_SHAPE_MULTIPOLES>  (1) 
374.29
12.81
1.64
0.98
4.62
0.41
-0.18
-3.82
-1.06
0.11
0.06
-1.74
-0.25
-0.05

>  <PUBCHEM_SHAPE_SELFOVERLAP>  (1) 
822.417

>  <PUBCHEM_SHAPE_VOLUME>  (1) 
203.5

>  <PUBCHEM_COORDINATE_TYPE>  (1) 
2
5
10

$$$$
