46405
     RDKit          3D

 13 14  0  0  0  0  0  0  0  0999 V2000
    1.5340    2.7258   -0.0021 Cl  0  0  0  0  0  0  0  0  0  0  0  0
   -0.1857   -3.3140   -0.0017 Cl  0  0  0  0  0  0  0  0  0  0  0  0
    3.7563    0.3570    0.0022 Cl  0  0  0  0  0  0  0  0  0  0  0  0
   -1.9951   -0.7738    0.0007 O   0  0  0  0  0  0  0  0  0  0  0  0
   -3.6175    0.8746    0.0004 O   0  0  0  0  0  0  0  0  0  0  0  0
   -1.3550    1.4336    0.0002 N   0  0  0  0  0  0  0  0  0  0  0  0
   -0.2125    0.6784   -0.0001 C   0  0  0  0  0  0  0  0  0  0  0  0
   -0.6152   -0.6397    0.0002 C   0  0  0  0  0  0  0  0  0  0  0  0
    1.1107    1.0573   -0.0005 C   0  0  0  0  0  0  0  0  0  0  0  0
    0.3005   -1.6695    0.0002 C   0  0  0  0  0  0  0  0  0  0  0  0
    2.0569    0.0297   -0.0003 C   0  0  0  0  0  0  0  0  0  0  0  0
    1.6555   -1.3223    0.0002 C   0  0  0  0  0  0  0  0  0  0  0  0
   -2.4330    0.5630    0.0006 C   0  0  0  0  0  0  0  0  0  0  0  0
  1  9  1  0
  2 10  1  0
  3 11  1  0
  4  8  1  0
  4 13  1  0
  5 13  2  0
  6  7  1  0
  6 13  1  0
  7  8  2  0
  7  9  1  0
  8 10  1  0
  9 11  2  0
 10 12  2  0
 11 12  1  0
M  END
>  <PUBCHEM_COMPOUND_CID>  (1) 
46405

>  <PUBCHEM_CONFORMER_RMSD>  (1) 
0.4

>  <PUBCHEM_CONFORMER_DIVERSEORDER>  (1) 
1

>  <PUBCHEM_MMFF94_PARTIAL_CHARGES>  (1) 
15
1 -0.18
10 0.18
11 0.18
12 -0.15
13 0.78
14 0.37
15 0.15
2 -0.18
3 -0.18
4 -0.23
5 -0.57
6 -0.55
7 0.12
8 0.08
9 0.18

>  <PUBCHEM_EFFECTIVE_ROTOR_COUNT>  (1) 
0

>  <PUBCHEM_PHARMACOPHORE_FEATURES>  (1) 
4
1 5 acceptor
1 6 donor
5 4 6 7 8 13 rings
6 7 8 9 10 11 12 rings

>  <PUBCHEM_HEAVY_ATOM_COUNT>  (1) 
13

>  <PUBCHEM_ATOM_DEF_STEREO_COUNT>  (1) 
0

>  <PUBCHEM_ATOM_UDEF_STEREO_COUNT>  (1) 
0

>  <PUBCHEM_BOND_DEF_STEREO_COUNT>  (1) 
0

>  <PUBCHEM_BOND_UDEF_STEREO_COUNT>  (1) 
0

>  <PUBCHEM_ISOTOPIC_ATOM_COUNT>  (1) 
0

>  <PUBCHEM_COMPONENT_COUNT>  (1) 
1

>  <PUBCHEM_CACTVS_TAUTO_COUNT>  (1) 
2

>  <PUBCHEM_CONFORMER_ID>  (1) 
0000B54500000001

>  <PUBCHEM_MMFF94_ENERGY>  (1) 
33.6596

>  <PUBCHEM_FEATURE_SELFOVERLAP>  (1) 
20.413

>  <PUBCHEM_SHAPE_FINGERPRINT>  (1) 
1 1 18410291380746158343
10967382 1 18338797810398252710
11471102 20 18338230445603625117
12423570 1 11063846693920335980
13380535 76 18410292505911778994
13380536 305 18411143536501501844
14993402 34 18410012135142375836
16945 1 18338797926488859814
193761 8 17978228593007463940
20511035 2 17970080030576715044
20588541 1 18335425616688550853
20645476 183 17895776091776933238
20645477 70 18194394490874345487
20871998 184 17984147234072389382
21040471 1 18338799043043141764
21501502 16 17977665634685803564
2334 1 17978511162937084485
23402539 116 18271795809959423822
23402655 69 18268697330616720029
23463225 33 18262795147550104570
23559900 14 18342747351794163300
241688 4 17329713119772504043
2748010 2 17834958950874662630
5084963 1 18131070471470535560
528886 8 18411132519947083584
53812653 166 18341889693151719000
54173680 148 18121500421363664762
7364860 26 18053099523584128974
81228 2 17614557468378158403

>  <PUBCHEM_SHAPE_MULTIPOLES>  (1) 
256.42
4.29
2.97
0.61
0.22
1.51
0
-1.79
0
-0.09
0
0.07
0.02
0

>  <PUBCHEM_SHAPE_SELFOVERLAP>  (1) 
537.085

>  <PUBCHEM_SHAPE_VOLUME>  (1) 
149.8

>  <PUBCHEM_COORDINATE_TYPE>  (1) 
2
5
10

$$$$
