46404
     RDKit          3D

 12 13  0  0  0  0  0  0  0  0999 V2000
    3.3673    1.4775   -0.0001 Cl  0  0  0  0  0  0  0  0  0  0  0  0
   -1.8775   -1.1321    0.0002 O   0  0  0  0  0  0  0  0  0  0  0  0
   -3.8559    0.0662   -0.0003 O   0  0  0  0  0  0  0  0  0  0  0  0
   -1.8008    1.1650    0.0001 N   0  0  0  0  0  0  0  0  0  0  0  0
    2.9818   -1.5370   -0.0004 N   0  0  0  0  0  0  0  0  0  0  0  0
   -0.5075    0.7144   -0.0001 C   0  0  0  0  0  0  0  0  0  0  0  0
   -0.5732   -0.6623    0.0000 C   0  0  0  0  0  0  0  0  0  0  0  0
    0.5678   -1.4348    0.0001 C   0  0  0  0  0  0  0  0  0  0  0  0
    0.6817    1.4075   -0.0001 C   0  0  0  0  0  0  0  0  0  0  0  0
    1.7957   -0.7646    0.0004 C   0  0  0  0  0  0  0  0  0  0  0  0
    1.8518    0.6446    0.0002 C   0  0  0  0  0  0  0  0  0  0  0  0
   -2.6312    0.0558    0.0001 C   0  0  0  0  0  0  0  0  0  0  0  0
  1 11  1  0
  2  7  1  0
  2 12  1  0
  3 12  2  0
  4  6  1  0
  4 12  1  0
  5 10  1  0
  6  7  2  0
  6  9  1  0
  7  8  1  0
  8 10  2  0
  9 11  2  0
 10 11  1  0
M  END
>  <PUBCHEM_COMPOUND_CID>  (1) 
46404

>  <PUBCHEM_CONFORMER_RMSD>  (1) 
0.4

>  <PUBCHEM_CONFORMER_DIVERSEORDER>  (1) 
1

>  <PUBCHEM_MMFF94_PARTIAL_CHARGES>  (1) 
17
1 -0.18
10 0.1
11 0.18
12 0.78
13 0.15
14 0.15
15 0.37
16 0.4
17 0.4
2 -0.23
3 -0.57
4 -0.55
5 -0.9
6 0.12
7 0.08
8 -0.15
9 -0.15

>  <PUBCHEM_EFFECTIVE_ROTOR_COUNT>  (1) 
0

>  <PUBCHEM_PHARMACOPHORE_FEATURES>  (1) 
6
1 3 acceptor
1 4 donor
1 5 cation
1 5 donor
5 2 4 6 7 12 rings
6 6 7 8 9 10 11 rings

>  <PUBCHEM_HEAVY_ATOM_COUNT>  (1) 
12

>  <PUBCHEM_ATOM_DEF_STEREO_COUNT>  (1) 
0

>  <PUBCHEM_ATOM_UDEF_STEREO_COUNT>  (1) 
0

>  <PUBCHEM_BOND_DEF_STEREO_COUNT>  (1) 
0

>  <PUBCHEM_BOND_UDEF_STEREO_COUNT>  (1) 
0

>  <PUBCHEM_ISOTOPIC_ATOM_COUNT>  (1) 
0

>  <PUBCHEM_COMPONENT_COUNT>  (1) 
1

>  <PUBCHEM_CACTVS_TAUTO_COUNT>  (1) 
2

>  <PUBCHEM_CONFORMER_ID>  (1) 
0000B54400000001

>  <PUBCHEM_MMFF94_ENERGY>  (1) 
44.3798

>  <PUBCHEM_FEATURE_SELFOVERLAP>  (1) 
30.561

>  <PUBCHEM_SHAPE_FINGERPRINT>  (1) 
10608611 8 18408317765917132421
11471102 20 18410569574673809909
12032990 46 18338241461725370699
13380535 21 18338245967267195122
13380535 76 18337388356977349098
14325111 11 18410856564098495045
14576447 43 17913754283749202407
14897335 6 18340200890356552164
15219456 202 18261667099869600117
15536298 74 18343584040844187806
15775835 57 18271247217475167220
16945 1 18338799051596308996
193761 8 17834113039743408324
20645477 70 18411976928130266023
21040471 1 18266741462032572996
21501502 16 18340489958666981385
21501925 9 18337659833275476098
23235685 24 18337385053878602944
23402655 69 18341601617332501109
23463225 33 18409164385870477466
23552423 10 18334013882613723618
2748010 2 18409730647069610804
369184 2 18411698781394123513
5084963 1 18271804571091405306
528886 8 18339074994591761096
53812653 166 18199746002433803752
63268167 104 18412547621418903649
7364860 26 18343302548751047942

>  <PUBCHEM_SHAPE_MULTIPOLES>  (1) 
227.12
5.07
1.68
0.59
1.26
0.17
0
-0.71
0
-1.05
0
-0.05
-0.02
0

>  <PUBCHEM_SHAPE_SELFOVERLAP>  (1) 
492.192

>  <PUBCHEM_SHAPE_VOLUME>  (1) 
127.4

>  <PUBCHEM_COORDINATE_TYPE>  (1) 
2
5
10

$$$$
