46411
     RDKit          3D

 14 13  0  0  0  0  0  0  0  0999 V2000
   -0.7185    1.1276    1.0509 O   0  0  0  0  0  0  0  0  0  0  0  0
   -1.2723   -0.9086   -0.0291 O   0  0  0  0  0  0  0  0  0  0  0  0
   -0.1280   -0.0203   -2.2149 O   0  0  0  0  0  0  0  0  0  0  0  0
    1.0602   -0.1567   -0.0536 C   0  0  0  0  0  0  0  0  0  0  0  0
   -0.2926   -0.2090    0.7517 C   0  0  0  0  0  0  0  0  0  0  0  0
    2.1498    0.6043    0.7668 C   0  0  0  0  0  0  0  0  0  0  0  0
    1.4866   -1.6272   -0.3679 C   0  0  0  0  0  0  0  0  0  0  0  0
    0.8647    0.5953   -1.4044 C   0  0  0  0  0  0  0  0  0  0  0  0
    3.5139    0.7277    0.0971 C   0  0  0  0  0  0  0  0  0  0  0  0
    1.7547   -2.5259    0.8346 C   0  0  0  0  0  0  0  0  0  0  0  0
   -0.9829    1.9069   -0.1056 C   0  0  0  0  0  0  0  0  0  0  0  0
   -2.5276   -1.0280    0.6268 C   0  0  0  0  0  0  0  0  0  0  0  0
   -1.4224    3.2909    0.3225 C   0  0  0  0  0  0  0  0  0  0  0  0
   -3.4857   -1.7770   -0.2748 C   0  0  0  0  0  0  0  0  0  0  0  0
  1  5  1  0
  1 11  1  0
  2  5  1  0
  2 12  1  0
  3  8  1  0
  4  5  1  0
  4  6  1  0
  4  7  1  0
  4  8  1  0
  6  9  1  0
  7 10  1  0
 11 13  1  0
 12 14  1  0
M  END
>  <PUBCHEM_COMPOUND_CID>  (1) 
46411

>  <PUBCHEM_CONFORMER_RMSD>  (1) 
0.8

>  <PUBCHEM_CONFORMER_DIVERSEORDER>  (1) 
4
6
2
5
8
1
7
3

>  <PUBCHEM_MMFF94_PARTIAL_CHARGES>  (1) 
8
1 -0.56
11 0.28
12 0.28
2 -0.56
28 0.4
3 -0.68
5 0.56
8 0.28

>  <PUBCHEM_EFFECTIVE_ROTOR_COUNT>  (1) 
8

>  <PUBCHEM_PHARMACOPHORE_FEATURES>  (1) 
6
1 1 acceptor
1 10 hydrophobe
1 2 acceptor
1 3 acceptor
1 3 donor
1 9 hydrophobe

>  <PUBCHEM_HEAVY_ATOM_COUNT>  (1) 
14

>  <PUBCHEM_ATOM_DEF_STEREO_COUNT>  (1) 
0

>  <PUBCHEM_ATOM_UDEF_STEREO_COUNT>  (1) 
0

>  <PUBCHEM_BOND_DEF_STEREO_COUNT>  (1) 
0

>  <PUBCHEM_BOND_UDEF_STEREO_COUNT>  (1) 
0

>  <PUBCHEM_ISOTOPIC_ATOM_COUNT>  (1) 
0

>  <PUBCHEM_COMPONENT_COUNT>  (1) 
1

>  <PUBCHEM_CACTVS_TAUTO_COUNT>  (1) 
1

>  <PUBCHEM_CONFORMER_ID>  (1) 
0000B54B00000004

>  <PUBCHEM_MMFF94_ENERGY>  (1) 
64.8188

>  <PUBCHEM_FEATURE_SELFOVERLAP>  (1) 
30.493

>  <PUBCHEM_SHAPE_FINGERPRINT>  (1) 
10219947 1 18115023151013982738
12423570 1 16901379858153003581
13380536 237 18266170635061807640
14993402 34 17823706458966559134
16945 1 18261682557430401130
19010151 120 18270124659100237041
193761 8 18266459802256302290
20473742 2 17758943114903057045
20511035 2 17770761443425495792
20711985 327 18126857212038530569
20711985 344 18055385494531686903
21501502 16 18190459364148537186
23402539 116 18200028580984818782
23419403 2 17610302263889813685
3250762 1 18198064672902726942
4369600 1 17907049461378384381
5084963 1 18059869397518308800
53812654 72 17902499394505301450
57177213 63 18334587836600262026
589210 1 18265895752743799898
68250623 7 18266739078304702786
68419 9 17753934628900731069
81228 2 18334867078115267161

>  <PUBCHEM_SHAPE_MULTIPOLES>  (1) 
270.51
4.19
2.92
1.27
0.44
1.25
0.64
-1.48
-0.43
1.32
-0.58
-0.11
0.04
-0.34

>  <PUBCHEM_SHAPE_SELFOVERLAP>  (1) 
502.45

>  <PUBCHEM_SHAPE_VOLUME>  (1) 
169

>  <PUBCHEM_COORDINATE_TYPE>  (1) 
2
5
10

$$$$
