46414
     RDKit          3D

 15 15  0  0  1  0  0  0  0  0999 V2000
   -1.4004   -1.5104   -1.6708 O   0  0  0  0  0  0  0  0  0  0  0  0
    3.3080    1.6331   -0.8306 O   0  0  0  0  0  0  0  0  0  0  0  0
    4.1909   -0.3229    0.9350 O   0  0  0  0  0  0  0  0  0  0  0  0
   -3.5343   -0.3369   -0.2589 N   0  0  0  0  0  0  0  0  0  0  0  0
   -2.1719   -0.2371    0.2813 C   0  0  0  0  0  0  0  0  0  0  0  0
   -1.1522   -0.3486   -0.8803 C   0  0  0  0  0  0  0  0  0  0  0  0
   -2.0361    1.0670    1.0926 C   0  0  0  0  0  0  0  0  0  0  0  0
    0.2854   -0.3389   -0.3938 C   0  0  0  0  0  0  0  0  0  0  0  0
   -2.2077    2.3225    0.2439 C   0  0  0  0  0  0  0  0  0  0  0  0
    1.1385    0.6515   -0.8418 C   0  0  0  0  0  0  0  0  0  0  0  0
    0.7035   -1.3211    0.4837 C   0  0  0  0  0  0  0  0  0  0  0  0
   -4.5117   -0.2840    0.8139 C   0  0  0  0  0  0  0  0  0  0  0  0
    2.4600    0.6602   -0.3952 C   0  0  0  0  0  0  0  0  0  0  0  0
    2.0248   -1.3125    0.9302 C   0  0  0  0  0  0  0  0  0  0  0  0
    2.9030   -0.3219    0.4909 C   0  0  0  0  0  0  0  0  0  0  0  0
  1  6  1  0
  2 13  1  0
  3 15  1  0
  4  5  1  0
  4 12  1  0
  5  6  1  0
  5  7  1  0
  6  8  1  0
  7  9  1  0
  8 10  2  0
  8 11  1  0
 10 13  1  0
 11 14  2  0
 13 15  2  0
 14 15  1  0
M  END
>  <PUBCHEM_COMPOUND_CID>  (1) 
46414

>  <PUBCHEM_CONFORMER_RMSD>  (1) 
0.6

>  <PUBCHEM_CONFORMER_DIVERSEORDER>  (1) 
7
28
44
48
53
38
23
3
36
51
10
29
33
49
58
54
56
42
37
27
14
46
8
20
55
60
35
1
15
40
22
2
57
11
34
52
45
26
50
9
59
41
21
18
16
12
30
47
19
39
32
43
13
31
17
24
6
25
5
4

>  <PUBCHEM_MMFF94_PARTIAL_CHARGES>  (1) 
20
1 -0.68
10 -0.15
11 -0.15
12 0.27
13 0.08
14 -0.15
15 0.08
2 -0.53
20 0.36
24 0.15
25 0.15
26 0.4
3 -0.53
30 0.15
31 0.45
32 0.45
4 -0.9
5 0.27
6 0.42
8 -0.14

>  <PUBCHEM_EFFECTIVE_ROTOR_COUNT>  (1) 
4

>  <PUBCHEM_PHARMACOPHORE_FEATURES>  (1) 
8
1 1 acceptor
1 1 donor
1 2 donor
1 3 donor
1 4 cation
1 4 donor
1 9 hydrophobe
6 8 10 11 13 14 15 rings

>  <PUBCHEM_HEAVY_ATOM_COUNT>  (1) 
15

>  <PUBCHEM_ATOM_DEF_STEREO_COUNT>  (1) 
0

>  <PUBCHEM_ATOM_UDEF_STEREO_COUNT>  (1) 
2

>  <PUBCHEM_BOND_DEF_STEREO_COUNT>  (1) 
0

>  <PUBCHEM_BOND_UDEF_STEREO_COUNT>  (1) 
0

>  <PUBCHEM_ISOTOPIC_ATOM_COUNT>  (1) 
0

>  <PUBCHEM_COMPONENT_COUNT>  (1) 
1

>  <PUBCHEM_CACTVS_TAUTO_COUNT>  (1) 
10

>  <PUBCHEM_CONFORMER_ID>  (1) 
0000B54E00000007

>  <PUBCHEM_MMFF94_ENERGY>  (1) 
34.2243

>  <PUBCHEM_FEATURE_SELFOVERLAP>  (1) 
40.604

>  <PUBCHEM_SHAPE_FINGERPRINT>  (1) 
11132069 177 17703795821117083351
11471102 22 17458343014000800818
12162725 195 18334298638760884329
12251169 10 18260266334808827042
12507560 40 18198904712539432971
12932764 1 17703781514000921114
13538477 17 18341609377552492615
13581323 91 17917704691071570870
14787075 74 17686357755425941987
15219456 202 14620794941716500166
15342168 16 17460888533685325788
15375462 478 18408603639129829453
15775835 57 18343028804077381113
16945 1 17989202668018855981
18175812 5 16298390179473212722
200 152 18260537936109300791
20279233 1 15068627097230394136
20281407 28 14996289101867726874
20559304 39 18410858750331748832
20645477 56 17489584584684495666
22112679 90 18058156405388288007
22802520 49 15481568372887448464
23048698 100 18187367644366464392
23402539 116 17418081118673970101
23557571 272 16485840509782014474
26918003 58 17894632561139850499
276578 36 17632303345564332679
3286 77 17530965774021149570
474 4 17973727166787299372
77492 1 18412819213728698127
81228 2 16914788570342909967

>  <PUBCHEM_SHAPE_MULTIPOLES>  (1) 
286.1
6.86
1.67
1.18
1.16
0.7
0.18
0.42
-1.82
0.16
0.02
0.11
-0.21
-0.97

>  <PUBCHEM_SHAPE_SELFOVERLAP>  (1) 
582.681

>  <PUBCHEM_SHAPE_VOLUME>  (1) 
167.1

>  <PUBCHEM_COORDINATE_TYPE>  (1) 
2
5
10

$$$$
