46433
     RDKit          3D

 15 14  0  0  1  0  0  0  0  0999 V2000
   -4.3232    0.2501   -0.7911 Cl  0  0  0  0  0  0  0  0  0  0  0  0
   -3.0818   -0.0337    1.8245 Cl  0  0  0  0  0  0  0  0  0  0  0  0
   -2.5517   -1.9837   -0.2742 Cl  0  0  0  0  0  0  0  0  0  0  0  0
    1.0468    0.9826   -1.4743 O   0  0  0  0  0  0  0  0  0  0  0  0
   -1.8782    1.9846   -0.1787 O   0  0  0  0  0  0  0  0  0  0  0  0
   -0.3742    0.2647    0.2116 N   0  0  0  0  0  0  0  0  0  0  0  0
    2.0273    0.0261    0.5285 C   0  0  0  0  0  0  0  0  0  0  0  0
    2.3883   -1.4679    0.2993 C   0  0  0  0  0  0  0  0  0  0  0  0
    3.2547    0.9387    0.3225 C   0  0  0  0  0  0  0  0  0  0  0  0
    0.8674    0.4833   -0.3648 C   0  0  0  0  0  0  0  0  0  0  0  0
    2.8618   -1.7833   -1.1227 C   0  0  0  0  0  0  0  0  0  0  0  0
    1.2438   -2.4100    0.6843 C   0  0  0  0  0  0  0  0  0  0  0  0
    2.9729    2.3869    0.7065 C   0  0  0  0  0  0  0  0  0  0  0  0
   -1.6338    0.6039   -0.4344 C   0  0  0  0  0  0  0  0  0  0  0  0
   -2.8201   -0.2425    0.0630 C   0  0  0  0  0  0  0  0  0  0  0  0
  1 15  1  0
  2 15  1  0
  3 15  1  0
  4 10  2  0
  5 14  1  0
  6 10  1  0
  6 14  1  0
  7  8  1  0
  7  9  1  0
  7 10  1  0
  8 11  1  0
  8 12  1  0
  9 13  1  0
 14 15  1  0
M  END
>  <PUBCHEM_COMPOUND_CID>  (1) 
46433

>  <PUBCHEM_CONFORMER_RMSD>  (1) 
0.6

>  <PUBCHEM_CONFORMER_DIVERSEORDER>  (1) 
1
31
37
15
30
18
33
39
46
5
35
21
28
44
6
43
10
8
42
29
16
32
41
36
12
45
22
17
14
25
20
9
7
27
38
13
40
19
34
11
26
24
2
23
3
4

>  <PUBCHEM_MMFF94_PARTIAL_CHARGES>  (1) 
12
1 -0.29
10 0.57
14 0.58
15 0.87
2 -0.29
29 0.37
3 -0.29
31 0.4
4 -0.57
5 -0.68
6 -0.73
7 0.06

>  <PUBCHEM_EFFECTIVE_ROTOR_COUNT>  (1) 
6

>  <PUBCHEM_PHARMACOPHORE_FEATURES>  (1) 
6
1 13 hydrophobe
1 4 acceptor
1 5 acceptor
1 5 donor
1 6 donor
3 8 11 12 hydrophobe

>  <PUBCHEM_HEAVY_ATOM_COUNT>  (1) 
15

>  <PUBCHEM_ATOM_DEF_STEREO_COUNT>  (1) 
0

>  <PUBCHEM_ATOM_UDEF_STEREO_COUNT>  (1) 
2

>  <PUBCHEM_BOND_DEF_STEREO_COUNT>  (1) 
0

>  <PUBCHEM_BOND_UDEF_STEREO_COUNT>  (1) 
0

>  <PUBCHEM_ISOTOPIC_ATOM_COUNT>  (1) 
0

>  <PUBCHEM_COMPONENT_COUNT>  (1) 
1

>  <PUBCHEM_CACTVS_TAUTO_COUNT>  (1) 
2

>  <PUBCHEM_CONFORMER_ID>  (1) 
0000B56100000001

>  <PUBCHEM_MMFF94_ENERGY>  (1) 
19.5061

>  <PUBCHEM_FEATURE_SELFOVERLAP>  (1) 
30.493

>  <PUBCHEM_SHAPE_FINGERPRINT>  (1) 
10922523 26 18040429967430096381
11132069 177 18265605657920875848
12382932 28 18338232777454336275
12932764 1 18411709759262077285
13032168 30 17982447406228309075
13296908 3 18040721363628338251
13533116 47 17917711280152952047
15375358 24 18040705996288120105
15375462 6 18341889697241172236
15775835 57 18343302604100397643
16945 1 18339638915350430418
18186145 218 18272098235491386968
19422 9 17704357653888644219
20279233 1 18040433291560807491
20523700 14 17676495994939415647
20645477 70 18341605984702376311
21524375 3 18127121108004437600
21730867 7 18413670218796432874
23048698 100 18131632275026333025
23559900 14 18341884186929688392
23598291 2 17987810608946768025
2748010 2 18187925040979867764
3248919 1 17132117922603235357
458136 41 18266194979300314840
58051976 378 18340480149277967596
581208 293 18409722980516135498
6049 1 18261683575168968497
7364860 26 18343581837325615420
74978 22 18270118989748752209
81228 2 17459464451379270229
81539 233 18338792424868115820
9709674 26 18411696586845618727

>  <PUBCHEM_SHAPE_MULTIPOLES>  (1) 
297.58
6.94
2.42
1.23
3.44
0.47
0.19
-0.64
0.06
-1.79
0.11
0.46
0.02
0.48

>  <PUBCHEM_SHAPE_SELFOVERLAP>  (1) 
538.739

>  <PUBCHEM_SHAPE_VOLUME>  (1) 
191.4

>  <PUBCHEM_COORDINATE_TYPE>  (1) 
2
5
10

$$$$
