46431
     RDKit          3D

 10  9  0  0  0  0  0  0  0  0999 V2000
    0.1119   -1.4325    1.3214 S   0  0  0  0  0  0  0  0  0  0  0  0
    1.4682    0.5027   -1.5699 O   0  0  0  0  0  0  0  0  0  0  0  0
    2.0966    0.8642    0.5926 N   0  0  0  0  0  0  0  0  0  0  0  0
   -0.1683    0.0005    0.1877 C   0  0  0  0  0  0  0  0  0  0  0  0
   -0.8555    1.1380    0.9928 C   0  0  0  0  0  0  0  0  0  0  0  0
   -1.1185   -0.4393   -0.9597 C   0  0  0  0  0  0  0  0  0  0  0  0
    1.1910    0.4711   -0.3715 C   0  0  0  0  0  0  0  0  0  0  0  0
   -1.1246    2.4314    0.2257 C   0  0  0  0  0  0  0  0  0  0  0  0
   -2.4729   -1.0016   -0.5333 C   0  0  0  0  0  0  0  0  0  0  0  0
    0.8722   -2.5347    0.1143 C   0  0  0  0  0  0  0  0  0  0  0  0
  1  4  1  0
  1 10  1  0
  2  7  2  0
  3  7  1  0
  4  5  1  0
  4  6  1  0
  4  7  1  0
  5  8  1  0
  6  9  1  0
M  END
>  <PUBCHEM_COMPOUND_CID>  (1) 
46431

>  <PUBCHEM_CONFORMER_RMSD>  (1) 
0.6

>  <PUBCHEM_CONFORMER_DIVERSEORDER>  (1) 
1
15
21
20
25
8
28
7
6
2
26
22
13
14
19
27
16
17
23
12
3
5
18
24
11
4
10
9

>  <PUBCHEM_MMFF94_PARTIAL_CHARGES>  (1) 
8
1 -0.46
10 0.23
2 -0.57
24 0.37
25 0.37
3 -0.8
4 0.29
7 0.57

>  <PUBCHEM_EFFECTIVE_ROTOR_COUNT>  (1) 
4

>  <PUBCHEM_PHARMACOPHORE_FEATURES>  (1) 
6
1 10 hydrophobe
1 2 acceptor
1 3 donor
1 8 hydrophobe
1 9 hydrophobe
4 1 4 5 6 hydrophobe

>  <PUBCHEM_HEAVY_ATOM_COUNT>  (1) 
10

>  <PUBCHEM_ATOM_DEF_STEREO_COUNT>  (1) 
0

>  <PUBCHEM_ATOM_UDEF_STEREO_COUNT>  (1) 
0

>  <PUBCHEM_BOND_DEF_STEREO_COUNT>  (1) 
0

>  <PUBCHEM_BOND_UDEF_STEREO_COUNT>  (1) 
0

>  <PUBCHEM_ISOTOPIC_ATOM_COUNT>  (1) 
0

>  <PUBCHEM_COMPONENT_COUNT>  (1) 
1

>  <PUBCHEM_CACTVS_TAUTO_COUNT>  (1) 
2

>  <PUBCHEM_CONFORMER_ID>  (1) 
0000B55F00000001

>  <PUBCHEM_MMFF94_ENERGY>  (1) 
25.7635

>  <PUBCHEM_FEATURE_SELFOVERLAP>  (1) 
30.507

>  <PUBCHEM_SHAPE_FINGERPRINT>  (1) 
12423570 1 11914629180667540627
13380536 261 18338526252532599351
137420 1 13594146661371127777
16945 1 18124016945475157539
20653091 64 16964113426057663057
29004967 10 17415568880411830759
4369600 1 18197765811930115547
5084963 1 17749663069176324942
68250623 7 17904796308808340939

>  <PUBCHEM_SHAPE_MULTIPOLES>  (1) 
198.79
2.52
2.28
1.28
0.03
0.38
0.07
0.18
-0.68
-0.03
0.64
0.1
-0.12
0.01

>  <PUBCHEM_SHAPE_SELFOVERLAP>  (1) 
357.059

>  <PUBCHEM_SHAPE_VOLUME>  (1) 
130.6

>  <PUBCHEM_COORDINATE_TYPE>  (1) 
2
5
10

$$$$
