46438
     RDKit          3D

 11 10  0  0  1  0  0  0  0  0999 V2000
    2.9847    1.3454   -0.9379 Br  0  0  0  0  0  0  0  0  0  0  0  0
   -2.4230   -0.6357    0.4039 O   0  0  0  0  0  0  0  0  0  0  0  0
    2.3599   -1.0895    1.0553 O   0  0  0  0  0  0  0  0  0  0  0  0
   -1.9126    1.2645   -0.7998 O   0  0  0  0  0  0  0  0  0  0  0  0
    0.6223    1.3299    0.6570 C   0  0  0  0  0  0  0  0  0  0  0  0
    1.3015    0.4932   -0.4255 C   0  0  0  0  0  0  0  0  0  0  0  0
   -0.6557    0.6845    1.1997 C   0  0  0  0  0  0  0  0  0  0  0  0
    1.6952   -0.8969    0.0370 C   0  0  0  0  0  0  0  0  0  0  0  0
   -1.7265    0.5106    0.1456 C   0  0  0  0  0  0  0  0  0  0  0  0
    1.2098   -2.0519   -0.8008 C   0  0  0  0  0  0  0  0  0  0  0  0
   -3.4555   -0.9543   -0.5345 C   0  0  0  0  0  0  0  0  0  0  0  0
  1  6  1  0
  2  9  1  0
  2 11  1  0
  3  8  2  0
  4  9  2  0
  5  6  1  0
  5  7  1  0
  6  8  1  0
  7  9  1  0
  8 10  1  0
M  END
>  <PUBCHEM_COMPOUND_CID>  (1) 
46438

>  <PUBCHEM_CONFORMER_RMSD>  (1) 
0.6

>  <PUBCHEM_CONFORMER_DIVERSEORDER>  (1) 
3
54
133
14
143
81
49
105
137
7
102
117
134
94
135
42
25
140
56
124
87
29
67
38
144
62
90
53
97
12
55
96
103
26
91
60
116
108
141
92
40
83
32
76
52
121
28
126
15
128
74
46
31
113
107
110
109
27
106
57
80
21
47
93
72
138
1
22
123
35
19
100
20
111
61
63
101
130
77
4
89
33
24
48
98
136
119
30
122
95
50
59
18
115
37
34
114
88
131
43
69
129
6
75
5
142
85
2
17
44
118
66
139
104
79
39
65
13
127
11
71
112
125
9
41
99
45
84
51
23
16
78
86
68
64
10
73
132
120
82
36
8
58
70

>  <PUBCHEM_MMFF94_PARTIAL_CHARGES>  (1) 
10
1 -0.23
10 0.06
11 0.28
2 -0.43
3 -0.57
4 -0.57
6 0.29
7 0.06
8 0.45
9 0.66

>  <PUBCHEM_EFFECTIVE_ROTOR_COUNT>  (1) 
5

>  <PUBCHEM_PHARMACOPHORE_FEATURES>  (1) 
3
1 1 hydrophobe
1 3 acceptor
1 4 acceptor

>  <PUBCHEM_HEAVY_ATOM_COUNT>  (1) 
11

>  <PUBCHEM_ATOM_DEF_STEREO_COUNT>  (1) 
0

>  <PUBCHEM_ATOM_UDEF_STEREO_COUNT>  (1) 
1

>  <PUBCHEM_BOND_DEF_STEREO_COUNT>  (1) 
0

>  <PUBCHEM_BOND_UDEF_STEREO_COUNT>  (1) 
0

>  <PUBCHEM_ISOTOPIC_ATOM_COUNT>  (1) 
0

>  <PUBCHEM_COMPONENT_COUNT>  (1) 
1

>  <PUBCHEM_CACTVS_TAUTO_COUNT>  (1) 
3

>  <PUBCHEM_CONFORMER_ID>  (1) 
0000B56600000003

>  <PUBCHEM_MMFF94_ENERGY>  (1) 
13.3301

>  <PUBCHEM_FEATURE_SELFOVERLAP>  (1) 
15.223

>  <PUBCHEM_SHAPE_FINGERPRINT>  (1) 
12138202 97 16733837543496530640
12897270 3 18189058749200726805
12932764 1 17823431408701818764
15310529 11 18333449854644636133
15757776 16 18338513157119375871
15775835 57 18339648952530492439
16945 1 17896329175821216648
17990270 104 18338801100332736502
19021347 11 18261678172553595988
20201158 50 18412821365792364171
20645477 70 18409163312387545191
21501502 16 18334857186578711285
21922407 69 18057064448544759888
230 275 13695865921961499373
23235687 12 18261112907159231917
23552423 10 18266750081831638499
449060 23 17202784685713360013
5084963 1 13768508434795061313
9939556 21 18188770518256387597

>  <PUBCHEM_SHAPE_MULTIPOLES>  (1) 
214.71
4.83
1.86
1.12
2.32
0.7
0.1
0.2
-1.3
-0.79
-0.23
-0.26
-0.1
-0.48

>  <PUBCHEM_SHAPE_SELFOVERLAP>  (1) 
391.248

>  <PUBCHEM_SHAPE_VOLUME>  (1) 
139.3

>  <PUBCHEM_COORDINATE_TYPE>  (1) 
2
5
10

$$$$
