46434
     RDKit          3D

  9  8  0  0  1  0  0  0  0  0999 V2000
   -1.5989   -0.8145   -1.0291 O   0  0  0  0  0  0  0  0  0  0  0  0
   -1.4100   -1.6044    1.1172 N   0  0  0  0  0  0  0  0  0  0  0  0
    0.0347    0.2329    0.4454 C   0  0  0  0  0  0  0  0  0  0  0  0
    1.4194   -0.4411    0.2274 C   0  0  0  0  0  0  0  0  0  0  0  0
   -0.1352    1.5638   -0.3128 C   0  0  0  0  0  0  0  0  0  0  0  0
    1.6421   -0.9235   -1.2093 C   0  0  0  0  0  0  0  0  0  0  0  0
    2.5668    0.4824    0.6494 C   0  0  0  0  0  0  0  0  0  0  0  0
   -1.0736   -0.7603    0.0804 C   0  0  0  0  0  0  0  0  0  0  0  0
   -1.4453    2.2646    0.0314 C   0  0  0  0  0  0  0  0  0  0  0  0
  1  8  2  0
  2  8  1  0
  3  4  1  0
  3  5  1  0
  3  8  1  0
  4  6  1  0
  4  7  1  0
  5  9  1  0
M  END
>  <PUBCHEM_COMPOUND_CID>  (1) 
46434

>  <PUBCHEM_CONFORMER_RMSD>  (1) 
0.6

>  <PUBCHEM_CONFORMER_DIVERSEORDER>  (1) 
1
16
7
18
13
6
9
11
17
19
12
5
15
10
3
8
14
4
2

>  <PUBCHEM_MMFF94_PARTIAL_CHARGES>  (1) 
6
1 -0.57
2 -0.8
23 0.37
24 0.37
3 0.06
8 0.57

>  <PUBCHEM_EFFECTIVE_ROTOR_COUNT>  (1) 
3

>  <PUBCHEM_PHARMACOPHORE_FEATURES>  (1) 
4
1 1 acceptor
1 2 donor
1 9 hydrophobe
3 4 6 7 hydrophobe

>  <PUBCHEM_HEAVY_ATOM_COUNT>  (1) 
9

>  <PUBCHEM_ATOM_DEF_STEREO_COUNT>  (1) 
0

>  <PUBCHEM_ATOM_UDEF_STEREO_COUNT>  (1) 
1

>  <PUBCHEM_BOND_DEF_STEREO_COUNT>  (1) 
0

>  <PUBCHEM_BOND_UDEF_STEREO_COUNT>  (1) 
0

>  <PUBCHEM_ISOTOPIC_ATOM_COUNT>  (1) 
0

>  <PUBCHEM_COMPONENT_COUNT>  (1) 
1

>  <PUBCHEM_CACTVS_TAUTO_COUNT>  (1) 
2

>  <PUBCHEM_CONFORMER_ID>  (1) 
0000B56200000001

>  <PUBCHEM_MMFF94_ENERGY>  (1) 
14.0926

>  <PUBCHEM_FEATURE_SELFOVERLAP>  (1) 
20.297

>  <PUBCHEM_SHAPE_FINGERPRINT>  (1) 
12423570 1 16326474128945095911
21040471 1 17974857172392161176
23552449 11 17613450251653224811
24536 1 18113909242740135742
29004967 10 18266745868542639242
5084963 1 17539987069232247748

>  <PUBCHEM_SHAPE_MULTIPOLES>  (1) 
174.37
2.72
1.98
1.06
1.18
0.44
-0.11
0.46
0.03
-1.26
0.13
0.15
-0.36
0.45

>  <PUBCHEM_SHAPE_SELFOVERLAP>  (1) 
320.573

>  <PUBCHEM_SHAPE_VOLUME>  (1) 
111.1

>  <PUBCHEM_COORDINATE_TYPE>  (1) 
2
5
10

$$$$
