46437
     RDKit          3D

 11 10  0  0  0  0  0  0  0  0999 V2000
    2.2479    1.3390    0.0005 O   0  0  0  0  0  0  0  0  0  0  0  0
   -2.6876   -0.0234    0.0003 N   0  0  0  0  0  0  0  0  0  0  0  0
    3.4506   -0.6484   -0.0012 N   0  0  0  0  0  0  0  0  0  0  0  0
   -1.4613   -0.8556    0.0469 C   0  0  0  0  0  0  0  0  0  0  0  0
   -0.2413    0.0518    0.0034 C   0  0  0  0  0  0  0  0  0  0  0  0
   -2.7241    0.9624    1.1770 C   0  0  0  0  0  0  0  0  0  0  0  0
   -2.7483    0.7875   -1.3021 C   0  0  0  0  0  0  0  0  0  0  0  0
   -3.9460   -0.8999    0.0745 C   0  0  0  0  0  0  0  0  0  0  0  0
    1.0494   -0.7639    0.0023 C   0  0  0  0  0  0  0  0  0  0  0  0
    2.2901    0.1117   -0.0002 C   0  0  0  0  0  0  0  0  0  0  0  0
    4.7705   -0.0612   -0.0015 C   0  0  0  0  0  0  0  0  0  0  0  0
  1 10  2  0
  2  4  1  0
  2  6  1  0
  2  7  1  0
  2  8  1  0
  3 10  1  0
  3 11  1  0
  4  5  1  0
  5  9  1  0
  9 10  1  0
M  CHG  1   2   1
M  END
>  <PUBCHEM_COMPOUND_CID>  (1) 
46437

>  <PUBCHEM_CONFORMER_RMSD>  (1) 
0.6

>  <PUBCHEM_CONFORMER_DIVERSEORDER>  (1) 
1
7
2
6
4
3
5

>  <PUBCHEM_MMFF94_PARTIAL_CHARGES>  (1) 
11
1 -0.57
10 0.57
11 0.3
2 -1.01
27 0.37
3 -0.73
4 0.5
6 0.5
7 0.5
8 0.5
9 0.06

>  <PUBCHEM_EFFECTIVE_ROTOR_COUNT>  (1) 
5

>  <PUBCHEM_PHARMACOPHORE_FEATURES>  (1) 
3
1 1 acceptor
1 2 cation
1 3 donor

>  <PUBCHEM_HEAVY_ATOM_COUNT>  (1) 
11

>  <PUBCHEM_ATOM_DEF_STEREO_COUNT>  (1) 
0

>  <PUBCHEM_ATOM_UDEF_STEREO_COUNT>  (1) 
0

>  <PUBCHEM_BOND_DEF_STEREO_COUNT>  (1) 
0

>  <PUBCHEM_BOND_UDEF_STEREO_COUNT>  (1) 
0

>  <PUBCHEM_ISOTOPIC_ATOM_COUNT>  (1) 
0

>  <PUBCHEM_COMPONENT_COUNT>  (1) 
1

>  <PUBCHEM_CACTVS_TAUTO_COUNT>  (1) 
2

>  <PUBCHEM_CONFORMER_ID>  (1) 
0000B56500000001

>  <PUBCHEM_MMFF94_ENERGY>  (1) 
25.9438

>  <PUBCHEM_FEATURE_SELFOVERLAP>  (1) 
15.223

>  <PUBCHEM_SHAPE_FINGERPRINT>  (1) 
10680689 15 17675930880295706986
11062470 55 9799694796180501786
12162725 195 18273219711275940105
124424 183 17749383746073103656
12932764 1 17967527973773014586
14123238 8 18410856581594751926
14144814 61 18341331106763692586
14325111 11 18410856576824966002
17802600 8 18334852839871256781
17834076 25 11240002256525409498
18186145 218 18411420600884136792
18522853 276 18131353015973367305
190213 19 18272931617870547318
1986462 14 18334859406918366015
200 152 18273205418268305439
20279233 1 16081091463061173842
20645464 45 18334300846748620639
20645477 70 18189329087844658258
20671657 1 18192439786411888020
20828058 21 17313105237569925222
2306618 200 18335417924903673417
23380061 127 17989487416066633667
23402539 116 17846773014515766565
3248919 1 18131632270399179687

>  <PUBCHEM_SHAPE_MULTIPOLES>  (1) 
210.54
8.4
1.11
0.89
5.8
0.11
-0.06
-0.36
0.01
-0.37
0.04
-0.83
0.26
0.01

>  <PUBCHEM_SHAPE_SELFOVERLAP>  (1) 
382.915

>  <PUBCHEM_SHAPE_VOLUME>  (1) 
137

>  <PUBCHEM_COORDINATE_TYPE>  (1) 
2
5
10

$$$$
