46441
     RDKit          3D

 10  9  0  0  1  0  0  0  0  0999 V2000
   -0.6150    1.3462   -0.0048 S   0  0  0  0  0  0  0  0  0  0  0  0
    1.0841   -2.1303   -0.4273 O   0  0  0  0  0  0  0  0  0  0  0  0
    0.5131   -1.0304    1.4692 O   0  0  0  0  0  0  0  0  0  0  0  0
   -3.0157    0.6113    0.7853 N   0  0  0  0  0  0  0  0  0  0  0  0
   -2.1308   -0.5810   -1.0515 N   0  0  0  0  0  0  0  0  0  0  0  0
    0.6804    0.2211   -0.6181 C   0  0  0  0  0  0  0  0  0  0  0  0
    2.0509    0.9003   -0.7801 C   0  0  0  0  0  0  0  0  0  0  0  0
    2.7513    1.3436    0.5008 C   0  0  0  0  0  0  0  0  0  0  0  0
    0.7296   -1.0139    0.2649 C   0  0  0  0  0  0  0  0  0  0  0  0
   -2.0479    0.3331   -0.1384 C   0  0  0  0  0  0  0  0  0  0  0  0
  1  6  1  0
  1 10  1  0
  2  9  1  0
  3  9  2  0
  4 10  1  0
  5 10  2  0
  6  7  1  0
  6  9  1  0
  7  8  1  0
M  END
>  <PUBCHEM_COMPOUND_CID>  (1) 
46441

>  <PUBCHEM_CONFORMER_RMSD>  (1) 
0.6

>  <PUBCHEM_CONFORMER_DIVERSEORDER>  (1) 
1
32
30
35
34
3
22
31
18
14
29
9
36
19
5
26
15
28
23
10
33
8
20
27
25
24
13
4
16
2
7
21
11
6
12
17

>  <PUBCHEM_MMFF94_PARTIAL_CHARGES>  (1) 
12
1 -0.37
10 0.64
17 0.5
18 0.4
19 0.4
2 -0.65
20 0.4
3 -0.57
4 -0.85
5 -0.85
6 0.29
9 0.66

>  <PUBCHEM_EFFECTIVE_ROTOR_COUNT>  (1) 
4

>  <PUBCHEM_PHARMACOPHORE_FEATURES>  (1) 
7
1 2 acceptor
1 3 acceptor
1 4 donor
1 5 donor
1 8 hydrophobe
3 2 3 9 anion
3 4 5 10 cation

>  <PUBCHEM_HEAVY_ATOM_COUNT>  (1) 
10

>  <PUBCHEM_ATOM_DEF_STEREO_COUNT>  (1) 
0

>  <PUBCHEM_ATOM_UDEF_STEREO_COUNT>  (1) 
1

>  <PUBCHEM_BOND_DEF_STEREO_COUNT>  (1) 
0

>  <PUBCHEM_BOND_UDEF_STEREO_COUNT>  (1) 
0

>  <PUBCHEM_ISOTOPIC_ATOM_COUNT>  (1) 
0

>  <PUBCHEM_COMPONENT_COUNT>  (1) 
1

>  <PUBCHEM_CACTVS_TAUTO_COUNT>  (1) 
1

>  <PUBCHEM_CONFORMER_ID>  (1) 
0000B56900000001

>  <PUBCHEM_MMFF94_ENERGY>  (1) 
13.5537

>  <PUBCHEM_FEATURE_SELFOVERLAP>  (1) 
35.618

>  <PUBCHEM_SHAPE_FINGERPRINT>  (1) 
15775835 57 18342176691224490928
16945 1 18335420187987155916
18185500 45 18412257316305820045
20653085 51 17702683192353659036
20711978 78 18266734680115728197
21040471 1 18263650726357310476
21922407 69 18200577125744419397
23235685 24 18114475542583581052
23552333 60 18339083666283901001
29004967 10 17676212351114795389
5084963 1 17968369156229749924

>  <PUBCHEM_SHAPE_MULTIPOLES>  (1) 
187.94
3.74
1.72
1.06
1.1
0.67
0.13
-1.47
0.24
-0.71
0.05
0.02
0.14
-0.18

>  <PUBCHEM_SHAPE_SELFOVERLAP>  (1) 
341.759

>  <PUBCHEM_SHAPE_VOLUME>  (1) 
119.9

>  <PUBCHEM_COORDINATE_TYPE>  (1) 
2
5
10

$$$$
