46445
     RDKit          3D

 22 24  0  0  1  0  0  0  0  0999 V2000
   -1.3886    3.1554   -0.5336 Cl  0  0  0  0  0  0  0  0  0  0  0  0
   -5.1559   -1.1722    0.7423 O   0  0  0  0  0  0  0  0  0  0  0  0
    0.3511    0.4275    0.3174 N   0  0  0  0  0  0  0  0  0  0  0  0
   -0.6188    0.1751   -0.7547 C   0  0  0  0  0  0  0  0  0  0  0  0
   -0.4727   -1.2702   -1.2567 C   0  0  0  0  0  0  0  0  0  0  0  0
   -1.1046   -2.2687   -0.2925 C   0  0  0  0  0  0  0  0  0  0  0  0
   -2.0338    0.4814   -0.3023 C   0  0  0  0  0  0  0  0  0  0  0  0
   -2.6011   -2.0013   -0.1552 C   0  0  0  0  0  0  0  0  0  0  0  0
   -2.9457   -0.5429    0.0188 C   0  0  0  0  0  0  0  0  0  0  0  0
    1.6972    0.1189   -0.1316 C   0  0  0  0  0  0  0  0  0  0  0  0
   -2.4357    1.8220   -0.1703 C   0  0  0  0  0  0  0  0  0  0  0  0
   -4.2390   -0.2046    0.4487 C   0  0  0  0  0  0  0  0  0  0  0  0
    2.7256    0.4225    0.9607 C   0  0  0  0  0  0  0  0  0  0  0  0
   -3.7206    2.1432    0.2662 C   0  0  0  0  0  0  0  0  0  0  0  0
   -4.6219    1.1300    0.5759 C   0  0  0  0  0  0  0  0  0  0  0  0
    4.1283    0.1340    0.5130 C   0  0  0  0  0  0  0  0  0  0  0  0
    4.6701   -1.1302    0.7173 C   0  0  0  0  0  0  0  0  0  0  0  0
    4.8739    1.1333   -0.1026 C   0  0  0  0  0  0  0  0  0  0  0  0
   -5.9877   -1.6183   -0.3253 C   0  0  0  0  0  0  0  0  0  0  0  0
    5.9740   -1.3985    0.3010 C   0  0  0  0  0  0  0  0  0  0  0  0
    6.1779    0.8648   -0.5191 C   0  0  0  0  0  0  0  0  0  0  0  0
    6.7279   -0.4011   -0.3173 C   0  0  0  0  0  0  0  0  0  0  0  0
  1 11  1  0
  2 12  1  0
  2 19  1  0
  3  4  1  0
  3 10  1  0
  4  5  1  0
  4  7  1  0
  5  6  1  0
  6  8  1  0
  7  9  2  0
  7 11  1  0
  8  9  1  0
  9 12  1  0
 10 13  1  0
 11 14  2  0
 12 15  2  0
 13 16  1  0
 14 15  1  0
 16 17  2  0
 16 18  1  0
 17 20  1  0
 18 21  2  0
 20 22  2  0
 21 22  1  0
M  END
>  <PUBCHEM_COMPOUND_CID>  (1) 
46445

>  <PUBCHEM_CONFORMER_RMSD>  (1) 
0.8

>  <PUBCHEM_CONFORMER_DIVERSEORDER>  (1) 
1
4
20
18
6
15
11
12
2
5
17
21
8
7
13
16
9
3
19
10
14

>  <PUBCHEM_MMFF94_PARTIAL_CHARGES>  (1) 
28
1 -0.18
10 0.27
11 0.18
12 0.08
13 0.14
14 -0.15
15 -0.15
16 -0.14
17 -0.15
18 -0.15
19 0.28
2 -0.36
20 -0.15
21 -0.15
22 -0.15
3 -0.9
30 0.36
35 0.15
36 0.15
37 0.15
38 0.15
4 0.41
42 0.15
43 0.15
44 0.15
7 -0.14
8 0.14
9 -0.14

>  <PUBCHEM_EFFECTIVE_ROTOR_COUNT>  (1) 
5.8

>  <PUBCHEM_PHARMACOPHORE_FEATURES>  (1) 
6
1 2 acceptor
1 3 cation
1 3 donor
6 16 17 18 20 21 22 rings
6 4 5 6 7 8 9 rings
6 7 9 11 12 14 15 rings

>  <PUBCHEM_HEAVY_ATOM_COUNT>  (1) 
22

>  <PUBCHEM_ATOM_DEF_STEREO_COUNT>  (1) 
0

>  <PUBCHEM_ATOM_UDEF_STEREO_COUNT>  (1) 
1

>  <PUBCHEM_BOND_DEF_STEREO_COUNT>  (1) 
0

>  <PUBCHEM_BOND_UDEF_STEREO_COUNT>  (1) 
0

>  <PUBCHEM_ISOTOPIC_ATOM_COUNT>  (1) 
0

>  <PUBCHEM_COMPONENT_COUNT>  (1) 
1

>  <PUBCHEM_CACTVS_TAUTO_COUNT>  (1) 
1

>  <PUBCHEM_CONFORMER_ID>  (1) 
0000B56D00000001

>  <PUBCHEM_MMFF94_ENERGY>  (1) 
63.1708

>  <PUBCHEM_FEATURE_SELFOVERLAP>  (1) 
30.467

>  <PUBCHEM_SHAPE_FINGERPRINT>  (1) 
10299344 5 18334016082285975114
10595046 47 18261112959490182144
11273773 42 17677917771687031508
11273773 46 17842570552748439910
11315181 36 18040719185821560149
11524674 6 16845573131968215247
12011746 2 18411972581876238469
12107183 9 17541089871385111392
12236239 1 18040718065172712636
12390115 104 18130238051322551961
12403259 415 17774995804353690128
12596602 18 17821729437853499000
12616971 3 13542458795763870946
13073987 5 18409725137286005144
13140716 1 18052264183422145995
13167823 11 18334010571731956834
13288520 33 18409729578050028345
13782708 43 17560797779235548311
13862211 1 18340485668733215575
14341114 176 18409732876527175216
14420673 8 18266742385862751826
14933364 13 18412267233928956536
15042514 8 18268147750701662671
15183329 4 18411981347836138730
15250474 111 18335967723862907186
15685185 35 17027713981479404404
17844677 252 18410298008456072624
17980427 23 18113626673016458533
1813 80 17095246895619889702
18927931 339 18341614837073195407
21033648 29 17703493429286054352
21065198 48 18187359896382554338
21236236 1 18413387627360340301
21267235 1 18336270132388028571
22950370 63 18334294267090760280
2297311 6 18411986857809700548
23402539 116 18341607136259825287
23522609 53 18196120860878739688
23559900 14 18263638640477822513
3004659 81 18411139100950323874
335352 9 18410007763609291853
34797466 226 17988652943240858788
350125 39 18412545413863807009
3633792 109 17458335360738669607
4073 2 18113904918452017010
4214541 1 18411417293996936008
497634 4 18113335297501735924
5104073 3 18412254031114827112
5265222 85 18271532000520987278
59755656 215 18272652324653243190
9996256 80 18344144799826770262

>  <PUBCHEM_SHAPE_MULTIPOLES>  (1) 
443.77
15.89
2.5
0.89
18.65
0.87
-0.04
-2.9
1.41
-2.7
-0.33
0.08
-0.05
-0.47

>  <PUBCHEM_SHAPE_SELFOVERLAP>  (1) 
934.977

>  <PUBCHEM_SHAPE_VOLUME>  (1) 
249.9

>  <PUBCHEM_COORDINATE_TYPE>  (1) 
2
5
10

$$$$
