46458
     RDKit          3D

 20 21  0  0  1  0  0  0  0  0999 V2000
   -3.7258    1.2100    0.2292 O   0  0  0  0  0  0  0  0  0  0  0  0
    2.3651    0.7330   -1.4459 O   0  0  0  0  0  0  0  0  0  0  0  0
    1.4544   -1.8073   -0.5957 N   0  0  0  0  0  0  0  0  0  0  0  0
    0.4301   -1.4971    0.4075 C   0  0  0  0  0  0  0  0  0  0  0  0
   -0.4996   -2.7187    0.4886 C   0  0  0  0  0  0  0  0  0  0  0  0
   -0.3160   -0.1969    0.1464 C   0  0  0  0  0  0  0  0  0  0  0  0
   -1.7107   -2.4164    1.3594 C   0  0  0  0  0  0  0  0  0  0  0  0
   -2.5402   -1.3069    0.7229 C   0  0  0  0  0  0  0  0  0  0  0  0
   -1.7127   -0.1101    0.3248 C   0  0  0  0  0  0  0  0  0  0  0  0
    0.3901    0.9707   -0.1967 C   0  0  0  0  0  0  0  0  0  0  0  0
   -2.3715    1.1087    0.0919 C   0  0  0  0  0  0  0  0  0  0  0  0
   -0.2750    2.1787   -0.4124 C   0  0  0  0  0  0  0  0  0  0  0  0
    1.8439    0.9823   -0.3410 C   0  0  0  0  0  0  0  0  0  0  0  0
   -1.6563    2.2460   -0.2754 C   0  0  0  0  0  0  0  0  0  0  0  0
    0.8460   -1.9288   -1.9174 C   0  0  0  0  0  0  0  0  0  0  0  0
    2.1575   -3.0355   -0.2358 C   0  0  0  0  0  0  0  0  0  0  0  0
    2.7596    1.2869    0.8650 C   0  0  0  0  0  0  0  0  0  0  0  0
    4.0926    0.5642    0.6971 C   0  0  0  0  0  0  0  0  0  0  0  0
    2.9827    2.7925    1.0155 C   0  0  0  0  0  0  0  0  0  0  0  0
   -4.5141    0.9448   -0.9279 C   0  0  0  0  0  0  0  0  0  0  0  0
  1 11  1  0
  1 20  1  0
  2 13  2  0
  3  4  1  0
  3 15  1  0
  3 16  1  0
  4  5  1  0
  4  6  1  0
  5  7  1  0
  6  9  2  0
  6 10  1  0
  7  8  1  0
  8  9  1  0
  9 11  1  0
 10 12  2  0
 10 13  1  0
 11 14  2  0
 12 14  1  0
 13 17  1  0
 17 18  1  0
 17 19  1  0
M  END
>  <PUBCHEM_COMPOUND_CID>  (1) 
46458

>  <PUBCHEM_CONFORMER_RMSD>  (1) 
0.6

>  <PUBCHEM_CONFORMER_DIVERSEORDER>  (1) 
1
5
11
4
3
6
10
2
7
9
8

>  <PUBCHEM_MMFF94_PARTIAL_CHARGES>  (1) 
18
1 -0.36
10 0.09
11 0.08
12 -0.15
13 0.42
14 -0.15
15 0.27
16 0.27
17 0.06
2 -0.57
20 0.28
28 0.15
29 0.15
3 -0.81
4 0.41
6 -0.14
8 0.14
9 -0.14

>  <PUBCHEM_EFFECTIVE_ROTOR_COUNT>  (1) 
4.8

>  <PUBCHEM_PHARMACOPHORE_FEATURES>  (1) 
6
1 1 acceptor
1 2 acceptor
1 3 cation
3 17 18 19 hydrophobe
6 4 5 6 7 8 9 rings
6 6 9 10 11 12 14 rings

>  <PUBCHEM_HEAVY_ATOM_COUNT>  (1) 
20

>  <PUBCHEM_ATOM_DEF_STEREO_COUNT>  (1) 
0

>  <PUBCHEM_ATOM_UDEF_STEREO_COUNT>  (1) 
1

>  <PUBCHEM_BOND_DEF_STEREO_COUNT>  (1) 
0

>  <PUBCHEM_BOND_UDEF_STEREO_COUNT>  (1) 
0

>  <PUBCHEM_ISOTOPIC_ATOM_COUNT>  (1) 
0

>  <PUBCHEM_COMPONENT_COUNT>  (1) 
1

>  <PUBCHEM_CACTVS_TAUTO_COUNT>  (1) 
2

>  <PUBCHEM_CONFORMER_ID>  (1) 
0000B57A00000001

>  <PUBCHEM_MMFF94_ENERGY>  (1) 
77.0818

>  <PUBCHEM_FEATURE_SELFOVERLAP>  (1) 
30.466

>  <PUBCHEM_SHAPE_FINGERPRINT>  (1) 
10764073 3 14209497088388561141
108231 29 17762059843836673434
10967382 1 18336268924942951665
1100329 8 17403743242166459768
11680986 33 18336553724282735619
12011746 2 18336826377913442038
12553582 1 17183631434023752114
13140716 1 18266467696628277721
13172582 1 17908154517808959010
13380535 76 18409725162417492225
13544592 271 18338230582947587601
14178342 30 18339376248257035913
14787075 74 18048885087394479646
15536298 74 18269553832451283037
15852999 172 18409727369972737997
16752209 62 18118688957013989342
16945 1 18047483501715072699
17804303 29 18409168827199120480
19930374 2 18124318460790500194
20510252 161 18126293179336957488
20645477 70 18198330755381586373
20691752 17 17606410851968702837
20871998 184 18195247955951045016
20905425 154 18410865338817109038
21029758 11 17979355248765545990
21524375 3 18341885303478877456
22112679 90 16685704437810768708
22182313 1 18334590035755717883
2334 1 18335714853103974507
23388829 49 16110354235180291144
23419403 2 17484286059477575342
23558518 356 18124038936125119937
23559900 14 18338529620467909420
2748010 2 18263382359689553795
350125 39 17903929859376170289
352729 6 18337396057590330481
42630746 31 18337948992370756625
4340502 62 18408038503618452573
495365 180 18059845151921585689
5262128 65 17628078888840902671
58807428 26 18333444326879224115
59755656 215 18337667503723167396
7364860 26 18198619934817215604
84936 182 18197772207353353673
84936 31 17346033347263411862
9709674 26 18411982421176873671

>  <PUBCHEM_SHAPE_MULTIPOLES>  (1) 
394.87
5.79
3.61
1.23
1.16
1.51
-0.31
-3.27
0.52
-0.83
0.21
-0.26
0.42
1.46

>  <PUBCHEM_SHAPE_SELFOVERLAP>  (1) 
824.086

>  <PUBCHEM_SHAPE_VOLUME>  (1) 
225.3

>  <PUBCHEM_COORDINATE_TYPE>  (1) 
2
5
10

$$$$
