46471
     RDKit          3D

 21 22  0  0  1  0  0  0  0  0999 V2000
   -4.0911    1.2052    0.6394 O   0  0  0  0  0  0  0  0  0  0  0  0
    1.7275    0.8651   -1.8582 O   0  0  0  0  0  0  0  0  0  0  0  0
    0.9898   -1.7047   -0.8908 N   0  0  0  0  0  0  0  0  0  0  0  0
    0.1065   -1.4135    0.2436 C   0  0  0  0  0  0  0  0  0  0  0  0
   -0.7774   -2.6541    0.4510 C   0  0  0  0  0  0  0  0  0  0  0  0
   -0.6959   -0.1300    0.0876 C   0  0  0  0  0  0  0  0  0  0  0  0
   -1.8635   -2.3754    1.4801 C   0  0  0  0  0  0  0  0  0  0  0  0
   -2.7960   -1.2848    0.9644 C   0  0  0  0  0  0  0  0  0  0  0  0
   -2.0563   -0.0721    0.4565 C   0  0  0  0  0  0  0  0  0  0  0  0
   -0.0688    1.0512   -0.3496 C   0  0  0  0  0  0  0  0  0  0  0  0
   -2.7667    1.1318    0.3162 C   0  0  0  0  0  0  0  0  0  0  0  0
   -0.7829    2.2442   -0.4722 C   0  0  0  0  0  0  0  0  0  0  0  0
    1.3506    1.0930   -0.6931 C   0  0  0  0  0  0  0  0  0  0  0  0
   -2.1335    2.2828   -0.1464 C   0  0  0  0  0  0  0  0  0  0  0  0
    0.2083   -1.8425   -2.1164 C   0  0  0  0  0  0  0  0  0  0  0  0
    1.7615   -2.9168   -0.6311 C   0  0  0  0  0  0  0  0  0  0  0  0
    2.3898    1.4225    0.3915 C   0  0  0  0  0  0  0  0  0  0  0  0
    3.7408    0.7425    0.1619 C   0  0  0  0  0  0  0  0  0  0  0  0
    4.7256    1.0700    1.2837 C   0  0  0  0  0  0  0  0  0  0  0  0
   -5.0258    0.9195   -0.3975 C   0  0  0  0  0  0  0  0  0  0  0  0
    6.0574    0.3660    1.0794 C   0  0  0  0  0  0  0  0  0  0  0  0
  1 11  1  0
  1 20  1  0
  2 13  2  0
  3  4  1  0
  3 15  1  0
  3 16  1  0
  4  5  1  0
  4  6  1  0
  5  7  1  0
  6  9  2  0
  6 10  1  0
  7  8  1  0
  8  9  1  0
  9 11  1  0
 10 12  2  0
 10 13  1  0
 11 14  2  0
 12 14  1  0
 13 17  1  0
 17 18  1  0
 18 19  1  0
 19 21  1  0
M  END
>  <PUBCHEM_COMPOUND_CID>  (1) 
46471

>  <PUBCHEM_CONFORMER_RMSD>  (1) 
0.8

>  <PUBCHEM_CONFORMER_DIVERSEORDER>  (1) 
1
21
13
9
18
15
7
20
23
3
11
10
17
4
6
5
16
2
8
19
12
22
14

>  <PUBCHEM_MMFF94_PARTIAL_CHARGES>  (1) 
18
1 -0.36
10 0.09
11 0.08
12 -0.15
13 0.42
14 -0.15
15 0.27
16 0.27
17 0.06
2 -0.57
20 0.28
29 0.15
3 -0.81
30 0.15
4 0.41
6 -0.14
8 0.14
9 -0.14

>  <PUBCHEM_EFFECTIVE_ROTOR_COUNT>  (1) 
6.8

>  <PUBCHEM_PHARMACOPHORE_FEATURES>  (1) 
6
1 1 acceptor
1 2 acceptor
1 21 hydrophobe
1 3 cation
6 4 5 6 7 8 9 rings
6 6 9 10 11 12 14 rings

>  <PUBCHEM_HEAVY_ATOM_COUNT>  (1) 
21

>  <PUBCHEM_ATOM_DEF_STEREO_COUNT>  (1) 
0

>  <PUBCHEM_ATOM_UDEF_STEREO_COUNT>  (1) 
1

>  <PUBCHEM_BOND_DEF_STEREO_COUNT>  (1) 
0

>  <PUBCHEM_BOND_UDEF_STEREO_COUNT>  (1) 
0

>  <PUBCHEM_ISOTOPIC_ATOM_COUNT>  (1) 
0

>  <PUBCHEM_COMPONENT_COUNT>  (1) 
1

>  <PUBCHEM_CACTVS_TAUTO_COUNT>  (1) 
2

>  <PUBCHEM_CONFORMER_ID>  (1) 
0000B58700000001

>  <PUBCHEM_MMFF94_ENERGY>  (1) 
71.4044

>  <PUBCHEM_FEATURE_SELFOVERLAP>  (1) 
30.466

>  <PUBCHEM_SHAPE_FINGERPRINT>  (1) 
10906281 52 18337125513648454925
10967382 1 18263097534685500143
11132069 177 18410018744807036865
11680986 33 18336842895877789819
11961588 58 13541923252229114691
12011746 2 18336271128667564582
13004483 165 17052711420869241342
13140716 1 18194131926317346985
13380535 76 18409733958684607177
14178342 30 18340225045511373913
14420673 8 18263076623112761426
15042514 8 18260831561252937177
15295992 7 17845923152252613992
15848702 105 12031797967614569620
16110190 28 18262780897587322922
16945 1 18048899660086288551
17804303 29 18336266838158915456
17980427 23 18261956361548380221
1813 80 16081088143842660022
20691752 17 17606137086616537549
20905425 154 18339096920468703839
21452121 103 18267304236019306257
21524375 3 18342735221545560960
22182313 1 18265358182264132283
2334 1 18263667159176621435
23402539 116 18338225059619683933
23419403 2 17902781969188611678
23558518 356 18123482574741233969
23559900 14 18191607284390052326
23728640 28 18268983353615520266
24859131 72 18336547234771527386
2748010 2 18191897611383783419
352729 6 18265069079135412021
5104073 3 18266752272982502017
5265222 85 18269561693280632564
58807428 26 18333737887888734771
59755656 215 18337390435430310188
7364860 26 18127415553159681949
9862522 239 18342168994874932158

>  <PUBCHEM_SHAPE_MULTIPOLES>  (1) 
415.45
8.2
3.11
1.39
7.83
1.77
0.44
-4.26
-3.66
-0.9
0.23
0.51
0.58
1.06

>  <PUBCHEM_SHAPE_SELFOVERLAP>  (1) 
857.967

>  <PUBCHEM_SHAPE_VOLUME>  (1) 
238.6

>  <PUBCHEM_COORDINATE_TYPE>  (1) 
2
5
10

$$$$
