4647
     RDKit          3D

 18 18  0  0  1  0  0  0  0  0999 V2000
    5.0274    1.8724   -0.3290 Cl  0  0  0  0  0  0  0  0  0  0  0  0
    5.4952   -0.9227    0.3783 Cl  0  0  0  0  0  0  0  0  0  0  0  0
   -0.0411    1.3693   -1.5106 O   0  0  0  0  0  0  0  0  0  0  0  0
    0.5578   -2.6891   -0.2135 O   0  0  0  0  0  0  0  0  0  0  0  0
    3.0180    0.4926    1.5829 O   0  0  0  0  0  0  0  0  0  0  0  0
    2.0096   -0.1775   -0.3940 N   0  0  0  0  0  0  0  0  0  0  0  0
   -5.7453    0.3041    0.8448 N   0  0  0  0  0  0  0  0  0  0  0  0
    0.6627   -0.2714    0.1365 C   0  0  0  0  0  0  0  0  0  0  0  0
   -0.3552    0.0821   -0.9691 C   0  0  0  0  0  0  0  0  0  0  0  0
   -1.7873    0.1416   -0.4878 C   0  0  0  0  0  0  0  0  0  0  0  0
    0.4568   -1.6573    0.7595 C   0  0  0  0  0  0  0  0  0  0  0  0
   -2.7424   -0.6478   -1.1057 C   0  0  0  0  0  0  0  0  0  0  0  0
   -2.1140    0.9836    0.5619 C   0  0  0  0  0  0  0  0  0  0  0  0
    3.0841    0.2022    0.3894 C   0  0  0  0  0  0  0  0  0  0  0  0
   -4.0633   -0.5934   -0.6610 C   0  0  0  0  0  0  0  0  0  0  0  0
   -3.4350    1.0379    1.0066 C   0  0  0  0  0  0  0  0  0  0  0  0
   -4.4097    0.2492    0.3953 C   0  0  0  0  0  0  0  0  0  0  0  0
    4.3816    0.2241   -0.3842 C   0  0  0  0  0  0  0  0  0  0  0  0
  1 18  1  0
  2 18  1  0
  3  9  1  0
  4 11  1  0
  5 14  2  0
  6  8  1  0
  6 14  1  0
  7 17  1  0
  8  9  1  0
  8 11  1  0
  9 10  1  0
 10 12  2  0
 10 13  1  0
 12 15  1  0
 13 16  2  0
 14 18  1  0
 15 17  2  0
 16 17  1  0
M  END
>  <PUBCHEM_COMPOUND_CID>  (1) 
4647

>  <PUBCHEM_CONFORMER_RMSD>  (1) 
0.8

>  <PUBCHEM_CONFORMER_DIVERSEORDER>  (1) 
1
46
20
15
13
48
41
23
37
22
17
51
4
21
32
45
8
44
9
34
14
52
38
36
31
12
29
24
10
35
39
2
25
7
28
19
26
40
50
27
49
5
6
42
30
43
16
18
47
53
3
33
11

>  <PUBCHEM_MMFF94_PARTIAL_CHARGES>  (1) 
27
1 -0.29
10 -0.14
11 0.28
12 -0.15
13 -0.15
14 0.57
15 -0.15
16 -0.15
17 0.1
18 0.64
2 -0.29
23 0.37
24 0.15
25 0.15
26 0.4
27 0.15
28 0.15
29 0.4
3 -0.68
31 0.4
32 0.4
4 -0.68
5 -0.57
6 -0.73
7 -0.9
8 0.3
9 0.42

>  <PUBCHEM_EFFECTIVE_ROTOR_COUNT>  (1) 
6

>  <PUBCHEM_PHARMACOPHORE_FEATURES>  (1) 
9
1 3 acceptor
1 3 donor
1 4 acceptor
1 4 donor
1 5 acceptor
1 6 donor
1 7 cation
1 7 donor
6 10 12 13 15 16 17 rings

>  <PUBCHEM_HEAVY_ATOM_COUNT>  (1) 
18

>  <PUBCHEM_ATOM_DEF_STEREO_COUNT>  (1) 
0

>  <PUBCHEM_ATOM_UDEF_STEREO_COUNT>  (1) 
2

>  <PUBCHEM_BOND_DEF_STEREO_COUNT>  (1) 
0

>  <PUBCHEM_BOND_UDEF_STEREO_COUNT>  (1) 
0

>  <PUBCHEM_ISOTOPIC_ATOM_COUNT>  (1) 
0

>  <PUBCHEM_COMPONENT_COUNT>  (1) 
1

>  <PUBCHEM_CACTVS_TAUTO_COUNT>  (1) 
2

>  <PUBCHEM_CONFORMER_ID>  (1) 
0000122700000001

>  <PUBCHEM_MMFF94_ENERGY>  (1) 
46.6288

>  <PUBCHEM_FEATURE_SELFOVERLAP>  (1) 
45.678

>  <PUBCHEM_SHAPE_FINGERPRINT>  (1) 
106641 1 17822861994954616009
12236239 1 18412545422875630933
12507560 40 18267307521980270525
12596602 18 18260553350525530001
12916748 109 16128660738673300136
13288520 33 13551193282017745227
14251764 18 18341607119317482210
14341114 328 18202005429824420561
14787075 74 18342739658384051401
15295992 7 18059851822448765586
15309172 13 18186798071895264982
17834072 8 14548743910821305324
18186145 218 18201987842260287064
200 152 16081085969892869437
204376 136 18261111902216083826
20645477 56 14692557841269209504
21029758 11 9943803387361054174
212847 35 18060700594033597656
22079108 93 18340485667983850024
22224240 67 18187085083274757179
22854114 59 18335420153511288321
23402539 116 17703501155662830215
23493267 7 16558751183330884355
23557571 272 15430315772293353191
23559900 14 16773528685172924100
347723 3 13686302357144001630
458136 41 18411420575035828874
465052 167 17458070356449667162
474 4 18411704317496536096
5104073 3 17417521522805554002
5283173 99 10519722046162176754
542803 24 18342739628319137244
633830 44 17845642750568898436

>  <PUBCHEM_SHAPE_MULTIPOLES>  (1) 
346.6
11.74
1.63
1.17
3.56
0.56
0.01
-2.42
-1.88
1.14
0.02
-0.32
-0.17
-0.84

>  <PUBCHEM_SHAPE_SELFOVERLAP>  (1) 
689.455

>  <PUBCHEM_SHAPE_VOLUME>  (1) 
205.9

>  <PUBCHEM_COORDINATE_TYPE>  (1) 
2
5
10

$$$$
