46489
     RDKit          3D

 29 30  0  0  1  0  0  0  0  0999 V2000
    0.0280   -1.9941    0.9729 O   0  0  0  0  0  0  0  0  0  0  0  0
   -1.0513    1.7107   -1.4050 O   0  0  0  0  0  0  0  0  0  0  0  0
   -3.8245   -0.1859   -0.0053 O   0  0  0  0  0  0  0  0  0  0  0  0
    4.1214   -1.9844   -1.0636 O   0  0  0  0  0  0  0  0  0  0  0  0
    0.5811   -0.0511   -3.2115 O   0  0  0  0  0  0  0  0  0  0  0  0
   -1.1053    3.0760    0.4478 O   0  0  0  0  0  0  0  0  0  0  0  0
    0.2487   -0.8560   -1.0454 N   0  0  0  0  0  0  0  0  0  0  0  0
    2.3691   -0.9127   -2.0799 N   0  0  0  0  0  0  0  0  0  0  0  0
   -0.2148    3.7959   -1.5460 N   0  0  0  0  0  0  0  0  0  0  0  0
    2.2569   -1.2758    0.3388 C   0  0  0  0  0  0  0  0  0  0  0  0
    2.7234   -2.3723    1.3241 C   0  0  0  0  0  0  0  0  0  0  0  0
    0.7414   -1.4404    0.1338 C   0  0  0  0  0  0  0  0  0  0  0  0
    2.6052    0.0950    0.9628 C   0  0  0  0  0  0  0  0  0  0  0  0
    3.0146   -1.4535   -0.9805 C   0  0  0  0  0  0  0  0  0  0  0  0
   -1.1946   -0.6877   -1.1655 C   0  0  0  0  0  0  0  0  0  0  0  0
   -1.6789    0.6688   -0.6569 C   0  0  0  0  0  0  0  0  0  0  0  0
    1.0291   -0.5485   -2.1752 C   0  0  0  0  0  0  0  0  0  0  0  0
    2.4180   -3.7534    0.7860 C   0  0  0  0  0  0  0  0  0  0  0  0
   -3.1908    0.8423   -0.7601 C   0  0  0  0  0  0  0  0  0  0  0  0
    1.6669    0.7614    1.7513 C   0  0  0  0  0  0  0  0  0  0  0  0
    3.8576    0.6662    0.7371 C   0  0  0  0  0  0  0  0  0  0  0  0
   -5.2388   -0.0662   -0.0508 C   0  0  0  0  0  0  0  0  0  0  0  0
   -5.8833   -1.1761    0.7842 C   0  0  0  0  0  0  0  0  0  0  0  0
    1.9812    1.9984    2.3139 C   0  0  0  0  0  0  0  0  0  0  0  0
    4.1720    1.9032    1.2999 C   0  0  0  0  0  0  0  0  0  0  0  0
    3.2338    2.5693    2.0882 C   0  0  0  0  0  0  0  0  0  0  0  0
   -7.4054   -1.1022    0.6846 C   0  0  0  0  0  0  0  0  0  0  0  0
   -5.4420   -1.1006    2.2474 C   0  0  0  0  0  0  0  0  0  0  0  0
   -0.8186    2.8738   -0.7273 C   0  0  0  0  0  0  0  0  0  0  0  0
  1 12  2  0
  2 16  1  0
  2 29  1  0
  3 19  1  0
  3 22  1  0
  4 14  2  0
  5 17  2  0
  6 29  2  0
  7 12  1  0
  7 15  1  0
  7 17  1  0
  8 14  1  0
  8 17  1  0
  9 29  1  0
 10 11  1  0
 10 12  1  0
 10 13  1  0
 10 14  1  0
 11 18  1  0
 13 20  2  0
 13 21  1  0
 15 16  1  0
 16 19  1  0
 20 24  1  0
 21 25  2  0
 22 23  1  0
 23 27  1  0
 23 28  1  0
 24 26  2  0
 25 26  1  0
M  END
>  <PUBCHEM_COMPOUND_CID>  (1) 
46489

>  <PUBCHEM_CONFORMER_RMSD>  (1) 
1

>  <PUBCHEM_CONFORMER_DIVERSEORDER>  (1) 
3
243
268
289
161
109
45
251
22
68
176
113
248
247
94
37
43
225
277
205
76
234
72
136
206
198
96
95
135
192
168
99
65
181
166
41
229
102
246
25
220
101
238
171
183
83
89
196
57
18
180
160
111
66
15
60
91
260
245
87
119
155
203
190
148
4
184
146
67
118
232
159
185
55
82
34
290
216
172
61
62
212
271
116
281
264
152
46
210
167
49
256
117
175
219
255
195
121
224
230
124
242
270
88
10
7
128
47
5
52
202
178
108
1
217
27
92
144
272
16
165
120
162
150
280
267
137
250
141
115
218
276
35
261
228
14
239
259
278
200
59
133
179
170
263
285
139
84
64
201
58
48
54
156
53
125
114
151
226
79
63
211
112
174
189
158
153
173
235
106
107
31
77
142
258
288
145
93
23
222
154
291
164
284
221
191
163
81
207
129
56
227
38
275
122
143
215
130
134
69
71
20
9
131
209
74
208
36
98
188
2
85
42
127
40
19
257
244
177
51
100
140
279
110
12
50
254
213
214
147
78
199
253
233
123
187
265
90
193
6
75
266
24
274
97
293
186
44
103
282
39
70
182
287
32
33
169
252
241
30
269
194
80
105
126
286
262
21
157
294
8
138
223
132
240
17
26
204
273
237
236
231
249
73
292
28
86
149
11
104
197
13
283
29

>  <PUBCHEM_MMFF94_PARTIAL_CHARGES>  (1) 
32
1 -0.57
10 0.27
12 0.57
13 -0.14
14 0.57
15 0.3
16 0.28
17 0.69
19 0.28
2 -0.43
20 -0.15
21 -0.15
22 0.28
24 -0.15
25 -0.15
26 -0.15
29 0.78
3 -0.56
35 0.37
4 -0.57
41 0.15
42 0.15
46 0.15
47 0.15
48 0.15
5 -0.57
55 0.37
56 0.37
6 -0.57
7 -0.42
8 -0.49
9 -0.8

>  <PUBCHEM_EFFECTIVE_ROTOR_COUNT>  (1) 
10.6

>  <PUBCHEM_PHARMACOPHORE_FEATURES>  (1) 
11
1 1 acceptor
1 18 hydrophobe
1 3 acceptor
1 4 acceptor
1 5 acceptor
1 6 acceptor
1 8 donor
1 9 donor
3 23 27 28 hydrophobe
6 13 20 21 24 25 26 rings
6 7 8 10 12 14 17 rings

>  <PUBCHEM_HEAVY_ATOM_COUNT>  (1) 
29

>  <PUBCHEM_ATOM_DEF_STEREO_COUNT>  (1) 
0

>  <PUBCHEM_ATOM_UDEF_STEREO_COUNT>  (1) 
2

>  <PUBCHEM_BOND_DEF_STEREO_COUNT>  (1) 
0

>  <PUBCHEM_BOND_UDEF_STEREO_COUNT>  (1) 
0

>  <PUBCHEM_ISOTOPIC_ATOM_COUNT>  (1) 
0

>  <PUBCHEM_COMPONENT_COUNT>  (1) 
1

>  <PUBCHEM_CACTVS_TAUTO_COUNT>  (1) 
6

>  <PUBCHEM_CONFORMER_ID>  (1) 
0000B59900000003

>  <PUBCHEM_MMFF94_ENERGY>  (1) 
72.4455

>  <PUBCHEM_FEATURE_SELFOVERLAP>  (1) 
55.823

>  <PUBCHEM_SHAPE_FINGERPRINT>  (1) 
10165383 225 18334576889050442882
10382601 240 18200858682457507672
11578080 2 18195543703225776682
12156800 1 17395031176274801244
12633257 1 17703779298130463295
13583140 156 18123447424258865871
14251764 75 17343493702741526721
14863182 85 18113903775136459243
15219462 58 17974542755005611294
18681886 176 17531544142860210958
20626108 58 16443058418119688205
23419403 2 17841747232854485210
23559900 14 17823691963262186975
238 59 17266324256293227420
3286 77 18045486535454579818
3411729 13 17988363779655373417
392239 28 18337939194885794579
439807 62 14057293060440892961
6442390 28 18265325286861842058

>  <PUBCHEM_SHAPE_MULTIPOLES>  (1) 
546.65
10.97
3.65
2.44
24.94
1.23
0.66
-3.7
-6.28
-3.25
-0.51
-0.84
0.44
2.47

>  <PUBCHEM_SHAPE_SELFOVERLAP>  (1) 
1136.333

>  <PUBCHEM_SHAPE_VOLUME>  (1) 
308

>  <PUBCHEM_COORDINATE_TYPE>  (1) 
2
5
10

$$$$
