46491
     RDKit          3D

 26 27  0  0  1  0  0  0  0  0999 V2000
    0.2280   -0.0927   -1.5670 O   0  0  0  0  0  0  0  0  0  0  0  0
   -2.5183    2.6249    0.9802 O   0  0  0  0  0  0  0  0  0  0  0  0
    2.7776    0.4912   -0.4078 O   0  0  0  0  0  0  0  0  0  0  0  0
    0.3648   -0.2248    3.0782 O   0  0  0  0  0  0  0  0  0  0  0  0
    3.8934   -2.0858   -0.5751 O   0  0  0  0  0  0  0  0  0  0  0  0
    4.5655    1.6654    0.4432 O   0  0  0  0  0  0  0  0  0  0  0  0
    0.2573   -0.3076    0.7484 N   0  0  0  0  0  0  0  0  0  0  0  0
   -1.1465    1.1099    2.0088 N   0  0  0  0  0  0  0  0  0  0  0  0
    4.1601    1.5713   -1.8181 N   0  0  0  0  0  0  0  0  0  0  0  0
   -1.6872    0.7674   -0.3581 C   0  0  0  0  0  0  0  0  0  0  0  0
   -1.8379    1.7058   -1.5813 C   0  0  0  0  0  0  0  0  0  0  0  0
   -0.3034    0.1061   -0.4717 C   0  0  0  0  0  0  0  0  0  0  0  0
   -2.8285   -0.2749   -0.3961 C   0  0  0  0  0  0  0  0  0  0  0  0
   -1.8234    1.6113    0.9114 C   0  0  0  0  0  0  0  0  0  0  0  0
    1.4249   -1.1802    0.6924 C   0  0  0  0  0  0  0  0  0  0  0  0
    2.7437   -0.4093    0.7001 C   0  0  0  0  0  0  0  0  0  0  0  0
   -0.1462    0.1441    2.0175 C   0  0  0  0  0  0  0  0  0  0  0  0
   -0.7271    2.7328   -1.6197 C   0  0  0  0  0  0  0  0  0  0  0  0
   -4.1493    0.1549   -0.4049 C   0  0  0  0  0  0  0  0  0  0  0  0
   -2.5198   -1.6289   -0.4215 C   0  0  0  0  0  0  0  0  0  0  0  0
    3.9687   -1.3145    0.6199 C   0  0  0  0  0  0  0  0  0  0  0  0
   -5.1790   -0.7854   -0.4395 C   0  0  0  0  0  0  0  0  0  0  0  0
   -3.5497   -2.5692   -0.4562 C   0  0  0  0  0  0  0  0  0  0  0  0
   -4.8792   -2.1473   -0.4651 C   0  0  0  0  0  0  0  0  0  0  0  0
    3.8919    1.2752   -0.5046 C   0  0  0  0  0  0  0  0  0  0  0  0
    5.0197   -2.9396   -0.7132 C   0  0  0  0  0  0  0  0  0  0  0  0
  1 12  2  0
  2 14  2  0
  3 16  1  0
  3 25  1  0
  4 17  2  0
  5 21  1  0
  5 26  1  0
  6 25  2  0
  7 12  1  0
  7 15  1  0
  7 17  1  0
  8 14  1  0
  8 17  1  0
  9 25  1  0
 10 11  1  0
 10 12  1  0
 10 13  1  0
 10 14  1  0
 11 18  1  0
 13 19  2  0
 13 20  1  0
 15 16  1  0
 16 21  1  0
 19 22  1  0
 20 23  2  0
 22 24  2  0
 23 24  1  0
M  END
>  <PUBCHEM_COMPOUND_CID>  (1) 
46491

>  <PUBCHEM_CONFORMER_RMSD>  (1) 
1

>  <PUBCHEM_CONFORMER_DIVERSEORDER>  (1) 
1
81
48
67
108
79
90
56
89
111
11
37
45
24
105
70
63
97
65
113
104
110
22
112
62
59
2
35
106
91
103
8
83
80
20
93
14
51
100
4
58
60
3
82
109
42
38
84
71
107
27
94
61
98
6
34
78
9
88
18
36
50
5
26
57
30
49
29
66
13
32
96
21
47
43
33
99
40
53
31
10
101
44
102
25
7
12
64
39
55
23
41
46
86
16
17
76
87
74
54
85
68
95
28
73
19
75
92
52
72
69
15
77

>  <PUBCHEM_MMFF94_PARTIAL_CHARGES>  (1) 
32
1 -0.57
10 0.27
12 0.57
13 -0.14
14 0.57
15 0.3
16 0.28
17 0.69
19 -0.15
2 -0.57
20 -0.15
21 0.28
22 -0.15
23 -0.15
24 -0.15
25 0.78
26 0.28
3 -0.43
32 0.37
36 0.15
37 0.15
4 -0.57
40 0.15
41 0.15
42 0.15
46 0.37
47 0.37
5 -0.56
6 -0.57
7 -0.42
8 -0.49
9 -0.8

>  <PUBCHEM_EFFECTIVE_ROTOR_COUNT>  (1) 
8.6

>  <PUBCHEM_PHARMACOPHORE_FEATURES>  (1) 
10
1 1 acceptor
1 18 hydrophobe
1 2 acceptor
1 4 acceptor
1 5 acceptor
1 6 acceptor
1 8 donor
1 9 donor
6 13 19 20 22 23 24 rings
6 7 8 10 12 14 17 rings

>  <PUBCHEM_HEAVY_ATOM_COUNT>  (1) 
26

>  <PUBCHEM_ATOM_DEF_STEREO_COUNT>  (1) 
0

>  <PUBCHEM_ATOM_UDEF_STEREO_COUNT>  (1) 
2

>  <PUBCHEM_BOND_DEF_STEREO_COUNT>  (1) 
0

>  <PUBCHEM_BOND_UDEF_STEREO_COUNT>  (1) 
0

>  <PUBCHEM_ISOTOPIC_ATOM_COUNT>  (1) 
0

>  <PUBCHEM_COMPONENT_COUNT>  (1) 
1

>  <PUBCHEM_CACTVS_TAUTO_COUNT>  (1) 
6

>  <PUBCHEM_CONFORMER_ID>  (1) 
0000B59B00000001

>  <PUBCHEM_MMFF94_ENERGY>  (1) 
76.0694

>  <PUBCHEM_FEATURE_SELFOVERLAP>  (1) 
50.748

>  <PUBCHEM_SHAPE_FINGERPRINT>  (1) 
10366900 7 17895485820876278212
10369192 42 17339815862475343504
10764073 3 11956132841450028753
11578080 2 17099418477106420965
12011746 2 16988564628409404485
12403260 363 17676475121830555592
12553582 1 14908175348594256200
12596599 1 18263076631005843492
12714826 92 17275103929306536353
12788726 201 17775015586883274329
12916754 54 18410573942523538254
13544653 18 18341332292417551567
13911987 19 14779561049287105567
14251740 79 18340207371489452835
14251764 3 13696412443918234495
14251764 30 16988290888020279399
14787075 74 17459184247554194637
14955137 171 18188224164805320753
15852999 172 13695860390318033177
17349148 13 16226037886470398256
17492 54 17677890330307143471
17492 89 18342738490432950446
19930381 70 18197210562896046856
22950370 63 18272370918934033611
23352939 185 18335982068868572029
23419403 2 14960300270036812993
23557571 272 18337652166627107616
23559900 14 18270389491137171890
3004659 81 18410288099549945218
312423 11 18411426081273072998
34934 24 17749093475546937069
350125 39 18341895173767605886
497634 4 18342181016541115548
633830 44 17312823757839246372
70251023 43 18188211996662161994

>  <PUBCHEM_SHAPE_MULTIPOLES>  (1) 
484.91
9.93
2.91
1.82
4.29
0.23
-1.04
5.47
3.05
0.43
1
0.38
-0.67
-0.5

>  <PUBCHEM_SHAPE_SELFOVERLAP>  (1) 
1021.992

>  <PUBCHEM_SHAPE_VOLUME>  (1) 
268.3

>  <PUBCHEM_COORDINATE_TYPE>  (1) 
2
5
10

$$$$
