46492
     RDKit          3D

 28 29  0  0  1  0  0  0  0  0999 V2000
   -0.6655   -0.3304   -2.0268 O   0  0  0  0  0  0  0  0  0  0  0  0
    2.7133    1.2387    0.6414 O   0  0  0  0  0  0  0  0  0  0  0  0
   -3.4358    2.3975    0.4829 O   0  0  0  0  0  0  0  0  0  0  0  0
    4.0683   -1.0789   -0.1304 O   0  0  0  0  0  0  0  0  0  0  0  0
    0.4148    0.8088    2.3491 O   0  0  0  0  0  0  0  0  0  0  0  0
    3.0739    3.0104   -0.7837 O   0  0  0  0  0  0  0  0  0  0  0  0
   -0.1273    0.0892    0.1963 N   0  0  0  0  0  0  0  0  0  0  0  0
   -1.5586    1.4993    1.4338 N   0  0  0  0  0  0  0  0  0  0  0  0
    3.5257    3.1697    1.4651 N   0  0  0  0  0  0  0  0  0  0  0  0
   -2.4554    0.4425   -0.5887 C   0  0  0  0  0  0  0  0  0  0  0  0
   -3.0706    0.9748   -1.9069 C   0  0  0  0  0  0  0  0  0  0  0  0
   -1.0022    0.0489   -0.9024 C   0  0  0  0  0  0  0  0  0  0  0  0
   -3.2899   -0.7685   -0.1120 C   0  0  0  0  0  0  0  0  0  0  0  0
   -2.5410    1.5527    0.4613 C   0  0  0  0  0  0  0  0  0  0  0  0
    1.1840   -0.5296    0.0370 C   0  0  0  0  0  0  0  0  0  0  0  0
    2.2477    0.4505   -0.4546 C   0  0  0  0  0  0  0  0  0  0  0  0
   -0.3703    0.7780    1.3979 C   0  0  0  0  0  0  0  0  0  0  0  0
   -2.2956    2.1659   -2.4275 C   0  0  0  0  0  0  0  0  0  0  0  0
   -2.6759   -2.0060    0.0818 C   0  0  0  0  0  0  0  0  0  0  0  0
   -4.6571   -0.6239    0.1240 C   0  0  0  0  0  0  0  0  0  0  0  0
    3.4463   -0.2393   -1.0983 C   0  0  0  0  0  0  0  0  0  0  0  0
   -3.4291   -3.0986    0.5116 C   0  0  0  0  0  0  0  0  0  0  0  0
   -5.4102   -1.7165    0.5539 C   0  0  0  0  0  0  0  0  0  0  0  0
   -4.7962   -2.9538    0.7476 C   0  0  0  0  0  0  0  0  0  0  0  0
    5.1856   -1.7628   -0.6785 C   0  0  0  0  0  0  0  0  0  0  0  0
    5.8034   -2.6391    0.4002 C   0  0  0  0  0  0  0  0  0  0  0  0
    3.0998    2.5131    0.3370 C   0  0  0  0  0  0  0  0  0  0  0  0
    7.0179   -3.3928   -0.1111 C   0  0  0  0  0  0  0  0  0  0  0  0
  1 12  2  0
  2 16  1  0
  2 27  1  0
  3 14  2  0
  4 21  1  0
  4 25  1  0
  5 17  2  0
  6 27  2  0
  7 12  1  0
  7 15  1  0
  7 17  1  0
  8 14  1  0
  8 17  1  0
  9 27  1  0
 10 11  1  0
 10 12  1  0
 10 13  1  0
 10 14  1  0
 11 18  1  0
 13 19  2  0
 13 20  1  0
 15 16  1  0
 16 21  1  0
 19 22  1  0
 20 23  2  0
 22 24  2  0
 23 24  1  0
 25 26  1  0
 26 28  1  0
M  END
>  <PUBCHEM_COMPOUND_CID>  (1) 
46492

>  <PUBCHEM_CONFORMER_RMSD>  (1) 
1

>  <PUBCHEM_CONFORMER_DIVERSEORDER>  (1) 
2
15
61
201
115
138
200
158
83
46
99
37
27
98
19
134
34
20
85
91
40
7
189
127
26
71
207
184
143
33
197
111
57
180
32
67
167
84
52
109
139
153
64
155
141
191
51
171
44
94
24
163
39
96
47
36
56
183
55
63
93
81
79
75
65
136
87
113
97
100
49
179
152
62
174
58
149
121
133
5
190
108
102
74
16
112
110
17
126
35
194
118
135
186
42
150
95
114
23
122
18
12
146
156
104
80
204
119
48
14
125
78
164
145
172
178
29
137
130
185
106
161
50
206
199
148
92
129
25
101
1
105
181
154
195
144
176
192
117
70
166
86
116
175
196
3
45
11
43
90
54
22
88
28
68
60
128
123
157
142
132
147
177
10
187
182
31
4
193
30
120
165
89
59
159
151
169
13
77
124
162
76
198
38
66
188
160
203
168
73
21
82
103
107
170
140
202
53
131
173
69
72
205
8
9
6
41

>  <PUBCHEM_MMFF94_PARTIAL_CHARGES>  (1) 
32
1 -0.57
10 0.27
12 0.57
13 -0.14
14 0.57
15 0.3
16 0.28
17 0.69
19 -0.15
2 -0.43
20 -0.15
21 0.28
22 -0.15
23 -0.15
24 -0.15
25 0.28
27 0.78
3 -0.57
34 0.37
38 0.15
39 0.15
4 -0.56
42 0.15
43 0.15
44 0.15
5 -0.57
52 0.37
53 0.37
6 -0.57
7 -0.42
8 -0.49
9 -0.8

>  <PUBCHEM_EFFECTIVE_ROTOR_COUNT>  (1) 
10.6

>  <PUBCHEM_PHARMACOPHORE_FEATURES>  (1) 
11
1 1 acceptor
1 18 hydrophobe
1 28 hydrophobe
1 3 acceptor
1 4 acceptor
1 5 acceptor
1 6 acceptor
1 8 donor
1 9 donor
6 13 19 20 22 23 24 rings
6 7 8 10 12 14 17 rings

>  <PUBCHEM_HEAVY_ATOM_COUNT>  (1) 
28

>  <PUBCHEM_ATOM_DEF_STEREO_COUNT>  (1) 
0

>  <PUBCHEM_ATOM_UDEF_STEREO_COUNT>  (1) 
2

>  <PUBCHEM_BOND_DEF_STEREO_COUNT>  (1) 
0

>  <PUBCHEM_BOND_UDEF_STEREO_COUNT>  (1) 
0

>  <PUBCHEM_ISOTOPIC_ATOM_COUNT>  (1) 
0

>  <PUBCHEM_COMPONENT_COUNT>  (1) 
1

>  <PUBCHEM_CACTVS_TAUTO_COUNT>  (1) 
6

>  <PUBCHEM_CONFORMER_ID>  (1) 
0000B59C00000002

>  <PUBCHEM_MMFF94_ENERGY>  (1) 
68.2014

>  <PUBCHEM_FEATURE_SELFOVERLAP>  (1) 
55.823

>  <PUBCHEM_SHAPE_FINGERPRINT>  (1) 
10369192 42 17836921570762815672
11405975 8 18412266129299298985
12633257 1 18058469680429861459
12760667 363 18413951685410828783
12916754 54 18334579052907033661
13009979 54 17988934319227366040
13533116 47 18337957891052539570
13583140 156 18337941325321344982
13782708 43 18335702758196890326
14251740 79 18259989249452717235
14251751 18 18409730664503350050
14910302 57 18260260875799768830
17492 89 18411419548559458402
17980427 23 17203035284914244256
1813 80 17751358606917724069
18393751 57 17620182578799537632
22393880 68 18040988514873630258
23557571 272 18041551567806176357
23559900 14 18409725192334531345
249057 3 18337110038770121421
3286 77 18408890641914040718
350125 39 18410580621277038678
5104073 3 18131359613011388512
531348 171 17460593615629886982
559249 180 18266741285839193786
7970288 3 18265897961091154874

>  <PUBCHEM_SHAPE_MULTIPOLES>  (1) 
526.07
12.86
3.94
1.64
15.67
0.71
0.28
13.1
-0.02
2.48
-0.62
-0.58
-1.16
1.95

>  <PUBCHEM_SHAPE_SELFOVERLAP>  (1) 
1095.651

>  <PUBCHEM_SHAPE_VOLUME>  (1) 
294.9

>  <PUBCHEM_COORDINATE_TYPE>  (1) 
2
5
10

$$$$
