465
     RDKit          3D

 15 15  0  0  1  0  0  0  0  0999 V2000
    3.1876    1.7635   -0.4212 S   0  0  0  0  0  0  0  0  0  0  0  0
   -2.8953    0.7462   -0.0878 P   0  0  0  0  0  0  0  0  0  0  0  0
    0.4216    0.5430   -0.0734 O   0  0  0  0  0  0  0  0  0  0  0  0
   -1.7357   -0.3637   -0.2755 O   0  0  0  0  0  0  0  0  0  0  0  0
    0.2534   -2.2106   -1.6325 O   0  0  0  0  0  0  0  0  0  0  0  0
    0.8026   -1.7171    1.8937 O   0  0  0  0  0  0  0  0  0  0  0  0
   -2.1084    2.1526   -0.2227 O   0  0  0  0  0  0  0  0  0  0  0  0
   -3.2236    0.6539    1.4930 O   0  0  0  0  0  0  0  0  0  0  0  0
   -4.0822    0.5858   -0.9920 O   0  0  0  0  0  0  0  0  0  0  0  0
    0.9702   -1.7419   -0.4919 C   0  0  0  0  0  0  0  0  0  0  0  0
    1.3982   -0.2941   -0.7204 C   0  0  0  0  0  0  0  0  0  0  0  0
    0.0354   -1.6587    0.6979 C   0  0  0  0  0  0  0  0  0  0  0  0
   -0.5787   -0.2759    0.5479 C   0  0  0  0  0  0  0  0  0  0  0  0
    2.7579    0.0298   -0.1171 C   0  0  0  0  0  0  0  0  0  0  0  0
    4.7970    1.7871    0.4021 C   0  0  0  0  0  0  0  0  0  0  0  0
  1 14  1  0
  1 15  1  0
  2  4  1  0
  2  7  1  0
  2  8  1  0
  2  9  2  0
  3 11  1  0
  3 13  1  0
  4 13  1  0
  5 10  1  0
  6 12  1  0
 10 11  1  0
 10 12  1  0
 11 14  1  0
 12 13  1  0
M  END
>  <PUBCHEM_COMPOUND_CID>  (1) 
465

>  <PUBCHEM_CONFORMER_RMSD>  (1) 
0.6

>  <PUBCHEM_CONFORMER_DIVERSEORDER>  (1) 
1
22
114
96
176
129
169
119
155
120
122
63
148
79
132
178
87
6
44
47
85
13
156
170
101
163
100
21
143
86
179
128
110
153
165
161
146
137
83
71
43
141
167
94
37
162
145
56
40
111
52
168
67
10
82
115
158
149
66
139
75
51
160
125
5
152
102
20
7
175
18
142
164
39
3
144
136
177
77
105
38
12
81
97
166
118
78
74
15
73
104
36
171
150
11
23
147
80
25
32
68
138
19
124
121
112
98
159
92
95
91
42
173
133
48
72
57
29
16
88
172
60
31
8
26
140
30
107
33
64
174
123
84
41
2
55
65
131
59
61
99
9
108
46
93
4
76
54
89
69
106
90
14
28
49
117
157
50
24
103
53
151
126
62
134
58
35
70
135
17
154
109
127
34
113
27
45
116
130

>  <PUBCHEM_MMFF94_PARTIAL_CHARGES>  (1) 
19
1 -0.46
10 0.28
11 0.28
12 0.28
13 0.56
14 0.23
15 0.23
2 1.51
22 0.4
23 0.4
27 0.5
28 0.5
3 -0.56
4 -0.55
5 -0.68
6 -0.68
7 -0.77
8 -0.77
9 -0.7

>  <PUBCHEM_EFFECTIVE_ROTOR_COUNT>  (1) 
5

>  <PUBCHEM_PHARMACOPHORE_FEATURES>  (1) 
11
1 15 hydrophobe
1 3 acceptor
1 5 acceptor
1 5 donor
1 6 acceptor
1 6 donor
1 7 acceptor
1 8 acceptor
1 9 acceptor
4 2 7 8 9 anion
5 3 10 11 12 13 rings

>  <PUBCHEM_HEAVY_ATOM_COUNT>  (1) 
15

>  <PUBCHEM_ATOM_DEF_STEREO_COUNT>  (1) 
0

>  <PUBCHEM_ATOM_UDEF_STEREO_COUNT>  (1) 
4

>  <PUBCHEM_BOND_DEF_STEREO_COUNT>  (1) 
0

>  <PUBCHEM_BOND_UDEF_STEREO_COUNT>  (1) 
0

>  <PUBCHEM_ISOTOPIC_ATOM_COUNT>  (1) 
0

>  <PUBCHEM_COMPONENT_COUNT>  (1) 
1

>  <PUBCHEM_CACTVS_TAUTO_COUNT>  (1) 
1

>  <PUBCHEM_CONFORMER_ID>  (1) 
000001D100000001

>  <PUBCHEM_MMFF94_ENERGY>  (1) 
1.369

>  <PUBCHEM_FEATURE_SELFOVERLAP>  (1) 
55.86

>  <PUBCHEM_SHAPE_FINGERPRINT>  (1) 
10922049 32 18408892849448154662
11543360 7 15841554110702907252
12119455 92 18412259554157938988
122479 349 18263927807830572380
13024252 1 17462273948654255958
13380535 76 18409451418498036876
13571099 52 18186242826801975382
14648413 74 17837218073591815333
15061688 2 18408599288312238340
15775835 57 18411418436046825596
16945 1 18337117756625918206
170605 34 18408887300118267279
18186145 218 18271539632060706508
20281475 54 9151164359574816400
20645477 56 18057330689731530744
20671657 53 17269494036367017606
20871999 31 13182753532145235313
21499 59 18344147007370979540
21524375 3 18410291445344851348
230 275 17822586992514511383
23211744 41 18334871505835983410
23382010 3 17060053791598748094
23402539 116 18264199390959290151
23500284 214 18339653351067886800
23557571 272 16588599595625626725
25 1 18342187656412978688
2748010 2 18196400167133608678
298252 57 18272649090864479318
305870 269 17968090893830372496
7364860 26 18192428567703752186
81539 233 18260263027673206324

>  <PUBCHEM_SHAPE_MULTIPOLES>  (1) 
275.31
6.62
2.31
1.24
2.1
0.4
-0.23
-6.01
-0.16
0.58
0.14
-0.35
0.58
0.12

>  <PUBCHEM_SHAPE_SELFOVERLAP>  (1) 
519.442

>  <PUBCHEM_SHAPE_VOLUME>  (1) 
173.1

>  <PUBCHEM_COORDINATE_TYPE>  (1) 
2
5
10

$$$$
