46504
     RDKit          3D

 16 16  0  0  0  0  0  0  0  0999 V2000
    2.6208   -1.4960   -1.1077 O   0  0  0  0  0  0  0  0  0  0  0  0
   -0.7639    0.0427    1.7604 O   0  0  0  0  0  0  0  0  0  0  0  0
    2.3284    2.9453    0.0087 O   0  0  0  0  0  0  0  0  0  0  0  0
    2.4130    0.7376   -0.6274 N   0  0  0  0  0  0  0  0  0  0  0  0
    0.7226    1.5061    0.8059 N   0  0  0  0  0  0  0  0  0  0  0  0
    0.5297   -0.7539   -0.1296 C   0  0  0  0  0  0  0  0  0  0  0  0
    0.3690   -2.1706    0.4408 C   0  0  0  0  0  0  0  0  0  0  0  0
   -0.4126   -0.5807   -1.3342 C   0  0  0  0  0  0  0  0  0  0  0  0
    1.9532   -0.5707   -0.6461 C   0  0  0  0  0  0  0  0  0  0  0  0
    0.1059    0.2691    0.9196 C   0  0  0  0  0  0  0  0  0  0  0  0
    1.3094   -2.3991    1.6042 C   0  0  0  0  0  0  0  0  0  0  0  0
   -1.8404   -0.6711   -0.9058 C   0  0  0  0  0  0  0  0  0  0  0  0
    1.8449    1.8125    0.0457 C   0  0  0  0  0  0  0  0  0  0  0  0
   -2.7226    0.3279   -1.0563 C   0  0  0  0  0  0  0  0  0  0  0  0
   -4.1510    0.2542   -0.6043 C   0  0  0  0  0  0  0  0  0  0  0  0
   -4.3062    0.7467    0.8261 C   0  0  0  0  0  0  0  0  0  0  0  0
  1  9  2  0
  2 10  2  0
  3 13  2  0
  4  9  1  0
  4 13  1  0
  5 10  1  0
  5 13  1  0
  6  7  1  0
  6  8  1  0
  6  9  1  0
  6 10  1  0
  7 11  1  0
  8 12  1  0
 12 14  2  0
 14 15  1  0
 15 16  1  0
M  END
>  <PUBCHEM_COMPOUND_CID>  (1) 
46504

>  <PUBCHEM_CONFORMER_RMSD>  (1) 
0.6

>  <PUBCHEM_CONFORMER_DIVERSEORDER>  (1) 
1
20
34
19
32
30
35
27
31
33
25
12
9
23
24
22
10
18
29
6
28
7
26
14
21
3
13
2
17
11
8
5
4
15
16

>  <PUBCHEM_MMFF94_PARTIAL_CHARGES>  (1) 
17
1 -0.57
10 0.57
12 -0.29
13 0.69
14 -0.29
15 0.14
2 -0.57
24 0.15
25 0.37
26 0.37
27 0.15
3 -0.57
4 -0.49
5 -0.49
6 0.12
8 0.14
9 0.57

>  <PUBCHEM_EFFECTIVE_ROTOR_COUNT>  (1) 
4.6

>  <PUBCHEM_PHARMACOPHORE_FEATURES>  (1) 
8
1 1 acceptor
1 11 hydrophobe
1 16 hydrophobe
1 2 acceptor
1 3 acceptor
1 4 donor
1 5 donor
6 4 5 6 9 10 13 rings

>  <PUBCHEM_HEAVY_ATOM_COUNT>  (1) 
16

>  <PUBCHEM_ATOM_DEF_STEREO_COUNT>  (1) 
0

>  <PUBCHEM_ATOM_UDEF_STEREO_COUNT>  (1) 
0

>  <PUBCHEM_BOND_DEF_STEREO_COUNT>  (1) 
0

>  <PUBCHEM_BOND_UDEF_STEREO_COUNT>  (1) 
1

>  <PUBCHEM_ISOTOPIC_ATOM_COUNT>  (1) 
0

>  <PUBCHEM_COMPONENT_COUNT>  (1) 
1

>  <PUBCHEM_CACTVS_TAUTO_COUNT>  (1) 
5

>  <PUBCHEM_CONFORMER_ID>  (1) 
0000B5A800000001

>  <PUBCHEM_MMFF94_ENERGY>  (1) 
34.5033

>  <PUBCHEM_FEATURE_SELFOVERLAP>  (1) 
40.636

>  <PUBCHEM_SHAPE_FINGERPRINT>  (1) 
12423570 1 11016441654031964010
12932764 1 18260820463453258695
13132413 78 18050254039278446026
14817 1 8280497437062488370
16945 1 18262224534937255295
18186145 218 18412546517817887583
19422 9 17989207058076780399
19765921 60 18197771305035025369
201361 129 18410011022793169349
20233049 118 17203040777839422785
20820808 20 18340482365243721961
21524375 3 18051110781884937988
21947302 44 18339919436839009820
22112679 90 17837212580270712498
23419403 2 17904243434658480362
25 1 18341051933831631700
305870 269 18116409587794629588
3286 77 17822283527373933787
6442390 28 18043541718444246155
81228 2 16388420072761866794

>  <PUBCHEM_SHAPE_MULTIPOLES>  (1) 
301.7
5.36
2.37
1.45
7.3
0.48
-0.24
1.55
0.51
-2.61
-0.69
0.15
-0.42
-0.25

>  <PUBCHEM_SHAPE_SELFOVERLAP>  (1) 
613.812

>  <PUBCHEM_SHAPE_VOLUME>  (1) 
172.6

>  <PUBCHEM_COORDINATE_TYPE>  (1) 
2
5
10

$$$$
