46514
     RDKit          3D

 17 17  0  0  0  0  0  0  0  0999 V2000
    0.1380    0.9472    2.2134 O   0  0  0  0  0  0  0  0  0  0  0  0
   -0.0705   -0.1778   -2.4536 O   0  0  0  0  0  0  0  0  0  0  0  0
    3.7251   -0.8719    0.0178 O   0  0  0  0  0  0  0  0  0  0  0  0
    1.9075    0.0344    1.0871 N   0  0  0  0  0  0  0  0  0  0  0  0
    1.8068   -0.5119   -1.1900 N   0  0  0  0  0  0  0  0  0  0  0  0
   -0.2025    0.4265   -0.1193 C   0  0  0  0  0  0  0  0  0  0  0  0
   -0.7550    1.8230   -0.4354 C   0  0  0  0  0  0  0  0  0  0  0  0
   -1.3182   -0.5387    0.1684 C   0  0  0  0  0  0  0  0  0  0  0  0
    0.6085    0.5054    1.1630 C   0  0  0  0  0  0  0  0  0  0  0  0
    0.4963   -0.1021   -1.3614 C   0  0  0  0  0  0  0  0  0  0  0  0
   -1.6747    2.2946    0.6852 C   0  0  0  0  0  0  0  0  0  0  0  0
    0.3880    2.8085   -0.6508 C   0  0  0  0  0  0  0  0  0  0  0  0
   -0.9847   -1.6343    1.1539 C   0  0  0  0  0  0  0  0  0  0  0  0
   -2.5058   -0.4098   -0.4537 C   0  0  0  0  0  0  0  0  0  0  0  0
    2.5583   -0.4778   -0.0250 C   0  0  0  0  0  0  0  0  0  0  0  0
   -0.3922   -2.8598    0.4737 C   0  0  0  0  0  0  0  0  0  0  0  0
   -3.7249   -1.2556   -0.2732 C   0  0  0  0  0  0  0  0  0  0  0  0
  1  9  2  0
  2 10  2  0
  3 15  2  0
  4  9  1  0
  4 15  1  0
  5 10  1  0
  5 15  1  0
  6  7  1  0
  6  8  1  0
  6  9  1  0
  6 10  1  0
  7 11  1  0
  7 12  1  0
  8 13  1  0
  8 14  2  0
 13 16  1  0
 14 17  1  0
M  END
>  <PUBCHEM_COMPOUND_CID>  (1) 
46514

>  <PUBCHEM_CONFORMER_RMSD>  (1) 
0.6

>  <PUBCHEM_CONFORMER_DIVERSEORDER>  (1) 
1
6
3
4
2
5

>  <PUBCHEM_MMFF94_PARTIAL_CHARGES>  (1) 
16
1 -0.57
10 0.57
13 0.14
14 -0.29
15 0.69
17 0.14
2 -0.57
27 0.15
28 0.37
29 0.37
3 -0.57
4 -0.49
5 -0.49
6 0.26
8 -0.28
9 0.57

>  <PUBCHEM_EFFECTIVE_ROTOR_COUNT>  (1) 
3.6

>  <PUBCHEM_PHARMACOPHORE_FEATURES>  (1) 
9
1 1 acceptor
1 16 hydrophobe
1 17 hydrophobe
1 2 acceptor
1 3 acceptor
1 4 donor
1 5 donor
3 7 11 12 hydrophobe
6 4 5 6 9 10 15 rings

>  <PUBCHEM_HEAVY_ATOM_COUNT>  (1) 
17

>  <PUBCHEM_ATOM_DEF_STEREO_COUNT>  (1) 
0

>  <PUBCHEM_ATOM_UDEF_STEREO_COUNT>  (1) 
0

>  <PUBCHEM_BOND_DEF_STEREO_COUNT>  (1) 
0

>  <PUBCHEM_BOND_UDEF_STEREO_COUNT>  (1) 
1

>  <PUBCHEM_ISOTOPIC_ATOM_COUNT>  (1) 
0

>  <PUBCHEM_COMPONENT_COUNT>  (1) 
1

>  <PUBCHEM_CACTVS_TAUTO_COUNT>  (1) 
5

>  <PUBCHEM_CONFORMER_ID>  (1) 
0000B5B200000001

>  <PUBCHEM_MMFF94_ENERGY>  (1) 
52.8501

>  <PUBCHEM_FEATURE_SELFOVERLAP>  (1) 
45.713

>  <PUBCHEM_SHAPE_FINGERPRINT>  (1) 
10863032 1 18126000460267584762
11578080 2 16808376670854431052
12138202 97 17913771622030873013
12423570 1 12129817607922144973
13024252 1 12973896874875371078
13134695 92 17916855954484910161
13380536 243 17531791558988882927
14817 1 14567368404733807947
15490181 7 17615978707252645157
15557651 10 17769352955919053096
16945 1 17774988107534769039
20233049 118 17822557366262620445
20511035 2 17627508577250414015
22344851 12 10053650577411570772
22344851 262 17753912522587864268
22344851 341 17908431259853295059
23402539 116 18411129225686276518
23419403 2 17915434225404325177
23559900 14 18410004426103386410
2748010 2 18190998249337142121
528886 8 14996555239495137267
7364860 26 17760088810340319715
81228 2 18339377270095099345

>  <PUBCHEM_SHAPE_MULTIPOLES>  (1) 
322.28
3.7
2.6
1.6
0.07
0.72
0.15
-1.87
0.35
0.63
-0.33
-0.25
0.16
-0.06

>  <PUBCHEM_SHAPE_SELFOVERLAP>  (1) 
667.525

>  <PUBCHEM_SHAPE_VOLUME>  (1) 
184

>  <PUBCHEM_COORDINATE_TYPE>  (1) 
2
5
10

$$$$
