46522
     RDKit          3D

 17 17  0  0  0  0  0  0  0  0999 V2000
    0.1097    0.9139    2.0662 O   0  0  0  0  0  0  0  0  0  0  0  0
    1.0960   -0.0727   -2.5320 O   0  0  0  0  0  0  0  0  0  0  0  0
    2.3336   -2.9039    0.8516 O   0  0  0  0  0  0  0  0  0  0  0  0
    1.2141   -0.9836    1.4241 N   0  0  0  0  0  0  0  0  0  0  0  0
    1.6977   -1.4637   -0.8186 N   0  0  0  0  0  0  0  0  0  0  0  0
    0.4648    0.6044   -0.3016 C   0  0  0  0  0  0  0  0  0  0  0  0
    1.0571    2.0089   -0.4801 C   0  0  0  0  0  0  0  0  0  0  0  0
   -1.0061    0.5998   -0.6108 C   0  0  0  0  0  0  0  0  0  0  0  0
    0.5742    0.2152    1.1629 C   0  0  0  0  0  0  0  0  0  0  0  0
    1.1087   -0.3180   -1.3239 C   0  0  0  0  0  0  0  0  0  0  0  0
    0.2731    3.0229    0.3452 C   0  0  0  0  0  0  0  0  0  0  0  0
    2.5311    2.0155   -0.0911 C   0  0  0  0  0  0  0  0  0  0  0  0
   -1.8952   -0.1967    0.0008 C   0  0  0  0  0  0  0  0  0  0  0  0
   -3.3703   -0.1994   -0.3110 C   0  0  0  0  0  0  0  0  0  0  0  0
    1.7843   -1.8553    0.5089 C   0  0  0  0  0  0  0  0  0  0  0  0
   -3.7997   -1.5747   -0.8213 C   0  0  0  0  0  0  0  0  0  0  0  0
   -4.1731    0.1874    0.9307 C   0  0  0  0  0  0  0  0  0  0  0  0
  1  9  2  0
  2 10  2  0
  3 15  2  0
  4  9  1  0
  4 15  1  0
  5 10  1  0
  5 15  1  0
  6  7  1  0
  6  8  1  0
  6  9  1  0
  6 10  1  0
  7 11  1  0
  7 12  1  0
  8 13  2  0
 13 14  1  0
 14 16  1  0
 14 17  1  0
M  END
>  <PUBCHEM_COMPOUND_CID>  (1) 
46522

>  <PUBCHEM_CONFORMER_RMSD>  (1) 
0.6

>  <PUBCHEM_CONFORMER_DIVERSEORDER>  (1) 
1
7
2
9
4
5
3
6
10
11
8

>  <PUBCHEM_MMFF94_PARTIAL_CHARGES>  (1) 
16
1 -0.57
10 0.57
13 -0.29
14 0.14
15 0.69
19 0.15
2 -0.57
26 0.15
28 0.37
29 0.37
3 -0.57
4 -0.49
5 -0.49
6 0.26
8 -0.29
9 0.57

>  <PUBCHEM_EFFECTIVE_ROTOR_COUNT>  (1) 
3.6

>  <PUBCHEM_PHARMACOPHORE_FEATURES>  (1) 
8
1 1 acceptor
1 2 acceptor
1 3 acceptor
1 4 donor
1 5 donor
3 14 16 17 hydrophobe
3 7 11 12 hydrophobe
6 4 5 6 9 10 15 rings

>  <PUBCHEM_HEAVY_ATOM_COUNT>  (1) 
17

>  <PUBCHEM_ATOM_DEF_STEREO_COUNT>  (1) 
0

>  <PUBCHEM_ATOM_UDEF_STEREO_COUNT>  (1) 
0

>  <PUBCHEM_BOND_DEF_STEREO_COUNT>  (1) 
0

>  <PUBCHEM_BOND_UDEF_STEREO_COUNT>  (1) 
1

>  <PUBCHEM_ISOTOPIC_ATOM_COUNT>  (1) 
0

>  <PUBCHEM_COMPONENT_COUNT>  (1) 
1

>  <PUBCHEM_CACTVS_TAUTO_COUNT>  (1) 
5

>  <PUBCHEM_CONFORMER_ID>  (1) 
0000B5BA00000001

>  <PUBCHEM_MMFF94_ENERGY>  (1) 
41.1909

>  <PUBCHEM_FEATURE_SELFOVERLAP>  (1) 
40.638

>  <PUBCHEM_SHAPE_FINGERPRINT>  (1) 
10922049 32 18049443948185418684
11578080 2 17677602060724358860
12326174 3 18342181106345168397
12423570 1 15321288212209982984
12725867 57 18339065017498900361
12932764 1 18334864930968800445
13464514 151 18337966682734582377
14817 1 15002970769758231892
16945 1 17169811483300969400
19010151 120 18342185444779004460
20559304 39 16917072187484819651
20600515 1 17914049802851784177
20645477 70 18411976997161050767
21452121 71 18263651679845571686
21524375 3 17767680925229965037
22112679 90 17980225009617858952
23419403 2 17606648415331375462
298252 57 17271451519225318404
3060560 45 18047177833224513741
430814 3 17837753891994370981
7364860 26 18335977653351599635
74978 22 18411135832105327607
81228 2 17619618095104200769
81539 233 18189046671657790644

>  <PUBCHEM_SHAPE_MULTIPOLES>  (1) 
322.28
4.96
2.68
1.61
7.61
0.06
-0.2
1.06
0
-2.42
0.54
-0.45
0.22
-0.71

>  <PUBCHEM_SHAPE_SELFOVERLAP>  (1) 
661.11

>  <PUBCHEM_SHAPE_VOLUME>  (1) 
185.9

>  <PUBCHEM_COORDINATE_TYPE>  (1) 
2
5
10

$$$$
