46535
     RDKit          3D

 13 13  0  0  0  0  0  0  0  0999 V2000
   -1.4674    1.2377    1.1254 F   0  0  0  0  0  0  0  0  0  0  0  0
    0.0820    2.3499    0.0632 F   0  0  0  0  0  0  0  0  0  0  0  0
   -1.4675    1.2963   -1.0569 F   0  0  0  0  0  0  0  0  0  0  0  0
   -1.4663   -1.2388   -1.1253 F   0  0  0  0  0  0  0  0  0  0  0  0
    0.0841   -2.3498   -0.0632 F   0  0  0  0  0  0  0  0  0  0  0  0
   -1.4663   -1.2974    1.0569 F   0  0  0  0  0  0  0  0  0  0  0  0
    1.0567    0.0041    1.1873 N   0  0  0  0  0  0  0  0  0  0  0  0
    1.0566   -0.0035   -1.1872 N   0  0  0  0  0  0  0  0  0  0  0  0
    0.1876    0.0000    0.0000 C   0  0  0  0  0  0  0  0  0  0  0  0
    2.3903   -0.3177    0.6855 C   0  0  0  0  0  0  0  0  0  0  0  0
    2.3900    0.3197   -0.6856 C   0  0  0  0  0  0  0  0  0  0  0  0
   -0.6904    1.2555    0.0339 C   0  0  0  0  0  0  0  0  0  0  0  0
   -0.6894   -1.2561   -0.0340 C   0  0  0  0  0  0  0  0  0  0  0  0
  1 12  1  0
  2 12  1  0
  3 12  1  0
  4 13  1  0
  5 13  1  0
  6 13  1  0
  7  9  1  0
  7 10  1  0
  8  9  1  0
  8 11  1  0
  9 12  1  0
  9 13  1  0
 10 11  1  0
M  END
>  <PUBCHEM_COMPOUND_CID>  (1) 
46535

>  <PUBCHEM_CONFORMER_RMSD>  (1) 
0.6

>  <PUBCHEM_CONFORMER_DIVERSEORDER>  (1) 
1

>  <PUBCHEM_MMFF94_PARTIAL_CHARGES>  (1) 
15
1 -0.34
10 0.27
11 0.27
12 1.02
13 1.02
14 0.36
15 0.36
2 -0.34
3 -0.34
4 -0.34
5 -0.34
6 -0.34
7 -0.9
8 -0.9
9 0.54

>  <PUBCHEM_EFFECTIVE_ROTOR_COUNT>  (1) 
3

>  <PUBCHEM_PHARMACOPHORE_FEATURES>  (1) 
5
1 7 cation
1 7 donor
1 8 cation
1 8 donor
5 7 8 9 10 11 rings

>  <PUBCHEM_HEAVY_ATOM_COUNT>  (1) 
13

>  <PUBCHEM_ATOM_DEF_STEREO_COUNT>  (1) 
0

>  <PUBCHEM_ATOM_UDEF_STEREO_COUNT>  (1) 
0

>  <PUBCHEM_BOND_DEF_STEREO_COUNT>  (1) 
0

>  <PUBCHEM_BOND_UDEF_STEREO_COUNT>  (1) 
0

>  <PUBCHEM_ISOTOPIC_ATOM_COUNT>  (1) 
0

>  <PUBCHEM_COMPONENT_COUNT>  (1) 
1

>  <PUBCHEM_CACTVS_TAUTO_COUNT>  (1) 
1

>  <PUBCHEM_CONFORMER_ID>  (1) 
0000B5C700000001

>  <PUBCHEM_MMFF94_ENERGY>  (1) 
16.7055

>  <PUBCHEM_FEATURE_SELFOVERLAP>  (1) 
25.443

>  <PUBCHEM_SHAPE_FINGERPRINT>  (1) 
10702982 57 17823403903841895098
12423570 1 15744260482538776664
13024252 1 15936700362286511420
137420 1 10941321382944167431
15557651 10 17844537595370062888
16945 1 17561363984757842048
18185500 45 18045505476144122138
20653091 64 17473835398855462571
21040471 1 18195809557395459600
21922407 69 14927090225245861676
21930827 45 17989211395587625720
369184 2 18410282614986867512
5084963 1 17979349759623047488
54338 74 18267571571747017210

>  <PUBCHEM_SHAPE_MULTIPOLES>  (1) 
213.93
2.42
1.95
1.14
1.29
0
0
0
0
-0.84
0
-0.04
0
-0.12

>  <PUBCHEM_SHAPE_SELFOVERLAP>  (1) 
449.41

>  <PUBCHEM_SHAPE_VOLUME>  (1) 
121.3

>  <PUBCHEM_COORDINATE_TYPE>  (1) 
2
5
10

$$$$
