46539
     RDKit          3D

 13 14  0  0  1  0  0  0  0  0999 V2000
   -0.3363    0.1784   -0.0888 N   0  0  0  0  0  0  0  0  0  0  0  0
   -2.5071    1.1779   -0.4185 N   0  0  0  0  0  0  0  0  0  0  0  0
   -2.6777   -0.2192    0.0516 C   0  0  0  0  0  0  0  0  0  0  0  0
   -1.3030   -0.9102   -0.1917 C   0  0  0  0  0  0  0  0  0  0  0  0
   -1.0736    1.4263   -0.2041 C   0  0  0  0  0  0  0  0  0  0  0  0
   -3.7853   -0.8902   -0.7619 C   0  0  0  0  0  0  0  0  0  0  0  0
   -3.0449   -0.2367    1.5449 C   0  0  0  0  0  0  0  0  0  0  0  0
    1.0270    0.0482   -0.0393 C   0  0  0  0  0  0  0  0  0  0  0  0
    1.6570   -1.2230   -0.0858 C   0  0  0  0  0  0  0  0  0  0  0  0
    1.8805    1.1781    0.0600 C   0  0  0  0  0  0  0  0  0  0  0  0
    3.0448   -1.3551   -0.0366 C   0  0  0  0  0  0  0  0  0  0  0  0
    3.2682    1.0460    0.1092 C   0  0  0  0  0  0  0  0  0  0  0  0
    3.8503   -0.2206    0.0609 C   0  0  0  0  0  0  0  0  0  0  0  0
  1  4  1  0
  1  5  1  0
  1  8  1  0
  2  3  1  0
  2  5  1  0
  3  4  1  0
  3  6  1  0
  3  7  1  0
  8  9  2  0
  8 10  1  0
  9 11  1  0
 10 12  2  0
 11 13  2  0
 12 13  1  0
M  END
>  <PUBCHEM_COMPOUND_CID>  (1) 
46539

>  <PUBCHEM_CONFORMER_RMSD>  (1) 
0.6

>  <PUBCHEM_CONFORMER_DIVERSEORDER>  (1) 
1
2

>  <PUBCHEM_MMFF94_PARTIAL_CHARGES>  (1) 
17
1 -0.84
10 -0.15
11 -0.15
12 -0.15
13 -0.15
18 0.36
2 -0.9
25 0.15
26 0.15
27 0.15
28 0.15
29 0.15
3 0.27
4 0.37
5 0.64
8 0.1
9 -0.15

>  <PUBCHEM_EFFECTIVE_ROTOR_COUNT>  (1) 
2

>  <PUBCHEM_PHARMACOPHORE_FEATURES>  (1) 
6
1 1 cation
1 2 cation
1 2 donor
3 3 6 7 hydrophobe
5 1 2 3 4 5 rings
6 8 9 10 11 12 13 rings

>  <PUBCHEM_HEAVY_ATOM_COUNT>  (1) 
13

>  <PUBCHEM_ATOM_DEF_STEREO_COUNT>  (1) 
0

>  <PUBCHEM_ATOM_UDEF_STEREO_COUNT>  (1) 
0

>  <PUBCHEM_BOND_DEF_STEREO_COUNT>  (1) 
0

>  <PUBCHEM_BOND_UDEF_STEREO_COUNT>  (1) 
0

>  <PUBCHEM_ISOTOPIC_ATOM_COUNT>  (1) 
0

>  <PUBCHEM_COMPONENT_COUNT>  (1) 
1

>  <PUBCHEM_CACTVS_TAUTO_COUNT>  (1) 
1

>  <PUBCHEM_CONFORMER_ID>  (1) 
0000B5CB00000001

>  <PUBCHEM_MMFF94_ENERGY>  (1) 
44.3363

>  <PUBCHEM_FEATURE_SELFOVERLAP>  (1) 
30.476

>  <PUBCHEM_SHAPE_FINGERPRINT>  (1) 
10219947 1 18335984246221344596
10608611 8 18408879620769944300
10980938 120 18341894104283422902
11132069 177 18340761632833972418
11471102 20 18410852179174067916
11615757 297 17988926690668966440
11769659 78 18410568453428902134
12032990 46 18334863817860243882
12251169 10 18202009828097564067
12932764 1 18343304768711063340
13296908 3 17967818249174599027
13693222 15 18410856568340597963
14144814 61 18342457036635027402
14251717 144 18412539937875560718
14325111 11 18410572872966074028
14445660 50 18060147535073107547
15219456 202 18408885113985298724
15309172 13 18201726141091668887
15775835 57 18201723980596239062
16945 1 18335707194823636948
17844478 74 18259993664478091313
18186145 218 18060707182291675488
19107657 162 17894638070981679939
19422 9 17846503638024305990
200 152 18131340926083326303
20201158 50 18334857220806425010
20279233 1 17894911845087290395
20281407 28 18408325492494290875
20528008 55 18409443717426535231
20645477 70 18338228271844050687
21501502 16 18338798909941580980
21501925 9 18336533955049126762
22169311 21 16950277407967240202
23402539 116 18335689551050447430
23402655 69 18412257316026459733
23463225 33 18411136922536475334
2748010 2 18337387119921312012
3248919 1 17458069261058738286
5104073 3 18411134714860034432
57096353 35 18339360867799651612
57812782 119 18113334215169742960
581208 293 18411132571824301110
69090 78 18341607144227728719
7364860 26 18340486793798557532
8030462 33 17531241716990390107
8809292 202 18187652426684589466
9709674 26 18410014325228017822

>  <PUBCHEM_SHAPE_MULTIPOLES>  (1) 
257.57
7.04
1.46
0.86
0.19
0.11
0.25
-1
0.2
0.42
-0.13
-0.78
-0.06
0

>  <PUBCHEM_SHAPE_SELFOVERLAP>  (1) 
534.526

>  <PUBCHEM_SHAPE_VOLUME>  (1) 
146.4

>  <PUBCHEM_COORDINATE_TYPE>  (1) 
2
5
10

$$$$
