46549
     RDKit          3D

 18 19  0  0  0  0  0  0  0  0999 V2000
   -2.8170    1.8750   -0.5282 O   0  0  0  0  0  0  0  0  0  0  0  0
   -4.7962   -0.5322   -1.6105 O   0  0  0  0  0  0  0  0  0  0  0  0
    0.7671   -0.9067    1.0458 N   0  0  0  0  0  0  0  0  0  0  0  0
    1.6734    0.0800    1.0848 N   0  0  0  0  0  0  0  0  0  0  0  0
   -4.5808   -0.3107   -0.4104 N   0  0  0  0  0  0  0  0  0  0  0  0
   -0.5850   -0.7505    0.6769 C   0  0  0  0  0  0  0  0  0  0  0  0
   -1.0527    0.4925    0.2504 C   0  0  0  0  0  0  0  0  0  0  0  0
   -2.3901    0.6464   -0.1152 C   0  0  0  0  0  0  0  0  0  0  0  0
   -1.4545   -1.8395    0.7378 C   0  0  0  0  0  0  0  0  0  0  0  0
    2.8887    0.0913    0.3812 C   0  0  0  0  0  0  0  0  0  0  0  0
   -3.2595   -0.4427   -0.0542 C   0  0  0  0  0  0  0  0  0  0  0  0
   -2.7918   -1.6856    0.3723 C   0  0  0  0  0  0  0  0  0  0  0  0
    3.7917    1.1447    0.5530 C   0  0  0  0  0  0  0  0  0  0  0  0
    3.2032   -0.9507   -0.4962 C   0  0  0  0  0  0  0  0  0  0  0  0
    4.9984    1.1561   -0.1466 C   0  0  0  0  0  0  0  0  0  0  0  0
    4.4100   -0.9392   -1.1956 C   0  0  0  0  0  0  0  0  0  0  0  0
    5.3076    0.1142   -1.0208 C   0  0  0  0  0  0  0  0  0  0  0  0
   -3.3124    2.7575    0.4753 C   0  0  0  0  0  0  0  0  0  0  0  0
  1  8  1  0
  1 18  1  0
  2  5  2  0
  3  4  1  0
  3  6  1  0
  4 10  1  0
  5 11  1  0
  6  7  2  0
  6  9  1  0
  7  8  1  0
  8 11  2  0
  9 12  2  0
 10 13  2  0
 10 14  1  0
 11 12  1  0
 13 15  1  0
 14 16  2  0
 15 17  2  0
 16 17  1  0
M  END
>  <PUBCHEM_COMPOUND_CID>  (1) 
46549

>  <PUBCHEM_CONFORMER_RMSD>  (1) 
0.6

>  <PUBCHEM_CONFORMER_DIVERSEORDER>  (1) 
1
55
38
61
44
60
22
54
53
58
13
41
14
29
63
10
43
28
57
47
51
62
30
17
45
2
48
50
24
56
49
3
40
46
64
21
11
37
35
32
33
34
23
26
4
20
18
59
31
52
15
9
27
36
25
12
7
42
39
16
5
6
8
19

>  <PUBCHEM_MMFF94_PARTIAL_CHARGES>  (1) 
28
1 -0.36
10 0.1
11 0.3
12 -0.15
13 -0.15
14 -0.15
15 -0.15
16 -0.15
17 -0.15
18 0.28
19 0.15
2 -0.16
20 0.4
21 0.15
22 0.4
23 0.15
24 0.15
25 0.15
26 0.15
27 0.15
28 0.15
3 -0.5
4 -0.5
5 -0.14
6 0.1
7 -0.15
8 0.08
9 -0.15

>  <PUBCHEM_EFFECTIVE_ROTOR_COUNT>  (1) 
5

>  <PUBCHEM_PHARMACOPHORE_FEATURES>  (1) 
5
1 1 acceptor
1 3 donor
1 4 donor
6 10 13 14 15 16 17 rings
6 6 7 8 9 11 12 rings

>  <PUBCHEM_HEAVY_ATOM_COUNT>  (1) 
18

>  <PUBCHEM_ATOM_DEF_STEREO_COUNT>  (1) 
0

>  <PUBCHEM_ATOM_UDEF_STEREO_COUNT>  (1) 
0

>  <PUBCHEM_BOND_DEF_STEREO_COUNT>  (1) 
0

>  <PUBCHEM_BOND_UDEF_STEREO_COUNT>  (1) 
0

>  <PUBCHEM_ISOTOPIC_ATOM_COUNT>  (1) 
0

>  <PUBCHEM_COMPONENT_COUNT>  (1) 
1

>  <PUBCHEM_CACTVS_TAUTO_COUNT>  (1) 
4

>  <PUBCHEM_CONFORMER_ID>  (1) 
0000B5D500000001

>  <PUBCHEM_MMFF94_ENERGY>  (1) 
70.3761

>  <PUBCHEM_FEATURE_SELFOVERLAP>  (1) 
27.056

>  <PUBCHEM_SHAPE_FINGERPRINT>  (1) 
10498660 4 18114173090944632732
10670039 82 17967819302043201084
12173636 292 18335135380121221623
12236239 1 16515680078807828578
12390115 104 18269564836622128689
12670546 177 17988923400787516286
12916748 109 18261116283151076946
13551218 46 10879728588603648773
13668630 136 16487264278872073038
13675066 3 10809340066449284946
14123260 362 17385448717172955490
14573314 32 18412267229190527100
15183329 4 17822014165043975750
15961568 22 17971189464239361292
1813 80 14189580762348503000
18186145 218 18343310253785253346
19050596 39 9151166554577339938
200 152 17060624407952917266
20300324 65 18412542119987686453
204376 136 14851605496582452704
20645477 56 18335426759176271025
20645477 70 17418101996995370782
20871999 31 18411704278936607160
21637258 2 15338824405335434863
221357 26 18273494576292947873
22646028 1 14979963566620498626
22646028 28 13470690343403847314
23366157 5 17680698221212659867
23379529 103 17338133644514238791
23402655 69 18411143520054667260
23557571 272 18342465837223691348
23559900 14 18339358703358082864
2838139 119 15503192558861572487
3268164 11 18334006220260114743
32948 21 18338243661492061126
351380 3 13902193685966797620
4028521 119 18186515514286044023
4214541 1 18411422787028031488
474 4 16660647362525206258
5281201 14 18273503368686984700
9709674 26 18342181072354448188

>  <PUBCHEM_SHAPE_MULTIPOLES>  (1) 
343.75
11.64
1.98
1.1
6.92
0.97
-0.18
1.76
-4.36
-1.95
0.25
0.03
-0.19
0.41

>  <PUBCHEM_SHAPE_SELFOVERLAP>  (1) 
731.308

>  <PUBCHEM_SHAPE_VOLUME>  (1) 
191.1

>  <PUBCHEM_COORDINATE_TYPE>  (1) 
2
5
10

$$$$
