46543
     RDKit          3D

 21 23  0  0  1  0  0  0  0  0999 V2000
   -2.0027   -1.1138    0.4874 O   0  0  0  0  0  0  0  0  0  0  0  0
   -1.2220    3.0624    1.8424 O   0  0  0  0  0  0  0  0  0  0  0  0
    0.8024    3.3523    0.8670 O   0  0  0  0  0  0  0  0  0  0  0  0
   -0.3584    1.2243    0.5389 C   0  0  0  0  0  0  0  0  0  0  0  0
   -1.7089    1.1503   -0.2220 C   0  0  0  0  0  0  0  0  0  0  0  0
    0.8307    0.7655   -0.2476 C   0  0  0  0  0  0  0  0  0  0  0  0
   -2.0472   -0.2630   -0.6796 C   0  0  0  0  0  0  0  0  0  0  0  0
    1.6262   -0.3151    0.1674 C   0  0  0  0  0  0  0  0  0  0  0  0
    2.7375   -0.6992   -0.6203 C   0  0  0  0  0  0  0  0  0  0  0  0
    1.1265    1.4571   -1.4225 C   0  0  0  0  0  0  0  0  0  0  0  0
   -0.1751    2.6471    1.0807 C   0  0  0  0  0  0  0  0  0  0  0  0
   -3.3422   -0.2754   -1.4564 C   0  0  0  0  0  0  0  0  0  0  0  0
    1.3431   -1.0225    1.3470 C   0  0  0  0  0  0  0  0  0  0  0  0
    3.0206    0.0086   -1.7999 C   0  0  0  0  0  0  0  0  0  0  0  0
    2.2194    1.0796   -2.1970 C   0  0  0  0  0  0  0  0  0  0  0  0
    3.5328   -1.7799   -0.2053 C   0  0  0  0  0  0  0  0  0  0  0  0
   -4.3812   -1.0276   -1.0786 C   0  0  0  0  0  0  0  0  0  0  0  0
    2.1443   -2.0933    1.7444 C   0  0  0  0  0  0  0  0  0  0  0  0
   -3.1203   -1.8437    0.7892 C   0  0  0  0  0  0  0  0  0  0  0  0
    3.2369   -2.4715    0.9698 C   0  0  0  0  0  0  0  0  0  0  0  0
   -4.2624   -1.8423    0.0949 C   0  0  0  0  0  0  0  0  0  0  0  0
  1  7  1  0
  1 19  1  0
  2 11  1  0
  3 11  2  0
  4  5  1  0
  4  6  1  0
  4 11  1  0
  5  7  1  0
  6  8  1  0
  6 10  2  0
  7 12  1  0
  8  9  2  0
  8 13  1  0
  9 14  1  0
  9 16  1  0
 10 15  1  0
 12 17  2  0
 13 18  2  0
 14 15  2  0
 16 20  2  0
 17 21  1  0
 18 20  1  0
 19 21  2  0
M  END
>  <PUBCHEM_COMPOUND_CID>  (1) 
46543

>  <PUBCHEM_CONFORMER_RMSD>  (1) 
0.6

>  <PUBCHEM_CONFORMER_DIVERSEORDER>  (1) 
1
19
33
35
17
18
10
47
57
40
56
36
45
25
52
26
55
48
30
23
15
49
42
29
8
5
20
31
22
43
7
59
39
9
41
38
34
51
37
27
3
28
58
6
53
32
44
54
4
12
46
2
16
50
24
13
11
14
21

>  <PUBCHEM_MMFF94_PARTIAL_CHARGES>  (1) 
30
1 -0.36
10 -0.15
11 0.66
12 -0.29
13 -0.15
14 -0.15
15 -0.15
16 -0.15
17 -0.15
18 -0.15
19 -0.07
2 -0.65
20 -0.15
21 -0.15
26 0.15
27 0.15
28 0.15
29 0.15
3 -0.57
30 0.15
31 0.15
32 0.15
33 0.15
34 0.15
35 0.15
36 0.15
37 0.5
4 0.2
6 -0.14
7 0.42

>  <PUBCHEM_EFFECTIVE_ROTOR_COUNT>  (1) 
4.4

>  <PUBCHEM_PHARMACOPHORE_FEATURES>  (1) 
7
1 1 acceptor
1 2 acceptor
1 3 acceptor
3 2 3 11 anion
6 1 7 12 17 19 21 rings
6 6 8 9 10 14 15 rings
6 8 9 13 16 18 20 rings

>  <PUBCHEM_HEAVY_ATOM_COUNT>  (1) 
21

>  <PUBCHEM_ATOM_DEF_STEREO_COUNT>  (1) 
0

>  <PUBCHEM_ATOM_UDEF_STEREO_COUNT>  (1) 
2

>  <PUBCHEM_BOND_DEF_STEREO_COUNT>  (1) 
0

>  <PUBCHEM_BOND_UDEF_STEREO_COUNT>  (1) 
0

>  <PUBCHEM_ISOTOPIC_ATOM_COUNT>  (1) 
0

>  <PUBCHEM_COMPONENT_COUNT>  (1) 
1

>  <PUBCHEM_CACTVS_TAUTO_COUNT>  (1) 
1

>  <PUBCHEM_CONFORMER_ID>  (1) 
0000B5CF00000001

>  <PUBCHEM_MMFF94_ENERGY>  (1) 
62.6972

>  <PUBCHEM_FEATURE_SELFOVERLAP>  (1) 
35.608

>  <PUBCHEM_SHAPE_FINGERPRINT>  (1) 
10764073 3 17177650910786067304
11370993 70 17387698442549313062
11578080 2 18117536480140527292
12363563 72 18130773556434646551
12553582 1 18201167615086522383
12596599 1 18045228141669210158
12633257 1 15267333003350473766
12707595 3 18342454889420606311
12788726 201 18270133296701871641
13009979 54 18192432970272279050
13533116 47 18266178530098499219
14787075 74 18267586999765767436
16752209 62 18341046320715382359
16945 1 17894917334092307436
1813 80 17632026320167952815
19078846 21 18273221898015583049
20361792 2 17917434258766884997
20369508 70 18270105937881301079
20600515 1 17846491552265903707
20626108 58 17314202567048483690
20645477 70 18057032739349775071
21033648 29 16056615205463072667
21452121 199 18412537713193095664
21634736 98 18113060419853637566
21731516 1 18202289112582885943
22112679 90 18269571450111862264
23419403 2 17614226279376802192
23557571 272 18200024045784164954
23559900 14 17822841091717999615
23598288 3 18049753748476721585
238 59 16733281130573290358
266924 78 17098377230519269644
5845 1 12870037654903101713
6669772 16 17837767095494427016
6992083 37 17612035880473213138
81228 2 17843682162565566257

>  <PUBCHEM_SHAPE_MULTIPOLES>  (1) 
414.56
6.83
3.22
1.85
5.24
1.41
0.17
-5.78
2.29
-0.65
-1.99
-0.65
0.78
-1.32

>  <PUBCHEM_SHAPE_SELFOVERLAP>  (1) 
904.408

>  <PUBCHEM_SHAPE_VOLUME>  (1) 
223.5

>  <PUBCHEM_COORDINATE_TYPE>  (1) 
2
5
10

$$$$
