46546
     RDKit          3D

 13 13  0  0  1  0  0  0  0  0999 V2000
   -0.7515   -1.9415   -1.4847 O   0  0  0  0  0  0  0  0  0  0  0  0
    0.4894    1.9650   -1.2046 O   0  0  0  0  0  0  0  0  0  0  0  0
   -2.0873    1.0497    0.2739 N   0  0  0  0  0  0  0  0  0  0  0  0
   -2.0210   -0.3604   -0.1301 C   0  0  0  0  0  0  0  0  0  0  0  0
   -0.7999   -0.5793   -1.0516 C   0  0  0  0  0  0  0  0  0  0  0  0
    0.5265   -0.2861   -0.3834 C   0  0  0  0  0  0  0  0  0  0  0  0
   -1.9597   -1.2126    1.1388 C   0  0  0  0  0  0  0  0  0  0  0  0
    1.0962    0.9704   -0.4983 C   0  0  0  0  0  0  0  0  0  0  0  0
    1.1427   -1.2971    0.3346 C   0  0  0  0  0  0  0  0  0  0  0  0
   -3.2735    1.2947    1.0755 C   0  0  0  0  0  0  0  0  0  0  0  0
    2.3189    1.2239    0.1233 C   0  0  0  0  0  0  0  0  0  0  0  0
    2.3655   -1.0436    0.9562 C   0  0  0  0  0  0  0  0  0  0  0  0
    2.9536    0.2168    0.8504 C   0  0  0  0  0  0  0  0  0  0  0  0
  1  5  1  0
  2  8  1  0
  3  4  1  0
  3 10  1  0
  4  5  1  0
  4  7  1  0
  5  6  1  0
  6  8  2  0
  6  9  1  0
  8 11  1  0
  9 12  2  0
 11 13  2  0
 12 13  1  0
M  END
>  <PUBCHEM_COMPOUND_CID>  (1) 
46546

>  <PUBCHEM_CONFORMER_RMSD>  (1) 
0.6

>  <PUBCHEM_CONFORMER_DIVERSEORDER>  (1) 
25
12
16
7
23
28
31
15
20
30
24
3
10
26
9
21
14
11
4
29
18
1
8
6
19
27
22
13
5
17
2

>  <PUBCHEM_MMFF94_PARTIAL_CHARGES>  (1) 
19
1 -0.68
10 0.27
11 -0.15
12 -0.15
13 -0.15
19 0.36
2 -0.53
20 0.15
21 0.4
25 0.15
26 0.15
27 0.15
28 0.45
3 -0.9
4 0.27
5 0.42
6 -0.14
8 0.08
9 -0.15

>  <PUBCHEM_EFFECTIVE_ROTOR_COUNT>  (1) 
3

>  <PUBCHEM_PHARMACOPHORE_FEATURES>  (1) 
6
1 1 acceptor
1 1 donor
1 2 donor
1 3 cation
1 3 donor
6 6 8 9 11 12 13 rings

>  <PUBCHEM_HEAVY_ATOM_COUNT>  (1) 
13

>  <PUBCHEM_ATOM_DEF_STEREO_COUNT>  (1) 
0

>  <PUBCHEM_ATOM_UDEF_STEREO_COUNT>  (1) 
2

>  <PUBCHEM_BOND_DEF_STEREO_COUNT>  (1) 
0

>  <PUBCHEM_BOND_UDEF_STEREO_COUNT>  (1) 
0

>  <PUBCHEM_ISOTOPIC_ATOM_COUNT>  (1) 
0

>  <PUBCHEM_COMPONENT_COUNT>  (1) 
1

>  <PUBCHEM_CACTVS_TAUTO_COUNT>  (1) 
3

>  <PUBCHEM_CONFORMER_ID>  (1) 
0000B5D200000019

>  <PUBCHEM_MMFF94_ENERGY>  (1) 
32.5983

>  <PUBCHEM_FEATURE_SELFOVERLAP>  (1) 
30.446

>  <PUBCHEM_SHAPE_FINGERPRINT>  (1) 
11086676 242 18189334567916544424
12138202 97 15410884193326281764
12202030 40 15719379608223216530
12251169 10 18260274044491245385
12382932 28 18114175328674847792
12423570 1 11054776852652063006
12696612 119 18187091688401578120
13571099 52 16916778514421329849
13839132 238 17346883346765506180
15775835 57 18131353024568583225
16945 1 18188206485870610652
20361792 2 13623820474481546355
20379382 53 17240776132488952052
20511035 2 18411992338161336563
20711985 344 13262936530292930271
21061003 4 17385714790665968024
22112679 90 17411343521920173455
22802520 49 14044926800400114202
230 275 17488473970497869697
25 1 13038371192729459930
2748010 2 17617074929489243598
5084963 1 16662323129656578026
568465 68 16371021667020237841
63268167 104 18190439714440971412
81228 2 16842755229879956751
94968 8 8140926436440461849

>  <PUBCHEM_SHAPE_MULTIPOLES>  (1) 
250.81
4.34
1.85
1.28
0.84
0.13
0.14
1.03
-2.13
0.17
0.26
0.31
-0.2
-0.61

>  <PUBCHEM_SHAPE_SELFOVERLAP>  (1) 
512.55

>  <PUBCHEM_SHAPE_VOLUME>  (1) 
145.8

>  <PUBCHEM_COORDINATE_TYPE>  (1) 
2
5
10

$$$$
