46545
     RDKit          3D

 21 23  0  0  1  0  0  0  0  0999 V2000
    1.0657   -2.5531    2.0644 O   0  0  0  0  0  0  0  0  0  0  0  0
   -0.2209   -3.8784    0.7511 O   0  0  0  0  0  0  0  0  0  0  0  0
   -2.4174    0.3618   -0.5621 N   0  0  0  0  0  0  0  0  0  0  0  0
   -2.9620    1.5437   -1.2298 C   0  0  0  0  0  0  0  0  0  0  0  0
   -3.5486   -0.2233    0.1568 C   0  0  0  0  0  0  0  0  0  0  0  0
   -3.8590    2.1551   -0.1635 C   0  0  0  0  0  0  0  0  0  0  0  0
   -4.2416    0.9945    0.7498 C   0  0  0  0  0  0  0  0  0  0  0  0
   -1.8092   -0.5734   -1.4967 C   0  0  0  0  0  0  0  0  0  0  0  0
   -1.2914   -1.8062   -0.7496 C   0  0  0  0  0  0  0  0  0  0  0  0
   -0.2111   -1.4773    0.3172 C   0  0  0  0  0  0  0  0  0  0  0  0
    0.9899   -0.7717   -0.2331 C   0  0  0  0  0  0  0  0  0  0  0  0
    1.3566    0.5158    0.1915 C   0  0  0  0  0  0  0  0  0  0  0  0
    0.1947   -2.7641    1.0439 C   0  0  0  0  0  0  0  0  0  0  0  0
    1.7428   -1.4455   -1.1953 C   0  0  0  0  0  0  0  0  0  0  0  0
    2.5033    1.1283   -0.3677 C   0  0  0  0  0  0  0  0  0  0  0  0
    0.6106    1.2088    1.1587 C   0  0  0  0  0  0  0  0  0  0  0  0
    2.8707   -0.8433   -1.7449 C   0  0  0  0  0  0  0  0  0  0  0  0
    3.2497    0.4353   -1.3348 C   0  0  0  0  0  0  0  0  0  0  0  0
    2.8703    2.4158    0.0568 C   0  0  0  0  0  0  0  0  0  0  0  0
    0.9896    2.4874    1.5686 C   0  0  0  0  0  0  0  0  0  0  0  0
    2.1173    3.0898    1.0186 C   0  0  0  0  0  0  0  0  0  0  0  0
  1 13  1  0
  2 13  2  0
  3  4  1  0
  3  5  1  0
  3  8  1  0
  4  6  1  0
  5  7  1  0
  6  7  1  0
  8  9  1  0
  9 10  1  0
 10 11  1  0
 10 13  1  0
 11 12  1  0
 11 14  2  0
 12 15  2  0
 12 16  1  0
 14 17  1  0
 15 18  1  0
 15 19  1  0
 16 20  2  0
 17 18  2  0
 19 21  2  0
 20 21  1  0
M  END
>  <PUBCHEM_COMPOUND_CID>  (1) 
46545

>  <PUBCHEM_CONFORMER_RMSD>  (1) 
0.8

>  <PUBCHEM_CONFORMER_DIVERSEORDER>  (1) 
3
10
33
38
32
7
35
16
30
22
19
25
34
24
28
11
17
27
37
2
4
8
21
9
26
31
13
20
15
5
12
1
18
23
14
36
29
6

>  <PUBCHEM_MMFF94_PARTIAL_CHARGES>  (1) 
24
1 -0.65
10 0.2
11 -0.14
13 0.66
14 -0.15
16 -0.15
17 -0.15
18 -0.15
19 -0.15
2 -0.57
20 -0.15
21 -0.15
3 -0.81
35 0.15
36 0.15
37 0.15
38 0.15
39 0.15
4 0.27
40 0.15
41 0.15
42 0.5
5 0.27
8 0.27

>  <PUBCHEM_EFFECTIVE_ROTOR_COUNT>  (1) 
6

>  <PUBCHEM_PHARMACOPHORE_FEATURES>  (1) 
7
1 1 acceptor
1 2 acceptor
1 3 cation
3 1 2 13 anion
5 3 4 5 6 7 rings
6 11 12 14 15 17 18 rings
6 12 15 16 19 20 21 rings

>  <PUBCHEM_HEAVY_ATOM_COUNT>  (1) 
21

>  <PUBCHEM_ATOM_DEF_STEREO_COUNT>  (1) 
0

>  <PUBCHEM_ATOM_UDEF_STEREO_COUNT>  (1) 
1

>  <PUBCHEM_BOND_DEF_STEREO_COUNT>  (1) 
0

>  <PUBCHEM_BOND_UDEF_STEREO_COUNT>  (1) 
0

>  <PUBCHEM_ISOTOPIC_ATOM_COUNT>  (1) 
0

>  <PUBCHEM_COMPONENT_COUNT>  (1) 
1

>  <PUBCHEM_CACTVS_TAUTO_COUNT>  (1) 
1

>  <PUBCHEM_CONFORMER_ID>  (1) 
0000B5D100000003

>  <PUBCHEM_MMFF94_ENERGY>  (1) 
52.9792

>  <PUBCHEM_FEATURE_SELFOVERLAP>  (1) 
35.606

>  <PUBCHEM_SHAPE_FINGERPRINT>  (1) 
10165383 225 18115325400810645709
10366900 7 18261122833614545633
104564 63 17337875920046459461
10498660 4 18334565863701063789
10906281 52 18129681754800869180
11221954 11 18054503874847518668
12035759 4 17401501346631605814
128993 33 18411131442295804037
13132413 78 18049975845704358738
13134695 92 17615093635100196631
13294875 104 18337935814857016402
13464514 151 18343022241799914908
14386348 128 18410009940414380085
14713325 29 17687475971747724420
14955137 171 18191860120140055602
15238133 3 17833547895399633753
15295992 7 18337401529378269546
15848702 68 18049146783967554029
16945 1 18130796646120696996
18186145 218 18341618104936600605
18981168 100 17968921021051948269
19049666 15 18123755511259026482
19765921 60 18411698794136613634
19784866 9 18043813087051432298
20465049 17 18270975531293329365
20600515 1 17630021785916719026
21041028 32 17545317476050381239
21524375 3 18268135621175201615
22112679 90 17550955784488314714
22182313 1 17626403560081687236
23493267 7 17974848677543130760
23526113 38 18270135555569917094
23557571 272 17469324090020057198
23558518 356 18123743416504403741
238 59 18125128616672775125
25 1 18342462551367838884
2637199 183 18201169758449055485
2748010 2 17770235061082439556
2803657 2 17694227668515254480
35225 105 16952808621489611691
3524813 1 18409452449222025797
6442390 28 18262248827731431843
7226269 152 18341047437654831456
7399639 24 17338434927293548154
7832392 63 17917990572795465005
81228 2 17610907068283677403
9981440 41 17413007048706001552

>  <PUBCHEM_SHAPE_MULTIPOLES>  (1) 
415.45
6.03
3.83
1.64
5.26
1.02
0.13
-4.14
-1.69
-1.03
1.94
-0.56
0.49
0.74

>  <PUBCHEM_SHAPE_SELFOVERLAP>  (1) 
892.465

>  <PUBCHEM_SHAPE_VOLUME>  (1) 
231.1

>  <PUBCHEM_COORDINATE_TYPE>  (1) 
2
5
10

$$$$
