46541
     RDKit          3D

 22 24  0  0  1  0  0  0  0  0999 V2000
    0.3911    3.4901   -1.5302 O   0  0  0  0  0  0  0  0  0  0  0  0
   -1.8035    3.0606   -1.1628 O   0  0  0  0  0  0  0  0  0  0  0  0
    2.2209   -0.0195    0.6974 N   0  0  0  0  0  0  0  0  0  0  0  0
    3.3139    0.7904    0.1411 C   0  0  0  0  0  0  0  0  0  0  0  0
    2.7369   -1.2290    1.3539 C   0  0  0  0  0  0  0  0  0  0  0  0
    4.1277   -0.0074   -0.8789 C   0  0  0  0  0  0  0  0  0  0  0  0
    3.5318   -2.0928    0.3733 C   0  0  0  0  0  0  0  0  0  0  0  0
    1.4243    0.7714    1.6350 C   0  0  0  0  0  0  0  0  0  0  0  0
    4.6621   -1.3002   -0.2731 C   0  0  0  0  0  0  0  0  0  0  0  0
    0.7880    1.9633    0.9138 C   0  0  0  0  0  0  0  0  0  0  0  0
   -0.1367    1.5344   -0.2449 C   0  0  0  0  0  0  0  0  0  0  0  0
   -1.3231    0.6964    0.2153 C   0  0  0  0  0  0  0  0  0  0  0  0
   -1.4996   -0.6077   -0.2351 C   0  0  0  0  0  0  0  0  0  0  0  0
   -0.6268    2.7587   -1.0074 C   0  0  0  0  0  0  0  0  0  0  0  0
   -2.2001    1.3049    1.0954 C   0  0  0  0  0  0  0  0  0  0  0  0
   -2.6222   -1.3334    0.2299 C   0  0  0  0  0  0  0  0  0  0  0  0
   -0.6070   -1.2217   -1.1288 C   0  0  0  0  0  0  0  0  0  0  0  0
   -3.3038    0.5912    1.5529 C   0  0  0  0  0  0  0  0  0  0  0  0
   -3.5147   -0.7196    1.1239 C   0  0  0  0  0  0  0  0  0  0  0  0
   -2.8190   -2.6517   -0.2123 C   0  0  0  0  0  0  0  0  0  0  0  0
   -0.8182   -2.5323   -1.5579 C   0  0  0  0  0  0  0  0  0  0  0  0
   -1.9221   -3.2459   -1.1007 C   0  0  0  0  0  0  0  0  0  0  0  0
  1 14  1  0
  2 14  2  0
  3  4  1  0
  3  5  1  0
  3  8  1  0
  4  6  1  0
  5  7  1  0
  6  9  1  0
  7  9  1  0
  8 10  1  0
 10 11  1  0
 11 12  1  0
 11 14  1  0
 12 13  1  0
 12 15  2  0
 13 16  2  0
 13 17  1  0
 15 18  1  0
 16 19  1  0
 16 20  1  0
 17 21  2  0
 18 19  2  0
 20 22  2  0
 21 22  1  0
M  END
>  <PUBCHEM_COMPOUND_CID>  (1) 
46541

>  <PUBCHEM_CONFORMER_RMSD>  (1) 
0.8

>  <PUBCHEM_CONFORMER_DIVERSEORDER>  (1) 
1
9
13
3
43
45
44
19
39
37
21
6
23
24
35
25
40
42
28
49
26
10
14
5
18
20
32
33
11
36
30
2
48
17
34
31
38
8
27
16
47
22
46
4
15
7
41
29
12

>  <PUBCHEM_MMFF94_PARTIAL_CHARGES>  (1) 
24
1 -0.65
11 0.2
12 -0.14
14 0.66
15 -0.15
17 -0.15
18 -0.15
19 -0.15
2 -0.57
20 -0.15
21 -0.15
22 -0.15
3 -0.81
38 0.15
39 0.15
4 0.27
40 0.15
41 0.15
42 0.15
43 0.15
44 0.5
45 0.15
5 0.27
8 0.27

>  <PUBCHEM_EFFECTIVE_ROTOR_COUNT>  (1) 
6.2

>  <PUBCHEM_PHARMACOPHORE_FEATURES>  (1) 
7
1 1 acceptor
1 2 acceptor
1 3 cation
3 1 2 14 anion
6 12 13 15 16 18 19 rings
6 13 16 17 20 21 22 rings
6 3 4 5 6 7 9 rings

>  <PUBCHEM_HEAVY_ATOM_COUNT>  (1) 
22

>  <PUBCHEM_ATOM_DEF_STEREO_COUNT>  (1) 
0

>  <PUBCHEM_ATOM_UDEF_STEREO_COUNT>  (1) 
1

>  <PUBCHEM_BOND_DEF_STEREO_COUNT>  (1) 
0

>  <PUBCHEM_BOND_UDEF_STEREO_COUNT>  (1) 
0

>  <PUBCHEM_ISOTOPIC_ATOM_COUNT>  (1) 
0

>  <PUBCHEM_COMPONENT_COUNT>  (1) 
1

>  <PUBCHEM_CACTVS_TAUTO_COUNT>  (1) 
1

>  <PUBCHEM_CONFORMER_ID>  (1) 
0000B5CD00000001

>  <PUBCHEM_MMFF94_ENERGY>  (1) 
50.1511

>  <PUBCHEM_FEATURE_SELFOVERLAP>  (1) 
35.606

>  <PUBCHEM_SHAPE_FINGERPRINT>  (1) 
107951 10 17318461886089371131
11578080 2 18191844902997072860
12011746 2 18272371936682767327
12156800 1 13316242889642862134
12403259 327 16916513660978585115
12403814 3 18336551520943134432
12553582 1 18261668276653696530
12633257 1 17775013374774962107
12714826 92 18339075987114380464
14251751 93 18117560630941423290
14251757 17 17688819424548207183
14863182 85 16973631318535462482
16752209 62 18194098760062376563
16945 1 18131068255589164371
17349148 13 17917430999303737559
17804303 29 18060427944702931915
1813 80 18189609621558165361
20291156 8 18340485693959654778
20600515 1 18129401387224029868
20645476 183 17538270744761376152
21330990 113 17984443861424233521
21421566 26 18335990796152291220
21731516 1 18337378439802962730
22907989 373 18261950730735524372
23419403 2 15976306978774319875
23598288 3 17896591787369940344
23598291 2 18122355824213971829
23728640 28 17543588029900675851
26353 1 17823682234765753133
2748010 2 17908451077359620575
465052 167 18263383493850940987
5845 1 13572909065694156589
6287921 2 17982450696468559464
6992083 37 18341338876512388529
7097593 13 18127695043956467043
81228 2 18196626649058702907

>  <PUBCHEM_SHAPE_MULTIPOLES>  (1) 
436.03
6.77
3.84
1.56
6.29
0.52
0
-3.57
1.42
-1.73
-2.08
-0.28
0.42
-0.61

>  <PUBCHEM_SHAPE_SELFOVERLAP>  (1) 
931.48

>  <PUBCHEM_SHAPE_VOLUME>  (1) 
242

>  <PUBCHEM_COORDINATE_TYPE>  (1) 
2
5
10

$$$$
