46552
     RDKit          3D

 19 20  0  0  0  0  0  0  0  0999 V2000
    0.5951   -2.1324    0.1846 O   0  0  0  0  0  0  0  0  0  0  0  0
    5.2597    1.5212    0.0746 O   0  0  0  0  0  0  0  0  0  0  0  0
    5.3034   -0.6196    0.5583 O   0  0  0  0  0  0  0  0  0  0  0  0
   -0.8687    0.1459   -0.5449 N   0  0  0  0  0  0  0  0  0  0  0  0
    4.6802    0.4195    0.2322 N   0  0  0  0  0  0  0  0  0  0  0  0
   -1.4638    0.3817    0.5328 N   0  0  0  0  0  0  0  0  0  0  0  0
    1.2301   -0.9389    0.0137 C   0  0  0  0  0  0  0  0  0  0  0  0
    0.5217    0.2035   -0.3483 C   0  0  0  0  0  0  0  0  0  0  0  0
    3.2757    0.3465    0.0360 C   0  0  0  0  0  0  0  0  0  0  0  0
    2.6098   -0.8675    0.2063 C   0  0  0  0  0  0  0  0  0  0  0  0
    1.1824    1.4173   -0.5192 C   0  0  0  0  0  0  0  0  0  0  0  0
    2.5621    1.4890   -0.3263 C   0  0  0  0  0  0  0  0  0  0  0  0
   -2.8475    0.3247    0.3376 C   0  0  0  0  0  0  0  0  0  0  0  0
   -3.5261   -0.8825    0.5043 C   0  0  0  0  0  0  0  0  0  0  0  0
   -3.5488    1.4751   -0.0234 C   0  0  0  0  0  0  0  0  0  0  0  0
   -4.9064   -0.9392    0.3104 C   0  0  0  0  0  0  0  0  0  0  0  0
   -4.9290    1.4183   -0.2175 C   0  0  0  0  0  0  0  0  0  0  0  0
   -5.6081    0.2113   -0.0503 C   0  0  0  0  0  0  0  0  0  0  0  0
    0.4783   -2.9738   -0.9609 C   0  0  0  0  0  0  0  0  0  0  0  0
  1  7  1  0
  1 19  1  0
  2  5  1  0
  3  5  2  0
  4  6  2  0
  4  8  1  0
  5  9  1  0
  6 13  1  0
  7  8  2  0
  7 10  1  0
  8 11  1  0
  9 10  2  0
  9 12  1  0
 11 12  2  0
 13 14  2  0
 13 15  1  0
 14 16  1  0
 15 17  2  0
 16 18  2  0
 17 18  1  0
M  CHG  2   2  -1   5   1
M  END
>  <PUBCHEM_COMPOUND_CID>  (1) 
46552

>  <PUBCHEM_CONFORMER_RMSD>  (1) 
0.6

>  <PUBCHEM_CONFORMER_DIVERSEORDER>  (1) 
1
5
7
6
4
3
2

>  <PUBCHEM_MMFF94_PARTIAL_CHARGES>  (1) 
27
1 -0.36
10 -0.15
11 -0.15
12 -0.15
13 0.18
14 -0.15
15 -0.15
16 -0.15
17 -0.15
18 -0.15
19 0.28
2 -0.52
20 0.15
21 0.15
22 0.15
23 0.15
24 0.15
25 0.15
26 0.15
27 0.15
3 -0.52
4 -0.18
5 0.91
6 -0.18
7 0.08
8 0.18
9 0.13

>  <PUBCHEM_EFFECTIVE_ROTOR_COUNT>  (1) 
4

>  <PUBCHEM_PHARMACOPHORE_FEATURES>  (1) 
6
1 1 acceptor
1 2 acceptor
1 2 anion
1 3 acceptor
6 13 14 15 16 17 18 rings
6 7 8 9 10 11 12 rings

>  <PUBCHEM_HEAVY_ATOM_COUNT>  (1) 
19

>  <PUBCHEM_ATOM_DEF_STEREO_COUNT>  (1) 
0

>  <PUBCHEM_ATOM_UDEF_STEREO_COUNT>  (1) 
0

>  <PUBCHEM_BOND_DEF_STEREO_COUNT>  (1) 
0

>  <PUBCHEM_BOND_UDEF_STEREO_COUNT>  (1) 
0

>  <PUBCHEM_ISOTOPIC_ATOM_COUNT>  (1) 
0

>  <PUBCHEM_COMPONENT_COUNT>  (1) 
1

>  <PUBCHEM_CACTVS_TAUTO_COUNT>  (1) 
1

>  <PUBCHEM_CONFORMER_ID>  (1) 
0000B5D800000001

>  <PUBCHEM_MMFF94_ENERGY>  (1) 
66.2689

>  <PUBCHEM_FEATURE_SELFOVERLAP>  (1) 
30.528

>  <PUBCHEM_SHAPE_FINGERPRINT>  (1) 
10366900 7 17917704695946599035
10616163 171 18411422856154060455
11370993 70 18409448085851607843
12107183 9 17614557043292713977
12236239 1 18060136539877838285
12507557 5 18408042927023655169
13134695 92 12540987325333672199
13836976 161 18409452500529095983
14341114 176 18334582330083027537
15196674 1 18408604751257320787
15375358 24 18333736793204901691
18681886 176 18340201985678993784
200 152 18343581846179404465
20197701 30 18342172284688304474
204376 136 18343022206991757646
20600515 1 16298682611243747021
20645477 70 18339643330946179887
21054139 6 18201707505692990735
21267235 1 18335148596046522419
21709351 56 18333726931785839253
22079108 93 18130497639129799008
23402539 116 18271801350071720157
23557571 272 17168423762329824205
23559900 14 18196932159005055611
25147074 1 17972591363207448964
26918003 58 18260831510024637217
2916195 48 17917140706411067248
300161 21 18409727319140155061
33824 294 18409450245687440194
351380 180 18259704518805867153
3545911 37 18408605842886097001
4072396 5 18261663792897503218
4214541 1 18334013878799005629
42630746 31 18272371936709362230
465052 167 18040156214778431042
474229 33 18412826910347093559
5104073 3 18262525771754587417
542803 24 17346601867863197457
58051976 378 18413392021154179791
59755656 215 18341056220446376750
67856867 119 18188493609078164109
8272917 22 18270404871815602431
9709674 26 18336555941235121891
9999458 23 17603587461006543052

>  <PUBCHEM_SHAPE_MULTIPOLES>  (1) 
358.46
11.99
2.1
0.74
2.52
1.26
-0.05
-3.37
1.56
-0.49
-0.48
0.01
0.13
0.17

>  <PUBCHEM_SHAPE_SELFOVERLAP>  (1) 
769.526

>  <PUBCHEM_SHAPE_VOLUME>  (1) 
198.7

>  <PUBCHEM_COORDINATE_TYPE>  (1) 
2
5
10

$$$$
