46556
     RDKit          3D

 13 12  0  0  0  0  0  0  0  0999 V2000
    3.3919    0.5326    0.0048 O   0  0  0  0  0  0  0  0  0  0  0  0
    4.9148   -1.1936   -0.0290 O   0  0  0  0  0  0  0  0  0  0  0  0
   -4.0008    0.0266   -0.0147 N   0  0  0  0  0  0  0  0  0  0  0  0
    5.6004    1.0011   -0.0136 N   0  0  0  0  0  0  0  0  0  0  0  0
   -2.7535   -0.7733   -0.0152 C   0  0  0  0  0  0  0  0  0  0  0  0
   -1.5311    0.1347    0.0390 C   0  0  0  0  0  0  0  0  0  0  0  0
   -0.2038   -0.6297    0.0512 C   0  0  0  0  0  0  0  0  0  0  0  0
   -4.0200    1.0115   -1.1928 C   0  0  0  0  0  0  0  0  0  0  0  0
   -5.2334   -0.8815   -0.1342 C   0  0  0  0  0  0  0  0  0  0  0  0
   -4.1314    0.8364    1.2837 C   0  0  0  0  0  0  0  0  0  0  0  0
    0.9884    0.3328    0.0281 C   0  0  0  0  0  0  0  0  0  0  0  0
    2.3230   -0.4028    0.0065 C   0  0  0  0  0  0  0  0  0  0  0  0
    4.6555    0.0051   -0.0139 C   0  0  0  0  0  0  0  0  0  0  0  0
  1 12  1  0
  1 13  1  0
  2 13  2  0
  3  5  1  0
  3  8  1  0
  3  9  1  0
  3 10  1  0
  4 13  1  0
  5  6  1  0
  6  7  1  0
  7 11  1  0
 11 12  1  0
M  CHG  1   3   1
M  END
>  <PUBCHEM_COMPOUND_CID>  (1) 
46556

>  <PUBCHEM_CONFORMER_RMSD>  (1) 
0.8

>  <PUBCHEM_CONFORMER_DIVERSEORDER>  (1) 
1
3
33
31
15
27
9
22
23
14
30
21
5
17
11
32
12
29
13
25
10
20
28
4
19
18
8
6
2
26
16
7
24

>  <PUBCHEM_MMFF94_PARTIAL_CHARGES>  (1) 
12
1 -0.43
10 0.5
12 0.28
13 0.78
2 -0.57
3 -1.01
33 0.37
34 0.37
4 -0.8
5 0.5
8 0.5
9 0.5

>  <PUBCHEM_EFFECTIVE_ROTOR_COUNT>  (1) 
7

>  <PUBCHEM_PHARMACOPHORE_FEATURES>  (1) 
3
1 2 acceptor
1 3 cation
1 4 donor

>  <PUBCHEM_HEAVY_ATOM_COUNT>  (1) 
13

>  <PUBCHEM_ATOM_DEF_STEREO_COUNT>  (1) 
0

>  <PUBCHEM_ATOM_UDEF_STEREO_COUNT>  (1) 
0

>  <PUBCHEM_BOND_DEF_STEREO_COUNT>  (1) 
0

>  <PUBCHEM_BOND_UDEF_STEREO_COUNT>  (1) 
0

>  <PUBCHEM_ISOTOPIC_ATOM_COUNT>  (1) 
0

>  <PUBCHEM_COMPONENT_COUNT>  (1) 
1

>  <PUBCHEM_CACTVS_TAUTO_COUNT>  (1) 
2

>  <PUBCHEM_CONFORMER_ID>  (1) 
0000B5DC00000001

>  <PUBCHEM_MMFF94_ENERGY>  (1) 
27.6901

>  <PUBCHEM_FEATURE_SELFOVERLAP>  (1) 
15.223

>  <PUBCHEM_SHAPE_FINGERPRINT>  (1) 
10680689 15 17749392563867789731
10912923 1 18272651238173950394
11287383 113 18335422400074550810
114248 4 18410855477308037474
12091667 2 17675924300421510338
14123238 8 18413108372391189246
1420 363 17531252768289480467
14251718 22 18409447020261732059
15501527 16 18261110734539003821
17834072 33 18272649082089740118
17834076 25 17489871544170951854
19489759 90 16732698350887602061
200 152 17346599668459906403
20645477 70 18272656701842271622
220451 1 14764351548068471404
22485316 2 18410571799477567998
23402539 116 17275101713161511649
23402655 69 18202563990859140558
42788 4 18410292519144496206
542803 24 17847063280910775760
90127 26 17603872186756934724

>  <PUBCHEM_SHAPE_MULTIPOLES>  (1) 
245.83
13.93
1.07
0.85
9.72
0.01
-0.04
-0.66
0.2
-0.17
0.04
-1.08
-0.23
-0.01

>  <PUBCHEM_SHAPE_SELFOVERLAP>  (1) 
450.349

>  <PUBCHEM_SHAPE_VOLUME>  (1) 
158

>  <PUBCHEM_COORDINATE_TYPE>  (1) 
2
5
10

$$$$
