46564
     RDKit          3D

 19 19  0  0  0  0  0  0  0  0999 V2000
   -2.9433   -1.1024   -0.0582 O   0  0  0  0  0  0  0  0  0  0  0  0
   -3.3145    1.1767    0.2136 O   0  0  0  0  0  0  0  0  0  0  0  0
    2.5597   -0.0833   -0.1226 N   0  0  0  0  0  0  0  0  0  0  0  0
   -5.0911   -0.3110    0.1010 N   0  0  0  0  0  0  0  0  0  0  0  0
    3.1714   -0.1264    1.2762 C   0  0  0  0  0  0  0  0  0  0  0  0
    3.2463   -1.1478   -0.9739 C   0  0  0  0  0  0  0  0  0  0  0  0
    2.7939    1.3091   -0.7013 C   0  0  0  0  0  0  0  0  0  0  0  0
    1.0548   -0.3622   -0.1048 C   0  0  0  0  0  0  0  0  0  0  0  0
    4.6595    0.1293    1.1774 C   0  0  0  0  0  0  0  0  0  0  0  0
    3.0048   -2.5093   -0.3596 C   0  0  0  0  0  0  0  0  0  0  0  0
    0.4131   -0.3391   -1.2975 C   0  0  0  0  0  0  0  0  0  0  0  0
    0.4910   -0.6088    1.1020 C   0  0  0  0  0  0  0  0  0  0  0  0
    2.1127    2.3838    0.0801 C   0  0  0  0  0  0  0  0  0  0  0  0
   -0.9583   -0.5933   -1.2816 C   0  0  0  0  0  0  0  0  0  0  0  0
   -0.8804   -0.8631    1.1182 C   0  0  0  0  0  0  0  0  0  0  0  0
   -1.6051   -0.8554   -0.0737 C   0  0  0  0  0  0  0  0  0  0  0  0
    1.2067    3.2217   -0.4359 C   0  0  0  0  0  0  0  0  0  0  0  0
   -3.7561    0.0374    0.0970 C   0  0  0  0  0  0  0  0  0  0  0  0
   -6.1652    0.6441    0.2437 C   0  0  0  0  0  0  0  0  0  0  0  0
  1 16  1  0
  1 18  1  0
  2 18  2  0
  3  5  1  0
  3  6  1  0
  3  7  1  0
  3  8  1  0
  4 18  1  0
  4 19  1  0
  5  9  1  0
  6 10  1  0
  7 13  1  0
  8 11  2  0
  8 12  1  0
 11 14  1  0
 12 15  2  0
 13 17  2  0
 14 16  2  0
 15 16  1  0
M  CHG  1   3   1
M  END
>  <PUBCHEM_COMPOUND_CID>  (1) 
46564

>  <PUBCHEM_CONFORMER_RMSD>  (1) 
0.8

>  <PUBCHEM_CONFORMER_DIVERSEORDER>  (1) 
2
49
26
60
51
45
8
59
64
3
9
52
46
67
34
18
42
43
14
47
56
25
54
35
38
30
15
23
21
48
58
17
12
33
62
63
28
40
24
6
55
19
7
29
65
57
27
39
36
61
66
16
31
11
41
1
44
50
53
10
37
22
4
32
20
5
13

>  <PUBCHEM_MMFF94_PARTIAL_CHARGES>  (1) 
25
1 -0.23
11 -0.15
12 -0.15
13 -0.29
14 -0.15
15 -0.15
16 0.08
17 -0.3
18 0.78
19 0.3
2 -0.57
3 -0.87
32 0.15
33 0.15
34 0.15
35 0.15
36 0.15
37 0.15
38 0.15
39 0.37
4 -0.73
5 0.5
6 0.5
7 0.64
8 0.36

>  <PUBCHEM_EFFECTIVE_ROTOR_COUNT>  (1) 
8

>  <PUBCHEM_PHARMACOPHORE_FEATURES>  (1) 
5
1 17 hydrophobe
1 2 acceptor
1 3 cation
1 4 donor
6 8 11 12 14 15 16 rings

>  <PUBCHEM_HEAVY_ATOM_COUNT>  (1) 
19

>  <PUBCHEM_ATOM_DEF_STEREO_COUNT>  (1) 
0

>  <PUBCHEM_ATOM_UDEF_STEREO_COUNT>  (1) 
0

>  <PUBCHEM_BOND_DEF_STEREO_COUNT>  (1) 
0

>  <PUBCHEM_BOND_UDEF_STEREO_COUNT>  (1) 
0

>  <PUBCHEM_ISOTOPIC_ATOM_COUNT>  (1) 
0

>  <PUBCHEM_COMPONENT_COUNT>  (1) 
1

>  <PUBCHEM_CACTVS_TAUTO_COUNT>  (1) 
2

>  <PUBCHEM_CONFORMER_ID>  (1) 
0000B5E400000002

>  <PUBCHEM_MMFF94_ENERGY>  (1) 
74.5684

>  <PUBCHEM_FEATURE_SELFOVERLAP>  (1) 
25.371

>  <PUBCHEM_SHAPE_FINGERPRINT>  (1) 
10366900 7 17531256032607082713
11089746 13 18041544898312257367
12293681 4 18260272944716088184
12617007 42 18341067237169204172
12633257 1 18187356666461548714
12670546 56 18200593592754767891
13583140 156 17846212319299492971
13760787 5 14923945673778378451
14115302 16 17346601897606176279
14178342 30 18056459859195159758
14289901 80 18270122451746061699
15238133 3 18260269633649860348
15295992 7 17968101975094215305
16945 1 18339928224653398638
17041 49 18261664948270261352
18186145 218 17967529103613306999
200 152 8502379935640586023
20645476 183 17845375616424913670
20645477 70 17274826809500926334
212847 35 17967816063105038013
21503847 285 18408045108777156285
22289505 5 18409450262825092316
23402539 116 18272079509818987927
23559900 14 18342461443171688039
2871803 45 8502657012634115105
3286 77 17748817523148907080
345986 75 17533751855240512280
34934 24 16414902145767341194
351380 180 18410292506497146553
4047638 21 18343305859748969899
465052 167 13984671334589828931
474 4 18190461747649891845
5104073 3 18187932841289259401
5283268 108 18408604729909688996
633830 44 18335137614000081239
81228 2 18118412744016009024
8272917 22 18413675707749235342
9971528 1 18342739589827773518
9981440 41 17617655896356426512

>  <PUBCHEM_SHAPE_MULTIPOLES>  (1) 
369.31
9.59
2.28
1.19
14.37
1.7
-0.04
0.45
-1.83
-2.16
0.44
-0.78
-0.2
0.06

>  <PUBCHEM_SHAPE_SELFOVERLAP>  (1) 
747.622

>  <PUBCHEM_SHAPE_VOLUME>  (1) 
216.1

>  <PUBCHEM_COORDINATE_TYPE>  (1) 
2
5
10

$$$$
