46568
     RDKit          3D

 18 18  0  0  0  0  0  0  0  0999 V2000
   -2.4436   -0.7620   -0.3014 O   0  0  0  0  0  0  0  0  0  0  0  0
   -2.5087    1.3807    0.5696 O   0  0  0  0  0  0  0  0  0  0  0  0
    3.1373   -0.6264    0.0981 N   0  0  0  0  0  0  0  0  0  0  0  0
   -4.5085    0.3294    0.0173 N   0  0  0  0  0  0  0  0  0  0  0  0
    3.7489    0.4976   -0.7356 C   0  0  0  0  0  0  0  0  0  0  0  0
    1.6111   -0.6633   -0.0112 C   0  0  0  0  0  0  0  0  0  0  0  0
    3.6977   -1.9526   -0.4077 C   0  0  0  0  0  0  0  0  0  0  0  0
    3.5197   -0.3967    1.5577 C   0  0  0  0  0  0  0  0  0  0  0  0
    0.9310   -1.1333    1.0619 C   0  0  0  0  0  0  0  0  0  0  0  0
    1.0686   -0.2227   -1.1717 C   0  0  0  0  0  0  0  0  0  0  0  0
    3.2515    1.8490   -0.3409 C   0  0  0  0  0  0  0  0  0  0  0  0
   -0.4599   -1.1669    0.9624 C   0  0  0  0  0  0  0  0  0  0  0  0
   -0.3224   -0.2562   -1.2712 C   0  0  0  0  0  0  0  0  0  0  0  0
   -1.0868   -0.7283   -0.2040 C   0  0  0  0  0  0  0  0  0  0  0  0
    4.0368    2.8272    0.1231 C   0  0  0  0  0  0  0  0  0  0  0  0
   -3.1160    0.4035    0.1332 C   0  0  0  0  0  0  0  0  0  0  0  0
   -5.2190   -0.8333   -0.5052 C   0  0  0  0  0  0  0  0  0  0  0  0
   -5.3377    1.4544    0.4256 C   0  0  0  0  0  0  0  0  0  0  0  0
  1 14  1  0
  1 16  1  0
  2 16  2  0
  3  5  1  0
  3  6  1  0
  3  7  1  0
  3  8  1  0
  4 16  1  0
  4 17  1  0
  4 18  1  0
  5 11  1  0
  6  9  2  0
  6 10  1  0
  9 12  1  0
 10 13  2  0
 11 15  2  0
 12 14  2  0
 13 14  1  0
M  CHG  1   3   1
M  END
>  <PUBCHEM_COMPOUND_CID>  (1) 
46568

>  <PUBCHEM_CONFORMER_RMSD>  (1) 
0.8

>  <PUBCHEM_CONFORMER_DIVERSEORDER>  (1) 
1
13
40
26
36
39
46
44
25
21
7
3
47
48
33
35
14
20
42
28
31
27
19
43
24
29
22
9
16
37
2
15
17
41
45
12
30
11
6
32
4
5
8
34
38
23
10
18

>  <PUBCHEM_MMFF94_PARTIAL_CHARGES>  (1) 
25
1 -0.23
10 -0.15
11 -0.29
12 -0.15
13 -0.15
14 0.08
15 -0.3
16 0.78
17 0.3
18 0.3
2 -0.57
27 0.15
28 0.15
29 0.15
3 -0.87
30 0.15
31 0.15
32 0.15
33 0.15
4 -0.66
5 0.64
6 0.36
7 0.5
8 0.5
9 -0.15

>  <PUBCHEM_EFFECTIVE_ROTOR_COUNT>  (1) 
6

>  <PUBCHEM_PHARMACOPHORE_FEATURES>  (1) 
4
1 15 hydrophobe
1 2 acceptor
1 3 cation
6 6 9 10 12 13 14 rings

>  <PUBCHEM_HEAVY_ATOM_COUNT>  (1) 
18

>  <PUBCHEM_ATOM_DEF_STEREO_COUNT>  (1) 
0

>  <PUBCHEM_ATOM_UDEF_STEREO_COUNT>  (1) 
0

>  <PUBCHEM_BOND_DEF_STEREO_COUNT>  (1) 
0

>  <PUBCHEM_BOND_UDEF_STEREO_COUNT>  (1) 
0

>  <PUBCHEM_ISOTOPIC_ATOM_COUNT>  (1) 
0

>  <PUBCHEM_COMPONENT_COUNT>  (1) 
1

>  <PUBCHEM_CACTVS_TAUTO_COUNT>  (1) 
1

>  <PUBCHEM_CONFORMER_ID>  (1) 
0000B5E800000001

>  <PUBCHEM_MMFF94_ENERGY>  (1) 
72.5818

>  <PUBCHEM_FEATURE_SELFOVERLAP>  (1) 
20.297

>  <PUBCHEM_SHAPE_FINGERPRINT>  (1) 
10366900 7 17386295285270695376
11089746 13 18260260837171391295
11132069 177 16950282940191091683
11543360 7 18130506430722294559
12403259 415 17749387036039359901
12616999 72 16774087275476037862
12633257 1 17097196454406506208
12670546 177 14117220802407435296
12670546 56 18113893858293758605
13533116 47 17531242803997028675
13675066 3 17676492739591172887
14178342 30 16951411112272856130
14289901 80 18342738558841002378
15342168 16 17969225714558752420
16945 1 17968363555861732886
17834072 33 18412261765971280935
17844677 252 18341059536276835523
18186145 218 17967811648042188086
200 152 17458059357771735951
21033648 29 17312812771645460005
212847 35 18131350782590275840
21452121 103 18408599280049455256
21503847 285 18409169874765069048
21618674 25 18262235650729192648
21652331 79 18409730681393010509
22079108 93 18114185276251660883
22485316 2 8070021160410075007
22854114 59 17240202127442652407
23402539 116 18130499748238283823
23559900 14 18272374126952967462
2838139 119 18129658737570528580
3286 77 17604138217352762114
3472631 163 18270685243439937725
34797466 226 17845946224753228053
351380 180 18411138008910220881
4047638 21 18335141994565867298
4072396 5 14707474911191323251
4463277 69 9295300425602885920
465052 167 11818995162469436096
474 4 18115027540475983604
495365 180 18412260679623980258
5104073 3 18186523215621218995
633830 44 18410008827848954279
7495541 125 17561075938887707899
76465 3 11239180891686562476
8272917 22 18342743988117404238
960060 61 11671783801310637832

>  <PUBCHEM_SHAPE_MULTIPOLES>  (1) 
348.73
10.63
2.04
1.13
11.18
1.24
-0.09
3.89
-0.31
-2.23
-0.16
-0.55
-0.21
-0.53

>  <PUBCHEM_SHAPE_SELFOVERLAP>  (1) 
705.771

>  <PUBCHEM_SHAPE_VOLUME>  (1) 
205

>  <PUBCHEM_COORDINATE_TYPE>  (1) 
2
5
10

$$$$
