4656
     RDKit          3D

 15 16  0  0  0  0  0  0  0  0999 V2000
   -5.0656   -0.0025    0.9115 I   0  0  0  0  0  0  0  0  0  0  0  0
   -0.2975   -2.7284   -0.5695 Cl  0  0  0  0  0  0  0  0  0  0  0  0
   -0.3011    2.7300   -0.5686 Cl  0  0  0  0  0  0  0  0  0  0  0  0
    3.2550   -0.0005   -0.7803 N   0  0  0  0  0  0  0  0  0  0  0  0
    0.9358    0.0016   -0.9517 N   0  0  0  0  0  0  0  0  0  0  0  0
    2.0690    0.0017    1.1545 N   0  0  0  0  0  0  0  0  0  0  0  0
    4.3146   -0.0036    0.1816 C   0  0  0  0  0  0  0  0  0  0  0  0
    3.5238    0.0014    1.4961 C   0  0  0  0  0  0  0  0  0  0  0  0
    2.0432    0.0015   -0.1570 C   0  0  0  0  0  0  0  0  0  0  0  0
   -0.4006    0.0006   -0.5374 C   0  0  0  0  0  0  0  0  0  0  0  0
   -1.0820   -1.2077   -0.3255 C   0  0  0  0  0  0  0  0  0  0  0  0
   -1.0837    1.2083   -0.3255 C   0  0  0  0  0  0  0  0  0  0  0  0
   -2.4140   -1.2087    0.0882 C   0  0  0  0  0  0  0  0  0  0  0  0
   -2.4159    1.2074    0.0883 C   0  0  0  0  0  0  0  0  0  0  0  0
   -3.0811   -0.0012    0.2953 C   0  0  0  0  0  0  0  0  0  0  0  0
  1 15  1  0
  2 11  1  0
  3 12  1  0
  4  7  1  0
  4  9  1  0
  5  9  1  0
  5 10  1  0
  6  8  1  0
  6  9  2  0
  7  8  1  0
 10 11  2  0
 10 12  1  0
 11 13  1  0
 12 14  2  0
 13 15  2  0
 14 15  1  0
M  END
>  <PUBCHEM_COMPOUND_CID>  (1) 
4656

>  <PUBCHEM_CONFORMER_RMSD>  (1) 
0.6

>  <PUBCHEM_CONFORMER_DIVERSEORDER>  (1) 
1
2
3
4

>  <PUBCHEM_MMFF94_PARTIAL_CHARGES>  (1) 
19
1 -0.08
10 0.1
11 0.18
12 0.18
13 -0.15
14 -0.15
15 0.08
2 -0.18
20 0.4
21 0.4
22 0.15
23 0.15
3 -0.18
4 -0.82
5 -0.55
6 -0.7
7 0.37
8 0.25
9 0.55

>  <PUBCHEM_EFFECTIVE_ROTOR_COUNT>  (1) 
2.6

>  <PUBCHEM_PHARMACOPHORE_FEATURES>  (1) 
6
1 1 hydrophobe
1 4 donor
1 5 donor
4 4 5 6 9 cation
5 4 6 7 8 9 rings
6 10 11 12 13 14 15 rings

>  <PUBCHEM_HEAVY_ATOM_COUNT>  (1) 
15

>  <PUBCHEM_ATOM_DEF_STEREO_COUNT>  (1) 
0

>  <PUBCHEM_ATOM_UDEF_STEREO_COUNT>  (1) 
0

>  <PUBCHEM_BOND_DEF_STEREO_COUNT>  (1) 
0

>  <PUBCHEM_BOND_UDEF_STEREO_COUNT>  (1) 
0

>  <PUBCHEM_ISOTOPIC_ATOM_COUNT>  (1) 
0

>  <PUBCHEM_COMPONENT_COUNT>  (1) 
1

>  <PUBCHEM_CACTVS_TAUTO_COUNT>  (1) 
2

>  <PUBCHEM_CONFORMER_ID>  (1) 
0000123000000001

>  <PUBCHEM_MMFF94_ENERGY>  (1) 
54.2978

>  <PUBCHEM_FEATURE_SELFOVERLAP>  (1) 
30.491

>  <PUBCHEM_SHAPE_FINGERPRINT>  (1) 
10130415 120 18114750420790984381
11132069 177 18341894091224415287
12119455 92 16988842761379293655
12236239 1 17675929793832433660
12251169 10 18412544331495092713
12633257 1 18058993077992004938
13140716 1 18267031742235507763
13581323 91 18334574637691020710
14178342 30 18269856280302037067
15209294 21 17845666846000087329
15309172 13 18411699872305455571
15375462 189 17822289115015531896
15375462 478 17822292366384759559
15775835 57 18342455928496814826
16945 1 18410584980969271143
17846911 113 18341894078313126609
18186145 218 17418090992598003074
19049666 15 17843687660355300430
19784866 170 18338243652675364129
200 152 15719388434391591392
20028762 73 18057329599037522903
20510252 161 18271246019195486377
20645477 70 14346066504419849176
20871998 184 18336824199932428437
21486144 27 17275094064030317024
21501502 16 18052541259814164917
21637258 2 15792007930817031401
22182313 1 18193566562860635757
2297311 6 18338528456357250508
23402539 116 18343294877802288095
23419403 2 16837075122946158461
23559900 14 18130517387674178534
2748010 2 18049736122463266437
3250762 1 17689719658225087359
4072396 5 18334290938617615587
43471831 8 18263363603309208131
465052 167 17895771689609437275
69090 78 17418370307464873975
77492 1 17676207974600811854
81228 2 17982989422395111054
8272917 22 14907635449445463181
90316 7 18260822666117801556

>  <PUBCHEM_SHAPE_MULTIPOLES>  (1) 
309.42
7.96
2.1
1.1
0.66
0
-0.31
-0.01
-3.48
0.69
0.71
-0.47
0
0

>  <PUBCHEM_SHAPE_SELFOVERLAP>  (1) 
614.755

>  <PUBCHEM_SHAPE_VOLUME>  (1) 
189.3

>  <PUBCHEM_COORDINATE_TYPE>  (1) 
2
5
10

$$$$
