46576
     RDKit          3D

 18 18  0  0  0  0  0  0  0  0999 V2000
   -1.9819    0.5326    1.1545 O   0  0  0  0  0  0  0  0  0  0  0  0
   -2.6243   -0.2567   -0.9360 O   0  0  0  0  0  0  0  0  0  0  0  0
    2.6148   -0.5619    0.0711 N   0  0  0  0  0  0  0  0  0  0  0  0
   -4.0601   -0.4003    0.8805 N   0  0  0  0  0  0  0  0  0  0  0  0
    3.4250   -0.3648    1.3493 C   0  0  0  0  0  0  0  0  0  0  0  0
    3.5472   -0.3499   -1.1198 C   0  0  0  0  0  0  0  0  0  0  0  0
    1.4447    0.4249    0.0726 C   0  0  0  0  0  0  0  0  0  0  0  0
    2.0596   -1.9812   -0.0065 C   0  0  0  0  0  0  0  0  0  0  0  0
    4.5689   -1.3549    1.3717 C   0  0  0  0  0  0  0  0  0  0  0  0
    2.7743   -0.5662   -2.4025 C   0  0  0  0  0  0  0  0  0  0  0  0
    0.2816   -0.0032    0.6194 C   0  0  0  0  0  0  0  0  0  0  0  0
    1.6707    1.6435   -0.4742 C   0  0  0  0  0  0  0  0  0  0  0  0
   -0.7845    0.8962    0.6196 C   0  0  0  0  0  0  0  0  0  0  0  0
    0.6046    2.5429   -0.4741 C   0  0  0  0  0  0  0  0  0  0  0  0
   -0.6230    2.1692    0.0728 C   0  0  0  0  0  0  0  0  0  0  0  0
   -2.8791   -0.0675    0.2496 C   0  0  0  0  0  0  0  0  0  0  0  0
   -5.1732   -1.0313    0.2102 C   0  0  0  0  0  0  0  0  0  0  0  0
   -4.8653   -1.2716   -1.2579 C   0  0  0  0  0  0  0  0  0  0  0  0
  1 13  1  0
  1 16  1  0
  2 16  2  0
  3  5  1  0
  3  6  1  0
  3  7  1  0
  3  8  1  0
  4 16  1  0
  4 17  1  0
  5  9  1  0
  6 10  1  0
  7 11  2  0
  7 12  1  0
 11 13  1  0
 12 14  2  0
 13 15  2  0
 14 15  1  0
 17 18  1  0
M  CHG  1   3   1
M  END
>  <PUBCHEM_COMPOUND_CID>  (1) 
46576

>  <PUBCHEM_CONFORMER_RMSD>  (1) 
0.8

>  <PUBCHEM_CONFORMER_DIVERSEORDER>  (1) 
64
21
24
55
68
35
20
72
52
18
43
38
47
31
40
45
11
37
71
49
23
34
3
58
25
30
56
73
17
39
65
42
27
51
22
9
61
29
46
33
48
62
41
60
8
36
66
16
44
5
15
2
57
50
54
67
59
53
19
1
63
28
14
26
7
12
69
10
32
70
13
4
6

>  <PUBCHEM_MMFF94_PARTIAL_CHARGES>  (1) 
20
1 -0.23
11 -0.15
12 -0.15
13 0.08
14 -0.15
15 -0.15
16 0.78
17 0.3
2 -0.57
3 -0.87
32 0.15
33 0.15
34 0.15
35 0.15
36 0.37
4 -0.73
5 0.5
6 0.5
7 0.36
8 0.5

>  <PUBCHEM_EFFECTIVE_ROTOR_COUNT>  (1) 
7

>  <PUBCHEM_PHARMACOPHORE_FEATURES>  (1) 
4
1 2 acceptor
1 3 cation
1 4 donor
6 7 11 12 13 14 15 rings

>  <PUBCHEM_HEAVY_ATOM_COUNT>  (1) 
18

>  <PUBCHEM_ATOM_DEF_STEREO_COUNT>  (1) 
0

>  <PUBCHEM_ATOM_UDEF_STEREO_COUNT>  (1) 
0

>  <PUBCHEM_BOND_DEF_STEREO_COUNT>  (1) 
0

>  <PUBCHEM_BOND_UDEF_STEREO_COUNT>  (1) 
0

>  <PUBCHEM_ISOTOPIC_ATOM_COUNT>  (1) 
0

>  <PUBCHEM_COMPONENT_COUNT>  (1) 
1

>  <PUBCHEM_CACTVS_TAUTO_COUNT>  (1) 
2

>  <PUBCHEM_CONFORMER_ID>  (1) 
0000B5F000000040

>  <PUBCHEM_MMFF94_ENERGY>  (1) 
78.3841

>  <PUBCHEM_FEATURE_SELFOVERLAP>  (1) 
20.297

>  <PUBCHEM_SHAPE_FINGERPRINT>  (1) 
10042902 136 17346325928898735735
10064457 181 15913325814363450982
10447042 23 18260820501833709186
11543360 7 15647346293946642483
12202030 40 17557996039472474780
12363563 72 18335423447756401329
12507560 40 16343426102785124128
12553582 1 18336844021248632523
12596602 18 13901908942673579263
12892183 10 15698004028738191523
13083527 12 18338221739689384224
13464513 79 18202007642096458054
13583140 156 15697716991515166705
13675066 3 17346604062733598537
14178342 30 18127131862185763560
14252887 29 17632581543417413438
14289901 80 15985098591845022834
14576447 43 18410860979193019662
14863182 85 17489596700650302590
15342816 4 18411423899260875102
15848700 24 18410857659225380836
16945 1 18263096460912235664
1813 80 18343306967776705565
18186145 218 17168137975538445689
18222031 100 18342740719098249662
19107657 9 9367341531087018088
193927 3 18129958857121038439
200 152 17822290145913125970
20369508 70 18187925122515765480
20645477 70 18264495155719410265
20671657 53 18333449854745116169
21065199 12 15985109578571936467
21501925 9 18412541024349247497
2255824 54 18265621055178197797
22646028 28 18131637807102524207
231179 274 9007064569035792811
23253445 4 16200143322579329939
23402539 116 18261665974493054234
23419403 2 18052220064827686648
23557571 272 18197775493076655136
23559900 14 16081088194875709696
23598291 2 18128559170165881673
251288 83 17775562052910390810
2748010 2 17756737451833845752
276578 36 9727638297496527284
2838139 119 14708635003401713614
3286 77 17968089841626721013
32948 21 17458334231140872797
4463277 69 17917997148543272117
4990 188 13334735721606900609
5281201 14 16008751316336784951
7164475 11 17969222227003012276
7364860 26 17987524877874102160
7495541 125 17676777581933124059
76465 3 18261384504085630546
7808743 9 10375569530577889458
81228 2 18046352933258342576

>  <PUBCHEM_SHAPE_MULTIPOLES>  (1) 
348.73
9.3
2.04
1.53
9.3
1.05
0.66
-6.45
-0.03
-0.49
0.14
-1.18
-0.44
-0.83

>  <PUBCHEM_SHAPE_SELFOVERLAP>  (1) 
705.784

>  <PUBCHEM_SHAPE_VOLUME>  (1) 
203.7

>  <PUBCHEM_COORDINATE_TYPE>  (1) 
2
5
10

$$$$
