46572
     RDKit          3D

 19 19  0  0  1  0  0  0  0  0999 V2000
   -3.4195   -0.0565   -0.7514 O   0  0  0  0  0  0  0  0  0  0  0  0
   -2.9620    1.3098    1.0735 O   0  0  0  0  0  0  0  0  0  0  0  0
    4.2241    0.8658    0.4151 N   0  0  0  0  0  0  0  0  0  0  0  0
   -4.6493    1.8526   -0.4234 N   0  0  0  0  0  0  0  0  0  0  0  0
    3.5541   -0.1066   -0.4925 C   0  0  0  0  0  0  0  0  0  0  0  0
    2.1346   -0.3986    0.0127 C   0  0  0  0  0  0  0  0  0  0  0  0
    3.4646    2.1973    0.4354 C   0  0  0  0  0  0  0  0  0  0  0  0
    4.2769    0.3197    1.8466 C   0  0  0  0  0  0  0  0  0  0  0  0
    5.6595    1.1377   -0.0496 C   0  0  0  0  0  0  0  0  0  0  0  0
    3.5353    0.4955   -1.8921 C   0  0  0  0  0  0  0  0  0  0  0  0
    1.2969   -1.3294   -0.8760 C   0  0  0  0  0  0  0  0  0  0  0  0
   -0.1112   -1.5435   -0.3812 C   0  0  0  0  0  0  0  0  0  0  0  0
   -1.1187   -0.6894   -0.8034 C   0  0  0  0  0  0  0  0  0  0  0  0
   -0.3752   -2.5910    0.4882 C   0  0  0  0  0  0  0  0  0  0  0  0
   -2.4212   -0.8876   -0.3454 C   0  0  0  0  0  0  0  0  0  0  0  0
   -1.6776   -2.7891    0.9463 C   0  0  0  0  0  0  0  0  0  0  0  0
   -2.7007   -1.9374    0.5294 C   0  0  0  0  0  0  0  0  0  0  0  0
   -3.6215    1.0728    0.0657 C   0  0  0  0  0  0  0  0  0  0  0  0
   -5.0890    3.0781    0.2020 C   0  0  0  0  0  0  0  0  0  0  0  0
  1 15  1  0
  1 18  1  0
  2 18  2  0
  3  5  1  0
  3  7  1  0
  3  8  1  0
  3  9  1  0
  4 18  1  0
  4 19  1  0
  5  6  1  0
  5 10  1  0
  6 11  1  0
 11 12  1  0
 12 13  2  0
 12 14  1  0
 13 15  1  0
 14 16  2  0
 15 17  2  0
 16 17  1  0
M  CHG  1   3   1
M  END
>  <PUBCHEM_COMPOUND_CID>  (1) 
46572

>  <PUBCHEM_CONFORMER_RMSD>  (1) 
0.8

>  <PUBCHEM_CONFORMER_DIVERSEORDER>  (1) 
4
67
65
116
30
58
88
19
47
107
129
106
87
5
62
71
112
66
7
2
31
63
84
100
17
54
48
122
80
126
33
117
45
28
41
46
52
121
83
49
50
75
113
20
61
21
81
18
68
34
15
101
11
91
115
127
85
23
108
77
120
55
104
26
96
3
1
12
98
70
72
57
73
37
43
92
105
39
95
109
35
124
42
16
27
36
25
14
13
64
82
93
89
111
114
90
9
60
8
78
125
79
53
118
6
110
86
22
32
56
10
102
69
59
44
74
119
24
76
97
103
38
40
29
94
99
123
128
51

>  <PUBCHEM_MMFF94_PARTIAL_CHARGES>  (1) 
22
1 -0.23
11 0.14
12 -0.14
13 -0.15
14 -0.15
15 0.08
16 -0.15
17 -0.15
18 0.78
19 0.3
2 -0.57
3 -1.01
37 0.15
38 0.15
39 0.15
4 -0.73
40 0.15
41 0.37
5 0.5
7 0.5
8 0.5
9 0.5

>  <PUBCHEM_EFFECTIVE_ROTOR_COUNT>  (1) 
7

>  <PUBCHEM_PHARMACOPHORE_FEATURES>  (1) 
4
1 2 acceptor
1 3 cation
1 4 donor
6 12 13 14 15 16 17 rings

>  <PUBCHEM_HEAVY_ATOM_COUNT>  (1) 
19

>  <PUBCHEM_ATOM_DEF_STEREO_COUNT>  (1) 
0

>  <PUBCHEM_ATOM_UDEF_STEREO_COUNT>  (1) 
1

>  <PUBCHEM_BOND_DEF_STEREO_COUNT>  (1) 
0

>  <PUBCHEM_BOND_UDEF_STEREO_COUNT>  (1) 
0

>  <PUBCHEM_ISOTOPIC_ATOM_COUNT>  (1) 
0

>  <PUBCHEM_COMPONENT_COUNT>  (1) 
1

>  <PUBCHEM_CACTVS_TAUTO_COUNT>  (1) 
2

>  <PUBCHEM_CONFORMER_ID>  (1) 
0000B5EC00000004

>  <PUBCHEM_MMFF94_ENERGY>  (1) 
66.0491

>  <PUBCHEM_FEATURE_SELFOVERLAP>  (1) 
20.297

>  <PUBCHEM_SHAPE_FINGERPRINT>  (1) 
10498660 4 18202284688534832873
12107183 9 18189321387015445242
12173636 292 18336828696779511863
122479 349 18411980277782646646
12390115 104 18339095817104888899
12633257 1 15430617085992931553
12769317 202 18197204859300530313
12788726 201 17608107668640347651
13590594 115 16973097492876939027
13955234 65 17757841027033629019
13965767 371 17895471402021627877
14123255 52 18337391535348054665
14142880 1 18333726936355230007
14178000 29 9871166351043129523
14178342 30 18040723605301320322
1420 369 8430301446961536877
14251740 57 10954615208964461825
14251764 38 18268989958837722260
14251764 75 17983304720878016705
14848178 96 18341897329350532345
14957384 54 18339353171550618168
15238133 3 18408319991532903592
15806764 133 17985295038501826070
1741750 31 18408886243488214827
17834072 32 18410857637930184817
18186145 218 17417266445283348246
19078846 21 18260824956099780604
193927 3 8358244978194400069
19784866 34 18338796694207785733
20374829 77 9799691489372006767
20645477 56 18201166545518482599
20645477 70 16773254945701715734
212916 134 18408315579815403275
21401589 2 18341339920453231401
21475661 188 18341891874705247244
22182937 141 18411989087060991289
23503958 25 18196106644784019678
235170 7 15985106318496859509
23557571 272 18200039576154104158
23559900 14 18342743992676024598
270888 7 18339359661114820613
27216 239 18339643463784262747
283562 15 18262796397650176363
2838139 119 17988348278949616161
341906 21 18410571833810705240
4028521 119 18060139838217471257
4463277 69 8213841671032979587
474 4 18339640019420607195
495365 180 17917143910493762094
5104073 3 17968085469893313722
56616090 13 18272646801799677133
57096353 35 13542470890502773318
58807428 26 17821727200223530195
59124914 9 18266180521875965513
6328613 192 18335425690784748100
633830 44 18340199687692402455
7064713 232 18260270732945145789
7808743 9 18408041818510421729
90316 7 17313373565335173990
9981440 41 18411415116111472547

>  <PUBCHEM_SHAPE_MULTIPOLES>  (1) 
369.31
11.43
3.12
1.27
3.62
0.32
0.01
10.66
1.01
-4.25
0.75
1.22
-0.02
0.41

>  <PUBCHEM_SHAPE_SELFOVERLAP>  (1) 
738.373

>  <PUBCHEM_SHAPE_VOLUME>  (1) 
219.1

>  <PUBCHEM_COORDINATE_TYPE>  (1) 
2
5
10

$$$$
