46587
     RDKit          3D

 18 18  0  0  0  0  0  0  0  0999 V2000
    3.7522   -3.0181    0.3084 O   0  0  0  0  0  0  0  0  0  0  0  0
   -2.4114    0.6997    0.4509 O   0  0  0  0  0  0  0  0  0  0  0  0
   -2.5101   -1.2224   -0.8337 O   0  0  0  0  0  0  0  0  0  0  0  0
    3.1568    0.6468   -0.1121 N   0  0  0  0  0  0  0  0  0  0  0  0
   -4.4896   -0.3043   -0.0285 N   0  0  0  0  0  0  0  0  0  0  0  0
    3.7832   -0.6228    0.4607 C   0  0  0  0  0  0  0  0  0  0  0  0
    1.6340    0.6610    0.0419 C   0  0  0  0  0  0  0  0  0  0  0  0
    3.7369    1.8430    0.6370 C   0  0  0  0  0  0  0  0  0  0  0  0
    3.5008    0.7174   -1.5974 C   0  0  0  0  0  0  0  0  0  0  0  0
    3.1999   -1.8310   -0.2450 C   0  0  0  0  0  0  0  0  0  0  0  0
    0.9295    1.3387   -0.8958 C   0  0  0  0  0  0  0  0  0  0  0  0
    1.1187   -0.0053    1.1029 C   0  0  0  0  0  0  0  0  0  0  0  0
   -0.4582    1.3517   -0.7556 C   0  0  0  0  0  0  0  0  0  0  0  0
   -0.2691    0.0076    1.2431 C   0  0  0  0  0  0  0  0  0  0  0  0
   -1.0577    0.6861    0.3137 C   0  0  0  0  0  0  0  0  0  0  0  0
   -3.1009   -0.3536   -0.1930 C   0  0  0  0  0  0  0  0  0  0  0  0
   -5.3349   -1.3232   -0.6344 C   0  0  0  0  0  0  0  0  0  0  0  0
   -5.1803    0.7287    0.7368 C   0  0  0  0  0  0  0  0  0  0  0  0
  1 10  1  0
  2 15  1  0
  2 16  1  0
  3 16  2  0
  4  6  1  0
  4  7  1  0
  4  8  1  0
  4  9  1  0
  5 16  1  0
  5 17  1  0
  5 18  1  0
  6 10  1  0
  7 11  2  0
  7 12  1  0
 11 13  1  0
 12 14  2  0
 13 15  2  0
 14 15  1  0
M  CHG  1   4   1
M  END
>  <PUBCHEM_COMPOUND_CID>  (1) 
46587

>  <PUBCHEM_CONFORMER_RMSD>  (1) 
0.8

>  <PUBCHEM_CONFORMER_DIVERSEORDER>  (1) 
1
18
24
21
19
22
15
3
9
17
20
13
14
16
10
11
8
12
5
4
7
2
23
6

>  <PUBCHEM_MMFF94_PARTIAL_CHARGES>  (1) 
23
1 -0.68
10 0.28
11 -0.15
12 -0.15
13 -0.15
14 -0.15
15 0.08
16 0.78
17 0.3
18 0.3
2 -0.23
29 0.15
3 -0.57
30 0.15
31 0.15
32 0.15
33 0.4
4 -0.87
5 -0.66
6 0.5
7 0.36
8 0.5
9 0.5

>  <PUBCHEM_EFFECTIVE_ROTOR_COUNT>  (1) 
6

>  <PUBCHEM_PHARMACOPHORE_FEATURES>  (1) 
5
1 1 acceptor
1 1 donor
1 3 acceptor
1 4 cation
6 7 11 12 13 14 15 rings

>  <PUBCHEM_HEAVY_ATOM_COUNT>  (1) 
18

>  <PUBCHEM_ATOM_DEF_STEREO_COUNT>  (1) 
0

>  <PUBCHEM_ATOM_UDEF_STEREO_COUNT>  (1) 
0

>  <PUBCHEM_BOND_DEF_STEREO_COUNT>  (1) 
0

>  <PUBCHEM_BOND_UDEF_STEREO_COUNT>  (1) 
0

>  <PUBCHEM_ISOTOPIC_ATOM_COUNT>  (1) 
0

>  <PUBCHEM_COMPONENT_COUNT>  (1) 
1

>  <PUBCHEM_CACTVS_TAUTO_COUNT>  (1) 
1

>  <PUBCHEM_CONFORMER_ID>  (1) 
0000B5FB00000001

>  <PUBCHEM_MMFF94_ENERGY>  (1) 
75.8325

>  <PUBCHEM_FEATURE_SELFOVERLAP>  (1) 
25.371

>  <PUBCHEM_SHAPE_FINGERPRINT>  (1) 
10912923 1 17917715716753630577
11769659 78 18342735178848952650
11796584 16 17846785104822642991
12107183 9 17767976337411994441
12616999 72 18040724705287007078
12644460 14 15625934408802326434
12670546 177 17241052122776776838
12670546 56 18131070428874608977
13073987 5 18344147012346344489
13167823 11 18273496779948488415
13533116 47 18413390921326125387
13583140 156 17345169156761895536
13675066 3 18259705614333906825
13760787 19 17917429877657721196
14252887 29 18259984885559709112
14289901 80 18201436999651108880
14576447 43 18411419556901343302
15342816 4 18201443596604558004
15477762 27 18335983086923085474
15848702 151 18260547814391487895
16945 1 18187941628576464640
17980427 23 16881033628158614980
1813 80 17822013081646360469
18186145 218 16805324383414593408
19422 9 18411421670046306369
19784866 240 18129106623924654902
20281475 54 18342735213282498619
20645477 70 18187364324525692690
22224240 67 18269545204511085568
22485316 2 18273494602394768521
22854114 59 13110965327214721969
23402539 116 17775282764547300493
23557571 272 17967802834774850844
23559900 14 17060071332213731788
29717793 49 18260822709847527543
3004659 81 18341897359478613598
3060560 45 16660357099834431018
3286 77 18340484470252502648
33824 294 18410007767350507346
4340502 62 17917141814628271186
4463277 69 18340485565100041294
4990 188 17603866710778835083
5104073 3 18202567276503990915
5281201 14 17676485016817871477
5374978 207 16773796995621301872
573450 72 17917993850282643163
633830 44 17240489078581987981
7164475 11 18261394390958518796
76465 3 18117271463720685058
9981440 41 17038384857311122921

>  <PUBCHEM_SHAPE_MULTIPOLES>  (1) 
342.86
10.4
1.96
1.14
10.95
1.27
-0.1
2.92
-0.46
-2.24
-0.08
-0.36
-0.18
-0.75

>  <PUBCHEM_SHAPE_SELFOVERLAP>  (1) 
693.564

>  <PUBCHEM_SHAPE_VOLUME>  (1) 
201.9

>  <PUBCHEM_COORDINATE_TYPE>  (1) 
2
5
10

$$$$
