46589
     RDKit          3D

 17 17  0  0  0  0  0  0  0  0999 V2000
   -2.1165    0.7213    0.8567 O   0  0  0  0  0  0  0  0  0  0  0  0
   -2.4958   -0.5218   -1.0712 O   0  0  0  0  0  0  0  0  0  0  0  0
    2.6315   -0.1301    0.3769 N   0  0  0  0  0  0  0  0  0  0  0  0
   -4.0819   -0.4384    0.6199 N   0  0  0  0  0  0  0  0  0  0  0  0
    2.2826   -1.6040    0.5733 C   0  0  0  0  0  0  0  0  0  0  0  0
    1.3949    0.7236    0.0856 C   0  0  0  0  0  0  0  0  0  0  0  0
    3.2879    0.3779    1.6575 C   0  0  0  0  0  0  0  0  0  0  0  0
    3.5915   -0.0230   -0.8047 C   0  0  0  0  0  0  0  0  0  0  0  0
    1.6550   -2.1414   -0.7030 C   0  0  0  0  0  0  0  0  0  0  0  0
    0.2218    0.3050    0.6182 C   0  0  0  0  0  0  0  0  0  0  0  0
    1.5777    1.8260   -0.6801 C   0  0  0  0  0  0  0  0  0  0  0  0
    1.2462   -3.5968   -0.5441 C   0  0  0  0  0  0  0  0  0  0  0  0
   -0.9051    1.0832    0.3529 C   0  0  0  0  0  0  0  0  0  0  0  0
    0.4510    2.6040   -0.9454 C   0  0  0  0  0  0  0  0  0  0  0  0
   -0.7904    2.2328   -0.4289 C   0  0  0  0  0  0  0  0  0  0  0  0
   -2.8754   -0.1271    0.0274 C   0  0  0  0  0  0  0  0  0  0  0  0
   -5.0750   -1.2911    0.0090 C   0  0  0  0  0  0  0  0  0  0  0  0
  1 13  1  0
  1 16  1  0
  2 16  2  0
  3  5  1  0
  3  6  1  0
  3  7  1  0
  3  8  1  0
  4 16  1  0
  4 17  1  0
  5  9  1  0
  6 10  2  0
  6 11  1  0
  9 12  1  0
 10 13  1  0
 11 14  2  0
 13 15  2  0
 14 15  1  0
M  CHG  1   3   1
M  END
>  <PUBCHEM_COMPOUND_CID>  (1) 
46589

>  <PUBCHEM_CONFORMER_RMSD>  (1) 
0.8

>  <PUBCHEM_CONFORMER_DIVERSEORDER>  (1) 
1
46
35
65
41
63
18
56
22
71
68
59
11
44
75
29
13
74
15
58
30
60
40
66
12
31
17
36
20
76
43
33
45
48
25
6
52
69
4
24
73
8
14
10
39
34
62
54
49
55
42
67
57
37
47
61
50
38
21
9
51
19
27
23
53
32
72
64
26
7
70
28
16
5
3
2

>  <PUBCHEM_MMFF94_PARTIAL_CHARGES>  (1) 
20
1 -0.23
10 -0.15
11 -0.15
13 0.08
14 -0.15
15 -0.15
16 0.78
17 0.3
2 -0.57
28 0.15
29 0.15
3 -0.87
33 0.15
34 0.15
35 0.37
4 -0.73
5 0.5
6 0.36
7 0.5
8 0.5

>  <PUBCHEM_EFFECTIVE_ROTOR_COUNT>  (1) 
6

>  <PUBCHEM_PHARMACOPHORE_FEATURES>  (1) 
5
1 12 hydrophobe
1 2 acceptor
1 3 cation
1 4 donor
6 6 10 11 13 14 15 rings

>  <PUBCHEM_HEAVY_ATOM_COUNT>  (1) 
17

>  <PUBCHEM_ATOM_DEF_STEREO_COUNT>  (1) 
0

>  <PUBCHEM_ATOM_UDEF_STEREO_COUNT>  (1) 
0

>  <PUBCHEM_BOND_DEF_STEREO_COUNT>  (1) 
0

>  <PUBCHEM_BOND_UDEF_STEREO_COUNT>  (1) 
0

>  <PUBCHEM_ISOTOPIC_ATOM_COUNT>  (1) 
0

>  <PUBCHEM_COMPONENT_COUNT>  (1) 
1

>  <PUBCHEM_CACTVS_TAUTO_COUNT>  (1) 
2

>  <PUBCHEM_CONFORMER_ID>  (1) 
0000B5FD00000001

>  <PUBCHEM_MMFF94_ENERGY>  (1) 
64.7539

>  <PUBCHEM_FEATURE_SELFOVERLAP>  (1) 
25.371

>  <PUBCHEM_SHAPE_FINGERPRINT>  (1) 
10618630 7 18410576145746828417
11578080 2 18058430111107706065
116883 192 18119245069659394813
12400797 245 18342455885510205839
12553582 1 18409726279135402055
12596602 18 16773525485797562331
12616999 72 18187375345295716846
13140716 1 18194676205583221746
13294875 104 14521683151634643240
13464513 79 18341619247498108638
13836976 161 18263368151694944415
14004458 79 16371838531145069204
14178342 30 18268703909947402776
14251705 54 18410013191583329599
14251717 144 18409450327555335527
14252887 29 18410858754584512043
14787075 74 17344330392624988024
14863182 85 18411146856722432846
15422964 175 18337107865484949711
15477762 27 18334296500051709129
15757776 16 18333169466315639938
16945 1 18410851049508355456
17492 54 17970373574923257196
18981168 100 8933842605058233844
20344682 6 18263380135075582844
20645477 70 18189334731457363851
20871998 22 18336830788443824345
21285901 2 18042394760581309309
2255824 54 18264777742792489989
23402539 116 18040993986930704944
23419403 2 14279018353977948680
23557571 272 18119794829762864872
23559900 14 18048869707226920384
2748010 2 18120930599314350684
2871803 45 18410857620533979502
3060560 45 18263935486952282900
4463277 69 18201719501335746423
7364860 26 18266181810419525369
81228 2 17971755458538260640
8272917 22 18337401525758457303

>  <PUBCHEM_SHAPE_MULTIPOLES>  (1) 
328.15
6.79
3.07
1.12
8.33
1.61
0.17
3.08
0.95
-1.24
-1.16
-0.62
-0.11
0.1

>  <PUBCHEM_SHAPE_SELFOVERLAP>  (1) 
662.424

>  <PUBCHEM_SHAPE_VOLUME>  (1) 
192.8

>  <PUBCHEM_COORDINATE_TYPE>  (1) 
2
5
10

$$$$
