46583
     RDKit          3D

 17 17  0  0  0  0  0  0  0  0999 V2000
    2.1449   -0.7634    0.3304 O   0  0  0  0  0  0  0  0  0  0  0  0
    2.3892    1.3325   -0.6193 O   0  0  0  0  0  0  0  0  0  0  0  0
   -3.4049   -0.1802   -0.1002 N   0  0  0  0  0  0  0  0  0  0  0  0
    4.2938    0.1403   -0.0189 N   0  0  0  0  0  0  0  0  0  0  0  0
   -3.9223    1.0211    0.6882 C   0  0  0  0  0  0  0  0  0  0  0  0
   -1.8871   -0.3394    0.0176 C   0  0  0  0  0  0  0  0  0  0  0  0
   -4.0743   -1.4354    0.4520 C   0  0  0  0  0  0  0  0  0  0  0  0
   -3.7644    0.0256   -1.5691 C   0  0  0  0  0  0  0  0  0  0  0  0
   -3.2511    2.2779    0.1791 C   0  0  0  0  0  0  0  0  0  0  0  0
   -1.2467   -0.9041   -1.0340 C   0  0  0  0  0  0  0  0  0  0  0  0
   -1.3118    0.0978    1.1635 C   0  0  0  0  0  0  0  0  0  0  0  0
    0.1364   -1.0493   -0.9267 C   0  0  0  0  0  0  0  0  0  0  0  0
    0.0714   -0.0473    1.2708 C   0  0  0  0  0  0  0  0  0  0  0  0
    0.7957   -0.6208    0.2255 C   0  0  0  0  0  0  0  0  0  0  0  0
    2.9125    0.3252   -0.1440 C   0  0  0  0  0  0  0  0  0  0  0  0
    5.2142    1.1765   -0.4648 C   0  0  0  0  0  0  0  0  0  0  0  0
    4.9044   -1.0570    0.5499 C   0  0  0  0  0  0  0  0  0  0  0  0
  1 14  1  0
  1 15  1  0
  2 15  2  0
  3  5  1  0
  3  6  1  0
  3  7  1  0
  3  8  1  0
  4 15  1  0
  4 16  1  0
  4 17  1  0
  5  9  1  0
  6 10  2  0
  6 11  1  0
 10 12  1  0
 11 13  2  0
 12 14  2  0
 13 14  1  0
M  CHG  1   3   1
M  END
>  <PUBCHEM_COMPOUND_CID>  (1) 
46583

>  <PUBCHEM_CONFORMER_RMSD>  (1) 
0.6

>  <PUBCHEM_CONFORMER_DIVERSEORDER>  (1) 
1
46
18
58
48
35
41
53
43
20
15
28
8
33
16
7
31
37
49
52
36
5
55
45
51
59
14
47
29
40
19
17
11
68
30
69
64
26
38
60
9
66
32
54
57
2
65
13
10
44
34
22
24
25
39
6
27
42
61
56
12
62
50
63
67
21
4
3
23

>  <PUBCHEM_MMFF94_PARTIAL_CHARGES>  (1) 
20
1 -0.23
10 -0.15
11 -0.15
12 -0.15
13 -0.15
14 0.08
15 0.78
16 0.3
17 0.3
2 -0.57
29 0.15
3 -0.87
30 0.15
31 0.15
32 0.15
4 -0.66
5 0.5
6 0.36
7 0.5
8 0.5

>  <PUBCHEM_EFFECTIVE_ROTOR_COUNT>  (1) 
5

>  <PUBCHEM_PHARMACOPHORE_FEATURES>  (1) 
3
1 2 acceptor
1 3 cation
6 6 10 11 12 13 14 rings

>  <PUBCHEM_HEAVY_ATOM_COUNT>  (1) 
17

>  <PUBCHEM_ATOM_DEF_STEREO_COUNT>  (1) 
0

>  <PUBCHEM_ATOM_UDEF_STEREO_COUNT>  (1) 
0

>  <PUBCHEM_BOND_DEF_STEREO_COUNT>  (1) 
0

>  <PUBCHEM_BOND_UDEF_STEREO_COUNT>  (1) 
0

>  <PUBCHEM_ISOTOPIC_ATOM_COUNT>  (1) 
0

>  <PUBCHEM_COMPONENT_COUNT>  (1) 
1

>  <PUBCHEM_CACTVS_TAUTO_COUNT>  (1) 
1

>  <PUBCHEM_CONFORMER_ID>  (1) 
0000B5F700000001

>  <PUBCHEM_MMFF94_ENERGY>  (1) 
72.6856

>  <PUBCHEM_FEATURE_SELFOVERLAP>  (1) 
15.223

>  <PUBCHEM_SHAPE_FINGERPRINT>  (1) 
10366900 7 13912597286189519301
10680689 15 17418093239029533071
11401426 45 16702016465586518746
12119455 92 17822003211985833874
12236239 1 18343581833442306250
12507557 5 18113617915050659741
12670546 177 16916777539337445421
12670546 56 18261103054783719432
13167823 11 18335136492750158842
13288520 33 8862939477044959489
13675066 3 18131348609627162634
14911166 2 16630522929925197955
14943859 89 18334573564155055034
15209294 21 16443337620884658541
15375358 24 15051731993236968262
15788980 27 17918274234000258174
15848702 151 18261393304384221742
16945 1 17917135187525660979
18186145 218 18040153985268352587
19026448 5 18333728000831905435
200 152 18409447011513522530
20300324 65 18412261748812523473
20645476 183 18201998862777474062
20645477 70 18333452019994325842
20871999 31 17275096241673720717
22854114 59 16950562199017152270
23114952 82 17343515405485033973
23402539 116 15482674554831264392
23493267 7 18342454816432633723
23557571 272 17632585945911924629
23559900 14 16271928229824096934
265663 24 18334857225217501866
2838139 119 18190733142475990037
4175511 318 17632856421435056069
4921388 177 14333118706909700629
5104073 3 18333731316963162608
542803 24 18412546518129097634
633830 44 18337113362943004702

>  <PUBCHEM_SHAPE_MULTIPOLES>  (1) 
328.15
10.25
1.54
1.16
9.22
0.6
-0.1
1.75
-0.46
-0.82
-0.04
-0.63
-0.08
-0.64

>  <PUBCHEM_SHAPE_SELFOVERLAP>  (1) 
663.843

>  <PUBCHEM_SHAPE_VOLUME>  (1) 
193.8

>  <PUBCHEM_COORDINATE_TYPE>  (1) 
2
5
10

$$$$
