46597
     RDKit          3D

 19 19  0  0  0  0  0  0  0  0999 V2000
   -1.6242   -0.0829    0.6292 O   0  0  0  0  0  0  0  0  0  0  0  0
   -2.0345   -1.6698   -1.0039 O   0  0  0  0  0  0  0  0  0  0  0  0
    0.0503    2.0574   -0.1663 N   0  0  0  0  0  0  0  0  0  0  0  0
   -3.8359   -0.5958    0.0016 N   0  0  0  0  0  0  0  0  0  0  0  0
    0.5939    0.6497    0.0900 C   0  0  0  0  0  0  0  0  0  0  0  0
    1.2080    2.9633   -0.5758 C   0  0  0  0  0  0  0  0  0  0  0  0
   -0.6133    2.5674    1.1099 C   0  0  0  0  0  0  0  0  0  0  0  0
   -0.9900    2.0799   -1.2843 C   0  0  0  0  0  0  0  0  0  0  0  0
    1.9280    0.4789   -0.0845 C   0  0  0  0  0  0  0  0  0  0  0  0
    2.4374   -0.7993    0.1453 C   0  0  0  0  0  0  0  0  0  0  0  0
    3.8949   -1.0633   -0.0268 C   0  0  0  0  0  0  0  0  0  0  0  0
   -0.2896   -0.3058    0.4668 C   0  0  0  0  0  0  0  0  0  0  0  0
    1.5834   -1.8305    0.5359 C   0  0  0  0  0  0  0  0  0  0  0  0
    0.2199   -1.5839    0.6965 C   0  0  0  0  0  0  0  0  0  0  0  0
    4.7614   -0.2398    0.9449 C   0  0  0  0  0  0  0  0  0  0  0  0
    4.3688   -0.8310   -1.4741 C   0  0  0  0  0  0  0  0  0  0  0  0
   -2.4746   -0.8535   -0.1951 C   0  0  0  0  0  0  0  0  0  0  0  0
   -4.8362   -1.3130   -0.7759 C   0  0  0  0  0  0  0  0  0  0  0  0
   -4.3477    0.3721    0.9665 C   0  0  0  0  0  0  0  0  0  0  0  0
  1 12  1  0
  1 17  1  0
  2 17  2  0
  3  5  1  0
  3  6  1  0
  3  7  1  0
  3  8  1  0
  4 17  1  0
  4 18  1  0
  4 19  1  0
  5  9  2  0
  5 12  1  0
  9 10  1  0
 10 11  1  0
 10 13  2  0
 11 15  1  0
 11 16  1  0
 12 14  2  0
 13 14  1  0
M  CHG  1   3   1
M  END
>  <PUBCHEM_COMPOUND_CID>  (1) 
46597

>  <PUBCHEM_CONFORMER_RMSD>  (1) 
0.6

>  <PUBCHEM_CONFORMER_DIVERSEORDER>  (1) 
1
18
7
17
11
25
21
15
19
20
26
5
2
12
23
3
8
22
13
4
10
9
16
6
14
24

>  <PUBCHEM_MMFF94_PARTIAL_CHARGES>  (1) 
20
1 -0.23
10 -0.14
11 0.14
12 0.08
13 -0.15
14 -0.15
17 0.78
18 0.3
19 0.3
2 -0.57
29 0.15
3 -0.87
31 0.15
32 0.15
4 -0.66
5 0.36
6 0.5
7 0.5
8 0.5
9 -0.15

>  <PUBCHEM_EFFECTIVE_ROTOR_COUNT>  (1) 
5

>  <PUBCHEM_PHARMACOPHORE_FEATURES>  (1) 
4
1 2 acceptor
1 3 cation
3 11 15 16 hydrophobe
6 5 9 10 12 13 14 rings

>  <PUBCHEM_HEAVY_ATOM_COUNT>  (1) 
19

>  <PUBCHEM_ATOM_DEF_STEREO_COUNT>  (1) 
0

>  <PUBCHEM_ATOM_UDEF_STEREO_COUNT>  (1) 
0

>  <PUBCHEM_BOND_DEF_STEREO_COUNT>  (1) 
0

>  <PUBCHEM_BOND_UDEF_STEREO_COUNT>  (1) 
0

>  <PUBCHEM_ISOTOPIC_ATOM_COUNT>  (1) 
0

>  <PUBCHEM_COMPONENT_COUNT>  (1) 
1

>  <PUBCHEM_CACTVS_TAUTO_COUNT>  (1) 
1

>  <PUBCHEM_CONFORMER_ID>  (1) 
0000B60500000001

>  <PUBCHEM_MMFF94_ENERGY>  (1) 
82.7779

>  <PUBCHEM_FEATURE_SELFOVERLAP>  (1) 
20.297

>  <PUBCHEM_SHAPE_FINGERPRINT>  (1) 
104564 63 18337955563190678125
10906281 52 18336562602602277776
10989021 7 18408608080226584532
11132069 177 18342454829253991458
11206711 2 18260833648833818214
11578080 2 17987209232454219705
11680986 33 18046352099823008538
12119455 92 12031788033017688323
12236239 1 18202566189956502611
12553582 1 18408321068715224075
12592029 89 14273728526369024016
12633257 1 17902554576888823427
13009979 54 18059308642398463177
13132413 78 18411420579414984253
13140716 1 18263083391326825778
13862211 1 18335133194035894978
14178342 30 18122618363086082680
14347332 77 18193280685611843270
14955137 171 18199494145693874347
15536298 74 18271805778024766176
15848700 24 18411697694920430518
15848702 151 18131351920725012670
1601671 61 18339364050618311185
16752209 62 18114742638399973386
16945 1 18113610205478640906
17349148 13 17676765358635755626
17357779 13 18336528465769809845
1813 80 18409738347814149524
18222031 100 18343016705112394695
18785283 64 17751938053260696097
19141452 34 17988924474534796871
192875 21 17603303735535593006
200 152 17822291245630657346
20510252 161 18339074887845293992
20612939 158 18261674886724370629
20671657 1 18196372743835904237
21029758 11 18410571807677112624
21029758 27 18260840297285008037
21041028 32 18338815484737451873
21267235 1 18412553123757663587
21296965 67 18410851053507644300
21501502 16 18047194042821563290
21641784 216 17677347012543893860
22112679 90 17987821668872722905
221490 88 18046349901180243123
22182313 1 18189874531052393436
2334 1 17903365041232866026
23402539 116 18411694362010296226
23419403 2 18056730274346285808
23557571 272 18271527503473800790
23559900 14 16989126440038652634
23598291 2 18199463449567923655
2748010 2 18336528465886146220
3071541 12 18192436491797243372
312423 11 18127699434093953967
34934 24 18190737536168783785
537710 114 18114188540316087870
621550 34 17846769707755094738
68521 5 18335139739449697580
7164475 11 18117556232958202758
7364860 26 18126842922529518353
7471813 234 18059845225553214413
7495541 125 17386581278901336619
81228 2 18337403625686177016
84936 182 17912366734223898561

>  <PUBCHEM_SHAPE_MULTIPOLES>  (1) 
369.31
8.21
2.65
1.15
1.36
2.2
0.16
-4.4
0.65
0.22
0.25
-0.14
0.13
-0.47

>  <PUBCHEM_SHAPE_SELFOVERLAP>  (1) 
748.689

>  <PUBCHEM_SHAPE_VOLUME>  (1) 
217.9

>  <PUBCHEM_COORDINATE_TYPE>  (1) 
2
5
10

$$$$
