46593
     RDKit          3D

 23 23  0  0  0  0  0  0  0  0999 V2000
   -3.0752   -1.0952   -0.7387 O   0  0  0  0  0  0  0  0  0  0  0  0
   -2.6846   -1.7621    1.4423 O   0  0  0  0  0  0  0  0  0  0  0  0
   -0.0756    3.5245    0.2666 N   0  0  0  0  0  0  0  0  0  0  0  0
   -3.9646   -3.1265    0.0604 N   0  0  0  0  0  0  0  0  0  0  0  0
   -0.8382    2.3219    0.0017 C   0  0  0  0  0  0  0  0  0  0  0  0
   -0.2141    1.1703   -0.4780 C   0  0  0  0  0  0  0  0  0  0  0  0
    1.2714    1.1409   -0.7358 C   0  0  0  0  0  0  0  0  0  0  0  0
    1.9673   -0.1182   -0.2065 C   0  0  0  0  0  0  0  0  0  0  0  0
    3.4855   -0.0938   -0.4095 C   0  0  0  0  0  0  0  0  0  0  0  0
    1.0487    3.3703    1.3374 C   0  0  0  0  0  0  0  0  0  0  0  0
    0.6496    4.0362   -1.0097 C   0  0  0  0  0  0  0  0  0  0  0  0
   -0.9812    4.6729    0.7931 C   0  0  0  0  0  0  0  0  0  0  0  0
    4.1341   -1.3809    0.1045 C   0  0  0  0  0  0  0  0  0  0  0  0
   -2.2139    2.3252    0.2333 C   0  0  0  0  0  0  0  0  0  0  0  0
   -0.9658    0.0220   -0.7268 C   0  0  0  0  0  0  0  0  0  0  0  0
    5.6459   -1.3726   -0.1279 C   0  0  0  0  0  0  0  0  0  0  0  0
   -2.3414    0.0251   -0.4958 C   0  0  0  0  0  0  0  0  0  0  0  0
   -2.9655    1.1767   -0.0158 C   0  0  0  0  0  0  0  0  0  0  0  0
    6.2897   -2.6722    0.3544 C   0  0  0  0  0  0  0  0  0  0  0  0
    7.7969   -2.6544    0.1557 C   0  0  0  0  0  0  0  0  0  0  0  0
   -3.2039   -1.9882    0.3499 C   0  0  0  0  0  0  0  0  0  0  0  0
   -4.1854   -4.1386    1.0834 C   0  0  0  0  0  0  0  0  0  0  0  0
   -4.5794   -3.3835   -1.2379 C   0  0  0  0  0  0  0  0  0  0  0  0
  1 17  1  0
  1 21  1  0
  2 21  2  0
  3  5  1  0
  3 10  1  0
  3 11  1  0
  3 12  1  0
  4 21  1  0
  4 22  1  0
  4 23  1  0
  5  6  2  0
  5 14  1  0
  6  7  1  0
  6 15  1  0
  7  8  1  0
  8  9  1  0
  9 13  1  0
 13 16  1  0
 14 18  2  0
 15 17  2  0
 16 19  1  0
 17 18  1  0
 19 20  1  0
M  CHG  1   3   1
M  END
>  <PUBCHEM_COMPOUND_CID>  (1) 
46593

>  <PUBCHEM_CONFORMER_RMSD>  (1) 
1

>  <PUBCHEM_CONFORMER_DIVERSEORDER>  (1) 
1
3
41
63
59
26
32
37
11
67
34
43
93
50
21
65
55
8
13
17
5
87
66
78
54
7
44
22
84
58
35
18
9
92
49
36
85
96
42
25
61
94
31
47
6
60
83
71
64
40
86
28
45
12
98
57
72
82
10
19
89
80
91
14
100
51
68
76
30
20
16
73
2
48
99
38
95
29
39
24
62
52
27
46
79
33
23
15
4
90
74
88
81
69
56
53
70
75
77
97

>  <PUBCHEM_MMFF94_PARTIAL_CHARGES>  (1) 
20
1 -0.23
10 0.5
11 0.5
12 0.5
14 -0.15
15 -0.15
17 0.08
18 -0.15
2 -0.57
21 0.78
22 0.3
23 0.3
3 -0.87
4 -0.66
41 0.15
42 0.15
45 0.15
5 0.36
6 -0.14
7 0.14

>  <PUBCHEM_EFFECTIVE_ROTOR_COUNT>  (1) 
10

>  <PUBCHEM_PHARMACOPHORE_FEATURES>  (1) 
6
1 2 acceptor
1 20 hydrophobe
1 3 cation
3 13 16 19 hydrophobe
3 7 8 9 hydrophobe
6 5 6 14 15 17 18 rings

>  <PUBCHEM_HEAVY_ATOM_COUNT>  (1) 
23

>  <PUBCHEM_ATOM_DEF_STEREO_COUNT>  (1) 
0

>  <PUBCHEM_ATOM_UDEF_STEREO_COUNT>  (1) 
0

>  <PUBCHEM_BOND_DEF_STEREO_COUNT>  (1) 
0

>  <PUBCHEM_BOND_UDEF_STEREO_COUNT>  (1) 
0

>  <PUBCHEM_ISOTOPIC_ATOM_COUNT>  (1) 
0

>  <PUBCHEM_COMPONENT_COUNT>  (1) 
1

>  <PUBCHEM_CACTVS_TAUTO_COUNT>  (1) 
1

>  <PUBCHEM_CONFORMER_ID>  (1) 
0000B60100000001

>  <PUBCHEM_MMFF94_ENERGY>  (1) 
87.1774

>  <PUBCHEM_FEATURE_SELFOVERLAP>  (1) 
30.458

>  <PUBCHEM_SHAPE_FINGERPRINT>  (1) 
10411042 1 18411979204083274031
1100329 8 18410862045025728889
11036077 51 17906453221101913696
11135609 149 17908960426116381687
114674 6 17901945575578635355
12107183 9 18197800945575260195
12293681 25 18049691256998003069
12760667 363 18408884049055585671
12969540 37 17904200678190191222
12990986 174 18411420592336770502
13140716 1 18341899592708866905
13533116 47 17906741654712173147
13631057 29 18336543829448433218
13955234 65 17692538131760631089
14844126 61 18336832965802385378
14863182 85 17181380720894964789
14866123 147 18410016507788595339
15042514 8 18339364067386645951
15250474 111 17971464097496485330
17780758 139 18265050246072694430
17859628 70 17833273399496567043
20771845 35 17843380002841598923
20775438 99 17400625516664267819
21796203 349 17977419275109141010
22956985 138 18193554699892217696
23559900 14 18265041608777469685
283562 15 17837487449810099209
32027 91 18193833975878094323
3421961 26 18050853513702558059
4073 2 18195811757405827902
4409770 3 18191301572839102101
5104073 3 18272933813210817872
5486654 36 18334585654651595323
70251023 43 18192432094235964363
77188 2 18339641260239368580
7970288 3 18337952406348446582

>  <PUBCHEM_SHAPE_MULTIPOLES>  (1) 
451.63
12.58
6.73
1.07
30.19
2.47
0.11
-22.31
0.77
-6.15
1.44
-0.67
-0.02
-0.28

>  <PUBCHEM_SHAPE_SELFOVERLAP>  (1) 
891.756

>  <PUBCHEM_SHAPE_VOLUME>  (1) 
271.6

>  <PUBCHEM_COORDINATE_TYPE>  (1) 
2
5
10

$$$$
