466
     RDKit          3D

 16 16  0  0  1  0  0  0  0  0999 V2000
   -2.7789   -0.0243   -0.1928 P   0  0  0  0  0  0  0  0  0  0  0  0
    0.2694   -0.6133    0.9685 O   0  0  0  0  0  0  0  0  0  0  0  0
    1.0883    1.5244   -1.7327 O   0  0  0  0  0  0  0  0  0  0  0  0
   -1.2822    0.5514   -0.3902 O   0  0  0  0  0  0  0  0  0  0  0  0
    3.2135   -0.1642   -1.1811 O   0  0  0  0  0  0  0  0  0  0  0  0
    1.1601    2.0488    1.8676 O   0  0  0  0  0  0  0  0  0  0  0  0
    0.7768   -3.2486    0.3862 O   0  0  0  0  0  0  0  0  0  0  0  0
   -2.5477   -1.5828    0.1714 O   0  0  0  0  0  0  0  0  0  0  0  0
   -3.3423   -0.0759   -1.7076 O   0  0  0  0  0  0  0  0  0  0  0  0
   -3.6329    0.7411    0.7753 O   0  0  0  0  0  0  0  0  0  0  0  0
    1.6438    1.5163   -0.4185 C   0  0  0  0  0  0  0  0  0  0  0  0
    2.2844    0.1503   -0.1509 C   0  0  0  0  0  0  0  0  0  0  0  0
    0.5424    1.7971    0.6069 C   0  0  0  0  0  0  0  0  0  0  0  0
    1.2139   -0.9415   -0.0548 C   0  0  0  0  0  0  0  0  0  0  0  0
   -0.4287    0.6162    0.7483 C   0  0  0  0  0  0  0  0  0  0  0  0
    1.8203   -2.2950    0.3044 C   0  0  0  0  0  0  0  0  0  0  0  0
  1  4  1  0
  1  8  1  0
  1  9  1  0
  1 10  2  0
  2 14  1  0
  2 15  1  0
  3 11  1  0
  4 15  1  0
  5 12  1  0
  6 13  1  0
  7 16  1  0
 11 12  1  0
 11 13  1  0
 12 14  1  0
 13 15  1  0
 14 16  1  0
M  END
>  <PUBCHEM_COMPOUND_CID>  (1) 
466

>  <PUBCHEM_CONFORMER_RMSD>  (1) 
0.6

>  <PUBCHEM_CONFORMER_DIVERSEORDER>  (1) 
5
99
80
107
41
162
127
132
51
155
121
68
172
156
97
125
58
64
120
81
49
129
86
137
163
136
106
151
65
71
57
130
153
143
139
140
34
56
108
158
75
95
63
100
169
103
24
74
165
101
85
161
160
154
36
90
112
91
134
70
149
42
18
78
157
115
109
21
119
84
15
98
135
27
114
60
32
19
10
94
67
105
87
25
96
167
40
118
20
131
111
31
66
37
72
53
22
26
170
128
77
116
117
50
83
164
28
146
145
113
110
79
141
104
52
144
93
39
88
142
29
6
33
122
76
48
82
11
1
152
159
133
168
73
150
126
54
16
123
124
166
45
46
12
147
89
30
171
138
35
38
148
102
69
43
44
92
23
17
14
8
59
62
61
47
7
55
2
4
9
3
13

>  <PUBCHEM_MMFF94_PARTIAL_CHARGES>  (1) 
22
1 1.51
10 -0.7
11 0.28
12 0.28
13 0.28
14 0.28
15 0.56
16 0.28
2 -0.56
24 0.4
25 0.4
26 0.4
27 0.4
28 0.5
29 0.5
3 -0.68
4 -0.55
5 -0.68
6 -0.68
7 -0.68
8 -0.77
9 -0.77

>  <PUBCHEM_EFFECTIVE_ROTOR_COUNT>  (1) 
4.2

>  <PUBCHEM_PHARMACOPHORE_FEATURES>  (1) 
14
1 10 acceptor
1 2 acceptor
1 3 acceptor
1 3 donor
1 5 acceptor
1 5 donor
1 6 acceptor
1 6 donor
1 7 acceptor
1 7 donor
1 8 acceptor
1 9 acceptor
4 1 8 9 10 anion
6 2 11 12 13 14 15 rings

>  <PUBCHEM_HEAVY_ATOM_COUNT>  (1) 
16

>  <PUBCHEM_ATOM_DEF_STEREO_COUNT>  (1) 
0

>  <PUBCHEM_ATOM_UDEF_STEREO_COUNT>  (1) 
5

>  <PUBCHEM_BOND_DEF_STEREO_COUNT>  (1) 
0

>  <PUBCHEM_BOND_UDEF_STEREO_COUNT>  (1) 
0

>  <PUBCHEM_ISOTOPIC_ATOM_COUNT>  (1) 
0

>  <PUBCHEM_COMPONENT_COUNT>  (1) 
1

>  <PUBCHEM_CACTVS_TAUTO_COUNT>  (1) 
1

>  <PUBCHEM_CONFORMER_ID>  (1) 
000001D200000005

>  <PUBCHEM_MMFF94_ENERGY>  (1) 
4.3754

>  <PUBCHEM_FEATURE_SELFOVERLAP>  (1) 
71.105

>  <PUBCHEM_SHAPE_FINGERPRINT>  (1) 
1 1 18334859458537029742
12423570 1 12573380497440720128
14817 1 15389602132406503544
15001771 113 17906454325071902602
15375462 189 18270967842995862451
15852999 172 17901629917400060715
16945 1 18335984181633480156
18186145 218 18335990856018030604
21524375 3 16883301958521084012
22112679 90 17843412777794745200
22802520 49 17751353980742392573
23402539 116 18271816696538417142
23419403 2 17327963938875852696
2748010 2 18120657091327881331
3060560 45 18187918529767255823
4175511 335 18336256886149783815
74978 22 17917987300441867645
8030462 33 18271800263835403693
81228 2 17112121946205509035

>  <PUBCHEM_SHAPE_MULTIPOLES>  (1) 
280.3
4.62
2.54
1.32
4.21
1.6
-0.19
0.44
-1.26
-1.47
0.66
0.01
-0.63
-0.2

>  <PUBCHEM_SHAPE_SELFOVERLAP>  (1) 
548.069

>  <PUBCHEM_SHAPE_VOLUME>  (1) 
168.7

>  <PUBCHEM_COORDINATE_TYPE>  (1) 
2
5
10

$$$$
