46614
     RDKit          3D

 17 17  0  0  0  0  0  0  0  0999 V2000
    1.8328    0.2458   -0.7794 O   0  0  0  0  0  0  0  0  0  0  0  0
    2.2342    0.0112    1.4872 O   0  0  0  0  0  0  0  0  0  0  0  0
   -2.7327   -1.1656   -0.0190 N   0  0  0  0  0  0  0  0  0  0  0  0
    3.9769   -0.3577   -0.0083 N   0  0  0  0  0  0  0  0  0  0  0  0
   -1.6889   -0.0495   -0.1066 C   0  0  0  0  0  0  0  0  0  0  0  0
   -2.0442   -2.4461    0.4443 C   0  0  0  0  0  0  0  0  0  0  0  0
   -3.3647   -1.3560   -1.3951 C   0  0  0  0  0  0  0  0  0  0  0  0
   -3.8462   -0.8381    0.9738 C   0  0  0  0  0  0  0  0  0  0  0  0
   -2.1017    1.2218    0.1141 C   0  0  0  0  0  0  0  0  0  0  0  0
   -0.4229   -0.4375   -0.4028 C   0  0  0  0  0  0  0  0  0  0  0  0
   -1.1360    2.2249    0.0298 C   0  0  0  0  0  0  0  0  0  0  0  0
    0.5425    0.5657   -0.4875 C   0  0  0  0  0  0  0  0  0  0  0  0
   -3.5107    1.5992    0.4364 C   0  0  0  0  0  0  0  0  0  0  0  0
    0.1861    1.8968   -0.2710 C   0  0  0  0  0  0  0  0  0  0  0  0
    2.6592   -0.0335    0.3333 C   0  0  0  0  0  0  0  0  0  0  0  0
    4.9465   -0.6702    1.0316 C   0  0  0  0  0  0  0  0  0  0  0  0
    4.4699   -0.4114   -1.3808 C   0  0  0  0  0  0  0  0  0  0  0  0
  1 12  1  0
  1 15  1  0
  2 15  2  0
  3  5  1  0
  3  6  1  0
  3  7  1  0
  3  8  1  0
  4 15  1  0
  4 16  1  0
  4 17  1  0
  5  9  2  0
  5 10  1  0
  9 11  1  0
  9 13  1  0
 10 12  2  0
 11 14  2  0
 12 14  1  0
M  CHG  1   3   1
M  END
>  <PUBCHEM_COMPOUND_CID>  (1) 
46614

>  <PUBCHEM_CONFORMER_RMSD>  (1) 
0.6

>  <PUBCHEM_CONFORMER_DIVERSEORDER>  (1) 
1
19
16
15
6
17
21
5
3
14
4
13
18
11
12
9
7
8
2
10
20

>  <PUBCHEM_MMFF94_PARTIAL_CHARGES>  (1) 
20
1 -0.23
10 -0.15
11 -0.15
12 0.08
13 0.14
14 -0.15
15 0.78
16 0.3
17 0.3
2 -0.57
27 0.15
28 0.15
3 -0.87
32 0.15
4 -0.66
5 0.36
6 0.5
7 0.5
8 0.5
9 -0.14

>  <PUBCHEM_EFFECTIVE_ROTOR_COUNT>  (1) 
4

>  <PUBCHEM_PHARMACOPHORE_FEATURES>  (1) 
3
1 2 acceptor
1 3 cation
6 5 9 10 11 12 14 rings

>  <PUBCHEM_HEAVY_ATOM_COUNT>  (1) 
17

>  <PUBCHEM_ATOM_DEF_STEREO_COUNT>  (1) 
0

>  <PUBCHEM_ATOM_UDEF_STEREO_COUNT>  (1) 
0

>  <PUBCHEM_BOND_DEF_STEREO_COUNT>  (1) 
0

>  <PUBCHEM_BOND_UDEF_STEREO_COUNT>  (1) 
0

>  <PUBCHEM_ISOTOPIC_ATOM_COUNT>  (1) 
0

>  <PUBCHEM_COMPONENT_COUNT>  (1) 
1

>  <PUBCHEM_CACTVS_TAUTO_COUNT>  (1) 
1

>  <PUBCHEM_CONFORMER_ID>  (1) 
0000B61600000001

>  <PUBCHEM_MMFF94_ENERGY>  (1) 
92.3712

>  <PUBCHEM_FEATURE_SELFOVERLAP>  (1) 
15.223

>  <PUBCHEM_SHAPE_FINGERPRINT>  (1) 
10616163 171 18408889520912394962
11046707 91 18335419071216368536
11132069 177 18272089366141256076
11543360 7 15502376776503535230
12236239 1 17749398035846087564
12346177 29 18343293756583728213
12500047 106 18340762624734261785
12553582 1 18335703870476920714
13103583 49 17827681142209315195
13140716 1 18412550941930225145
13583140 156 14476959003835111311
13760787 5 17167866344436619950
14420673 8 17761490293110024778
15375462 189 17822010887134395424
15653759 3 18060416906884777528
16752209 62 18261939796070171199
16945 1 18342184353894474981
17804303 29 18342181063379755521
17977361 122 18333446538882638371
18186145 218 16298394569541537212
19422 9 18041001717919238890
200 152 16370440038775999076
20281475 54 18114180852224394622
20671657 53 17748826349533651500
21501502 16 18268716172179441109
21634736 98 18042695077394911116
21650355 55 18410569574252180513
22112679 90 18336282196498002285
22182313 1 18056219998387993967
2297311 6 18271260347775695412
232386 152 18410019865861982221
23366157 5 18043534030368831900
23402539 116 18342730824189932287
23419403 2 17556821975887420153
23557571 272 18129678425800158628
23559900 14 18271532979662605118
23598294 1 18335415729837418225
2838139 119 14475850567765961627
3286 77 16629954559575531507
43471831 8 18262798454279835826
474 4 17242471636061153780
5104073 3 18412259537157606976
602551 16 18412822495716896938
77492 1 17749116560737579556
7970288 3 18335701710109300091
9709674 26 18341616988662114406

>  <PUBCHEM_SHAPE_MULTIPOLES>  (1) 
328.15
8.54
2.06
1.15
9.12
0.19
-0.06
-2.9
0.71
-2.28
0.07
0.48
-0.3
-0.33

>  <PUBCHEM_SHAPE_SELFOVERLAP>  (1) 
668.92

>  <PUBCHEM_SHAPE_VOLUME>  (1) 
192.6

>  <PUBCHEM_COORDINATE_TYPE>  (1) 
2
5
10

$$$$
