46612
     RDKit          3D

 12 12  0  0  0  0  0  0  0  0999 V2000
    2.3393    1.9207   -0.0005 O   0  0  0  0  0  0  0  0  0  0  0  0
   -2.1333    0.0716    0.0002 N   0  0  0  0  0  0  0  0  0  0  0  0
   -0.6148   -0.1203   -0.0008 C   0  0  0  0  0  0  0  0  0  0  0  0
   -2.7098   -0.5835    1.2521 C   0  0  0  0  0  0  0  0  0  0  0  0
   -2.7097   -0.5661   -1.2609 C   0  0  0  0  0  0  0  0  0  0  0  0
   -2.5289    1.5467    0.0100 C   0  0  0  0  0  0  0  0  0  0  0  0
    0.1454    1.0010    0.0000 C   0  0  0  0  0  0  0  0  0  0  0  0
   -0.1587   -1.3959   -0.0009 C   0  0  0  0  0  0  0  0  0  0  0  0
    1.5290    0.8254    0.0006 C   0  0  0  0  0  0  0  0  0  0  0  0
    2.0690   -0.4606    0.0003 C   0  0  0  0  0  0  0  0  0  0  0  0
    1.2251   -1.5713   -0.0005 C   0  0  0  0  0  0  0  0  0  0  0  0
    3.5475   -0.6677    0.0004 C   0  0  0  0  0  0  0  0  0  0  0  0
  1  9  1  0
  2  3  1  0
  2  4  1  0
  2  5  1  0
  2  6  1  0
  3  7  2  0
  3  8  1  0
  7  9  1  0
  8 11  2  0
  9 10  2  0
 10 11  1  0
 10 12  1  0
M  CHG  1   2   1
M  END
>  <PUBCHEM_COMPOUND_CID>  (1) 
46612

>  <PUBCHEM_CONFORMER_RMSD>  (1) 
0.4

>  <PUBCHEM_CONFORMER_DIVERSEORDER>  (1) 
1
2

>  <PUBCHEM_MMFF94_PARTIAL_CHARGES>  (1) 
16
1 -0.53
10 -0.14
11 -0.15
12 0.14
2 -0.87
22 0.15
23 0.15
24 0.15
28 0.45
3 0.36
4 0.5
5 0.5
6 0.5
7 -0.15
8 -0.15
9 0.08

>  <PUBCHEM_EFFECTIVE_ROTOR_COUNT>  (1) 
1

>  <PUBCHEM_PHARMACOPHORE_FEATURES>  (1) 
3
1 1 donor
1 2 cation
6 3 7 8 9 10 11 rings

>  <PUBCHEM_HEAVY_ATOM_COUNT>  (1) 
12

>  <PUBCHEM_ATOM_DEF_STEREO_COUNT>  (1) 
0

>  <PUBCHEM_ATOM_UDEF_STEREO_COUNT>  (1) 
0

>  <PUBCHEM_BOND_DEF_STEREO_COUNT>  (1) 
0

>  <PUBCHEM_BOND_UDEF_STEREO_COUNT>  (1) 
0

>  <PUBCHEM_ISOTOPIC_ATOM_COUNT>  (1) 
0

>  <PUBCHEM_COMPONENT_COUNT>  (1) 
1

>  <PUBCHEM_CACTVS_TAUTO_COUNT>  (1) 
3

>  <PUBCHEM_CONFORMER_ID>  (1) 
0000B61400000001

>  <PUBCHEM_MMFF94_ENERGY>  (1) 
52.0653

>  <PUBCHEM_FEATURE_SELFOVERLAP>  (1) 
15.223

>  <PUBCHEM_SHAPE_FINGERPRINT>  (1) 
11206711 2 18335701581464963780
11471102 22 18263099793448122603
12032990 46 18338527326644077958
124424 183 17822562816217572114
12932764 1 17989490757266535225
13380535 21 18120670277341625574
14325111 11 18410575106243611812
15775835 57 18130793403373116977
16945 1 18410856555524436678
17844478 74 18114194054922103753
19973954 147 18408045108603031009
20201158 50 18334574594789047979
20715346 28 17895192267744116421
21040471 1 18266740362578993476
23402655 69 18123736579323176917
23552423 10 18411133623790660359
2748010 2 18193279821790075398
3248919 1 18040431105185102789
5084963 1 18059848484852968027
528886 8 18338230457987172219
63268167 104 18343021090300085384
8030462 33 18408323285039356469

>  <PUBCHEM_SHAPE_MULTIPOLES>  (1) 
236.1
4.93
1.68
0.88
0.55
0.41
0
0.04
0
0.36
0
-0.74
-0.19
0

>  <PUBCHEM_SHAPE_SELFOVERLAP>  (1) 
482.38

>  <PUBCHEM_SHAPE_VOLUME>  (1) 
140.8

>  <PUBCHEM_COORDINATE_TYPE>  (1) 
2
5
10

$$$$
