46626
     RDKit          3D

 23 25  0  0  0  0  0  0  0  0999 V2000
    1.7393   -1.7973    1.7854 Cl  0  0  0  0  0  0  0  0  0  0  0  0
    0.2165    2.1385    1.4702 Cl  0  0  0  0  0  0  0  0  0  0  0  0
   -2.9539    2.2303    1.1847 Cl  0  0  0  0  0  0  0  0  0  0  0  0
    2.4889    0.9703   -1.3266 S   0  0  0  0  0  0  0  0  0  0  0  0
   -4.0166    0.2301   -0.7183 O   0  0  0  0  0  0  0  0  0  0  0  0
   -6.7855   -1.7631    0.3875 O   0  0  0  0  0  0  0  0  0  0  0  0
   -6.5609    0.4970    0.2175 O   0  0  0  0  0  0  0  0  0  0  0  0
    1.5596    0.0252   -0.2551 C   0  0  0  0  0  0  0  0  0  0  0  0
    3.7503   -0.5398    0.3507 C   0  0  0  0  0  0  0  0  0  0  0  0
    0.1190    0.1171   -0.3399 C   0  0  0  0  0  0  0  0  0  0  0  0
    3.9738    0.3775   -0.6808 C   0  0  0  0  0  0  0  0  0  0  0  0
    2.3465   -0.7300    0.5817 C   0  0  0  0  0  0  0  0  0  0  0  0
   -0.6143    1.0452    0.4010 C   0  0  0  0  0  0  0  0  0  0  0  0
   -0.5393   -0.7631   -1.1999 C   0  0  0  0  0  0  0  0  0  0  0  0
    4.8750   -1.1193    0.9864 C   0  0  0  0  0  0  0  0  0  0  0  0
    5.2768    0.7255   -1.0875 C   0  0  0  0  0  0  0  0  0  0  0  0
   -2.6603    0.2123   -0.5772 C   0  0  0  0  0  0  0  0  0  0  0  0
   -2.0032    1.0928    0.2822 C   0  0  0  0  0  0  0  0  0  0  0  0
   -1.9284   -0.7156   -1.3184 C   0  0  0  0  0  0  0  0  0  0  0  0
    6.1689   -0.7760    0.5855 C   0  0  0  0  0  0  0  0  0  0  0  0
    6.3653    0.1369   -0.4409 C   0  0  0  0  0  0  0  0  0  0  0  0
   -4.7171   -0.9661   -0.3855 C   0  0  0  0  0  0  0  0  0  0  0  0
   -6.1004   -0.6284    0.0974 C   0  0  0  0  0  0  0  0  0  0  0  0
  1 12  1  0
  2 13  1  0
  3 18  1  0
  4  8  1  0
  4 11  1  0
  5 17  1  0
  5 22  1  0
  6 23  1  0
  7 23  2  0
  8 10  1  0
  8 12  2  0
  9 11  2  0
  9 12  1  0
  9 15  1  0
 10 13  2  0
 10 14  1  0
 11 16  1  0
 13 18  1  0
 14 19  2  0
 15 20  2  0
 16 21  2  0
 17 18  2  0
 17 19  1  0
 20 21  1  0
 22 23  1  0
M  END
>  <PUBCHEM_COMPOUND_CID>  (1) 
46626

>  <PUBCHEM_CONFORMER_RMSD>  (1) 
0.8

>  <PUBCHEM_CONFORMER_DIVERSEORDER>  (1) 
1
6
4
5
2
8
9
3
10
7

>  <PUBCHEM_MMFF94_PARTIAL_CHARGES>  (1) 
29
1 -0.12
10 0.05
11 0.04
12 0.12
13 0.18
14 -0.15
15 -0.15
16 -0.15
17 0.08
18 0.18
19 -0.15
2 -0.18
20 -0.15
21 -0.15
22 0.34
23 0.66
24 0.15
25 0.15
26 0.15
27 0.15
28 0.15
29 0.15
3 -0.18
32 0.5
4 -0.08
5 -0.36
6 -0.65
7 -0.57
8 -0.01

>  <PUBCHEM_EFFECTIVE_ROTOR_COUNT>  (1) 
4

>  <PUBCHEM_PHARMACOPHORE_FEATURES>  (1) 
7
1 5 acceptor
1 6 acceptor
1 7 acceptor
3 6 7 23 anion
5 4 8 9 11 12 rings
6 10 13 14 17 18 19 rings
6 9 11 15 16 20 21 rings

>  <PUBCHEM_HEAVY_ATOM_COUNT>  (1) 
23

>  <PUBCHEM_ATOM_DEF_STEREO_COUNT>  (1) 
0

>  <PUBCHEM_ATOM_UDEF_STEREO_COUNT>  (1) 
0

>  <PUBCHEM_BOND_DEF_STEREO_COUNT>  (1) 
0

>  <PUBCHEM_BOND_UDEF_STEREO_COUNT>  (1) 
0

>  <PUBCHEM_ISOTOPIC_ATOM_COUNT>  (1) 
0

>  <PUBCHEM_COMPONENT_COUNT>  (1) 
1

>  <PUBCHEM_CACTVS_TAUTO_COUNT>  (1) 
1

>  <PUBCHEM_CONFORMER_ID>  (1) 
0000B62200000001

>  <PUBCHEM_MMFF94_ENERGY>  (1) 
61.5675

>  <PUBCHEM_FEATURE_SELFOVERLAP>  (1) 
35.644

>  <PUBCHEM_SHAPE_FINGERPRINT>  (1) 
10299344 5 18259705614608122419
11089746 13 9439399125230739819
11421498 54 18337387137143230160
11646440 116 16988849392829917291
11963148 33 18201432601621331951
12035758 1 16845567634378186586
12166972 35 18187085074458476076
12236239 1 18408322164327250692
12390115 104 16988294053759309993
12403259 415 16343416233166562104
12596602 18 18408040697550143065
12788726 201 18343019952687510465
12916748 109 18060139830176072014
13073987 5 17917149390992915438
13140716 1 17630314458295065927
13533116 47 18261388928102632738
13862211 1 18060132168028412215
14251764 18 18410294714632439755
14341114 176 14117519856653529371
15183329 4 10663816330657953225
15527383 91 13542462072845081498
15927050 60 17410205535785572364
17492 89 18196370308589999622
19377110 9 18409452444757850769
200 152 17967529060431402020
20028762 73 18187640255217297626
20645477 70 17168134595409811178
21033648 29 15841259351603041971
21150785 3 18040724679891704486
21267235 1 18273219694607617980
21521721 280 17967819387678627152
2215653 11 14923944535775010136
22182313 1 17131283337739026493
22224240 67 17313383461440872698
2297311 6 17632583738604689724
23035841 295 18411136944011655991
23175994 123 14692567737032154186
23402539 116 17417801846709689900
23522609 53 18192740962562139773
23536379 177 17748824103381780549
23557571 272 17275112708605025492
23559900 14 17531529905460154093
23569917 315 18114463375717569322
23569943 247 17757550756085936882
2838139 119 11312057643435970715
335352 9 17989203764100985317
3411729 13 17559380573588820232
34797466 226 17346605205654407068
350125 39 18131633391744918457
4098825 35 17458337499658691853
4325135 7 17894348886470250230
4340502 62 17894348886649650290
4463277 17 18131350825656187981
465052 167 18341899636217351991
469060 322 17846235340397591969
474 4 18189336943698578052
5104073 3 17488748839894318698
57724786 102 14476377388323133106
59755656 215 17561090176255836942
7495541 125 18338237171601460341
8863177 126 18194686106300990747
9849439 229 17124247416583181777

>  <PUBCHEM_SHAPE_MULTIPOLES>  (1) 
465.18
15.53
1.75
1.4
8.18
0.51
-0.17
-4.66
-0.02
1.15
-0.83
-0.69
0.01
-1.48

>  <PUBCHEM_SHAPE_SELFOVERLAP>  (1) 
980.269

>  <PUBCHEM_SHAPE_VOLUME>  (1) 
265.8

>  <PUBCHEM_COORDINATE_TYPE>  (1) 
2
5
10

$$$$
