46634
     RDKit          3D

 18 18  0  0  0  0  0  0  0  0999 V2000
   -6.4169   -0.9229   -1.1747 Cl  0  0  0  0  0  0  0  0  0  0  0  0
    2.2767   -0.4573    0.2698 O   0  0  0  0  0  0  0  0  0  0  0  0
   -1.1220    0.3274    1.0376 O   0  0  0  0  0  0  0  0  0  0  0  0
    1.2925    1.5009    0.9949 O   0  0  0  0  0  0  0  0  0  0  0  0
    5.9216   -0.2222   -0.2248 N   0  0  0  0  0  0  0  0  0  0  0  0
    4.5939   -0.8342   -0.1881 C   0  0  0  0  0  0  0  0  0  0  0  0
    3.5504    0.1740    0.2656 C   0  0  0  0  0  0  0  0  0  0  0  0
    5.9273    0.9330   -1.1217 C   0  0  0  0  0  0  0  0  0  0  0  0
    6.9241   -1.2005   -0.6451 C   0  0  0  0  0  0  0  0  0  0  0  0
   -2.3617    0.0482    0.5153 C   0  0  0  0  0  0  0  0  0  0  0  0
   -3.0479    1.0092   -0.2162 C   0  0  0  0  0  0  0  0  0  0  0  0
   -0.0457   -0.4836    0.6103 C   0  0  0  0  0  0  0  0  0  0  0  0
    1.2229    0.3265    0.6588 C   0  0  0  0  0  0  0  0  0  0  0  0
   -2.9120   -1.2089    0.7316 C   0  0  0  0  0  0  0  0  0  0  0  0
   -4.3052    0.7085   -0.7400 C   0  0  0  0  0  0  0  0  0  0  0  0
   -2.4626    2.3624   -0.4529 C   0  0  0  0  0  0  0  0  0  0  0  0
   -4.1694   -1.5096    0.2077 C   0  0  0  0  0  0  0  0  0  0  0  0
   -4.8660   -0.5510   -0.5281 C   0  0  0  0  0  0  0  0  0  0  0  0
  1 18  1  0
  2  7  1  0
  2 13  1  0
  3 10  1  0
  3 12  1  0
  4 13  2  0
  5  6  1  0
  5  8  1  0
  5  9  1  0
  6  7  1  0
 10 11  2  0
 10 14  1  0
 11 15  1  0
 11 16  1  0
 12 13  1  0
 14 17  2  0
 15 18  2  0
 17 18  1  0
M  END
>  <PUBCHEM_COMPOUND_CID>  (1) 
46634

>  <PUBCHEM_CONFORMER_RMSD>  (1) 
0.8

>  <PUBCHEM_CONFORMER_DIVERSEORDER>  (1) 
1
80
88
328
74
364
20
252
358
373
157
197
207
337
85
119
193
270
70
12
77
320
84
146
288
223
269
311
362
112
87
330
209
52
355
5
202
143
284
161
121
117
370
124
57
229
228
147
75
312
357
180
2
18
155
62
164
9
208
173
304
184
255
89
120
21
40
156
346
137
170
166
245
201
178
141
374
236
41
95
96
108
256
175
282
334
83
35
69
159
302
297
132
158
238
179
31
149
56
195
107
368
73
25
275
264
213
244
148
345
215
76
42
267
153
123
51
281
68
47
43
134
279
128
286
199
198
295
220
139
91
126
336
254
152
4
235
377
86
306
110
316
325
350
3
71
192
37
24
115
322
176
45
182
307
160
233
292
266
118
93
232
280
145
133
140
259
168
203
105
97
366
278
303
129
237
53
299
171
351
172
331
211
375
272
253
163
162
289
277
338
194
7
127
240
353
187
104
78
348
142
63
321
66
39
379
48
241
98
130
131
13
262
283
339
352
135
92
109
243
50
8
167
154
332
296
365
49
174
361
55
291
274
54
169
363
23
224
323
212
138
30
271
217
260
61
300
343
103
225
17
136
44
125
315
219
6
340
268
347
29
248
250
101
273
90
227
10
372
308
200
65
26
165
59
111
309
327
222
82
290
354
205
246
191
14
204
60
67
113
15
294
81
369
34
367
19
261
344
100
216
230
185
206
298
150
231
313
318
32
360
64
310
257
22
242
214
247
188
226
46
116
28
11
144
38
285
210
317
33
183
94
335
190
234
58
276
349
333
326
329
324
181
239
196
293
16
218
189
221
27
122
249
314
305
359
72
114
263
376
356
177
301
102
371
341
36
265
99
342
378
251
151
319
287
106
79
258
186

>  <PUBCHEM_MMFF94_PARTIAL_CHARGES>  (1) 
21
1 -0.18
10 0.08
11 -0.14
12 0.34
13 0.66
14 -0.15
15 -0.15
16 0.14
17 -0.15
18 0.18
2 -0.43
3 -0.36
31 0.15
32 0.15
36 0.15
4 -0.57
5 -0.81
6 0.27
7 0.28
8 0.27
9 0.27

>  <PUBCHEM_EFFECTIVE_ROTOR_COUNT>  (1) 
7

>  <PUBCHEM_PHARMACOPHORE_FEATURES>  (1) 
4
1 3 acceptor
1 4 acceptor
1 5 cation
6 10 11 14 15 17 18 rings

>  <PUBCHEM_HEAVY_ATOM_COUNT>  (1) 
18

>  <PUBCHEM_ATOM_DEF_STEREO_COUNT>  (1) 
0

>  <PUBCHEM_ATOM_UDEF_STEREO_COUNT>  (1) 
0

>  <PUBCHEM_BOND_DEF_STEREO_COUNT>  (1) 
0

>  <PUBCHEM_BOND_UDEF_STEREO_COUNT>  (1) 
0

>  <PUBCHEM_ISOTOPIC_ATOM_COUNT>  (1) 
0

>  <PUBCHEM_COMPONENT_COUNT>  (1) 
1

>  <PUBCHEM_CACTVS_TAUTO_COUNT>  (1) 
1

>  <PUBCHEM_CONFORMER_ID>  (1) 
0000B62A00000001

>  <PUBCHEM_MMFF94_ENERGY>  (1) 
44.7205

>  <PUBCHEM_FEATURE_SELFOVERLAP>  (1) 
20.305

>  <PUBCHEM_SHAPE_FINGERPRINT>  (1) 
10 15 9799689315891968022
10595046 47 18259705588663926982
10968037 39 18186801396532281087
11315181 36 17748832924970195780
11524674 6 16128372697034771879
12596602 18 10519984851316322438
12954195 1 18342451496881979369
13288520 33 18131350813156083177
13551218 46 12966861116986052637
13668630 136 17346601867952855582
13685833 64 16988842791507575802
13862211 1 17632579344853158862
1420 363 16415480454523669926
14251718 22 18335422378684116790
14350574 20 17988922292680406105
14528608 73 17968099733506096230
14849402 71 12606818381720503098
15048467 5 13406792224871016486
15183329 4 17967532342424791058
15348495 7 8934704579820855662
15716309 27 14189575226441684398
17780758 139 12247671678143900799
17834072 33 18333733537587789404
17844677 252 17275106128693971160
17870717 6 18410577275439518611
1813 80 15554460612536975992
18222031 100 17775282764399094696
19489759 90 18187086135462395682
19784866 170 8430321238022747696
19784866 240 17132115775351605001
200 152 17561079216016014811
20281389 69 8430320130069417382
20300324 65 18260831483880540177
20871999 31 18335421248706993008
21150785 3 18060138782394228740
21267235 1 18336266829964366331
21637258 2 16415186919605742503
221357 26 18411695499918296808
22224240 67 9367342630751801997
2297311 6 18409730664592449177
23035841 295 17346880056905155031
23198884 109 17603866693409191635
23402539 116 17967533471637076086
23557571 272 18341335508999974685
23559900 14 18263358247563884041
2767999 5 15140678098873129518
300161 21 16226043405693232514
3004659 81 18261675888211594114
351380 3 16630807703468635470

>  <PUBCHEM_SHAPE_MULTIPOLES>  (1) 
349.71
17.32
1.62
1.04
20.29
0.61
-0.07
-5.13
-8.05
-1
-0.12
-0.21
0.03
0.1

>  <PUBCHEM_SHAPE_SELFOVERLAP>  (1) 
696.022

>  <PUBCHEM_SHAPE_VOLUME>  (1) 
209.8

>  <PUBCHEM_COORDINATE_TYPE>  (1) 
2
5
10

$$$$
