46635
     RDKit          3D

 13 12  0  0  0  0  0  0  0  0999 V2000
   -2.3963    0.1461    0.6442 O   0  0  0  0  0  0  0  0  0  0  0  0
    2.2374   -0.2209    0.1009 O   0  0  0  0  0  0  0  0  0  0  0  0
    1.3627    1.7339   -0.7321 O   0  0  0  0  0  0  0  0  0  0  0  0
   -0.2680   -2.6210   -0.0779 N   0  0  0  0  0  0  0  0  0  0  0  0
   -1.1657    0.7186    0.3653 C   0  0  0  0  0  0  0  0  0  0  0  0
   -3.1642    0.0220   -0.5344 C   0  0  0  0  0  0  0  0  0  0  0  0
   -0.0946   -0.0389    0.0430 C   0  0  0  0  0  0  0  0  0  0  0  0
   -1.1703    2.2214    0.4625 C   0  0  0  0  0  0  0  0  0  0  0  0
    3.5616    0.2752   -0.1234 C   0  0  0  0  0  0  0  0  0  0  0  0
   -4.4923   -0.6193   -0.1925 C   0  0  0  0  0  0  0  0  0  0  0  0
    1.2223    0.6188   -0.2515 C   0  0  0  0  0  0  0  0  0  0  0  0
    4.5618   -0.7718    0.3184 C   0  0  0  0  0  0  0  0  0  0  0  0
   -0.1945   -1.4639   -0.0226 C   0  0  0  0  0  0  0  0  0  0  0  0
  1  5  1  0
  1  6  1  0
  2  9  1  0
  2 11  1  0
  3 11  2  0
  4 13  3  0
  5  7  2  0
  5  8  1  0
  6 10  1  0
  7 11  1  0
  7 13  1  0
  9 12  1  0
M  END
>  <PUBCHEM_COMPOUND_CID>  (1) 
46635

>  <PUBCHEM_CONFORMER_RMSD>  (1) 
0.6

>  <PUBCHEM_CONFORMER_DIVERSEORDER>  (1) 
6
30
11
48
27
3
46
12
58
31
47
41
57
26
33
51
23
38
53
55
35
37
28
29
44
4
59
20
56
49
52
2
8
50
36
14
54
1
17
32
7
9
22
19
13
42
18
40
10
5
34
25
21
43
45
24
39
15
16

>  <PUBCHEM_MMFF94_PARTIAL_CHARGES>  (1) 
11
1 -0.36
11 0.71
13 0.49
2 -0.43
3 -0.57
4 -0.56
5 -0.06
6 0.28
7 0.08
8 0.14
9 0.28

>  <PUBCHEM_EFFECTIVE_ROTOR_COUNT>  (1) 
5

>  <PUBCHEM_PHARMACOPHORE_FEATURES>  (1) 
3
1 1 acceptor
1 3 acceptor
1 4 acceptor

>  <PUBCHEM_HEAVY_ATOM_COUNT>  (1) 
13

>  <PUBCHEM_ATOM_DEF_STEREO_COUNT>  (1) 
0

>  <PUBCHEM_ATOM_UDEF_STEREO_COUNT>  (1) 
0

>  <PUBCHEM_BOND_DEF_STEREO_COUNT>  (1) 
0

>  <PUBCHEM_BOND_UDEF_STEREO_COUNT>  (1) 
1

>  <PUBCHEM_ISOTOPIC_ATOM_COUNT>  (1) 
0

>  <PUBCHEM_COMPONENT_COUNT>  (1) 
1

>  <PUBCHEM_CACTVS_TAUTO_COUNT>  (1) 
1

>  <PUBCHEM_CONFORMER_ID>  (1) 
0000B62B00000006

>  <PUBCHEM_MMFF94_ENERGY>  (1) 
23.926

>  <PUBCHEM_FEATURE_SELFOVERLAP>  (1) 
15.223

>  <PUBCHEM_SHAPE_FINGERPRINT>  (1) 
11401426 45 18341888589308102989
12251169 10 18411412926294654072
12715332 25 18200875192328059367
13380535 76 18342460344003003750
13690532 89 18408039611034180206
13862211 1 18411412916961382015
14325111 11 18340489959014926632
14993402 34 18334016090369169844
15048467 5 13623531246946461214
16945 1 18337971033372520070
17862501 102 18341609304437737258
19021347 11 18336826394624059531
193761 8 17834960767598310489
200 152 18410851058055858261
20510252 161 18201720605147954096
20645476 183 17679041510381161894
23402539 116 18272643545744994509
23559900 14 18200871889946192400
2748010 2 17980489175855176734
366044 4 18410291419306249642
43471831 8 18265332811517930914
69090 78 18273209815993212350

>  <PUBCHEM_SHAPE_MULTIPOLES>  (1) 
244.94
7.06
1.97
0.72
1.85
0.23
0.01
1.58
0.1
-0.31
-0.04
-0.08
-0.11
-0.4

>  <PUBCHEM_SHAPE_SELFOVERLAP>  (1) 
471.534

>  <PUBCHEM_SHAPE_VOLUME>  (1) 
148.1

>  <PUBCHEM_COORDINATE_TYPE>  (1) 
2
5
10

$$$$
