46631
     RDKit          3D

 10  9  0  0  0  0  0  0  0  0999 V2000
    3.7836   -0.2342   -0.0106 Cl  0  0  0  0  0  0  0  0  0  0  0  0
   -0.0107    0.3870   -0.6805 O   0  0  0  0  0  0  0  0  0  0  0  0
   -1.6421   -0.8523    0.6218 O   0  0  0  0  0  0  0  0  0  0  0  0
    1.1520   -0.1810    1.2307 O   0  0  0  0  0  0  0  0  0  0  0  0
   -1.3096    0.3820   -0.0294 C   0  0  0  0  0  0  0  0  0  0  0  0
   -2.3406    0.7437   -1.1057 C   0  0  0  0  0  0  0  0  0  0  0  0
   -1.3315    1.4764    1.0451 C   0  0  0  0  0  0  0  0  0  0  0  0
    1.1136    0.0964    0.0408 C   0  0  0  0  0  0  0  0  0  0  0  0
   -1.7120   -1.9893   -0.2271 C   0  0  0  0  0  0  0  0  0  0  0  0
    2.2974    0.1713   -0.8850 C   0  0  0  0  0  0  0  0  0  0  0  0
  1 10  1  0
  2  5  1  0
  2  8  1  0
  3  5  1  0
  3  9  1  0
  4  8  2  0
  5  6  1  0
  5  7  1  0
  8 10  1  0
M  END
>  <PUBCHEM_COMPOUND_CID>  (1) 
46631

>  <PUBCHEM_CONFORMER_RMSD>  (1) 
0.6

>  <PUBCHEM_CONFORMER_DIVERSEORDER>  (1) 
1
42
24
40
20
14
7
23
34
5
21
13
29
18
2
44
6
26
25
19
4
11
31
38
41
22
3
10
39
27
43
35
33
15
8
36
16
30
9
17
28
12
37
32

>  <PUBCHEM_MMFF94_PARTIAL_CHARGES>  (1) 
8
1 -0.29
10 0.35
2 -0.43
3 -0.56
4 -0.57
5 0.56
8 0.66
9 0.28

>  <PUBCHEM_EFFECTIVE_ROTOR_COUNT>  (1) 
4

>  <PUBCHEM_PHARMACOPHORE_FEATURES>  (1) 
3
1 3 acceptor
1 4 acceptor
3 5 6 7 hydrophobe

>  <PUBCHEM_HEAVY_ATOM_COUNT>  (1) 
10

>  <PUBCHEM_ATOM_DEF_STEREO_COUNT>  (1) 
0

>  <PUBCHEM_ATOM_UDEF_STEREO_COUNT>  (1) 
0

>  <PUBCHEM_BOND_DEF_STEREO_COUNT>  (1) 
0

>  <PUBCHEM_BOND_UDEF_STEREO_COUNT>  (1) 
0

>  <PUBCHEM_ISOTOPIC_ATOM_COUNT>  (1) 
0

>  <PUBCHEM_COMPONENT_COUNT>  (1) 
1

>  <PUBCHEM_CACTVS_TAUTO_COUNT>  (1) 
1

>  <PUBCHEM_CONFORMER_ID>  (1) 
0000B62700000001

>  <PUBCHEM_MMFF94_ENERGY>  (1) 
20.2371

>  <PUBCHEM_FEATURE_SELFOVERLAP>  (1) 
15.225

>  <PUBCHEM_SHAPE_FINGERPRINT>  (1) 
12716758 59 18410851057918565336
12932741 1 18200863071708316616
12932764 1 17967823742975912292
13024252 1 15140686881912593949
14128692 85 18117000102747929990
14325111 11 16732709350488699332
15310529 11 17022899025948170609
20653085 51 17458347424621218037
21061003 4 16343714256847397634
23235685 24 18341050714171513877
23402539 116 18201147763763420181
29004967 10 16845303739045373358
3248919 1 18272656723184680508
369184 2 17603311461538375060
5084963 1 17968103074505472820

>  <PUBCHEM_SHAPE_MULTIPOLES>  (1) 
190.06
4.59
1.42
1.11
4.66
0.53
0.01
0.34
0.61
-1.3
-0.23
-0.2
-0.2
0.01

>  <PUBCHEM_SHAPE_SELFOVERLAP>  (1) 
346.967

>  <PUBCHEM_SHAPE_VOLUME>  (1) 
122

>  <PUBCHEM_COORDINATE_TYPE>  (1) 
2
5
10

$$$$
