46636
     RDKit          3D

 20 21  0  0  1  0  0  0  0  0999 V2000
    0.5572    1.5250   -0.3167 O   0  0  0  0  0  0  0  0  0  0  0  0
    1.4746    0.6690    1.6197 O   0  0  0  0  0  0  0  0  0  0  0  0
   -3.4631    0.2689    0.0083 N   0  0  0  0  0  0  0  0  0  0  0  0
    3.9833    0.3917    0.2229 C   0  0  0  0  0  0  0  0  0  0  0  0
   -4.7351    0.0668    0.7282 C   0  0  0  0  0  0  0  0  0  0  0  0
    3.5378   -1.0541   -0.0348 C   0  0  0  0  0  0  0  0  0  0  0  0
    5.3096    0.6899   -0.4893 C   0  0  0  0  0  0  0  0  0  0  0  0
   -4.8820   -1.4181    1.1126 C   0  0  0  0  0  0  0  0  0  0  0  0
   -3.3319   -0.5685   -1.1893 C   0  0  0  0  0  0  0  0  0  0  0  0
    4.6249   -2.0557    0.3480 C   0  0  0  0  0  0  0  0  0  0  0  0
    6.3938   -0.3147   -0.1058 C   0  0  0  0  0  0  0  0  0  0  0  0
   -4.7478   -2.3487   -0.0891 C   0  0  0  0  0  0  0  0  0  0  0  0
   -3.4597   -2.0529   -0.8470 C   0  0  0  0  0  0  0  0  0  0  0  0
    5.9440   -1.7510   -0.3551 C   0  0  0  0  0  0  0  0  0  0  0  0
   -3.1946    1.6708   -0.2995 C   0  0  0  0  0  0  0  0  0  0  0  0
    2.9015    1.3762   -0.2171 C   0  0  0  0  0  0  0  0  0  0  0  0
   -5.9888    0.5726   -0.0023 C   0  0  0  0  0  0  0  0  0  0  0  0
   -1.7662    1.8370   -0.8080 C   0  0  0  0  0  0  0  0  0  0  0  0
    1.5909    1.1367    0.4954 C   0  0  0  0  0  0  0  0  0  0  0  0
   -0.7485    1.3590    0.2189 C   0  0  0  0  0  0  0  0  0  0  0  0
  1 19  1  0
  1 20  1  0
  2 19  2  0
  3  5  1  0
  3  9  1  0
  3 15  1  0
  4  6  1  0
  4  7  1  0
  4 16  1  0
  5  8  1  0
  5 17  1  0
  6 10  1  0
  7 11  1  0
  8 12  1  0
  9 13  1  0
 10 14  1  0
 11 14  1  0
 12 13  1  0
 15 18  1  0
 16 19  1  0
 18 20  1  0
M  END
>  <PUBCHEM_COMPOUND_CID>  (1) 
46636

>  <PUBCHEM_CONFORMER_RMSD>  (1) 
1.2

>  <PUBCHEM_CONFORMER_DIVERSEORDER>  (1) 
7
80
31
60
78
40
26
66
100
5
51
17
6
74
32
104
10
43
27
108
89
20
95
1
49
19
107
13
101
47
67
85
44
45
24
33
30
16
110
90
3
103
56
29
65
11
73
77
69
82
54
106
23
55
99
39
15
75
8
70
25
87
9
112
14
62
92
58
52
68
57
91
2
35
37
109
12
61
64
50
98
53
111
79
18
38
96
34
88
83
28
48
46
97
41
59
4
63
72
22
93
94
36
102
21
81
71
86
76
42
84
105

>  <PUBCHEM_MMFF94_PARTIAL_CHARGES>  (1) 
9
1 -0.43
15 0.27
16 0.06
19 0.66
2 -0.57
20 0.28
3 -0.81
5 0.27
9 0.27

>  <PUBCHEM_EFFECTIVE_ROTOR_COUNT>  (1) 
9.4

>  <PUBCHEM_PHARMACOPHORE_FEATURES>  (1) 
4
1 2 acceptor
1 3 cation
6 3 5 8 9 12 13 rings
6 4 6 7 10 11 14 rings

>  <PUBCHEM_HEAVY_ATOM_COUNT>  (1) 
20

>  <PUBCHEM_ATOM_DEF_STEREO_COUNT>  (1) 
0

>  <PUBCHEM_ATOM_UDEF_STEREO_COUNT>  (1) 
1

>  <PUBCHEM_BOND_DEF_STEREO_COUNT>  (1) 
0

>  <PUBCHEM_BOND_UDEF_STEREO_COUNT>  (1) 
0

>  <PUBCHEM_ISOTOPIC_ATOM_COUNT>  (1) 
0

>  <PUBCHEM_COMPONENT_COUNT>  (1) 
1

>  <PUBCHEM_CACTVS_TAUTO_COUNT>  (1) 
1

>  <PUBCHEM_CONFORMER_ID>  (1) 
0000B62C00000007

>  <PUBCHEM_MMFF94_ENERGY>  (1) 
15.8094

>  <PUBCHEM_FEATURE_SELFOVERLAP>  (1) 
20.297

>  <PUBCHEM_SHAPE_FINGERPRINT>  (1) 
11089746 13 10015584987079882072
11128504 68 17240489130179644180
11524674 6 17418091006026328703
11796584 16 18269835316281562068
12507557 5 12031784786481244593
12596602 18 16486968544177074082
12633257 1 16845293899127566541
12760667 363 18272366460752510837
13103583 49 17489599986447788411
13167823 11 18409166593457488756
13402501 40 18411703183604369743
13551218 46 18413392042602934751
13941219 33 18341336617549442721
14123255 352 9295289443302626088
14216079 64 18339922718927721175
14251751 18 18412265034319943830
14251764 30 18261961872418734107
14420673 8 18412831257244484727
14617045 38 18412267211726178431
14950920 106 17059497473322960163
15183329 4 18408603656357554834
15188451 53 15553865798421451133
15537594 2 18410293605523692014
16110190 28 18343586269362736367
17780758 139 17989209235419685625
17844677 252 18342179955595295512
17857418 61 18413106160504111406
20281389 69 10375870771051735084
20621476 21 18130518427104198366
21054139 6 18040432184066069170
21150785 3 17458355143668920580
21315763 191 18410017636737097109
21403212 168 18201167551595404073
21623969 137 17917714578513574142
22950370 63 18411140259446820684
23035841 295 18259704488857166657
23424784 1240 18271536295087993278
235170 7 16081359739645821902
23522609 53 18123785090277742936
23559900 14 18341042021300703529
2838139 119 7853571288476122914
3004659 81 18187363237972748264
33382 64 18341617001541163416
3472631 163 7925098944254500603
34797466 226 12396586199867425280
351380 3 18409729564653534010
4325135 7 18333735711020758420
439807 62 18261111850608047482
441001 317 9079118860460154229
465052 167 18273501161226470380
5104073 3 17846499291781062681
559249 180 18413669124244475751
59682541 35 18200580446914741338
6431902 208 18408602590957855870
6437827 68 18411702080056185598
7495541 125 18272087219243443504
7970288 3 18193275411028032599
8863177 126 18272086132336675026
9981440 41 10592046886271826405
999808 66 18114195150561024331

>  <PUBCHEM_SHAPE_MULTIPOLES>  (1) 
394.87
17.16
2.41
0.99
8
0.83
-0.1
7.74
0.04
-0.85
0.24
-0.58
0.06
0.11

>  <PUBCHEM_SHAPE_SELFOVERLAP>  (1) 
779.458

>  <PUBCHEM_SHAPE_VOLUME>  (1) 
234

>  <PUBCHEM_COORDINATE_TYPE>  (1) 
2
5
10

$$$$
