46648
     RDKit          3D

 19 20  0  0  0  0  0  0  0  0999 V2000
    1.0973   -0.8150   -0.5146 O   0  0  0  0  0  0  0  0  0  0  0  0
    2.5466    0.7966    0.3904 N   0  0  0  0  0  0  0  0  0  0  0  0
   -2.0575    1.2875    0.4192 N   0  0  0  0  0  0  0  0  0  0  0  0
   -1.0829    0.5733    0.0936 N   0  0  0  0  0  0  0  0  0  0  0  0
   -5.0923   -0.8160    0.5351 C   0  0  0  0  0  0  0  0  0  0  0  0
    3.8270    0.2373    0.1651 C   0  0  0  0  0  0  0  0  0  0  0  0
   -3.2522    0.6685    0.0373 C   0  0  0  0  0  0  0  0  0  0  0  0
   -3.9007   -0.1990    0.9163 C   0  0  0  0  0  0  0  0  0  0  0  0
   -5.6354   -0.5652   -0.7250 C   0  0  0  0  0  0  0  0  0  0  0  0
   -3.7955    0.9191   -1.2229 C   0  0  0  0  0  0  0  0  0  0  0  0
   -4.9871    0.3022   -1.6039 C   0  0  0  0  0  0  0  0  0  0  0  0
    4.9517    0.9313    0.5794 C   0  0  0  0  0  0  0  0  0  0  0  0
    3.9282   -0.9924   -0.4641 C   0  0  0  0  0  0  0  0  0  0  0  0
    0.1915    1.1823    0.4727 C   0  0  0  0  0  0  0  0  0  0  0  0
   -5.7864   -1.7432    1.4746 C   0  0  0  0  0  0  0  0  0  0  0  0
    1.3107    0.2535    0.0487 C   0  0  0  0  0  0  0  0  0  0  0  0
    6.2137    0.3801    0.3580 C   0  0  0  0  0  0  0  0  0  0  0  0
    5.1902   -1.5436   -0.6855 C   0  0  0  0  0  0  0  0  0  0  0  0
    6.3330   -0.8573   -0.2744 C   0  0  0  0  0  0  0  0  0  0  0  0
  1 16  2  0
  2  6  1  0
  2 16  1  0
  3  4  2  0
  3  7  1  0
  4 14  1  0
  5  8  2  0
  5  9  1  0
  5 15  1  0
  6 12  2  0
  6 13  1  0
  7  8  1  0
  7 10  2  0
  9 11  2  0
 10 11  1  0
 12 17  1  0
 13 18  2  0
 14 16  1  0
 17 19  2  0
 18 19  1  0
M  END
>  <PUBCHEM_COMPOUND_CID>  (1) 
46648

>  <PUBCHEM_CONFORMER_RMSD>  (1) 
0.6

>  <PUBCHEM_CONFORMER_DIVERSEORDER>  (1) 
1
34
33
24
11
44
40
16
7
2
36
31
17
22
18
8
25
15
39
32
38
42
5
35
21
12
37
10
45
14
13
23
9
6
43
20
41
26
28
3
29
19
30
4
27

>  <PUBCHEM_MMFF94_PARTIAL_CHARGES>  (1) 
29
1 -0.57
10 -0.15
11 -0.15
12 -0.15
13 -0.15
14 0.31
15 0.14
16 0.57
17 -0.15
18 -0.15
19 -0.15
2 -0.55
20 0.15
21 0.15
22 0.37
23 0.15
24 0.15
25 0.15
26 0.15
3 -0.18
32 0.15
33 0.15
34 0.15
4 -0.25
5 -0.14
6 0.12
7 0.18
8 -0.15
9 -0.15

>  <PUBCHEM_EFFECTIVE_ROTOR_COUNT>  (1) 
5

>  <PUBCHEM_PHARMACOPHORE_FEATURES>  (1) 
4
1 1 acceptor
1 2 donor
6 5 7 8 9 10 11 rings
6 6 12 13 17 18 19 rings

>  <PUBCHEM_HEAVY_ATOM_COUNT>  (1) 
19

>  <PUBCHEM_ATOM_DEF_STEREO_COUNT>  (1) 
0

>  <PUBCHEM_ATOM_UDEF_STEREO_COUNT>  (1) 
0

>  <PUBCHEM_BOND_DEF_STEREO_COUNT>  (1) 
0

>  <PUBCHEM_BOND_UDEF_STEREO_COUNT>  (1) 
0

>  <PUBCHEM_ISOTOPIC_ATOM_COUNT>  (1) 
0

>  <PUBCHEM_COMPONENT_COUNT>  (1) 
1

>  <PUBCHEM_CACTVS_TAUTO_COUNT>  (1) 
2

>  <PUBCHEM_CONFORMER_ID>  (1) 
0000B63800000001

>  <PUBCHEM_MMFF94_ENERGY>  (1) 
51.1306

>  <PUBCHEM_FEATURE_SELFOVERLAP>  (1) 
20.297

>  <PUBCHEM_SHAPE_FINGERPRINT>  (1) 
10912923 1 16128369402214450184
11089746 13 14851606591994382580
11315181 36 17967816054873942413
12091667 2 17988923362233030593
12236239 1 16630526241160522824
12596602 18 14692566628593384054
12616971 3 17132116870220534793
13073987 5 18060139791669235072
13288520 33 17967252018720705737
13533116 47 17346883321892670102
13668630 136 18335424568722117251
13685833 64 18413393150487888075
13862211 1 18131066009590326206
13885169 127 18412826868447161321
1420 363 18412829087942738578
14251718 22 17894914035710294400
14528608 73 15864074286435300828
14848160 23 18334012787412770466
14849402 71 15697421365195995746
15183329 4 12829204473228048890
15348495 7 11599707502832346326
15716309 27 17561083600792521383
17780758 139 16128373796825759119
17844677 252 18131071523885859360
17870717 6 17894631448875156691
18222031 100 17749111084733560908
18643901 69 17822013151542613371
19489759 90 17167579380254464485
200 152 18060416906911359097
20281389 69 9367344829632561335
20645477 70 18130508531710336670
21054139 6 17022901284979896538
21150785 3 16732710475548656198
21267235 1 17917718964307977878
21307412 95 17605834949359983187
21623969 137 18202289103940710710
220451 1 17167860829287382857
2297311 6 17748827423897934853
2303208 19 18408328778281610726
23081809 10 16486970721746533472
23198884 109 14851605488303799419
23402539 116 18130787832726837065
23522609 53 16701194129689496113
23536379 177 13686302378740027500
23559900 14 18114175380610548617
2767999 5 13045943512362023892
300161 21 11746940906101066712
314194 84 17917708006870570054
328310 630 12468650403818239558
34797466 226 17676780837344222140
351380 3 17489864938347726996
3663271 9 15482667987736948702
465052 167 18202005409093246254
474229 33 18343864420092976998
5104073 3 17988081067912308584

>  <PUBCHEM_SHAPE_MULTIPOLES>  (1) 
370.2
18.84
1.41
1.14
6.19
0.33
0.15
5.94
0.69
-0.4
-0.15
-1.5
0.11
2.03

>  <PUBCHEM_SHAPE_SELFOVERLAP>  (1) 
783.161

>  <PUBCHEM_SHAPE_VOLUME>  (1) 
207

>  <PUBCHEM_COORDINATE_TYPE>  (1) 
2
5
10

$$$$
