46646
     RDKit          3D

 14 14  0  0  0  0  0  0  0  0999 V2000
   -5.4157   -0.2274   -0.2305 F   0  0  0  0  0  0  0  0  0  0  0  0
    3.4233   -0.5053    0.3641 O   0  0  0  0  0  0  0  0  0  0  0  0
   -3.0301   -1.3403   -0.0433 O   0  0  0  0  0  0  0  0  0  0  0  0
   -1.9629    0.7614   -0.0121 N   0  0  0  0  0  0  0  0  0  0  0  0
   -0.6079    0.4431    0.0830 C   0  0  0  0  0  0  0  0  0  0  0  0
    2.1016   -0.1944    0.2705 C   0  0  0  0  0  0  0  0  0  0  0  0
    0.3462    1.4596    0.1274 C   0  0  0  0  0  0  0  0  0  0  0  0
   -0.2074   -0.8921    0.1323 C   0  0  0  0  0  0  0  0  0  0  0  0
    1.7008    1.1409    0.2211 C   0  0  0  0  0  0  0  0  0  0  0  0
    1.1474   -1.2110    0.2261 C   0  0  0  0  0  0  0  0  0  0  0  0
    4.3483    0.4066   -0.2263 C   0  0  0  0  0  0  0  0  0  0  0  0
   -3.0557   -0.1142   -0.0676 C   0  0  0  0  0  0  0  0  0  0  0  0
    5.5749   -0.3579   -0.6769 C   0  0  0  0  0  0  0  0  0  0  0  0
   -4.3627    0.6312   -0.1677 C   0  0  0  0  0  0  0  0  0  0  0  0
  1 14  1  0
  2  6  1  0
  2 11  1  0
  3 12  2  0
  4  5  1  0
  4 12  1  0
  5  7  2  0
  5  8  1  0
  6  9  2  0
  6 10  1  0
  7  9  1  0
  8 10  2  0
 11 13  1  0
 12 14  1  0
M  END
>  <PUBCHEM_COMPOUND_CID>  (1) 
46646

>  <PUBCHEM_CONFORMER_RMSD>  (1) 
0.6

>  <PUBCHEM_CONFORMER_DIVERSEORDER>  (1) 
1
14
2
15
10
16
6
11
12
5
18
19
9
17
4
3
13
7
8

>  <PUBCHEM_MMFF94_PARTIAL_CHARGES>  (1) 
18
1 -0.34
10 -0.15
11 0.28
12 0.57
14 0.4
15 0.15
16 0.15
17 0.15
18 0.15
19 0.37
2 -0.36
3 -0.57
4 -0.55
5 0.12
6 0.08
7 -0.15
8 -0.15
9 -0.15

>  <PUBCHEM_EFFECTIVE_ROTOR_COUNT>  (1) 
5

>  <PUBCHEM_PHARMACOPHORE_FEATURES>  (1) 
4
1 2 acceptor
1 3 acceptor
1 4 donor
6 5 6 7 8 9 10 rings

>  <PUBCHEM_HEAVY_ATOM_COUNT>  (1) 
14

>  <PUBCHEM_ATOM_DEF_STEREO_COUNT>  (1) 
0

>  <PUBCHEM_ATOM_UDEF_STEREO_COUNT>  (1) 
0

>  <PUBCHEM_BOND_DEF_STEREO_COUNT>  (1) 
0

>  <PUBCHEM_BOND_UDEF_STEREO_COUNT>  (1) 
0

>  <PUBCHEM_ISOTOPIC_ATOM_COUNT>  (1) 
0

>  <PUBCHEM_COMPONENT_COUNT>  (1) 
1

>  <PUBCHEM_CACTVS_TAUTO_COUNT>  (1) 
2

>  <PUBCHEM_CONFORMER_ID>  (1) 
0000B63600000001

>  <PUBCHEM_MMFF94_ENERGY>  (1) 
39.0285

>  <PUBCHEM_FEATURE_SELFOVERLAP>  (1) 
20.297

>  <PUBCHEM_SHAPE_FINGERPRINT>  (1) 
11062470 55 16732983115460958889
11287383 113 15864362366855525752
11401426 45 18410853274248329528
11471102 20 18410288116449700361
12032990 46 18342179985733016530
12670543 26 18338519629909196468
12714333 28 16805326604556211940
13690532 89 18411138022290748072
13760787 19 17458343056839977194
13862211 1 18411695474528119274
14123238 8 13045945706879308857
14911166 2 18409732867747037772
14993402 34 18410013238885524312
15048467 5 17095525097604569692
15242433 33 18334294253609921858
17834072 33 18201717396395712629
17834076 25 16587744235365744066
18186145 218 18261944241044882940
200 152 17989486320744458721
20645477 70 18337669698694548670
21267235 1 18412269458547760659
221490 88 18191872446853781299
23402539 116 18343578551680921974
23402655 69 18338507548456576885
23557571 272 17822010857085487860
23559900 14 18342457084707998720
26918003 58 11527943474520772525
366044 4 18408041814521435650
42 15 11600004353507120132
42788 4 18409449184877659564
4463277 17 18411702079892453872
4990 188 18202570562085172652
68521 5 18341333292812953560
8809292 202 18260268598604823323

>  <PUBCHEM_SHAPE_MULTIPOLES>  (1) 
264.12
10.25
1.26
0.66
0.26
0.04
0.02
-0.79
2.2
0.09
-0.06
-0.25
0
0.04

>  <PUBCHEM_SHAPE_SELFOVERLAP>  (1) 
538.239

>  <PUBCHEM_SHAPE_VOLUME>  (1) 
152.8

>  <PUBCHEM_COORDINATE_TYPE>  (1) 
2
5
10

$$$$
