46644
     RDKit          3D

 22 23  0  0  0  0  0  0  0  0999 V2000
    1.2756    0.3538    0.8803 O   0  0  0  0  0  0  0  0  0  0  0  0
   -3.3329   -0.5415    0.7220 O   0  0  0  0  0  0  0  0  0  0  0  0
    3.9088    0.6080    0.0963 N   0  0  0  0  0  0  0  0  0  0  0  0
    1.2359   -1.7869   -0.0828 N   0  0  0  0  0  0  0  0  0  0  0  0
    3.3475   -0.7293    0.2843 C   0  0  0  0  0  0  0  0  0  0  0  0
    3.3698    1.2228   -1.1160 C   0  0  0  0  0  0  0  0  0  0  0  0
    5.3685    0.5452    0.0322 C   0  0  0  0  0  0  0  0  0  0  0  0
    1.8370   -0.6303    0.4096 C   0  0  0  0  0  0  0  0  0  0  0  0
    3.9425    2.6141   -1.3273 C   0  0  0  0  0  0  0  0  0  0  0  0
    5.9498   -0.0352    1.3103 C   0  0  0  0  0  0  0  0  0  0  0  0
   -0.1467   -2.0828   -0.1433 C   0  0  0  0  0  0  0  0  0  0  0  0
   -1.0599   -1.1531    0.3258 C   0  0  0  0  0  0  0  0  0  0  0  0
   -0.5571   -3.2956   -0.6714 C   0  0  0  0  0  0  0  0  0  0  0  0
   -2.4226   -1.4446    0.2652 C   0  0  0  0  0  0  0  0  0  0  0  0
   -1.9199   -3.5871   -0.7319 C   0  0  0  0  0  0  0  0  0  0  0  0
   -2.8526   -2.6617   -0.2636 C   0  0  0  0  0  0  0  0  0  0  0  0
   -3.1612    0.7841    0.3606 C   0  0  0  0  0  0  0  0  0  0  0  0
   -2.8539    1.0902   -0.9529 C   0  0  0  0  0  0  0  0  0  0  0  0
   -3.3013    1.7683    1.3224 C   0  0  0  0  0  0  0  0  0  0  0  0
   -2.6810    2.4255   -1.3169 C   0  0  0  0  0  0  0  0  0  0  0  0
   -3.1283    3.1037    0.9583 C   0  0  0  0  0  0  0  0  0  0  0  0
   -2.8182    3.4324   -0.3614 C   0  0  0  0  0  0  0  0  0  0  0  0
  1  8  2  0
  2 14  1  0
  2 17  1  0
  3  5  1  0
  3  6  1  0
  3  7  1  0
  4  8  1  0
  4 11  1  0
  5  8  1  0
  6  9  1  0
  7 10  1  0
 11 12  2  0
 11 13  1  0
 12 14  1  0
 13 15  2  0
 14 16  2  0
 15 16  1  0
 17 18  2  0
 17 19  1  0
 18 20  1  0
 19 21  2  0
 20 22  2  0
 21 22  1  0
M  END
>  <PUBCHEM_COMPOUND_CID>  (1) 
46644

>  <PUBCHEM_CONFORMER_RMSD>  (1) 
0.8

>  <PUBCHEM_CONFORMER_DIVERSEORDER>  (1) 
1
78
51
61
88
23
52
9
58
106
47
94
92
100
54
109
32
8
71
41
76
96
86
34
5
50
19
82
16
64
105
29
99
110
48
30
65
104
102
2
75
24
84
42
6
25
91
72
74
56
69
101
46
80
37
79
38
107
27
63
81
66
89
112
85
97
40
103
70
98
22
60
55
18
35
111
10
36
68
73
93
3
108
77
90
7
12
53
59
49
14
57
21
83
62
28
20
44
31
26
11
67
87
17
45
15
13
33
95
39
43
4

>  <PUBCHEM_MMFF94_PARTIAL_CHARGES>  (1) 
30
1 -0.57
11 0.12
12 -0.15
13 -0.15
14 0.08
15 -0.15
16 -0.15
17 0.08
18 -0.15
19 -0.15
2 -0.17
20 -0.15
21 -0.15
22 -0.15
3 -0.81
35 0.37
36 0.15
37 0.15
38 0.15
39 0.15
4 -0.55
40 0.15
41 0.15
42 0.15
43 0.15
44 0.15
5 0.33
6 0.27
7 0.27
8 0.57

>  <PUBCHEM_EFFECTIVE_ROTOR_COUNT>  (1) 
8

>  <PUBCHEM_PHARMACOPHORE_FEATURES>  (1) 
6
1 1 acceptor
1 2 acceptor
1 3 cation
1 4 donor
6 11 12 13 14 15 16 rings
6 17 18 19 20 21 22 rings

>  <PUBCHEM_HEAVY_ATOM_COUNT>  (1) 
22

>  <PUBCHEM_ATOM_DEF_STEREO_COUNT>  (1) 
0

>  <PUBCHEM_ATOM_UDEF_STEREO_COUNT>  (1) 
0

>  <PUBCHEM_BOND_DEF_STEREO_COUNT>  (1) 
0

>  <PUBCHEM_BOND_UDEF_STEREO_COUNT>  (1) 
0

>  <PUBCHEM_ISOTOPIC_ATOM_COUNT>  (1) 
0

>  <PUBCHEM_COMPONENT_COUNT>  (1) 
1

>  <PUBCHEM_CACTVS_TAUTO_COUNT>  (1) 
2

>  <PUBCHEM_CONFORMER_ID>  (1) 
0000B63400000001

>  <PUBCHEM_MMFF94_ENERGY>  (1) 
68.9312

>  <PUBCHEM_FEATURE_SELFOVERLAP>  (1) 
30.446

>  <PUBCHEM_SHAPE_FINGERPRINT>  (1) 
10087517 78 18122340440111057612
10165383 225 18201449043134734129
10670039 82 18264785405488588524
10871710 139 18119542169600112037
11045515 52 17903346349609469255
12107183 9 18192139405426919162
12173636 292 18342174470794782447
12422481 6 17971736793522431106
12978246 48 18335707126263058756
14251751 93 18335419071364068210
14466204 15 18336537262479932576
14508225 48 17840287145795669343
14713325 29 18410859888382531755
14910302 57 17774178905774331382
14950920 106 17167871888944299464
14957384 54 17895462618760935236
15021287 119 17530681005638291044
15342168 16 18196381312549172865
15463212 79 18335129908390922362
15961568 22 17621025899959822288
16988056 13 16824178512592603653
17818456 19 18339637846552121760
17834072 32 18264489486035928181
17974551 9 14855811991800136265
18785283 64 17762917471891626699
21033650 10 18265921188331352590
22907989 373 18339913926670223983
23559900 14 18059861624160642614
238 59 17251144269936818637
27216 239 18260838042706921793
474 4 17908134379182113537
6287921 2 18049742723575163125
6327066 14 18263918852512835997
7064713 232 18409731725265294172
7808743 9 18411982464073792856
9862522 239 18188481381020890060
9981440 41 18337952277699050355

>  <PUBCHEM_SHAPE_MULTIPOLES>  (1) 
431.05
10.18
4.58
1.21
16.12
0.62
0.04
-5.97
-1.65
-5.22
1.27
0.14
-0.66
-1.33

>  <PUBCHEM_SHAPE_SELFOVERLAP>  (1) 
902.046

>  <PUBCHEM_SHAPE_VOLUME>  (1) 
244.6

>  <PUBCHEM_COORDINATE_TYPE>  (1) 
2
5
10

$$$$
