4665
     RDKit          3D

 26 29  0  0  0  0  0  0  0  0999 V2000
    7.5884   -0.3999    0.0018 Cl  0  0  0  0  0  0  0  0  0  0  0  0
   -5.5658   -3.1384   -0.0223 F   0  0  0  0  0  0  0  0  0  0  0  0
    0.8428   -2.3597   -0.0517 O   0  0  0  0  0  0  0  0  0  0  0  0
    1.6568   -0.1317   -0.0048 N   0  0  0  0  0  0  0  0  0  0  0  0
    0.9894    1.0640    0.0698 N   0  0  0  0  0  0  0  0  0  0  0  0
   -3.0682    4.1428   -0.0382 N   0  0  0  0  0  0  0  0  0  0  0  0
   -0.6491   -0.4785    0.0270 C   0  0  0  0  0  0  0  0  0  0  0  0
   -0.3643    0.8382    0.0525 C   0  0  0  0  0  0  0  0  0  0  0  0
    0.7008   -1.1478   -0.0223 C   0  0  0  0  0  0  0  0  0  0  0  0
   -1.9336   -1.1745    0.0146 C   0  0  0  0  0  0  0  0  0  0  0  0
   -1.2931    1.9724    0.0212 C   0  0  0  0  0  0  0  0  0  0  0  0
    3.0674   -0.1955   -0.0037 C   0  0  0  0  0  0  0  0  0  0  0  0
   -2.5474   -1.4828   -1.1993 C   0  0  0  0  0  0  0  0  0  0  0  0
   -2.5465   -1.5299    1.2163 C   0  0  0  0  0  0  0  0  0  0  0  0
    3.7245   -1.4342   -0.0224 C   0  0  0  0  0  0  0  0  0  0  0  0
    3.8336    0.9791    0.0166 C   0  0  0  0  0  0  0  0  0  0  0  0
   -1.7954    2.5079    1.2075 C   0  0  0  0  0  0  0  0  0  0  0  0
   -1.6861    2.5315   -1.1951 C   0  0  0  0  0  0  0  0  0  0  0  0
   -3.7742   -2.1465   -1.2117 C   0  0  0  0  0  0  0  0  0  0  0  0
   -3.7733   -2.1937    1.2038 C   0  0  0  0  0  0  0  0  0  0  0  0
    5.1179   -1.4972   -0.0207 C   0  0  0  0  0  0  0  0  0  0  0  0
    5.2271    0.9161    0.0181 C   0  0  0  0  0  0  0  0  0  0  0  0
   -4.3872   -2.5020   -0.0102 C   0  0  0  0  0  0  0  0  0  0  0  0
    5.8693   -0.3220   -0.0006 C   0  0  0  0  0  0  0  0  0  0  0  0
   -2.6692    3.5799    1.1245 C   0  0  0  0  0  0  0  0  0  0  0  0
   -2.5649    3.6025   -1.1707 C   0  0  0  0  0  0  0  0  0  0  0  0
  1 24  1  0
  2 23  1  0
  3  9  2  0
  4  5  1  0
  4  9  1  0
  4 12  1  0
  5  8  1  0
  6 25  2  0
  6 26  1  0
  7  8  2  0
  7  9  1  0
  7 10  1  0
  8 11  1  0
 10 13  2  0
 10 14  1  0
 11 17  2  0
 11 18  1  0
 12 15  2  0
 12 16  1  0
 13 19  1  0
 14 20  2  0
 15 21  1  0
 16 22  2  0
 17 25  1  0
 18 26  2  0
 19 23  2  0
 20 23  1  0
 21 24  2  0
 22 24  1  0
M  END
>  <PUBCHEM_COMPOUND_CID>  (1) 
4665

>  <PUBCHEM_CONFORMER_RMSD>  (1) 
0.6

>  <PUBCHEM_CONFORMER_DIVERSEORDER>  (1) 
1
5
3
4
2

>  <PUBCHEM_MMFF94_PARTIAL_CHARGES>  (1) 
39
1 -0.18
10 0.03
11 0.03
12 0.12
13 -0.15
14 -0.15
15 -0.15
16 -0.15
17 -0.15
18 -0.15
19 -0.15
2 -0.19
20 -0.15
21 -0.15
22 -0.15
23 0.19
24 0.18
25 0.16
26 0.16
27 0.4
28 0.15
29 0.15
3 -0.57
30 0.15
31 0.15
32 0.15
33 0.15
34 0.15
35 0.15
36 0.15
37 0.15
38 0.15
39 0.15
4 -0.16
5 -0.52
6 -0.62
7 -0.01
8 0.07
9 0.62

>  <PUBCHEM_EFFECTIVE_ROTOR_COUNT>  (1) 
3

>  <PUBCHEM_PHARMACOPHORE_FEATURES>  (1) 
7
1 3 acceptor
1 5 donor
1 6 acceptor
5 4 5 7 8 9 rings
6 10 13 14 19 20 23 rings
6 12 15 16 21 22 24 rings
6 6 11 17 18 25 26 rings

>  <PUBCHEM_HEAVY_ATOM_COUNT>  (1) 
26

>  <PUBCHEM_ATOM_DEF_STEREO_COUNT>  (1) 
0

>  <PUBCHEM_ATOM_UDEF_STEREO_COUNT>  (1) 
0

>  <PUBCHEM_BOND_DEF_STEREO_COUNT>  (1) 
0

>  <PUBCHEM_BOND_UDEF_STEREO_COUNT>  (1) 
0

>  <PUBCHEM_ISOTOPIC_ATOM_COUNT>  (1) 
0

>  <PUBCHEM_COMPONENT_COUNT>  (1) 
1

>  <PUBCHEM_CACTVS_TAUTO_COUNT>  (1) 
3

>  <PUBCHEM_CONFORMER_ID>  (1) 
0000123900000001

>  <PUBCHEM_MMFF94_ENERGY>  (1) 
92.5789

>  <PUBCHEM_FEATURE_SELFOVERLAP>  (1) 
35.523

>  <PUBCHEM_SHAPE_FINGERPRINT>  (1) 
10050765 1 18266459811485066246
10411042 1 18266458887792466231
10670039 82 18263098729251210508
11045515 52 18265608961067042663
11101153 10 18262807401387764596
12107183 9 17830728756539987178
12236239 1 17702672201648756907
12516196 113 18266457792412619851
12760667 363 18410012182007558682
12788726 201 18335409184144099203
13004483 165 18340762758126128771
13073987 5 18409724050960206434
13134695 92 18051693540923581397
13149001 5 17480604654029846815
13540713 5 17970615308462543954
13631057 29 18409445903791774826
13911987 19 17899147275668245246
140371 6 18115318898388603022
14118638 360 18334579084164126052
14347332 77 18411135853343034102
14508225 48 18335976575505122093
14713325 29 18411699842335506783
14955137 171 18050290559554786051
15131766 46 15695440109198020808
16087824 20 18338516340998852413
17138139 8 17694455384278073637
17492 89 18340205190194776894
17844677 252 18411704305492368428
1813 80 18198922481130431711
19301676 85 17117207191943413102
19319366 153 16908636459051437689
19427546 20 18408323263670216532
20101258 96 18409174332725227976
21049683 271 17901108839109052333
21202864 24 18269567056967090521
21236236 1 18410856538576481192
21267235 1 18412549838677374886
21307412 95 17482286920359711814
21424621 283 11026335248284443415
21641784 216 18189068619088555220
21756936 100 17273703052619344896
22182313 1 17845948312075737638
23175994 123 18115869783942452711
23227448 37 18337391513736360756
23402539 116 18411138073292798615
23558518 356 18187937140161430762
25147074 1 18187663413532731644
2747138 104 18337115687100651978
283562 15 18407757040783144435
350125 39 18411985775768293752
4258327 124 17968393250975844724
4409770 3 18411975833171788997
497634 4 18113616781484800956
5104073 3 18337946793658621370
5171179 24 17916287515447669313
5969126 39 18341043094783493095
59755656 520 18123468285063079085
6009941 240 17458068166923545395
7164475 11 18408609183969798508

>  <PUBCHEM_SHAPE_MULTIPOLES>  (1) 
508.85
12.98
4.52
1.06
24.23
3.71
0
-6.02
-0.01
-9.23
-0.05
-1.24
0.22
0.02

>  <PUBCHEM_SHAPE_SELFOVERLAP>  (1) 
1122.478

>  <PUBCHEM_SHAPE_VOLUME>  (1) 
275

>  <PUBCHEM_COORDINATE_TYPE>  (1) 
2
5
10

$$$$
