46658
     RDKit          3D

 10  9  0  0  0  0  0  0  0  0999 V2000
    3.9009    0.2614   -0.0206 Br  0  0  0  0  0  0  0  0  0  0  0  0
   -0.0328   -0.3999    0.6839 O   0  0  0  0  0  0  0  0  0  0  0  0
   -1.6389    0.8678   -0.6223 O   0  0  0  0  0  0  0  0  0  0  0  0
    1.1491    0.1690   -1.2134 O   0  0  0  0  0  0  0  0  0  0  0  0
   -1.3261   -0.3751    0.0221 C   0  0  0  0  0  0  0  0  0  0  0  0
   -2.3703   -0.7331    1.0867 C   0  0  0  0  0  0  0  0  0  0  0  0
   -1.3506   -1.4609   -1.0610 C   0  0  0  0  0  0  0  0  0  0  0  0
    1.1020   -0.1166   -0.0260 C   0  0  0  0  0  0  0  0  0  0  0  0
   -1.7031    1.9990    0.2349 C   0  0  0  0  0  0  0  0  0  0  0  0
    2.2697   -0.2115    0.9156 C   0  0  0  0  0  0  0  0  0  0  0  0
  1 10  1  0
  2  5  1  0
  2  8  1  0
  3  5  1  0
  3  9  1  0
  4  8  2  0
  5  6  1  0
  5  7  1  0
  8 10  1  0
M  END
>  <PUBCHEM_COMPOUND_CID>  (1) 
46658

>  <PUBCHEM_CONFORMER_RMSD>  (1) 
0.6

>  <PUBCHEM_CONFORMER_DIVERSEORDER>  (1) 
1
48
7
46
33
25
13
44
10
43
31
39
36
4
50
30
17
42
37
3
51
14
9
28
49
26
8
40
24
27
6
5
22
15
34
23
2
16
29
18
32
41
12
21
47
19
35
38
11
20
45

>  <PUBCHEM_MMFF94_PARTIAL_CHARGES>  (1) 
8
1 -0.23
10 0.29
2 -0.43
3 -0.56
4 -0.57
5 0.56
8 0.66
9 0.28

>  <PUBCHEM_EFFECTIVE_ROTOR_COUNT>  (1) 
4

>  <PUBCHEM_PHARMACOPHORE_FEATURES>  (1) 
4
1 1 hydrophobe
1 3 acceptor
1 4 acceptor
3 5 6 7 hydrophobe

>  <PUBCHEM_HEAVY_ATOM_COUNT>  (1) 
10

>  <PUBCHEM_ATOM_DEF_STEREO_COUNT>  (1) 
0

>  <PUBCHEM_ATOM_UDEF_STEREO_COUNT>  (1) 
0

>  <PUBCHEM_BOND_DEF_STEREO_COUNT>  (1) 
0

>  <PUBCHEM_BOND_UDEF_STEREO_COUNT>  (1) 
0

>  <PUBCHEM_ISOTOPIC_ATOM_COUNT>  (1) 
0

>  <PUBCHEM_COMPONENT_COUNT>  (1) 
1

>  <PUBCHEM_CACTVS_TAUTO_COUNT>  (1) 
1

>  <PUBCHEM_CONFORMER_ID>  (1) 
0000B64200000001

>  <PUBCHEM_MMFF94_ENERGY>  (1) 
21.193

>  <PUBCHEM_FEATURE_SELFOVERLAP>  (1) 
20.299

>  <PUBCHEM_SHAPE_FINGERPRINT>  (1) 
12716758 59 18130500847407071946
12932741 1 17131818898548402474
12932764 1 18201715172124814858
13024252 1 17822005424025606827
13839132 238 18199469857384900212
15310529 11 18410013221600407066
19837323 101 18128821850238864289
20645464 45 17346326989597414278
20653085 51 18198627622734926504
21040471 1 18121504553074308453
21524375 3 17906158565055571089
23235687 12 17845940752606027456
23402539 116 18129928027703246317
29004967 10 14273738408967516904
3248919 1 17895181204472877586
369184 2 18272643558629961194

>  <PUBCHEM_SHAPE_MULTIPOLES>  (1) 
194.13
4.93
1.41
1.12
5.3
0.56
0.01
0.36
0.54
-1.28
-0.22
-0.18
-0.2
-0.01

>  <PUBCHEM_SHAPE_SELFOVERLAP>  (1) 
349.945

>  <PUBCHEM_SHAPE_VOLUME>  (1) 
128.2

>  <PUBCHEM_COORDINATE_TYPE>  (1) 
2
5
10

$$$$
