46657
     RDKit          3D

 25 27  0  0  1  0  0  0  0  0999 V2000
    3.0315   -0.7317    0.3386 O   0  0  0  0  0  0  0  0  0  0  0  0
    3.7651   -2.3627   -1.1129 O   0  0  0  0  0  0  0  0  0  0  0  0
    2.1261    2.2092   -1.0550 N   0  0  0  0  0  0  0  0  0  0  0  0
    2.4388    2.0827    0.3741 C   0  0  0  0  0  0  0  0  0  0  0  0
    2.3377    3.4441    1.0758 C   0  0  0  0  0  0  0  0  0  0  0  0
    0.9639    4.0744    0.8638 C   0  0  0  0  0  0  0  0  0  0  0  0
    0.6190    4.1191   -0.6207 C   0  0  0  0  0  0  0  0  0  0  0  0
    0.7818    2.7460   -1.2681 C   0  0  0  0  0  0  0  0  0  0  0  0
    3.8438    1.5033    0.5287 C   0  0  0  0  0  0  0  0  0  0  0  0
    3.9820    0.1782   -0.1976 C   0  0  0  0  0  0  0  0  0  0  0  0
    1.9392   -2.8349    0.4398 C   0  0  0  0  0  0  0  0  0  0  0  0
    3.0242   -1.9880   -0.2130 C   0  0  0  0  0  0  0  0  0  0  0  0
    0.5713   -2.1812    0.3306 C   0  0  0  0  0  0  0  0  0  0  0  0
    1.9486   -4.2576   -0.1266 C   0  0  0  0  0  0  0  0  0  0  0  0
   -0.0827   -1.8018    1.4859 C   0  0  0  0  0  0  0  0  0  0  0  0
    0.0216   -1.9856   -0.9208 C   0  0  0  0  0  0  0  0  0  0  0  0
   -1.9137   -0.9941    0.1322 C   0  0  0  0  0  0  0  0  0  0  0  0
   -1.3381   -1.2020    1.3856 C   0  0  0  0  0  0  0  0  0  0  0  0
   -1.2338   -1.3859   -1.0209 C   0  0  0  0  0  0  0  0  0  0  0  0
   -3.2157   -0.3721    0.0283 C   0  0  0  0  0  0  0  0  0  0  0  0
   -4.3677   -1.1585    0.0404 C   0  0  0  0  0  0  0  0  0  0  0  0
   -3.3191    1.0145   -0.0821 C   0  0  0  0  0  0  0  0  0  0  0  0
   -5.6230   -0.5584   -0.0577 C   0  0  0  0  0  0  0  0  0  0  0  0
   -4.5745    1.6146   -0.1803 C   0  0  0  0  0  0  0  0  0  0  0  0
   -5.7265    0.8283   -0.1680 C   0  0  0  0  0  0  0  0  0  0  0  0
  1 10  1  0
  1 12  1  0
  2 12  2  0
  3  4  1  0
  3  8  1  0
  4  5  1  0
  4  9  1  0
  5  6  1  0
  6  7  1  0
  7  8  1  0
  9 10  1  0
 11 12  1  0
 11 13  1  0
 11 14  1  0
 13 15  2  0
 13 16  1  0
 15 18  1  0
 16 19  2  0
 17 18  2  0
 17 19  1  0
 17 20  1  0
 20 21  2  0
 20 22  1  0
 21 23  1  0
 22 24  2  0
 23 25  2  0
 24 25  1  0
M  END
>  <PUBCHEM_COMPOUND_CID>  (1) 
46657

>  <PUBCHEM_CONFORMER_RMSD>  (1) 
1

>  <PUBCHEM_CONFORMER_DIVERSEORDER>  (1) 
1
20
27
175
83
97
142
47
158
184
147
67
90
165
73
114
51
143
151
127
24
176
119
128
109
50
39
2
45
161
15
126
96
101
180
111
54
82
89
80
144
145
78
21
139
36
98
141
110
85
140
174
76
104
35
153
91
46
152
137
169
170
14
134
172
173
64
4
120
122
103
26
117
164
156
5
102
70
77
61
59
72
129
163
34
171
167
112
53
62
10
159
12
32
18
125
71
3
118
121
115
107
52
23
43
146
93
123
11
150
166
148
79
75
168
81
30
74
60
8
95
154
178
7
162
29
130
157
37
17
6
55
100
28
58
131
136
108
56
181
84
179
133
124
149
66
160
42
38
16
183
63
19
44
177
135
99
94
138
25
57
22
69
92
182
13
31
48
41
40
155
105
88
49
132
68
33
86
116
185
65
106
113
9
87

>  <PUBCHEM_MMFF94_PARTIAL_CHARGES>  (1) 
28
1 -0.43
10 0.28
11 0.2
12 0.66
13 -0.14
15 -0.15
16 -0.15
18 -0.15
19 -0.15
2 -0.57
21 -0.15
22 -0.15
23 -0.15
24 -0.15
25 -0.15
3 -0.9
37 0.36
4 0.27
44 0.15
45 0.15
46 0.15
47 0.15
48 0.15
49 0.15
50 0.15
51 0.15
52 0.15
8 0.27

>  <PUBCHEM_EFFECTIVE_ROTOR_COUNT>  (1) 
8.2

>  <PUBCHEM_PHARMACOPHORE_FEATURES>  (1) 
7
1 14 hydrophobe
1 2 acceptor
1 3 cation
1 3 donor
6 13 15 16 17 18 19 rings
6 20 21 22 23 24 25 rings
6 3 4 5 6 7 8 rings

>  <PUBCHEM_HEAVY_ATOM_COUNT>  (1) 
25

>  <PUBCHEM_ATOM_DEF_STEREO_COUNT>  (1) 
0

>  <PUBCHEM_ATOM_UDEF_STEREO_COUNT>  (1) 
2

>  <PUBCHEM_BOND_DEF_STEREO_COUNT>  (1) 
0

>  <PUBCHEM_BOND_UDEF_STEREO_COUNT>  (1) 
0

>  <PUBCHEM_ISOTOPIC_ATOM_COUNT>  (1) 
0

>  <PUBCHEM_COMPONENT_COUNT>  (1) 
1

>  <PUBCHEM_CACTVS_TAUTO_COUNT>  (1) 
1

>  <PUBCHEM_CONFORMER_ID>  (1) 
0000B64100000001

>  <PUBCHEM_MMFF94_ENERGY>  (1) 
50.0354

>  <PUBCHEM_FEATURE_SELFOVERLAP>  (1) 
35.52

>  <PUBCHEM_SHAPE_FINGERPRINT>  (1) 
10483366 6 18190202199309487820
10675989 125 18270963552398400705
11370993 70 18052250988465253568
12173636 292 17618218850699136503
12293681 4 18045229241017476882
12422481 6 18121467260047377536
12633257 1 17314214730443163032
12769317 202 18335691732973013271
12788726 201 17830179008799263674
12925494 130 18410854335949978849
13122387 1 18265613191262156680
13402501 40 18334572456132854260
13422730 153 18198038457086932927
13583140 156 18336839636446447019
138480 1 18339079289596194592
14466204 15 18409722989227824888
14468879 13 17901668490205895705
151778 21 18045509861205959501
15210252 30 18041294200960803716
15420108 30 17984961938450961402
15475509 84 17612300858095879459
16760501 71 18339934710613393081
17093844 170 18409163320872251120
18681886 176 18271519806218212490
19930381 70 18267018539110634577
20567600 299 18341327876716450248
20621476 13 18339081600499713496
21344244 78 17974546027861174162
21475661 188 18187642543990818537
21860390 5 18413111653804408134
23227448 37 18339640156875839703
23558518 356 17903065982307026874
23559900 14 18339636755567735419
25265897 201 17843993483232925487
3014063 31 18265613169713291852
3298306 158 18339362001898104361
474 4 18336545014226150835
508706 21 17749938991404212725
513532 50 18060147543921564012
5265222 85 17976547435719548964
6443956 14 18410857650878416196
6669772 16 17343201224358998193

>  <PUBCHEM_SHAPE_MULTIPOLES>  (1) 
497.77
9.44
5.57
1.13
12.62
2.57
-0.07
1.16
0.45
-6.09
-0.01
-0.36
0.11
0.77

>  <PUBCHEM_SHAPE_SELFOVERLAP>  (1) 
1050.885

>  <PUBCHEM_SHAPE_VOLUME>  (1) 
278.6

>  <PUBCHEM_COORDINATE_TYPE>  (1) 
2
5
10

$$$$
