46655
     RDKit          3D

  9  8  0  0  0  0  0  0  0  0999 V2000
   -0.6026   -0.4373    0.0078 O   0  0  0  0  0  0  0  0  0  0  0  0
    2.8985    0.2302   -0.0136 O   0  0  0  0  0  0  0  0  0  0  0  0
    0.5633    1.5550    0.0042 O   0  0  0  0  0  0  0  0  0  0  0  0
    4.0491   -0.6632   -0.0088 N   0  0  0  0  0  0  0  0  0  0  0  0
   -2.9887   -0.7131    0.0038 C   0  0  0  0  0  0  0  0  0  0  0  0
   -1.8393    0.2832    0.0031 C   0  0  0  0  0  0  0  0  0  0  0  0
   -4.3383   -0.0183   -0.0161 C   0  0  0  0  0  0  0  0  0  0  0  0
    0.5255    0.3321    0.0077 C   0  0  0  0  0  0  0  0  0  0  0  0
    1.7325   -0.5687    0.0120 C   0  0  0  0  0  0  0  0  0  0  0  0
  1  6  1  0
  1  8  1  0
  2  4  1  0
  2  9  1  0
  3  8  2  0
  5  6  1  0
  5  7  1  0
  8  9  1  0
M  END
>  <PUBCHEM_COMPOUND_CID>  (1) 
46655

>  <PUBCHEM_CONFORMER_RMSD>  (1) 
0.6

>  <PUBCHEM_CONFORMER_DIVERSEORDER>  (1) 
1
71
58
62
43
103
89
91
7
48
79
9
2
64
100
50
31
99
5
29
81
30
40
76
41
86
4
32
106
28
38
59
36
105
17
85
57
11
77
101
56
75
21
20
45
19
84
83
6
44
95
88
46
8
42
35
90
12
70
87
51
93
102
73
16
39
68
61
3
94
52
74
33
13
34
49
27
67
54
23
60
82
63
66
92
15
47
53
55
10
25
26
78
96
97
14
37
69
104
80
98
18
24
72
22
65

>  <PUBCHEM_MMFF94_PARTIAL_CHARGES>  (1) 
9
1 -0.43
19 0.36
2 -0.18
20 0.36
3 -0.57
4 -0.82
6 0.28
8 0.66
9 0.34

>  <PUBCHEM_EFFECTIVE_ROTOR_COUNT>  (1) 
5

>  <PUBCHEM_PHARMACOPHORE_FEATURES>  (1) 
2
1 3 acceptor
1 7 hydrophobe

>  <PUBCHEM_HEAVY_ATOM_COUNT>  (1) 
9

>  <PUBCHEM_ATOM_DEF_STEREO_COUNT>  (1) 
0

>  <PUBCHEM_ATOM_UDEF_STEREO_COUNT>  (1) 
0

>  <PUBCHEM_BOND_DEF_STEREO_COUNT>  (1) 
0

>  <PUBCHEM_BOND_UDEF_STEREO_COUNT>  (1) 
0

>  <PUBCHEM_ISOTOPIC_ATOM_COUNT>  (1) 
0

>  <PUBCHEM_COMPONENT_COUNT>  (1) 
1

>  <PUBCHEM_CACTVS_TAUTO_COUNT>  (1) 
1

>  <PUBCHEM_CONFORMER_ID>  (1) 
0000B63F00000001

>  <PUBCHEM_MMFF94_ENERGY>  (1) 
1.2238

>  <PUBCHEM_FEATURE_SELFOVERLAP>  (1) 
10.148

>  <PUBCHEM_SHAPE_FINGERPRINT>  (1) 
10219947 1 18060140946308490702
11062470 55 17632578253588320875
12932764 1 16950828306801357419
14325111 11 18338516447391203211
20719005 15 18410855455849135691
21293036 1 17967534579517085774
22485316 2 18409725166543914250
23402539 116 16271921589625484657

>  <PUBCHEM_SHAPE_MULTIPOLES>  (1) 
162.63
7.27
0.98
0.57
0.93
0.25
0
-1.58
0.05
-0.18
0
0.08
-0.01
0

>  <PUBCHEM_SHAPE_SELFOVERLAP>  (1) 
293.873

>  <PUBCHEM_SHAPE_VOLUME>  (1) 
104.7

>  <PUBCHEM_COORDINATE_TYPE>  (1) 
2
5
10

$$$$
