46667
     RDKit          3D

 26 28  0  0  1  0  0  0  0  0999 V2000
    6.2417   -3.1676   -0.0996 Cl  0  0  0  0  0  0  0  0  0  0  0  0
    0.1875    4.7279   -0.9637 O   0  0  0  0  0  0  0  0  0  0  0  0
   -1.5011    0.6117    0.8362 N   0  0  0  0  0  0  0  0  0  0  0  0
   -4.8813   -2.8692   -1.0704 N   0  0  0  0  0  0  0  0  0  0  0  0
    1.0084   -0.5377    0.5071 N   0  0  0  0  0  0  0  0  0  0  0  0
   -2.7993    1.1741    1.0159 C   0  0  0  0  0  0  0  0  0  0  0  0
   -3.8487    0.0607    1.1368 C   0  0  0  0  0  0  0  0  0  0  0  0
   -3.8597   -0.8723   -0.0804 C   0  0  0  0  0  0  0  0  0  0  0  0
   -4.8699   -2.0043    0.1036 C   0  0  0  0  0  0  0  0  0  0  0  0
   -2.7829    2.0460    2.2671 C   0  0  0  0  0  0  0  0  0  0  0  0
   -0.4170    1.3480    0.2949 C   0  0  0  0  0  0  0  0  0  0  0  0
    0.8295    0.7466    0.1423 C   0  0  0  0  0  0  0  0  0  0  0  0
    1.8733    1.5174   -0.3970 C   0  0  0  0  0  0  0  0  0  0  0  0
   -0.6397    2.6774   -0.0723 C   0  0  0  0  0  0  0  0  0  0  0  0
    0.3971    3.4330   -0.6048 C   0  0  0  0  0  0  0  0  0  0  0  0
    1.6527    2.8553   -0.7676 C   0  0  0  0  0  0  0  0  0  0  0  0
    3.1229    0.9077   -0.5478 C   0  0  0  0  0  0  0  0  0  0  0  0
    3.3142   -0.4254   -0.1708 C   0  0  0  0  0  0  0  0  0  0  0  0
    2.2139   -1.1202    0.3596 C   0  0  0  0  0  0  0  0  0  0  0  0
   -5.8709   -3.9366   -0.9144 C   0  0  0  0  0  0  0  0  0  0  0  0
   -3.5531   -3.4385   -1.3041 C   0  0  0  0  0  0  0  0  0  0  0  0
    4.5590   -1.0633   -0.3113 C   0  0  0  0  0  0  0  0  0  0  0  0
    2.3981   -2.4477    0.7369 C   0  0  0  0  0  0  0  0  0  0  0  0
    4.7167   -2.3913    0.0734 C   0  0  0  0  0  0  0  0  0  0  0  0
    3.6338   -3.0846    0.5986 C   0  0  0  0  0  0  0  0  0  0  0  0
   -1.1253    5.2528   -0.7680 C   0  0  0  0  0  0  0  0  0  0  0  0
  1 24  1  0
  2 15  1  0
  2 26  1  0
  3  6  1  0
  3 11  1  0
  4  9  1  0
  4 20  1  0
  4 21  1  0
  5 12  2  0
  5 19  1  0
  6  7  1  0
  6 10  1  0
  7  8  1  0
  8  9  1  0
 11 12  1  0
 11 14  2  0
 12 13  1  0
 13 16  1  0
 13 17  2  0
 14 15  1  0
 15 16  2  0
 17 18  1  0
 18 19  2  0
 18 22  1  0
 19 23  1  0
 22 24  2  0
 23 25  2  0
 24 25  1  0
M  END
>  <PUBCHEM_COMPOUND_CID>  (1) 
46667

>  <PUBCHEM_CONFORMER_RMSD>  (1) 
0.8

>  <PUBCHEM_CONFORMER_DIVERSEORDER>  (1) 
1
144
92
154
143
88
72
27
89
78
11
4
75
110
138
130
132
97
81
147
159
158
118
128
156
162
117
129
35
103
106
119
30
111
32
59
134
47
19
101
104
42
18
58
109
61
26
139
12
133
93
76
108
55
95
131
9
44
127
77
10
53
7
29
82
149
142
152
100
126
96
2
114
107
91
86
122
69
80
66
121
145
73
150
79
105
41
124
50
3
83
36
102
84
23
51
116
120
123
112
60
64
38
54
70
17
52
33
40
62
148
39
113
13
141
85
125
57
67
163
90
87
28
45
34
31
15
99
68
22
6
20
157
21
98
46
94
140
115
63
65
160
24
48
74
137
5
161
8
71
146
14
37
56
16
25
49
151
155
135
153
43
136
164

>  <PUBCHEM_MMFF94_PARTIAL_CHARGES>  (1) 
28
1 -0.18
11 0.1
12 0.31
14 -0.15
15 0.08
16 -0.15
17 -0.15
19 0.31
2 -0.36
20 0.27
21 0.27
22 -0.15
23 -0.15
24 0.18
25 -0.15
26 0.28
3 -0.87
34 0.4
38 0.15
39 0.15
4 -0.81
40 0.15
47 0.15
48 0.15
49 0.15
5 -0.62
6 0.37
9 0.27

>  <PUBCHEM_EFFECTIVE_ROTOR_COUNT>  (1) 
7

>  <PUBCHEM_PHARMACOPHORE_FEATURES>  (1) 
8
1 2 acceptor
1 3 cation
1 3 donor
1 4 cation
1 5 acceptor
6 11 12 13 14 15 16 rings
6 18 19 22 23 24 25 rings
6 5 12 13 17 18 19 rings

>  <PUBCHEM_HEAVY_ATOM_COUNT>  (1) 
26

>  <PUBCHEM_ATOM_DEF_STEREO_COUNT>  (1) 
0

>  <PUBCHEM_ATOM_UDEF_STEREO_COUNT>  (1) 
1

>  <PUBCHEM_BOND_DEF_STEREO_COUNT>  (1) 
0

>  <PUBCHEM_BOND_UDEF_STEREO_COUNT>  (1) 
0

>  <PUBCHEM_ISOTOPIC_ATOM_COUNT>  (1) 
0

>  <PUBCHEM_COMPONENT_COUNT>  (1) 
1

>  <PUBCHEM_CACTVS_TAUTO_COUNT>  (1) 
1

>  <PUBCHEM_CONFORMER_ID>  (1) 
0000B64B00000001

>  <PUBCHEM_MMFF94_ENERGY>  (1) 
91.3519

>  <PUBCHEM_FEATURE_SELFOVERLAP>  (1) 
40.656

>  <PUBCHEM_SHAPE_FINGERPRINT>  (1) 
10042902 136 18342743987932865638
10319688 45 18339920403206664330
10622 236 18271801389249288983
11014199 57 18411700984807688147
11069576 57 17981595285012110695
11227688 84 17973476396446975970
11315621 246 18197790903509341782
11552529 35 18128255592880745442
11578080 2 18056742266111573000
11607047 403 17912345826696907890
12107183 9 18341342119914187219
12553582 1 18187655639256433864
12788726 201 17899132715517920505
13004483 165 18263924337338852489
13009979 54 18202570587681195563
13911987 19 17681298838256192060
14114206 34 17386009407910223905
14117953 113 18269557131418748575
14429380 30 18408325488400667322
14844126 61 17828485769450417768
15968369 26 17475768319560994619
16989713 51 18268148657150778702
17138139 8 16907500071118384775
17492 89 18339080518600659915
19141452 34 18125167039101869713
19319366 153 17478045425052384519
20028762 73 17982170333798655804
20775530 9 18408601461697903635
21133410 171 17465332592134229227
21344244 181 17616234902632607701
25019877 29 17325210628395325181
4017518 198 16536489087519497563
4409770 3 17975128747696439501
46194498 28 16300094526018611815
463206 1 18260838106730822915
6058803 2 18126588901580408793
6677587 24 16604018356636029373
7970288 3 18411135809935243758

>  <PUBCHEM_SHAPE_MULTIPOLES>  (1) 
516.13
11.6
6.79
1.23
0.32
4.07
0.35
-19.56
-0.89
-4.53
-2.98
-1.32
0.25
-3.07

>  <PUBCHEM_SHAPE_SELFOVERLAP>  (1) 
1092.758

>  <PUBCHEM_SHAPE_VOLUME>  (1) 
293

>  <PUBCHEM_COORDINATE_TYPE>  (1) 
2
5
10

$$$$
