46664
     RDKit          3D

 18 20  0  0  0  0  0  0  0  0999 V2000
    5.0610    0.5568   -0.0015 O   0  0  0  0  0  0  0  0  0  0  0  0
    4.4267   -1.6259    0.0002 O   0  0  0  0  0  0  0  0  0  0  0  0
   -1.1076    1.6367    0.0003 N   0  0  0  0  0  0  0  0  0  0  0  0
   -0.5660   -2.5198    0.0002 N   0  0  0  0  0  0  0  0  0  0  0  0
    0.3653   -0.2657    0.0002 C   0  0  0  0  0  0  0  0  0  0  0  0
   -2.0436   -0.5798   -0.0001 C   0  0  0  0  0  0  0  0  0  0  0  0
   -0.7496   -1.1102    0.0001 C   0  0  0  0  0  0  0  0  0  0  0  0
    0.1365    1.1207    0.0001 C   0  0  0  0  0  0  0  0  0  0  0  0
   -2.1781    0.8189    0.0001 C   0  0  0  0  0  0  0  0  0  0  0  0
    1.6771   -0.7713    0.0005 C   0  0  0  0  0  0  0  0  0  0  0  0
    1.2425    1.9666    0.0001 C   0  0  0  0  0  0  0  0  0  0  0  0
    2.7656    0.0959    0.0003 C   0  0  0  0  0  0  0  0  0  0  0  0
   -3.1817   -1.4050   -0.0004 C   0  0  0  0  0  0  0  0  0  0  0  0
   -3.4638    1.3530    0.0001 C   0  0  0  0  0  0  0  0  0  0  0  0
    2.5474    1.4677    0.0002 C   0  0  0  0  0  0  0  0  0  0  0  0
   -4.4562   -0.8459   -0.0005 C   0  0  0  0  0  0  0  0  0  0  0  0
   -4.5972    0.5360   -0.0001 C   0  0  0  0  0  0  0  0  0  0  0  0
    4.1218   -0.4286    0.0002 C   0  0  0  0  0  0  0  0  0  0  0  0
  1 18  1  0
  2 18  2  0
  3  8  2  0
  3  9  1  0
  4  7  1  0
  5  7  2  0
  5  8  1  0
  5 10  1  0
  6  7  1  0
  6  9  2  0
  6 13  1  0
  8 11  1  0
  9 14  1  0
 10 12  2  0
 11 15  2  0
 12 15  1  0
 12 18  1  0
 13 16  2  0
 14 17  2  0
 16 17  1  0
M  END
>  <PUBCHEM_COMPOUND_CID>  (1) 
46664

>  <PUBCHEM_CONFORMER_RMSD>  (1) 
0.6

>  <PUBCHEM_CONFORMER_DIVERSEORDER>  (1) 
1

>  <PUBCHEM_MMFF94_PARTIAL_CHARGES>  (1) 
26
1 -0.65
10 -0.15
11 -0.15
12 0.09
13 -0.15
14 -0.15
15 -0.15
16 -0.15
17 -0.15
18 0.63
19 0.15
2 -0.57
20 0.15
21 0.15
22 0.15
23 0.15
24 0.15
25 0.15
26 0.4
27 0.4
28 0.5
3 -0.62
4 -0.9
7 0.1
8 0.31
9 0.31

>  <PUBCHEM_EFFECTIVE_ROTOR_COUNT>  (1) 
1

>  <PUBCHEM_PHARMACOPHORE_FEATURES>  (1) 
9
1 1 acceptor
1 2 acceptor
1 3 acceptor
1 4 cation
1 4 donor
3 1 2 18 anion
6 3 5 6 7 8 9 rings
6 5 8 10 11 12 15 rings
6 6 9 13 14 16 17 rings

>  <PUBCHEM_HEAVY_ATOM_COUNT>  (1) 
18

>  <PUBCHEM_ATOM_DEF_STEREO_COUNT>  (1) 
0

>  <PUBCHEM_ATOM_UDEF_STEREO_COUNT>  (1) 
0

>  <PUBCHEM_BOND_DEF_STEREO_COUNT>  (1) 
0

>  <PUBCHEM_BOND_UDEF_STEREO_COUNT>  (1) 
0

>  <PUBCHEM_ISOTOPIC_ATOM_COUNT>  (1) 
0

>  <PUBCHEM_COMPONENT_COUNT>  (1) 
1

>  <PUBCHEM_CACTVS_TAUTO_COUNT>  (1) 
3

>  <PUBCHEM_CONFORMER_ID>  (1) 
0000B64800000001

>  <PUBCHEM_MMFF94_ENERGY>  (1) 
75.9361

>  <PUBCHEM_FEATURE_SELFOVERLAP>  (1) 
45.788

>  <PUBCHEM_SHAPE_FINGERPRINT>  (1) 
10062212 137 18342170077233201039
10608611 8 18339357573686686329
10967382 1 18410575050387834023
11132069 177 18411978061621583409
11401426 45 18412541015827715437
11458722 379 18408606933100999451
11471102 20 18410289228830366924
11578080 2 16842750831569526411
12032990 46 18410295817325990649
12236239 1 17821729425390524962
12403259 226 18339636841245496097
12403259 415 18410003351903126525
12715332 25 18131067160230449319
13140716 1 18411427236825173081
13221675 6 18408884040079872994
13288520 33 18412547587364970854
13675066 3 18272647973840367824
13690532 89 18410292501590087144
13862211 1 18410568470419185543
14115302 16 17967543401596313262
14866123 147 17120587108071669506
15042514 8 18265900344671117747
15099037 51 18410292505964305783
15196674 1 18410575093268915716
15442244 35 18411418453057681820
15536298 74 18341893034441206736
16945 1 17978229688340337861
17802600 8 18410570704065702741
17804303 29 18412266150790017989
1813 80 17313101951962096804
18186145 218 17822001043090289165
18522853 276 18342176673986417616
19591789 44 18409729594834797875
200 152 18060697303967102029
20028762 73 18130224994949695687
20510252 161 18272933782492263208
21029758 11 18343299275300536601
21267235 1 18410301328154309187
21279426 13 18194119620702637975
221490 88 18191311674216488569
23175994 123 17275109431096430168
23366157 5 17969779890057816556
23402539 116 18343576352378098063
23463225 33 18408885131001514181
23559900 14 18342736317532231352
2748010 2 18410009983479824509
3004659 81 18260833653640852086
3286 77 17489300936480882601
335352 9 18410856521428338909
350125 39 18410015442362606849
4214541 1 18410575071952601121
43471831 8 18262797350367726306
474 4 16951979564322275468
5104073 3 18411701006050118192
54173680 148 18120658191214568635
6138700 20 18265617581077617670
633830 44 17313383461082390845
69090 78 18342173392610265431
7364860 26 18197216056438552640
77779 3 18409731776456254828
8809292 202 18261396684475848715
9709674 26 18340774822373064127
9981440 41 17254275043002718064

>  <PUBCHEM_SHAPE_MULTIPOLES>  (1) 
348.73
8.94
2.02
0.6
2.6
0.21
0
0.87
0
-0.04
0
-0.04
-0.01
0

>  <PUBCHEM_SHAPE_SELFOVERLAP>  (1) 
791.075

>  <PUBCHEM_SHAPE_VOLUME>  (1) 
182.4

>  <PUBCHEM_COORDINATE_TYPE>  (1) 
2
5
10

$$$$
