46677
     RDKit          3D

 26 29  0  0  0  0  0  0  0  0999 V2000
    2.6926   -0.3012   -1.1649 S   0  0  0  0  0  0  0  0  0  0  0  0
   -1.1457   -3.4396   -0.0715 O   0  0  0  0  0  0  0  0  0  0  0  0
   -1.9164    2.5203   -0.4340 O   0  0  0  0  0  0  0  0  0  0  0  0
   -3.5208   -2.5149    0.3535 O   0  0  0  0  0  0  0  0  0  0  0  0
    0.5211    1.8137   -0.8891 N   0  0  0  0  0  0  0  0  0  0  0  0
   -1.2888    0.2328   -0.3647 C   0  0  0  0  0  0  0  0  0  0  0  0
   -1.7129   -1.0817   -0.1589 C   0  0  0  0  0  0  0  0  0  0  0  0
   -3.6566    1.0640    0.0657 C   0  0  0  0  0  0  0  0  0  0  0  0
   -4.0807   -0.2506    0.2715 C   0  0  0  0  0  0  0  0  0  0  0  0
    0.0516    0.4938   -0.6729 C   0  0  0  0  0  0  0  0  0  0  0  0
   -2.2452    1.3536   -0.2602 C   0  0  0  0  0  0  0  0  0  0  0  0
   -3.1242   -1.3714    0.1669 C   0  0  0  0  0  0  0  0  0  0  0  0
   -0.7963   -2.1352   -0.2609 C   0  0  0  0  0  0  0  0  0  0  0  0
    0.9617   -0.5590   -0.7736 C   0  0  0  0  0  0  0  0  0  0  0  0
    0.5386   -1.8707   -0.5680 C   0  0  0  0  0  0  0  0  0  0  0  0
   -4.5731    2.1175    0.1677 C   0  0  0  0  0  0  0  0  0  0  0  0
   -5.4212   -0.5117    0.5794 C   0  0  0  0  0  0  0  0  0  0  0  0
   -5.9081    1.8528    0.4744 C   0  0  0  0  0  0  0  0  0  0  0  0
   -6.3313    0.5410    0.6799 C   0  0  0  0  0  0  0  0  0  0  0  0
    3.4071   -0.0971    0.4887 C   0  0  0  0  0  0  0  0  0  0  0  0
    4.8914    0.1394    0.4402 C   0  0  0  0  0  0  0  0  0  0  0  0
    5.3758    1.4382    0.3541 C   0  0  0  0  0  0  0  0  0  0  0  0
    5.7596   -0.9437    0.4817 C   0  0  0  0  0  0  0  0  0  0  0  0
    6.7527    1.6576    0.3087 C   0  0  0  0  0  0  0  0  0  0  0  0
    7.1363   -0.7243    0.4365 C   0  0  0  0  0  0  0  0  0  0  0  0
    7.6328    0.5764    0.3499 C   0  0  0  0  0  0  0  0  0  0  0  0
  1 14  1  0
  1 20  1  0
  2 13  1  0
  3 11  2  0
  4 12  2  0
  5 10  1  0
  6  7  1  0
  6 10  2  0
  6 11  1  0
  7 12  1  0
  7 13  2  0
  8  9  2  0
  8 11  1  0
  8 16  1  0
  9 12  1  0
  9 17  1  0
 10 14  1  0
 13 15  1  0
 14 15  2  0
 16 18  2  0
 17 19  2  0
 18 19  1  0
 20 21  1  0
 21 22  2  0
 21 23  1  0
 22 24  1  0
 23 25  2  0
 24 26  2  0
 25 26  1  0
M  END
>  <PUBCHEM_COMPOUND_CID>  (1) 
46677

>  <PUBCHEM_CONFORMER_RMSD>  (1) 
0.6

>  <PUBCHEM_CONFORMER_DIVERSEORDER>  (1) 
1
5
10
16
19
13
3
8
17
18
6
2
15
7
4
11
14
9
12

>  <PUBCHEM_MMFF94_PARTIAL_CHARGES>  (1) 
39
1 -0.33
10 0.1
11 0.4
12 0.4
13 0.08
14 0.1
15 -0.15
16 -0.15
17 -0.15
18 -0.15
19 -0.15
2 -0.53
20 0.37
21 -0.14
22 -0.15
23 -0.15
24 -0.15
25 -0.15
26 -0.15
27 0.15
28 0.15
29 0.15
3 -0.57
32 0.15
33 0.15
34 0.4
35 0.4
36 0.45
37 0.15
38 0.15
39 0.15
4 -0.57
40 0.15
41 0.15
5 -0.9
6 0.09
7 0.09
8 0.09
9 0.09

>  <PUBCHEM_EFFECTIVE_ROTOR_COUNT>  (1) 
3

>  <PUBCHEM_PHARMACOPHORE_FEATURES>  (1) 
9
1 2 donor
1 3 acceptor
1 4 acceptor
1 5 cation
1 5 donor
6 21 22 23 24 25 26 rings
6 6 7 10 13 14 15 rings
6 6 7 8 9 11 12 rings
6 8 9 16 17 18 19 rings

>  <PUBCHEM_HEAVY_ATOM_COUNT>  (1) 
26

>  <PUBCHEM_ATOM_DEF_STEREO_COUNT>  (1) 
0

>  <PUBCHEM_ATOM_UDEF_STEREO_COUNT>  (1) 
0

>  <PUBCHEM_BOND_DEF_STEREO_COUNT>  (1) 
0

>  <PUBCHEM_BOND_UDEF_STEREO_COUNT>  (1) 
0

>  <PUBCHEM_ISOTOPIC_ATOM_COUNT>  (1) 
0

>  <PUBCHEM_COMPONENT_COUNT>  (1) 
1

>  <PUBCHEM_CACTVS_TAUTO_COUNT>  (1) 
12

>  <PUBCHEM_CONFORMER_ID>  (1) 
0000B65500000001

>  <PUBCHEM_MMFF94_ENERGY>  (1) 
93.6117

>  <PUBCHEM_FEATURE_SELFOVERLAP>  (1) 
45.713

>  <PUBCHEM_SHAPE_FINGERPRINT>  (1) 
10 15 18408046212272333353
10299344 5 18040716962057032090
10319926 262 18341883139305932354
10411042 1 17835519693785677871
11524674 6 17704069603422661502
12236239 1 17676211277209161876
12516196 113 11818998483017005030
12596602 18 17967531272788134664
12616971 3 17022910076862165398
12838862 33 18336819815630883101
13140716 1 18336552732741116205
13288520 33 8214141859108326203
13402501 40 18272650143057756960
13668630 136 13912325660015917320
13685833 64 12901550139444381468
13914758 101 13542471938659169498
14251764 18 18334859436982981084
14341114 176 18409729569718842428
14394314 77 18336266748044074393
14844126 61 18190465042132999315
14933364 13 18411419514690194000
15021287 119 16950566601031804757
15064986 96 17845653639461721958
15461852 350 17917706933571793399
15849732 13 18040152915810953093
15927050 60 18412824681413106838
16110190 28 18334576880054670860
16994733 274 16128383619052066411
17980427 23 18410292548966805101
1813 80 16660365844899756846
21150785 3 11600003250196319224
21236236 1 18341889727263673927
21859007 373 17606392159870079124
22122407 14 16486981729747428322
221357 26 8430314632874944182
22224240 67 18412262818354091813
23198884 109 12823296797051671788
23559900 14 18197240099585939646
24771293 8 18343308033762434233
25147074 1 17969511583281329574
2838139 119 16128656336194581218
335352 9 18409448107088840533
3383291 50 17895203254825134763
3411729 13 18340206285173898002
350125 39 18410856576999623964
392239 28 18201447982178007289
4073 2 18114748235201569306
4093350 32 16701749232832015030
5104073 3 18192725453582173867
5265222 85 18198348549684158166
59682541 35 18410863183328615305
5969126 39 17986663973671622071
59755656 520 18341324543864104790
7226269 152 18130788945086365817
9981440 41 18334585616271664299

>  <PUBCHEM_SHAPE_MULTIPOLES>  (1) 
516.33
18.54
2.6
0.86
23.99
0.89
0.1
-7.08
-6.17
-2.17
0.07
0.19
-0.02
0.15

>  <PUBCHEM_SHAPE_SELFOVERLAP>  (1) 
1144.992

>  <PUBCHEM_SHAPE_VOLUME>  (1) 
276.8

>  <PUBCHEM_COORDINATE_TYPE>  (1) 
2
5
10

$$$$
