46676
     RDKit          3D

 24 26  0  0  0  0  0  0  0  0999 V2000
   -0.9657   -0.8016    0.4802 O   0  0  0  0  0  0  0  0  0  0  0  0
   -0.6391   -0.6172   -1.7910 O   0  0  0  0  0  0  0  0  0  0  0  0
   -4.5968   -0.3693   -0.0021 N   0  0  0  0  0  0  0  0  0  0  0  0
   -3.2116    0.0083    0.2358 C   0  0  0  0  0  0  0  0  0  0  0  0
    1.1326   -0.1130   -0.2771 C   0  0  0  0  0  0  0  0  0  0  0  0
    1.4031    1.2498   -0.0686 C   0  0  0  0  0  0  0  0  0  0  0  0
    2.1383   -1.0860   -0.1520 C   0  0  0  0  0  0  0  0  0  0  0  0
   -5.4534    0.8173   -0.0687 C   0  0  0  0  0  0  0  0  0  0  0  0
   -5.0732   -1.2782    1.0434 C   0  0  0  0  0  0  0  0  0  0  0  0
    2.7134    1.6499    0.2740 C   0  0  0  0  0  0  0  0  0  0  0  0
    3.4484   -0.6859    0.1907 C   0  0  0  0  0  0  0  0  0  0  0  0
   -2.3170   -1.2207    0.2614 C   0  0  0  0  0  0  0  0  0  0  0  0
    3.7189    0.6769    0.3992 C   0  0  0  0  0  0  0  0  0  0  0  0
   -0.2289   -0.5289   -0.6340 C   0  0  0  0  0  0  0  0  0  0  0  0
    0.3982    2.2234   -0.1935 C   0  0  0  0  0  0  0  0  0  0  0  0
    1.8686   -2.4489   -0.3604 C   0  0  0  0  0  0  0  0  0  0  0  0
    2.9830    3.0128    0.4821 C   0  0  0  0  0  0  0  0  0  0  0  0
    4.4534   -1.6596    0.3158 C   0  0  0  0  0  0  0  0  0  0  0  0
   -4.9792    1.7768   -1.1470 C   0  0  0  0  0  0  0  0  0  0  0  0
   -6.4962   -1.7337    0.7682 C   0  0  0  0  0  0  0  0  0  0  0  0
    0.6827    3.5728    0.0167 C   0  0  0  0  0  0  0  0  0  0  0  0
    2.8782   -3.4031   -0.2323 C   0  0  0  0  0  0  0  0  0  0  0  0
    1.9735    3.9670    0.3540 C   0  0  0  0  0  0  0  0  0  0  0  0
    4.1689   -3.0089    0.1054 C   0  0  0  0  0  0  0  0  0  0  0  0
  1 12  1  0
  1 14  1  0
  2 14  2  0
  3  4  1  0
  3  8  1  0
  3  9  1  0
  4 12  1  0
  5  6  2  0
  5  7  1  0
  5 14  1  0
  6 10  1  0
  6 15  1  0
  7 11  2  0
  7 16  1  0
  8 19  1  0
  9 20  1  0
 10 13  2  0
 10 17  1  0
 11 13  1  0
 11 18  1  0
 15 21  2  0
 16 22  2  0
 17 23  2  0
 18 24  2  0
 21 23  1  0
 22 24  1  0
M  END
>  <PUBCHEM_COMPOUND_CID>  (1) 
46676

>  <PUBCHEM_CONFORMER_RMSD>  (1) 
0.8

>  <PUBCHEM_CONFORMER_DIVERSEORDER>  (1) 
3
26
17
12
27
11
25
24
20
18
16
7
15
23
22
14
8
10
1
9
13
19
21
2
4
6
5

>  <PUBCHEM_MMFF94_PARTIAL_CHARGES>  (1) 
27
1 -0.43
12 0.28
13 -0.15
14 0.63
15 -0.15
16 -0.15
17 -0.15
18 -0.15
2 -0.57
21 -0.15
22 -0.15
23 -0.15
24 -0.15
3 -0.81
33 0.15
34 0.15
35 0.15
4 0.27
42 0.15
43 0.15
44 0.15
45 0.15
46 0.15
47 0.15
5 0.09
8 0.27
9 0.27

>  <PUBCHEM_EFFECTIVE_ROTOR_COUNT>  (1) 
7

>  <PUBCHEM_PHARMACOPHORE_FEATURES>  (1) 
5
1 2 acceptor
1 3 cation
6 5 6 7 10 11 13 rings
6 6 10 15 17 21 23 rings
6 7 11 16 18 22 24 rings

>  <PUBCHEM_HEAVY_ATOM_COUNT>  (1) 
24

>  <PUBCHEM_ATOM_DEF_STEREO_COUNT>  (1) 
0

>  <PUBCHEM_ATOM_UDEF_STEREO_COUNT>  (1) 
0

>  <PUBCHEM_BOND_DEF_STEREO_COUNT>  (1) 
0

>  <PUBCHEM_BOND_UDEF_STEREO_COUNT>  (1) 
0

>  <PUBCHEM_ISOTOPIC_ATOM_COUNT>  (1) 
0

>  <PUBCHEM_COMPONENT_COUNT>  (1) 
1

>  <PUBCHEM_CACTVS_TAUTO_COUNT>  (1) 
1

>  <PUBCHEM_CONFORMER_ID>  (1) 
0000B65400000003

>  <PUBCHEM_MMFF94_ENERGY>  (1) 
71.1137

>  <PUBCHEM_FEATURE_SELFOVERLAP>  (1) 
25.423

>  <PUBCHEM_SHAPE_FINGERPRINT>  (1) 
10411042 1 18267306435327710002
11545043 162 17894353263843407979
11578080 2 13986959448505132420
12107183 9 18198072374422836537
12403259 226 18334857195595842477
12553582 1 18341320107869802134
12730499 353 18193288600629304219
12788726 201 17974292023827305234
13009979 54 17774455866528981963
13134695 92 18412259502238698973
13140716 1 18050837008728509984
13533116 47 18336552711287710235
13583140 156 18337400443189698771
13785724 45 18055931899881402191
138480 1 18411419497146594224
13955234 65 18340490083241866242
14178342 30 17767381832650418426
14790565 3 18048880998675765244
14866123 147 17113256637873697619
15042514 8 17763179142768814890
15081414 286 18413111645430666360
15420108 30 17984963037936254426
15927050 60 17981045533856881198
16087824 20 17907296555422498213
16992752 21 18121789323104312478
17349148 13 17632582630402789983
17492 89 18411139164916144411
17844677 252 18412270532400322195
17980427 23 17631738145279981793
18785283 64 18262798596145242012
20157964 124 18340205310532124851
20832881 197 18188490146991456891
21041028 32 18339637816234123318
21049683 271 18262249893020198732
21065198 57 18409450314939537051
21197605 99 17976830010097104819
21279426 13 18190454957517496389
21315764 268 18408321116829945079
21344244 78 18201994430434190843
21478907 32 17978508633565526002
23559900 14 18411134714939447419
23845131 108 17833547173438849042
2748010 2 18197756840550484252
3091708 16 8997863860435770680
3421961 26 18411138030511450224
4144715 1 18335431153782220961
508706 21 17822276948170105693
5104073 3 18410582795015605915
57124632 79 18127399262396909600
57527585 103 14178088340730219142
6443956 14 18408887300361016278
8272917 22 18341057426983851410
9709674 26 18334580187364157179

>  <PUBCHEM_SHAPE_MULTIPOLES>  (1) 
477.19
11.75
4.46
0.91
21.89
2.51
0.17
-5.46
-2
-5.17
-0.28
0.64
-0.05
1.55

>  <PUBCHEM_SHAPE_SELFOVERLAP>  (1) 
1030.661

>  <PUBCHEM_SHAPE_VOLUME>  (1) 
265.1

>  <PUBCHEM_COORDINATE_TYPE>  (1) 
2
5
10

$$$$
