46689
     RDKit          3D

 21 22  0  0  0  0  0  0  0  0999 V2000
   -5.1273   -0.4609   -0.4075 O   0  0  0  0  0  0  0  0  0  0  0  0
    1.7139   -1.6173    0.5705 O   0  0  0  0  0  0  0  0  0  0  0  0
   -4.7170    1.6244   -1.2918 O   0  0  0  0  0  0  0  0  0  0  0  0
    2.9114    0.3880    0.8117 N   0  0  0  0  0  0  0  0  0  0  0  0
   -0.5583    0.2883    1.2400 C   0  0  0  0  0  0  0  0  0  0  0  0
    0.7753    0.1633    1.8961 C   0  0  0  0  0  0  0  0  0  0  0  0
   -0.8717    1.4357    0.5114 C   0  0  0  0  0  0  0  0  0  0  0  0
   -1.4914   -0.7420    1.3540 C   0  0  0  0  0  0  0  0  0  0  0  0
   -3.0515    0.5223    0.0107 C   0  0  0  0  0  0  0  0  0  0  0  0
    1.8419   -0.4806    1.0140 C   0  0  0  0  0  0  0  0  0  0  0  0
   -2.1184    1.5528   -0.1032 C   0  0  0  0  0  0  0  0  0  0  0  0
   -2.7381   -0.6251    0.7393 C   0  0  0  0  0  0  0  0  0  0  0  0
    4.0835    0.1515    0.0546 C   0  0  0  0  0  0  0  0  0  0  0  0
   -4.3522    0.6447   -0.6284 C   0  0  0  0  0  0  0  0  0  0  0  0
    5.0456    1.1439   -0.0325 C   0  0  0  0  0  0  0  0  0  0  0  0
    4.2437   -1.0677   -0.5825 C   0  0  0  0  0  0  0  0  0  0  0  0
    6.2013    0.9103   -0.7781 C   0  0  0  0  0  0  0  0  0  0  0  0
    5.3993   -1.3014   -1.3279 C   0  0  0  0  0  0  0  0  0  0  0  0
    6.3781   -0.3123   -1.4256 C   0  0  0  0  0  0  0  0  0  0  0  0
   -6.4355   -0.4607   -0.9891 C   0  0  0  0  0  0  0  0  0  0  0  0
   -7.1325   -1.7572   -0.6358 C   0  0  0  0  0  0  0  0  0  0  0  0
  1 14  1  0
  1 20  1  0
  2 10  2  0
  3 14  2  0
  4 10  1  0
  4 13  1  0
  5  6  1  0
  5  7  2  0
  5  8  1  0
  6 10  1  0
  7 11  1  0
  8 12  2  0
  9 11  2  0
  9 12  1  0
  9 14  1  0
 13 15  2  0
 13 16  1  0
 15 17  1  0
 16 18  2  0
 17 19  2  0
 18 19  1  0
 20 21  1  0
M  END
>  <PUBCHEM_COMPOUND_CID>  (1) 
46689

>  <PUBCHEM_CONFORMER_RMSD>  (1) 
0.8

>  <PUBCHEM_CONFORMER_DIVERSEORDER>  (1) 
3
45
2
25
8
32
11
42
7
39
15
9
16
13
22
21
20
31
38
10
28
35
29
36
30
27
5
43
19
41
17
33
26
23
6
40
18
24
12
1
34
14
4
44
37

>  <PUBCHEM_MMFF94_PARTIAL_CHARGES>  (1) 
30
1 -0.43
10 0.57
11 -0.15
12 -0.15
13 0.12
14 0.63
15 -0.15
16 -0.15
17 -0.15
18 -0.15
19 -0.15
2 -0.57
20 0.28
24 0.15
25 0.15
26 0.15
27 0.15
28 0.37
29 0.15
3 -0.57
30 0.15
31 0.15
32 0.15
35 0.15
4 -0.55
5 -0.14
6 0.2
7 -0.15
8 -0.15
9 0.09

>  <PUBCHEM_EFFECTIVE_ROTOR_COUNT>  (1) 
7

>  <PUBCHEM_PHARMACOPHORE_FEATURES>  (1) 
5
1 2 acceptor
1 3 acceptor
1 4 donor
6 13 15 16 17 18 19 rings
6 5 7 8 9 11 12 rings

>  <PUBCHEM_HEAVY_ATOM_COUNT>  (1) 
21

>  <PUBCHEM_ATOM_DEF_STEREO_COUNT>  (1) 
0

>  <PUBCHEM_ATOM_UDEF_STEREO_COUNT>  (1) 
0

>  <PUBCHEM_BOND_DEF_STEREO_COUNT>  (1) 
0

>  <PUBCHEM_BOND_UDEF_STEREO_COUNT>  (1) 
0

>  <PUBCHEM_ISOTOPIC_ATOM_COUNT>  (1) 
0

>  <PUBCHEM_COMPONENT_COUNT>  (1) 
1

>  <PUBCHEM_CACTVS_TAUTO_COUNT>  (1) 
2

>  <PUBCHEM_CONFORMER_ID>  (1) 
0000B66100000003

>  <PUBCHEM_MMFF94_ENERGY>  (1) 
57.7685

>  <PUBCHEM_FEATURE_SELFOVERLAP>  (1) 
25.371

>  <PUBCHEM_SHAPE_FINGERPRINT>  (1) 
10319926 262 10231752327427767429
10498660 4 17894357666143026040
10591671 39 17749114417470004899
10670039 82 17168149967118798052
11961588 58 17603865628257166282
12592606 108 16128650882599055847
12633257 1 9655282748813407696
13551218 46 12823303377110777436
13668630 136 17203618056125367294
13673619 4 17203607095005058289
13685833 64 16415479367469611091
14123256 10 17894346696627389679
14123256 34 16128662946397221076
14251732 14 18410006646422019851
14251752 14 17131838608084999193
14251764 18 11455882590263595633
14251764 30 17346594197119957663
14341114 176 9367343722375024194
14347424 109 10303810973880733310
14528608 73 18186801366129893316
14767858 380 17603861226522439815
15003188 100 18260550065128898796
15183329 4 18340770342779832856
15188451 53 11095580300843538301
15348495 7 9871453327324190694
15537594 2 15339116814724056836
16994733 274 15647321997907915677
17134984 74 18272652355388225990
1813 80 15052016762717567192
19784866 240 16917351445915676833
200 152 17418097585720968888
20157964 124 14707200002966466064
21150785 3 18409167739854904902
21267235 1 15482678978890276108
21298829 104 15864065438966098407
21344244 181 17346606283190370446
21403212 168 11455899048994979253
21521239 73 18410577258660894394
21637258 2 15769769139428892513
22122407 14 13551484639387209390
221357 26 18413672405156904368
2297311 6 18343016701719370881
23035841 295 16702303464350127711
23081809 10 17604140437851010265
23522609 53 16055497130321804393
23559900 14 18335420226689795568
2767999 5 15864069875329808172
2838139 119 16950558870285902364
3103668 31 17607818497383423787
312425 54 10375867468058796404
33382 64 16988846068330297894
3472631 163 16588313808317212470
34797466 226 18411982498386331004
351380 3 15626222407697163668
4259306 186 17275106098496999246
46194498 28 18272928345533424356
465052 167 16271927150843138109
5104073 3 13614519653887916258
5207 217 17240483628521437435
5283384 27 13839978937132342671
559249 180 15339125606954420041
59682541 52 18042118774357199890
7970288 3 15482662468587715228
8863177 126 16558175142148437631
999808 66 17775290504062654535

>  <PUBCHEM_SHAPE_MULTIPOLES>  (1) 
409.58
18.25
1.56
1.46
3.38
0.32
0.19
8.15
-9.28
0.23
-0.19
0.16
-0.17
0.69

>  <PUBCHEM_SHAPE_SELFOVERLAP>  (1) 
865.901

>  <PUBCHEM_SHAPE_VOLUME>  (1) 
229.2

>  <PUBCHEM_COORDINATE_TYPE>  (1) 
2
5
10

$$$$
