4668
     RDKit          3D

 18 17  0  0  0  0  0  0  0  0999 V2000
   -4.0524    1.2157   -0.6763 O   0  0  0  0  0  0  0  0  0  0  0  0
   -4.2405    0.3133    1.3989 O   0  0  0  0  0  0  0  0  0  0  0  0
    0.7085   -2.1550   -0.2081 C   0  0  0  0  0  0  0  0  0  0  0  0
   -0.7184   -2.6209    0.1026 C   0  0  0  0  0  0  0  0  0  0  0  0
    1.7769   -3.1869    0.1696 C   0  0  0  0  0  0  0  0  0  0  0  0
   -1.7920   -1.6272   -0.3491 C   0  0  0  0  0  0  0  0  0  0  0  0
    3.1954   -2.7450   -0.2072 C   0  0  0  0  0  0  0  0  0  0  0  0
   -3.2205   -2.1231   -0.0947 C   0  0  0  0  0  0  0  0  0  0  0  0
    1.9765    1.9784    0.2019 C   0  0  0  0  0  0  0  0  0  0  0  0
    3.4527    2.1309   -0.1797 C   0  0  0  0  0  0  0  0  0  0  0  0
    1.1167    3.1779   -0.2106 C   0  0  0  0  0  0  0  0  0  0  0  0
    4.3180    0.9649    0.3107 C   0  0  0  0  0  0  0  0  0  0  0  0
    3.5852   -1.4323    0.4082 C   0  0  0  0  0  0  0  0  0  0  0  0
   -0.3497    3.1237    0.2247 C   0  0  0  0  0  0  0  0  0  0  0  0
   -4.3202   -1.1535   -0.5174 C   0  0  0  0  0  0  0  0  0  0  0  0
    3.9292   -0.3487   -0.3033 C   0  0  0  0  0  0  0  0  0  0  0  0
   -1.1707    4.3110   -0.2533 C   0  0  0  0  0  0  0  0  0  0  0  0
   -4.1948    0.1769    0.1829 C   0  0  0  0  0  0  0  0  0  0  0  0
  1 18  1  0
  2 18  2  0
  3  4  1  0
  3  5  1  0
  4  6  1  0
  5  7  1  0
  6  8  1  0
  7 13  1  0
  8 15  1  0
  9 10  1  0
  9 11  1  0
 10 12  1  0
 11 14  1  0
 12 16  1  0
 13 16  2  0
 14 17  1  0
 15 18  1  0
M  END
>  <PUBCHEM_COMPOUND_CID>  (1) 
4668

>  <PUBCHEM_CONFORMER_RMSD>  (1) 
1.2

>  <PUBCHEM_CONFORMER_DIVERSEORDER>  (1) 
1
2
82
77
13
31
107
91
34
9
24
20
26
86
73
81
85
99
60
131
32
51
27
41
129
61
72
4
79
101
38
104
40
100
103
65
121
14
125
19
8
75
44
122
113
83
33
64
29
28
25
63
92
43
126
84
96
67
5
98
39
95
108
49
133
12
76
130
66
17
10
16
90
94
59
45
127
93
37
48
53
102
115
118
69
78
6
128
110
62
57
47
68
18
117
36
120
119
50
97
55
71
88
74
30
35
58
132
21
114
89
123
109
80
11
70
46
3
105
42
7
54
15
116
111
87
23
52
22
134
112
56
106
124

>  <PUBCHEM_MMFF94_PARTIAL_CHARGES>  (1) 
11
1 -0.65
12 0.14
13 -0.29
15 0.06
16 -0.29
18 0.66
2 -0.57
39 0.15
44 0.15
48 0.5
7 0.14

>  <PUBCHEM_EFFECTIVE_ROTOR_COUNT>  (1) 
13

>  <PUBCHEM_PHARMACOPHORE_FEATURES>  (1) 
6
1 1 acceptor
1 17 hydrophobe
1 2 acceptor
3 1 2 18 anion
3 10 12 16 hydrophobe
3 9 11 14 hydrophobe

>  <PUBCHEM_HEAVY_ATOM_COUNT>  (1) 
18

>  <PUBCHEM_ATOM_DEF_STEREO_COUNT>  (1) 
0

>  <PUBCHEM_ATOM_UDEF_STEREO_COUNT>  (1) 
0

>  <PUBCHEM_BOND_DEF_STEREO_COUNT>  (1) 
0

>  <PUBCHEM_BOND_UDEF_STEREO_COUNT>  (1) 
1

>  <PUBCHEM_ISOTOPIC_ATOM_COUNT>  (1) 
0

>  <PUBCHEM_COMPONENT_COUNT>  (1) 
1

>  <PUBCHEM_CACTVS_TAUTO_COUNT>  (1) 
1

>  <PUBCHEM_CONFORMER_ID>  (1) 
0000123C00000001

>  <PUBCHEM_MMFF94_ENERGY>  (1) 
0.2879

>  <PUBCHEM_FEATURE_SELFOVERLAP>  (1) 
30.515

>  <PUBCHEM_SHAPE_FINGERPRINT>  (1) 
10708813 3 18342468053242089593
12038231 1 18122343471587380580
14466204 15 18266732674767050904
14940714 1 9336523323956651749
16760501 71 18339654395130068315
17093844 170 18411692206263807032
19930381 70 17689712382688027495
20567600 299 18270677696364071512
20621476 13 18337950198544319436
20621476 7 18339371746804157961
3014063 31 18410854317978156060
338550 245 18263653852956813204
474 4 18410571833494921898
6433294 58 18339640036500587264
653340 110 18268983211929299872

>  <PUBCHEM_SHAPE_MULTIPOLES>  (1) 
358.69
9.45
5.7
0.77
4.82
3.85
-0.09
-1.35
-0.35
-1.39
0.31
0.39
0.04
-0.16

>  <PUBCHEM_SHAPE_SELFOVERLAP>  (1) 
658.171

>  <PUBCHEM_SHAPE_VOLUME>  (1) 
226.5

>  <PUBCHEM_COORDINATE_TYPE>  (1) 
2
5
10

$$$$
