4670
     RDKit          3D

 21 20  0  0  0  0  0  0  0  0999 V2000
    8.0443   -1.6541    0.0109 F   0  0  0  0  0  0  0  0  0  0  0  0
    8.9843   -0.0555    1.1584 F   0  0  0  0  0  0  0  0  0  0  0  0
    9.0440   -0.0147   -1.0198 F   0  0  0  0  0  0  0  0  0  0  0  0
    6.9615    1.6844    0.0555 O   0  0  0  0  0  0  0  0  0  0  0  0
   -3.1764    0.4430   -0.1016 C   0  0  0  0  0  0  0  0  0  0  0  0
   -1.9139   -0.4214   -0.1114 C   0  0  0  0  0  0  0  0  0  0  0  0
   -4.4722   -0.3721   -0.1562 C   0  0  0  0  0  0  0  0  0  0  0  0
   -0.6512    0.4412   -0.0489 C   0  0  0  0  0  0  0  0  0  0  0  0
   -5.7700    0.4416   -0.1282 C   0  0  0  0  0  0  0  0  0  0  0  0
    0.6120   -0.4228   -0.0262 C   0  0  0  0  0  0  0  0  0  0  0  0
   -7.0649   -0.3769   -0.1129 C   0  0  0  0  0  0  0  0  0  0  0  0
    1.8742    0.4418    0.0040 C   0  0  0  0  0  0  0  0  0  0  0  0
   -8.3610    0.4330   -0.0108 C   0  0  0  0  0  0  0  0  0  0  0  0
    3.1707   -0.3732   -0.0034 C   0  0  0  0  0  0  0  0  0  0  0  0
   -9.6183   -0.4369    0.0492 C   0  0  0  0  0  0  0  0  0  0  0  0
    4.4332    0.4907    0.0015 C   0  0  0  0  0  0  0  0  0  0  0  0
  -10.8806    0.4211    0.1442 C   0  0  0  0  0  0  0  0  0  0  0  0
    5.6938   -0.3723   -0.0192 C   0  0  0  0  0  0  0  0  0  0  0  0
  -12.1315   -0.4374    0.2429 C   0  0  0  0  0  0  0  0  0  0  0  0
    6.9659    0.4549    0.0284 C   0  0  0  0  0  0  0  0  0  0  0  0
    8.2563   -0.3145    0.0435 C   0  0  0  0  0  0  0  0  0  0  0  0
  1 21  1  0
  2 21  1  0
  3 21  1  0
  4 20  2  0
  5  6  1  0
  5  7  1  0
  6  8  1  0
  7  9  1  0
  8 10  1  0
  9 11  1  0
 10 12  1  0
 11 13  1  0
 12 14  1  0
 13 15  1  0
 14 16  1  0
 15 17  1  0
 16 18  1  0
 17 19  1  0
 18 20  1  0
 20 21  1  0
M  END
>  <PUBCHEM_COMPOUND_CID>  (1) 
4670

>  <PUBCHEM_CONFORMER_RMSD>  (1) 
1.6

>  <PUBCHEM_CONFORMER_DIVERSEORDER>  (1) 
1
22
26
25
3
31
23
16
18
44
35
38
7
4
43
5
21
42
19
34
41
28
11
33
29
37
15
12
2
17
39
24
20
14
32
6
40
36
13
27
8
9
30
10

>  <PUBCHEM_MMFF94_PARTIAL_CHARGES>  (1) 
7
1 -0.34
18 0.06
2 -0.34
20 0.45
21 1.08
3 -0.34
4 -0.57

>  <PUBCHEM_EFFECTIVE_ROTOR_COUNT>  (1) 
15

>  <PUBCHEM_PHARMACOPHORE_FEATURES>  (1) 
2
1 19 hydrophobe
1 4 acceptor

>  <PUBCHEM_HEAVY_ATOM_COUNT>  (1) 
21

>  <PUBCHEM_ATOM_DEF_STEREO_COUNT>  (1) 
0

>  <PUBCHEM_ATOM_UDEF_STEREO_COUNT>  (1) 
0

>  <PUBCHEM_BOND_DEF_STEREO_COUNT>  (1) 
0

>  <PUBCHEM_BOND_UDEF_STEREO_COUNT>  (1) 
0

>  <PUBCHEM_ISOTOPIC_ATOM_COUNT>  (1) 
0

>  <PUBCHEM_COMPONENT_COUNT>  (1) 
1

>  <PUBCHEM_CACTVS_TAUTO_COUNT>  (1) 
2

>  <PUBCHEM_CONFORMER_ID>  (1) 
0000123E00000001

>  <PUBCHEM_MMFF94_ENERGY>  (1) 
2.3277

>  <PUBCHEM_FEATURE_SELFOVERLAP>  (1) 
10.148

>  <PUBCHEM_SHAPE_FINGERPRINT>  (1) 
14251764 46 18408322190587489291
14251920 1 18410575080368111618
14344974 52 9439392529062637637
15061470 23 18273494564331303169
15510794 2 18334299769192215251
18335252 98 18412545384331578223
21362267 2 18337094766162868757
21362267 20 17676208005173207859
232437 2 18410292510839573671
23521765 1 18341894090834064101
23581129 1 18409449189051203591
33684 2 18410855460133436547
59521270 166 17821721730159928831
67123 10 18410573993751941741
8209 1 18410573985156732412
9663363 56 14405183967564400362

>  <PUBCHEM_SHAPE_MULTIPOLES>  (1) 
404.48
46.55
0.94
0.68
48.25
0.02
-0.02
-2.75
-2.88
-1.14
-0.01
-0.52
0
0.04

>  <PUBCHEM_SHAPE_SELFOVERLAP>  (1) 
750.333

>  <PUBCHEM_SHAPE_VOLUME>  (1) 
254.4

>  <PUBCHEM_COORDINATE_TYPE>  (1) 
2
5
10

$$$$
