46714
     RDKit          3D

 19 21  0  0  0  0  0  0  0  0999 V2000
   -3.8361    0.2550   -0.3178 N   0  0  0  0  0  0  0  0  0  0  0  0
    0.9693    0.8747    0.6977 N   0  0  0  0  0  0  0  0  0  0  0  0
   -3.5791   -1.2353   -0.6216 C   0  0  0  0  0  0  0  0  0  0  0  0
   -5.2829    0.3315    0.2117 C   0  0  0  0  0  0  0  0  0  0  0  0
   -4.9515   -1.8778   -0.5820 C   0  0  0  0  0  0  0  0  0  0  0  0
   -5.6585   -1.1064    0.5106 C   0  0  0  0  0  0  0  0  0  0  0  0
   -2.8560    0.7572    0.7313 C   0  0  0  0  0  0  0  0  0  0  0  0
   -3.6905    1.0908   -1.5801 C   0  0  0  0  0  0  0  0  0  0  0  0
   -1.4232    0.6185    0.2355 C   0  0  0  0  0  0  0  0  0  0  0  0
   -0.3858    1.0602    1.2637 C   0  0  0  0  0  0  0  0  0  0  0  0
    1.5736   -0.2936    0.8949 C   0  0  0  0  0  0  0  0  0  0  0  0
    1.5070    1.8860    0.0244 C   0  0  0  0  0  0  0  0  0  0  0  0
    2.8526   -0.5052    0.3766 C   0  0  0  0  0  0  0  0  0  0  0  0
    3.4666    0.5401   -0.3470 C   0  0  0  0  0  0  0  0  0  0  0  0
    2.7762    1.7463   -0.5189 C   0  0  0  0  0  0  0  0  0  0  0  0
    3.5338   -1.7190    0.5572 C   0  0  0  0  0  0  0  0  0  0  0  0
    4.7533    0.3433   -0.8745 C   0  0  0  0  0  0  0  0  0  0  0  0
    4.8114   -1.8975    0.0264 C   0  0  0  0  0  0  0  0  0  0  0  0
    5.4199   -0.8687   -0.6880 C   0  0  0  0  0  0  0  0  0  0  0  0
  1  3  1  0
  1  4  1  0
  1  7  1  0
  1  8  1  0
  2 10  1  0
  2 11  2  0
  2 12  1  0
  3  5  1  0
  4  6  1  0
  5  6  1  0
  7  9  1  0
  9 10  1  0
 11 13  1  0
 12 15  2  0
 13 14  2  0
 13 16  1  0
 14 15  1  0
 14 17  1  0
 16 18  2  0
 17 19  2  0
 18 19  1  0
M  CHG  2   1   1   2   1
M  END
>  <PUBCHEM_COMPOUND_CID>  (1) 
46714

>  <PUBCHEM_CONFORMER_RMSD>  (1) 
0.6

>  <PUBCHEM_CONFORMER_DIVERSEORDER>  (1) 
7
23
26
13
32
3
25
14
30
19
2
16
18
27
8
31
22
28
21
5
1
15
24
11
20
29
9
17
10
4
12
6

>  <PUBCHEM_MMFF94_PARTIAL_CHARGES>  (1) 
21
1 -1.01
10 0.49
11 0.21
12 0.21
15 -0.15
16 -0.15
17 -0.15
18 -0.15
19 -0.15
2 -0.21
3 0.5
37 0.15
38 0.15
39 0.15
4 0.5
40 0.15
41 0.15
42 0.15
43 0.15
7 0.5
8 0.5

>  <PUBCHEM_EFFECTIVE_ROTOR_COUNT>  (1) 
5

>  <PUBCHEM_PHARMACOPHORE_FEATURES>  (1) 
4
1 1 cation
5 1 3 4 5 6 rings
6 13 14 16 17 18 19 rings
6 2 11 12 13 14 15 rings

>  <PUBCHEM_HEAVY_ATOM_COUNT>  (1) 
19

>  <PUBCHEM_ATOM_DEF_STEREO_COUNT>  (1) 
0

>  <PUBCHEM_ATOM_UDEF_STEREO_COUNT>  (1) 
0

>  <PUBCHEM_BOND_DEF_STEREO_COUNT>  (1) 
0

>  <PUBCHEM_BOND_UDEF_STEREO_COUNT>  (1) 
0

>  <PUBCHEM_ISOTOPIC_ATOM_COUNT>  (1) 
0

>  <PUBCHEM_COMPONENT_COUNT>  (1) 
1

>  <PUBCHEM_CACTVS_TAUTO_COUNT>  (1) 
1

>  <PUBCHEM_CONFORMER_ID>  (1) 
0000B67A00000007

>  <PUBCHEM_MMFF94_ENERGY>  (1) 
58.1093

>  <PUBCHEM_FEATURE_SELFOVERLAP>  (1) 
20.326

>  <PUBCHEM_SHAPE_FINGERPRINT>  (1) 
10498660 4 13912321278695406149
10670039 82 13912598308687304110
11045977 3 12031783678047496492
11089746 13 11458427968066285162
11128504 68 17385726915131746005
11796584 16 18060142011507865999
12236239 1 18272657835122514560
12596602 18 11815890154612262399
12633257 1 14261341470740040027
12670546 177 18113618992855056415
13167823 11 18411418427651816431
13668630 136 18271534130181389182
13955234 65 18057320806553302264
14123255 352 7853572413630862931
1420 369 18060702779554746574
14251764 30 18263088885059729539
14350574 20 18261115188140138193
14576447 43 18410295800763267546
14863182 85 17060349496171305038
15183329 4 18334574599374100621
15188451 53 14835826431652138101
15342816 4 18341339873366885270
15475509 84 9510367065139657678
15537594 2 18272370897089984231
17834072 33 18408324393119806644
17844677 252 18412550920439590201
17857418 61 18343301465886558955
18915474 69 18413107285716951616
193927 3 17846786191174815156
19784866 240 18201164277638061209
200 152 18341615897328685232
20281475 54 18343018895904301529
20567600 247 18412822503742569299
20645477 70 18409453579061687562
20739085 24 11743839175356856618
21315763 191 18272939327769464427
21713013 43 18261101994132571205
221357 26 18113333111632504773
221490 88 18263931101521680698
22393880 68 18041269980975238349
22950370 63 18341615932015360601
23402655 69 18040995090241798076
23503953 91 14045739361373993969
235170 7 17022891342347091503
23522609 53 18054541172966432073
23559900 14 18343012333162878249
23596394 208 17530962471259935874
239999 70 17988646328716526276
26918003 58 12607403286743971429
2767999 5 12252185186023751503
2838139 119 12179845030324579142
3004659 81 18410855460181013394
314173 85 16272209678250438417
341906 21 12468633949903620685
3472631 163 12757449270953358458
34797466 226 15647065866815630655
351380 3 18131633382811637631
4214541 1 18410855434965350785
4340502 62 18059004095153084272
439807 62 18335984255260354131
46194498 28 17676209121088334436
465052 167 18201726166703100486
474 4 10015859886197671644
5104073 3 17632578244776964673
5281201 14 17894347778468882541
559249 180 18201158742021341641
59682541 52 16226314933283456634
602551 16 15913036634500085100
8863177 126 18128255791088200243
960060 61 18040722467561527508
9841814 1 16630525176235610800

>  <PUBCHEM_SHAPE_MULTIPOLES>  (1) 
381.05
14.29
1.96
1.1
6.82
0.31
-0.09
6.58
-2.87
-0.57
-0.12
0.35
-0.18
-0.35

>  <PUBCHEM_SHAPE_SELFOVERLAP>  (1) 
805.177

>  <PUBCHEM_SHAPE_VOLUME>  (1) 
215.2

>  <PUBCHEM_COORDINATE_TYPE>  (1) 
2
5
10

$$$$
