46712
     RDKit          3D

 20 22  0  0  0  0  0  0  0  0999 V2000
    4.6205   -0.2839    0.2481 N   0  0  0  0  0  0  0  0  0  0  0  0
   -1.5629   -0.7022   -0.6067 N   0  0  0  0  0  0  0  0  0  0  0  0
    4.8669    0.6121   -0.9831 C   0  0  0  0  0  0  0  0  0  0  0  0
    5.6051    0.2082    1.3288 C   0  0  0  0  0  0  0  0  0  0  0  0
    3.1845   -0.1393    0.7281 C   0  0  0  0  0  0  0  0  0  0  0  0
    6.1711    1.3251   -0.6845 C   0  0  0  0  0  0  0  0  0  0  0  0
    6.1073    1.5416    0.8115 C   0  0  0  0  0  0  0  0  0  0  0  0
    4.8915   -1.7421   -0.0891 C   0  0  0  0  0  0  0  0  0  0  0  0
    2.2404   -0.5236   -0.4013 C   0  0  0  0  0  0  0  0  0  0  0  0
    0.7826   -0.4380    0.0491 C   0  0  0  0  0  0  0  0  0  0  0  0
   -0.1676   -0.7877   -1.0903 C   0  0  0  0  0  0  0  0  0  0  0  0
   -2.1923    0.4648   -0.7166 C   0  0  0  0  0  0  0  0  0  0  0  0
   -2.1120   -1.7963   -0.0888 C   0  0  0  0  0  0  0  0  0  0  0  0
   -3.5101    0.5837   -0.2712 C   0  0  0  0  0  0  0  0  0  0  0  0
   -4.1368   -0.5516    0.2869 C   0  0  0  0  0  0  0  0  0  0  0  0
   -3.4194   -1.7512    0.3741 C   0  0  0  0  0  0  0  0  0  0  0  0
   -4.2178    1.7924   -0.3648 C   0  0  0  0  0  0  0  0  0  0  0  0
   -5.4623   -0.4487    0.7391 C   0  0  0  0  0  0  0  0  0  0  0  0
   -5.5339    1.8774    0.0899 C   0  0  0  0  0  0  0  0  0  0  0  0
   -6.1548    0.7592    0.6406 C   0  0  0  0  0  0  0  0  0  0  0  0
  1  3  1  0
  1  4  1  0
  1  5  1  0
  1  8  1  0
  2 11  1  0
  2 12  2  0
  2 13  1  0
  3  6  1  0
  4  7  1  0
  5  9  1  0
  6  7  1  0
  9 10  1  0
 10 11  1  0
 12 14  1  0
 13 16  2  0
 14 15  2  0
 14 17  1  0
 15 16  1  0
 15 18  1  0
 17 19  2  0
 18 20  2  0
 19 20  1  0
M  CHG  2   1   1   2   1
M  END
>  <PUBCHEM_COMPOUND_CID>  (1) 
46712

>  <PUBCHEM_CONFORMER_RMSD>  (1) 
0.8

>  <PUBCHEM_CONFORMER_DIVERSEORDER>  (1) 
10
6
13
3
14
20
17
11
5
2
18
19
16
7
22
12
1
8
21
15
4
23
9

>  <PUBCHEM_MMFF94_PARTIAL_CHARGES>  (1) 
21
1 -1.01
11 0.49
12 0.21
13 0.21
16 -0.15
17 -0.15
18 -0.15
19 -0.15
2 -0.21
20 -0.15
3 0.5
4 0.5
40 0.15
41 0.15
42 0.15
43 0.15
44 0.15
45 0.15
46 0.15
5 0.5
8 0.5

>  <PUBCHEM_EFFECTIVE_ROTOR_COUNT>  (1) 
6

>  <PUBCHEM_PHARMACOPHORE_FEATURES>  (1) 
4
1 1 cation
5 1 3 4 6 7 rings
6 14 15 17 18 19 20 rings
6 2 12 13 14 15 16 rings

>  <PUBCHEM_HEAVY_ATOM_COUNT>  (1) 
20

>  <PUBCHEM_ATOM_DEF_STEREO_COUNT>  (1) 
0

>  <PUBCHEM_ATOM_UDEF_STEREO_COUNT>  (1) 
0

>  <PUBCHEM_BOND_DEF_STEREO_COUNT>  (1) 
0

>  <PUBCHEM_BOND_UDEF_STEREO_COUNT>  (1) 
0

>  <PUBCHEM_ISOTOPIC_ATOM_COUNT>  (1) 
0

>  <PUBCHEM_COMPONENT_COUNT>  (1) 
1

>  <PUBCHEM_CACTVS_TAUTO_COUNT>  (1) 
1

>  <PUBCHEM_CONFORMER_ID>  (1) 
0000B6780000000A

>  <PUBCHEM_MMFF94_ENERGY>  (1) 
58.6787

>  <PUBCHEM_FEATURE_SELFOVERLAP>  (1) 
20.326

>  <PUBCHEM_SHAPE_FINGERPRINT>  (1) 
10 15 18260551133995162369
106641 1 18334022714015810259
10670039 82 17274836714138525200
11315181 36 17894350016700406511
117890 112 18412544310320767642
12107183 9 17538270744545131208
12166972 35 10952047875057113226
12236239 1 17603587426293500039
12596602 18 17894912914629190465
12616971 3 16443066131701870206
13167372 99 18408884014943318872
13288520 33 8790884082367812651
13403585 85 18408605872876846289
13533116 47 17988364759113872422
13668630 136 10665222640679897104
1420 363 12612752410760367200
14251764 18 18410014351730375475
14341114 176 18335424543184097260
14341114 328 17894630374774623630
14528608 73 12391513092367327438
14844126 61 17969231208429008115
14848160 23 11530477844184924268
14849402 71 17459478930336634564
14933364 13 18410296908727751276
15183329 4 12607409883824437052
15348495 7 18409164450337347778
15501527 16 18413671305512829531
16079462 125 17918268770917785496
17844677 252 18335426729544049044
17857418 61 11023833855615968988
17870717 6 9943806694954850729
17980427 23 18408044035335701893
1813 80 16008754571832649854
18222031 100 11600005457920649682
19377110 9 17167854275425771408
20281389 69 18411981343082170625
20374829 77 8718823181009803615
20645477 56 18343864416188159455
21033648 29 17917417779077493370
21150785 3 16056592183799847853
21637258 2 13551480284765110905
23081809 10 18271799120852026166
23198884 109 14261632833264248441
23559900 14 18198626519256080926
2838139 119 17703218517061543321
2916195 48 18342173375398546385
29717793 49 11600008760765999688
300161 21 17131826591104023726
3004659 81 18339361869244748170
34797466 226 18059305352348246732
3663271 9 17822290206169294976
4073 2 18040722510865206826
465052 167 11819273343970725402
5104073 3 18187645769290004762
531348 171 12103305771304713371
5364581 5 18120089734812517288
542803 24 18408884044691383870
5718773 13 11242554249422222009
5758199 1 17458346386309919748
59682541 52 14907908124171483884
7495541 125 12179852714421790750
960060 61 13470411102253235728

>  <PUBCHEM_SHAPE_MULTIPOLES>  (1) 
401.63
18.79
1.83
1.02
10.86
0.05
0.04
7.62
3.74
-0.75
-0.03
0.78
0.08
0.27

>  <PUBCHEM_SHAPE_SELFOVERLAP>  (1) 
843.632

>  <PUBCHEM_SHAPE_VOLUME>  (1) 
228

>  <PUBCHEM_COORDINATE_TYPE>  (1) 
2
5
10

$$$$
