46716
     RDKit          3D

 18 19  0  0  0  0  0  0  0  0999 V2000
    4.4541    0.1650   -0.4475 N   0  0  0  0  0  0  0  0  0  0  0  0
   -0.2280   -0.5664    0.8224 N   0  0  0  0  0  0  0  0  0  0  0  0
    3.5532   -0.0924    0.7003 C   0  0  0  0  0  0  0  0  0  0  0  0
    2.1129   -0.2367    0.2286 C   0  0  0  0  0  0  0  0  0  0  0  0
    1.1250   -0.4547    1.3711 C   0  0  0  0  0  0  0  0  0  0  0  0
    4.3841   -0.9819   -1.4665 C   0  0  0  0  0  0  0  0  0  0  0  0
    4.0656    1.4647   -1.1675 C   0  0  0  0  0  0  0  0  0  0  0  0
    5.9113    0.2976    0.0190 C   0  0  0  0  0  0  0  0  0  0  0  0
   -0.9829    0.5297    0.6733 C   0  0  0  0  0  0  0  0  0  0  0  0
   -2.2741    0.4314    0.1509 C   0  0  0  0  0  0  0  0  0  0  0  0
   -0.6582   -1.7882    0.4877 C   0  0  0  0  0  0  0  0  0  0  0  0
   -2.7578   -0.8441   -0.2125 C   0  0  0  0  0  0  0  0  0  0  0  0
   -1.9309   -1.9609   -0.0375 C   0  0  0  0  0  0  0  0  0  0  0  0
   -0.3916    1.8405    1.0828 C   0  0  0  0  0  0  0  0  0  0  0  0
   -3.0921    1.5592   -0.0189 C   0  0  0  0  0  0  0  0  0  0  0  0
   -4.0547   -0.9595   -0.7393 C   0  0  0  0  0  0  0  0  0  0  0  0
   -4.3778    1.4267   -0.5435 C   0  0  0  0  0  0  0  0  0  0  0  0
   -4.8582    0.1699   -0.9029 C   0  0  0  0  0  0  0  0  0  0  0  0
  1  3  1  0
  1  6  1  0
  1  7  1  0
  1  8  1  0
  2  5  1  0
  2  9  2  0
  2 11  1  0
  3  4  1  0
  4  5  1  0
  9 10  1  0
  9 14  1  0
 10 12  2  0
 10 15  1  0
 11 13  2  0
 12 13  1  0
 12 16  1  0
 15 17  2  0
 16 18  2  0
 17 18  1  0
M  CHG  2   1   1   2   1
M  END
>  <PUBCHEM_COMPOUND_CID>  (1) 
46716

>  <PUBCHEM_CONFORMER_RMSD>  (1) 
0.6

>  <PUBCHEM_CONFORMER_DIVERSEORDER>  (1) 
2
5
6
3
1
4

>  <PUBCHEM_MMFF94_PARTIAL_CHARGES>  (1) 
21
1 -1.01
11 0.21
13 -0.15
14 0.14
15 -0.15
16 -0.15
17 -0.15
18 -0.15
2 -0.21
3 0.5
34 0.15
35 0.15
39 0.15
40 0.15
41 0.15
42 0.15
5 0.49
6 0.5
7 0.5
8 0.5
9 0.22

>  <PUBCHEM_EFFECTIVE_ROTOR_COUNT>  (1) 
4

>  <PUBCHEM_PHARMACOPHORE_FEATURES>  (1) 
3
1 1 cation
6 10 12 15 16 17 18 rings
6 2 9 10 11 12 13 rings

>  <PUBCHEM_HEAVY_ATOM_COUNT>  (1) 
18

>  <PUBCHEM_ATOM_DEF_STEREO_COUNT>  (1) 
0

>  <PUBCHEM_ATOM_UDEF_STEREO_COUNT>  (1) 
0

>  <PUBCHEM_BOND_DEF_STEREO_COUNT>  (1) 
0

>  <PUBCHEM_BOND_UDEF_STEREO_COUNT>  (1) 
0

>  <PUBCHEM_ISOTOPIC_ATOM_COUNT>  (1) 
0

>  <PUBCHEM_COMPONENT_COUNT>  (1) 
1

>  <PUBCHEM_CACTVS_TAUTO_COUNT>  (1) 
1

>  <PUBCHEM_CONFORMER_ID>  (1) 
0000B67C00000002

>  <PUBCHEM_MMFF94_ENERGY>  (1) 
68.4267

>  <PUBCHEM_FEATURE_SELFOVERLAP>  (1) 
15.251

>  <PUBCHEM_SHAPE_FINGERPRINT>  (1) 
10447042 23 16702302326621585838
10498660 4 18409727335560401512
11089746 13 17821444677817715332
11315181 36 17989210361075507536
11796584 16 14764624218557560109
12236239 1 17895185602340066714
12251169 10 8718825392569931498
12390115 104 18129667371029495129
12596602 18 8502366737464484012
12633257 1 12685099210943043988
12670546 177 18412544327295162132
12892183 10 9367350314690757804
13675066 3 11314307226376007320
1420 369 12319740267208656596
14386348 63 17418092139633923858
14790565 3 18126573319207203705
14911166 2 18342731927685264817
15183329 4 18335140839668323998
15342168 16 15936419943887872310
16945 1 18196908090498757531
17870717 6 18060146435361110815
17959699 21 18186802512918076348
1813 80 13901916643270048056
19784866 240 14405185092392125041
19862831 5 18409451388369923360
200 152 15698282200721560226
20300324 65 18273496766757676977
20325693 3 18413670210507191615
20374829 77 17774997990233606450
204376 136 15646774478911723243
20645476 183 18186515527472100603
20645477 70 16128656371124030936
20871999 31 18342736321320809465
21267235 1 18271236240815671263
21637258 2 14764330649158522733
22079108 93 16298111994826514681
22646028 28 12679463088458328062
22854114 59 13551188874938240010
23175994 123 16702299087936533537
23227448 37 18041565852687574316
23366157 5 17827349978382169931
23379529 103 17126742599640555607
23402539 116 18413384328693692196
23402655 69 18187086174375616220
23557571 272 18201998837513773600
23559900 14 18201714102799563496
24859131 72 9583525321492118945
2748010 2 17906992313271661075
2838139 119 16733804425388762341
3004659 81 18339078190860234722
3472631 163 18187086165216106388
351380 3 13183020718108591556
3759504 43 17821449071200325779
4028521 119 18410293596964983694
42 15 10159700200708932600
474 4 17095243635597124096
4990 188 18059850658101041210
5104073 3 8574709100808865374
5283173 99 18343015575884447976
56616090 284 17917993862555751602
57724786 102 15502668139243782078
58807428 26 9222962516561901877
9709674 26 18055903544643827465

>  <PUBCHEM_SHAPE_MULTIPOLES>  (1) 
360.47
11.51
1.79
1.19
10.06
0
-0.06
1.86
-4.9
-1.09
0
0.66
0.04
-0.09

>  <PUBCHEM_SHAPE_SELFOVERLAP>  (1) 
750.958

>  <PUBCHEM_SHAPE_VOLUME>  (1) 
207.3

>  <PUBCHEM_COORDINATE_TYPE>  (1) 
2
5
10

$$$$
