46724
     RDKit          3D

 19 20  0  0  1  0  0  0  0  0999 V2000
    0.1853    1.1110   -0.0212 N   0  0  0  0  0  0  0  0  0  0  0  0
   -4.5331   -0.4917   -0.1296 N   0  0  0  0  0  0  0  0  0  0  0  0
    0.6777   -0.3299    0.3320 C   0  0  0  0  0  0  0  0  0  0  0  0
    1.1514    2.1456    0.5622 C   0  0  0  0  0  0  0  0  0  0  0  0
   -1.2184    1.3930    0.5278 C   0  0  0  0  0  0  0  0  0  0  0  0
    2.5674    1.9631    0.0274 C   0  0  0  0  0  0  0  0  0  0  0  0
    2.1573   -0.5451    0.0643 C   0  0  0  0  0  0  0  0  0  0  0  0
    0.0832    1.2574   -1.5499 C   0  0  0  0  0  0  0  0  0  0  0  0
   -2.2253    0.3918   -0.0283 C   0  0  0  0  0  0  0  0  0  0  0  0
    3.0483    0.5377   -0.0228 C   0  0  0  0  0  0  0  0  0  0  0  0
   -3.6552    0.5321    0.4833 C   0  0  0  0  0  0  0  0  0  0  0  0
    0.3692   -0.6960    1.7939 C   0  0  0  0  0  0  0  0  0  0  0  0
    2.6518   -1.8536   -0.0705 C   0  0  0  0  0  0  0  0  0  0  0  0
    4.4125    0.2918   -0.2454 C   0  0  0  0  0  0  0  0  0  0  0  0
   -5.9903   -0.3023    0.3171 C   0  0  0  0  0  0  0  0  0  0  0  0
   -4.4908   -0.4026   -1.6623 C   0  0  0  0  0  0  0  0  0  0  0  0
   -4.0920   -1.9058    0.2762 C   0  0  0  0  0  0  0  0  0  0  0  0
    4.0099   -2.0847   -0.2843 C   0  0  0  0  0  0  0  0  0  0  0  0
    4.8909   -1.0118   -0.3697 C   0  0  0  0  0  0  0  0  0  0  0  0
  1  3  1  0
  1  4  1  0
  1  5  1  0
  1  8  1  0
  2 11  1  0
  2 15  1  0
  2 16  1  0
  2 17  1  0
  3  7  1  0
  3 12  1  0
  4  6  1  0
  5  9  1  0
  6 10  1  0
  7 10  2  0
  7 13  1  0
  9 11  1  0
 10 14  1  0
 13 18  2  0
 14 19  2  0
 18 19  1  0
M  CHG  2   1   1   2   1
M  END
>  <PUBCHEM_COMPOUND_CID>  (1) 
46724

>  <PUBCHEM_CONFORMER_RMSD>  (1) 
0.6

>  <PUBCHEM_CONFORMER_DIVERSEORDER>  (1) 
19
25
23
12
17
11
7
26
1
13
15
21
2
8
3
5
24
16
14
22
10
20
9
4
6
18

>  <PUBCHEM_MMFF94_PARTIAL_CHARGES>  (1) 
21
1 -1.01
10 -0.14
11 0.5
13 -0.15
14 -0.15
15 0.5
16 0.5
17 0.5
18 -0.15
19 -0.15
2 -1.01
3 0.65
37 0.15
38 0.15
4 0.5
48 0.15
49 0.15
5 0.5
6 0.14
7 -0.14
8 0.5

>  <PUBCHEM_EFFECTIVE_ROTOR_COUNT>  (1) 
4.8

>  <PUBCHEM_PHARMACOPHORE_FEATURES>  (1) 
4
1 1 cation
1 2 cation
6 1 3 4 6 7 10 rings
6 7 10 13 14 18 19 rings

>  <PUBCHEM_HEAVY_ATOM_COUNT>  (1) 
19

>  <PUBCHEM_ATOM_DEF_STEREO_COUNT>  (1) 
0

>  <PUBCHEM_ATOM_UDEF_STEREO_COUNT>  (1) 
2

>  <PUBCHEM_BOND_DEF_STEREO_COUNT>  (1) 
0

>  <PUBCHEM_BOND_UDEF_STEREO_COUNT>  (1) 
0

>  <PUBCHEM_ISOTOPIC_ATOM_COUNT>  (1) 
0

>  <PUBCHEM_COMPONENT_COUNT>  (1) 
1

>  <PUBCHEM_CACTVS_TAUTO_COUNT>  (1) 
1

>  <PUBCHEM_CONFORMER_ID>  (1) 
0000B68400000013

>  <PUBCHEM_MMFF94_ENERGY>  (1) 
75.3999

>  <PUBCHEM_FEATURE_SELFOVERLAP>  (1) 
20.317

>  <PUBCHEM_SHAPE_FINGERPRINT>  (1) 
108634 29 17679028341959061979
11578080 2 16986581220617250554
11806522 49 18409451375384911536
12107183 9 17695922029182271001
12236239 1 17989209252704978089
12507557 5 12535624986414484787
12596602 18 15554436422922591647
12633257 1 15769779091570003675
12916748 109 11241970352596013341
13167823 11 18272933830037109213
13533116 47 18271526489819320961
13544653 18 18410582764164909025
13675066 3 11527948975930734297
13685833 64 18409453596500312123
13862211 1 18336828590043314498
14341114 176 18343027692065752417
14576447 43 18413389813472495614
15188451 53 15123207971910656469
15209294 21 9439395818084563227
15238133 3 15913343381364981019
15477762 27 18412266112699541880
15788980 27 17989205954159551685
15848700 24 18334859394566181392
15848702 151 18410576158473500807
16945 1 18190483622429935992
17357779 13 17894624838229775589
17834072 33 18343584044564428037
18186145 218 17894907451778637385
193927 3 18272944794767180983
200 152 18343585126838041128
20261772 1 17704067399867035670
20645477 70 18334857246491689841
21267235 1 18341622498619539902
221357 26 18335415760429813565
221490 88 18336834211474821691
22393880 68 17968083236357598027
23402539 116 18336547110233189458
23557571 272 14764083228740261873
23559900 14 18338232781564882264
23596394 208 18040987419435111967
2871803 45 18114178609892627089
314194 84 18272087197225248983
3286 77 18411418389124133620
3323516 105 18334574650586511194
351380 3 18202562869693620687
4214541 1 18412264996024226569
4259306 186 18411415090172265823
42630746 31 18343298210866039424
46194498 28 17386288813219185013
465052 167 18131637789421703399
4990 188 18186237333496430449
5104073 3 18272931583542614304
5281201 14 17967249802085305269
542803 24 13767924611711855983
602551 16 15410602735571547821
6786 2 11118233749015651168
7495541 125 17203604934525504635
76465 3 18190457160988784354
83771 10 18343018857027978000
9709674 26 18189620621486674147

>  <PUBCHEM_SHAPE_MULTIPOLES>  (1) 
381.05
11.25
2.09
1.14
10.51
0.01
0.12
-5.06
1.64
-1.44
-0.06
0.63
0.02
0.13

>  <PUBCHEM_SHAPE_SELFOVERLAP>  (1) 
767.269

>  <PUBCHEM_SHAPE_VOLUME>  (1) 
225.3

>  <PUBCHEM_COORDINATE_TYPE>  (1) 
2
5
10

$$$$
