46726
     RDKit          3D

 19 20  0  0  1  0  0  0  0  0999 V2000
   -0.2741    1.1808    0.4083 N   0  0  0  0  0  0  0  0  0  0  0  0
    4.2232   -0.8466   -0.2741 N   0  0  0  0  0  0  0  0  0  0  0  0
    0.5993    0.4642   -0.6208 C   0  0  0  0  0  0  0  0  0  0  0  0
   -0.4514    0.3483    1.6796 C   0  0  0  0  0  0  0  0  0  0  0  0
   -1.6594    1.5013   -0.1774 C   0  0  0  0  0  0  0  0  0  0  0  0
    0.4223    2.4931    0.7771 C   0  0  0  0  0  0  0  0  0  0  0  0
    1.9740    0.1543   -0.0379 C   0  0  0  0  0  0  0  0  0  0  0  0
   -1.1770   -0.9637    1.3924 C   0  0  0  0  0  0  0  0  0  0  0  0
   -2.6164    0.3409   -0.2362 C   0  0  0  0  0  0  0  0  0  0  0  0
    2.9270   -0.6098   -0.9511 C   0  0  0  0  0  0  0  0  0  0  0  0
   -2.4114   -0.8084    0.5441 C   0  0  0  0  0  0  0  0  0  0  0  0
    0.5976    3.3317   -0.4700 C   0  0  0  0  0  0  0  0  0  0  0  0
   -3.7634    0.4374   -1.0369 C   0  0  0  0  0  0  0  0  0  0  0  0
   -3.3401   -1.8577    0.4821 C   0  0  0  0  0  0  0  0  0  0  0  0
    5.2157   -1.5411   -1.2183 C   0  0  0  0  0  0  0  0  0  0  0  0
    4.8514    0.4778    0.1846 C   0  0  0  0  0  0  0  0  0  0  0  0
    4.0405   -1.7389    0.9624 C   0  0  0  0  0  0  0  0  0  0  0  0
   -4.6853   -0.6077   -1.0827 C   0  0  0  0  0  0  0  0  0  0  0  0
   -4.4725   -1.7560   -0.3252 C   0  0  0  0  0  0  0  0  0  0  0  0
  1  3  1  0
  1  4  1  0
  1  5  1  0
  1  6  1  0
  2 10  1  0
  2 15  1  0
  2 16  1  0
  2 17  1  0
  3  7  1  0
  4  8  1  0
  5  9  1  0
  6 12  1  0
  7 10  1  0
  8 11  1  0
  9 11  2  0
  9 13  1  0
 11 14  1  0
 13 18  2  0
 14 19  2  0
 18 19  1  0
M  CHG  2   1   1   2   1
M  END
>  <PUBCHEM_COMPOUND_CID>  (1) 
46726

>  <PUBCHEM_CONFORMER_RMSD>  (1) 
0.8

>  <PUBCHEM_CONFORMER_DIVERSEORDER>  (1) 
4
17
15
10
18
11
19
3
5
8
16
13
7
6
12
1
9
20
2
14

>  <PUBCHEM_MMFF94_PARTIAL_CHARGES>  (1) 
21
1 -1.01
10 0.5
11 -0.14
13 -0.15
14 -0.15
15 0.5
16 0.5
17 0.5
18 -0.15
19 -0.15
2 -1.01
3 0.5
37 0.15
38 0.15
4 0.5
48 0.15
49 0.15
5 0.65
6 0.5
8 0.14
9 -0.14

>  <PUBCHEM_EFFECTIVE_ROTOR_COUNT>  (1) 
5.8

>  <PUBCHEM_PHARMACOPHORE_FEATURES>  (1) 
4
1 1 cation
1 2 cation
6 1 4 5 8 9 11 rings
6 9 11 13 14 18 19 rings

>  <PUBCHEM_HEAVY_ATOM_COUNT>  (1) 
19

>  <PUBCHEM_ATOM_DEF_STEREO_COUNT>  (1) 
0

>  <PUBCHEM_ATOM_UDEF_STEREO_COUNT>  (1) 
1

>  <PUBCHEM_BOND_DEF_STEREO_COUNT>  (1) 
0

>  <PUBCHEM_BOND_UDEF_STEREO_COUNT>  (1) 
0

>  <PUBCHEM_ISOTOPIC_ATOM_COUNT>  (1) 
0

>  <PUBCHEM_COMPONENT_COUNT>  (1) 
1

>  <PUBCHEM_CACTVS_TAUTO_COUNT>  (1) 
1

>  <PUBCHEM_CONFORMER_ID>  (1) 
0000B68600000004

>  <PUBCHEM_MMFF94_ENERGY>  (1) 
71.9445

>  <PUBCHEM_FEATURE_SELFOVERLAP>  (1) 
20.318

>  <PUBCHEM_SHAPE_FINGERPRINT>  (1) 
10922049 32 9079118868886720800
11315181 36 18040725745186070158
12251169 10 12103843471161323267
12363563 72 18341623611168868726
12403259 118 12031786937748728794
12553582 1 18266481887031048066
12596602 18 14405174097318402943
12788726 201 18117841001810871712
12892183 10 12751243601112834093
12916754 54 17987805103584392116
13134695 92 17917142922503629849
13544653 18 17918276454339971160
13955234 65 17910395327213135113
14123255 52 8574714581002323214
14341114 328 13902186010607330726
14790565 3 17689711961781934049
15209294 21 9511463329360181055
15309172 13 10519982638885899008
15534591 1 11386371473402939041
17834072 14 18411699893901442452
17870717 6 18261682492969286991
1798214 20 18334292067714349658
1813 80 17632028514838680204
18186145 218 17895461648873714909
18222031 100 18060698403320506982
193927 3 17988373623414369766
19784866 170 10807946980642357003
19784866 240 17703509986859603751
19784866 34 11097850813206610020
19862831 5 17530966877891106618
200 152 18060701680143261166
20374829 77 18410005538014599799
20671657 53 18412268367119775805
20871999 31 18259982647997772965
21029758 11 18409728482211233081
21250096 35 18409727361382985346
21524375 3 8070018961097052465
221490 88 18118688952903638403
23114952 82 17970912399803186109
231179 274 11746928780864902223
23175994 123 18410859871439441621
23402539 116 18339923718778907540
23403322 49 18410856559914460111
23419403 2 17773569715997545536
23526113 38 18115311214291255745
23557571 272 18058173817291525772
23559900 14 18334572482055599888
25 1 11963387453445579572
27216 239 10231751184961179159
2838139 119 12540962011170859079
2916195 48 11891345282825304542
3004659 81 17749664096185647218
347723 3 17168139022982828169
394222 165 14259082133496140931
463206 1 18408885156920024515
5104073 3 17988360361177650970
5283173 99 18187636969097473124
633830 44 10953731218684186648
6442390 28 9727630630938011244
81228 2 18124053238218314816
9709674 26 18045779254787267379

>  <PUBCHEM_SHAPE_MULTIPOLES>  (1) 
381.05
10.23
2.57
1.28
6.21
1.87
0.2
-7.3
-3.37
0.39
0.06
0.03
-0.21
0.45

>  <PUBCHEM_SHAPE_SELFOVERLAP>  (1) 
766.571

>  <PUBCHEM_SHAPE_VOLUME>  (1) 
224.2

>  <PUBCHEM_COORDINATE_TYPE>  (1) 
2
5
10

$$$$
