46728
     RDKit          3D

 20 22  0  0  1  0  0  0  0  0999 V2000
   -3.7800    0.1264    0.3224 N   0  0  0  0  0  0  0  0  0  0  0  0
    0.9913    1.5405   -0.2702 N   0  0  0  0  0  0  0  0  0  0  0  0
   -2.4246    0.1309    1.0127 C   0  0  0  0  0  0  0  0  0  0  0  0
   -3.7169   -0.7026   -0.9769 C   0  0  0  0  0  0  0  0  0  0  0  0
   -4.8372   -0.5633    1.2089 C   0  0  0  0  0  0  0  0  0  0  0  0
    0.0303    0.8854    0.7211 C   0  0  0  0  0  0  0  0  0  0  0  0
   -1.3775    0.8135    0.1389 C   0  0  0  0  0  0  0  0  0  0  0  0
   -4.9412   -1.5950   -0.9231 C   0  0  0  0  0  0  0  0  0  0  0  0
   -5.0707   -1.9089    0.5512 C   0  0  0  0  0  0  0  0  0  0  0  0
    1.0423    0.7803   -1.5971 C   0  0  0  0  0  0  0  0  0  0  0  0
    2.4110    1.6211    0.3151 C   0  0  0  0  0  0  0  0  0  0  0  0
   -4.1944    1.5588    0.0229 C   0  0  0  0  0  0  0  0  0  0  0  0
    0.4863    2.9600   -0.5399 C   0  0  0  0  0  0  0  0  0  0  0  0
    1.5758   -0.6376   -1.4093 C   0  0  0  0  0  0  0  0  0  0  0  0
    3.1939    0.3359    0.2819 C   0  0  0  0  0  0  0  0  0  0  0  0
    2.8240   -0.7168   -0.5707 C   0  0  0  0  0  0  0  0  0  0  0  0
    4.3471    0.2143    1.0704 C   0  0  0  0  0  0  0  0  0  0  0  0
    3.5947   -1.8884   -0.5931 C   0  0  0  0  0  0  0  0  0  0  0  0
    5.1116   -0.9512    1.0323 C   0  0  0  0  0  0  0  0  0  0  0  0
    4.7341   -2.0032    0.2026 C   0  0  0  0  0  0  0  0  0  0  0  0
  1  3  1  0
  1  4  1  0
  1  5  1  0
  1 12  1  0
  2  6  1  0
  2 10  1  0
  2 11  1  0
  2 13  1  0
  3  7  1  0
  4  8  1  0
  5  9  1  0
  6  7  1  0
  8  9  1  0
 10 14  1  0
 11 15  1  0
 14 16  1  0
 15 16  2  0
 15 17  1  0
 16 18  1  0
 17 19  2  0
 18 20  2  0
 19 20  1  0
M  CHG  2   1   1   2   1
M  END
>  <PUBCHEM_COMPOUND_CID>  (1) 
46728

>  <PUBCHEM_CONFORMER_RMSD>  (1) 
0.8

>  <PUBCHEM_CONFORMER_DIVERSEORDER>  (1) 
8
32
2
20
31
12
6
10
27
18
15
23
30
24
1
4
25
7
29
3
16
9
5
13
28
21
14
19
11
17
26
22

>  <PUBCHEM_MMFF94_PARTIAL_CHARGES>  (1) 
21
1 -1.01
10 0.5
11 0.65
12 0.5
13 0.5
14 0.14
15 -0.14
16 -0.14
17 -0.15
18 -0.15
19 -0.15
2 -1.01
20 -0.15
3 0.5
4 0.5
47 0.15
48 0.15
49 0.15
5 0.5
50 0.15
6 0.5

>  <PUBCHEM_EFFECTIVE_ROTOR_COUNT>  (1) 
5.8

>  <PUBCHEM_PHARMACOPHORE_FEATURES>  (1) 
5
1 1 cation
1 2 cation
5 1 4 5 8 9 rings
6 15 16 17 18 19 20 rings
6 2 10 11 14 15 16 rings

>  <PUBCHEM_HEAVY_ATOM_COUNT>  (1) 
20

>  <PUBCHEM_ATOM_DEF_STEREO_COUNT>  (1) 
0

>  <PUBCHEM_ATOM_UDEF_STEREO_COUNT>  (1) 
1

>  <PUBCHEM_BOND_DEF_STEREO_COUNT>  (1) 
0

>  <PUBCHEM_BOND_UDEF_STEREO_COUNT>  (1) 
0

>  <PUBCHEM_ISOTOPIC_ATOM_COUNT>  (1) 
0

>  <PUBCHEM_COMPONENT_COUNT>  (1) 
1

>  <PUBCHEM_CACTVS_TAUTO_COUNT>  (1) 
1

>  <PUBCHEM_CONFORMER_ID>  (1) 
0000B68800000008

>  <PUBCHEM_MMFF94_ENERGY>  (1) 
67.7764

>  <PUBCHEM_FEATURE_SELFOVERLAP>  (1) 
25.392

>  <PUBCHEM_SHAPE_FINGERPRINT>  (1) 
10670039 82 11530472329241870255
11405975 8 18342182154992688369
11595378 159 14979693069374761203
11796584 16 18041274379058809427
12363563 72 18261121759070985232
12390115 104 9655288280773729577
12596602 18 16917065585719679274
12633257 1 15697991951079256067
12892183 10 17632573812813793776
13083527 12 18410291419860274140
13167823 11 18412544318894995019
13533116 47 18337392772467363171
13544653 18 18342175552973612080
13583140 156 17059762356614295745
13899415 180 18186793699539703301
14178342 30 17916039966258990521
1420 369 18412830187465182227
14251740 57 17917723404323610742
14251751 18 18410012169602626859
14251764 75 12533625060257537386
14341114 328 15626220234275082282
146900 427 17060054929817901376
14848178 5 18260827098618814707
14848178 96 9223232935823079687
15183329 4 12540689293663671546
15210252 30 9151166559057800630
15239154 128 8862944978723901315
15352361 1 18409449180556351075
15788980 27 18408041801662563123
15848700 24 18113056021901480776
1601671 61 10952047849297618546
16752209 62 15430304815757869413
17349148 13 18343590667551652683
17492 89 18338238275360621643
17834072 14 18412263917348780944
17857418 61 18130783503858621655
1813 80 17967253083398030428
18186145 218 15647063685030299021
18222031 100 18412832373977842140
19141452 34 18341334375513691369
193927 3 18333740112729240499
19862831 5 13551188896560873557
20028762 73 18131629001993333110
20612939 158 8574444127085994696
20626108 58 18411694413438880921
20645477 70 18113903800979622576
20775530 9 16809813509598815666
21069387 34 18334018315030503409
21120745 212 11305380261838944588
21250096 35 18261671484830593338
21637258 2 17458898250725962154
221357 26 12757157883044214991
22224240 67 18271234032980552048
22620623 9 17023737888690108612
23402539 116 18408880707180009080
23559900 14 18341891844835531664
25 1 8502367837266501748
26918003 58 18059571343582798121
2838139 119 8934412114033987826
3009799 131 12179848282737954754
312423 11 18189068619584380981
3286 77 18260550069286391285
339767 52 18342449314526714639
427121 178 14261357968057558044
439807 62 17913191338655693071
463206 1 18113903762272709075
465052 167 18342742910254432646
5104073 3 18272657865630255041
559249 180 18337951195767886475
6442390 28 10735867383350393316
7064713 232 17060625494769605783
76465 3 18408602552260419460
7808743 9 10807349920180191626
960060 61 15502373418050171602
9709674 26 18262524813692030275

>  <PUBCHEM_SHAPE_MULTIPOLES>  (1) 
401.63
12.52
2.36
1.29
6.48
0.63
0.17
-8.04
-2.88
-0.26
0.32
0.01
-0.13
-0.09

>  <PUBCHEM_SHAPE_SELFOVERLAP>  (1) 
824.692

>  <PUBCHEM_SHAPE_VOLUME>  (1) 
231.9

>  <PUBCHEM_COORDINATE_TYPE>  (1) 
2
5
10

$$$$
