46738
     RDKit          3D

 23 25  0  0  1  0  0  0  0  0999 V2000
    6.8416   -1.6797   -0.1637 Cl  0  0  0  0  0  0  0  0  0  0  0  0
   -4.2119   -0.4601   -1.5872 O   0  0  0  0  0  0  0  0  0  0  0  0
   -4.2085   -2.6177    0.1215 O   0  0  0  0  0  0  0  0  0  0  0  0
   -0.6050    2.7685   -0.0242 N   0  0  0  0  0  0  0  0  0  0  0  0
   -0.5590    1.6843    0.9939 C   0  0  0  0  0  0  0  0  0  0  0  0
   -1.5453    0.5391    0.7498 C   0  0  0  0  0  0  0  0  0  0  0  0
   -1.9661    3.0172   -0.5136 C   0  0  0  0  0  0  0  0  0  0  0  0
    0.8775    1.1285    1.0365 C   0  0  0  0  0  0  0  0  0  0  0  0
   -2.4906    1.7759   -1.2281 C   0  0  0  0  0  0  0  0  0  0  0  0
   -2.4641    0.5863   -0.3129 C   0  0  0  0  0  0  0  0  0  0  0  0
    1.2465    0.4894   -0.2944 C   0  0  0  0  0  0  0  0  0  0  0  0
   -0.0437    4.0227    0.4926 C   0  0  0  0  0  0  0  0  0  0  0  0
   -1.5863   -0.5633    1.6212 C   0  0  0  0  0  0  0  0  0  0  0  0
   -3.3452   -0.4825   -0.5326 C   0  0  0  0  0  0  0  0  0  0  0  0
   -3.3499   -1.5803    0.3245 C   0  0  0  0  0  0  0  0  0  0  0  0
   -2.4772   -1.6163    1.4068 C   0  0  0  0  0  0  0  0  0  0  0  0
    2.6516   -0.0549   -0.2607 C   0  0  0  0  0  0  0  0  0  0  0  0
    3.7078    0.7604   -0.6396 C   0  0  0  0  0  0  0  0  0  0  0  0
    2.8664   -1.3630    0.1478 C   0  0  0  0  0  0  0  0  0  0  0  0
    5.0081    0.2562   -0.6096 C   0  0  0  0  0  0  0  0  0  0  0  0
    4.1666   -1.8672    0.1781 C   0  0  0  0  0  0  0  0  0  0  0  0
    5.2375   -1.0575   -0.2005 C   0  0  0  0  0  0  0  0  0  0  0  0
   -3.7508   -3.6859   -0.7056 C   0  0  0  0  0  0  0  0  0  0  0  0
  1 22  1  0
  2 14  1  0
  3 15  1  0
  3 23  1  0
  4  5  1  0
  4  7  1  0
  4 12  1  0
  5  6  1  0
  5  8  1  0
  6 10  2  0
  6 13  1  0
  7  9  1  0
  8 11  1  0
  9 10  1  0
 10 14  1  0
 11 17  1  0
 13 16  2  0
 14 15  2  0
 15 16  1  0
 17 18  2  0
 17 19  1  0
 18 20  1  0
 19 21  2  0
 20 22  2  0
 21 22  1  0
M  END
>  <PUBCHEM_COMPOUND_CID>  (1) 
46738

>  <PUBCHEM_CONFORMER_RMSD>  (1) 
0.8

>  <PUBCHEM_CONFORMER_DIVERSEORDER>  (1) 
1
11
9
14
5
3
13
7
10
15
2
4
6
8
12

>  <PUBCHEM_MMFF94_PARTIAL_CHARGES>  (1) 
29
1 -0.18
10 -0.14
11 0.14
12 0.27
13 -0.15
14 0.08
15 0.08
16 -0.15
17 -0.14
18 -0.15
19 -0.15
2 -0.53
20 -0.15
21 -0.15
22 0.18
23 0.28
3 -0.36
36 0.15
37 0.15
38 0.15
39 0.15
4 -0.81
40 0.45
41 0.15
42 0.15
5 0.41
6 -0.14
7 0.27
9 0.14

>  <PUBCHEM_EFFECTIVE_ROTOR_COUNT>  (1) 
4.8

>  <PUBCHEM_PHARMACOPHORE_FEATURES>  (1) 
6
1 2 donor
1 3 acceptor
1 4 cation
6 17 18 19 20 21 22 rings
6 4 5 6 7 9 10 rings
6 6 10 13 14 15 16 rings

>  <PUBCHEM_HEAVY_ATOM_COUNT>  (1) 
23

>  <PUBCHEM_ATOM_DEF_STEREO_COUNT>  (1) 
0

>  <PUBCHEM_ATOM_UDEF_STEREO_COUNT>  (1) 
1

>  <PUBCHEM_BOND_DEF_STEREO_COUNT>  (1) 
0

>  <PUBCHEM_BOND_UDEF_STEREO_COUNT>  (1) 
0

>  <PUBCHEM_ISOTOPIC_ATOM_COUNT>  (1) 
0

>  <PUBCHEM_COMPONENT_COUNT>  (1) 
1

>  <PUBCHEM_CACTVS_TAUTO_COUNT>  (1) 
3

>  <PUBCHEM_CONFORMER_ID>  (1) 
0000B69200000001

>  <PUBCHEM_MMFF94_ENERGY>  (1) 
72.4514

>  <PUBCHEM_FEATURE_SELFOVERLAP>  (1) 
30.468

>  <PUBCHEM_SHAPE_FINGERPRINT>  (1) 
10616163 171 18338519625609382806
10622 236 17197685318979466319
11045515 52 18260548939283205205
11370993 144 10519716578879083948
11578080 2 17774993622463526705
12363563 72 18340775921894754030
12553582 1 18410017649505824882
12788726 201 18262230002541347825
12892183 10 12895081725069831541
13544653 18 18336835285306257704
13583140 156 17844797110911880658
13631057 29 18410856551720112370
13911987 19 17323260567208829972
14251740 79 18040435464571731170
14251757 5 18335414626426747605
14790565 3 17978793407325916897
14856354 85 14333117616441642180
14866123 147 18412267195342660577
15064986 266 17968674760111020952
15250474 111 18116708522526231034
15352361 1 18411420656402622710
17349148 13 17967256378006944954
18927931 339 18337968796217071174
200 152 18409168784085826076
20775438 99 17329691627936626399
20775530 9 17769090490789809399
20871999 31 18334007264227707493
21307412 95 18341321263252980519
21709351 56 18041007194371839390
22393880 68 18187362091612229570
23402539 116 18334578997404865388
23557571 272 18270965635478046500
23559900 14 18408877434995697984
3004659 81 18113896070117773202
3178227 256 18192165815424032417
329604 57 18409732885148453252
4214541 1 18261396581760539380
46194498 28 17388252618148150047
463206 1 18263932205281614963
5283173 99 18114736049567090452
633830 44 7853034726653952376
6669772 16 17405155505039937236
70251023 43 18192431003382784579
9709674 26 18196095447883556270

>  <PUBCHEM_SHAPE_MULTIPOLES>  (1) 
458.48
11.45
3.91
1.19
18.43
1.23
0.13
-9.93
-2.84
-4.15
-0.13
-1.01
-0.01
0.01

>  <PUBCHEM_SHAPE_SELFOVERLAP>  (1) 
971.248

>  <PUBCHEM_SHAPE_VOLUME>  (1) 
257.8

>  <PUBCHEM_COORDINATE_TYPE>  (1) 
2
5
10

$$$$
