4674
     RDKit          3D

 13 12  0  0  0  0  0  0  0  0999 V2000
   -0.8485    1.4894    0.2780 P   0  0  0  0  0  0  0  0  0  0  0  0
   -0.4416   -1.6451    0.2688 P   0  0  0  0  0  0  0  0  0  0  0  0
   -0.7693   -0.0608   -1.7228 O   0  0  0  0  0  0  0  0  0  0  0  0
   -0.7658    2.5884   -0.9036 O   0  0  0  0  0  0  0  0  0  0  0  0
   -2.4228    1.1387    0.3687 O   0  0  0  0  0  0  0  0  0  0  0  0
   -2.0541   -1.6463    0.3978 O   0  0  0  0  0  0  0  0  0  0  0  0
   -0.1644   -2.6878   -0.9348 O   0  0  0  0  0  0  0  0  0  0  0  0
   -0.2174    1.9205    1.5697 O   0  0  0  0  0  0  0  0  0  0  0  0
    0.2852   -1.9326    1.5484 O   0  0  0  0  0  0  0  0  0  0  0  0
    3.7235    0.4153   -0.0221 N   0  0  0  0  0  0  0  0  0  0  0  0
   -0.0809   -0.0008   -0.4645 C   0  0  0  0  0  0  0  0  0  0  0  0
    1.4170    0.1674   -0.7981 C   0  0  0  0  0  0  0  0  0  0  0  0
    2.3390    0.2536    0.4144 C   0  0  0  0  0  0  0  0  0  0  0  0
  1  4  1  0
  1  5  1  0
  1  8  2  0
  1 11  1  0
  2  6  1  0
  2  7  1  0
  2  9  2  0
  2 11  1  0
  3 11  1  0
 10 13  1  0
 11 12  1  0
 12 13  1  0
M  END
>  <PUBCHEM_COMPOUND_CID>  (1) 
4674

>  <PUBCHEM_CONFORMER_RMSD>  (1) 
0.6

>  <PUBCHEM_CONFORMER_DIVERSEORDER>  (1) 
1
3
2

>  <PUBCHEM_MMFF94_PARTIAL_CHARGES>  (1) 
19
1 1.24
10 -0.99
11 0.28
13 0.27
18 0.4
19 0.5
2 1.24
20 0.5
21 0.5
22 0.5
23 0.36
24 0.36
3 -0.68
4 -0.77
5 -0.77
6 -0.77
7 -0.77
8 -0.7
9 -0.7

>  <PUBCHEM_EFFECTIVE_ROTOR_COUNT>  (1) 
4

>  <PUBCHEM_PHARMACOPHORE_FEATURES>  (1) 
12
1 10 cation
1 10 donor
1 3 acceptor
1 3 donor
1 4 acceptor
1 5 acceptor
1 6 acceptor
1 7 acceptor
1 8 acceptor
1 9 acceptor
4 1 4 5 8 anion
4 2 6 7 9 anion

>  <PUBCHEM_HEAVY_ATOM_COUNT>  (1) 
13

>  <PUBCHEM_ATOM_DEF_STEREO_COUNT>  (1) 
0

>  <PUBCHEM_ATOM_UDEF_STEREO_COUNT>  (1) 
0

>  <PUBCHEM_BOND_DEF_STEREO_COUNT>  (1) 
0

>  <PUBCHEM_BOND_UDEF_STEREO_COUNT>  (1) 
0

>  <PUBCHEM_ISOTOPIC_ATOM_COUNT>  (1) 
0

>  <PUBCHEM_COMPONENT_COUNT>  (1) 
1

>  <PUBCHEM_CACTVS_TAUTO_COUNT>  (1) 
1

>  <PUBCHEM_CONFORMER_ID>  (1) 
0000124200000001

>  <PUBCHEM_MMFF94_ENERGY>  (1) 
-48.7227

>  <PUBCHEM_FEATURE_SELFOVERLAP>  (1) 
60.986

>  <PUBCHEM_SHAPE_FINGERPRINT>  (1) 
12423570 1 10883970624569237845
13024252 1 13406787835477561580
137420 1 15072519218037035179
16945 1 18186522068458800725
20871998 184 18340215184108096086
5084963 1 18051996726401161468
528862 383 17901941946267589632
54338 74 18190185765725109336
5706482 22 18120918543525923080
81228 2 18337962310636807496

>  <PUBCHEM_SHAPE_MULTIPOLES>  (1) 
229.17
3.01
2.74
1.31
2.99
0.42
-0.02
-0.6
-0.26
-1.35
-0.15
-0.14
0.01
0

>  <PUBCHEM_SHAPE_SELFOVERLAP>  (1) 
408.482

>  <PUBCHEM_SHAPE_VOLUME>  (1) 
148.2

>  <PUBCHEM_COORDINATE_TYPE>  (1) 
2
5
10

$$$$
