46749
     RDKit          3D

 12 12  0  0  1  0  0  0  0  0999 V2000
    0.7971    0.9590   -0.1366 O   0  0  0  0  0  0  0  0  0  0  0  0
   -2.6351   -0.5298   -0.0546 N   0  0  0  0  0  0  0  0  0  0  0  0
   -1.5325    0.3651   -0.6018 C   0  0  0  0  0  0  0  0  0  0  0  0
   -0.5296    0.8010    0.3901 C   0  0  0  0  0  0  0  0  0  0  0  0
   -1.5619    1.7613   -0.1232 C   0  0  0  0  0  0  0  0  0  0  0  0
   -3.9912    0.0359   -0.4508 C   0  0  0  0  0  0  0  0  0  0  0  0
   -2.5338   -0.5893    1.4627 C   0  0  0  0  0  0  0  0  0  0  0  0
   -2.4830   -1.9311   -0.6287 C   0  0  0  0  0  0  0  0  0  0  0  0
    1.7278    0.0143    0.3933 C   0  0  0  0  0  0  0  0  0  0  0  0
    3.0985    0.2817   -0.2119 C   0  0  0  0  0  0  0  0  0  0  0  0
    4.1431   -0.7057    0.3005 C   0  0  0  0  0  0  0  0  0  0  0  0
    5.5007   -0.4624   -0.3390 C   0  0  0  0  0  0  0  0  0  0  0  0
  1  4  1  0
  1  9  1  0
  2  3  1  0
  2  6  1  0
  2  7  1  0
  2  8  1  0
  3  4  1  0
  3  5  1  0
  4  5  1  0
  9 10  1  0
 10 11  1  0
 11 12  1  0
M  CHG  1   2   1
M  END
>  <PUBCHEM_COMPOUND_CID>  (1) 
46749

>  <PUBCHEM_CONFORMER_RMSD>  (1) 
0.6

>  <PUBCHEM_CONFORMER_DIVERSEORDER>  (1) 
1
6
7
17
10
9
14
8
16
2
11
4
15
3
13
5
12

>  <PUBCHEM_MMFF94_PARTIAL_CHARGES>  (1) 
13
1 -0.43
13 0.1
14 0.1
15 0.1
16 0.1
2 -0.91
3 0.3
4 0.05
5 -0.2
6 0.5
7 0.5
8 0.5
9 0.28

>  <PUBCHEM_EFFECTIVE_ROTOR_COUNT>  (1) 
5.6

>  <PUBCHEM_PHARMACOPHORE_FEATURES>  (1) 
3
1 1 acceptor
1 12 hydrophobe
1 2 cation

>  <PUBCHEM_HEAVY_ATOM_COUNT>  (1) 
12

>  <PUBCHEM_ATOM_DEF_STEREO_COUNT>  (1) 
2

>  <PUBCHEM_ATOM_UDEF_STEREO_COUNT>  (1) 
0

>  <PUBCHEM_BOND_DEF_STEREO_COUNT>  (1) 
0

>  <PUBCHEM_BOND_UDEF_STEREO_COUNT>  (1) 
0

>  <PUBCHEM_ISOTOPIC_ATOM_COUNT>  (1) 
0

>  <PUBCHEM_COMPONENT_COUNT>  (1) 
1

>  <PUBCHEM_CACTVS_TAUTO_COUNT>  (1) 
1

>  <PUBCHEM_CONFORMER_ID>  (1) 
0000B69D00000001

>  <PUBCHEM_MMFF94_ENERGY>  (1) 
32.9743

>  <PUBCHEM_FEATURE_SELFOVERLAP>  (1) 
15.223

>  <PUBCHEM_SHAPE_FINGERPRINT>  (1) 
10680689 15 18411986832419536000
11046707 91 18272930557008590910
12251169 10 13830126209019327672
12757275 245 18411136961112442934
13024252 1 17167581579594218153
14123260 362 9078834138530573554
14577589 140 18408322198766084231
18186145 218 15936686068545816156
200 152 18410570686637692804
20279233 1 18060423490890248900
20281407 28 18342455967198687800
20645464 45 9943807806686956696
20767249 213 10303806584038651594
20871999 31 17895183373088698301
21061003 4 17561360690697599344
21119208 17 17603301548758948854
22485316 2 18412258450261588522
23402539 116 17168142309202430996
23403322 49 18410290311267880302
23557571 272 18261394387011438468
23559900 14 18340477963361478464
449060 50 10375870784000063904
559249 180 17971461906608820786

>  <PUBCHEM_SHAPE_MULTIPOLES>  (1) 
236.1
9.26
1.44
0.92
12.78
0.12
-0.23
2.89
0.86
-1.11
0.19
-0.56
0.16
-0.05

>  <PUBCHEM_SHAPE_SELFOVERLAP>  (1) 
439.836

>  <PUBCHEM_SHAPE_VOLUME>  (1) 
151.5

>  <PUBCHEM_COORDINATE_TYPE>  (1) 
2
5
10

$$$$
