46753
     RDKit          3D

 24 25  0  0  0  0  0  0  0  0999 V2000
    1.1473    1.3702    1.1920 O   0  0  0  0  0  0  0  0  0  0  0  0
   -1.1217    1.3868    1.2052 O   0  0  0  0  0  0  0  0  0  0  0  0
   -0.0021    0.7430   -0.7385 O   0  0  0  0  0  0  0  0  0  0  0  0
    4.7297   -1.6461   -0.0601 N   0  0  0  0  0  0  0  0  0  0  0  0
   -4.7267   -1.5957   -0.0623 N   0  0  0  0  0  0  0  0  0  0  0  0
    4.0766   -0.2623   -0.1033 C   0  0  0  0  0  0  0  0  0  0  0  0
   -4.0979   -0.2941   -0.0997 C   0  0  0  0  0  0  0  0  0  0  0  0
    6.1166   -1.5150    0.5627 C   0  0  0  0  0  0  0  0  0  0  0  0
    4.8224   -2.1897   -1.4831 C   0  0  0  0  0  0  0  0  0  0  0  0
    3.9244   -2.6386    0.7760 C   0  0  0  0  0  0  0  0  0  0  0  0
   -5.5360   -1.8811   -1.3595 C   0  0  0  0  0  0  0  0  0  0  0  0
   -5.6998   -1.7304    1.1437 C   0  0  0  0  0  0  0  0  0  0  0  0
   -3.7448   -2.8017    0.0750 C   0  0  0  0  0  0  0  0  0  0  0  0
    2.9128   -0.1124    0.5734 C   0  0  0  0  0  0  0  0  0  0  0  0
   -2.8985   -0.0790    0.5793 C   0  0  0  0  0  0  0  0  0  0  0  0
    4.7179    0.6960   -0.8142 C   0  0  0  0  0  0  0  0  0  0  0  0
   -4.6905    0.7464   -0.8152 C   0  0  0  0  0  0  0  0  0  0  0  0
    2.3179    1.1488    0.5342 C   0  0  0  0  0  0  0  0  0  0  0  0
   -2.3230    1.1709    0.5254 C   0  0  0  0  0  0  0  0  0  0  0  0
    4.1232    1.9569   -0.8534 C   0  0  0  0  0  0  0  0  0  0  0  0
   -4.0840    2.0018   -0.8516 C   0  0  0  0  0  0  0  0  0  0  0  0
    2.9233    2.1835   -0.1792 C   0  0  0  0  0  0  0  0  0  0  0  0
   -2.8847    2.2169   -0.1727 C   0  0  0  0  0  0  0  0  0  0  0  0
   -0.0024    1.1247    0.4258 C   0  0  0  0  0  0  0  0  0  0  0  0
  1 18  1  0
  1 24  1  0
  2 19  1  0
  2 24  1  0
  3 24  2  0
  4  6  1  0
  4  8  1  0
  4  9  1  0
  4 10  1  0
  5  7  1  0
  5 11  1  0
  5 12  1  0
  5 13  1  0
  6 14  2  0
  6 16  1  0
  7 15  2  0
  7 17  1  0
 14 18  1  0
 15 19  1  0
 16 20  2  0
 17 21  2  0
 18 22  2  0
 19 23  2  0
 20 22  1  0
 21 23  1  0
M  CHG  2   4   1   5   1
M  END
>  <PUBCHEM_COMPOUND_CID>  (1) 
46753

>  <PUBCHEM_CONFORMER_RMSD>  (1) 
0.8

>  <PUBCHEM_CONFORMER_DIVERSEORDER>  (1) 
1
105
114
72
112
125
127
57
81
204
135
109
18
196
113
61
168
144
159
200
191
51
60
173
47
45
117
36
44
82
205
100
155
63
77
43
21
66
131
96
184
25
193
7
75
136
119
8
69
166
28
134
34
56
22
99
164
15
83
54
137
62
41
123
138
2
23
59
107
53
158
186
80
160
121
73
101
199
68
4
197
151
142
194
13
190
145
58
152
88
29
94
188
180
3
172
39
192
14
133
78
9
149
85
115
93
111
50
176
146
104
92
120
35
169
98
40
31
122
42
32
6
187
52
177
201
108
26
118
128
86
46
76
30
79
167
70
65
170
126
87
67
24
147
171
90
154
37
161
27
185
157
165
153
38
97
178
116
49
140
110
183
71
10
16
130
132
55
95
162
143
5
19
124
202
17
64
33
203
141
74
11
195
139
181
174
103
163
129
150
48
179
182
102
148
198
84
12
20
189
89
106
156
91
175

>  <PUBCHEM_MMFF94_PARTIAL_CHARGES>  (1) 
32
1 -0.23
10 0.5
11 0.5
12 0.5
13 0.5
14 -0.15
15 -0.15
16 -0.15
17 -0.15
18 0.08
19 0.08
2 -0.23
20 -0.15
21 -0.15
22 -0.15
23 -0.15
24 0.87
3 -0.57
4 -0.87
43 0.15
44 0.15
45 0.15
46 0.15
47 0.15
48 0.15
49 0.15
5 -0.87
50 0.15
6 0.36
7 0.36
8 0.5
9 0.5

>  <PUBCHEM_EFFECTIVE_ROTOR_COUNT>  (1) 
6

>  <PUBCHEM_PHARMACOPHORE_FEATURES>  (1) 
4
1 4 cation
1 5 cation
6 6 14 16 18 20 22 rings
6 7 15 17 19 21 23 rings

>  <PUBCHEM_HEAVY_ATOM_COUNT>  (1) 
24

>  <PUBCHEM_ATOM_DEF_STEREO_COUNT>  (1) 
0

>  <PUBCHEM_ATOM_UDEF_STEREO_COUNT>  (1) 
0

>  <PUBCHEM_BOND_DEF_STEREO_COUNT>  (1) 
0

>  <PUBCHEM_BOND_UDEF_STEREO_COUNT>  (1) 
0

>  <PUBCHEM_ISOTOPIC_ATOM_COUNT>  (1) 
0

>  <PUBCHEM_COMPONENT_COUNT>  (1) 
1

>  <PUBCHEM_CACTVS_TAUTO_COUNT>  (1) 
1

>  <PUBCHEM_CONFORMER_ID>  (1) 
0000B6A100000001

>  <PUBCHEM_MMFF94_ENERGY>  (1) 
118.3764

>  <PUBCHEM_FEATURE_SELFOVERLAP>  (1) 
20.297

>  <PUBCHEM_SHAPE_FINGERPRINT>  (1) 
10 15 10879994696666954559
10595046 47 18335987549030791412
10670039 82 13840542900893043006
10763959 59 11242235339209378760
10928967 22 17917145108562719591
11135609 99 18343016671818370798
11186622 123 18261948647629205163
11315621 136 18340778070090903222
11405975 8 18339925922229551609
11796584 16 18269836419845492392
12107183 9 17977386036114280408
12760667 363 18272368685756534195
13167823 11 18408885135354640165
13533116 47 18339644537298817649
13941219 33 18339095864771601075
14216079 64 18341894143445089503
14251740 57 17988931025061407022
14251751 18 18410009906059643302
14251764 30 18118130393050794563
14347332 77 18410572886119988201
14848178 5 18130223749197117254
14910302 57 18261943094431299717
14951699 99 10447930602509551490
15183329 4 18114177493206476393
15250474 111 18410852165920433514
15348495 7 11312060962854599885
15537594 2 18058734731155927751
15799311 1 18269295541655184819
17349148 13 17132116835697149148
17492 89 18335984259032393401
17844677 252 18334300863606814525
17857418 61 18413105065277083234
19377110 9 12391215175950235761
193927 3 18060144193688888292
19958102 18 18114451319469211287
20567600 247 18413103974598074194
20645477 70 18410579470515882060
22393880 68 18114174207588234505
22950370 63 18341900748635065217
23522609 53 18055104135746824065
23559900 14 18339349799516371025
25122255 55 18202568345465647991
2838139 119 9150635460813305475
3004659 81 18334292050829470562
314194 84 18270122451792962907
329604 57 18411421738697224223
338550 245 18410290333138440414
34797466 226 17023470879511318933
4214541 1 18408602535302505605
4280585 95 17763747590175796158
439807 62 18335140903765811899
44062 13 18338514140978233501
444735 86 18336251444669598635
46194498 28 17532091764006690204
465052 167 18202289108435644452
5104073 3 18059858354698721920
5281201 14 18113903758093701380
59682541 35 18130209499403179666
59755656 520 18338516310628269089
633830 44 16805329872515179680
6437827 68 18411980256397721231
7495541 125 18059853995523193680
7970288 3 17977947114332768415
960060 61 17749400217742221500
9709674 26 18260833747243688697
9841814 1 16702018708166388744

>  <PUBCHEM_SHAPE_MULTIPOLES>  (1) 
466.34
15.82
3.17
1.17
0.07
1.09
-0.13
9.37
-2.55
0.1
-0.22
0.12
0.21
0.02

>  <PUBCHEM_SHAPE_SELFOVERLAP>  (1) 
974.684

>  <PUBCHEM_SHAPE_VOLUME>  (1) 
265.5

>  <PUBCHEM_COORDINATE_TYPE>  (1) 
2
5
10

$$$$
