46769
     RDKit          3D

 21 22  0  0  0  0  0  0  0  0999 V2000
    1.6952   -0.2039   -0.2065 O   0  0  0  0  0  0  0  0  0  0  0  0
    2.1072    1.9202    0.6621 O   0  0  0  0  0  0  0  0  0  0  0  0
   -3.2419   -0.8016    0.2995 N   0  0  0  0  0  0  0  0  0  0  0  0
   -2.9232   -1.8081   -0.8025 C   0  0  0  0  0  0  0  0  0  0  0  0
   -4.7108   -0.4038    0.1691 C   0  0  0  0  0  0  0  0  0  0  0  0
   -2.3027    0.3986    0.1571 C   0  0  0  0  0  0  0  0  0  0  0  0
   -3.0382   -1.4231    1.6782 C   0  0  0  0  0  0  0  0  0  0  0  0
   -3.1524   -1.1604   -2.1506 C   0  0  0  0  0  0  0  0  0  0  0  0
   -5.5745   -1.6401    0.2919 C   0  0  0  0  0  0  0  0  0  0  0  0
   -0.9748    0.1533    0.2652 C   0  0  0  0  0  0  0  0  0  0  0  0
   -2.8781    1.6045   -0.0654 C   0  0  0  0  0  0  0  0  0  0  0  0
   -0.1187    1.2468    0.1349 C   0  0  0  0  0  0  0  0  0  0  0  0
   -2.0218    2.6978   -0.1958 C   0  0  0  0  0  0  0  0  0  0  0  0
   -0.6422    2.5191   -0.0956 C   0  0  0  0  0  0  0  0  0  0  0  0
    1.3197    1.0615    0.2395 C   0  0  0  0  0  0  0  0  0  0  0  0
    3.0685   -0.4519   -0.1343 C   0  0  0  0  0  0  0  0  0  0  0  0
    3.5808   -1.0043    1.0184 C   0  0  0  0  0  0  0  0  0  0  0  0
    3.8554   -0.1335   -1.2185 C   0  0  0  0  0  0  0  0  0  0  0  0
    4.9517   -1.2512    1.0908 C   0  0  0  0  0  0  0  0  0  0  0  0
    5.2264   -0.3806   -1.1461 C   0  0  0  0  0  0  0  0  0  0  0  0
    5.7744   -0.9394    0.0085 C   0  0  0  0  0  0  0  0  0  0  0  0
  1 15  1  0
  1 16  1  0
  2 15  2  0
  3  4  1  0
  3  5  1  0
  3  6  1  0
  3  7  1  0
  4  8  1  0
  5  9  1  0
  6 10  2  0
  6 11  1  0
 10 12  1  0
 11 13  2  0
 12 14  2  0
 12 15  1  0
 13 14  1  0
 16 17  2  0
 16 18  1  0
 17 19  1  0
 18 20  2  0
 19 21  2  0
 20 21  1  0
M  CHG  1   3   1
M  END
>  <PUBCHEM_COMPOUND_CID>  (1) 
46769

>  <PUBCHEM_CONFORMER_RMSD>  (1) 
0.8

>  <PUBCHEM_CONFORMER_DIVERSEORDER>  (1) 
1
158
116
128
55
45
3
141
60
85
147
160
145
96
76
59
2
97
86
168
140
122
171
37
173
73
152
157
144
64
67
133
149
41
7
126
58
88
27
79
91
33
127
38
136
95
139
69
106
26
138
134
154
48
40
70
4
57
94
90
167
56
46
109
6
132
119
156
81
30
53
104
115
92
165
99
49
82
107
143
113
155
42
120
89
52
150
78
39
135
74
75
36
153
61
164
84
121
21
71
98
93
170
22
35
105
146
100
24
111
54
169
20
9
29
83
63
175
25
151
159
161
32
14
62
47
176
23
18
17
142
123
174
13
112
125
31
72
172
19
101
110
118
129
114
166
103
65
68
180
108
66
177
163
77
102
51
15
130
16
162
44
124
5
50
10
131
12
117
179
178
34
137
87
11
8
148
43
80
28

>  <PUBCHEM_MMFF94_PARTIAL_CHARGES>  (1) 
28
1 -0.23
10 -0.15
11 -0.15
12 0.09
13 -0.15
14 -0.15
15 0.63
16 0.08
17 -0.15
18 -0.15
19 -0.15
2 -0.57
20 -0.15
21 -0.15
3 -0.87
35 0.15
36 0.15
37 0.15
38 0.15
39 0.15
4 0.5
40 0.15
41 0.15
42 0.15
43 0.15
5 0.5
6 0.36
7 0.5

>  <PUBCHEM_EFFECTIVE_ROTOR_COUNT>  (1) 
6

>  <PUBCHEM_PHARMACOPHORE_FEATURES>  (1) 
4
1 2 acceptor
1 3 cation
6 16 17 18 19 20 21 rings
6 6 10 11 12 13 14 rings

>  <PUBCHEM_HEAVY_ATOM_COUNT>  (1) 
21

>  <PUBCHEM_ATOM_DEF_STEREO_COUNT>  (1) 
0

>  <PUBCHEM_ATOM_UDEF_STEREO_COUNT>  (1) 
0

>  <PUBCHEM_BOND_DEF_STEREO_COUNT>  (1) 
0

>  <PUBCHEM_BOND_UDEF_STEREO_COUNT>  (1) 
0

>  <PUBCHEM_ISOTOPIC_ATOM_COUNT>  (1) 
0

>  <PUBCHEM_COMPONENT_COUNT>  (1) 
1

>  <PUBCHEM_CACTVS_TAUTO_COUNT>  (1) 
1

>  <PUBCHEM_CONFORMER_ID>  (1) 
0000B6B100000001

>  <PUBCHEM_MMFF94_ENERGY>  (1) 
93.9154

>  <PUBCHEM_FEATURE_SELFOVERLAP>  (1) 
20.297

>  <PUBCHEM_SHAPE_FINGERPRINT>  (1) 
10616163 171 18336830779970213706
11046707 91 18412545396704991360
11370993 144 15913338948563339014
11552529 35 15410029894540701918
12236239 1 18041283163200508630
12363563 72 18411138060386317003
12553582 1 18412256255143312982
12633257 1 17203335549871221403
12670546 177 16443350909328933610
12714826 92 18343022164026299440
12760667 363 18335143094241142691
12788726 201 18262514793396282905
13167823 11 18188210897451039082
13288520 33 18410014312316157425
13685833 64 18411142476156367299
14251752 14 17749664100374677725
14251764 30 17386862767169228691
14341114 176 15482676788241008938
14386348 63 17703793574701501318
15188451 53 16558454388158408783
16752209 62 18335127666296537770
17349148 13 17749390330722185930
17492 89 18191586350672329338
17804303 29 18342458131841469745
17844677 252 18059860541512158864
1813 80 18340216261902430917
18927931 339 18412267199115563902
19141452 34 17846780736946365455
19784866 140 18113333124501309739
200 152 18040997328204193078
20028762 73 17845651572648886647
20261772 1 18060136552884332534
20281475 54 18188489065134081424
20374829 77 18409730668734312291
20403669 9 18413111666589076183
20871999 31 18040432166422125653
21033648 29 12108369108766972214
21267235 1 18410582794256196739
21728266 224 18188481377158283650
2297311 6 18272380737070698556
23198884 109 15574711379205717343
23402539 116 18041560248277563700
23522609 53 18121253997494166185
23557571 272 18130236951752668108
23559900 14 18334851753266019736
25147074 1 18337128820398843349
3004659 81 17821728342858592314
312423 11 18337120037290696416
314173 85 18202566176422578673
329604 57 18187091675959735906
335352 9 18409448073430877869
351380 3 18410856568393709202
4325135 7 18412266177446136356
465052 167 18341902929877201198
4921388 177 15647349562300652313
5104073 3 18343298146220082120
559249 180 18189329070046941634
573450 72 18115584830031559608
59682541 52 14057262191477390098
602551 16 18060131047121478294
7495541 125 17988637485726900312
7970288 3 18337388344088069091
8863177 126 17971766720601900923

>  <PUBCHEM_SHAPE_MULTIPOLES>  (1) 
415.45
12.36
2.36
1.29
9.02
1.44
-0.34
-7.79
-0.31
-2.05
0.12
-0.15
-0.64
-0.28

>  <PUBCHEM_SHAPE_SELFOVERLAP>  (1) 
877.72

>  <PUBCHEM_SHAPE_VOLUME>  (1) 
234.5

>  <PUBCHEM_COORDINATE_TYPE>  (1) 
2
5
10

$$$$
