46763
     RDKit          3D

 25 26  0  0  0  0  0  0  0  0999 V2000
   -0.8074   -0.2022    1.3309 O   0  0  0  0  0  0  0  0  0  0  0  0
    1.6264   -0.1924    2.1488 O   0  0  0  0  0  0  0  0  0  0  0  0
   -0.0453   -1.7945   -0.1429 O   0  0  0  0  0  0  0  0  0  0  0  0
   -4.3127   -0.7635    0.1801 N   0  0  0  0  0  0  0  0  0  0  0  0
   -5.1461   -0.1077   -0.9114 C   0  0  0  0  0  0  0  0  0  0  0  0
   -2.9173   -0.1563    0.1871 C   0  0  0  0  0  0  0  0  0  0  0  0
   -4.2140   -2.2586   -0.0866 C   0  0  0  0  0  0  0  0  0  0  0  0
   -4.9734   -0.5317    1.5314 C   0  0  0  0  0  0  0  0  0  0  0  0
   -4.4669   -0.3526   -2.2492 C   0  0  0  0  0  0  0  0  0  0  0  0
   -5.2767    1.3734   -0.5940 C   0  0  0  0  0  0  0  0  0  0  0  0
   -2.1008   -0.7909    1.2957 C   0  0  0  0  0  0  0  0  0  0  0  0
    1.5026   -0.1037    0.7147 C   0  0  0  0  0  0  0  0  0  0  0  0
    0.1521   -0.8067    0.5546 C   0  0  0  0  0  0  0  0  0  0  0  0
    2.6493   -0.8696    0.0510 C   0  0  0  0  0  0  0  0  0  0  0  0
    1.4976    1.3619    0.2733 C   0  0  0  0  0  0  0  0  0  0  0  0
    2.6866   -0.9391   -1.3226 C   0  0  0  0  0  0  0  0  0  0  0  0
    0.7719    1.7109   -0.8421 C   0  0  0  0  0  0  0  0  0  0  0  0
    3.5986   -1.4597    0.8531 C   0  0  0  0  0  0  0  0  0  0  0  0
    2.2191    2.2735    1.0087 C   0  0  0  0  0  0  0  0  0  0  0  0
    3.7317   -1.6372   -1.9277 C   0  0  0  0  0  0  0  0  0  0  0  0
    0.7673    3.0465   -1.2445 C   0  0  0  0  0  0  0  0  0  0  0  0
    4.6437   -2.1578    0.2481 C   0  0  0  0  0  0  0  0  0  0  0  0
    2.2145    3.6091    0.6063 C   0  0  0  0  0  0  0  0  0  0  0  0
    4.7103   -2.2466   -1.1425 C   0  0  0  0  0  0  0  0  0  0  0  0
    1.4887    3.9956   -0.5203 C   0  0  0  0  0  0  0  0  0  0  0  0
  1 11  1  0
  1 13  1  0
  2 12  1  0
  3 13  2  0
  4  5  1  0
  4  6  1  0
  4  7  1  0
  4  8  1  0
  5  9  1  0
  5 10  1  0
  6 11  1  0
 12 13  1  0
 12 14  1  0
 12 15  1  0
 14 16  2  0
 14 18  1  0
 15 17  2  0
 15 19  1  0
 16 20  1  0
 17 21  1  0
 18 22  2  0
 19 23  2  0
 20 24  2  0
 21 25  2  0
 22 24  1  0
 23 25  1  0
M  CHG  1   4   1
M  END
>  <PUBCHEM_COMPOUND_CID>  (1) 
46763

>  <PUBCHEM_CONFORMER_RMSD>  (1) 
0.8

>  <PUBCHEM_CONFORMER_DIVERSEORDER>  (1) 
2
214
125
183
72
60
126
80
99
145
108
53
144
107
64
201
146
160
191
24
73
119
28
213
132
115
68
19
121
38
187
98
143
222
9
109
155
216
32
133
157
82
221
42
7
197
40
63
199
78
11
10
174
147
185
33
173
54
29
79
81
190
85
94
102
196
4
95
153
171
92
162
17
163
161
69
84
56
8
15
16
208
166
128
35
89
49
200
205
215
12
151
206
164
141
179
71
182
105
83
136
131
6
47
90
25
211
65
168
118
177
106
123
52
96
51
55
129
67
14
20
39
198
148
140
88
158
114
120
156
169
194
142
46
138
180
18
212
50
86
34
75
124
150
193
218
223
167
22
134
130
181
112
116
122
137
91
224
170
110
62
58
152
76
175
202
93
209
1
220
219
61
139
77
188
165
207
189
57
135
192
21
70
30
210
100
36
97
103
159
48
217
176
172
195
66
13
127
43
74
45
31
204
203
41
59
225
27
26
149
101
117
44
178
104
184
154
37
23
186
5
87
111
3
113

>  <PUBCHEM_MMFF94_PARTIAL_CHARGES>  (1) 
34
1 -0.43
11 0.28
12 0.63
13 0.66
14 -0.14
15 -0.14
16 -0.15
17 -0.15
18 -0.15
19 -0.15
2 -0.68
20 -0.15
21 -0.15
22 -0.15
23 -0.15
24 -0.15
25 -0.15
3 -0.57
4 -1.01
43 0.4
44 0.15
45 0.15
46 0.15
47 0.15
48 0.15
49 0.15
5 0.5
50 0.15
51 0.15
52 0.15
53 0.15
6 0.5
7 0.5
8 0.5

>  <PUBCHEM_EFFECTIVE_ROTOR_COUNT>  (1) 
8

>  <PUBCHEM_PHARMACOPHORE_FEATURES>  (1) 
7
1 2 acceptor
1 2 donor
1 3 acceptor
1 4 cation
3 5 9 10 hydrophobe
6 14 16 18 20 22 24 rings
6 15 17 19 21 23 25 rings

>  <PUBCHEM_HEAVY_ATOM_COUNT>  (1) 
25

>  <PUBCHEM_ATOM_DEF_STEREO_COUNT>  (1) 
0

>  <PUBCHEM_ATOM_UDEF_STEREO_COUNT>  (1) 
0

>  <PUBCHEM_BOND_DEF_STEREO_COUNT>  (1) 
0

>  <PUBCHEM_BOND_UDEF_STEREO_COUNT>  (1) 
0

>  <PUBCHEM_ISOTOPIC_ATOM_COUNT>  (1) 
0

>  <PUBCHEM_COMPONENT_COUNT>  (1) 
1

>  <PUBCHEM_CACTVS_TAUTO_COUNT>  (1) 
1

>  <PUBCHEM_CONFORMER_ID>  (1) 
0000B6AB00000002

>  <PUBCHEM_MMFF94_ENERGY>  (1) 
92.4644

>  <PUBCHEM_FEATURE_SELFOVERLAP>  (1) 
35.521

>  <PUBCHEM_SHAPE_FINGERPRINT>  (1) 
10815517 723 17983870977602769721
10930396 42 18265027217017600234
12166972 35 18343860022679072371
12422481 6 18124002828540466792
12616971 3 17846505846455232419
12788726 201 17971195824937642450
13009979 54 17988100914412981305
13134695 92 18408891736930409860
133893 2 18123219988803480904
13726171 33 14707765079271617319
13899415 180 18339917130531099814
14251757 5 17971474005516253093
14347329 18 16082195296127559845
14863182 85 16271939207154091710
15081414 286 18335989756564847144
15163728 17 17538860478147154260
15210252 30 16805611360413482628
15238133 3 17168413875009257265
15775530 1 17464563140263433954
15788980 27 17561080289847886099
15806764 133 18041575718749634219
17349148 13 17632585945848887507
17357779 13 18339356362215466388
17492 89 18266176309099253555
17844677 252 18409450306586843091
17980427 23 17774734081683686392
1813 80 18272379620321283350
18186145 218 18187080685381155387
18222031 100 18130228160255527102
21285901 2 18127415544855045750
21860390 5 18336821008640170764
22182313 1 18262498343645619676
22620623 9 17981058409736246444
23559900 14 18412258463025444363
340366 18 18342739637146819335
376196 1 17757541233088049160
46194498 28 18336829805197104735
5081480 168 18335717043447676981
508706 21 17677033678238610165
5281201 14 18335140938262245379
5969126 39 18269273457524160270
633830 44 18409158935958042051
6823239 73 18187358831389231961
7399639 24 17469902433052053571
7471813 234 18060420205129907057
7495541 125 18114479936493569107
9709674 26 18189053269302277827
9841814 1 18334289877491610234
9971528 1 18343861104420039354

>  <PUBCHEM_SHAPE_MULTIPOLES>  (1) 
491.9
11.01
3.78
1.74
13
4.51
0.27
-6.67
2.6
-4.31
0.64
0.3
-0.28
1.18

>  <PUBCHEM_SHAPE_SELFOVERLAP>  (1) 
1031.254

>  <PUBCHEM_SHAPE_VOLUME>  (1) 
279.3

>  <PUBCHEM_COORDINATE_TYPE>  (1) 
2
5
10

$$$$
