46765
     RDKit          3D

 26 27  0  0  0  0  0  0  0  0999 V2000
   -0.4205    1.2495   -0.0416 O   0  0  0  0  0  0  0  0  0  0  0  0
    1.4386    0.7496   -1.7414 O   0  0  0  0  0  0  0  0  0  0  0  0
    1.3000    2.1231    1.2094 O   0  0  0  0  0  0  0  0  0  0  0  0
   -4.5974    0.3364   -0.2971 N   0  0  0  0  0  0  0  0  0  0  0  0
   -3.1866    0.4988    0.2501 C   0  0  0  0  0  0  0  0  0  0  0  0
   -4.8782   -1.1387   -0.5450 C   0  0  0  0  0  0  0  0  0  0  0  0
   -5.5986    0.8809    0.7113 C   0  0  0  0  0  0  0  0  0  0  0  0
   -4.7260    1.1040   -1.6049 C   0  0  0  0  0  0  0  0  0  0  0  0
   -2.7182    1.9228    0.0039 C   0  0  0  0  0  0  0  0  0  0  0  0
   -4.7490   -1.8965    0.7582 C   0  0  0  0  0  0  0  0  0  0  0  0
   -6.9988    0.7165    0.1619 C   0  0  0  0  0  0  0  0  0  0  0  0
   -1.3261    2.1552    0.5735 C   0  0  0  0  0  0  0  0  0  0  0  0
    1.7631    0.3368   -0.3983 C   0  0  0  0  0  0  0  0  0  0  0  0
    0.8889    1.3329    0.3681 C   0  0  0  0  0  0  0  0  0  0  0  0
    3.2576    0.5445   -0.1431 C   0  0  0  0  0  0  0  0  0  0  0  0
    1.3714   -1.1275   -0.1852 C   0  0  0  0  0  0  0  0  0  0  0  0
    3.7987    0.2521    1.1090 C   0  0  0  0  0  0  0  0  0  0  0  0
    1.9651   -2.1275   -0.9556 C   0  0  0  0  0  0  0  0  0  0  0  0
    4.0791    1.0260   -1.1625 C   0  0  0  0  0  0  0  0  0  0  0  0
    0.4211   -1.4622    0.7796 C   0  0  0  0  0  0  0  0  0  0  0  0
    5.1609    0.4411    1.3416 C   0  0  0  0  0  0  0  0  0  0  0  0
    1.6085   -3.4619   -0.7614 C   0  0  0  0  0  0  0  0  0  0  0  0
    5.4414    1.2149   -0.9298 C   0  0  0  0  0  0  0  0  0  0  0  0
    0.0646   -2.7967    0.9738 C   0  0  0  0  0  0  0  0  0  0  0  0
    5.9822    0.9225    0.3224 C   0  0  0  0  0  0  0  0  0  0  0  0
    0.6583   -3.7965    0.2032 C   0  0  0  0  0  0  0  0  0  0  0  0
  1 12  1  0
  1 14  1  0
  2 13  1  0
  3 14  2  0
  4  5  1  0
  4  6  1  0
  4  7  1  0
  4  8  1  0
  5  9  1  0
  6 10  1  0
  7 11  1  0
  9 12  1  0
 13 14  1  0
 13 15  1  0
 13 16  1  0
 15 17  2  0
 15 19  1  0
 16 18  2  0
 16 20  1  0
 17 21  1  0
 18 22  1  0
 19 23  2  0
 20 24  2  0
 21 25  2  0
 22 26  2  0
 23 25  1  0
 24 26  1  0
M  CHG  1   4   1
M  END
>  <PUBCHEM_COMPOUND_CID>  (1) 
46765

>  <PUBCHEM_CONFORMER_RMSD>  (1) 
1

>  <PUBCHEM_CONFORMER_DIVERSEORDER>  (1) 
4
168
106
161
156
101
145
153
147
77
67
169
46
43
90
143
121
137
100
57
68
18
60
151
84
29
12
44
120
25
109
179
131
126
141
172
176
10
34
124
72
15
2
130
64
152
112
155
122
9
23
54
47
5
59
76
17
144
103
78
113
171
85
110
11
7
117
148
123
30
31
24
108
135
107
14
175
74
92
105
82
19
22
170
134
8
118
53
73
149
154
13
163
94
93
173
3
165
142
38
56
66
1
157
133
160
58
21
132
178
48
32
116
33
45
114
91
104
36
83
96
42
140
119
61
87
127
95
71
150
167
16
70
80
99
39
139
88
41
102
37
49
162
146
26
20
180
35
81
166
128
52
51
111
174
125
159
6
177
97
28
27
75
115
55
62
79
69
50
89
63
138
65
158
136
40
164
98
129
86

>  <PUBCHEM_MMFF94_PARTIAL_CHARGES>  (1) 
34
1 -0.43
12 0.28
13 0.63
14 0.66
15 -0.14
16 -0.14
17 -0.15
18 -0.15
19 -0.15
2 -0.68
20 -0.15
21 -0.15
22 -0.15
23 -0.15
24 -0.15
25 -0.15
26 -0.15
3 -0.57
4 -1.01
46 0.15
47 0.15
48 0.15
49 0.15
5 0.5
50 0.4
51 0.15
52 0.15
53 0.15
54 0.15
55 0.15
56 0.15
6 0.5
7 0.5
8 0.5

>  <PUBCHEM_EFFECTIVE_ROTOR_COUNT>  (1) 
10

>  <PUBCHEM_PHARMACOPHORE_FEATURES>  (1) 
6
1 2 acceptor
1 2 donor
1 3 acceptor
1 4 cation
6 15 17 19 21 23 25 rings
6 16 18 20 22 24 26 rings

>  <PUBCHEM_HEAVY_ATOM_COUNT>  (1) 
26

>  <PUBCHEM_ATOM_DEF_STEREO_COUNT>  (1) 
0

>  <PUBCHEM_ATOM_UDEF_STEREO_COUNT>  (1) 
0

>  <PUBCHEM_BOND_DEF_STEREO_COUNT>  (1) 
0

>  <PUBCHEM_BOND_UDEF_STEREO_COUNT>  (1) 
0

>  <PUBCHEM_ISOTOPIC_ATOM_COUNT>  (1) 
0

>  <PUBCHEM_COMPONENT_COUNT>  (1) 
1

>  <PUBCHEM_CACTVS_TAUTO_COUNT>  (1) 
1

>  <PUBCHEM_CONFORMER_ID>  (1) 
0000B6AD00000004

>  <PUBCHEM_MMFF94_ENERGY>  (1) 
85.7612

>  <PUBCHEM_FEATURE_SELFOVERLAP>  (1) 
30.446

>  <PUBCHEM_SHAPE_FINGERPRINT>  (1) 
10090160 65 18408882914962121284
10319688 67 18199163227559782024
10675989 125 17467616115129860589
10906281 52 18261691314853069017
11135926 11 18410848829194581255
11578080 2 17826224095312013205
11719270 70 18409442561932769554
11963148 33 18409722993438967643
12236239 1 17821725065999018480
12422481 6 18041264492371394750
12838862 33 18339344328482156201
12839892 36 18336813209359018514
12969540 37 17977948982121127662
13052359 8 18336266863796908842
13257819 37 18336845168595705686
13402501 40 18336270132414616947
13533116 47 18271523088595541041
13631057 29 18272367612009279421
14617045 38 18411986858495229825
14787075 74 18201998850261817488
14790565 3 18339365291542652036
14863182 85 18410018697678363494
15537594 2 18131628976829170621
15927050 60 17620477243357056828
16994733 274 15769769170031903738
17349148 13 18186807967283741128
173720 79 18260257569439673160
17909252 39 17916038853963110318
18608769 82 18262525905262972787
18681886 176 18335139847357084508
20028762 73 18129940207893199614
20197701 30 18334850628437645050
20567600 347 18409449150744956626
21054139 6 18342449387514609967
21344244 181 17775021063193956758
21503847 285 9727338126569115605
21521721 280 18272653497448502848
21623969 137 18261123967433015291
21796203 349 17043774143207735259
22149856 69 18193301653821024345
22224240 67 18342730836542330952
22393880 68 18124322609802716172
22956985 138 17828474770409035434
23559900 14 17909258088133395922
4093350 32 17346046567536713183
4340502 62 18411698777489592012
474229 33 18410009953198626136
5486654 2 18412548729742226228
57527295 17 16698402294616898548
59755656 215 18411985736801968487

>  <PUBCHEM_SHAPE_MULTIPOLES>  (1) 
512.48
14
3.36
1.26
12.03
3.89
-0.18
-6.17
0.08
-0.47
0.1
-0.5
-0.13
0.38

>  <PUBCHEM_SHAPE_SELFOVERLAP>  (1) 
1063.068

>  <PUBCHEM_SHAPE_VOLUME>  (1) 
292.8

>  <PUBCHEM_COORDINATE_TYPE>  (1) 
2
5
10

$$$$
