46777
     RDKit          3D

 19 20  0  0  0  0  0  0  0  0999 V2000
   -0.6958    0.3342   -0.7060 O   0  0  0  0  0  0  0  0  0  0  0  0
   -1.0371    0.6268    1.5808 O   0  0  0  0  0  0  0  0  0  0  0  0
    3.8685   -1.0230    0.2005 N   0  0  0  0  0  0  0  0  0  0  0  0
    2.8376    0.0680   -0.0993 C   0  0  0  0  0  0  0  0  0  0  0  0
    4.5200   -0.7254    1.5480 C   0  0  0  0  0  0  0  0  0  0  0  0
    4.9097   -1.0346   -0.9153 C   0  0  0  0  0  0  0  0  0  0  0  0
    3.2357   -2.4110    0.2741 C   0  0  0  0  0  0  0  0  0  0  0  0
    1.5527   -0.3304   -0.2595 C   0  0  0  0  0  0  0  0  0  0  0  0
    3.2966    1.3401   -0.1774 C   0  0  0  0  0  0  0  0  0  0  0  0
    0.6130    0.6639   -0.5314 C   0  0  0  0  0  0  0  0  0  0  0  0
    2.3566    2.3344   -0.4497 C   0  0  0  0  0  0  0  0  0  0  0  0
    1.0148    1.9962   -0.6267 C   0  0  0  0  0  0  0  0  0  0  0  0
   -1.4541    0.3457    0.4673 C   0  0  0  0  0  0  0  0  0  0  0  0
   -2.8675   -0.0231    0.1977 C   0  0  0  0  0  0  0  0  0  0  0  0
   -3.8594    0.5099    0.9945 C   0  0  0  0  0  0  0  0  0  0  0  0
   -3.1429   -0.8883   -0.8410 C   0  0  0  0  0  0  0  0  0  0  0  0
   -5.1866    0.1626    0.7410 C   0  0  0  0  0  0  0  0  0  0  0  0
   -4.4700   -1.2357   -1.0942 C   0  0  0  0  0  0  0  0  0  0  0  0
   -5.4919   -0.7101   -0.3036 C   0  0  0  0  0  0  0  0  0  0  0  0
  1 10  1  0
  1 13  1  0
  2 13  2  0
  3  4  1  0
  3  5  1  0
  3  6  1  0
  3  7  1  0
  4  8  2  0
  4  9  1  0
  8 10  1  0
  9 11  2  0
 10 12  2  0
 11 12  1  0
 13 14  1  0
 14 15  2  0
 14 16  1  0
 15 17  1  0
 16 18  2  0
 17 19  2  0
 18 19  1  0
M  CHG  1   3   1
M  END
>  <PUBCHEM_COMPOUND_CID>  (1) 
46777

>  <PUBCHEM_CONFORMER_RMSD>  (1) 
0.6

>  <PUBCHEM_CONFORMER_DIVERSEORDER>  (1) 
1
43
75
53
54
74
79
11
32
51
31
39
30
18
84
69
50
29
28
42
81
20
55
35
56
34
62
68
76
83
38
77
71
14
37
73
70
61
19
10
59
78
48
36
23
12
40
15
63
13
57
82
4
9
67
66
33
25
7
85
46
21
60
47
3
64
17
41
80
6
44
8
49
26
22
58
5
65
52
45
72
2
24
16
27

>  <PUBCHEM_MMFF94_PARTIAL_CHARGES>  (1) 
28
1 -0.23
10 0.08
11 -0.15
12 -0.15
13 0.63
14 0.09
15 -0.15
16 -0.15
17 -0.15
18 -0.15
19 -0.15
2 -0.57
29 0.15
3 -0.87
30 0.15
31 0.15
32 0.15
33 0.15
34 0.15
35 0.15
36 0.15
37 0.15
4 0.36
5 0.5
6 0.5
7 0.5
8 -0.15
9 -0.15

>  <PUBCHEM_EFFECTIVE_ROTOR_COUNT>  (1) 
4

>  <PUBCHEM_PHARMACOPHORE_FEATURES>  (1) 
4
1 2 acceptor
1 3 cation
6 14 15 16 17 18 19 rings
6 4 8 9 10 11 12 rings

>  <PUBCHEM_HEAVY_ATOM_COUNT>  (1) 
19

>  <PUBCHEM_ATOM_DEF_STEREO_COUNT>  (1) 
0

>  <PUBCHEM_ATOM_UDEF_STEREO_COUNT>  (1) 
0

>  <PUBCHEM_BOND_DEF_STEREO_COUNT>  (1) 
0

>  <PUBCHEM_BOND_UDEF_STEREO_COUNT>  (1) 
0

>  <PUBCHEM_ISOTOPIC_ATOM_COUNT>  (1) 
0

>  <PUBCHEM_COMPONENT_COUNT>  (1) 
1

>  <PUBCHEM_CACTVS_TAUTO_COUNT>  (1) 
1

>  <PUBCHEM_CONFORMER_ID>  (1) 
0000B6B900000001

>  <PUBCHEM_MMFF94_ENERGY>  (1) 
82.9251

>  <PUBCHEM_FEATURE_SELFOVERLAP>  (1) 
20.297

>  <PUBCHEM_SHAPE_FINGERPRINT>  (1) 
10062212 137 18060418036740939639
10447042 23 17749102267324029194
10912923 1 18130794503243356505
11578080 2 17986645174046015777
12107183 9 17766568953896178529
12236239 1 18131073748567570573
12553582 1 18335417933503943278
12596602 18 17489583476414518402
12616971 3 18343026614345394121
12670546 56 18272650160343056089
12839892 36 17489868237394671175
12892183 10 17203040786566416402
12916748 109 13406797718202571511
13134695 92 18186802516843993221
13167823 11 18343303695227799711
13464513 79 18413392012859839182
13533116 47 18341049709344267507
13675066 3 17132114623862630461
13911852 28 18192991509289330610
14251764 30 17344080572311987078
14386348 63 16950288415999847363
14573314 32 16732978717599083911
14739800 52 17345465080209511680
15183329 4 18335413531552686413
15788980 27 18408885140161232393
15848700 24 18260830376153231956
15848702 151 18334856104383771415
17349148 13 18059862770183135575
17818456 19 18057616351911420129
17857418 61 18412256246896081335
17862501 102 18273496767005460315
1813 80 18336557018912730468
18186145 218 17313101986337736929
18222031 100 18411983529610771446
18681886 176 17346043397661178580
19050596 39 18059859484633387217
200 152 18412544318953023625
20028762 73 18272083920070893742
20369508 70 17676198079170404208
20511986 3 18130772482719079061
20626108 58 17988071305214273605
20645477 70 18186521033398121146
20832881 197 17895189961404980457
20871999 31 16225766272643719236
21065198 48 18272938249643177573
21069387 34 18335708264486751891
21267235 1 18341060656767700599
21728266 224 17560509699305790823
22224240 67 18341320198417134248
2255824 54 18335989774071283468
22646028 1 18272371988143091229
23366157 5 17556565871298397321
23402539 116 18202562865820659429
23557571 272 15984558710340705953
23559900 14 18262238935978475040
3004659 81 18343304777322064599
312423 11 18336842943291365149
32948 21 16153978067533799255
33824 294 18261391178665177314
345986 75 18267011774262779120
351380 3 18411702062717969950
42630746 31 18409729608326153412
465052 167 18410582781566727270
4990 188 13551191074103874872
5104073 3 18272093850672455419
5281201 14 17385439938391847325
5374978 207 17060621104985669888
573450 72 17917996079412835107
59682541 52 17314762197678318455
602551 16 15769487746204267343
633830 44 17168139074897086189
67856867 119 18129094687762335065
76465 3 18261103033356388106
8863177 126 17605009163637713611
960060 61 17822298985129946638
9841814 1 18187077369677212080
9971528 1 18335701671612193684
9981440 41 17402604646347184385

>  <PUBCHEM_SHAPE_MULTIPOLES>  (1) 
374.29
12.03
1.9
1.17
7.28
0.22
-0.26
-4.79
-0.5
-2.26
0.28
0.06
-0.1
-1.12

>  <PUBCHEM_SHAPE_SELFOVERLAP>  (1) 
796.685

>  <PUBCHEM_SHAPE_VOLUME>  (1) 
209.4

>  <PUBCHEM_COORDINATE_TYPE>  (1) 
2
5
10

$$$$
