46775
     RDKit          3D

 20 21  0  0  0  0  0  0  0  0999 V2000
    0.1406   -0.5528    0.5210 O   0  0  0  0  0  0  0  0  0  0  0  0
    0.7632   -1.5703   -1.4812 O   0  0  0  0  0  0  0  0  0  0  0  0
   -1.8613    2.2943    0.0488 N   0  0  0  0  0  0  0  0  0  0  0  0
   -1.6296    1.1548   -0.9331 C   0  0  0  0  0  0  0  0  0  0  0  0
   -1.0599    2.0417    1.3177 C   0  0  0  0  0  0  0  0  0  0  0  0
   -1.4140    3.6055   -0.5812 C   0  0  0  0  0  0  0  0  0  0  0  0
   -3.3418    2.3755    0.3917 C   0  0  0  0  0  0  0  0  0  0  0  0
   -2.0447   -0.1813   -0.3915 C   0  0  0  0  0  0  0  0  0  0  0  0
   -1.1389   -0.9709    0.3098 C   0  0  0  0  0  0  0  0  0  0  0  0
   -3.3487   -0.6189   -0.6014 C   0  0  0  0  0  0  0  0  0  0  0  0
   -1.5414   -2.2107    0.8066 C   0  0  0  0  0  0  0  0  0  0  0  0
   -3.7510   -1.8588   -0.1047 C   0  0  0  0  0  0  0  0  0  0  0  0
   -2.8473   -2.6547    0.5992 C   0  0  0  0  0  0  0  0  0  0  0  0
    1.0402   -0.9296   -0.4783 C   0  0  0  0  0  0  0  0  0  0  0  0
    2.4100   -0.4395   -0.1793 C   0  0  0  0  0  0  0  0  0  0  0  0
    3.2528   -0.1358   -1.2285 C   0  0  0  0  0  0  0  0  0  0  0  0
    2.7962   -0.3029    1.1381 C   0  0  0  0  0  0  0  0  0  0  0  0
    4.5392    0.3248   -0.9479 C   0  0  0  0  0  0  0  0  0  0  0  0
    4.0826    0.1579    1.4187 C   0  0  0  0  0  0  0  0  0  0  0  0
    4.9539    0.4717    0.3756 C   0  0  0  0  0  0  0  0  0  0  0  0
  1  9  1  0
  1 14  1  0
  2 14  2  0
  3  4  1  0
  3  5  1  0
  3  6  1  0
  3  7  1  0
  4  8  1  0
  8  9  2  0
  8 10  1  0
  9 11  1  0
 10 12  2  0
 11 13  2  0
 12 13  1  0
 14 15  1  0
 15 16  2  0
 15 17  1  0
 16 18  1  0
 17 19  2  0
 18 20  2  0
 19 20  1  0
M  CHG  1   3   1
M  END
>  <PUBCHEM_COMPOUND_CID>  (1) 
46775

>  <PUBCHEM_CONFORMER_RMSD>  (1) 
0.8

>  <PUBCHEM_CONFORMER_DIVERSEORDER>  (1) 
2
12
16
11
15
13
9
10
18
6
19
3
4
14
20
5
21
17
7
1
8

>  <PUBCHEM_MMFF94_PARTIAL_CHARGES>  (1) 
29
1 -0.23
10 -0.15
11 -0.15
12 -0.15
13 -0.15
14 0.63
15 0.09
16 -0.15
17 -0.15
18 -0.15
19 -0.15
2 -0.57
20 -0.15
3 -1.01
32 0.15
33 0.15
34 0.15
35 0.15
36 0.15
37 0.15
38 0.15
39 0.15
4 0.65
40 0.15
5 0.5
6 0.5
7 0.5
8 -0.14
9 0.08

>  <PUBCHEM_EFFECTIVE_ROTOR_COUNT>  (1) 
5

>  <PUBCHEM_PHARMACOPHORE_FEATURES>  (1) 
4
1 2 acceptor
1 3 cation
6 15 16 17 18 19 20 rings
6 8 9 10 11 12 13 rings

>  <PUBCHEM_HEAVY_ATOM_COUNT>  (1) 
20

>  <PUBCHEM_ATOM_DEF_STEREO_COUNT>  (1) 
0

>  <PUBCHEM_ATOM_UDEF_STEREO_COUNT>  (1) 
0

>  <PUBCHEM_BOND_DEF_STEREO_COUNT>  (1) 
0

>  <PUBCHEM_BOND_UDEF_STEREO_COUNT>  (1) 
0

>  <PUBCHEM_ISOTOPIC_ATOM_COUNT>  (1) 
0

>  <PUBCHEM_COMPONENT_COUNT>  (1) 
1

>  <PUBCHEM_CACTVS_TAUTO_COUNT>  (1) 
1

>  <PUBCHEM_CONFORMER_ID>  (1) 
0000B6B700000002

>  <PUBCHEM_MMFF94_ENERGY>  (1) 
76.1656

>  <PUBCHEM_FEATURE_SELFOVERLAP>  (1) 
20.297

>  <PUBCHEM_SHAPE_FINGERPRINT>  (1) 
10366900 7 18340482369797477074
10498660 4 18342738473247637456
10646746 165 18271522014479255120
10670039 82 18264222447373137252
11315181 36 18040714801482682370
11640471 11 17677332701844627392
12107183 9 17683790031135616186
12173636 292 18193553368252058597
12236239 1 17095515236038424043
12403259 415 17703789232858843064
12788726 201 18261111897942170491
13583140 156 18059274514736489842
13764800 53 18271248226887446920
13965767 371 17463126842922396284
14081887 123 18410567392503362938
14142880 1 18114461159149550685
14739800 52 18118957230301112064
14787075 74 17248940174177007982
14790565 3 18123190100501296137
15961568 22 18121493816163302104
17134986 127 17543631933436092325
17357779 13 18129652110282295509
18915476 22 17059786494108830119
200 152 17240757449502988138
20510252 161 18410575084774141259
20600515 1 18196673984120365751
21033648 29 17774990307270194624
21524375 3 17909549450399057061
22182937 141 18201163139461756753
2297311 6 18337965587655124046
23227448 37 18411421687327006573
23402539 116 18338789109063861503
23419403 2 17901922443253882061
23557571 272 18343033189254613414
23558518 356 18116431444947093971
23559900 14 18339362968471617478
3187 122 18192973010559063176
3268164 11 18272080604407907628
350125 39 17975983055356615475
469060 322 18262819435626899059
6049 1 17989495117122311010
633830 44 14476963441311378842
6913067 236 17916851538905440102
7097593 13 17753031827139219410
7808743 9 18336555906606507732
81228 2 18339381690080722587

>  <PUBCHEM_SHAPE_MULTIPOLES>  (1) 
394.87
8.34
3.12
1.26
9
2.18
0.04
-0.48
0.23
-4.66
0.22
0.79
0.03
0.22

>  <PUBCHEM_SHAPE_SELFOVERLAP>  (1) 
834.968

>  <PUBCHEM_SHAPE_VOLUME>  (1) 
221.4

>  <PUBCHEM_COORDINATE_TYPE>  (1) 
2
5
10

$$$$
