46781
     RDKit          3D

 17 18  0  0  0  0  0  0  0  0999 V2000
    3.4481    1.5935   -1.4423 O   0  0  0  0  0  0  0  0  0  0  0  0
    0.2345   -1.7872   -0.1215 N   0  0  0  0  0  0  0  0  0  0  0  0
   -0.8449   -1.3810   -1.1228 C   0  0  0  0  0  0  0  0  0  0  0  0
    1.1653   -0.6239    0.2295 C   0  0  0  0  0  0  0  0  0  0  0  0
   -0.4551   -2.2656    1.1529 C   0  0  0  0  0  0  0  0  0  0  0  0
    1.0624   -2.9077   -0.7445 C   0  0  0  0  0  0  0  0  0  0  0  0
   -1.7283   -0.2777   -0.6196 C   0  0  0  0  0  0  0  0  0  0  0  0
    1.8664   -0.0701   -0.7886 C   0  0  0  0  0  0  0  0  0  0  0  0
    1.2105   -0.2469    1.5299 C   0  0  0  0  0  0  0  0  0  0  0  0
   -2.8841   -0.5892    0.0878 C   0  0  0  0  0  0  0  0  0  0  0  0
   -1.3837    1.0469   -0.8655 C   0  0  0  0  0  0  0  0  0  0  0  0
    2.7152    0.9892   -0.4677 C   0  0  0  0  0  0  0  0  0  0  0  0
    2.0593    0.8123    1.8509 C   0  0  0  0  0  0  0  0  0  0  0  0
    2.8116    1.4304    0.8520 C   0  0  0  0  0  0  0  0  0  0  0  0
   -3.7058    0.4367    0.5552 C   0  0  0  0  0  0  0  0  0  0  0  0
   -2.2051    2.0727   -0.3980 C   0  0  0  0  0  0  0  0  0  0  0  0
   -3.3662    1.7675    0.3123 C   0  0  0  0  0  0  0  0  0  0  0  0
  1 12  1  0
  2  3  1  0
  2  4  1  0
  2  5  1  0
  2  6  1  0
  3  7  1  0
  4  8  2  0
  4  9  1  0
  7 10  2  0
  7 11  1  0
  8 12  1  0
  9 13  2  0
 10 15  1  0
 11 16  2  0
 12 14  2  0
 13 14  1  0
 15 17  2  0
 16 17  1  0
M  CHG  1   2   1
M  END
>  <PUBCHEM_COMPOUND_CID>  (1) 
46781

>  <PUBCHEM_CONFORMER_RMSD>  (1) 
0.6

>  <PUBCHEM_CONFORMER_DIVERSEORDER>  (1) 
7
10
4
1
6
8
3
2
5
9

>  <PUBCHEM_MMFF94_PARTIAL_CHARGES>  (1) 
27
1 -0.53
10 -0.15
11 -0.15
12 0.08
13 -0.15
14 -0.15
15 -0.15
16 -0.15
17 -0.15
2 -0.87
26 0.15
27 0.15
28 0.15
29 0.15
3 0.65
30 0.15
31 0.15
32 0.15
33 0.15
34 0.15
35 0.45
4 0.36
5 0.5
6 0.5
7 -0.14
8 -0.15
9 -0.15

>  <PUBCHEM_EFFECTIVE_ROTOR_COUNT>  (1) 
3

>  <PUBCHEM_PHARMACOPHORE_FEATURES>  (1) 
4
1 1 donor
1 2 cation
6 4 8 9 12 13 14 rings
6 7 10 11 15 16 17 rings

>  <PUBCHEM_HEAVY_ATOM_COUNT>  (1) 
17

>  <PUBCHEM_ATOM_DEF_STEREO_COUNT>  (1) 
0

>  <PUBCHEM_ATOM_UDEF_STEREO_COUNT>  (1) 
0

>  <PUBCHEM_BOND_DEF_STEREO_COUNT>  (1) 
0

>  <PUBCHEM_BOND_UDEF_STEREO_COUNT>  (1) 
0

>  <PUBCHEM_ISOTOPIC_ATOM_COUNT>  (1) 
0

>  <PUBCHEM_COMPONENT_COUNT>  (1) 
1

>  <PUBCHEM_CACTVS_TAUTO_COUNT>  (1) 
3

>  <PUBCHEM_CONFORMER_ID>  (1) 
0000B6BD00000007

>  <PUBCHEM_MMFF94_ENERGY>  (1) 
71.9547

>  <PUBCHEM_FEATURE_SELFOVERLAP>  (1) 
20.297

>  <PUBCHEM_SHAPE_FINGERPRINT>  (1) 
10165383 225 18200333089934473945
10498660 4 18341324561487124333
11471102 22 14924485521191950216
12202030 40 12469453013278859672
12491281 212 18188776187934757444
12808571 1 18186802512791053356
128993 33 18273493455528088169
13132413 78 17767956546403257762
13134695 92 17412727424569849582
13294875 104 17702928267587888634
13538477 17 17678448877998142490
13693222 7 18268698433890285357
13764800 53 18189902087509297387
14386348 128 18272091573933969753
14648413 74 18049725122614366159
14713325 29 17900286353019840406
14787075 74 16521338337063130643
14817 1 10189621618626040794
15534591 1 17533509073750796940
15775835 57 18343298163067257873
16945 1 18271231837534929455
17357990 137 18187354459249505792
18186145 218 17489313009327905400
18981168 100 18190730947588666725
19837323 101 18267861877218998206
20361792 2 10303533965284479259
20511035 2 17836905838038088871
20671657 1 18130220433155388623
21041028 32 17695628454923984290
21524375 3 18410847772142346983
21731228 192 18338218432152583690
22802520 49 18200604725378388854
23402539 116 17481957426930959590
23419403 2 17398732960899556338
23526113 38 17773899595708803990
23557571 272 17404855338343441648
23559900 14 17972599884206286279
25 1 17775294862810290210
2637199 183 17417546717479104009
2748010 2 18190738622900861949
305870 269 18269818879077924826
3071541 158 17981325586461126822
3797600 57 17532386441760282721
430814 3 18334575737213198182
44154327 71 18261115166623532397
458136 41 18268448891858244483
549884 4 17132109126309909225
6338986 31 9367350331454070932
6442390 28 18200040671603041843
7364860 26 18127405648907393383
81228 2 17622428863458125598

>  <PUBCHEM_SHAPE_MULTIPOLES>  (1) 
339
5.44
2.61
1.44
1.97
1.26
0.3
-3.68
0.07
-0.3
-0.26
-0.89
-0.09
0.05

>  <PUBCHEM_SHAPE_SELFOVERLAP>  (1) 
721.387

>  <PUBCHEM_SHAPE_VOLUME>  (1) 
190.3

>  <PUBCHEM_COORDINATE_TYPE>  (1) 
2
5
10

$$$$
