46792
     RDKit          3D

 32 33  0  0  0  0  0  0  0  0999 V2000
   -5.3124    0.3025    1.2023 O   0  0  0  0  0  0  0  0  0  0  0  0
    5.3161    0.2912   -1.2050 O   0  0  0  0  0  0  0  0  0  0  0  0
   -7.2792    0.1649   -0.0860 N   0  0  0  0  0  0  0  0  0  0  0  0
    7.2796    0.1681    0.0899 N   0  0  0  0  0  0  0  0  0  0  0  0
   -7.8956    0.5229    1.2600 C   0  0  0  0  0  0  0  0  0  0  0  0
   -7.6446    1.2180   -1.1259 C   0  0  0  0  0  0  0  0  0  0  0  0
   -7.8442   -1.1787   -0.5534 C   0  0  0  0  0  0  0  0  0  0  0  0
    7.8547   -1.1704    0.5599 C   0  0  0  0  0  0  0  0  0  0  0  0
    7.6314    1.2247    1.1308 C   0  0  0  0  0  0  0  0  0  0  0  0
    7.8979    0.5310   -1.2538 C   0  0  0  0  0  0  0  0  0  0  0  0
   -5.7667    0.0732    0.0853 C   0  0  0  0  0  0  0  0  0  0  0  0
    5.7686    0.0627   -0.0871 C   0  0  0  0  0  0  0  0  0  0  0  0
   -4.8968   -0.2854   -1.1046 C   0  0  0  0  0  0  0  0  0  0  0  0
    4.8826   -0.3040    1.0963 C   0  0  0  0  0  0  0  0  0  0  0  0
   -9.3981    0.6188    1.1103 C   0  0  0  0  0  0  0  0  0  0  0  0
   -7.1193    2.5643   -0.6775 C   0  0  0  0  0  0  0  0  0  0  0  0
   -7.5245   -2.2392    0.4773 C   0  0  0  0  0  0  0  0  0  0  0  0
    7.5484   -2.2341   -0.4717 C   0  0  0  0  0  0  0  0  0  0  0  0
    7.0960    2.5660    0.6799 C   0  0  0  0  0  0  0  0  0  0  0  0
    9.3989    0.6402   -1.0984 C   0  0  0  0  0  0  0  0  0  0  0  0
   -3.4265   -0.2881   -0.7745 C   0  0  0  0  0  0  0  0  0  0  0  0
    3.4276   -0.3010    0.7697 C   0  0  0  0  0  0  0  0  0  0  0  0
   -2.6760    0.8785   -0.9220 C   0  0  0  0  0  0  0  0  0  0  0  0
    2.6795    0.8657    0.9269 C   0  0  0  0  0  0  0  0  0  0  0  0
   -2.8161   -1.4574   -0.3207 C   0  0  0  0  0  0  0  0  0  0  0  0
    2.8150   -1.4654    0.3063 C   0  0  0  0  0  0  0  0  0  0  0  0
   -0.7049   -0.2935   -0.1618 C   0  0  0  0  0  0  0  0  0  0  0  0
    0.7061   -0.2962    0.1570 C   0  0  0  0  0  0  0  0  0  0  0  0
   -1.3153    0.8757   -0.6157 C   0  0  0  0  0  0  0  0  0  0  0  0
    1.3188    0.8681    0.6205 C   0  0  0  0  0  0  0  0  0  0  0  0
   -1.4553   -1.4601   -0.0144 C   0  0  0  0  0  0  0  0  0  0  0  0
    1.4543   -1.4630    0.0000 C   0  0  0  0  0  0  0  0  0  0  0  0
  1 11  2  0
  2 12  2  0
  3  5  1  0
  3  6  1  0
  3  7  1  0
  3 11  1  0
  4  8  1  0
  4  9  1  0
  4 10  1  0
  4 12  1  0
  5 15  1  0
  6 16  1  0
  7 17  1  0
  8 18  1  0
  9 19  1  0
 10 20  1  0
 11 13  1  0
 12 14  1  0
 13 21  1  0
 14 22  1  0
 21 23  2  0
 21 25  1  0
 22 24  2  0
 22 26  1  0
 23 29  1  0
 24 30  1  0
 25 31  2  0
 26 32  2  0
 27 28  1  0
 27 29  2  0
 27 31  1  0
 28 30  2  0
 28 32  1  0
M  CHG  2   3   1   4   1
M  END
>  <PUBCHEM_COMPOUND_CID>  (1) 
46792

>  <PUBCHEM_CONFORMER_RMSD>  (1) 
1.4

>  <PUBCHEM_CONFORMER_DIVERSEORDER>  (1) 
1
7
2
5
6
4
3

>  <PUBCHEM_MMFF94_PARTIAL_CHARGES>  (1) 
32
1 -0.57
10 0.5
11 0.9
12 0.9
13 0.2
14 0.2
2 -0.57
21 -0.14
22 -0.14
23 -0.15
24 -0.15
25 -0.15
26 -0.15
29 -0.15
3 -0.91
30 -0.15
31 -0.15
32 -0.15
4 -0.91
5 0.5
6 0.5
67 0.15
68 0.15
69 0.15
7 0.5
70 0.15
71 0.15
72 0.15
73 0.15
74 0.15
8 0.5
9 0.5

>  <PUBCHEM_EFFECTIVE_ROTOR_COUNT>  (1) 
13

>  <PUBCHEM_PHARMACOPHORE_FEATURES>  (1) 
4
1 1 acceptor
1 2 acceptor
6 21 23 25 27 29 31 rings
6 22 24 26 28 30 32 rings

>  <PUBCHEM_HEAVY_ATOM_COUNT>  (1) 
32

>  <PUBCHEM_ATOM_DEF_STEREO_COUNT>  (1) 
0

>  <PUBCHEM_ATOM_UDEF_STEREO_COUNT>  (1) 
0

>  <PUBCHEM_BOND_DEF_STEREO_COUNT>  (1) 
0

>  <PUBCHEM_BOND_UDEF_STEREO_COUNT>  (1) 
0

>  <PUBCHEM_ISOTOPIC_ATOM_COUNT>  (1) 
0

>  <PUBCHEM_COMPONENT_COUNT>  (1) 
1

>  <PUBCHEM_CACTVS_TAUTO_COUNT>  (1) 
1

>  <PUBCHEM_CONFORMER_ID>  (1) 
0000B6C800000001

>  <PUBCHEM_MMFF94_ENERGY>  (1) 
108.7144

>  <PUBCHEM_FEATURE_SELFOVERLAP>  (1) 
20.297

>  <PUBCHEM_SHAPE_FINGERPRINT>  (1) 
10 15 18113335302213232979
10299344 5 18411136939405309382
106641 1 15719395044282962795
10670039 82 13614248053758314051
10883706 142 15719109168098761136
11181472 205 16988574467599237832
11315181 36 18273212007439090731
11638347 137 14273729639055976448
12013929 94 18114186388923140571
12089408 11 18410853265405434158
13914758 101 14405190564138275251
14150022 121 18187363174118731213
14251764 18 18334290981055825939
14251764 46 18410576184180195819
14428016 248 17603873303844090692
14937079 2 18340202011612944776
15131766 46 13899899091368073066
15183329 4 15769779047944941482
15301273 46 18411133641044304680
15347591 1 17679009409605466182
15461852 350 17775275093967267021
15840311 113 18336266825553718524
1754908 1 14851605483429128881
17686467 74 16298106501721800445
18335252 98 16515405153418828803
18608769 82 18409165537006531083
20105231 36 18410577283687094499
21267235 1 18410854360616534022
21792961 116 18130221550020809448
22224240 67 18040712584493996706
24771293 8 18187646890935442557
249057 3 16487249997567853430
3092352 35 17530963592921925866
335352 9 18343299288185087807
335507 130 17675928707664715351
3633792 109 15267347309785945638
4073 2 18409447028715218483
4339292 15 11170210774251159545
45270241 37 18411986876028482038
4625314 4 18260267455731857687
5028188 123 17917429886622007814
5758199 1 18186517709051528675
59682541 35 17821730546282102513
6081469 158 12895072916028493690
6126387 218 8646776594978830567
67123 10 18259985985055460551
9663363 56 15841833344829925930

>  <PUBCHEM_SHAPE_MULTIPOLES>  (1) 
636.84
34.64
1.98
1.21
0.02
0.11
0
5.92
0.05
0.01
0
-0.01
0.27
0.75

>  <PUBCHEM_SHAPE_SELFOVERLAP>  (1) 
1307.243

>  <PUBCHEM_SHAPE_VOLUME>  (1) 
368.5

>  <PUBCHEM_COORDINATE_TYPE>  (1) 
2
5
10

$$$$
