46798
     RDKit          3D

 20 19  0  0  0  0  0  0  0  0999 V2000
    4.2698   -0.1191   -0.0058 O   0  0  0  0  0  0  0  0  0  0  0  0
   -4.2708    0.1159    0.0417 O   0  0  0  0  0  0  0  0  0  0  0  0
    3.0385    1.8331    0.0135 O   0  0  0  0  0  0  0  0  0  0  0  0
   -3.0434   -1.8385    0.0128 O   0  0  0  0  0  0  0  0  0  0  0  0
    6.7862   -0.1960   -0.0260 N   0  0  0  0  0  0  0  0  0  0  0  0
   -6.7859    0.1998   -0.0409 N   0  0  0  0  0  0  0  0  0  0  0  0
    5.4934    0.6352   -0.0082 C   0  0  0  0  0  0  0  0  0  0  0  0
   -5.4949   -0.6346   -0.0233 C   0  0  0  0  0  0  0  0  0  0  0  0
    7.9862    0.7417   -0.0631 C   0  0  0  0  0  0  0  0  0  0  0  0
    6.8079   -1.0894   -1.2583 C   0  0  0  0  0  0  0  0  0  0  0  0
    6.8580   -1.0573    1.2270 C   0  0  0  0  0  0  0  0  0  0  0  0
   -6.7571    1.1447   -1.2355 C   0  0  0  0  0  0  0  0  0  0  0  0
   -7.9903   -0.7236   -0.1573 C   0  0  0  0  0  0  0  0  0  0  0  0
   -6.8915    1.0133    1.2414 C   0  0  0  0  0  0  0  0  0  0  0  0
    0.6081    0.4610    0.0504 C   0  0  0  0  0  0  0  0  0  0  0  0
   -0.6099   -0.4705    0.0566 C   0  0  0  0  0  0  0  0  0  0  0  0
    1.9246   -0.3102   -0.0004 C   0  0  0  0  0  0  0  0  0  0  0  0
   -1.9262    0.3003    0.1172 C   0  0  0  0  0  0  0  0  0  0  0  0
    3.1195    0.6117    0.0054 C   0  0  0  0  0  0  0  0  0  0  0  0
   -3.1223   -0.6177    0.0527 C   0  0  0  0  0  0  0  0  0  0  0  0
  1  7  1  0
  1 19  1  0
  2  8  1  0
  2 20  1  0
  3 19  2  0
  4 20  2  0
  5  7  1  0
  5  9  1  0
  5 10  1  0
  5 11  1  0
  6  8  1  0
  6 12  1  0
  6 13  1  0
  6 14  1  0
 15 16  1  0
 15 17  1  0
 16 18  1  0
 17 19  1  0
 18 20  1  0
M  CHG  2   5   1   6   1
M  END
>  <PUBCHEM_COMPOUND_CID>  (1) 
46798

>  <PUBCHEM_CONFORMER_RMSD>  (1) 
1.4

>  <PUBCHEM_CONFORMER_DIVERSEORDER>  (1) 
2
10
14
11
4
9
1
7
15
13
12
8
3
5
6

>  <PUBCHEM_MMFF94_PARTIAL_CHARGES>  (1) 
18
1 -0.43
10 0.5
11 0.5
12 0.5
13 0.5
14 0.5
17 0.06
18 0.06
19 0.66
2 -0.43
20 0.66
3 -0.57
4 -0.57
5 -1.01
6 -1.01
7 0.78
8 0.78
9 0.5

>  <PUBCHEM_EFFECTIVE_ROTOR_COUNT>  (1) 
11

>  <PUBCHEM_PHARMACOPHORE_FEATURES>  (1) 
5
1 3 acceptor
1 4 acceptor
1 5 cation
1 6 cation
4 15 16 17 18 hydrophobe

>  <PUBCHEM_HEAVY_ATOM_COUNT>  (1) 
20

>  <PUBCHEM_ATOM_DEF_STEREO_COUNT>  (1) 
0

>  <PUBCHEM_ATOM_UDEF_STEREO_COUNT>  (1) 
0

>  <PUBCHEM_BOND_DEF_STEREO_COUNT>  (1) 
0

>  <PUBCHEM_BOND_UDEF_STEREO_COUNT>  (1) 
0

>  <PUBCHEM_ISOTOPIC_ATOM_COUNT>  (1) 
0

>  <PUBCHEM_COMPONENT_COUNT>  (1) 
1

>  <PUBCHEM_CACTVS_TAUTO_COUNT>  (1) 
1

>  <PUBCHEM_CONFORMER_ID>  (1) 
0000B6CE00000002

>  <PUBCHEM_MMFF94_ENERGY>  (1) 
39.6905

>  <PUBCHEM_FEATURE_SELFOVERLAP>  (1) 
25.371

>  <PUBCHEM_SHAPE_FINGERPRINT>  (1) 
10066227 49 17703233914546070350
10299344 5 17458344143334697554
11315181 36 17989210377880836899
11638347 137 14189582918954855044
11719270 70 17917713487761127918
12091667 2 17603585232234994859
13533116 47 15913053067187826294
13885169 127 18059859445841648577
13914758 101 17917435293563866209
13964095 4 18333449837607055365
14251752 14 18260544511250621685
14251764 18 18408323276270015288
14251764 46 18273778255457877527
15183329 4 18410293588216813313
16120349 18 18188208814540061652
17834076 25 16443063902254757265
18006028 8 17632858628805815584
18335252 98 9655577431163193829
20281389 69 18333730229925414437
20621476 8 18334575724265038230
21095086 128 14562529582914285569
21315763 28 18272369802368903345
220451 1 15719386261174978946
23035841 295 18187082862270191186
23521765 1 18341895198935613451
23559900 14 18200869690200302585
28498 318 18411699864232453390
328311 84 18114186345418942731
335352 9 18410575119028092390
33684 2 18410573989446424939
3545911 37 18335419071453764855
4073 2 17896322592074111362
4325135 7 9223231844938043715
559249 180 18342736360297872839
5758199 1 8574714606730227885
57583515 80 17561084713595258979
59682541 35 9583511015262167318
59755656 215 18335421240412600254
59755656 520 17458340870981516819
67123 10 18411699919423306943
8209 1 18410855468723377645

>  <PUBCHEM_SHAPE_MULTIPOLES>  (1) 
378.15
28.41
1.28
0.93
0.05
0
-0.01
0.06
-0.75
0
-0.03
0
0
0.01

>  <PUBCHEM_SHAPE_SELFOVERLAP>  (1) 
704.296

>  <PUBCHEM_SHAPE_VOLUME>  (1) 
239.2

>  <PUBCHEM_COORDINATE_TYPE>  (1) 
2
5
10

$$$$
