46805
     RDKit          3D

 15 16  0  0  1  0  0  0  0  0999 V2000
    0.3087   -0.3338    0.0396 N   0  0  0  0  0  0  0  0  0  0  0  0
   -3.4252    0.1171   -0.1134 N   0  0  0  0  0  0  0  0  0  0  0  0
    2.1967    1.0314    0.9857 C   0  0  0  0  0  0  0  0  0  0  0  0
    2.6537   -1.2385    0.1141 C   0  0  0  0  0  0  0  0  0  0  0  0
    2.9941   -0.2498    1.2290 C   0  0  0  0  0  0  0  0  0  0  0  0
    0.6891    0.7012    1.0097 C   0  0  0  0  0  0  0  0  0  0  0  0
    1.1401   -1.5394    0.1496 C   0  0  0  0  0  0  0  0  0  0  0  0
    2.6571    1.6762   -0.3352 C   0  0  0  0  0  0  0  0  0  0  0  0
    3.1294   -0.6695   -1.2358 C   0  0  0  0  0  0  0  0  0  0  0  0
    2.6141    0.7385   -1.5443 C   0  0  0  0  0  0  0  0  0  0  0  0
   -1.1108   -0.6605    0.1465 C   0  0  0  0  0  0  0  0  0  0  0  0
   -1.9999    0.5227   -0.1884 C   0  0  0  0  0  0  0  0  0  0  0  0
   -3.7733   -0.3952    1.2911 C   0  0  0  0  0  0  0  0  0  0  0  0
   -4.3469    1.3030   -0.4305 C   0  0  0  0  0  0  0  0  0  0  0  0
   -3.7271   -1.0035   -1.1179 C   0  0  0  0  0  0  0  0  0  0  0  0
  1  6  1  0
  1  7  1  0
  1 11  1  0
  2 12  1  0
  2 13  1  0
  2 14  1  0
  2 15  1  0
  3  5  1  0
  3  6  1  0
  3  8  1  0
  4  5  1  0
  4  7  1  0
  4  9  1  0
  8 10  1  0
  9 10  1  0
 11 12  1  0
M  CHG  1   2   1
M  END
>  <PUBCHEM_COMPOUND_CID>  (1) 
46805

>  <PUBCHEM_CONFORMER_RMSD>  (1) 
0.6

>  <PUBCHEM_CONFORMER_DIVERSEORDER>  (1) 
1
6
16
15
10
3
13
12
14
8
17
4
2
9
11
5
7

>  <PUBCHEM_MMFF94_PARTIAL_CHARGES>  (1) 
9
1 -0.81
11 0.27
12 0.5
13 0.5
14 0.5
15 0.5
2 -1.01
6 0.27
7 0.27

>  <PUBCHEM_EFFECTIVE_ROTOR_COUNT>  (1) 
4.4

>  <PUBCHEM_PHARMACOPHORE_FEATURES>  (1) 
4
1 1 cation
1 2 cation
6 1 3 4 5 6 7 rings
6 3 4 5 8 9 10 rings

>  <PUBCHEM_HEAVY_ATOM_COUNT>  (1) 
15

>  <PUBCHEM_ATOM_DEF_STEREO_COUNT>  (1) 
0

>  <PUBCHEM_ATOM_UDEF_STEREO_COUNT>  (1) 
2

>  <PUBCHEM_BOND_DEF_STEREO_COUNT>  (1) 
0

>  <PUBCHEM_BOND_UDEF_STEREO_COUNT>  (1) 
0

>  <PUBCHEM_ISOTOPIC_ATOM_COUNT>  (1) 
0

>  <PUBCHEM_COMPONENT_COUNT>  (1) 
1

>  <PUBCHEM_CACTVS_TAUTO_COUNT>  (1) 
1

>  <PUBCHEM_CONFORMER_ID>  (1) 
0000B6D500000001

>  <PUBCHEM_MMFF94_ENERGY>  (1) 
38.0317

>  <PUBCHEM_FEATURE_SELFOVERLAP>  (1) 
21.906

>  <PUBCHEM_SHAPE_FINGERPRINT>  (1) 
11615757 297 18202570583517843579
12654215 9 18341611499566906600
12932764 1 18344146994892233275
13224815 77 18335420205478196243
13296908 3 16702303477103108535
13705890 14 16702304576503856166
14144814 61 17060620005827515363
14289901 80 16732993054284391905
14344429 50 18411978066465047032
16945 1 18410296891426647378
18186145 218 17918278649226528019
190213 19 17132111347097949979
19422 9 17418379112152923207
20233049 118 18409165485408725928
20279233 1 18272362071074245267
20645477 70 17918270922511830111
21501925 9 9007053548328916133
21503847 285 16805609118292737125
22854114 111 18334855021767137198
231179 274 16370727071440417332
23402539 116 18343009013284792956
23402655 69 18343021064646520933
23559900 14 17458341896977326026
3060560 45 17846214419390483182
3248919 1 17894624859957513827
474 4 15431464912310114462
522135 26 18342741793066875011
5374978 207 12107503728501381669
633830 44 18113900446720901527
74978 22 17418374731191296803

>  <PUBCHEM_SHAPE_MULTIPOLES>  (1) 
298.73
8.01
1.5
1.34
8.14
0.11
0.08
0.67
1.03
-0.46
0.13
-0.45
0.04
-0.01

>  <PUBCHEM_SHAPE_SELFOVERLAP>  (1) 
591.529

>  <PUBCHEM_SHAPE_VOLUME>  (1) 
174.8

>  <PUBCHEM_COORDINATE_TYPE>  (1) 
2
5
10

$$$$
