46811
     RDKit          3D

 24 26  0  0  1  0  0  0  0  0999 V2000
   -0.9490   -0.7589   -0.2827 O   0  0  0  0  0  0  0  0  0  0  0  0
   -1.7208   -2.9162   -0.0510 O   0  0  0  0  0  0  0  0  0  0  0  0
   -4.0462    1.5994    0.8076 N   0  0  0  0  0  0  0  0  0  0  0  0
   -4.4593    0.1843    0.7516 C   0  0  0  0  0  0  0  0  0  0  0  0
   -3.6334    1.8723   -0.5822 C   0  0  0  0  0  0  0  0  0  0  0  0
   -5.2519    0.0679   -0.5551 C   0  0  0  0  0  0  0  0  0  0  0  0
   -4.7036    1.1896   -1.4409 C   0  0  0  0  0  0  0  0  0  0  0  0
   -3.1606   -0.6447    0.7117 C   0  0  0  0  0  0  0  0  0  0  0  0
   -2.2495    1.2170   -0.7591 C   0  0  0  0  0  0  0  0  0  0  0  0
   -2.2769   -0.2950   -0.4949 C   0  0  0  0  0  0  0  0  0  0  0  0
   -5.1159    2.4834    1.2639 C   0  0  0  0  0  0  0  0  0  0  0  0
   -0.8100   -2.1005   -0.0714 C   0  0  0  0  0  0  0  0  0  0  0  0
    0.6304   -2.4384    0.1154 C   0  0  0  0  0  0  0  0  0  0  0  0
    4.8102    1.4876   -0.0033 C   0  0  0  0  0  0  0  0  0  0  0  0
    1.7034   -1.4292    0.0849 C   0  0  0  0  0  0  0  0  0  0  0  0
    3.7228    0.4674    0.0276 C   0  0  0  0  0  0  0  0  0  0  0  0
    2.3299   -1.1412   -1.1168 C   0  0  0  0  0  0  0  0  0  0  0  0
    2.0661   -0.7884    1.2587 C   0  0  0  0  0  0  0  0  0  0  0  0
    0.9352   -3.7263    0.3408 C   0  0  0  0  0  0  0  0  0  0  0  0
    4.4515    2.6678   -0.9585 C   0  0  0  0  0  0  0  0  0  0  0  0
    6.1525    0.8690   -0.5035 C   0  0  0  0  0  0  0  0  0  0  0  0
    5.1461    2.1530    1.3726 C   0  0  0  0  0  0  0  0  0  0  0  0
    3.3465   -0.1865   -1.1456 C   0  0  0  0  0  0  0  0  0  0  0  0
    3.0826    0.1664    1.2299 C   0  0  0  0  0  0  0  0  0  0  0  0
  1 10  1  0
  1 12  1  0
  2 12  2  0
  3  4  1  0
  3  5  1  0
  3 11  1  0
  4  6  1  0
  4  8  1  0
  5  7  1  0
  5  9  1  0
  6  7  1  0
  8 10  1  0
  9 10  1  0
 12 13  1  0
 13 15  1  0
 13 19  2  0
 14 16  1  0
 14 20  1  0
 14 21  1  0
 14 22  1  0
 15 17  2  0
 15 18  1  0
 16 23  2  0
 16 24  1  0
 17 23  1  0
 18 24  2  0
M  END
>  <PUBCHEM_COMPOUND_CID>  (1) 
46811

>  <PUBCHEM_CONFORMER_RMSD>  (1) 
0.8

>  <PUBCHEM_CONFORMER_DIVERSEORDER>  (1) 
6
177
145
36
166
113
139
70
74
106
179
121
183
125
115
131
96
49
143
135
151
138
154
184
109
160
75
141
172
105
159
174
167
21
140
130
71
147
126
137
180
30
171
91
102
72
25
56
127
53
14
37
5
3
158
104
2
82
157
23
9
173
148
185
181
95
47
133
76
108
164
146
41
119
114
149
40
94
128
153
162
120
22
54
169
129
87
4
132
161
136
175
31
86
29
85
32
165
155
78
63
11
178
142
110
112
100
48
144
8
182
28
89
99
12
90
92
24
97
15
168
52
83
156
73
45
134
43
80
150
68
16
60
64
39
1
66
13
46
65
77
170
20
42
69
123
117
111
62
18
33
124
88
176
7
98
61
50
163
27
19
55
79
34
58
10
57
152
35
118
59
81
51
101
67
17
103
122
38
116
107
44
26
84
93

>  <PUBCHEM_MMFF94_PARTIAL_CHARGES>  (1) 
23
1 -0.43
10 0.28
11 0.27
12 0.71
13 -0.01
14 0.14
15 0.03
16 -0.14
17 -0.15
18 -0.15
19 -0.3
2 -0.57
23 -0.15
24 -0.15
3 -0.81
4 0.27
48 0.15
49 0.15
5 0.27
50 0.15
51 0.15
52 0.15
53 0.15

>  <PUBCHEM_EFFECTIVE_ROTOR_COUNT>  (1) 
6.2

>  <PUBCHEM_PHARMACOPHORE_FEATURES>  (1) 
6
1 19 hydrophobe
1 2 acceptor
1 3 cation
4 14 20 21 22 hydrophobe
6 15 16 17 18 23 24 rings
8 3 4 5 6 7 8 9 10 rings

>  <PUBCHEM_HEAVY_ATOM_COUNT>  (1) 
24

>  <PUBCHEM_ATOM_DEF_STEREO_COUNT>  (1) 
0

>  <PUBCHEM_ATOM_UDEF_STEREO_COUNT>  (1) 
2

>  <PUBCHEM_BOND_DEF_STEREO_COUNT>  (1) 
0

>  <PUBCHEM_BOND_UDEF_STEREO_COUNT>  (1) 
0

>  <PUBCHEM_ISOTOPIC_ATOM_COUNT>  (1) 
0

>  <PUBCHEM_COMPONENT_COUNT>  (1) 
1

>  <PUBCHEM_CACTVS_TAUTO_COUNT>  (1) 
1

>  <PUBCHEM_CONFORMER_ID>  (1) 
0000B6DB00000006

>  <PUBCHEM_MMFF94_ENERGY>  (1) 
77.4414

>  <PUBCHEM_FEATURE_SELFOVERLAP>  (1) 
30.446

>  <PUBCHEM_SHAPE_FINGERPRINT>  (1) 
10498660 4 18412261739810891853
10928967 22 9295289468930784668
11720765 8 17415010058729187510
11796584 16 8790068235949484880
12363563 72 9295288373882292602
12390115 104 18338809999526066210
12403259 118 17458628938547754285
12422481 6 17458614593483800540
12596602 18 16443346524399666952
12633257 1 18115294696443270644
12769317 202 18343297059498046192
12788726 201 18051957401654959447
12978246 48 18260830435919582996
13103583 49 11891328716867080487
13224815 77 18263925449935634087
13402501 40 18413103991804739280
13544653 18 7925908175468150710
13583140 156 16443335490480522981
13955234 65 18191027789816645667
13965767 371 17894902997776420782
1420 369 8718830894391486392
14251751 18 10737285753207494116
14251764 30 11815603247013865717
14251764 38 17827624864852336917
14251764 75 18411428305771266073
14257110 125 18408322207002590998
14341114 328 16660369198720230856
14347329 18 18339642343156326280
1454969 45 18337390565165954911
14739800 52 18269816757780604848
14767858 380 18269254911871460727
14790565 3 18410580595133305496
14840074 17 17676493886210804756
14848178 5 10809346658749551457
14848178 96 18340767057140413841
14849402 71 18263930938856677434
14950920 106 15936679458855326904
15163728 17 18338248153816986262
15183329 4 15339125619433412556
15188451 53 13695881358802182825
15342168 16 18340206289520826817
17834072 32 18410012173791806588
17857418 61 9151178644768093676
18608769 82 18200030789157515987
18785283 64 18262232201971414978
193927 3 9367350361798247958
20567600 254 18335412474225756022
21033648 29 18339078298112857896
21250096 35 10015868673716642012
21401589 2 18334298694774658267
21756936 100 18339353193173219046
23227448 37 18338236093010612605
23559900 14 17901660471866534851
245318 6 17750815413181641908
283562 15 18193269917680789851
2838139 119 17988922284328062556
3004659 81 12247680474389942532
3459 39 18269252686782917704
3680242 22 18334010567284411712
474 4 18409727344160710311
5048184 11 18411135848478166051
5104073 3 18187653436397270515
5252454 2 18341886381462726515
57724786 102 18196659484442442153
613672 6 10015577273038953060
633830 44 18129664067782458295
6442390 28 18409455794727508663
7064713 232 18335421317811741108
7808743 9 18337672030956066928
7970288 3 9079111150646399929
960060 61 11599712987178477122
9981440 41 18261390078742808083

>  <PUBCHEM_SHAPE_MULTIPOLES>  (1) 
477.19
13.57
3.4
1.28
0.81
1.83
-0.1
-12.44
-0.19
0.62
-0.32
0.05
-0.5
-0.19

>  <PUBCHEM_SHAPE_SELFOVERLAP>  (1) 
1011.789

>  <PUBCHEM_SHAPE_VOLUME>  (1) 
268.7

>  <PUBCHEM_COORDINATE_TYPE>  (1) 
2
5
10

$$$$
