46813
     RDKit          3D

 21 23  0  0  1  0  0  0  0  0999 V2000
    2.4042   -0.1686   -2.5349 Cl  0  0  0  0  0  0  0  0  0  0  0  0
   -0.0269    0.3951    0.4066 O   0  0  0  0  0  0  0  0  0  0  0  0
   -0.1577    2.6622    0.0242 O   0  0  0  0  0  0  0  0  0  0  0  0
   -3.7602   -1.0668   -0.6793 N   0  0  0  0  0  0  0  0  0  0  0  0
   -3.3420   -1.3748    0.6933 C   0  0  0  0  0  0  0  0  0  0  0  0
   -3.6163    0.3909   -0.7702 C   0  0  0  0  0  0  0  0  0  0  0  0
   -4.2139   -0.3702    1.4582 C   0  0  0  0  0  0  0  0  0  0  0  0
   -4.3960    0.8041    0.4854 C   0  0  0  0  0  0  0  0  0  0  0  0
   -1.8413   -1.1077    0.9207 C   0  0  0  0  0  0  0  0  0  0  0  0
   -2.1438    0.8387   -0.6926 C   0  0  0  0  0  0  0  0  0  0  0  0
   -1.4386    0.3305    0.5721 C   0  0  0  0  0  0  0  0  0  0  0  0
   -3.1114   -1.8336   -1.7265 C   0  0  0  0  0  0  0  0  0  0  0  0
    0.4884    1.6297    0.1344 C   0  0  0  0  0  0  0  0  0  0  0  0
    1.9716    1.5440    0.0067 C   0  0  0  0  0  0  0  0  0  0  0  0
    2.7188    0.2819    0.1454 C   0  0  0  0  0  0  0  0  0  0  0  0
    2.6314    2.6804   -0.2682 C   0  0  0  0  0  0  0  0  0  0  0  0
    2.9583   -0.5464   -0.9411 C   0  0  0  0  0  0  0  0  0  0  0  0
    3.1771   -0.0491    1.4131 C   0  0  0  0  0  0  0  0  0  0  0  0
    3.6714   -1.7311   -0.7569 C   0  0  0  0  0  0  0  0  0  0  0  0
    3.8899   -1.2340    1.5971 C   0  0  0  0  0  0  0  0  0  0  0  0
    4.1370   -2.0750    0.5122 C   0  0  0  0  0  0  0  0  0  0  0  0
  1 17  1  0
  2 11  1  0
  2 13  1  0
  3 13  2  0
  4  5  1  0
  4  6  1  0
  4 12  1  0
  5  7  1  0
  5  9  1  0
  6  8  1  0
  6 10  1  0
  7  8  1  0
  9 11  1  0
 10 11  1  0
 13 14  1  0
 14 15  1  0
 14 16  2  0
 15 17  2  0
 15 18  1  0
 17 19  1  0
 18 20  2  0
 19 21  2  0
 20 21  1  0
M  END
>  <PUBCHEM_COMPOUND_CID>  (1) 
46813

>  <PUBCHEM_CONFORMER_RMSD>  (1) 
0.8

>  <PUBCHEM_CONFORMER_DIVERSEORDER>  (1) 
1
47
50
89
88
10
87
95
71
94
41
8
60
39
86
79
6
80
96
36
75
44
34
98
13
101
97
74
66
64
68
7
99
100
63
11
18
77
61
92
45
76
22
82
37
70
65
43
69
78
35
90
23
91
12
25
17
72
38
42
67
46
51
4
56
53
58
93
84
30
49
85
26
2
21
5
15
62
24
3
32
83
81
29
73
57
9
19
28
16
14
31
20
52
40
54
48
33
55
27
59

>  <PUBCHEM_MMFF94_PARTIAL_CHARGES>  (1) 
23
1 -0.18
11 0.28
12 0.27
13 0.71
14 -0.01
15 0.03
16 -0.3
17 0.18
18 -0.15
19 -0.15
2 -0.43
20 -0.15
21 -0.15
3 -0.57
36 0.15
37 0.15
38 0.15
39 0.15
4 -0.81
40 0.15
41 0.15
5 0.27
6 0.27

>  <PUBCHEM_EFFECTIVE_ROTOR_COUNT>  (1) 
5.2

>  <PUBCHEM_PHARMACOPHORE_FEATURES>  (1) 
5
1 16 hydrophobe
1 3 acceptor
1 4 cation
6 15 17 18 19 20 21 rings
8 4 5 6 7 8 9 10 11 rings

>  <PUBCHEM_HEAVY_ATOM_COUNT>  (1) 
21

>  <PUBCHEM_ATOM_DEF_STEREO_COUNT>  (1) 
0

>  <PUBCHEM_ATOM_UDEF_STEREO_COUNT>  (1) 
2

>  <PUBCHEM_BOND_DEF_STEREO_COUNT>  (1) 
0

>  <PUBCHEM_BOND_UDEF_STEREO_COUNT>  (1) 
0

>  <PUBCHEM_ISOTOPIC_ATOM_COUNT>  (1) 
0

>  <PUBCHEM_COMPONENT_COUNT>  (1) 
1

>  <PUBCHEM_CACTVS_TAUTO_COUNT>  (1) 
1

>  <PUBCHEM_CONFORMER_ID>  (1) 
0000B6DD00000001

>  <PUBCHEM_MMFF94_ENERGY>  (1) 
60.1315

>  <PUBCHEM_FEATURE_SELFOVERLAP>  (1) 
25.371

>  <PUBCHEM_SHAPE_FINGERPRINT>  (1) 
10062212 137 18343295981598534731
10498660 4 9295280638493400170
11405975 8 18410576180370681449
11615756 256 8790614722834662671
116883 192 18339925900839019844
12363563 72 18411420583646258330
12553582 1 18410582751454223250
12596599 1 17846509131424965511
12633257 1 18343305864059807279
12707595 3 18335707134920805258
12788726 201 18270414784278992064
13224815 77 17561084734547966519
13533116 47 18270116954657070539
13675066 3 17275110505143975113
13965767 371 11599435829303691162
14341114 328 14117503355684746014
14848160 33 18408600387750051978
15210252 30 7997965804182939238
16752209 62 18042396924612161017
17349148 13 17346312717763857903
17492 89 18270118053689235023
17818456 19 17988093179551927689
1798214 55 9727625116510889042
18186145 218 16805320002663879339
19078846 21 18339371763973685360
19141452 34 18202559558394920719
19862831 5 17676488319695214122
20281475 54 18271806860551703409
20626108 58 18058150873264883339
20645477 70 18335415815578404202
20775530 9 17609203560053934978
21250096 35 18336542729408921122
21756936 100 14259625194273899802
22646028 28 18410573959666614090
23184049 29 18336262354081325968
23503953 91 17846502538887010395
235170 7 15647054867124973162
23559900 14 18408037403748206680
2637199 183 8286200612797954258
3004659 81 17894917287180158410
314173 41 18334019371692574514
463206 1 18260824843893399418
49207404 50 11311774007367594444
5104073 3 18411987992113499849
5161694 15 17240477009507530507
5281201 14 15791452625483585134
633830 44 17894343397960806545
7064713 232 17203608176946692855
9709674 26 18261673786975255619
9841814 1 18411422800155689216
9882013 296 12607396698142878571

>  <PUBCHEM_SHAPE_MULTIPOLES>  (1) 
417.32
9.53
2.37
1.69
3.21
0.89
0.67
-4.04
-1.09
-1.46
0.12
-0.55
-0.64
-0.53

>  <PUBCHEM_SHAPE_SELFOVERLAP>  (1) 
885.413

>  <PUBCHEM_SHAPE_VOLUME>  (1) 
235

>  <PUBCHEM_COORDINATE_TYPE>  (1) 
2
5
10

$$$$
