46820
     RDKit          3D

 22 24  0  0  1  0  0  0  0  0999 V2000
   -0.4900   -0.6526   -0.2860 O   0  0  0  0  0  0  0  0  0  0  0  0
   -1.0639   -2.8292    0.1996 O   0  0  0  0  0  0  0  0  0  0  0  0
    4.9684    1.9869   -0.4645 O   0  0  0  0  0  0  0  0  0  0  0  0
   -3.8847    1.5559    0.6374 N   0  0  0  0  0  0  0  0  0  0  0  0
   -3.3941    1.7070   -0.7374 C   0  0  0  0  0  0  0  0  0  0  0  0
   -4.0278    0.1044    0.8004 C   0  0  0  0  0  0  0  0  0  0  0  0
   -4.4327    0.8518   -1.4754 C   0  0  0  0  0  0  0  0  0  0  0  0
   -4.8538   -0.2140   -0.4531 C   0  0  0  0  0  0  0  0  0  0  0  0
   -1.9705    1.1440   -0.9150 C   0  0  0  0  0  0  0  0  0  0  0  0
   -2.6690   -0.6225    0.7804 C   0  0  0  0  0  0  0  0  0  0  0  0
   -1.8597   -0.3252   -0.4891 C   0  0  0  0  0  0  0  0  0  0  0  0
   -3.1153    2.2355    1.6629 C   0  0  0  0  0  0  0  0  0  0  0  0
   -0.2282   -1.9479    0.0568 C   0  0  0  0  0  0  0  0  0  0  0  0
    1.2413   -2.1436    0.2169 C   0  0  0  0  0  0  0  0  0  0  0  0
    2.2212   -1.0582    0.0372 C   0  0  0  0  0  0  0  0  0  0  0  0
    1.6639   -3.3705    0.5612 C   0  0  0  0  0  0  0  0  0  0  0  0
    2.7809   -0.8483   -1.2125 C   0  0  0  0  0  0  0  0  0  0  0  0
    2.5639   -0.2681    1.1226 C   0  0  0  0  0  0  0  0  0  0  0  0
    3.7085    0.1797   -1.3817 C   0  0  0  0  0  0  0  0  0  0  0  0
    3.4915    0.7600    0.9535 C   0  0  0  0  0  0  0  0  0  0  0  0
    4.0637    0.9840   -0.2988 C   0  0  0  0  0  0  0  0  0  0  0  0
    5.2865    2.7711    0.6844 C   0  0  0  0  0  0  0  0  0  0  0  0
  1 11  1  0
  1 13  1  0
  2 13  2  0
  3 21  1  0
  3 22  1  0
  4  5  1  0
  4  6  1  0
  4 12  1  0
  5  7  1  0
  5  9  1  0
  6  8  1  0
  6 10  1  0
  7  8  1  0
  9 11  1  0
 10 11  1  0
 13 14  1  0
 14 15  1  0
 14 16  2  0
 15 17  2  0
 15 18  1  0
 17 19  1  0
 18 20  2  0
 19 21  2  0
 20 21  1  0
M  END
>  <PUBCHEM_COMPOUND_CID>  (1) 
46820

>  <PUBCHEM_CONFORMER_RMSD>  (1) 
0.8

>  <PUBCHEM_CONFORMER_DIVERSEORDER>  (1) 
4
21
72
41
35
25
70
51
39
8
9
53
36
2
44
75
33
74
56
31
40
59
11
58
57
13
67
7
27
42
28
5
63
3
68
23
24
45
62
69
18
10
73
50
6
66
54
64
12
49
26
29
61
71
47
52
19
15
32
34
17
30
60
37
65
16
48
38
14
55
46
76
20
1
43
22

>  <PUBCHEM_MMFF94_PARTIAL_CHARGES>  (1) 
24
1 -0.43
11 0.28
12 0.27
13 0.71
14 -0.01
15 0.03
16 -0.3
17 -0.15
18 -0.15
19 -0.15
2 -0.57
20 -0.15
21 0.08
22 0.28
3 -0.36
37 0.15
38 0.15
39 0.15
4 -0.81
40 0.15
41 0.15
42 0.15
5 0.27
6 0.27

>  <PUBCHEM_EFFECTIVE_ROTOR_COUNT>  (1) 
6.2

>  <PUBCHEM_PHARMACOPHORE_FEATURES>  (1) 
6
1 16 hydrophobe
1 2 acceptor
1 3 acceptor
1 4 cation
6 15 17 18 19 20 21 rings
8 4 5 6 7 8 9 10 11 rings

>  <PUBCHEM_HEAVY_ATOM_COUNT>  (1) 
22

>  <PUBCHEM_ATOM_DEF_STEREO_COUNT>  (1) 
0

>  <PUBCHEM_ATOM_UDEF_STEREO_COUNT>  (1) 
2

>  <PUBCHEM_BOND_DEF_STEREO_COUNT>  (1) 
0

>  <PUBCHEM_BOND_UDEF_STEREO_COUNT>  (1) 
0

>  <PUBCHEM_ISOTOPIC_ATOM_COUNT>  (1) 
0

>  <PUBCHEM_COMPONENT_COUNT>  (1) 
1

>  <PUBCHEM_CACTVS_TAUTO_COUNT>  (1) 
1

>  <PUBCHEM_CONFORMER_ID>  (1) 
0000B6E400000004

>  <PUBCHEM_MMFF94_ENERGY>  (1) 
72.6422

>  <PUBCHEM_FEATURE_SELFOVERLAP>  (1) 
30.446

>  <PUBCHEM_SHAPE_FINGERPRINT>  (1) 
10498660 4 18409449184767000308
10670039 82 18338527356793407940
10928967 22 11887665191410871245
11720765 8 17629214715118780254
12363563 72 9727637223949596326
12390115 104 18265065789480191412
12769317 202 18272082829728779864
12788726 201 16956214973227861818
13224815 77 18262519191506129479
13583140 156 15791733031292786839
13955234 65 18262521360154008106
13965767 371 17822560647612294900
14123255 52 18408322202876480710
14251764 38 17899401009530416117
14739800 52 18270100444829237112
14787075 74 18270675480556670031
14848178 96 18411981343113948952
15052358 14 11023565549009007579
15342168 16 18409731721027868453
1798214 55 18407761434766342012
18186145 218 18269559334188422711
193927 3 10087648112924592828
204376 136 18408038528533804959
20626108 58 10809927239633341541
21033648 29 17096085775657422229
21250096 35 9367343730189433894
21401589 2 18267022932867414728
21864079 5 18057893437473206561
22182937 141 18338803445558797584
23227448 37 18266740370947434380
235170 7 15769771342747524532
23559900 14 17972870363729596267
2637199 183 18271538493862750478
2838139 119 18130786785224425860
312423 11 18057041311782945287
312425 83 17274554121937509292
469060 322 18043828686826612027
474 4 18410007719493826828
49207404 50 18041009401225705363
5104073 3 18042128661555889233
5161694 15 13254504328316437529
5281201 14 17346323643875867788
559249 180 9655039748190729103
633830 44 18129669577982717447
6442390 28 18336556000826749686
67856867 119 18262508187489096539
7808743 9 18263926721224938988
7970288 3 9583520923298817700
9981440 41 18188205511008649898

>  <PUBCHEM_SHAPE_MULTIPOLES>  (1) 
430.16
11.09
3.09
1.32
1.46
1.09
0.03
-8.7
0.66
2.32
-0.83
-0.33
-0.46
0.08

>  <PUBCHEM_SHAPE_SELFOVERLAP>  (1) 
917.922

>  <PUBCHEM_SHAPE_VOLUME>  (1) 
241.1

>  <PUBCHEM_COORDINATE_TYPE>  (1) 
2
5
10

$$$$
