46833
     RDKit          3D

 11 12  0  0  1  0  0  0  0  0999 V2000
    0.2352    1.6364    0.2291 N   0  0  0  0  0  0  0  0  0  0  0  0
    0.5391   -1.1900    0.3154 C   0  0  0  0  0  0  0  0  0  0  0  0
   -0.9004   -0.6168    0.0648 C   0  0  0  0  0  0  0  0  0  0  0  0
    1.5175    0.9411    0.4304 C   0  0  0  0  0  0  0  0  0  0  0  0
    1.2919   -0.2900    1.3013 C   0  0  0  0  0  0  0  0  0  0  0  0
   -0.7761    0.8406   -0.4958 C   0  0  0  0  0  0  0  0  0  0  0  0
    1.4602   -1.0885   -0.9220 C   0  0  0  0  0  0  0  0  0  0  0  0
    2.0827    0.3172   -0.8544 C   0  0  0  0  0  0  0  0  0  0  0  0
   -1.7143   -0.6687    1.3812 C   0  0  0  0  0  0  0  0  0  0  0  0
   -1.6467   -1.5138   -0.9496 C   0  0  0  0  0  0  0  0  0  0  0  0
   -2.0892    1.6323   -0.5004 C   0  0  0  0  0  0  0  0  0  0  0  0
  1  4  1  0
  1  6  1  0
  2  3  1  0
  2  5  1  0
  2  7  1  0
  3  6  1  0
  3  9  1  0
  3 10  1  0
  4  5  1  0
  4  8  1  0
  6 11  1  0
  7  8  1  0
M  END
>  <PUBCHEM_COMPOUND_CID>  (1) 
46833

>  <PUBCHEM_CONFORMER_RMSD>  (1) 
0.4

>  <PUBCHEM_CONFORMER_DIVERSEORDER>  (1) 
3
4
1
6
7
2
5

>  <PUBCHEM_MMFF94_PARTIAL_CHARGES>  (1) 
4
1 -0.9
21 0.36
4 0.27
6 0.27

>  <PUBCHEM_EFFECTIVE_ROTOR_COUNT>  (1) 
1.2

>  <PUBCHEM_PHARMACOPHORE_FEATURES>  (1) 
4
1 1 cation
1 1 donor
3 3 9 10 hydrophobe
8 1 2 3 4 5 6 7 8 rings

>  <PUBCHEM_HEAVY_ATOM_COUNT>  (1) 
11

>  <PUBCHEM_ATOM_DEF_STEREO_COUNT>  (1) 
0

>  <PUBCHEM_ATOM_UDEF_STEREO_COUNT>  (1) 
3

>  <PUBCHEM_BOND_DEF_STEREO_COUNT>  (1) 
0

>  <PUBCHEM_BOND_UDEF_STEREO_COUNT>  (1) 
0

>  <PUBCHEM_ISOTOPIC_ATOM_COUNT>  (1) 
0

>  <PUBCHEM_COMPONENT_COUNT>  (1) 
1

>  <PUBCHEM_CACTVS_TAUTO_COUNT>  (1) 
1

>  <PUBCHEM_CONFORMER_ID>  (1) 
0000B6F100000003

>  <PUBCHEM_MMFF94_ENERGY>  (1) 
29.7408

>  <PUBCHEM_FEATURE_SELFOVERLAP>  (1) 
20.297

>  <PUBCHEM_SHAPE_FINGERPRINT>  (1) 
12423570 1 18197797663359986522
13024252 1 16882495858005490518
137420 1 12540687107103272635
16945 1 18117842333282050368
21040471 1 18266166232567387293
21922407 69 16008756813578321480
241688 4 17978794836952907555
24536 1 17458619021173043650
2748010 2 18411702054064290180
29004967 10 18196396864161183722
5084963 1 17915735581847445618
528886 8 18125460836344786530

>  <PUBCHEM_SHAPE_MULTIPOLES>  (1) 
221.39
2.67
1.74
1.25
0.15
0.28
-0.22
0.22
0.3
0.59
0.26
0.01
-0.29
0.19

>  <PUBCHEM_SHAPE_SELFOVERLAP>  (1) 
453.878

>  <PUBCHEM_SHAPE_VOLUME>  (1) 
128.9

>  <PUBCHEM_COORDINATE_TYPE>  (1) 
2
5
10

$$$$
