46855
     RDKit          3D

 31 33  0  0  1  0  0  0  0  0999 V2000
    4.6701   -1.2707   -1.7911 O   0  0  0  0  0  0  0  0  0  0  0  0
    5.9620   -2.3735    1.2708 O   0  0  0  0  0  0  0  0  0  0  0  0
    8.1398   -2.0020    0.7662 O   0  0  0  0  0  0  0  0  0  0  0  0
    6.7826    3.1620    1.3581 O   0  0  0  0  0  0  0  0  0  0  0  0
    6.5130    2.4559   -0.7825 O   0  0  0  0  0  0  0  0  0  0  0  0
    5.0745   -0.1853    0.2180 N   0  0  0  0  0  0  0  0  0  0  0  0
   -1.2904    0.1535   -0.1456 N   0  0  0  0  0  0  0  0  0  0  0  0
   -4.3578   -0.5672   -0.4894 N   0  0  0  0  0  0  0  0  0  0  0  0
   -5.2965    2.0182   -0.1852 N   0  0  0  0  0  0  0  0  0  0  0  0
   -7.3423    1.2066    0.5341 N   0  0  0  0  0  0  0  0  0  0  0  0
   -7.7455   -1.1518    0.6954 N   0  0  0  0  0  0  0  0  0  0  0  0
   -6.0335   -2.6719    0.1128 N   0  0  0  0  0  0  0  0  0  0  0  0
   -9.4168    0.3867    1.2635 N   0  0  0  0  0  0  0  0  0  0  0  0
    6.5128   -0.3002    0.1853 C   0  0  0  0  0  0  0  0  0  0  0  0
    7.1750    0.8581    0.9364 C   0  0  0  0  0  0  0  0  0  0  0  0
    2.8049   -0.4659   -0.6200 C   0  0  0  0  0  0  0  0  0  0  0  0
    0.0953   -0.0550   -0.3063 C   0  0  0  0  0  0  0  0  0  0  0  0
   -2.1973    0.2302   -1.2487 C   0  0  0  0  0  0  0  0  0  0  0  0
    4.2641   -0.6883   -0.7889 C   0  0  0  0  0  0  0  0  0  0  0  0
    2.0061   -0.4044   -1.7430 C   0  0  0  0  0  0  0  0  0  0  0  0
    2.2949   -0.3289    0.6545 C   0  0  0  0  0  0  0  0  0  0  0  0
    0.6360   -0.1965   -1.5843 C   0  0  0  0  0  0  0  0  0  0  0  0
    0.9247   -0.1213    0.8130 C   0  0  0  0  0  0  0  0  0  0  0  0
   -3.5960    0.4937   -0.7639 C   0  0  0  0  0  0  0  0  0  0  0  0
    6.9728   -1.6292    0.7615 C   0  0  0  0  0  0  0  0  0  0  0  0
   -5.6081   -0.3159   -0.0562 C   0  0  0  0  0  0  0  0  0  0  0  0
    6.7881    2.2141    0.3843 C   0  0  0  0  0  0  0  0  0  0  0  0
   -4.0457    1.7686   -0.6185 C   0  0  0  0  0  0  0  0  0  0  0  0
   -6.0953    0.9833    0.1019 C   0  0  0  0  0  0  0  0  0  0  0  0
   -6.4865   -1.3350    0.2586 C   0  0  0  0  0  0  0  0  0  0  0  0
   -8.1049    0.1318    0.8091 C   0  0  0  0  0  0  0  0  0  0  0  0
  1 19  2  0
  2 25  1  0
  3 25  2  0
  4 27  1  0
  5 27  2  0
  6 14  1  0
  6 19  1  0
  7 17  1  0
  7 18  1  0
  8 24  2  0
  8 26  1  0
  9 28  2  0
  9 29  1  0
 10 29  1  0
 10 31  2  0
 11 30  2  0
 11 31  1  0
 12 30  1  0
 13 31  1  0
 14 15  1  0
 14 25  1  0
 15 27  1  0
 16 19  1  0
 16 20  2  0
 16 21  1  0
 17 22  2  0
 17 23  1  0
 18 24  1  0
 20 22  1  0
 21 23  2  0
 24 28  1  0
 26 29  2  0
 26 30  1  0
M  END
>  <PUBCHEM_COMPOUND_CID>  (1) 
46855

>  <PUBCHEM_CONFORMER_RMSD>  (1) 
1

>  <PUBCHEM_CONFORMER_DIVERSEORDER>  (1) 
1
28
21
44
36
34
15
19
43
39
33
40
14
45
41
10
27
47
37
29
32
26
42
2
46
20
35
30
4
24
25
12
22
31
3
16
38
17
18
6
5
23
9
11
8
7
13

>  <PUBCHEM_MMFF94_PARTIAL_CHARGES>  (1) 
44
1 -0.57
10 -0.62
11 -0.62
12 -0.9
13 -0.9
14 0.36
15 0.06
16 0.09
17 0.1
18 0.51
19 0.54
2 -0.65
20 -0.15
21 -0.15
22 -0.15
23 -0.15
24 0.17
25 0.66
26 0.31
27 0.66
28 0.16
29 0.62
3 -0.57
30 0.41
31 0.72
35 0.37
38 0.4
39 0.15
4 -0.65
40 0.15
41 0.15
42 0.15
43 0.15
44 0.5
45 0.4
46 0.4
47 0.5
48 0.4
49 0.4
5 -0.57
6 -0.73
7 -0.87
8 -0.62
9 -0.62

>  <PUBCHEM_EFFECTIVE_ROTOR_COUNT>  (1) 
9

>  <PUBCHEM_PHARMACOPHORE_FEATURES>  (1) 
17
1 1 acceptor
1 12 donor
1 13 donor
1 2 acceptor
1 3 acceptor
1 4 acceptor
1 5 acceptor
1 6 donor
1 7 cation
1 7 donor
1 8 acceptor
3 2 3 25 anion
3 4 5 27 anion
4 10 11 13 31 cation
6 10 11 26 29 30 31 rings
6 16 17 20 21 22 23 rings
6 8 9 24 26 28 29 rings

>  <PUBCHEM_HEAVY_ATOM_COUNT>  (1) 
31

>  <PUBCHEM_ATOM_DEF_STEREO_COUNT>  (1) 
0

>  <PUBCHEM_ATOM_UDEF_STEREO_COUNT>  (1) 
1

>  <PUBCHEM_BOND_DEF_STEREO_COUNT>  (1) 
0

>  <PUBCHEM_BOND_UDEF_STEREO_COUNT>  (1) 
0

>  <PUBCHEM_ISOTOPIC_ATOM_COUNT>  (1) 
0

>  <PUBCHEM_COMPONENT_COUNT>  (1) 
1

>  <PUBCHEM_CACTVS_TAUTO_COUNT>  (1) 
36

>  <PUBCHEM_CONFORMER_ID>  (1) 
0000B70700000001

>  <PUBCHEM_MMFF94_ENERGY>  (1) 
110.7556

>  <PUBCHEM_FEATURE_SELFOVERLAP>  (1) 
86.435

>  <PUBCHEM_SHAPE_FINGERPRINT>  (1) 
10 15 18202001040504857711
10299344 5 18040157297052329423
10670039 82 10159707876617791999
10816530 90 15841548618009247144
11315181 36 17917994980576531425
13533116 47 18041274362939327786
13692114 37 17095527322545719074
14251764 18 18343581862868650517
14849402 71 18336548342800178780
14933364 13 18342455945761060256
15131766 46 18054782052276322388
15183329 4 14779548980602577010
15419008 91 17531228570064323804
15716309 27 18408603660768332735
1577012 14 17703501190576729668
1754908 1 18260552233991983353
1818759 1 16660371354952407171
195137 175 12031783678100490651
21130935 74 18260828176798167506
21267235 1 16515689922767415127
21521721 280 18272368702593537938
22224240 67 18040433295739938139
22956985 138 14059215930000000712
23559900 14 7997676585511140223
23569943 247 16881023418937099994
23576562 1 11167069455853845691
3044373 193 18334297583153841620
3178227 256 17775565334202341770
3383291 50 16515409573130100473
3418910 222 18341625835978947409
3633792 109 10663820797861563422
3663271 9 18408039589416808696
3711267 37 15985109629942648977
397830 11 18410571807745593772
4073 2 18341614853688997231
4340502 62 18412542081665972726
6081469 158 8070032151542810291
636775 72 17988369153599075137
68570916 9 18339920540766963406
9953998 17 18411420614475894417

>  <PUBCHEM_SHAPE_MULTIPOLES>  (1) 
568.77
30.42
2.25
1.31
13.78
0.68
0.3
0.99
-12.53
-3.33
-0.58
-0.97
-0.08
0.41

>  <PUBCHEM_SHAPE_SELFOVERLAP>  (1) 
1231.722

>  <PUBCHEM_SHAPE_VOLUME>  (1) 
306.8

>  <PUBCHEM_COORDINATE_TYPE>  (1) 
2
5
10

$$$$
