4685
     RDKit          3D

  8  8  0  0  0  0  0  0  0  0999 V2000
    3.1157    0.0000    0.0001 Cl  0  0  0  0  0  0  0  0  0  0  0  0
   -3.1157    0.0000    0.0000 Cl  0  0  0  0  0  0  0  0  0  0  0  0
    1.3949    0.0000    0.0000 C   0  0  0  0  0  0  0  0  0  0  0  0
   -1.3949    0.0000    0.0000 C   0  0  0  0  0  0  0  0  0  0  0  0
    0.6975    1.2080   -0.0001 C   0  0  0  0  0  0  0  0  0  0  0  0
   -0.6974    1.2079    0.0001 C   0  0  0  0  0  0  0  0  0  0  0  0
    0.6974   -1.2080    0.0000 C   0  0  0  0  0  0  0  0  0  0  0  0
   -0.6975   -1.2079    0.0000 C   0  0  0  0  0  0  0  0  0  0  0  0
  1  3  1  0
  2  4  1  0
  3  5  2  0
  3  7  1  0
  4  6  2  0
  4  8  1  0
  5  6  1  0
  7  8  2  0
M  END
>  <PUBCHEM_COMPOUND_CID>  (1) 
4685

>  <PUBCHEM_CONFORMER_RMSD>  (1) 
0.4

>  <PUBCHEM_CONFORMER_DIVERSEORDER>  (1) 
1

>  <PUBCHEM_MMFF94_PARTIAL_CHARGES>  (1) 
12
1 -0.18
10 0.15
11 0.15
12 0.15
2 -0.18
3 0.18
4 0.18
5 -0.15
6 -0.15
7 -0.15
8 -0.15
9 0.15

>  <PUBCHEM_EFFECTIVE_ROTOR_COUNT>  (1) 
0

>  <PUBCHEM_PHARMACOPHORE_FEATURES>  (1) 
1
6 3 4 5 6 7 8 rings

>  <PUBCHEM_HEAVY_ATOM_COUNT>  (1) 
8

>  <PUBCHEM_ATOM_DEF_STEREO_COUNT>  (1) 
0

>  <PUBCHEM_ATOM_UDEF_STEREO_COUNT>  (1) 
0

>  <PUBCHEM_BOND_DEF_STEREO_COUNT>  (1) 
0

>  <PUBCHEM_BOND_UDEF_STEREO_COUNT>  (1) 
0

>  <PUBCHEM_ISOTOPIC_ATOM_COUNT>  (1) 
0

>  <PUBCHEM_COMPONENT_COUNT>  (1) 
1

>  <PUBCHEM_CACTVS_TAUTO_COUNT>  (1) 
1

>  <PUBCHEM_CONFORMER_ID>  (1) 
0000124D00000001

>  <PUBCHEM_MMFF94_ENERGY>  (1) 
14.7576

>  <PUBCHEM_FEATURE_SELFOVERLAP>  (1) 
5.074

>  <PUBCHEM_SHAPE_FINGERPRINT>  (1) 
14325111 11 18410855455838573184
15310529 11 16588013606918912260
16714656 1 18410857663694304542
16945 1 18410573989446418438
193761 8 17618221706672897182
21040471 1 18266740379568991077
21293036 1 18408886256298770244
23235685 24 18410852165888297732
23402655 69 18195508317786836253
23552423 10 18044093690418579860
2748010 2 18122625225710370902
29004967 10 18333737900936978121
5084963 1 18343864419966116513

>  <PUBCHEM_SHAPE_MULTIPOLES>  (1) 
168.38
3.93
1.34
0.63
0
0
0
0
0
0
0
0
0
0

>  <PUBCHEM_SHAPE_SELFOVERLAP>  (1) 
329.916

>  <PUBCHEM_SHAPE_VOLUME>  (1) 
101.4

>  <PUBCHEM_COORDINATE_TYPE>  (1) 
2
5
10

$$$$
