46884
     RDKit          3D

 15 15  0  0  0  0  0  0  0  0999 V2000
   -2.0755   -0.0619    0.0168 N   0  0  0  0  0  0  0  0  0  0  0  0
   -0.6279    0.0738    0.4666 C   0  0  0  0  0  0  0  0  0  0  0  0
   -2.2733   -1.4127   -0.6559 C   0  0  0  0  0  0  0  0  0  0  0  0
   -2.9939    0.0421    1.2259 C   0  0  0  0  0  0  0  0  0  0  0  0
   -2.4069    1.0491   -0.9691 C   0  0  0  0  0  0  0  0  0  0  0  0
    0.3092   -0.0279   -0.7321 C   0  0  0  0  0  0  0  0  0  0  0  0
   -1.9425   -2.5128    0.3288 C   0  0  0  0  0  0  0  0  0  0  0  0
   -2.7928    1.3867    1.8902 C   0  0  0  0  0  0  0  0  0  0  0  0
   -3.8469    0.9089   -1.4122 C   0  0  0  0  0  0  0  0  0  0  0  0
    1.7710    0.0348   -0.3639 C   0  0  0  0  0  0  0  0  0  0  0  0
    2.4082    1.2652   -0.3163 C   0  0  0  0  0  0  0  0  0  0  0  0
    2.4518   -1.1388   -0.0788 C   0  0  0  0  0  0  0  0  0  0  0  0
    3.7595    1.3234    0.0243 C   0  0  0  0  0  0  0  0  0  0  0  0
    3.8032   -1.0805    0.2620 C   0  0  0  0  0  0  0  0  0  0  0  0
    4.4570    0.1507    0.3136 C   0  0  0  0  0  0  0  0  0  0  0  0
  1  2  1  0
  1  3  1  0
  1  4  1  0
  1  5  1  0
  2  6  1  0
  3  7  1  0
  4  8  1  0
  5  9  1  0
  6 10  1  0
 10 11  2  0
 10 12  1  0
 11 13  1  0
 12 14  2  0
 13 15  2  0
 14 15  1  0
M  CHG  1   1   1
M  END
>  <PUBCHEM_COMPOUND_CID>  (1) 
46884

>  <PUBCHEM_CONFORMER_RMSD>  (1) 
0.6

>  <PUBCHEM_CONFORMER_DIVERSEORDER>  (1) 
3
2
1

>  <PUBCHEM_MMFF94_PARTIAL_CHARGES>  (1) 
17
1 -1.01
10 -0.14
11 -0.15
12 -0.15
13 -0.15
14 -0.15
15 -0.15
2 0.5
3 0.5
35 0.15
36 0.15
37 0.15
38 0.15
39 0.15
4 0.5
5 0.5
6 0.14

>  <PUBCHEM_EFFECTIVE_ROTOR_COUNT>  (1) 
6

>  <PUBCHEM_PHARMACOPHORE_FEATURES>  (1) 
2
1 1 cation
6 10 11 12 13 14 15 rings

>  <PUBCHEM_HEAVY_ATOM_COUNT>  (1) 
15

>  <PUBCHEM_ATOM_DEF_STEREO_COUNT>  (1) 
0

>  <PUBCHEM_ATOM_UDEF_STEREO_COUNT>  (1) 
0

>  <PUBCHEM_BOND_DEF_STEREO_COUNT>  (1) 
0

>  <PUBCHEM_BOND_UDEF_STEREO_COUNT>  (1) 
0

>  <PUBCHEM_ISOTOPIC_ATOM_COUNT>  (1) 
0

>  <PUBCHEM_COMPONENT_COUNT>  (1) 
1

>  <PUBCHEM_CACTVS_TAUTO_COUNT>  (1) 
1

>  <PUBCHEM_CONFORMER_ID>  (1) 
0000B72400000003

>  <PUBCHEM_MMFF94_ENERGY>  (1) 
56.7365

>  <PUBCHEM_FEATURE_SELFOVERLAP>  (1) 
10.148

>  <PUBCHEM_SHAPE_FINGERPRINT>  (1) 
10014705 185 18261104192707557293
10366900 7 17632287986987654874
10608611 8 18334850658370761900
10680689 15 18040438806388382292
10922523 26 17894912893132975398
11132069 177 18335413582744049412
12173636 292 18059587866590757849
12251169 10 18412554214335997720
124424 183 17967808310799793116
12500047 106 18334002900329561478
12507557 5 18341324587251562488
12592029 89 18042678413033001219
12932764 1 18187655703765319342
13024252 1 15430035479023134779
13296908 3 17385445423085987732
13675066 3 17603589612273624096
13764800 53 17131571486609247955
14004511 7 18413392012242368168
14144814 61 18341897376774215408
14289901 80 17894910780288783228
14445660 50 18341058483730286256
14577589 140 17822009783306675087
15653759 3 17167868547269825316
18186145 218 18411989048538225694
187816 3 17917980677813190189
19050596 39 18341334478555528682
192875 21 17917417705593914233
200 152 17988350559729900335
20279233 1 18186518787198771222
20645477 56 18187359930847969669
20645477 70 18262508187816092286
22169311 21 18410003360466089742
2306618 200 18411135836115815441
23402539 116 17988917856469942709
23402655 69 18334573534433195036
23559900 14 18411972543258663978
3248919 1 17917715690567082278
5104073 3 18410289255322773522
633830 44 17774736315615299860
69090 78 18261101959619852071
74978 22 18409728469421010340
93112 12 18335133198383038140
9709674 26 18410292531850784422

>  <PUBCHEM_SHAPE_MULTIPOLES>  (1) 
303.71
8.3
1.83
1.27
5.03
0.85
-0.29
-1.38
-0.28
-0.7
-0.13
-1.66
-0.47
-0.14

>  <PUBCHEM_SHAPE_SELFOVERLAP>  (1) 
600.427

>  <PUBCHEM_SHAPE_VOLUME>  (1) 
181.3

>  <PUBCHEM_COORDINATE_TYPE>  (1) 
2
5
10

$$$$
