46880
     RDKit          3D

 24 24  0  0  0  0  0  0  0  0999 V2000
    2.4934    0.2526    1.2137 O   0  0  0  0  0  0  0  0  0  0  0  0
   -2.5448   -0.2506   -0.9649 O   0  0  0  0  0  0  0  0  0  0  0  0
    5.9725   -0.0315   -0.1059 N   0  0  0  0  0  0  0  0  0  0  0  0
   -6.0275    0.0744    0.2486 N   0  0  0  0  0  0  0  0  0  0  0  0
    4.8294    0.5225    0.7324 C   0  0  0  0  0  0  0  0  0  0  0  0
   -4.8909   -0.5108   -0.5064 C   0  0  0  0  0  0  0  0  0  0  0  0
    6.2323   -1.4795    0.2840 C   0  0  0  0  0  0  0  0  0  0  0  0
    7.2278    0.7932    0.1401 C   0  0  0  0  0  0  0  0  0  0  0  0
   -7.3270   -0.6868   -0.0467 C   0  0  0  0  0  0  0  0  0  0  0  0
   -6.2373    1.5450   -0.1367 C   0  0  0  0  0  0  0  0  0  0  0  0
    5.6006    0.0379   -1.5800 C   0  0  0  0  0  0  0  0  0  0  0  0
   -5.7686    0.0089    1.7598 C   0  0  0  0  0  0  0  0  0  0  0  0
    3.5738   -0.2825    0.4609 C   0  0  0  0  0  0  0  0  0  0  0  0
   -3.6338    0.2844   -0.2142 C   0  0  0  0  0  0  0  0  0  0  0  0
    7.3693   -2.0244   -0.5523 C   0  0  0  0  0  0  0  0  0  0  0  0
    6.9633    2.2312   -0.2493 C   0  0  0  0  0  0  0  0  0  0  0  0
   -7.1736   -2.1253    0.3967 C   0  0  0  0  0  0  0  0  0  0  0  0
   -6.4951    1.6383   -1.6248 C   0  0  0  0  0  0  0  0  0  0  0  0
    1.2408    0.1271    0.6720 C   0  0  0  0  0  0  0  0  0  0  0  0
   -1.3010   -0.1265   -0.4264 C   0  0  0  0  0  0  0  0  0  0  0  0
    0.9513   -0.9562   -0.1498 C   0  0  0  0  0  0  0  0  0  0  0  0
   -0.3239   -1.0834   -0.7008 C   0  0  0  0  0  0  0  0  0  0  0  0
    0.2720    1.0846    0.9505 C   0  0  0  0  0  0  0  0  0  0  0  0
   -1.0031    0.9575    0.3993 C   0  0  0  0  0  0  0  0  0  0  0  0
  1 13  1  0
  1 19  1  0
  2 14  1  0
  2 20  1  0
  3  5  1  0
  3  7  1  0
  3  8  1  0
  3 11  1  0
  4  6  1  0
  4  9  1  0
  4 10  1  0
  4 12  1  0
  5 13  1  0
  6 14  1  0
  7 15  1  0
  8 16  1  0
  9 17  1  0
 10 18  1  0
 19 21  2  0
 19 23  1  0
 20 22  2  0
 20 24  1  0
 21 22  1  0
 23 24  2  0
M  CHG  2   3   1   4   1
M  END
>  <PUBCHEM_COMPOUND_CID>  (1) 
46880

>  <PUBCHEM_CONFORMER_RMSD>  (1) 
1

>  <PUBCHEM_CONFORMER_DIVERSEORDER>  (1) 
4
259
268
52
171
336
316
156
6
95
203
102
153
121
125
338
53
34
16
287
164
220
138
253
297
207
55
132
124
105
255
139
339
120
193
107
185
208
2
291
47
327
200
283
54
263
80
272
126
284
224
152
69
151
130
282
195
75
112
106
77
317
228
329
89
205
144
56
58
165
148
41
172
206
218
25
312
46
309
232
187
84
181
292
225
273
12
162
96
176
217
79
92
91
154
184
173
20
289
298
169
239
33
145
189
42
5
43
60
308
177
88
14
103
101
117
245
127
40
294
115
61
65
196
324
83
270
111
37
261
31
266
93
246
188
70
303
197
192
39
63
251
209
11
90
260
233
249
166
85
248
235
134
264
66
129
57
155
214
158
45
68
321
113
305
221
333
110
18
330
73
300
44
286
267
147
9
252
64
328
186
325
271
114
48
3
174
236
257
191
175
310
293
213
306
36
141
15
38
81
167
131
313
49
86
10
142
32
119
211
87
71
161
35
223
123
334
122
215
170
29
311
227
62
94
116
201
290
98
302
254
28
118
180
304
230
178
7
19
21
59
299
231
137
194
22
143
216
23
331
82
320
128
247
229
160
104
262
13
133
242
50
159
296
322
168
163
274
179
74
314
182
108
109
72
27
199
335
212
140
78
198
67
99
150
17
279
97
326
295
204
157
234
219
319
190
301
24
244
135
76
275
1
337
269
30
281
100
256
8
280
240
258
332
265
51
250
243
226
26
210
238
222
277
136
146
278
315
323
307
285
183
241
318
237
276
288
149
202

>  <PUBCHEM_MMFF94_PARTIAL_CHARGES>  (1) 
24
1 -0.36
10 0.5
11 0.5
12 0.5
13 0.28
14 0.28
19 0.08
2 -0.36
20 0.08
21 -0.15
22 -0.15
23 -0.15
24 -0.15
3 -1.01
4 -1.01
5 0.5
59 0.15
6 0.5
60 0.15
61 0.15
62 0.15
7 0.5
8 0.5
9 0.5

>  <PUBCHEM_EFFECTIVE_ROTOR_COUNT>  (1) 
12

>  <PUBCHEM_PHARMACOPHORE_FEATURES>  (1) 
5
1 1 acceptor
1 2 acceptor
1 3 cation
1 4 cation
6 19 20 21 22 23 24 rings

>  <PUBCHEM_HEAVY_ATOM_COUNT>  (1) 
24

>  <PUBCHEM_ATOM_DEF_STEREO_COUNT>  (1) 
0

>  <PUBCHEM_ATOM_UDEF_STEREO_COUNT>  (1) 
0

>  <PUBCHEM_BOND_DEF_STEREO_COUNT>  (1) 
0

>  <PUBCHEM_BOND_UDEF_STEREO_COUNT>  (1) 
0

>  <PUBCHEM_ISOTOPIC_ATOM_COUNT>  (1) 
0

>  <PUBCHEM_COMPONENT_COUNT>  (1) 
1

>  <PUBCHEM_CACTVS_TAUTO_COUNT>  (1) 
1

>  <PUBCHEM_CONFORMER_ID>  (1) 
0000B72000000004

>  <PUBCHEM_MMFF94_ENERGY>  (1) 
105.9815

>  <PUBCHEM_FEATURE_SELFOVERLAP>  (1) 
25.372

>  <PUBCHEM_SHAPE_FINGERPRINT>  (1) 
10066227 112 18342452668579882512
10299344 5 18131634491055585674
11089746 13 15626215828034087179
11315181 36 17749105604961666653
12091667 2 17894630353779757137
12236239 1 18409446981796871984
13533116 47 15285628851657297120
14251752 14 18272930488257420084
14251764 18 17418375800358585219
14251764 46 17022619788480583667
14344974 204 17984983954375505679
14856354 85 17822016432528277759
14933364 13 18335419062663597628
15183329 4 16415479346047574156
15461852 350 18201990050691038501
15849732 13 18409166627474355716
17093844 174 17095239212456269853
18335252 98 18410858802298728370
21150785 3 18412828018627913216
21267235 1 18131354081789953162
21781051 124 18342750632395336102
22224240 67 16732697276876681730
23035841 295 18272369767460668739
23081809 10 16805873027285600321
23522609 53 17773900708116422776
3004659 81 18130790028573216798
328311 84 18202566176396432278
34797466 226 18186522125058325276
4325135 7 15213016059459391859
4463277 17 18413668015256917344
5758199 1 15719392806874248121
59755656 215 17775284928371664790
59755656 520 17703503372647242247

>  <PUBCHEM_SHAPE_MULTIPOLES>  (1) 
472.21
26.18
1.78
1.21
2.09
0.07
0.04
1.36
2.39
0.61
0.22
-0.68
-0.19
1.18

>  <PUBCHEM_SHAPE_SELFOVERLAP>  (1) 
926.523

>  <PUBCHEM_SHAPE_VOLUME>  (1) 
288.4

>  <PUBCHEM_COORDINATE_TYPE>  (1) 
2
5
10

$$$$
