46898
     RDKit          3D

 21 20  0  0  0  0  0  0  0  0999 V2000
   -0.0007    1.8175   -0.3522 O   0  0  0  0  0  0  0  0  0  0  0  0
   -3.6114   -0.3762    0.0730 N   0  0  0  0  0  0  0  0  0  0  0  0
    3.6437   -0.3733   -0.0140 N   0  0  0  0  0  0  0  0  0  0  0  0
   -2.3899    0.3960    0.4044 C   0  0  0  0  0  0  0  0  0  0  0  0
    2.4309    0.4448    0.4055 C   0  0  0  0  0  0  0  0  0  0  0  0
   -4.8750    0.4206    0.4281 C   0  0  0  0  0  0  0  0  0  0  0  0
   -3.6608   -0.7037   -1.4262 C   0  0  0  0  0  0  0  0  0  0  0  0
   -3.6494   -1.6996    0.8507 C   0  0  0  0  0  0  0  0  0  0  0  0
    3.5431   -0.7069   -1.4955 C   0  0  0  0  0  0  0  0  0  0  0  0
    3.6903   -1.6620    0.7942 C   0  0  0  0  0  0  0  0  0  0  0  0
    4.9106    0.4309    0.2400 C   0  0  0  0  0  0  0  0  0  0  0  0
   -2.3925    1.6942   -0.3845 C   0  0  0  0  0  0  0  0  0  0  0  0
    2.3918    1.7288   -0.4053 C   0  0  0  0  0  0  0  0  0  0  0  0
   -1.1800    2.5502   -0.0479 C   0  0  0  0  0  0  0  0  0  0  0  0
    1.1700    2.5670   -0.0582 C   0  0  0  0  0  0  0  0  0  0  0  0
   -6.0961   -0.4156    0.1136 C   0  0  0  0  0  0  0  0  0  0  0  0
   -2.4254   -1.4904   -1.8054 C   0  0  0  0  0  0  0  0  0  0  0  0
   -3.6843   -1.4048    2.3344 C   0  0  0  0  0  0  0  0  0  0  0  0
    2.2821   -1.5060   -1.7418 C   0  0  0  0  0  0  0  0  0  0  0  0
    4.8976   -2.4710    0.3730 C   0  0  0  0  0  0  0  0  0  0  0  0
    5.0052    0.7594    1.7139 C   0  0  0  0  0  0  0  0  0  0  0  0
  1 14  1  0
  1 15  1  0
  2  4  1  0
  2  6  1  0
  2  7  1  0
  2  8  1  0
  3  5  1  0
  3  9  1  0
  3 10  1  0
  3 11  1  0
  4 12  1  0
  5 13  1  0
  6 16  1  0
  7 17  1  0
  8 18  1  0
  9 19  1  0
 10 20  1  0
 11 21  1  0
 12 14  1  0
 13 15  1  0
M  CHG  2   2   1   3   1
M  END
>  <PUBCHEM_COMPOUND_CID>  (1) 
46898

>  <PUBCHEM_CONFORMER_RMSD>  (1) 
1.4

>  <PUBCHEM_CONFORMER_DIVERSEORDER>  (1) 
1
2
7
5
4
6
3

>  <PUBCHEM_MMFF94_PARTIAL_CHARGES>  (1) 
13
1 -0.56
10 0.5
11 0.5
14 0.28
15 0.28
2 -1.01
3 -1.01
4 0.5
5 0.5
6 0.5
7 0.5
8 0.5
9 0.5

>  <PUBCHEM_EFFECTIVE_ROTOR_COUNT>  (1) 
14

>  <PUBCHEM_PHARMACOPHORE_FEATURES>  (1) 
3
1 1 acceptor
1 2 cation
1 3 cation

>  <PUBCHEM_HEAVY_ATOM_COUNT>  (1) 
21

>  <PUBCHEM_ATOM_DEF_STEREO_COUNT>  (1) 
0

>  <PUBCHEM_ATOM_UDEF_STEREO_COUNT>  (1) 
0

>  <PUBCHEM_BOND_DEF_STEREO_COUNT>  (1) 
0

>  <PUBCHEM_BOND_UDEF_STEREO_COUNT>  (1) 
0

>  <PUBCHEM_ISOTOPIC_ATOM_COUNT>  (1) 
0

>  <PUBCHEM_COMPONENT_COUNT>  (1) 
1

>  <PUBCHEM_CACTVS_TAUTO_COUNT>  (1) 
1

>  <PUBCHEM_CONFORMER_ID>  (1) 
0000B73200000001

>  <PUBCHEM_MMFF94_ENERGY>  (1) 
85.916

>  <PUBCHEM_FEATURE_SELFOVERLAP>  (1) 
15.223

>  <PUBCHEM_SHAPE_FINGERPRINT>  (1) 
10670039 82 9511193983556016794
11552529 35 15912467151600700508
11796584 16 17385716993752030672
12363563 72 18261117374015027040
12553582 1 18271251615590555924
12596599 1 18059590108469338319
12633257 1 17275098427532642138
13551218 46 18412545401564214239
13911882 115 18272939315090199828
14251751 18 17095238167787317026
14251757 17 17967532414816723985
14251764 30 16153719777508276441
15352361 1 18335139782383429408
15537594 2 18341335569356013174
1813 80 18186806876346555637
1979834 28 17775014483003073111
20261772 1 18130785663957977542
20403669 9 18410860936422460893
20645477 70 18339644554837824957
21315759 227 17894910780004109506
21673915 165 17988916803854600910
23557571 272 18339364054866137008
23559900 14 18042404797372052105
3004659 81 17675927590567003664
339767 52 18334568053527320184
3680242 22 18337116665862422323
5104073 3 18200024028804990256
7064713 232 17275385395614288711
7808743 9 10447057556254533450

>  <PUBCHEM_SHAPE_MULTIPOLES>  (1) 
416.34
13.33
2.69
1.66
1.7
0.76
-0.1
-5.22
-3.4
-1.22
0.05
0.32
-0.95
0.68

>  <PUBCHEM_SHAPE_SELFOVERLAP>  (1) 
773.144

>  <PUBCHEM_SHAPE_VOLUME>  (1) 
265.7

>  <PUBCHEM_COORDINATE_TYPE>  (1) 
2
5
10

$$$$
