46894
     RDKit          3D

 19 18  0  0  0  0  0  0  0  0999 V2000
   -0.0611    0.0885   -0.0073 O   0  0  0  0  0  0  0  0  0  0  0  0
   -4.8858   -0.1288   -0.3360 N   0  0  0  0  0  0  0  0  0  0  0  0
    4.8087   -0.0511   -0.0620 N   0  0  0  0  0  0  0  0  0  0  0  0
   -3.7637    0.4885    0.4108 C   0  0  0  0  0  0  0  0  0  0  0  0
    3.6016    0.6182    0.5793 C   0  0  0  0  0  0  0  0  0  0  0  0
   -4.8322   -1.6600   -0.2353 C   0  0  0  0  0  0  0  0  0  0  0  0
   -6.2374    0.3379    0.2236 C   0  0  0  0  0  0  0  0  0  0  0  0
    6.0848    0.5403    0.5195 C   0  0  0  0  0  0  0  0  0  0  0  0
    4.7687   -1.5463    0.2188 C   0  0  0  0  0  0  0  0  0  0  0  0
   -2.4493   -0.0239   -0.1525 C   0  0  0  0  0  0  0  0  0  0  0  0
    2.3331    0.0456   -0.0296 C   0  0  0  0  0  0  0  0  0  0  0  0
   -4.8290    0.2526   -1.8222 C   0  0  0  0  0  0  0  0  0  0  0  0
    4.7799    0.1837   -1.5654 C   0  0  0  0  0  0  0  0  0  0  0  0
   -1.2589    0.6141    0.5490 C   0  0  0  0  0  0  0  0  0  0  0  0
    1.0902    0.6482    0.6092 C   0  0  0  0  0  0  0  0  0  0  0  0
   -4.8868   -2.0659    1.2213 C   0  0  0  0  0  0  0  0  0  0  0  0
   -6.3523    1.8378    0.0621 C   0  0  0  0  0  0  0  0  0  0  0  0
    6.1189    2.0264    0.2372 C   0  0  0  0  0  0  0  0  0  0  0  0
    5.9708   -2.2058   -0.4210 C   0  0  0  0  0  0  0  0  0  0  0  0
  1 14  1  0
  1 15  1  0
  2  4  1  0
  2  6  1  0
  2  7  1  0
  2 12  1  0
  3  5  1  0
  3  8  1  0
  3  9  1  0
  3 13  1  0
  4 10  1  0
  5 11  1  0
  6 16  1  0
  7 17  1  0
  8 18  1  0
  9 19  1  0
 10 14  1  0
 11 15  1  0
M  CHG  2   2   1   3   1
M  END
>  <PUBCHEM_COMPOUND_CID>  (1) 
46894

>  <PUBCHEM_CONFORMER_RMSD>  (1) 
1

>  <PUBCHEM_CONFORMER_DIVERSEORDER>  (1) 
1
62
41
37
28
71
99
55
49
21
78
20
90
66
93
64
33
56
76
16
84
80
32
81
43
94
15
7
87
10
25
14
82
19
100
27
75
65
8
53
60
13
30
77
26
63
85
35
3
70
12
48
58
54
79
96
6
97
69
18
2
46
57
68
88
92
98
39
36
91
89
45
52
23
47
24
40
61
83
74
42
95
31
59
50
86
34
51
72
9
44
38
29
73
17
11
67
4
22
5

>  <PUBCHEM_MMFF94_PARTIAL_CHARGES>  (1) 
13
1 -0.56
12 0.5
13 0.5
14 0.28
15 0.28
2 -1.01
3 -1.01
4 0.5
5 0.5
6 0.5
7 0.5
8 0.5
9 0.5

>  <PUBCHEM_EFFECTIVE_ROTOR_COUNT>  (1) 
12

>  <PUBCHEM_PHARMACOPHORE_FEATURES>  (1) 
3
1 1 acceptor
1 2 cation
1 3 cation

>  <PUBCHEM_HEAVY_ATOM_COUNT>  (1) 
19

>  <PUBCHEM_ATOM_DEF_STEREO_COUNT>  (1) 
0

>  <PUBCHEM_ATOM_UDEF_STEREO_COUNT>  (1) 
0

>  <PUBCHEM_BOND_DEF_STEREO_COUNT>  (1) 
0

>  <PUBCHEM_BOND_UDEF_STEREO_COUNT>  (1) 
0

>  <PUBCHEM_ISOTOPIC_ATOM_COUNT>  (1) 
0

>  <PUBCHEM_COMPONENT_COUNT>  (1) 
1

>  <PUBCHEM_CACTVS_TAUTO_COUNT>  (1) 
1

>  <PUBCHEM_CONFORMER_ID>  (1) 
0000B72E00000001

>  <PUBCHEM_MMFF94_ENERGY>  (1) 
68.8354

>  <PUBCHEM_FEATURE_SELFOVERLAP>  (1) 
15.223

>  <PUBCHEM_SHAPE_FINGERPRINT>  (1) 
10835480 77 18410288142357018080
11089746 13 15502651637599875164
11287383 113 18335983155394726944
11315181 36 14405182898507589273
12091667 2 17989486342483208113
12236239 1 18272368667843337929
13533116 47 18201998799159877970
1420 363 18343868831039934811
14251718 22 18260546761924046912
14251732 16 18339642355845899536
14251752 14 18271242716782211113
14251764 18 17775284972212692539
14461889 52 18265048210416445954
14933364 13 18409730659865231585
15183329 4 18336264561303742875
15716309 27 17775567541746823583
17093844 174 18413103979372972745
17844677 252 18343305902730545025
17857418 61 17632573838193278574
18222031 100 16200432477121200184
20281389 69 18334575707644864265
20621476 66 18187367602155536049
20645477 70 18342740677135325694
220451 1 17530964665951385411
22061861 79 18335420149432742054
23035841 295 18187364316315280515
23081809 10 17846495937200685205
23198884 109 18408885114734482553
23402539 116 17095518513430234623
23536379 177 18411418401602619921
23559900 14 18341324587230470297
2767999 5 13479130207211293942
29717793 49 18272090457627204918
3004659 81 18334858282396758570
314194 84 17989484138948681418
34797466 226 17240774981785830974
4073 2 18259989305097004834
4463277 17 18342175570216992721
465052 167 18131636669215999766
542803 24 15719391728663103865

>  <PUBCHEM_SHAPE_MULTIPOLES>  (1) 
375.18
21.58
1.9
1.11
1.54
0.67
0.41
-0.25
1.13
0.62
-0.27
-0.48
0.07
1.05

>  <PUBCHEM_SHAPE_SELFOVERLAP>  (1) 
689.923

>  <PUBCHEM_SHAPE_VOLUME>  (1) 
242.2

>  <PUBCHEM_COORDINATE_TYPE>  (1) 
2
5
10

$$$$
