46904
     RDKit          3D

 19 18  0  0  0  0  0  0  0  0999 V2000
   -0.1799   -0.8570    0.3008 O   0  0  0  0  0  0  0  0  0  0  0  0
    3.5380   -1.1733    0.2438 N   0  0  0  0  0  0  0  0  0  0  0  0
   -3.4336    0.8043    0.8684 N   0  0  0  0  0  0  0  0  0  0  0  0
    2.0897   -1.5922    0.0361 C   0  0  0  0  0  0  0  0  0  0  0  0
   -2.5044   -0.2936    0.5004 C   0  0  0  0  0  0  0  0  0  0  0  0
    3.8435    0.0421   -0.6197 C   0  0  0  0  0  0  0  0  0  0  0  0
   -4.8927    0.3745    0.6637 C   0  0  0  0  0  0  0  0  0  0  0  0
    1.1756   -0.4589    0.4583 C   0  0  0  0  0  0  0  0  0  0  0  0
   -1.0753    0.1773    0.6858 C   0  0  0  0  0  0  0  0  0  0  0  0
    3.7601   -0.8238    1.7083 C   0  0  0  0  0  0  0  0  0  0  0  0
    4.4587   -2.3195   -0.1496 C   0  0  0  0  0  0  0  0  0  0  0  0
   -3.2544    1.1992    2.3406 C   0  0  0  0  0  0  0  0  0  0  0  0
   -3.1764    2.0472    0.0058 C   0  0  0  0  0  0  0  0  0  0  0  0
    5.3015    0.4339   -0.4310 C   0  0  0  0  0  0  0  0  0  0  0  0
   -5.0879   -0.0536   -0.7831 C   0  0  0  0  0  0  0  0  0  0  0  0
    5.6443    1.6808   -1.2453 C   0  0  0  0  0  0  0  0  0  0  0  0
   -6.5406   -0.4477   -1.0472 C   0  0  0  0  0  0  0  0  0  0  0  0
    7.0897    2.1033   -1.0365 C   0  0  0  0  0  0  0  0  0  0  0  0
   -6.7560   -0.8431   -2.4995 C   0  0  0  0  0  0  0  0  0  0  0  0
  1  8  1  0
  1  9  1  0
  2  4  1  0
  2  6  1  0
  2 10  1  0
  2 11  1  0
  3  5  1  0
  3  7  1  0
  3 12  1  0
  3 13  1  0
  4  8  1  0
  5  9  1  0
  6 14  1  0
  7 15  1  0
 14 16  1  0
 15 17  1  0
 16 18  1  0
 17 19  1  0
M  CHG  2   2   1   3   1
M  END
>  <PUBCHEM_COMPOUND_CID>  (1) 
46904

>  <PUBCHEM_CONFORMER_RMSD>  (1) 
1

>  <PUBCHEM_CONFORMER_DIVERSEORDER>  (1) 
2
29
67
24
66
53
17
18
52
13
55
51
64
59
57
69
12
61
1
65
63
62
19
7
16
28
46
21
23
43
54
11
49
68
37
56
58
60
36
10
32
41
15
26
8
39
42
9
14
34
20
5
31
44
40
50
45
35
22
27
38
33
4
47
6
30
48
25
3

>  <PUBCHEM_MMFF94_PARTIAL_CHARGES>  (1) 
13
1 -0.56
10 0.5
11 0.5
12 0.5
13 0.5
2 -1.01
3 -1.01
4 0.5
5 0.5
6 0.5
7 0.5
8 0.28
9 0.28

>  <PUBCHEM_EFFECTIVE_ROTOR_COUNT>  (1) 
12

>  <PUBCHEM_PHARMACOPHORE_FEATURES>  (1) 
5
1 1 acceptor
1 18 hydrophobe
1 19 hydrophobe
1 2 cation
1 3 cation

>  <PUBCHEM_HEAVY_ATOM_COUNT>  (1) 
19

>  <PUBCHEM_ATOM_DEF_STEREO_COUNT>  (1) 
0

>  <PUBCHEM_ATOM_UDEF_STEREO_COUNT>  (1) 
0

>  <PUBCHEM_BOND_DEF_STEREO_COUNT>  (1) 
0

>  <PUBCHEM_BOND_UDEF_STEREO_COUNT>  (1) 
0

>  <PUBCHEM_ISOTOPIC_ATOM_COUNT>  (1) 
0

>  <PUBCHEM_COMPONENT_COUNT>  (1) 
1

>  <PUBCHEM_CACTVS_TAUTO_COUNT>  (1) 
1

>  <PUBCHEM_CONFORMER_ID>  (1) 
0000B73800000002

>  <PUBCHEM_MMFF94_ENERGY>  (1) 
59.72

>  <PUBCHEM_FEATURE_SELFOVERLAP>  (1) 
25.371

>  <PUBCHEM_SHAPE_FINGERPRINT>  (1) 
10595046 47 18341897359314738859
10912923 1 18201726097973074402
11036077 4 8862937282802442197
11056379 131 16845294913299043505
11101153 10 18335425672951173405
11315621 246 17275382144645702029
12838862 33 18189328130536618980
13668630 136 14979961388591895596
13955234 65 17969231049509852378
14123256 34 16415194629114399351
1420 363 15985098613831730887
14251732 14 17060341833316729788
14251764 30 14620796015663889861
14455015 7 12967131605319874782
14528608 73 18272091595487713104
14767858 380 18343862242728855999
14774955 27 18260835921061454180
16079462 125 16588020221247695631
17834072 33 18202561761412430827
17844677 252 18189909616850620256
18335252 114 18334577967393547116
20157964 124 17967249789079025058
20281389 69 14418130678674773903
20554085 129 15213287647912263801
20567600 254 17603870035542575008
20621476 21 15051450561362860213
21150785 3 17989489649354786188
21315763 76 18188216493646200636
21403212 168 8430328935411282885
220451 1 17632864096947932219
22765269 38 17385439942433392070
2297311 6 16200436870978128345
2303208 19 14405185058169387343
23081809 10 18273215261990567043
23402539 116 17917422083030375363
23522609 53 17773341004820446329
300161 21 17530684329156981746
4325135 7 18342737416431916725
46194498 28 15410895163495877392
465052 167 12031796859840321148
5283384 27 17676485098955422372
543368 44 18341059587400179704
5470011 282 18335128805370635799
90127 26 17896333427954676672
999808 66 13398638272556998469

>  <PUBCHEM_SHAPE_MULTIPOLES>  (1) 
375.18
19.78
1.98
1.79
1.34
0.19
0.01
4.39
11.47
-3.14
0.24
2.49
0.21
-3.35

>  <PUBCHEM_SHAPE_SELFOVERLAP>  (1) 
685.018

>  <PUBCHEM_SHAPE_VOLUME>  (1) 
243.5

>  <PUBCHEM_COORDINATE_TYPE>  (1) 
2
5
10

$$$$
