46902
     RDKit          3D

 17 16  0  0  0  0  0  0  0  0999 V2000
   -0.1654    0.2785   -0.6164 O   0  0  0  0  0  0  0  0  0  0  0  0
    3.5584    0.0454   -0.6823 N   0  0  0  0  0  0  0  0  0  0  0  0
   -3.6136   -0.7555    0.2261 N   0  0  0  0  0  0  0  0  0  0  0  0
    2.1839    0.6425   -0.9474 C   0  0  0  0  0  0  0  0  0  0  0  0
   -2.5457    0.0758   -0.3845 C   0  0  0  0  0  0  0  0  0  0  0  0
    3.7948   -0.0370    0.8188 C   0  0  0  0  0  0  0  0  0  0  0  0
   -4.9978   -0.1529   -0.0499 C   0  0  0  0  0  0  0  0  0  0  0  0
    1.1231   -0.2547   -0.3411 C   0  0  0  0  0  0  0  0  0  0  0  0
   -1.1942   -0.5324   -0.0653 C   0  0  0  0  0  0  0  0  0  0  0  0
    3.6300   -1.3504   -1.2845 C   0  0  0  0  0  0  0  0  0  0  0  0
    4.6250    0.9268   -1.3162 C   0  0  0  0  0  0  0  0  0  0  0  0
   -3.5900   -2.1792   -0.3465 C   0  0  0  0  0  0  0  0  0  0  0  0
   -3.4281   -0.8491    1.7467 C   0  0  0  0  0  0  0  0  0  0  0  0
    5.2410   -0.1505    1.1727 C   0  0  0  0  0  0  0  0  0  0  0  0
   -5.1369    1.2411    0.4669 C   0  0  0  0  0  0  0  0  0  0  0  0
    5.9017    0.7488    1.9101 C   0  0  0  0  0  0  0  0  0  0  0  0
   -5.3864    2.3028   -0.3073 C   0  0  0  0  0  0  0  0  0  0  0  0
  1  8  1  0
  1  9  1  0
  2  4  1  0
  2  6  1  0
  2 10  1  0
  2 11  1  0
  3  5  1  0
  3  7  1  0
  3 12  1  0
  3 13  1  0
  4  8  1  0
  5  9  1  0
  6 14  1  0
  7 15  1  0
 14 16  2  0
 15 17  2  0
M  CHG  2   2   1   3   1
M  END
>  <PUBCHEM_COMPOUND_CID>  (1) 
46902

>  <PUBCHEM_CONFORMER_RMSD>  (1) 
0.8

>  <PUBCHEM_CONFORMER_DIVERSEORDER>  (1) 
4
230
136
81
10
100
133
16
128
117
5
203
55
2
125
37
240
227
19
243
132
21
154
206
104
241
140
3
20
123
191
12
95
217
204
237
11
103
68
242
50
58
142
13
169
98
25
74
131
185
1
119
8
176
27
158
170
150
208
6
53
107
36
244
80
215
229
179
121
186
30
147
52
210
94
219
29
232
167
97
78
116
196
162
221
223
134
85
139
49
153
211
92
235
7
138
177
17
65
118
99
184
187
161
143
233
198
126
62
155
189
33
108
212
112
93
178
225
110
31
45
202
209
214
15
224
152
41
205
71
168
163
194
105
40
166
84
90
222
69
220
9
247
91
175
77
46
43
106
18
174
113
67
246
172
213
245
157
59
151
42
231
144
14
193
73
234
72
238
23
89
197
101
236
180
26
39
129
24
124
190
145
207
115
61
141
66
70
165
192
182
149
57
173
135
160
88
218
109
64
83
47
164
87
102
239
38
114
56
130
22
188
127
159
79
51
137
216
195
122
148
96
82
171
48
54
63
156
35
181
75
32
199
111
228
226
146
76
28
201
183
44
120
60
34
86
200

>  <PUBCHEM_MMFF94_PARTIAL_CHARGES>  (1) 
23
1 -0.56
10 0.5
11 0.5
12 0.5
13 0.5
14 -0.29
15 -0.29
16 -0.3
17 -0.3
2 -1.01
3 -1.01
4 0.5
42 0.15
43 0.15
44 0.15
45 0.15
46 0.15
47 0.15
5 0.5
6 0.64
7 0.64
8 0.28
9 0.28

>  <PUBCHEM_EFFECTIVE_ROTOR_COUNT>  (1) 
10

>  <PUBCHEM_PHARMACOPHORE_FEATURES>  (1) 
5
1 1 acceptor
1 16 hydrophobe
1 17 hydrophobe
1 2 cation
1 3 cation

>  <PUBCHEM_HEAVY_ATOM_COUNT>  (1) 
17

>  <PUBCHEM_ATOM_DEF_STEREO_COUNT>  (1) 
0

>  <PUBCHEM_ATOM_UDEF_STEREO_COUNT>  (1) 
0

>  <PUBCHEM_BOND_DEF_STEREO_COUNT>  (1) 
0

>  <PUBCHEM_BOND_UDEF_STEREO_COUNT>  (1) 
0

>  <PUBCHEM_ISOTOPIC_ATOM_COUNT>  (1) 
0

>  <PUBCHEM_COMPONENT_COUNT>  (1) 
1

>  <PUBCHEM_CACTVS_TAUTO_COUNT>  (1) 
1

>  <PUBCHEM_CONFORMER_ID>  (1) 
0000B73600000004

>  <PUBCHEM_MMFF94_ENERGY>  (1) 
59.7199

>  <PUBCHEM_FEATURE_SELFOVERLAP>  (1) 
25.371

>  <PUBCHEM_SHAPE_FINGERPRINT>  (1) 
10014705 185 17489864951549088007
10912923 1 17749392610753766534
11036077 4 16950287308742258993
11405975 8 17967537908254124081
117890 112 18201719522610310841
12507557 5 17632577192942480249
12523318 42 18200307865718736203
12596602 18 18272081738775341234
12616971 3 17167861967411388062
13073987 5 17313674857185499329
13533116 47 17702675345184847526
13675066 3 18201726162492503175
13760787 5 16660362605824287854
14123256 34 14996554037795721856
1420 363 11241974776122431301
14251764 18 17603588551326920781
14455015 7 13840265866411362544
14528608 73 13183016332872979848
14774955 27 15769485526165195264
14863182 85 17458340798489403274
16079462 125 17917983966961865592
19050596 39 17676206874762246678
19489759 90 18413668011568325641
20281475 54 16298392404382258303
20645477 70 17059506131576154607
21150785 3 15841538692034019845
21618674 57 17603307054986520497
220451 1 16298394569388601718
22646028 1 17894629296389932614
23081809 10 17821730567545961870
23402539 116 18335698360234099895
23559900 14 18200891581912387142
268830 7 17603585269919380532
2916195 48 17917702539414106322
300161 21 17989483017698512286
4325135 7 12607402195917490409
465052 167 14056997192554084080
5104073 3 17458350783322787752
542803 24 18186807984447578365
573450 72 18259701224692493059
633830 44 17967542284646632871
90127 26 18261691344791005461

>  <PUBCHEM_SHAPE_MULTIPOLES>  (1) 
334.02
15.99
1.64
1.49
2.28
0.04
0.49
4.82
3.97
-2.57
-0.25
2.1
0.05
0.83

>  <PUBCHEM_SHAPE_SELFOVERLAP>  (1) 
617.419

>  <PUBCHEM_SHAPE_VOLUME>  (1) 
213.8

>  <PUBCHEM_COORDINATE_TYPE>  (1) 
2
5
10

$$$$
