46916
     RDKit          3D

 20 21  0  0  0  0  0  0  0  0999 V2000
   -0.0194    0.9463    1.2267 O   0  0  0  0  0  0  0  0  0  0  0  0
    0.9749    0.1373   -0.7283 O   0  0  0  0  0  0  0  0  0  0  0  0
   -4.1655   -1.1869   -0.0991 N   0  0  0  0  0  0  0  0  0  0  0  0
   -3.2289    0.0237   -0.1046 C   0  0  0  0  0  0  0  0  0  0  0  0
   -4.3851   -1.6439   -1.5385 C   0  0  0  0  0  0  0  0  0  0  0  0
   -5.4865   -0.7827    0.5497 C   0  0  0  0  0  0  0  0  0  0  0  0
   -3.5881   -2.3601    0.6899 C   0  0  0  0  0  0  0  0  0  0  0  0
   -2.0620   -0.1010    0.5722 C   0  0  0  0  0  0  0  0  0  0  0  0
   -3.6454    1.1178   -0.7861 C   0  0  0  0  0  0  0  0  0  0  0  0
   -1.2084    1.0022    0.5669 C   0  0  0  0  0  0  0  0  0  0  0  0
   -2.7919    2.2209   -0.7913 C   0  0  0  0  0  0  0  0  0  0  0  0
   -1.5734    2.1631   -0.1150 C   0  0  0  0  0  0  0  0  0  0  0  0
    2.3118    0.4606    1.2828 C   0  0  0  0  0  0  0  0  0  0  0  0
    1.0542    0.4772    0.4447 C   0  0  0  0  0  0  0  0  0  0  0  0
    3.5238    0.0054    0.5123 C   0  0  0  0  0  0  0  0  0  0  0  0
    3.8454   -1.3439    0.4810 C   0  0  0  0  0  0  0  0  0  0  0  0
    4.2999    0.9423   -0.1549 C   0  0  0  0  0  0  0  0  0  0  0  0
    4.9673   -1.7655   -0.2325 C   0  0  0  0  0  0  0  0  0  0  0  0
    5.4218    0.5206   -0.8685 C   0  0  0  0  0  0  0  0  0  0  0  0
    5.7554   -0.8333   -0.9073 C   0  0  0  0  0  0  0  0  0  0  0  0
  1 10  1  0
  1 14  1  0
  2 14  2  0
  3  4  1  0
  3  5  1  0
  3  6  1  0
  3  7  1  0
  4  8  2  0
  4  9  1  0
  8 10  1  0
  9 11  2  0
 10 12  2  0
 11 12  1  0
 13 14  1  0
 13 15  1  0
 15 16  2  0
 15 17  1  0
 16 18  1  0
 17 19  2  0
 18 20  2  0
 19 20  1  0
M  CHG  1   3   1
M  END
>  <PUBCHEM_COMPOUND_CID>  (1) 
46916

>  <PUBCHEM_CONFORMER_RMSD>  (1) 
0.8

>  <PUBCHEM_CONFORMER_DIVERSEORDER>  (1) 
1
37
69
61
53
10
73
66
93
65
30
94
85
77
70
76
78
44
16
26
72
74
17
80
12
31
82
48
50
40
39
91
7
43
15
62
38
75
4
27
18
41
68
19
25
60
14
92
51
81
28
58
71
33
49
55
6
2
32
88
57
8
84
42
47
22
35
23
59
67
95
21
83
5
54
29
11
96
36
24
46
20
3
34
90
56
87
45
52
9
79
64
63
89
13
86

>  <PUBCHEM_MMFF94_PARTIAL_CHARGES>  (1) 
29
1 -0.23
10 0.08
11 -0.15
12 -0.15
13 0.2
14 0.66
15 -0.14
16 -0.15
17 -0.15
18 -0.15
19 -0.15
2 -0.57
20 -0.15
3 -0.87
30 0.15
31 0.15
32 0.15
33 0.15
36 0.15
37 0.15
38 0.15
39 0.15
4 0.36
40 0.15
5 0.5
6 0.5
7 0.5
8 -0.15
9 -0.15

>  <PUBCHEM_EFFECTIVE_ROTOR_COUNT>  (1) 
5

>  <PUBCHEM_PHARMACOPHORE_FEATURES>  (1) 
4
1 2 acceptor
1 3 cation
6 15 16 17 18 19 20 rings
6 4 8 9 10 11 12 rings

>  <PUBCHEM_HEAVY_ATOM_COUNT>  (1) 
20

>  <PUBCHEM_ATOM_DEF_STEREO_COUNT>  (1) 
0

>  <PUBCHEM_ATOM_UDEF_STEREO_COUNT>  (1) 
0

>  <PUBCHEM_BOND_DEF_STEREO_COUNT>  (1) 
0

>  <PUBCHEM_BOND_UDEF_STEREO_COUNT>  (1) 
0

>  <PUBCHEM_ISOTOPIC_ATOM_COUNT>  (1) 
0

>  <PUBCHEM_COMPONENT_COUNT>  (1) 
1

>  <PUBCHEM_CACTVS_TAUTO_COUNT>  (1) 
1

>  <PUBCHEM_CONFORMER_ID>  (1) 
0000B74400000001

>  <PUBCHEM_MMFF94_ENERGY>  (1) 
77.2941

>  <PUBCHEM_FEATURE_SELFOVERLAP>  (1) 
20.297

>  <PUBCHEM_SHAPE_FINGERPRINT>  (1) 
10595046 47 18260552204164783428
11045515 52 18334014973504651868
11089746 13 15864068785094027572
11128504 68 17748830721936867940
11524674 6 16773796996222884039
11543360 7 18260550013536329176
11796584 16 18129380415183527302
12236239 1 17240481386290234185
12633257 1 16487255503689572854
12670546 177 18187083936428649132
12916754 54 18343021098985387872
12969540 114 14779550088814798770
13103583 49 16558481880265227643
13167823 11 18408885105648558750
13288520 33 18410576188997253137
14123255 352 8070028865275435994
14251718 22 18408325493164268828
14251757 5 17969227904723528770
14251758 9 13470415448048236568
14251764 75 12760476106390834967
14528608 73 17894919529516921660
14617045 38 18411705382965235579
15250474 111 18187915137018087234
15537594 2 18131070445812047414
15880784 105 17131548461474527939
16994733 274 13623794013847237455
17834072 33 18259706692465357852
17844677 252 18411424998973443496
17870717 6 18408886218018675807
1813 80 15698006245110485632
193927 3 17203333278229290512
200 152 18259704501499416736
20300324 65 18186803564863342797
20645477 70 18059862753594057998
20693207 138 18342447166737202800
20871999 31 18259984872643054856
21054139 6 18187361030966499250
21267235 1 18334862757963424331
21307412 95 18339634646939487471
21401589 2 7925642145779094047
22393880 68 18262234405278380054
22950370 63 18202004351734823305
2297311 6 18408046217010347093
23379529 103 18119255201413665939
23402539 116 18114180826285941829
235170 7 17313092038761268254
23522609 53 18056791859792841561
23557571 272 18412831256949137677
23559900 14 18410003360181701552
25122255 55 17988652831102249974
2838139 119 12540686050689264375
2871803 45 18335415777145563234
2916195 48 10737278061174203151
3004659 81 18335138662098682594
3268164 11 17458057140724605661
34797466 226 18338527416970169468
351380 3 18201719569628286135
4214541 1 18336265648136372228
4259306 186 18343577460326822343
465052 167 17704358792455839574
497634 4 18412270518930416297
5104073 3 18130783417879999384
5312625 73 18270399524813895120
59755656 215 18410009901791465687
59755656 520 18196937669833536881
633830 44 15792575124019117776
7495541 125 17989203763900356160

>  <PUBCHEM_SHAPE_MULTIPOLES>  (1) 
394.87
13.9
2.15
1.15
8.93
0.15
0.09
5.98
3.37
-1.9
0.23
-0.18
0.09
0.32

>  <PUBCHEM_SHAPE_SELFOVERLAP>  (1) 
832.775

>  <PUBCHEM_SHAPE_VOLUME>  (1) 
222.4

>  <PUBCHEM_COORDINATE_TYPE>  (1) 
2
5
10

$$$$
