46914
     RDKit          3D

 19 18  0  0  0  0  0  0  0  0999 V2000
   -0.0015   -0.0271    0.7272 O   0  0  0  0  0  0  0  0  0  0  0  0
   -3.6230   -0.0010   -0.0164 N   0  0  0  0  0  0  0  0  0  0  0  0
    3.6506   -0.0007   -0.0396 N   0  0  0  0  0  0  0  0  0  0  0  0
   -2.3995   -0.0048    0.8247 C   0  0  0  0  0  0  0  0  0  0  0  0
    2.3968   -0.0561    0.8214 C   0  0  0  0  0  0  0  0  0  0  0  0
   -3.6878    1.2673   -0.8779 C   0  0  0  0  0  0  0  0  0  0  0  0
   -4.8841   -0.0500    0.8571 C   0  0  0  0  0  0  0  0  0  0  0  0
   -3.6435   -1.2163   -0.9534 C   0  0  0  0  0  0  0  0  0  0  0  0
    3.6399    1.2747   -0.8699 C   0  0  0  0  0  0  0  0  0  0  0  0
    4.8813   -0.0132    0.8555 C   0  0  0  0  0  0  0  0  0  0  0  0
    3.6842   -1.2083   -0.9651 C   0  0  0  0  0  0  0  0  0  0  0  0
   -1.1765    0.0129   -0.0711 C   0  0  0  0  0  0  0  0  0  0  0  0
    1.1734   -0.0122   -0.0727 C   0  0  0  0  0  0  0  0  0  0  0  0
   -3.6689    2.4831    0.0228 C   0  0  0  0  0  0  0  0  0  0  0  0
   -4.8835   -1.3317    1.6613 C   0  0  0  0  0  0  0  0  0  0  0  0
   -4.8830   -1.1570   -1.8192 C   0  0  0  0  0  0  0  0  0  0  0  0
    3.6064    2.4714    0.0553 C   0  0  0  0  0  0  0  0  0  0  0  0
    4.8863   -1.2830    1.6782 C   0  0  0  0  0  0  0  0  0  0  0  0
    4.9325   -1.1477   -1.8181 C   0  0  0  0  0  0  0  0  0  0  0  0
  1 12  1  0
  1 13  1  0
  2  4  1  0
  2  6  1  0
  2  7  1  0
  2  8  1  0
  3  5  1  0
  3  9  1  0
  3 10  1  0
  3 11  1  0
  4 12  1  0
  5 13  1  0
  6 14  1  0
  7 15  1  0
  8 16  1  0
  9 17  1  0
 10 18  1  0
 11 19  1  0
M  CHG  2   2   1   3   1
M  END
>  <PUBCHEM_COMPOUND_CID>  (1) 
46914

>  <PUBCHEM_CONFORMER_RMSD>  (1) 
1

>  <PUBCHEM_CONFORMER_DIVERSEORDER>  (1) 
13
130
195
9
132
151
98
7
196
131
8
153
108
5
194
107
4
181
99
18
106
6
183
152
110
17
111
20
187
109
1
182
97
2
37
21
120
166
112
3
155
16
94
19
114
38
154
12
96
168
42
95
156
10
113
11
39
150
119
41
101
118
40
105
102
27
174
104
90
149
103
138
14
25
175
53
15
26
139
89
148
141
88
191
140
54
163
28
192
52
144
165
35
193
142
60
34
133
171
36
143
56
167
33
170
58
134
31
145
162
50
169
32
147
51
172
29
136
93
146
161
49
30
173
91
160
77
176
92
164
78
100
79
177
76
200
115
80
198
57
117
81
116
201
59
64
180
137
55
65
199
135
84
178
86
197
73
126
82
179
87
125
23
127
83
75
124
67
159
46
190
74
129
61
188
69
128
70
123
63
189
85
68
157
71
121
62
158
47
185
122
72
48
186
184
43
44
45
22
66
24

>  <PUBCHEM_MMFF94_PARTIAL_CHARGES>  (1) 
13
1 -0.56
10 0.5
11 0.5
12 0.28
13 0.28
2 -1.01
3 -1.01
4 0.5
5 0.5
6 0.5
7 0.5
8 0.5
9 0.5

>  <PUBCHEM_EFFECTIVE_ROTOR_COUNT>  (1) 
12

>  <PUBCHEM_PHARMACOPHORE_FEATURES>  (1) 
3
1 1 acceptor
1 2 cation
1 3 cation

>  <PUBCHEM_HEAVY_ATOM_COUNT>  (1) 
19

>  <PUBCHEM_ATOM_DEF_STEREO_COUNT>  (1) 
0

>  <PUBCHEM_ATOM_UDEF_STEREO_COUNT>  (1) 
0

>  <PUBCHEM_BOND_DEF_STEREO_COUNT>  (1) 
0

>  <PUBCHEM_BOND_UDEF_STEREO_COUNT>  (1) 
0

>  <PUBCHEM_ISOTOPIC_ATOM_COUNT>  (1) 
0

>  <PUBCHEM_COMPONENT_COUNT>  (1) 
1

>  <PUBCHEM_CACTVS_TAUTO_COUNT>  (1) 
1

>  <PUBCHEM_CONFORMER_ID>  (1) 
0000B7420000000D

>  <PUBCHEM_MMFF94_ENERGY>  (1) 
85.9201

>  <PUBCHEM_FEATURE_SELFOVERLAP>  (1) 
15.223

>  <PUBCHEM_SHAPE_FINGERPRINT>  (1) 
10680689 15 18342459231774687783
10912923 1 18059856215888929553
11405975 8 18334857177825279145
12616971 3 18413107272963964099
13073987 5 18040434391099023632
13167823 11 18040712567256040474
14251751 93 18201147793923117527
15788980 27 18342739602396216271
17844677 252 18333456447324645961
18186145 218 17749109993368638852
19433438 28 18113337522331770169
20281475 54 17489591172953344041
20369508 70 18113614582814972906
20645477 70 18409458002988863242
21709351 56 18412540985963411404
220451 1 17203337718761303030
23402539 116 18187357705907073969
23557571 272 18269851838715022301
23559900 14 17632298956576949230
300161 21 11887949943336130768
4214541 1 17967812721773358729
5104073 3 18333732411753139713
5281201 14 18413674599631803244
542803 24 18341620321392751049
633830 44 18334577936215374111
90127 26 18409735057816641297

>  <PUBCHEM_SHAPE_MULTIPOLES>  (1) 
375.18
14.76
1.95
1.63
0.1
1.28
-0.15
-2.89
-0.21
-0.07
-0.23
0.02
-0.84
0.04

>  <PUBCHEM_SHAPE_SELFOVERLAP>  (1) 
694.917

>  <PUBCHEM_SHAPE_VOLUME>  (1) 
241

>  <PUBCHEM_COORDINATE_TYPE>  (1) 
2
5
10

$$$$
