46912
     RDKit          3D

 17 16  0  0  0  0  0  0  0  0999 V2000
    0.1064   -0.4379   -0.3982 O   0  0  0  0  0  0  0  0  0  0  0  0
    3.7655   -0.9302    0.1443 N   0  0  0  0  0  0  0  0  0  0  0  0
   -3.3345    0.6206    0.4437 N   0  0  0  0  0  0  0  0  0  0  0  0
    2.4393   -0.9653   -0.6012 C   0  0  0  0  0  0  0  0  0  0  0  0
   -2.2501    0.0167   -0.3709 C   0  0  0  0  0  0  0  0  0  0  0  0
    4.1315    0.5126    0.4613 C   0  0  0  0  0  0  0  0  0  0  0  0
   -4.6708    0.5766   -0.3097 C   0  0  0  0  0  0  0  0  0  0  0  0
    1.3549   -0.3751    0.2785 C   0  0  0  0  0  0  0  0  0  0  0  0
   -0.9427    0.1060    0.3913 C   0  0  0  0  0  0  0  0  0  0  0  0
    3.6400   -1.7181    1.4403 C   0  0  0  0  0  0  0  0  0  0  0  0
    4.8514   -1.5502   -0.7231 C   0  0  0  0  0  0  0  0  0  0  0  0
   -3.5076   -0.1368    1.7673 C   0  0  0  0  0  0  0  0  0  0  0  0
   -3.0183    2.0864    0.7701 C   0  0  0  0  0  0  0  0  0  0  0  0
    4.2228    1.2997   -0.8362 C   0  0  0  0  0  0  0  0  0  0  0  0
   -5.0609   -0.8736   -0.5473 C   0  0  0  0  0  0  0  0  0  0  0  0
    4.6317    2.7408   -0.5776 C   0  0  0  0  0  0  0  0  0  0  0  0
   -6.3586   -0.9723   -1.3328 C   0  0  0  0  0  0  0  0  0  0  0  0
  1  8  1  0
  1  9  1  0
  2  4  1  0
  2  6  1  0
  2 10  1  0
  2 11  1  0
  3  5  1  0
  3  7  1  0
  3 12  1  0
  3 13  1  0
  4  8  1  0
  5  9  1  0
  6 14  1  0
  7 15  1  0
 14 16  1  0
 15 17  1  0
M  CHG  2   2   1   3   1
M  END
>  <PUBCHEM_COMPOUND_CID>  (1) 
46912

>  <PUBCHEM_CONFORMER_RMSD>  (1) 
0.8

>  <PUBCHEM_CONFORMER_DIVERSEORDER>  (1) 
3
189
147
39
291
245
93
55
87
294
108
221
1
267
24
257
163
59
20
270
187
32
181
186
44
274
48
52
219
141
212
4
84
133
261
220
30
88
279
193
79
82
167
143
14
227
21
42
95
2
77
112
260
254
295
118
243
249
98
9
109
240
72
6
161
228
34
17
252
35
65
136
165
16
91
164
138
251
149
41
192
81
290
151
236
33
140
242
11
38
296
292
156
216
196
301
234
27
299
28
102
86
175
53
158
60
8
275
195
225
70
132
206
244
58
19
110
273
285
115
130
207
40
194
178
13
146
144
97
268
232
22
248
90
96
45
223
208
213
12
78
127
230
185
200
57
120
180
106
47
218
222
36
288
233
101
199
269
289
154
5
131
202
75
239
129
80
103
67
182
54
174
46
64
113
229
116
71
159
114
179
56
188
37
259
76
258
155
94
105
255
121
173
68
26
139
63
280
83
198
29
61
293
169
117
210
124
51
172
253
7
211
282
205
265
160
62
148
278
235
224
284
125
111
152
272
99
31
281
100
142
203
85
283
49
184
238
23
191
250
150
256
50
287
168
10
89
183
126
214
170
18
247
226
166
157
74
276
15
25
190
297
266
231
286
162
122
135
153
246
73
204
137
271
300
66
171
262
237
128
43
69
201
277
263
215
298
176
134
123
107
119
177
104
145
217
264
241
92
209
197

>  <PUBCHEM_MMFF94_PARTIAL_CHARGES>  (1) 
13
1 -0.56
10 0.5
11 0.5
12 0.5
13 0.5
2 -1.01
3 -1.01
4 0.5
5 0.5
6 0.5
7 0.5
8 0.28
9 0.28

>  <PUBCHEM_EFFECTIVE_ROTOR_COUNT>  (1) 
10

>  <PUBCHEM_PHARMACOPHORE_FEATURES>  (1) 
5
1 1 acceptor
1 16 hydrophobe
1 17 hydrophobe
1 2 cation
1 3 cation

>  <PUBCHEM_HEAVY_ATOM_COUNT>  (1) 
17

>  <PUBCHEM_ATOM_DEF_STEREO_COUNT>  (1) 
0

>  <PUBCHEM_ATOM_UDEF_STEREO_COUNT>  (1) 
0

>  <PUBCHEM_BOND_DEF_STEREO_COUNT>  (1) 
0

>  <PUBCHEM_BOND_UDEF_STEREO_COUNT>  (1) 
0

>  <PUBCHEM_ISOTOPIC_ATOM_COUNT>  (1) 
0

>  <PUBCHEM_COMPONENT_COUNT>  (1) 
1

>  <PUBCHEM_CACTVS_TAUTO_COUNT>  (1) 
1

>  <PUBCHEM_CONFORMER_ID>  (1) 
0000B74000000003

>  <PUBCHEM_MMFF94_ENERGY>  (1) 
60.5582

>  <PUBCHEM_FEATURE_SELFOVERLAP>  (1) 
25.372

>  <PUBCHEM_SHAPE_FINGERPRINT>  (1) 
10366900 7 17676778574065067168
10912923 1 18343304743051958155
11089746 13 18113615664619346970
12403259 118 18341325583367373088
12616971 3 18270975543677110553
12616999 72 17632302272170200686
12916748 109 15626222424708429090
13073987 5 16200431330201707002
13167823 11 18412823555972562087
13533116 47 18410852174483461603
14123238 8 18060700593706439359
1420 363 16200430282493196935
14251718 22 18201998858766862295
14251732 14 16271656683836159816
14528608 73 18409450297300543764
14774955 27 18189338029892514500
16079462 125 16877931772306061941
17834072 33 18341611538063194471
17844677 252 18339931424013657020
200 152 18408318883346750255
20645477 70 18408884010506030774
21503847 285 18336272254339256032
2297311 6 15554175852099765193
23402539 116 18341889659261232125
23532345 1 18113899385969396504
23557571 272 16487268668197228273
23559900 14 16877952611608954466
29717793 49 18342738490063139879
300161 21 12179850510808045054
4325135 7 18343863346387764733
474 4 18041847332629600292
4990 188 13830133871446536700
5283173 99 17531795867131238349
633830 44 18337958891668993706
7495541 125 17346591984742503426
8988823 20 17821999917903803174
90127 26 18334868181605123472

>  <PUBCHEM_SHAPE_MULTIPOLES>  (1) 
334.02
15.1
2.04
1.26
7.96
1.16
-0.32
-0.76
3.85
-2.81
0.08
0.66
-0.24
-1.69

>  <PUBCHEM_SHAPE_SELFOVERLAP>  (1) 
609.499

>  <PUBCHEM_SHAPE_VOLUME>  (1) 
217.4

>  <PUBCHEM_COORDINATE_TYPE>  (1) 
2
5
10

$$$$
