4691
     RDKit          3D

 24 27  0  0  1  0  0  0  0  0999 V2000
    1.6246    4.9026   -0.1871 F   0  0  0  0  0  0  0  0  0  0  0  0
   -0.3017   -1.8571   -0.1168 O   0  0  0  0  0  0  0  0  0  0  0  0
   -4.3726    0.3262   -1.5001 O   0  0  0  0  0  0  0  0  0  0  0  0
   -5.2213    0.3613    0.7553 O   0  0  0  0  0  0  0  0  0  0  0  0
    3.6671   -3.1817   -0.3814 N   0  0  0  0  0  0  0  0  0  0  0  0
    2.3480   -0.6677    0.3573 C   0  0  0  0  0  0  0  0  0  0  0  0
    1.9253   -1.4793   -0.8952 C   0  0  0  0  0  0  0  0  0  0  0  0
    3.8087   -0.9861    0.7283 C   0  0  0  0  0  0  0  0  0  0  0  0
    2.2557   -2.9711   -0.7023 C   0  0  0  0  0  0  0  0  0  0  0  0
    4.0394   -2.4899    0.8505 C   0  0  0  0  0  0  0  0  0  0  0  0
    0.4314   -1.3243   -1.2018 C   0  0  0  0  0  0  0  0  0  0  0  0
    2.1531    0.8325    0.2108 C   0  0  0  0  0  0  0  0  0  0  0  0
    1.7840    1.5936    1.3163 C   0  0  0  0  0  0  0  0  0  0  0  0
    2.3453    1.4373   -1.0284 C   0  0  0  0  0  0  0  0  0  0  0  0
    1.6053    2.9704    1.1817 C   0  0  0  0  0  0  0  0  0  0  0  0
    2.1668    2.8141   -1.1631 C   0  0  0  0  0  0  0  0  0  0  0  0
   -1.5349   -1.3062    0.1359 C   0  0  0  0  0  0  0  0  0  0  0  0
    1.7968    3.5808   -0.0580 C   0  0  0  0  0  0  0  0  0  0  0  0
   -2.2750   -0.7777   -0.9169 C   0  0  0  0  0  0  0  0  0  0  0  0
   -2.0193   -1.2903    1.4496 C   0  0  0  0  0  0  0  0  0  0  0  0
   -3.5073   -0.2365   -0.6133 C   0  0  0  0  0  0  0  0  0  0  0  0
   -3.9918   -0.2163    0.6747 C   0  0  0  0  0  0  0  0  0  0  0  0
   -3.2707   -0.7364    1.7301 C   0  0  0  0  0  0  0  0  0  0  0  0
   -5.4569    0.7017   -0.6262 C   0  0  0  0  0  0  0  0  0  0  0  0
  1 18  1  0
  2 11  1  0
  2 17  1  0
  3 21  1  0
  3 24  1  0
  4 22  1  0
  4 24  1  0
  5  9  1  0
  5 10  1  0
  6  7  1  0
  6  8  1  0
  6 12  1  0
  7  9  1  0
  7 11  1  0
  8 10  1  0
 12 13  2  0
 12 14  1  0
 13 15  1  0
 14 16  2  0
 15 18  2  0
 16 18  1  0
 17 19  1  0
 17 20  2  0
 19 21  2  0
 20 23  1  0
 21 22  1  0
 22 23  2  0
M  END
>  <PUBCHEM_COMPOUND_CID>  (1) 
4691

>  <PUBCHEM_CONFORMER_RMSD>  (1) 
0.8

>  <PUBCHEM_CONFORMER_DIVERSEORDER>  (1) 
1
39
65
77
147
141
73
92
14
110
128
51
126
20
101
35
99
91
60
68
145
48
114
56
143
85
124
140
108
151
137
89
34
22
87
74
102
54
17
120
15
112
81
136
12
152
100
95
117
129
64
88
44
78
104
149
106
94
26
69
11
57
7
127
25
103
153
32
84
31
134
42
58
33
159
70
142
21
38
119
148
9
144
146
155
97
107
139
36
61
121
72
3
37
157
154
158
118
113
80
30
125
156
135
67
40
2
63
52
150
98
4
76
115
138
133
19
71
50
131
130
59
27
123
105
86
41
75
6
29
93
53
10
116
13
79
5
122
82
62
90
49
96
111
24
23
28
83
46
47
160
132
55
16
45
66
109
18
8
43

>  <PUBCHEM_MMFF94_PARTIAL_CHARGES>  (1) 
30
1 -0.19
10 0.27
11 0.28
12 -0.14
13 -0.15
14 -0.15
15 -0.15
16 -0.15
17 0.08
18 0.19
19 -0.15
2 -0.36
20 -0.15
21 0.08
22 0.08
23 -0.15
24 0.56
3 -0.36
35 0.36
36 0.15
37 0.15
38 0.15
39 0.15
4 -0.36
40 0.15
41 0.15
42 0.15
5 -0.9
6 0.14
9 0.27

>  <PUBCHEM_EFFECTIVE_ROTOR_COUNT>  (1) 
5.8

>  <PUBCHEM_PHARMACOPHORE_FEATURES>  (1) 
9
1 2 acceptor
1 3 acceptor
1 4 acceptor
1 5 cation
1 5 donor
5 3 4 21 22 24 rings
6 12 13 14 15 16 18 rings
6 17 19 20 21 22 23 rings
6 5 6 7 8 9 10 rings

>  <PUBCHEM_HEAVY_ATOM_COUNT>  (1) 
24

>  <PUBCHEM_ATOM_DEF_STEREO_COUNT>  (1) 
0

>  <PUBCHEM_ATOM_UDEF_STEREO_COUNT>  (1) 
2

>  <PUBCHEM_BOND_DEF_STEREO_COUNT>  (1) 
0

>  <PUBCHEM_BOND_UDEF_STEREO_COUNT>  (1) 
0

>  <PUBCHEM_ISOTOPIC_ATOM_COUNT>  (1) 
0

>  <PUBCHEM_COMPONENT_COUNT>  (1) 
1

>  <PUBCHEM_CACTVS_TAUTO_COUNT>  (1) 
1

>  <PUBCHEM_CONFORMER_ID>  (1) 
0000125300000001

>  <PUBCHEM_MMFF94_ENERGY>  (1) 
63.5931

>  <PUBCHEM_FEATURE_SELFOVERLAP>  (1) 
45.828

>  <PUBCHEM_SHAPE_FINGERPRINT>  (1) 
10165383 225 17687781584065605092
10688039 33 18192711142519040798
10937287 8 17762616587383328876
11456790 92 17970069938163465873
11545043 162 17385733474058783027
11640471 11 17631445846579223678
12166972 35 18131063818872415547
12403259 327 17821996614852881322
12633257 1 17896019087655998096
12788726 201 18046062658421072290
13004483 165 18193545676308737226
13134695 92 18410852127581894862
13583140 156 18334582369102438203
14466204 15 18119240671464800795
14713325 29 16321202070081540508
14790565 3 18049158067189953932
14866123 147 16533131170434191970
151778 21 18192441972265151369
15238133 3 18117286860534479759
15295992 7 18187372017281501427
15420108 30 17913744349774591826
15463212 79 17257643951114737776
15848702 68 18410011061189535780
1601671 61 18411133676079256602
17349148 13 17560799909861209979
18335252 114 18195231232271768861
18785283 64 18337112374904983907
192875 21 18130507448792898827
20567600 299 18343295968402701729
20739085 24 18412818106407701738
21033648 29 17604414242158470781
21033650 10 15482130309534790163
21315764 21 18411980282626636937
21475661 188 18188197733471560501
21641784 216 18121241791940000902
21860390 5 18272091582312681030
23175994 123 18263088716801669535
23559900 14 18334577936606173595
3052486 1 17902232208932212008
345986 75 17462826697923525050
469060 322 11886232433412672777
474 4 18343017817893942147
508706 21 17825093828067086613
513202 73 17694792818014898886
5252454 2 17980778338960828737
57724786 102 18261120672856053917
7399639 24 17614013201669716139
7808743 9 17113543073696169692
81228 2 17833280718469226234
8509985 295 18335417928823977506
9971528 1 18130786699029739038
9981440 41 17835789069004962201

>  <PUBCHEM_SHAPE_MULTIPOLES>  (1) 
464.05
9.22
4.42
1.44
12.53
4.39
-0.18
-1.72
-0.31
-6.93
0.31
0.5
0.03
0.29

>  <PUBCHEM_SHAPE_SELFOVERLAP>  (1) 
1012.682

>  <PUBCHEM_SHAPE_VOLUME>  (1) 
252.1

>  <PUBCHEM_COORDINATE_TYPE>  (1) 
2
5
10

$$$$
