46920
     RDKit          3D

 17 17  0  0  0  0  0  0  0  0999 V2000
   -1.9836   -0.0197    0.9224 O   0  0  0  0  0  0  0  0  0  0  0  0
   -2.4776   -0.4648   -1.3055 O   0  0  0  0  0  0  0  0  0  0  0  0
    2.6217   -1.1883    0.0501 N   0  0  0  0  0  0  0  0  0  0  0  0
   -4.0577   -0.8170    0.3562 N   0  0  0  0  0  0  0  0  0  0  0  0
    1.5122   -0.1351    0.0993 C   0  0  0  0  0  0  0  0  0  0  0  0
    1.9986   -2.5429   -0.2751 C   0  0  0  0  0  0  0  0  0  0  0  0
    3.3246   -1.2248    1.4043 C   0  0  0  0  0  0  0  0  0  0  0  0
    3.6668   -0.8763   -1.0192 C   0  0  0  0  0  0  0  0  0  0  0  0
    1.8309    1.1364   -0.2422 C   0  0  0  0  0  0  0  0  0  0  0  0
    0.2885   -0.5745    0.4874 C   0  0  0  0  0  0  0  0  0  0  0  0
    0.8062    2.0817   -0.1910 C   0  0  0  0  0  0  0  0  0  0  0  0
   -0.7359    0.3708    0.5389 C   0  0  0  0  0  0  0  0  0  0  0  0
   -0.4772    1.6989    0.1996 C   0  0  0  0  0  0  0  0  0  0  0  0
    3.1964    1.5714   -0.6637 C   0  0  0  0  0  0  0  0  0  0  0  0
   -1.5618    2.7238    0.2487 C   0  0  0  0  0  0  0  0  0  0  0  0
   -2.8209   -0.4426   -0.1273 C   0  0  0  0  0  0  0  0  0  0  0  0
   -5.1312   -1.2969   -0.4827 C   0  0  0  0  0  0  0  0  0  0  0  0
  1 12  1  0
  1 16  1  0
  2 16  2  0
  3  5  1  0
  3  6  1  0
  3  7  1  0
  3  8  1  0
  4 16  1  0
  4 17  1  0
  5  9  2  0
  5 10  1  0
  9 11  1  0
  9 14  1  0
 10 12  2  0
 11 13  2  0
 12 13  1  0
 13 15  1  0
M  CHG  1   3   1
M  END
>  <PUBCHEM_COMPOUND_CID>  (1) 
46920

>  <PUBCHEM_CONFORMER_RMSD>  (1) 
0.6

>  <PUBCHEM_CONFORMER_DIVERSEORDER>  (1) 
1
7
11
13
10
17
9
12
15
14
18
5
16
4
6
8
3
2

>  <PUBCHEM_MMFF94_PARTIAL_CHARGES>  (1) 
20
1 -0.23
10 -0.15
11 -0.15
12 0.08
13 -0.14
14 0.14
15 0.14
16 0.78
17 0.3
2 -0.57
27 0.15
28 0.15
3 -0.87
35 0.37
4 -0.73
5 0.36
6 0.5
7 0.5
8 0.5
9 -0.14

>  <PUBCHEM_EFFECTIVE_ROTOR_COUNT>  (1) 
4

>  <PUBCHEM_PHARMACOPHORE_FEATURES>  (1) 
4
1 2 acceptor
1 3 cation
1 4 donor
6 5 9 10 11 12 13 rings

>  <PUBCHEM_HEAVY_ATOM_COUNT>  (1) 
17

>  <PUBCHEM_ATOM_DEF_STEREO_COUNT>  (1) 
0

>  <PUBCHEM_ATOM_UDEF_STEREO_COUNT>  (1) 
0

>  <PUBCHEM_BOND_DEF_STEREO_COUNT>  (1) 
0

>  <PUBCHEM_BOND_UDEF_STEREO_COUNT>  (1) 
0

>  <PUBCHEM_ISOTOPIC_ATOM_COUNT>  (1) 
0

>  <PUBCHEM_COMPONENT_COUNT>  (1) 
1

>  <PUBCHEM_CACTVS_TAUTO_COUNT>  (1) 
2

>  <PUBCHEM_CONFORMER_ID>  (1) 
0000B74800000001

>  <PUBCHEM_MMFF94_ENERGY>  (1) 
88.027

>  <PUBCHEM_FEATURE_SELFOVERLAP>  (1) 
20.297

>  <PUBCHEM_SHAPE_FINGERPRINT>  (1) 
10618630 7 18412545392489067347
10967382 1 18338240491168003568
10989021 7 18410856546844779472
11471102 20 18336265751199548749
11578080 2 17702927189646511185
116883 192 18339643317945057989
11806522 49 18410014329970708828
12251169 10 10015588276755688636
12553582 1 18343295989882553471
12616999 72 18188212129436525815
13083527 12 18263063509991621792
13140716 1 17833827549204846160
13583140 156 14835847192806524195
14178342 30 18124022430517666514
14251717 144 18410576227224775358
14576447 43 18127126592482482743
16945 1 18264502826499755160
18186145 218 17603580829418834257
200 152 18409728460714979188
20281475 54 18342742866792972379
20645477 70 18335982060199399139
20671657 53 18114175298625829240
21296965 67 18413105056945624505
21501502 16 18335709282383899824
21501925 9 18408877430446932160
2255824 54 18124595537889654173
2334 1 17328876898573168784
23388829 49 18411974750512956512
23402539 116 18118407246610987190
23419403 2 17756941815015475952
23526113 38 17895190064858631681
23557571 272 18059288760810253104
23559900 14 17910106911933198970
23598291 2 18129119886535498361
25147074 1 18263094244667263608
2748010 2 18335986368035896220
2871803 45 18409453591566788022
3060560 45 18339929336954846742
31174 14 17275090756652402504
33824 294 18265895937496023728
34934 24 18197214956477986220
4072396 5 18116417319232018176
465052 167 18057893627043033527
7164475 11 18338234860561161901
7364860 26 18270964652025383800
7832392 63 18122351168564680288
81228 2 18120092784202088288

>  <PUBCHEM_SHAPE_MULTIPOLES>  (1) 
328.15
7.32
2.55
1
6.79
0.85
-0.03
-4.27
1.14
-0.58
0.09
-0.36
-0.22
-0.65

>  <PUBCHEM_SHAPE_SELFOVERLAP>  (1) 
672.778

>  <PUBCHEM_SHAPE_VOLUME>  (1) 
191.3

>  <PUBCHEM_COORDINATE_TYPE>  (1) 
2
5
10

$$$$
