46924
     RDKit          3D

 22 23  0  0  0  0  0  0  0  0999 V2000
   -0.7419    1.0928    0.9518 O   0  0  0  0  0  0  0  0  0  0  0  0
    0.1433    0.1178   -0.9526 O   0  0  0  0  0  0  0  0  0  0  0  0
    6.5716   -0.8574   -0.7842 O   0  0  0  0  0  0  0  0  0  0  0  0
   -4.8815   -1.2966    0.1435 N   0  0  0  0  0  0  0  0  0  0  0  0
    1.5066    0.6871    0.8640 N   0  0  0  0  0  0  0  0  0  0  0  0
   -3.9932   -0.0658   -0.0537 C   0  0  0  0  0  0  0  0  0  0  0  0
   -5.1755   -1.9133   -1.2211 C   0  0  0  0  0  0  0  0  0  0  0  0
   -6.1724   -0.8649    0.8338 C   0  0  0  0  0  0  0  0  0  0  0  0
   -4.2112   -2.3593    1.0116 C   0  0  0  0  0  0  0  0  0  0  0  0
   -2.7816   -0.0809    0.5519 C   0  0  0  0  0  0  0  0  0  0  0  0
   -4.4933    0.9349   -0.8177 C   0  0  0  0  0  0  0  0  0  0  0  0
   -1.9721    1.0407    0.3719 C   0  0  0  0  0  0  0  0  0  0  0  0
   -3.6839    2.0564   -0.9976 C   0  0  0  0  0  0  0  0  0  0  0  0
   -2.4233    2.1093   -0.4031 C   0  0  0  0  0  0  0  0  0  0  0  0
    0.3165    0.5787    0.1699 C   0  0  0  0  0  0  0  0  0  0  0  0
    2.7974    0.2931    0.4445 C   0  0  0  0  0  0  0  0  0  0  0  0
    3.8762    0.4868    1.2925 C   0  0  0  0  0  0  0  0  0  0  0  0
    2.9594   -0.2782   -0.8078 C   0  0  0  0  0  0  0  0  0  0  0  0
    5.3289   -0.4773   -0.3801 C   0  0  0  0  0  0  0  0  0  0  0  0
    5.1502    0.0992    0.8775 C   0  0  0  0  0  0  0  0  0  0  0  0
    4.2334   -0.6659   -1.2229 C   0  0  0  0  0  0  0  0  0  0  0  0
    7.6467   -0.6374    0.1278 C   0  0  0  0  0  0  0  0  0  0  0  0
  1 12  1  0
  1 15  1  0
  2 15  2  0
  3 19  1  0
  3 22  1  0
  4  6  1  0
  4  7  1  0
  4  8  1  0
  4  9  1  0
  5 15  1  0
  5 16  1  0
  6 10  2  0
  6 11  1  0
 10 12  1  0
 11 13  2  0
 12 14  2  0
 13 14  1  0
 16 17  2  0
 16 18  1  0
 17 20  1  0
 18 21  2  0
 19 20  2  0
 19 21  1  0
M  CHG  1   4   1
M  END
>  <PUBCHEM_COMPOUND_CID>  (1) 
46924

>  <PUBCHEM_CONFORMER_RMSD>  (1) 
0.8

>  <PUBCHEM_CONFORMER_DIVERSEORDER>  (1) 
1
43
9
36
26
4
44
19
25
45
13
37
28
29
11
2
34
39
35
8
41
40
22
5
24
16
31
21
42
10
15
23
27
12
47
17
33
14
7
46
20
30
38
18
6
32
3

>  <PUBCHEM_MMFF94_PARTIAL_CHARGES>  (1) 
31
1 -0.23
10 -0.15
11 -0.15
12 0.08
13 -0.15
14 -0.15
15 0.78
16 0.12
17 -0.15
18 -0.15
19 0.08
2 -0.57
20 -0.15
21 -0.15
22 0.28
3 -0.36
32 0.15
33 0.15
34 0.15
35 0.15
36 0.37
37 0.15
38 0.15
39 0.15
4 -0.87
40 0.15
5 -0.55
6 0.36
7 0.5
8 0.5
9 0.5

>  <PUBCHEM_EFFECTIVE_ROTOR_COUNT>  (1) 
6

>  <PUBCHEM_PHARMACOPHORE_FEATURES>  (1) 
6
1 2 acceptor
1 3 acceptor
1 4 cation
1 5 donor
6 16 17 18 19 20 21 rings
6 6 10 11 12 13 14 rings

>  <PUBCHEM_HEAVY_ATOM_COUNT>  (1) 
22

>  <PUBCHEM_ATOM_DEF_STEREO_COUNT>  (1) 
0

>  <PUBCHEM_ATOM_UDEF_STEREO_COUNT>  (1) 
0

>  <PUBCHEM_BOND_DEF_STEREO_COUNT>  (1) 
0

>  <PUBCHEM_BOND_UDEF_STEREO_COUNT>  (1) 
0

>  <PUBCHEM_ISOTOPIC_ATOM_COUNT>  (1) 
0

>  <PUBCHEM_COMPONENT_COUNT>  (1) 
1

>  <PUBCHEM_CACTVS_TAUTO_COUNT>  (1) 
2

>  <PUBCHEM_CONFORMER_ID>  (1) 
0000B74C00000001

>  <PUBCHEM_MMFF94_ENERGY>  (1) 
98.8011

>  <PUBCHEM_FEATURE_SELFOVERLAP>  (1) 
30.446

>  <PUBCHEM_SHAPE_FINGERPRINT>  (1) 
10 15 12031785889829111471
10595046 47 17895196584829989652
11089746 13 16732988618036985732
11315181 36 18410858750078898592
11524674 6 17346598586677294287
11545043 162 18343298154493316640
12091667 2 17603590698958586784
12166972 35 18259989284160524068
12236239 1 17022619754247575768
12616971 3 15123785206419057504
13288520 33 18334295375303040441
13402501 40 18131073748631393935
13668630 136 17312825974406731898
13782708 43 18272933791773209526
13941219 33 17632587024349597143
1420 363 17988927764742982678
14251718 22 18334859411693329108
14251757 5 17459199649486701979
14251764 18 14405179582260229648
14294032 229 17678451971114068605
14528608 73 17312825983275955412
14848160 23 18272649039361496216
14849402 71 14045158824157757194
15183329 4 13479127995529853476
15716309 27 18060421326274347026
15880784 105 17489306451314115435
16992828 155 16155385343755244037
17093844 174 17346313770078500145
17780758 139 16774081782682656555
17844677 252 18410859862712948032
17870717 6 18335138683425488047
18222031 100 17822007623307507140
18643901 69 18410013243671277767
18681886 176 18187364350928505672
18927931 339 18334013913232460615
19489759 90 18187082832189641229
200 152 16588022407270212429
21033648 29 17631434726904035784
21054139 6 17894911836977631298
21150785 3 16515689965553525010
21267235 1 18114186371837489115
21307412 95 18263916808973813319
21521721 280 16343414086542867682
21623969 137 17346884446730860526
220451 1 18041279868206361912
2297311 6 18335140895286484577
2303208 19 18060140938209056150
23035841 295 18408045113024456227
23081809 10 17022897913894785960
23198884 109 16805325491558282411
23402539 116 17821445746969263941
23557571 272 18411706452538504477
23559900 14 18188205537026275369
25122255 55 18272379650259720270
300161 21 13551194403194419104
34797466 226 18336273422238343692
3663271 9 12607394486888725846
4073 2 18201723890787099776
465052 167 17846780677338939238
5104073 3 17131274533156153594
5758199 1 14476952394945734734
59755656 215 18408038494770347423
7062679 117 18186521003264719883
7495541 125 18060138769340567248

>  <PUBCHEM_SHAPE_MULTIPOLES>  (1) 
425.18
18.21
1.83
1.21
18.56
0.08
0.06
8
1.21
-3.68
0.16
0.08
0.13
1.16

>  <PUBCHEM_SHAPE_SELFOVERLAP>  (1) 
896.638

>  <PUBCHEM_SHAPE_VOLUME>  (1) 
241.1

>  <PUBCHEM_COORDINATE_TYPE>  (1) 
2
5
10

$$$$
