46942
     RDKit          3D

 14 13  0  0  1  0  0  0  0  0999 V2000
   -0.3442    0.2937   -0.3810 O   0  0  0  0  0  0  0  0  0  0  0  0
   -3.0172   -0.5573    0.0052 N   0  0  0  0  0  0  0  0  0  0  0  0
    3.3214   -0.3314    0.0072 N   0  0  0  0  0  0  0  0  0  0  0  0
   -2.6731    0.8574   -0.2822 C   0  0  0  0  0  0  0  0  0  0  0  0
   -1.2703    1.1924    0.2140 C   0  0  0  0  0  0  0  0  0  0  0  0
    1.9075   -0.5044   -0.5284 C   0  0  0  0  0  0  0  0  0  0  0  0
    0.9666    0.4758    0.1389 C   0  0  0  0  0  0  0  0  0  0  0  0
   -2.9153   -0.8486    1.5087 C   0  0  0  0  0  0  0  0  0  0  0  0
   -4.4502   -0.8719   -0.4459 C   0  0  0  0  0  0  0  0  0  0  0  0
   -2.0653   -1.5102   -0.7309 C   0  0  0  0  0  0  0  0  0  0  0  0
    3.3245   -0.5542    1.5127 C   0  0  0  0  0  0  0  0  0  0  0  0
    4.2428   -1.3443   -0.6573 C   0  0  0  0  0  0  0  0  0  0  0  0
    3.8111    1.0767   -0.2982 C   0  0  0  0  0  0  0  0  0  0  0  0
   -0.8382    2.6264   -0.0628 C   0  0  0  0  0  0  0  0  0  0  0  0
  1  5  1  0
  1  7  1  0
  2  4  1  0
  2  8  1  0
  2  9  1  0
  2 10  1  0
  3  6  1  0
  3 11  1  0
  3 12  1  0
  3 13  1  0
  4  5  1  0
  5 14  1  0
  6  7  1  0
M  CHG  2   2   1   3   1
M  END
>  <PUBCHEM_COMPOUND_CID>  (1) 
46942

>  <PUBCHEM_CONFORMER_RMSD>  (1) 
0.6

>  <PUBCHEM_CONFORMER_DIVERSEORDER>  (1) 
4
14
24
9
5
22
11
23
21
19
2
18
12
15
10
3
20
1
16
7
6
8
13
17

>  <PUBCHEM_MMFF94_PARTIAL_CHARGES>  (1) 
13
1 -0.56
10 0.5
11 0.5
12 0.5
13 0.5
2 -1.01
3 -1.01
4 0.5
5 0.28
6 0.5
7 0.28
8 0.5
9 0.5

>  <PUBCHEM_EFFECTIVE_ROTOR_COUNT>  (1) 
6

>  <PUBCHEM_PHARMACOPHORE_FEATURES>  (1) 
3
1 1 acceptor
1 2 cation
1 3 cation

>  <PUBCHEM_HEAVY_ATOM_COUNT>  (1) 
14

>  <PUBCHEM_ATOM_DEF_STEREO_COUNT>  (1) 
0

>  <PUBCHEM_ATOM_UDEF_STEREO_COUNT>  (1) 
1

>  <PUBCHEM_BOND_DEF_STEREO_COUNT>  (1) 
0

>  <PUBCHEM_BOND_UDEF_STEREO_COUNT>  (1) 
0

>  <PUBCHEM_ISOTOPIC_ATOM_COUNT>  (1) 
0

>  <PUBCHEM_COMPONENT_COUNT>  (1) 
1

>  <PUBCHEM_CACTVS_TAUTO_COUNT>  (1) 
1

>  <PUBCHEM_CONFORMER_ID>  (1) 
0000B75E00000004

>  <PUBCHEM_MMFF94_ENERGY>  (1) 
62.1378

>  <PUBCHEM_FEATURE_SELFOVERLAP>  (1) 
15.223

>  <PUBCHEM_SHAPE_FINGERPRINT>  (1) 
11132069 177 18131062749325182442
11543360 7 15574723529156592094
12032990 46 18412547612849937989
12916754 54 18271248231520063156
12932764 1 17131822149907301764
13296908 3 18413107234499116980
14115302 16 17531253902224208407
14123260 362 9511175308821994130
15309172 13 16200147677338545068
177051 138 18410855447602008126
17834074 16 18200597982343317214
18186145 218 17385444319279373212
19050596 39 18333449816211548128
19107657 162 18260555532163298074
200 152 18113051636396954258
20279233 1 17988920042048951758
20281407 28 18272932730140431010
20281475 54 18202566193644567918
20528008 55 17775279478253416127
20645477 70 18408318887114502478
20671657 53 17458340857637295581
20871998 184 18272933782718811157
20871999 31 18186793661222536173
21061003 4 17418089901618554344
21119208 17 15647048274703309311
22485316 2 17822288019835878907
22854114 59 16988838397486870314
22959321 94 18410002247732196875
23402539 116 18411411791536986797
23402655 69 13767921317034499470
23557571 272 18341619157267145180
23559900 14 18269550555628372756
25610 137 18336270123460782628
26918003 58 17822005441099825242
3286 77 16988839496940586490
5374978 207 18410567401225257352
58051976 100 18189898608591036380
6049 1 17917704657186742464
81228 2 18265063435537959017
9882013 296 17917713530182662452

>  <PUBCHEM_SHAPE_MULTIPOLES>  (1) 
272.28
8.57
1.88
1.08
2.98
1.04
0.45
-3.37
-0.2
-0.49
-0.2
0.11
-0.35
0.04

>  <PUBCHEM_SHAPE_SELFOVERLAP>  (1) 
497.034

>  <PUBCHEM_SHAPE_VOLUME>  (1) 
178.6

>  <PUBCHEM_COORDINATE_TYPE>  (1) 
2
5
10

$$$$
