46944
     RDKit          3D

 22 23  0  0  0  0  0  0  0  0999 V2000
    2.9756   -0.5776   -0.4421 O   0  0  0  0  0  0  0  0  0  0  0  0
    2.3851    1.6255    0.0092 O   0  0  0  0  0  0  0  0  0  0  0  0
   -1.7164   -1.6306   -0.9892 N   0  0  0  0  0  0  0  0  0  0  0  0
    4.4012    1.1222   -1.0225 N   0  0  0  0  0  0  0  0  0  0  0  0
   -2.0966   -0.3068   -1.6494 C   0  0  0  0  0  0  0  0  0  0  0  0
   -0.4781   -1.4986   -0.0992 C   0  0  0  0  0  0  0  0  0  0  0  0
   -2.8916   -2.0881   -0.1300 C   0  0  0  0  0  0  0  0  0  0  0  0
   -1.4228   -2.6439   -2.0920 C   0  0  0  0  0  0  0  0  0  0  0  0
   -2.4088    0.7758   -0.6588 C   0  0  0  0  0  0  0  0  0  0  0  0
    0.6685   -1.0983   -0.6996 C   0  0  0  0  0  0  0  0  0  0  0  0
   -0.6329   -1.7930    1.2140 C   0  0  0  0  0  0  0  0  0  0  0  0
    1.7968   -0.9778    0.1116 C   0  0  0  0  0  0  0  0  0  0  0  0
    0.4954   -1.6725    2.0251 C   0  0  0  0  0  0  0  0  0  0  0  0
    1.7102   -1.2649    1.4740 C   0  0  0  0  0  0  0  0  0  0  0  0
   -3.7130    0.9385   -0.2047 C   0  0  0  0  0  0  0  0  0  0  0  0
   -1.3912    1.6068   -0.2031 C   0  0  0  0  0  0  0  0  0  0  0  0
   -4.0033    1.9448    0.7164 C   0  0  0  0  0  0  0  0  0  0  0  0
   -1.6817    2.6131    0.7181 C   0  0  0  0  0  0  0  0  0  0  0  0
    2.9076   -1.1420    2.3572 C   0  0  0  0  0  0  0  0  0  0  0  0
   -2.9877    2.7821    1.1779 C   0  0  0  0  0  0  0  0  0  0  0  0
    3.1869    0.8142   -0.4444 C   0  0  0  0  0  0  0  0  0  0  0  0
    4.8968    2.4709   -1.1687 C   0  0  0  0  0  0  0  0  0  0  0  0
  1 12  1  0
  1 21  1  0
  2 21  2  0
  3  5  1  0
  3  6  1  0
  3  7  1  0
  3  8  1  0
  4 21  1  0
  4 22  1  0
  5  9  1  0
  6 10  2  0
  6 11  1  0
  9 15  2  0
  9 16  1  0
 10 12  1  0
 11 13  2  0
 12 14  2  0
 13 14  1  0
 14 19  1  0
 15 17  1  0
 16 18  2  0
 17 20  2  0
 18 20  1  0
M  CHG  1   3   1
M  END
>  <PUBCHEM_COMPOUND_CID>  (1) 
46944

>  <PUBCHEM_CONFORMER_RMSD>  (1) 
0.8

>  <PUBCHEM_CONFORMER_DIVERSEORDER>  (1) 
9
42
8
6
54
43
27
12
57
36
40
29
5
25
34
1
7
23
49
50
46
55
32
33
17
11
4
38
35
60
51
20
59
19
18
53
58
31
47
52
26
15
16
13
21
61
30
41
28
48
39
22
24
37
56
2
14
10
44
45
3

>  <PUBCHEM_MMFF94_PARTIAL_CHARGES>  (1) 
31
1 -0.23
10 -0.15
11 -0.15
12 0.08
13 -0.15
14 -0.14
15 -0.15
16 -0.15
17 -0.15
18 -0.15
19 0.14
2 -0.57
20 -0.15
21 0.78
22 0.3
3 -0.87
31 0.15
32 0.15
33 0.15
34 0.15
35 0.15
39 0.15
4 -0.73
40 0.15
41 0.15
42 0.37
5 0.65
6 0.36
7 0.5
8 0.5
9 -0.14

>  <PUBCHEM_EFFECTIVE_ROTOR_COUNT>  (1) 
6

>  <PUBCHEM_PHARMACOPHORE_FEATURES>  (1) 
5
1 2 acceptor
1 3 cation
1 4 donor
6 6 10 11 12 13 14 rings
6 9 15 16 17 18 20 rings

>  <PUBCHEM_HEAVY_ATOM_COUNT>  (1) 
22

>  <PUBCHEM_ATOM_DEF_STEREO_COUNT>  (1) 
0

>  <PUBCHEM_ATOM_UDEF_STEREO_COUNT>  (1) 
0

>  <PUBCHEM_BOND_DEF_STEREO_COUNT>  (1) 
0

>  <PUBCHEM_BOND_UDEF_STEREO_COUNT>  (1) 
0

>  <PUBCHEM_ISOTOPIC_ATOM_COUNT>  (1) 
0

>  <PUBCHEM_COMPONENT_COUNT>  (1) 
1

>  <PUBCHEM_CACTVS_TAUTO_COUNT>  (1) 
2

>  <PUBCHEM_CONFORMER_ID>  (1) 
0000B76000000009

>  <PUBCHEM_MMFF94_ENERGY>  (1) 
85.9571

>  <PUBCHEM_FEATURE_SELFOVERLAP>  (1) 
25.371

>  <PUBCHEM_SHAPE_FINGERPRINT>  (1) 
10165383 225 17345773944308316339
10382601 240 17822294548624051276
11578080 2 17346308332987292912
11582403 64 13554795363214299182
11640471 11 18334848381779398128
12173636 292 18059562547779627669
12633257 1 17389108849917148089
12788726 201 18267294507992610479
13583140 156 17170108141176689517
13965767 371 17333071041174201273
13994607 96 18117300222294067908
14123250 116 18409453625926967892
14142880 1 17968097598195271997
14251764 38 18053376880394624136
14341114 328 18336553703519939153
14713325 29 18199766875753387678
14787075 74 17972043801684161467
14955137 171 17680145167143177602
15342816 4 10954617399318194097
15534591 1 18335990830269189190
16945 1 18058710494782336591
17357990 137 18122894344103445147
17492 54 18411693297238293245
18785283 64 17911252619775920231
19930381 70 16759150701949371805
20510252 161 17172653819927705538
20626108 58 13047671966490790593
20642791 35 18054785345887873745
21524375 3 18338518517143446732
21756936 100 18188220883207804276
21864079 5 18265054634838681132
22849341 161 17825940426297915642
23352939 185 17484812850169993811
23419403 2 16746777893497503811
23557571 272 17487310850140897274
23558518 356 18047475805266014668
23559900 14 17476650772284247141
2637199 183 18196387930507797788
3797600 57 18335432231391835465
38570 142 18116174232873212436
392239 28 17752508678594560619
4340502 62 17604443924788391937
44154327 71 18197779886796738753
469060 322 16082220773377816499
474 4 18187364311777869248
531348 171 18201173139136697510
568465 68 15939218015985778187
5895379 119 18200589203567171320
59755656 520 17894925044128250910
7097593 13 17828185624135151523
7288768 16 17822303421731280832
9981440 41 18191301787956024144

>  <PUBCHEM_SHAPE_MULTIPOLES>  (1) 
431.05
7.35
3.42
1.89
4.98
0.97
0.42
6.17
-1.11
-1.07
-0.03
0.65
-0.96
-2.86

>  <PUBCHEM_SHAPE_SELFOVERLAP>  (1) 
908.664

>  <PUBCHEM_SHAPE_VOLUME>  (1) 
242.7

>  <PUBCHEM_COORDINATE_TYPE>  (1) 
2
5
10

$$$$
