46954
     RDKit          3D

 21 21  0  0  0  0  0  0  0  0999 V2000
   -3.2733    1.5386    0.1478 O   0  0  0  0  0  0  0  0  0  0  0  0
    2.5991    0.2162    0.8914 O   0  0  0  0  0  0  0  0  0  0  0  0
   -1.4009    0.6652   -0.8797 O   0  0  0  0  0  0  0  0  0  0  0  0
    1.9890    1.7250   -0.7690 O   0  0  0  0  0  0  0  0  0  0  0  0
   -1.8226   -1.7338    0.6285 N   0  0  0  0  0  0  0  0  0  0  0  0
    3.5201    2.3162    0.8705 N   0  0  0  0  0  0  0  0  0  0  0  0
   -2.3334   -0.3740    1.1003 C   0  0  0  0  0  0  0  0  0  0  0  0
   -0.3651   -1.6753    0.1648 C   0  0  0  0  0  0  0  0  0  0  0  0
   -2.6920   -2.1878   -0.5408 C   0  0  0  0  0  0  0  0  0  0  0  0
   -1.9275   -2.7120    1.7951 C   0  0  0  0  0  0  0  0  0  0  0  0
    0.4296   -0.7502    0.7544 C   0  0  0  0  0  0  0  0  0  0  0  0
    0.0075   -2.5542   -0.7962 C   0  0  0  0  0  0  0  0  0  0  0  0
   -2.2502    0.6462    0.0007 C   0  0  0  0  0  0  0  0  0  0  0  0
    1.7578   -0.6976    0.3318 C   0  0  0  0  0  0  0  0  0  0  0  0
    2.2109   -1.5732   -0.6549 C   0  0  0  0  0  0  0  0  0  0  0  0
    1.3358   -2.5015   -1.2189 C   0  0  0  0  0  0  0  0  0  0  0  0
    3.6287   -1.5305   -1.1206 C   0  0  0  0  0  0  0  0  0  0  0  0
   -3.3290    2.5786   -0.8339 C   0  0  0  0  0  0  0  0  0  0  0  0
   -4.5095    3.4774   -0.5336 C   0  0  0  0  0  0  0  0  0  0  0  0
    2.6450    1.4602    0.2340 C   0  0  0  0  0  0  0  0  0  0  0  0
    3.7800    3.6665    0.4283 C   0  0  0  0  0  0  0  0  0  0  0  0
  1 13  1  0
  1 18  1  0
  2 14  1  0
  2 20  1  0
  3 13  2  0
  4 20  2  0
  5  7  1  0
  5  8  1  0
  5  9  1  0
  5 10  1  0
  6 20  1  0
  6 21  1  0
  7 13  1  0
  8 11  2  0
  8 12  1  0
 11 14  1  0
 12 16  2  0
 14 15  2  0
 15 16  1  0
 15 17  1  0
 18 19  1  0
M  CHG  1   5   1
M  END
>  <PUBCHEM_COMPOUND_CID>  (1) 
46954

>  <PUBCHEM_CONFORMER_RMSD>  (1) 
0.8

>  <PUBCHEM_CONFORMER_DIVERSEORDER>  (1) 
1
101
72
41
149
56
68
10
53
55
147
30
45
134
121
87
126
133
63
54
120
162
26
146
164
70
141
76
27
137
158
117
35
92
50
60
156
102
86
40
59
64
62
114
159
157
139
73
148
155
165
43
23
44
93
83
110
42
129
100
95
36
61
130
20
48
152
160
166
123
78
135
38
132
118
96
122
18
98
57
74
37
131
161
115
124
32
67
85
125
94
31
11
136
39
144
142
34
51
127
113
58
47
66
6
154
108
89
2
103
33
84
49
151
105
150
163
46
112
3
140
22
97
79
128
91
82
69
25
153
90
104
77
116
80
13
28
15
145
109
21
81
65
24
5
138
29
14
88
71
111
75
7
8
4
19
99
12
17
106
16
9
107
143
52
119

>  <PUBCHEM_MMFF94_PARTIAL_CHARGES>  (1) 
24
1 -0.43
10 0.5
11 -0.15
12 -0.15
13 0.66
14 0.08
15 -0.14
16 -0.15
17 0.14
18 0.28
2 -0.23
20 0.78
21 0.3
3 -0.57
30 0.15
31 0.15
32 0.15
4 -0.57
41 0.37
5 -0.87
6 -0.73
7 0.56
8 0.36
9 0.5

>  <PUBCHEM_EFFECTIVE_ROTOR_COUNT>  (1) 
8

>  <PUBCHEM_PHARMACOPHORE_FEATURES>  (1) 
5
1 3 acceptor
1 4 acceptor
1 5 cation
1 6 donor
6 8 11 12 14 15 16 rings

>  <PUBCHEM_HEAVY_ATOM_COUNT>  (1) 
21

>  <PUBCHEM_ATOM_DEF_STEREO_COUNT>  (1) 
0

>  <PUBCHEM_ATOM_UDEF_STEREO_COUNT>  (1) 
0

>  <PUBCHEM_BOND_DEF_STEREO_COUNT>  (1) 
0

>  <PUBCHEM_BOND_UDEF_STEREO_COUNT>  (1) 
0

>  <PUBCHEM_ISOTOPIC_ATOM_COUNT>  (1) 
0

>  <PUBCHEM_COMPONENT_COUNT>  (1) 
1

>  <PUBCHEM_CACTVS_TAUTO_COUNT>  (1) 
2

>  <PUBCHEM_CONFORMER_ID>  (1) 
0000B76A00000001

>  <PUBCHEM_MMFF94_ENERGY>  (1) 
72.5081

>  <PUBCHEM_FEATURE_SELFOVERLAP>  (1) 
25.371

>  <PUBCHEM_SHAPE_FINGERPRINT>  (1) 
10165383 225 17627532740794203890
10608611 8 18411422816802645810
10670039 82 17974018541980301212
10871710 139 17762337315661193324
11221954 11 18409445894858981265
12730499 353 17757565053909855289
12769317 202 17539403233333161157
13134695 92 17908136582094343390
13140716 1 18410580582390140186
13294875 104 17900814955539930507
14142880 1 18117259557659845037
14251764 38 18338785788695302404
14508225 48 17554630400374036030
14614273 12 17913492621155836802
14648413 74 18412268302748085354
15210252 30 17396157741643248732
15295992 7 18188777115457796147
16945 1 17914340078027203938
17134986 127 18194675978324364655
17980427 23 17909225210227427554
18186145 218 18126847084674490681
18219364 16 18047775718636852705
18981168 100 18412266176765485478
21524375 3 17973163920638941663
22182313 1 18341906224681236278
22289505 5 17689711961580915893
23557571 272 17825118248596990355
23558518 356 18333728044140241839
238 59 18127121983897931159
25 1 17978516334389270103
2748010 2 18341342166304629014
3060560 45 17765985109238319191
350125 39 18270132304295400622
3524813 1 17899980426314357045
474 4 18268700611497012465
57527585 21 18196919179529602389
5939293 188 18122053204991911136
633830 44 18196641901131643221
7808743 9 17751100049190328949
81228 2 17968107455662622555
9862522 239 18125425648105199864
9925002 15 16613927227727943518
9981440 41 18198322113205526544

>  <PUBCHEM_SHAPE_MULTIPOLES>  (1) 
398.73
7.1
4.66
1.25
1.75
3.17
-0.17
7.51
0.75
0.28
0.14
0.08
-0.6
2.47

>  <PUBCHEM_SHAPE_SELFOVERLAP>  (1) 
812.77

>  <PUBCHEM_SHAPE_VOLUME>  (1) 
231.6

>  <PUBCHEM_COORDINATE_TYPE>  (1) 
2
5
10

$$$$
