46957
     RDKit          3D

 18 18  0  0  0  0  0  0  0  0999 V2000
    2.3534   -0.0043   -0.7978 O   0  0  0  0  0  0  0  0  0  0  0  0
    2.6740    0.3074    1.4726 O   0  0  0  0  0  0  0  0  0  0  0  0
   -3.1728    0.0329    0.1024 N   0  0  0  0  0  0  0  0  0  0  0  0
    4.5335    0.1565    0.0836 N   0  0  0  0  0  0  0  0  0  0  0  0
   -3.7471    1.4452    0.0118 C   0  0  0  0  0  0  0  0  0  0  0  0
   -1.6619    0.0059   -0.1412 C   0  0  0  0  0  0  0  0  0  0  0  0
   -3.4537   -0.5058    1.5023 C   0  0  0  0  0  0  0  0  0  0  0  0
   -3.8565   -0.8263   -0.9575 C   0  0  0  0  0  0  0  0  0  0  0  0
   -1.0320   -1.1918   -0.0796 C   0  0  0  0  0  0  0  0  0  0  0  0
   -5.2426    1.3902    0.2346 C   0  0  0  0  0  0  0  0  0  0  0  0
   -1.0777    1.2022   -0.4016 C   0  0  0  0  0  0  0  0  0  0  0  0
    0.3446   -1.1959   -0.3046 C   0  0  0  0  0  0  0  0  0  0  0  0
    0.2989    1.1981   -0.6267 C   0  0  0  0  0  0  0  0  0  0  0  0
   -1.7213   -2.4847    0.2113 C   0  0  0  0  0  0  0  0  0  0  0  0
    1.0101   -0.0008   -0.5781 C   0  0  0  0  0  0  0  0  0  0  0  0
    3.1600    0.1659    0.3509 C   0  0  0  0  0  0  0  0  0  0  0  0
    5.4912    0.3210    1.1679 C   0  0  0  0  0  0  0  0  0  0  0  0
    5.0998   -0.0157   -1.2502 C   0  0  0  0  0  0  0  0  0  0  0  0
  1 15  1  0
  1 16  1  0
  2 16  2  0
  3  5  1  0
  3  6  1  0
  3  7  1  0
  3  8  1  0
  4 16  1  0
  4 17  1  0
  4 18  1  0
  5 10  1  0
  6  9  2  0
  6 11  1  0
  9 12  1  0
  9 14  1  0
 11 13  2  0
 12 15  2  0
 13 15  1  0
M  CHG  1   3   1
M  END
>  <PUBCHEM_COMPOUND_CID>  (1) 
46957

>  <PUBCHEM_CONFORMER_RMSD>  (1) 
0.6

>  <PUBCHEM_CONFORMER_DIVERSEORDER>  (1) 
14
45
20
63
23
10
5
64
16
17
54
8
59
62
48
61
57
27
24
7
26
52
58
19
30
9
28
60
18
25
6
31
55
11
53
15
65
34
40
44
2
22
12
3
56
50
42
46
43
51
21
47
39
4
41
1
49
32
36
29
33
35
37
38
13

>  <PUBCHEM_MMFF94_PARTIAL_CHARGES>  (1) 
20
1 -0.23
11 -0.15
12 -0.15
13 -0.15
14 0.14
15 0.08
16 0.78
17 0.3
18 0.3
2 -0.57
3 -0.87
30 0.15
31 0.15
32 0.15
4 -0.66
5 0.5
6 0.36
7 0.5
8 0.5
9 -0.14

>  <PUBCHEM_EFFECTIVE_ROTOR_COUNT>  (1) 
5

>  <PUBCHEM_PHARMACOPHORE_FEATURES>  (1) 
3
1 2 acceptor
1 3 cation
6 6 9 11 12 13 15 rings

>  <PUBCHEM_HEAVY_ATOM_COUNT>  (1) 
18

>  <PUBCHEM_ATOM_DEF_STEREO_COUNT>  (1) 
0

>  <PUBCHEM_ATOM_UDEF_STEREO_COUNT>  (1) 
0

>  <PUBCHEM_BOND_DEF_STEREO_COUNT>  (1) 
0

>  <PUBCHEM_BOND_UDEF_STEREO_COUNT>  (1) 
0

>  <PUBCHEM_ISOTOPIC_ATOM_COUNT>  (1) 
0

>  <PUBCHEM_COMPONENT_COUNT>  (1) 
1

>  <PUBCHEM_CACTVS_TAUTO_COUNT>  (1) 
1

>  <PUBCHEM_CONFORMER_ID>  (1) 
0000B76D0000000E

>  <PUBCHEM_MMFF94_ENERGY>  (1) 
93.7896

>  <PUBCHEM_FEATURE_SELFOVERLAP>  (1) 
15.223

>  <PUBCHEM_SHAPE_FINGERPRINT>  (1) 
10014705 185 18131630105793691169
11132069 177 18341897389379523149
11401426 45 18413105052756067997
12119455 92 17275383192369724020
12236239 1 17530971297987369908
12251169 10 18335138713057859356
12390115 104 18126859204803915049
12403259 415 17917992810341401321
124424 183 17603300475370559191
12500047 106 18342736334000301218
12507557 5 16702015413419745465
12596602 18 16805332088818524977
12616971 3 16805316722021060422
13140716 1 18190466141374854025
13214271 11 18409169909425306063
13675066 3 18333736822873916818
13760787 19 16950570994814820955
13760787 5 17240480321238422390
15209294 21 18200880573895369761
15375358 24 18272373074717180262
15375462 189 17385997399688098888
16945 1 18337118946700923095
17804303 29 18410577322415107564
1813 80 16298671586273993382
18186145 218 17417818330915302283
19784866 170 18260835856056747943
200 152 14201113505547490988
20300324 65 9871752403145542642
20600515 1 18409175427973459324
20645477 70 14779530276220294536
20681677 155 18259989301302904674
212916 134 18340756075093628731
21637258 2 14490475322140406777
22854114 59 17846214471193541880
23366157 5 17607810813749578116
23402539 116 18343013393913921901
23557571 272 17560802164961159447
23559900 14 18342470209964486638
26918003 58 16515397474064782504
2748010 2 18119254956731801335
2838139 119 15697449801773750097
351380 180 17346876754054095096
5104073 3 18113903822407369872
542803 24 17748548143206296940

>  <PUBCHEM_SHAPE_MULTIPOLES>  (1) 
348.73
10.97
1.6
1.15
8.58
0.6
-0.23
-2.91
-1.51
-1.88
0.02
0.61
0.03
0.1

>  <PUBCHEM_SHAPE_SELFOVERLAP>  (1) 
708.123

>  <PUBCHEM_SHAPE_VOLUME>  (1) 
206.4

>  <PUBCHEM_COORDINATE_TYPE>  (1) 
2
5
10

$$$$
