46959
     RDKit          3D

 17 17  0  0  0  0  0  0  0  0999 V2000
    2.6196   -0.0064    0.9588 O   0  0  0  0  0  0  0  0  0  0  0  0
    3.0322   -0.3001   -1.3105 O   0  0  0  0  0  0  0  0  0  0  0  0
   -2.8689   -0.0308   -0.1483 N   0  0  0  0  0  0  0  0  0  0  0  0
    4.7818   -0.1532    0.2058 N   0  0  0  0  0  0  0  0  0  0  0  0
   -3.4467   -1.4435   -0.0930 C   0  0  0  0  0  0  0  0  0  0  0  0
   -1.3682   -0.0074    0.1520 C   0  0  0  0  0  0  0  0  0  0  0  0
   -3.0970    0.5215   -1.5525 C   0  0  0  0  0  0  0  0  0  0  0  0
   -3.5916    0.8186    0.8934 C   0  0  0  0  0  0  0  0  0  0  0  0
   -0.7360    1.1904    0.1256 C   0  0  0  0  0  0  0  0  0  0  0  0
   -4.9329   -1.3853   -0.3712 C   0  0  0  0  0  0  0  0  0  0  0  0
   -0.7946   -1.2065    0.4226 C   0  0  0  0  0  0  0  0  0  0  0  0
    0.6312    1.1913    0.4022 C   0  0  0  0  0  0  0  0  0  0  0  0
   -1.4134    2.4865   -0.1784 C   0  0  0  0  0  0  0  0  0  0  0  0
    0.5725   -1.2057    0.6992 C   0  0  0  0  0  0  0  0  0  0  0  0
    1.2855   -0.0069    0.6889 C   0  0  0  0  0  0  0  0  0  0  0  0
    3.4530   -0.1663   -0.1652 C   0  0  0  0  0  0  0  0  0  0  0  0
    5.8734   -0.2962   -0.7293 C   0  0  0  0  0  0  0  0  0  0  0  0
  1 15  1  0
  1 16  1  0
  2 16  2  0
  3  5  1  0
  3  6  1  0
  3  7  1  0
  3  8  1  0
  4 16  1  0
  4 17  1  0
  5 10  1  0
  6  9  2  0
  6 11  1  0
  9 12  1  0
  9 13  1  0
 11 14  2  0
 12 15  2  0
 14 15  1  0
M  CHG  1   3   1
M  END
>  <PUBCHEM_COMPOUND_CID>  (1) 
46959

>  <PUBCHEM_CONFORMER_RMSD>  (1) 
0.6

>  <PUBCHEM_CONFORMER_DIVERSEORDER>  (1) 
16
40
18
39
14
37
45
17
8
22
27
30
28
38
19
54
44
10
43
50
21
7
13
36
6
9
55
52
48
23
34
5
41
4
29
49
33
32
2
35
42
20
24
51
11
12
53
47
31
25
3
1
26
46
15

>  <PUBCHEM_MMFF94_PARTIAL_CHARGES>  (1) 
20
1 -0.23
11 -0.15
12 -0.15
13 0.14
14 -0.15
15 0.08
16 0.78
17 0.3
2 -0.57
29 0.15
3 -0.87
30 0.15
34 0.15
35 0.37
4 -0.73
5 0.5
6 0.36
7 0.5
8 0.5
9 -0.14

>  <PUBCHEM_EFFECTIVE_ROTOR_COUNT>  (1) 
5

>  <PUBCHEM_PHARMACOPHORE_FEATURES>  (1) 
4
1 2 acceptor
1 3 cation
1 4 donor
6 6 9 11 12 14 15 rings

>  <PUBCHEM_HEAVY_ATOM_COUNT>  (1) 
17

>  <PUBCHEM_ATOM_DEF_STEREO_COUNT>  (1) 
0

>  <PUBCHEM_ATOM_UDEF_STEREO_COUNT>  (1) 
0

>  <PUBCHEM_BOND_DEF_STEREO_COUNT>  (1) 
0

>  <PUBCHEM_BOND_UDEF_STEREO_COUNT>  (1) 
0

>  <PUBCHEM_ISOTOPIC_ATOM_COUNT>  (1) 
0

>  <PUBCHEM_COMPONENT_COUNT>  (1) 
1

>  <PUBCHEM_CACTVS_TAUTO_COUNT>  (1) 
2

>  <PUBCHEM_CONFORMER_ID>  (1) 
0000B76F00000010

>  <PUBCHEM_MMFF94_ENERGY>  (1) 
86.402

>  <PUBCHEM_FEATURE_SELFOVERLAP>  (1) 
20.297

>  <PUBCHEM_SHAPE_FINGERPRINT>  (1) 
11543360 7 15719669952645146171
11680986 33 17975975689566525673
12032990 46 18340204193386966907
12236239 1 17603301540812625026
12251169 10 12103566407100240291
12507557 5 14490479702732586214
12670546 177 18260551172760657630
13288520 33 18131354111290117807
13760787 5 17821447945607261283
13862211 1 18409441514003220378
14350574 20 18339361967358887971
14911166 2 18333729147598612315
14993402 34 17458343060929040342
16945 1 18337379462078999753
18186145 218 18409160026157198152
187816 3 18113619005713682187
19141452 34 17632014260243177407
200 152 17603584127415673424
20281475 54 18411695448373070514
20300324 65 18408888421278941172
20645476 183 17385442146005251554
20871999 31 18114453514165435045
21267235 1 18339365266542747811
212916 134 8574437478286567429
21501502 16 18119803612648972083
21637258 2 16702010998393974591
22094290 60 18412263921802036313
2297311 6 18343310262211605260
23402539 116 18409728443941337564
23557571 272 18342744004779873300
23559900 14 18411419532186360000
26918003 58 14620796002657870174
2748010 2 18120364612871844281
2838139 119 15213010557532602406
3286 77 17489022768391632601
4990 188 18272936015975204126
7364860 26 18055912353479885441

>  <PUBCHEM_SHAPE_MULTIPOLES>  (1) 
328.15
9.83
1.67
1.05
9.76
0.64
-0.23
-3.06
-2.6
-1.65
0.03
-0.08
0.04
-0.03

>  <PUBCHEM_SHAPE_SELFOVERLAP>  (1) 
668.741

>  <PUBCHEM_SHAPE_VOLUME>  (1) 
192.7

>  <PUBCHEM_COORDINATE_TYPE>  (1) 
2
5
10

$$$$
