46964
     RDKit          3D

 16 16  0  0  0  0  0  0  0  0999 V2000
   -2.5245   -0.1156   -0.0003 O   0  0  0  0  0  0  0  0  0  0  0  0
   -4.4330    1.1618    0.0215 O   0  0  0  0  0  0  0  0  0  0  0  0
    3.8138   -0.3587   -0.0065 N   0  0  0  0  0  0  0  0  0  0  0  0
   -4.5229   -1.1561   -0.0166 N   0  0  0  0  0  0  0  0  0  0  0  0
    2.3313    0.0222    0.0004 C   0  0  0  0  0  0  0  0  0  0  0  0
    4.6002    0.7430   -0.7112 C   0  0  0  0  0  0  0  0  0  0  0  0
    3.9750   -1.6910   -0.7332 C   0  0  0  0  0  0  0  0  0  0  0  0
    4.3760   -0.5164    1.4048 C   0  0  0  0  0  0  0  0  0  0  0  0
    1.7372    0.1947   -1.2047 C   0  0  0  0  0  0  0  0  0  0  0  0
    1.7381    0.1546    1.2111 C   0  0  0  0  0  0  0  0  0  0  0  0
   -0.2888    0.6954    0.0123 C   0  0  0  0  0  0  0  0  0  0  0  0
    0.3863    0.5419   -1.1984 C   0  0  0  0  0  0  0  0  0  0  0  0
    0.3871    0.5017    1.2172 C   0  0  0  0  0  0  0  0  0  0  0  0
   -1.7331    1.0662    0.0190 C   0  0  0  0  0  0  0  0  0  0  0  0
   -3.8832    0.0654    0.0032 C   0  0  0  0  0  0  0  0  0  0  0  0
   -5.9595   -1.3092   -0.0186 C   0  0  0  0  0  0  0  0  0  0  0  0
  1 14  1  0
  1 15  1  0
  2 15  2  0
  3  5  1  0
  3  6  1  0
  3  7  1  0
  3  8  1  0
  4 15  1  0
  4 16  1  0
  5  9  2  0
  5 10  1  0
  9 12  1  0
 10 13  2  0
 11 12  2  0
 11 13  1  0
 11 14  1  0
M  CHG  1   3   1
M  END
>  <PUBCHEM_COMPOUND_CID>  (1) 
46964

>  <PUBCHEM_CONFORMER_RMSD>  (1) 
0.6

>  <PUBCHEM_CONFORMER_DIVERSEORDER>  (1) 
1
18
10
5
16
15
8
2
14
7
17
9
19
6
4
3
13
11
12

>  <PUBCHEM_MMFF94_PARTIAL_CHARGES>  (1) 
21
1 -0.43
10 -0.15
11 -0.14
12 -0.15
13 -0.15
14 0.42
15 0.78
16 0.3
2 -0.57
26 0.15
27 0.15
28 0.15
29 0.15
3 -0.87
32 0.37
4 -0.73
5 0.36
6 0.5
7 0.5
8 0.5
9 -0.15

>  <PUBCHEM_EFFECTIVE_ROTOR_COUNT>  (1) 
5

>  <PUBCHEM_PHARMACOPHORE_FEATURES>  (1) 
4
1 2 acceptor
1 3 cation
1 4 donor
6 5 9 10 11 12 13 rings

>  <PUBCHEM_HEAVY_ATOM_COUNT>  (1) 
16

>  <PUBCHEM_ATOM_DEF_STEREO_COUNT>  (1) 
0

>  <PUBCHEM_ATOM_UDEF_STEREO_COUNT>  (1) 
0

>  <PUBCHEM_BOND_DEF_STEREO_COUNT>  (1) 
0

>  <PUBCHEM_BOND_UDEF_STEREO_COUNT>  (1) 
0

>  <PUBCHEM_ISOTOPIC_ATOM_COUNT>  (1) 
0

>  <PUBCHEM_COMPONENT_COUNT>  (1) 
1

>  <PUBCHEM_CACTVS_TAUTO_COUNT>  (1) 
2

>  <PUBCHEM_CONFORMER_ID>  (1) 
0000B77400000001

>  <PUBCHEM_MMFF94_ENERGY>  (1) 
52.4909

>  <PUBCHEM_FEATURE_SELFOVERLAP>  (1) 
20.297

>  <PUBCHEM_SHAPE_FINGERPRINT>  (1) 
10354089 29 13901913327697466343
10498660 4 7853316232154973823
10912923 1 18260270732807982337
11401426 45 15791731927402009764
11471102 20 15502375625636812208
11796584 16 18269837532115830903
12236239 1 17821446850970966149
12251169 10 15841551894663001037
12596602 18 14908179789606745111
13675066 3 17561359565252494165
13760787 5 15575001624120647812
14123238 8 18186522119950968085
14251718 22 18408324414436497996
14252887 29 16415488137850735118
14576447 43 17385720326820894507
14911166 2 15647060352203891784
14993402 34 17022905644265887994
15848700 24 16660645142158892308
16945 1 15482380938377835084
17834072 33 18334577979181053381
18186145 218 15864075394616211805
18785283 64 17559377266289773112
200 152 17313101951930519229
20645477 70 16950278477915217986
21256008 61 17603586352251125805
212847 35 10664102255389658454
21637258 2 18335127683408049218
221357 26 15285627812270001671
22485316 2 18272650130019451855
22854114 59 15985099704341772584
23402539 116 18040992925910389101
23402655 69 14996275921193369951
23557571 272 17987525805386785788
23559900 14 18271811185926577590
2871803 45 15430027743080204932
2916195 48 8574417708483772439
29717793 49 18186237342756375831
3060560 45 16153425064851469906
33382 64 18343027652978978298
4340502 62 18272644667480726850
465052 167 17418099819024952070
4990 188 17967253078807527082
5104073 3 17060061372095044802
7495541 125 18272930561213959040

>  <PUBCHEM_SHAPE_MULTIPOLES>  (1) 
307.57
11.73
1.24
1.19
12.08
0.33
0.14
4.57
-0.09
0.38
-0.15
-1.25
-0.02
-0.1

>  <PUBCHEM_SHAPE_SELFOVERLAP>  (1) 
621.51

>  <PUBCHEM_SHAPE_VOLUME>  (1) 
183.2

>  <PUBCHEM_COORDINATE_TYPE>  (1) 
2
5
10

$$$$
