46961
     RDKit          3D

 18 18  0  0  0  0  0  0  0  0999 V2000
   -5.1250    0.8093    1.0221 O   0  0  0  0  0  0  0  0  0  0  0  0
    2.2165    0.1372    0.9680 O   0  0  0  0  0  0  0  0  0  0  0  0
    2.9912   -0.5972   -1.0976 O   0  0  0  0  0  0  0  0  0  0  0  0
   -2.2575   -1.1557   -0.3488 N   0  0  0  0  0  0  0  0  0  0  0  0
    4.3391   -0.7115    0.7872 N   0  0  0  0  0  0  0  0  0  0  0  0
   -3.6454   -0.5188   -0.3227 C   0  0  0  0  0  0  0  0  0  0  0  0
   -1.1403   -0.1115   -0.2822 C   0  0  0  0  0  0  0  0  0  0  0  0
   -2.1364   -2.0814    0.8583 C   0  0  0  0  0  0  0  0  0  0  0  0
   -2.1196   -1.9401   -1.6506 C   0  0  0  0  0  0  0  0  0  0  0  0
   -3.8217    0.2439    0.9756 C   0  0  0  0  0  0  0  0  0  0  0  0
    0.0152   -0.4873    0.3167 C   0  0  0  0  0  0  0  0  0  0  0  0
   -1.4009    1.1006   -0.8280 C   0  0  0  0  0  0  0  0  0  0  0  0
    1.0333    0.4643    0.3770 C   0  0  0  0  0  0  0  0  0  0  0  0
    0.8343    1.7340   -0.1653 C   0  0  0  0  0  0  0  0  0  0  0  0
   -0.3830    2.0521   -0.7678 C   0  0  0  0  0  0  0  0  0  0  0  0
    1.9125    2.7651   -0.1093 C   0  0  0  0  0  0  0  0  0  0  0  0
    3.1797   -0.4136    0.1014 C   0  0  0  0  0  0  0  0  0  0  0  0
    5.5082   -1.2892    0.1660 C   0  0  0  0  0  0  0  0  0  0  0  0
  1 10  1  0
  2 13  1  0
  2 17  1  0
  3 17  2  0
  4  6  1  0
  4  7  1  0
  4  8  1  0
  4  9  1  0
  5 17  1  0
  5 18  1  0
  6 10  1  0
  7 11  2  0
  7 12  1  0
 11 13  1  0
 12 15  2  0
 13 14  2  0
 14 15  1  0
 14 16  1  0
M  CHG  1   4   1
M  END
>  <PUBCHEM_COMPOUND_CID>  (1) 
46961

>  <PUBCHEM_CONFORMER_RMSD>  (1) 
0.8

>  <PUBCHEM_CONFORMER_DIVERSEORDER>  (1) 
29
50
17
23
42
55
15
38
12
28
24
32
46
53
11
51
34
36
41
40
31
44
2
37
27
16
9
54
33
49
35
22
10
14
39
5
52
30
19
48
7
4
43
18
47
1
26
21
6
3
20
25
45
13
8

>  <PUBCHEM_MMFF94_PARTIAL_CHARGES>  (1) 
23
1 -0.68
10 0.28
11 -0.15
12 -0.15
13 0.08
14 -0.14
15 -0.15
16 0.14
17 0.78
18 0.3
2 -0.23
29 0.15
3 -0.57
30 0.15
31 0.15
35 0.4
36 0.37
4 -0.87
5 -0.73
6 0.5
7 0.36
8 0.5
9 0.5

>  <PUBCHEM_EFFECTIVE_ROTOR_COUNT>  (1) 
6

>  <PUBCHEM_PHARMACOPHORE_FEATURES>  (1) 
6
1 1 acceptor
1 1 donor
1 3 acceptor
1 4 cation
1 5 donor
6 7 11 12 13 14 15 rings

>  <PUBCHEM_HEAVY_ATOM_COUNT>  (1) 
18

>  <PUBCHEM_ATOM_DEF_STEREO_COUNT>  (1) 
0

>  <PUBCHEM_ATOM_UDEF_STEREO_COUNT>  (1) 
0

>  <PUBCHEM_BOND_DEF_STEREO_COUNT>  (1) 
0

>  <PUBCHEM_BOND_UDEF_STEREO_COUNT>  (1) 
0

>  <PUBCHEM_ISOTOPIC_ATOM_COUNT>  (1) 
0

>  <PUBCHEM_COMPONENT_COUNT>  (1) 
1

>  <PUBCHEM_CACTVS_TAUTO_COUNT>  (1) 
2

>  <PUBCHEM_CONFORMER_ID>  (1) 
0000B7710000001D

>  <PUBCHEM_MMFF94_ENERGY>  (1) 
71.135

>  <PUBCHEM_FEATURE_SELFOVERLAP>  (1) 
30.446

>  <PUBCHEM_SHAPE_FINGERPRINT>  (1) 
12251169 10 18413672409287912593
12553582 1 18188194443004125506
12932764 1 16806429461625901283
13140716 1 18337675325090455561
13533116 47 18196087974851548699
14115302 16 17530689818246498542
14178342 30 17759799638603094217
14739800 52 17416963031044452424
15042514 8 18047187450020318584
15375462 189 18040429975640255474
15442244 35 18339080496751049641
15527383 91 18408609170852911305
16752209 62 17969761034987291717
16945 1 18188475939460739089
17804303 29 18408325492668461557
1813 80 18260839171950874988
18186145 218 17386275605672535498
18511873 20 18343586256857467121
19141452 34 18131067129991637431
19422 9 18268147733209842527
20281475 54 18335701701665927942
204376 136 10663815308529387858
20645477 70 18118947325135453471
20871999 31 18187917327535219364
21029758 27 17967535648916742740
21041028 32 18409170999799119961
21501502 16 18197777902178722893
23184049 59 18411141350848353889
23402539 116 18261383422017732630
23493267 7 15791995750337297685
23557571 272 18341615846548479460
23559900 14 18193259825245180890
23566358 27 17897175825370432293
23598291 2 18269829990110788623
23622692 88 18343588425789772569
2748010 2 17970895885405577693
312423 11 18265334104418878175
328317 168 9871744693615819475
3286 77 17416670531023010323
5104073 3 18340487871381149339
53777708 50 18126001817550980007
6992083 37 18271811258872378301
7364860 26 18196085766948428904
74978 22 18263363762407153131
81228 2 18267032660979032168
83771 10 18410288112534456748

>  <PUBCHEM_SHAPE_MULTIPOLES>  (1) 
342.86
8.58
2.33
1.13
4.44
0.91
-0.18
-3.48
2.19
0.37
-0.37
-0.66
-0.29
-0.52

>  <PUBCHEM_SHAPE_SELFOVERLAP>  (1) 
697.343

>  <PUBCHEM_SHAPE_VOLUME>  (1) 
200.3

>  <PUBCHEM_COORDINATE_TYPE>  (1) 
2
5
10

$$$$
