46975
     RDKit          3D

 17 17  0  0  0  0  0  0  0  0999 V2000
    1.8735   -0.0507    0.7779 O   0  0  0  0  0  0  0  0  0  0  0  0
    2.2210    0.5596   -1.4268 O   0  0  0  0  0  0  0  0  0  0  0  0
   -3.6409    0.1711   -0.1634 N   0  0  0  0  0  0  0  0  0  0  0  0
    4.0632    0.2136   -0.0498 N   0  0  0  0  0  0  0  0  0  0  0  0
   -2.1335    0.1053    0.0939 C   0  0  0  0  0  0  0  0  0  0  0  0
   -3.9095    1.2171   -1.2416 C   0  0  0  0  0  0  0  0  0  0  0  0
   -4.3456    0.5404    1.1391 C   0  0  0  0  0  0  0  0  0  0  0  0
   -4.2032   -1.1645   -0.6455 C   0  0  0  0  0  0  0  0  0  0  0  0
   -1.5252   -1.0852   -0.1253 C   0  0  0  0  0  0  0  0  0  0  0  0
   -1.5338    1.2435    0.5180 C   0  0  0  0  0  0  0  0  0  0  0  0
   -0.1512   -1.1446    0.1074 C   0  0  0  0  0  0  0  0  0  0  0  0
    0.5317   -0.0099    0.5455 C   0  0  0  0  0  0  0  0  0  0  0  0
   -0.1596    1.1841    0.7510 C   0  0  0  0  0  0  0  0  0  0  0  0
    0.5728   -2.4310   -0.1175 C   0  0  0  0  0  0  0  0  0  0  0  0
    2.6931    0.2668   -0.3288 C   0  0  0  0  0  0  0  0  0  0  0  0
    5.0344    0.5159   -1.0916 C   0  0  0  0  0  0  0  0  0  0  0  0
    4.6128   -0.1314    1.2573 C   0  0  0  0  0  0  0  0  0  0  0  0
  1 12  1  0
  1 15  1  0
  2 15  2  0
  3  5  1  0
  3  6  1  0
  3  7  1  0
  3  8  1  0
  4 15  1  0
  4 16  1  0
  4 17  1  0
  5  9  2  0
  5 10  1  0
  9 11  1  0
 10 13  2  0
 11 12  2  0
 11 14  1  0
 12 13  1  0
M  CHG  1   3   1
M  END
>  <PUBCHEM_COMPOUND_CID>  (1) 
46975

>  <PUBCHEM_CONFORMER_RMSD>  (1) 
0.6

>  <PUBCHEM_CONFORMER_DIVERSEORDER>  (1) 
1
24
20
16
17
23
15
6
19
21
8
18
10
5
14
7
2
13
22
3
9
12
4
11

>  <PUBCHEM_MMFF94_PARTIAL_CHARGES>  (1) 
20
1 -0.23
10 -0.15
11 -0.14
12 0.08
13 -0.15
14 0.14
15 0.78
16 0.3
17 0.3
2 -0.57
27 0.15
28 0.15
29 0.15
3 -0.87
4 -0.66
5 0.36
6 0.5
7 0.5
8 0.5
9 -0.15

>  <PUBCHEM_EFFECTIVE_ROTOR_COUNT>  (1) 
4

>  <PUBCHEM_PHARMACOPHORE_FEATURES>  (1) 
3
1 2 acceptor
1 3 cation
6 5 9 10 11 12 13 rings

>  <PUBCHEM_HEAVY_ATOM_COUNT>  (1) 
17

>  <PUBCHEM_ATOM_DEF_STEREO_COUNT>  (1) 
0

>  <PUBCHEM_ATOM_UDEF_STEREO_COUNT>  (1) 
0

>  <PUBCHEM_BOND_DEF_STEREO_COUNT>  (1) 
0

>  <PUBCHEM_BOND_UDEF_STEREO_COUNT>  (1) 
0

>  <PUBCHEM_ISOTOPIC_ATOM_COUNT>  (1) 
0

>  <PUBCHEM_COMPONENT_COUNT>  (1) 
1

>  <PUBCHEM_CACTVS_TAUTO_COUNT>  (1) 
1

>  <PUBCHEM_CONFORMER_ID>  (1) 
0000B77F00000001

>  <PUBCHEM_MMFF94_ENERGY>  (1) 
69.6583

>  <PUBCHEM_FEATURE_SELFOVERLAP>  (1) 
15.223

>  <PUBCHEM_SHAPE_FINGERPRINT>  (1) 
11132069 177 18413387627012187219
11401426 45 18273207599631598249
12119455 92 15357689803615682714
12236239 1 18040991843931798618
12251169 10 11314312767100051238
12403814 3 17967532372478882797
12507557 5 16298390192658802053
12592029 89 17967816016076740986
12670546 56 16515672338949810844
13533116 47 18060136484966864618
13675066 3 17967248706725992296
14911166 2 18272366486300638453
14943859 89 18412544322931486458
14993402 34 18333734632630500036
15375358 24 17346878966130797414
15536298 74 18201159832669156878
16945 1 18271799104183567513
18186145 218 18272366494616494001
187816 3 18202569483826919504
19026448 4 15791729693966093203
200 152 17675922101240226737
20645476 183 18041562545737251658
20645477 70 15769784533414660052
22485316 2 15051733075183767461
22854114 59 14273454795002160308
23114952 82 18047743798466386783
23366157 5 17973168322674828938
23402539 116 18060418006301680476
23402655 69 18342735166201564109
23493267 7 17894625942394819889
23557571 272 17774735258525915358
23559900 14 18131073762417726028
265663 24 17458059369838752482
2748010 2 18054496178640255177
2838139 119 16951386768308526061
3286 77 15357704118826030612
4990 188 17561367279040034166
633830 44 17775281672849991625
69090 78 17275381019221832134
81539 233 18187926132060258098
8272917 22 17095797703516174698

>  <PUBCHEM_SHAPE_MULTIPOLES>  (1) 
328.15
9.63
1.54
1.17
4.53
0.8
0.12
-1.77
1.22
-0.71
0.07
0.29
-0.28
-0.35

>  <PUBCHEM_SHAPE_SELFOVERLAP>  (1) 
666.119

>  <PUBCHEM_SHAPE_VOLUME>  (1) 
194.3

>  <PUBCHEM_COORDINATE_TYPE>  (1) 
2
5
10

$$$$
