46987
     RDKit          3D

 18 18  0  0  0  0  0  0  0  0999 V2000
    2.5550    0.0349    0.9006 O   0  0  0  0  0  0  0  0  0  0  0  0
    2.9553    0.1268   -1.3880 O   0  0  0  0  0  0  0  0  0  0  0  0
   -2.9419    0.0800   -0.1698 N   0  0  0  0  0  0  0  0  0  0  0  0
    4.7129    0.0784    0.1256 N   0  0  0  0  0  0  0  0  0  0  0  0
   -1.4396    0.0792    0.1231 C   0  0  0  0  0  0  0  0  0  0  0  0
   -3.4966   -1.3321   -0.3455 C   0  0  0  0  0  0  0  0  0  0  0  0
   -3.1893    0.8523   -1.4625 C   0  0  0  0  0  0  0  0  0  0  0  0
   -3.6702    0.7338    1.0012 C   0  0  0  0  0  0  0  0  0  0  0  0
   -0.8272    1.2757    0.2911 C   0  0  0  0  0  0  0  0  0  0  0  0
   -0.8443   -1.1380    0.1896 C   0  0  0  0  0  0  0  0  0  0  0  0
   -4.9856   -1.2540   -0.6032 C   0  0  0  0  0  0  0  0  0  0  0  0
    0.5248   -1.1589    0.4554 C   0  0  0  0  0  0  0  0  0  0  0  0
    0.5421    1.2550    0.5569 C   0  0  0  0  0  0  0  0  0  0  0  0
    1.2181    0.0376    0.6389 C   0  0  0  0  0  0  0  0  0  0  0  0
   -1.5282    2.5922    0.2082 C   0  0  0  0  0  0  0  0  0  0  0  0
    1.2325   -2.4710    0.5403 C   0  0  0  0  0  0  0  0  0  0  0  0
    3.3820    0.0853   -0.2377 C   0  0  0  0  0  0  0  0  0  0  0  0
    5.8002    0.1228   -0.8242 C   0  0  0  0  0  0  0  0  0  0  0  0
  1 14  1  0
  1 17  1  0
  2 17  2  0
  3  5  1  0
  3  6  1  0
  3  7  1  0
  3  8  1  0
  4 17  1  0
  4 18  1  0
  5  9  2  0
  5 10  1  0
  6 11  1  0
  9 13  1  0
  9 15  1  0
 10 12  2  0
 12 14  1  0
 12 16  1  0
 13 14  2  0
M  CHG  1   3   1
M  END
>  <PUBCHEM_COMPOUND_CID>  (1) 
46987

>  <PUBCHEM_CONFORMER_RMSD>  (1) 
0.6

>  <PUBCHEM_CONFORMER_DIVERSEORDER>  (1) 
9
6
30
14
26
16
35
39
37
11
33
18
32
25
12
36
28
17
27
13
5
29
34
2
23
38
22
15
24
4
8
21
19
7
3
20
31
10
1

>  <PUBCHEM_MMFF94_PARTIAL_CHARGES>  (1) 
20
1 -0.23
10 -0.15
12 -0.14
13 -0.15
14 0.08
15 0.14
16 0.14
17 0.78
18 0.3
2 -0.57
27 0.15
3 -0.87
31 0.15
38 0.37
4 -0.73
5 0.36
6 0.5
7 0.5
8 0.5
9 -0.14

>  <PUBCHEM_EFFECTIVE_ROTOR_COUNT>  (1) 
5

>  <PUBCHEM_PHARMACOPHORE_FEATURES>  (1) 
4
1 2 acceptor
1 3 cation
1 4 donor
6 5 9 10 12 13 14 rings

>  <PUBCHEM_HEAVY_ATOM_COUNT>  (1) 
18

>  <PUBCHEM_ATOM_DEF_STEREO_COUNT>  (1) 
0

>  <PUBCHEM_ATOM_UDEF_STEREO_COUNT>  (1) 
0

>  <PUBCHEM_BOND_DEF_STEREO_COUNT>  (1) 
0

>  <PUBCHEM_BOND_UDEF_STEREO_COUNT>  (1) 
0

>  <PUBCHEM_ISOTOPIC_ATOM_COUNT>  (1) 
0

>  <PUBCHEM_COMPONENT_COUNT>  (1) 
1

>  <PUBCHEM_CACTVS_TAUTO_COUNT>  (1) 
2

>  <PUBCHEM_CONFORMER_ID>  (1) 
0000B78B00000009

>  <PUBCHEM_MMFF94_ENERGY>  (1) 
89.5699

>  <PUBCHEM_FEATURE_SELFOVERLAP>  (1) 
20.297

>  <PUBCHEM_SHAPE_FINGERPRINT>  (1) 
11680986 33 17978787145056818913
12011746 2 18412256268745613815
12032990 46 18270960253915231299
12119455 92 14201392802944010938
12236239 1 17821441353655245368
12507557 5 15719398364450919220
12553582 1 18411971473579464995
13140716 1 18265619964303808993
13288520 33 17704357679695208813
13862211 1 18411411838908714698
14911166 2 18409445924892019322
14993402 34 17967249827638499468
16945 1 18339632369952042881
18186145 218 18412820309035159344
187816 3 18335139821085614194
200 152 18186236234116703817
20281475 54 18341889645754072011
20300324 65 18413393128976290476
20645476 183 17676768764228323146
20871999 31 18334003996073677741
21267235 1 18342460396048792403
212916 134 10737276995911453453
21501502 16 18194396680532121987
21637258 2 15985096414280890135
2334 1 17977940516592251065
23366157 5 17753615642139008802
23402539 116 18413388726808846652
23493267 7 17458058253274070745
23557571 272 18202006524977589125
23559900 14 18342459275352166824
25147074 1 18193269694045987451
2748010 2 18122334954825345609
2838139 119 16008740329689025838
2871803 45 18411972577190991463
296302 2 17095518466175051243
3312278 4 18410286987374396617
34934 24 18339080372502914385
4990 188 17989210343325997318
57003041 33 18186237333570380910

>  <PUBCHEM_SHAPE_MULTIPOLES>  (1) 
348.73
9.4
1.97
1.05
7.23
0.02
-0.22
-1.04
-3.11
-1.17
0.28
-0.1
0.11
-0.44

>  <PUBCHEM_SHAPE_SELFOVERLAP>  (1) 
712.005

>  <PUBCHEM_SHAPE_VOLUME>  (1) 
205.1

>  <PUBCHEM_COORDINATE_TYPE>  (1) 
2
5
10

$$$$
