46983
     RDKit          3D

 16 16  0  0  0  0  0  0  0  0999 V2000
    2.2993   -0.0403   -0.9684 O   0  0  0  0  0  0  0  0  0  0  0  0
    2.7609   -0.0910    1.3098 O   0  0  0  0  0  0  0  0  0  0  0  0
   -3.1611   -0.2903    0.2462 N   0  0  0  0  0  0  0  0  0  0  0  0
    4.4768    0.0138   -0.2481 N   0  0  0  0  0  0  0  0  0  0  0  0
   -1.6692   -0.2050   -0.0853 C   0  0  0  0  0  0  0  0  0  0  0  0
   -3.5677   -1.7601    0.3036 C   0  0  0  0  0  0  0  0  0  0  0  0
   -3.9471    0.4488   -0.8332 C   0  0  0  0  0  0  0  0  0  0  0  0
   -3.4904    0.3476    1.5943 C   0  0  0  0  0  0  0  0  0  0  0  0
   -1.1115    1.0257   -0.1826 C   0  0  0  0  0  0  0  0  0  0  0  0
   -1.0267   -1.3878   -0.2558 C   0  0  0  0  0  0  0  0  0  0  0  0
    0.2491    1.0827   -0.4854 C   0  0  0  0  0  0  0  0  0  0  0  0
   -1.8629    2.3017    0.0138 C   0  0  0  0  0  0  0  0  0  0  0  0
    0.3338   -1.3307   -0.5587 C   0  0  0  0  0  0  0  0  0  0  0  0
    0.9717   -0.0955   -0.6733 C   0  0  0  0  0  0  0  0  0  0  0  0
    3.1567   -0.0443    0.1488 C   0  0  0  0  0  0  0  0  0  0  0  0
    5.5882    0.0246    0.6743 C   0  0  0  0  0  0  0  0  0  0  0  0
  1 14  1  0
  1 15  1  0
  2 15  2  0
  3  5  1  0
  3  6  1  0
  3  7  1  0
  3  8  1  0
  4 15  1  0
  4 16  1  0
  5  9  2  0
  5 10  1  0
  9 11  1  0
  9 12  1  0
 10 13  2  0
 11 14  2  0
 13 14  1  0
M  CHG  1   3   1
M  END
>  <PUBCHEM_COMPOUND_CID>  (1) 
46983

>  <PUBCHEM_CONFORMER_RMSD>  (1) 
0.6

>  <PUBCHEM_CONFORMER_DIVERSEORDER>  (1) 
2
8
16
17
14
9
11
20
6
7
4
12
10
13
19
18
1
15
5
3

>  <PUBCHEM_MMFF94_PARTIAL_CHARGES>  (1) 
20
1 -0.23
10 -0.15
11 -0.15
12 0.14
13 -0.15
14 0.08
15 0.78
16 0.3
2 -0.57
26 0.15
27 0.15
3 -0.87
31 0.15
32 0.37
4 -0.73
5 0.36
6 0.5
7 0.5
8 0.5
9 -0.14

>  <PUBCHEM_EFFECTIVE_ROTOR_COUNT>  (1) 
4

>  <PUBCHEM_PHARMACOPHORE_FEATURES>  (1) 
4
1 2 acceptor
1 3 cation
1 4 donor
6 5 9 10 11 13 14 rings

>  <PUBCHEM_HEAVY_ATOM_COUNT>  (1) 
16

>  <PUBCHEM_ATOM_DEF_STEREO_COUNT>  (1) 
0

>  <PUBCHEM_ATOM_UDEF_STEREO_COUNT>  (1) 
0

>  <PUBCHEM_BOND_DEF_STEREO_COUNT>  (1) 
0

>  <PUBCHEM_BOND_UDEF_STEREO_COUNT>  (1) 
0

>  <PUBCHEM_ISOTOPIC_ATOM_COUNT>  (1) 
0

>  <PUBCHEM_COMPONENT_COUNT>  (1) 
1

>  <PUBCHEM_CACTVS_TAUTO_COUNT>  (1) 
2

>  <PUBCHEM_CONFORMER_ID>  (1) 
0000B78700000002

>  <PUBCHEM_MMFF94_ENERGY>  (1) 
81.7255

>  <PUBCHEM_FEATURE_SELFOVERLAP>  (1) 
20.297

>  <PUBCHEM_SHAPE_FINGERPRINT>  (1) 
10366900 7 18131343107420459906
11132069 177 18342185448804816591
11315181 36 18113898256714978280
11401426 45 18411695483154633141
12119455 92 17203607082003981878
12236239 1 17749107799294218646
12251169 10 18409446999156017900
124424 183 17748824129314945647
13140716 1 18267312112967825307
13214271 11 18343864420430262439
13581323 91 18410011044236396414
13897977 58 18410015472495592596
14178342 30 18271545147147095091
14943859 89 11312057642855201844
15042514 8 18339082716970125622
15209294 21 17702959036585793745
15219456 202 17987803995118969734
15309172 13 18412833486026426295
16945 1 18338248093597617365
17804303 29 18341615949005260660
17834072 33 17749113318232255102
18186145 218 17417539016365105516
200 152 16008746914058453884
20510252 161 18272090448578659304
20645477 56 17846773040623160692
20645477 70 14056992794386442096
21119208 17 11959732677042616122
21637258 2 15936977460960528075
22485316 2 13912319092794416192
22854114 59 17775283867904995978
2297311 6 18342751710710916212
2306618 200 18040149592055061245
23402539 116 18412254056214743511
23559900 14 18340772529456360974
26918003 58 17022623082609723521
2748010 2 17977679619083313661
43471831 8 18261673666901424098
5104073 3 18337114578376487136
69090 78 17704347775506159382
90316 7 18334575728797823917

>  <PUBCHEM_SHAPE_MULTIPOLES>  (1) 
307.57
8.83
1.58
1.06
10.28
0.26
0.28
-0.46
2.26
-1.57
-0.08
-0.25
0.04
0.11

>  <PUBCHEM_SHAPE_SELFOVERLAP>  (1) 
628.661

>  <PUBCHEM_SHAPE_VOLUME>  (1) 
179.9

>  <PUBCHEM_COORDINATE_TYPE>  (1) 
2
5
10

$$$$
