46988
     RDKit          3D

 11 10  0  0  0  0  0  0  0  0999 V2000
    3.2838   -0.3458   -0.0022 O   0  0  0  0  0  0  0  0  0  0  0  0
   -1.5166   -0.4020   -0.0089 O   0  0  0  0  0  0  0  0  0  0  0  0
   -2.9500    1.4104    0.0084 O   0  0  0  0  0  0  0  0  0  0  0  0
    0.8760   -0.3756   -0.0225 C   0  0  0  0  0  0  0  0  0  0  0  0
    2.1301    0.4843   -0.0098 C   0  0  0  0  0  0  0  0  0  0  0  0
   -0.3905    0.4645   -0.0110 C   0  0  0  0  0  0  0  0  0  0  0  0
    4.4793    0.4226    0.0098 C   0  0  0  0  0  0  0  0  0  0  0  0
    5.6679   -0.5148    0.0174 C   0  0  0  0  0  0  0  0  0  0  0  0
   -2.7373    0.2083    0.0011 C   0  0  0  0  0  0  0  0  0  0  0  0
   -3.7747   -0.8438    0.0038 C   0  0  0  0  0  0  0  0  0  0  0  0
   -5.0679   -0.5082    0.0138 C   0  0  0  0  0  0  0  0  0  0  0  0
  1  5  1  0
  1  7  1  0
  2  6  1  0
  2  9  1  0
  3  9  2  0
  4  5  1  0
  4  6  1  0
  7  8  1  0
  9 10  1  0
 10 11  2  0
M  END
>  <PUBCHEM_COMPOUND_CID>  (1) 
46988

>  <PUBCHEM_CONFORMER_RMSD>  (1) 
0.8

>  <PUBCHEM_CONFORMER_DIVERSEORDER>  (1) 
1
74
58
7
95
86
11
35
52
48
37
3
82
91
15
13
38
94
19
25
8
14
50
75
71
73
51
31
85
67
17
40
33
90
88
92
72
84
41
44
54
62
34
61
45
12
28
27
36
89
30
77
53
79
69
18
70
5
46
49
42
76
68
20
23
6
21
16
2
32
78
26
22
65
66
56
64
43
47
60
57
93
29
9
83
81
80
59
10
87
4
24
39
63
55

>  <PUBCHEM_MMFF94_PARTIAL_CHARGES>  (1) 
12
1 -0.56
10 -0.14
11 -0.3
2 -0.43
23 0.15
24 0.15
25 0.15
3 -0.57
5 0.28
6 0.28
7 0.28
9 0.71

>  <PUBCHEM_EFFECTIVE_ROTOR_COUNT>  (1) 
7

>  <PUBCHEM_PHARMACOPHORE_FEATURES>  (1) 
3
1 1 acceptor
1 11 hydrophobe
1 3 acceptor

>  <PUBCHEM_HEAVY_ATOM_COUNT>  (1) 
11

>  <PUBCHEM_ATOM_DEF_STEREO_COUNT>  (1) 
0

>  <PUBCHEM_ATOM_UDEF_STEREO_COUNT>  (1) 
0

>  <PUBCHEM_BOND_DEF_STEREO_COUNT>  (1) 
0

>  <PUBCHEM_BOND_UDEF_STEREO_COUNT>  (1) 
0

>  <PUBCHEM_ISOTOPIC_ATOM_COUNT>  (1) 
0

>  <PUBCHEM_COMPONENT_COUNT>  (1) 
1

>  <PUBCHEM_CACTVS_TAUTO_COUNT>  (1) 
1

>  <PUBCHEM_CONFORMER_ID>  (1) 
0000B78C00000001

>  <PUBCHEM_MMFF94_ENERGY>  (1) 
13.324

>  <PUBCHEM_FEATURE_SELFOVERLAP>  (1) 
15.223

>  <PUBCHEM_SHAPE_FINGERPRINT>  (1) 
11401426 45 9583517611930824970
14123238 8 18202002140069141862
1420 363 18333737930785737690
15242439 84 11891333153636855822
17834072 33 18261113014934178740
17834076 25 11169909489576341687
187816 3 15791730806215124393
20645477 56 9511465520067886563
20645477 70 18271811160357792758
20719005 15 18410855464829310982
20767249 213 9871750191654103659
20828058 21 18411983550874513892
23402539 116 18413101775796092127
42788 4 18410575093258294756
57483677 66 18410571777955466606

>  <PUBCHEM_SHAPE_MULTIPOLES>  (1) 
208.77
12.48
0.95
0.59
6.88
0.15
0
-2.26
0.11
-0.47
0
0.01
-0.01
0

>  <PUBCHEM_SHAPE_SELFOVERLAP>  (1) 
384.018

>  <PUBCHEM_SHAPE_VOLUME>  (1) 
132.1

>  <PUBCHEM_COORDINATE_TYPE>  (1) 
2
5
10

$$$$
