46981
     RDKit          3D

 16 16  0  0  0  0  0  0  0  0999 V2000
    1.9345    0.0408    0.9740 O   0  0  0  0  0  0  0  0  0  0  0  0
    2.4873   -0.2506   -1.2656 O   0  0  0  0  0  0  0  0  0  0  0  0
   -2.6246   -1.2309   -0.0713 N   0  0  0  0  0  0  0  0  0  0  0  0
    4.0553   -0.6225    0.4034 N   0  0  0  0  0  0  0  0  0  0  0  0
   -1.5402   -0.1604    0.0735 C   0  0  0  0  0  0  0  0  0  0  0  0
   -3.1268   -1.2288   -1.5124 C   0  0  0  0  0  0  0  0  0  0  0  0
   -3.7590   -0.9150    0.8995 C   0  0  0  0  0  0  0  0  0  0  0  0
   -2.1015   -2.6297    0.2483 C   0  0  0  0  0  0  0  0  0  0  0  0
   -1.9002    1.1175   -0.1962 C   0  0  0  0  0  0  0  0  0  0  0  0
   -0.3113   -0.5813    0.4583 C   0  0  0  0  0  0  0  0  0  0  0  0
   -0.9114    2.0927   -0.0643 C   0  0  0  0  0  0  0  0  0  0  0  0
    0.6773    0.3939    0.5899 C   0  0  0  0  0  0  0  0  0  0  0  0
    0.3773    1.7309    0.3288 C   0  0  0  0  0  0  0  0  0  0  0  0
   -1.2319    3.5221   -0.3433 C   0  0  0  0  0  0  0  0  0  0  0  0
    2.8103   -0.2787   -0.0816 C   0  0  0  0  0  0  0  0  0  0  0  0
    5.1649   -0.9999   -0.4410 C   0  0  0  0  0  0  0  0  0  0  0  0
  1 12  1  0
  1 15  1  0
  2 15  2  0
  3  5  1  0
  3  6  1  0
  3  7  1  0
  3  8  1  0
  4 15  1  0
  4 16  1  0
  5  9  2  0
  5 10  1  0
  9 11  1  0
 10 12  2  0
 11 13  2  0
 11 14  1  0
 12 13  1  0
M  CHG  1   3   1
M  END
>  <PUBCHEM_COMPOUND_CID>  (1) 
46981

>  <PUBCHEM_CONFORMER_RMSD>  (1) 
0.6

>  <PUBCHEM_CONFORMER_DIVERSEORDER>  (1) 
1
40
47
11
43
26
30
29
46
48
7
27
6
12
45
5
41
49
25
37
28
22
38
44
50
32
21
52
24
19
15
35
23
16
36
20
14
33
13
34
17
18
31
51
8
42
39
4
3
2
9
10

>  <PUBCHEM_MMFF94_PARTIAL_CHARGES>  (1) 
20
1 -0.23
10 -0.15
11 -0.14
12 0.08
13 -0.15
14 0.14
15 0.78
16 0.3
2 -0.57
26 0.15
27 0.15
28 0.15
3 -0.87
32 0.37
4 -0.73
5 0.36
6 0.5
7 0.5
8 0.5
9 -0.15

>  <PUBCHEM_EFFECTIVE_ROTOR_COUNT>  (1) 
4

>  <PUBCHEM_PHARMACOPHORE_FEATURES>  (1) 
4
1 2 acceptor
1 3 cation
1 4 donor
6 5 9 10 11 12 13 rings

>  <PUBCHEM_HEAVY_ATOM_COUNT>  (1) 
16

>  <PUBCHEM_ATOM_DEF_STEREO_COUNT>  (1) 
0

>  <PUBCHEM_ATOM_UDEF_STEREO_COUNT>  (1) 
0

>  <PUBCHEM_BOND_DEF_STEREO_COUNT>  (1) 
0

>  <PUBCHEM_BOND_UDEF_STEREO_COUNT>  (1) 
0

>  <PUBCHEM_ISOTOPIC_ATOM_COUNT>  (1) 
0

>  <PUBCHEM_COMPONENT_COUNT>  (1) 
1

>  <PUBCHEM_CACTVS_TAUTO_COUNT>  (1) 
2

>  <PUBCHEM_CONFORMER_ID>  (1) 
0000B78500000001

>  <PUBCHEM_MMFF94_ENERGY>  (1) 
61.7476

>  <PUBCHEM_FEATURE_SELFOVERLAP>  (1) 
20.297

>  <PUBCHEM_SHAPE_FINGERPRINT>  (1) 
12500047 106 18122339078453002276
12553582 1 18336256920594242987
14508225 48 18337941355143893156
14863182 85 15809481678733334651
16752209 62 18262780888026553771
16945 1 18336535045664988273
1813 80 18270134511960909837
19141452 34 17917996092113556047
20361792 2 18340203110975983071
20645476 183 17970909947091854269
20645477 70 17688575487971297655
20671657 53 18268425913988880687
20711985 344 18338221679343258953
20871998 184 18271246023616729333
20871998 22 18267301126262348481
20871999 31 18336818715312010573
21029758 27 18261965132076897665
21041028 32 18337686307744311905
21061003 4 17132110238985870984
21069387 34 17915164944367009583
21339142 126 18412826854633649631
21426921 1 18337393725860704724
21524375 3 17610623007652459936
22094290 60 18410294688187376786
23114952 82 17683226320698800197
23402539 116 18335137570844459086
23557571 272 18272376330656000172
23559900 14 17983852286600831610
23598294 1 18263636277749697608
25 1 11963653505041697598
2748010 2 18265594645804284665
3071541 250 18190186865331994445
3286 77 16629952356167741755
458136 41 17035589877235482649
559249 180 17974284323230622122
573450 72 18116141174625856378
6049 1 17988348313657514840
6992083 37 18129677399450544403
7364860 26 17763746889942541921
81228 2 18411413982313660345
83771 10 18272091621030637626
84936 182 8212494760345948879
9709674 26 18341055104071689398

>  <PUBCHEM_SHAPE_MULTIPOLES>  (1) 
307.57
7.05
2.83
1
9.14
2.21
-0.22
-4.87
-0.84
-2.42
-0.25
-0.3
-0.24
0.2

>  <PUBCHEM_SHAPE_SELFOVERLAP>  (1) 
625.534

>  <PUBCHEM_SHAPE_VOLUME>  (1) 
181.1

>  <PUBCHEM_COORDINATE_TYPE>  (1) 
2
5
10

$$$$
