46991
     RDKit          3D

 23 26  0  0  1  0  0  0  0  0999 V2000
    0.0006    3.2684   -0.0410 N   0  0  0  0  0  0  0  0  0  0  0  0
   -0.5160    0.3652   -0.6639 C   0  0  0  0  0  0  0  0  0  0  0  0
   -2.0371   -1.6819   -0.7735 C   0  0  0  0  0  0  0  0  0  0  0  0
   -2.7046    0.2942    0.6728 C   0  0  0  0  0  0  0  0  0  0  0  0
   -0.7436   -1.1707    1.3502 C   0  0  0  0  0  0  0  0  0  0  0  0
    0.2133   -0.2082    0.5975 C   0  0  0  0  0  0  0  0  0  0  0  0
   -1.0900   -0.7532   -1.5654 C   0  0  0  0  0  0  0  0  0  0  0  0
   -1.7342    1.1867   -0.1403 C   0  0  0  0  0  0  0  0  0  0  0  0
   -3.2184   -0.8362   -0.2460 C   0  0  0  0  0  0  0  0  0  0  0  0
   -1.2875   -2.2818    0.4355 C   0  0  0  0  0  0  0  0  0  0  0  0
   -1.9445   -0.3443    1.8593 C   0  0  0  0  0  0  0  0  0  0  0  0
    0.3933    1.2931   -1.4819 C   0  0  0  0  0  0  0  0  0  0  0  0
   -2.5570   -2.8021   -1.6806 C   0  0  0  0  0  0  0  0  0  0  0  0
   -3.8808    1.1289    1.1899 C   0  0  0  0  0  0  0  0  0  0  0  0
    1.6324   -0.7484    0.4479 C   0  0  0  0  0  0  0  0  0  0  0  0
    1.0213    2.4129   -0.6463 C   0  0  0  0  0  0  0  0  0  0  0  0
    2.5804   -0.4777    1.4293 C   0  0  0  0  0  0  0  0  0  0  0  0
    1.9674   -1.5080   -0.6683 C   0  0  0  0  0  0  0  0  0  0  0  0
    1.9283    3.2743   -1.5240 C   0  0  0  0  0  0  0  0  0  0  0  0
    3.8777   -0.9717    1.2928 C   0  0  0  0  0  0  0  0  0  0  0  0
    3.2648   -2.0020   -0.8047 C   0  0  0  0  0  0  0  0  0  0  0  0
    0.6143    4.2964    0.7849 C   0  0  0  0  0  0  0  0  0  0  0  0
    4.2199   -1.7338    0.1760 C   0  0  0  0  0  0  0  0  0  0  0  0
  1 16  1  0
  1 22  1  0
  2  6  1  0
  2  7  1  0
  2  8  1  0
  2 12  1  0
  3  7  1  0
  3  9  1  0
  3 10  1  0
  3 13  1  0
  4  8  1  0
  4  9  1  0
  4 11  1  0
  4 14  1  0
  5  6  1  0
  5 10  1  0
  5 11  1  0
  6 15  1  0
 12 16  1  0
 15 17  2  0
 15 18  1  0
 16 19  1  0
 17 20  1  0
 18 21  2  0
 20 23  2  0
 21 23  1  0
M  END
>  <PUBCHEM_COMPOUND_CID>  (1) 
46991

>  <PUBCHEM_CONFORMER_RMSD>  (1) 
0.8

>  <PUBCHEM_CONFORMER_DIVERSEORDER>  (1) 
1
7
8
4
10
6
2
3
11
9
5

>  <PUBCHEM_MMFF94_PARTIAL_CHARGES>  (1) 
16
1 -0.9
15 -0.14
16 0.27
17 -0.15
18 -0.15
20 -0.15
21 -0.15
22 0.27
23 -0.15
45 0.15
46 0.15
50 0.36
51 0.15
52 0.15
56 0.15
6 0.14

>  <PUBCHEM_EFFECTIVE_ROTOR_COUNT>  (1) 
5.2

>  <PUBCHEM_PHARMACOPHORE_FEATURES>  (1) 
7
1 1 cation
1 1 donor
6 15 17 18 20 21 23 rings
6 2 3 4 7 8 9 rings
6 2 3 5 6 7 10 rings
6 2 4 5 6 8 11 rings
6 3 4 5 9 10 11 rings

>  <PUBCHEM_HEAVY_ATOM_COUNT>  (1) 
23

>  <PUBCHEM_ATOM_DEF_STEREO_COUNT>  (1) 
0

>  <PUBCHEM_ATOM_UDEF_STEREO_COUNT>  (1) 
4

>  <PUBCHEM_BOND_DEF_STEREO_COUNT>  (1) 
0

>  <PUBCHEM_BOND_UDEF_STEREO_COUNT>  (1) 
0

>  <PUBCHEM_ISOTOPIC_ATOM_COUNT>  (1) 
0

>  <PUBCHEM_COMPONENT_COUNT>  (1) 
1

>  <PUBCHEM_CACTVS_TAUTO_COUNT>  (1) 
1

>  <PUBCHEM_CONFORMER_ID>  (1) 
0000B78F00000001

>  <PUBCHEM_MMFF94_ENERGY>  (1) 
93.0705

>  <PUBCHEM_FEATURE_SELFOVERLAP>  (1) 
47.846

>  <PUBCHEM_SHAPE_FINGERPRINT>  (1) 
10006869 2 17613428948784209241
10165383 225 16610565389801739620
10863032 1 16773503383278385723
10948715 1 17058932131078029395
12035759 4 17836647792182182086
12160290 23 17756971325714394868
12553582 1 18260829255077441114
12788726 201 18191883223206392500
12969540 114 18050264991577231909
13140716 1 18408605855443854202
133893 2 17824252928729629884
13681431 1 18261950859985073100
13965767 371 17265282885605569641
14142880 1 17903073339744013600
14181834 199 18043801207250922206
14223421 5 17755320185482315459
14713325 29 17399816899134055294
14955137 171 18265631917640827387
16945 1 18197488533120732763
17980427 23 18058154184615856496
1813 80 18408319977920098934
18981168 100 15430590783249415607
19868273 325 18261950756742450966
20510252 161 18044094540832725560
20600515 1 18040985259578310976
20723712 36 18196674907701871681
21033648 29 17916012457104217289
21330990 113 17767701459367756815
21421861 104 18053113005908613715
21521721 280 10230309729844304867
22112679 90 18411986874788837022
22182313 1 16880465163314490171
23402539 116 18261945237978689370
23419403 2 17263221593044448467
23557571 272 18337104563235276178
23559900 14 18126268968669489731
2748010 2 17761779468371311479
35225 105 17541352680281212640
427121 178 16899354338823891464
46194498 28 17474052978073463679
6287921 2 18057874947865629562
6442390 28 17477765684821000488
6992083 37 18271811194115754347
7364860 26 18193841659193927788
81228 2 18045785589790208472
90316 7 18263911155983727690
9981440 41 17474095979080165705

>  <PUBCHEM_SHAPE_MULTIPOLES>  (1) 
468.35
5.71
4.01
1.7
2.31
4.75
-0.02
-3.31
1.23
1.3
-0.95
-0.23
-0.12
-1.29

>  <PUBCHEM_SHAPE_SELFOVERLAP>  (1) 
1008.443

>  <PUBCHEM_SHAPE_VOLUME>  (1) 
252.7

>  <PUBCHEM_COORDINATE_TYPE>  (1) 
2
5
10

$$$$
