4699
     RDKit          3D

 30 30  0  0  1  0  0  0  0  0999 V2000
   -5.4631   -1.0822   -0.5089 P   0  0  0  0  0  0  0  0  0  0  0  0
   -4.8867    0.1176    0.4108 O   0  0  0  0  0  0  0  0  0  0  0  0
   -2.6727   -0.8928    1.6622 O   0  0  0  0  0  0  0  0  0  0  0  0
    0.9335    0.3422   -1.4181 O   0  0  0  0  0  0  0  0  0  0  0  0
   -6.9488   -1.3100    0.0874 O   0  0  0  0  0  0  0  0  0  0  0  0
   -5.7396   -0.3738   -1.9361 O   0  0  0  0  0  0  0  0  0  0  0  0
   -4.6047   -2.3122   -0.5588 O   0  0  0  0  0  0  0  0  0  0  0  0
    8.1717    1.0748    0.6314 O   0  0  0  0  0  0  0  0  0  0  0  0
    7.5319    2.2054   -1.1381 O   0  0  0  0  0  0  0  0  0  0  0  0
   -1.4172   -0.2889   -0.1949 N   0  0  0  0  0  0  0  0  0  0  0  0
    2.0761   -0.6112    0.3966 N   0  0  0  0  0  0  0  0  0  0  0  0
    7.2882    1.4208   -0.1897 N   0  0  0  0  0  0  0  0  0  0  0  0
   -0.3473   -2.4869   -0.5686 C   0  0  0  0  0  0  0  0  0  0  0  0
   -0.2635   -1.1073    0.0973 C   0  0  0  0  0  0  0  0  0  0  0  0
    0.6053   -3.5479    0.0193 C   0  0  0  0  0  0  0  0  0  0  0  0
   -3.6219    0.6720    0.0830 C   0  0  0  0  0  0  0  0  0  0  0  0
   -3.4911    2.0845    0.6644 C   0  0  0  0  0  0  0  0  0  0  0  0
   -2.5366   -0.2512    0.6225 C   0  0  0  0  0  0  0  0  0  0  0  0
   -4.5619    3.0326    0.1136 C   0  0  0  0  0  0  0  0  0  0  0  0
    0.5164   -4.8838   -0.7198 C   0  0  0  0  0  0  0  0  0  0  0  0
    0.2909   -3.7580    1.5031 C   0  0  0  0  0  0  0  0  0  0  0  0
    0.9678   -0.3519   -0.4058 C   0  0  0  0  0  0  0  0  0  0  0  0
   -4.4464    4.4576    0.6600 C   0  0  0  0  0  0  0  0  0  0  0  0
   -5.4589    5.4214    0.0605 C   0  0  0  0  0  0  0  0  0  0  0  0
    3.3871   -0.0984    0.2503 C   0  0  0  0  0  0  0  0  0  0  0  0
    4.3856   -0.4691    1.1509 C   0  0  0  0  0  0  0  0  0  0  0  0
    3.6812    0.7757   -0.7962 C   0  0  0  0  0  0  0  0  0  0  0  0
    5.6782    0.0340    1.0051 C   0  0  0  0  0  0  0  0  0  0  0  0
    4.9740    1.2790   -0.9421 C   0  0  0  0  0  0  0  0  0  0  0  0
    5.9724    0.9081   -0.0414 C   0  0  0  0  0  0  0  0  0  0  0  0
  1  2  1  0
  1  5  1  0
  1  6  1  0
  1  7  2  0
  2 16  1  0
  3 18  2  0
  4 22  2  0
  8 12  1  0
  9 12  2  0
 10 14  1  0
 10 18  1  0
 11 22  1  0
 11 25  1  0
 12 30  1  0
 13 14  1  0
 13 15  1  0
 14 22  1  0
 15 20  1  0
 15 21  1  0
 16 17  1  0
 16 18  1  0
 17 19  1  0
 19 23  1  0
 23 24  1  0
 25 26  2  0
 25 27  1  0
 26 28  1  0
 27 29  2  0
 28 30  2  0
 29 30  1  0
M  CHG  2   8  -1  12   1
M  END
>  <PUBCHEM_COMPOUND_CID>  (1) 
4699

>  <PUBCHEM_CONFORMER_RMSD>  (1) 
1.2

>  <PUBCHEM_CONFORMER_DIVERSEORDER>  (1) 
1
111
61
99
129
113
87
8
115
58
17
109
24
66
64
6
71
80
42
92
93
55
126
86
94
82
35
37
81
20
7
95
21
108
63
125
76
124
88
48
28
79
29
12
51
53
104
26
67
98
96
127
54
68
103
110
39
15
59
128
116
97
62
41
69
47
123
112
56
85
9
31
106
18
4
118
30
105
10
65
25
19
49
70
102
45
117
74
75
5
3
33
101
14
43
38
122
44
60
52
13
91
107
100
27
34
77
23
22
36
2
57
121
32
46
120
16
73
78
40
11
84
72
83
119
114
89
90
50

>  <PUBCHEM_MMFF94_PARTIAL_CHARGES>  (1) 
30
1 1.51
10 -0.73
11 -0.55
12 0.91
14 0.36
16 0.34
18 0.57
2 -0.55
22 0.57
25 0.12
26 -0.15
27 -0.15
28 -0.15
29 -0.15
3 -0.57
30 0.13
38 0.37
4 -0.57
49 0.37
5 -0.77
53 0.15
54 0.15
55 0.15
56 0.15
57 0.5
58 0.5
6 -0.77
7 -0.7
8 -0.52
9 -0.52

>  <PUBCHEM_EFFECTIVE_ROTOR_COUNT>  (1) 
14

>  <PUBCHEM_PHARMACOPHORE_FEATURES>  (1) 
14
1 10 donor
1 11 donor
1 24 hydrophobe
1 3 acceptor
1 4 acceptor
1 5 acceptor
1 6 acceptor
1 7 acceptor
1 8 acceptor
1 8 anion
1 9 acceptor
3 15 20 21 hydrophobe
4 1 5 6 7 anion
6 25 26 27 28 29 30 rings

>  <PUBCHEM_HEAVY_ATOM_COUNT>  (1) 
30

>  <PUBCHEM_ATOM_DEF_STEREO_COUNT>  (1) 
0

>  <PUBCHEM_ATOM_UDEF_STEREO_COUNT>  (1) 
2

>  <PUBCHEM_BOND_DEF_STEREO_COUNT>  (1) 
0

>  <PUBCHEM_BOND_UDEF_STEREO_COUNT>  (1) 
0

>  <PUBCHEM_ISOTOPIC_ATOM_COUNT>  (1) 
0

>  <PUBCHEM_COMPONENT_COUNT>  (1) 
1

>  <PUBCHEM_CACTVS_TAUTO_COUNT>  (1) 
4

>  <PUBCHEM_CONFORMER_ID>  (1) 
0000125B00000001

>  <PUBCHEM_MMFF94_ENERGY>  (1) 
32.8823

>  <PUBCHEM_FEATURE_SELFOVERLAP>  (1) 
71.167

>  <PUBCHEM_SHAPE_FINGERPRINT>  (1) 
10050765 1 18195246616675856435
12107183 9 17831010239352050634
12166972 35 13038911058067485946
13631057 29 18129939100715043271
14466204 15 18410856529681105000
14790565 3 18409735066897433036
15849732 13 17895190051937033806
17980427 23 18041006115739371565
19309040 13 17984696719662346181
21033648 29 18271796930851521136
23522609 53 17532110431158515612
3411729 13 18264770948154176018
563151 97 18410852123519075111
59755656 520 18339354275247080262
6371009 1 18335137630658023133
9981440 41 18336274461519930235

>  <PUBCHEM_SHAPE_MULTIPOLES>  (1) 
559.34
19.21
5.64
1.2
17.34
0.94
-0.02
18.87
-1.26
-8.08
0.19
0.11
-0.33
-1.89

>  <PUBCHEM_SHAPE_SELFOVERLAP>  (1) 
1110.357

>  <PUBCHEM_SHAPE_VOLUME>  (1) 
333

>  <PUBCHEM_COORDINATE_TYPE>  (1) 
2
5
10

$$$$
