46999
     RDKit          3D

 20 21  0  0  1  0  0  0  0  0999 V2000
   -1.5009    1.0998    0.4081 O   0  0  0  0  0  0  0  0  0  0  0  0
   -1.1298   -1.1703    0.3192 O   0  0  0  0  0  0  0  0  0  0  0  0
    2.7804    0.6830   -0.1296 N   0  0  0  0  0  0  0  0  0  0  0  0
    4.7458   -1.4915   -0.0748 C   0  0  0  0  0  0  0  0  0  0  0  0
    4.9898   -0.1449    0.6147 C   0  0  0  0  0  0  0  0  0  0  0  0
    3.2395   -1.7470   -0.1934 C   0  0  0  0  0  0  0  0  0  0  0  0
    4.2178    0.9815   -0.0753 C   0  0  0  0  0  0  0  0  0  0  0  0
    2.5257   -0.5675   -0.8570 C   0  0  0  0  0  0  0  0  0  0  0  0
    2.0504    1.7911   -0.7451 C   0  0  0  0  0  0  0  0  0  0  0  0
    0.5434    1.5024   -0.8060 C   0  0  0  0  0  0  0  0  0  0  0  0
    5.4373   -2.6259    0.6766 C   0  0  0  0  0  0  0  0  0  0  0  0
    2.3180    3.0631    0.0582 C   0  0  0  0  0  0  0  0  0  0  0  0
   -0.1069    1.3369    0.5648 C   0  0  0  0  0  0  0  0  0  0  0  0
   -1.8761   -0.2039    0.2965 C   0  0  0  0  0  0  0  0  0  0  0  0
   -3.3481   -0.3153    0.1374 C   0  0  0  0  0  0  0  0  0  0  0  0
   -3.8629   -1.3729   -0.5841 C   0  0  0  0  0  0  0  0  0  0  0  0
   -4.1556    0.6423    0.7159 C   0  0  0  0  0  0  0  0  0  0  0  0
   -5.2458   -1.4771   -0.7338 C   0  0  0  0  0  0  0  0  0  0  0  0
   -5.5385    0.5380    0.5663 C   0  0  0  0  0  0  0  0  0  0  0  0
   -6.0835   -0.5218   -0.1585 C   0  0  0  0  0  0  0  0  0  0  0  0
  1 13  1  0
  1 14  1  0
  2 14  2  0
  3  7  1  0
  3  8  1  0
  3  9  1  0
  4  5  1  0
  4  6  1  0
  4 11  1  0
  5  7  1  0
  6  8  1  0
  9 10  1  0
  9 12  1  0
 10 13  1  0
 14 15  1  0
 15 16  2  0
 15 17  1  0
 16 18  1  0
 17 19  2  0
 18 20  2  0
 19 20  1  0
M  END
>  <PUBCHEM_COMPOUND_CID>  (1) 
46999

>  <PUBCHEM_CONFORMER_RMSD>  (1) 
0.8

>  <PUBCHEM_CONFORMER_DIVERSEORDER>  (1) 
3
116
21
266
130
9
176
153
123
166
240
95
71
194
117
204
62
210
149
142
24
289
64
218
258
121
222
125
56
45
50
173
5
192
212
276
260
32
273
208
67
196
265
69
74
197
175
217
291
31
58
187
158
84
144
294
147
162
139
271
247
159
245
90
13
261
101
65
150
205
274
124
290
215
41
12
110
268
184
20
207
49
122
200
233
201
113
172
156
68
169
11
298
40
105
57
259
160
225
198
42
78
152
129
171
14
264
61
52
53
180
106
151
284
94
279
189
138
229
280
82
157
185
181
137
251
239
87
108
145
231
118
295
267
88
209
143
27
237
99
112
44
38
299
126
59
292
250
263
73
182
255
93
155
140
141
97
55
132
128
100
72
7
114
300
286
75
22
29
241
193
17
96
86
102
167
92
270
76
98
163
287
228
60
178
272
232
83
242
46
30
296
223
253
79
2
164
219
146
293
278
15
4
220
281
168
249
301
54
246
221
248
81
37
202
283
235
236
10
16
224
238
177
183
288
25
26
19
154
211
23
35
165
91
18
252
133
136
34
275
111
51
107
213
135
103
48
1
148
234
134
256
43
70
109
33
66
254
89
226
244
285
262
227
104
119
216
191
115
297
120
269
47
257
77
179
85
206
161
8
282
131
36
39
243
80
188
170
214
199
127
6
174
28
63
203
277
195
186
230
190

>  <PUBCHEM_MMFF94_PARTIAL_CHARGES>  (1) 
19
1 -0.43
13 0.28
14 0.63
15 0.09
16 -0.15
17 -0.15
18 -0.15
19 -0.15
2 -0.57
20 -0.15
3 -0.81
41 0.15
42 0.15
43 0.15
44 0.15
45 0.15
7 0.27
8 0.27
9 0.27

>  <PUBCHEM_EFFECTIVE_ROTOR_COUNT>  (1) 
7.2

>  <PUBCHEM_PHARMACOPHORE_FEATURES>  (1) 
4
1 2 acceptor
1 3 cation
6 15 16 17 18 19 20 rings
6 3 4 5 6 7 8 rings

>  <PUBCHEM_HEAVY_ATOM_COUNT>  (1) 
20

>  <PUBCHEM_ATOM_DEF_STEREO_COUNT>  (1) 
0

>  <PUBCHEM_ATOM_UDEF_STEREO_COUNT>  (1) 
1

>  <PUBCHEM_BOND_DEF_STEREO_COUNT>  (1) 
0

>  <PUBCHEM_BOND_UDEF_STEREO_COUNT>  (1) 
0

>  <PUBCHEM_ISOTOPIC_ATOM_COUNT>  (1) 
0

>  <PUBCHEM_COMPONENT_COUNT>  (1) 
1

>  <PUBCHEM_CACTVS_TAUTO_COUNT>  (1) 
1

>  <PUBCHEM_CONFORMER_ID>  (1) 
0000B79700000003

>  <PUBCHEM_MMFF94_ENERGY>  (1) 
39.0806

>  <PUBCHEM_FEATURE_SELFOVERLAP>  (1) 
20.297

>  <PUBCHEM_SHAPE_FINGERPRINT>  (1) 
10062212 137 18202283628363570111
10447042 23 18412257350792159150
10595046 47 18270401736568850805
10753850 27 18040712520523031546
12107183 9 18125449613848859537
12236239 1 18343302570051778707
12596602 18 17418374709822105234
12616971 3 18342465854788396603
12617007 42 16660647388221333028
12839892 36 17632859720123031111
13073987 5 18270122435009018529
13167823 11 18271809068470757943
13533116 47 18411982485643789136
13551218 46 18410856534065476495
13911852 28 18264485088311319858
13955234 65 18196655318113811824
14251740 57 17775293724924019574
14251751 18 18413103940122206761
14251764 18 18202006547359643891
14565420 104 17986658480798639528
15183329 4 18410858754932645429
15196674 1 18412265025450369303
15250474 111 18129654352424484535
15352361 1 18409730625816515114
17349148 13 18130794468593383261
17857418 61 18343300383844794757
1813 80 17603305946969400004
18186145 218 17458623462622837049
18222031 100 18342185432052280462
1979834 28 17560806506962495806
20028762 73 18272930492996305094
20369508 70 17917713555810606864
20511986 3 18130212839716428365
20612939 158 18334577971081579741
20621476 91 15123215689824274023
20645477 70 18187927326055612176
20832881 197 18334016055782838193
21250096 35 18343584044511628593
21267235 1 18338805520413318182
21728266 224 17703784873345900471
22224240 67 18269548490271843320
23557571 272 15984559818289241985
23559900 14 18266458891718493416
2637199 183 8142086468309649256
2871803 45 17967532342356147866
3004659 81 18342465841428747788
314194 84 18335428954326656426
3411729 13 16414340359824118960
3421961 26 18410572903384584792
345986 75 18263630771881173224
351380 3 18335983082211802586
3680242 22 18411424977108275563
3729539 64 16733538295840194027
4073 2 18116437131361863963
4214541 1 18341897385760126633
46194498 28 17240484749318180124
5104073 3 18130234856246270099
5207 123 18335420136500146492
559249 180 18341048528565884135
573450 72 17917717903029160081
633830 44 17240762938940469933
67856867 119 18201154472370636465
76465 3 18409165476823845156
8988823 20 17917424363009637464
960060 61 17967542289257702124
9709674 26 18335426827948423787
9971528 1 18114179791225580837
9981440 41 17257369077555827153

>  <PUBCHEM_SHAPE_MULTIPOLES>  (1) 
394.87
14.78
2.56
0.87
8.56
0.51
0.04
-7.6
-1.16
-3.45
0.03
0.04
0
-1.22

>  <PUBCHEM_SHAPE_SELFOVERLAP>  (1) 
808.639

>  <PUBCHEM_SHAPE_VOLUME>  (1) 
227.9

>  <PUBCHEM_COORDINATE_TYPE>  (1) 
2
5
10

$$$$
