4700
     RDKit          3D

 22 24  0  0  1  0  0  0  0  0999 V2000
   -1.2659   -2.4363    0.1649 O   0  0  0  0  0  0  0  0  0  0  0  0
    0.8638    1.1668    0.2374 O   0  0  0  0  0  0  0  0  0  0  0  0
    0.9443   -1.1581    1.6028 O   0  0  0  0  0  0  0  0  0  0  0  0
    5.4840    1.1799    0.8454 O   0  0  0  0  0  0  0  0  0  0  0  0
   -4.7699    3.3271   -0.0740 N   0  0  0  0  0  0  0  0  0  0  0  0
    0.1100   -2.4951   -0.2635 C   0  0  0  0  0  0  0  0  0  0  0  0
    0.8992   -1.2424    0.1732 C   0  0  0  0  0  0  0  0  0  0  0  0
    0.2411    0.0318   -0.3596 C   0  0  0  0  0  0  0  0  0  0  0  0
   -1.2463   -0.0038   -0.1214 C   0  0  0  0  0  0  0  0  0  0  0  0
    0.6891   -3.7604    0.3923 C   0  0  0  0  0  0  0  0  0  0  0  0
    0.1377   -2.6964   -1.7890 C   0  0  0  0  0  0  0  0  0  0  0  0
   -1.8984   -1.2220    0.1120 C   0  0  0  0  0  0  0  0  0  0  0  0
   -2.0092    1.1723   -0.1809 C   0  0  0  0  0  0  0  0  0  0  0  0
    2.1993    1.1810    0.0125 C   0  0  0  0  0  0  0  0  0  0  0  0
   -3.2798   -1.2523    0.3281 C   0  0  0  0  0  0  0  0  0  0  0  0
    2.7112    1.2233   -1.3883 C   0  0  0  0  0  0  0  0  0  0  0  0
    4.2273    1.2287   -1.2226 C   0  0  0  0  0  0  0  0  0  0  0  0
   -3.3887    1.1374    0.0266 C   0  0  0  0  0  0  0  0  0  0  0  0
    3.1188    1.1599    0.9769 C   0  0  0  0  0  0  0  0  0  0  0  0
   -4.0231   -0.0742    0.2860 C   0  0  0  0  0  0  0  0  0  0  0  0
    4.4060    1.1879    0.2700 C   0  0  0  0  0  0  0  0  0  0  0  0
   -4.1505    2.3450   -0.0289 C   0  0  0  0  0  0  0  0  0  0  0  0
  1  6  1  0
  1 12  1  0
  2  8  1  0
  2 14  1  0
  3  7  1  0
  4 21  2  0
  5 22  3  0
  6  7  1  0
  6 10  1  0
  6 11  1  0
  7  8  1  0
  8  9  1  0
  9 12  2  0
  9 13  1  0
 12 15  1  0
 13 18  2  0
 14 16  1  0
 14 19  2  0
 15 20  2  0
 16 17  1  0
 17 21  1  0
 18 20  1  0
 18 22  1  0
 19 21  1  0
M  END
>  <PUBCHEM_COMPOUND_CID>  (1) 
4700

>  <PUBCHEM_CONFORMER_RMSD>  (1) 
0.6

>  <PUBCHEM_CONFORMER_DIVERSEORDER>  (1) 
1
16
10
5
15
9
12
13
7
14
11
3
8
6
4
2

>  <PUBCHEM_MMFF94_PARTIAL_CHARGES>  (1) 
25
1 -0.36
12 0.08
13 -0.15
14 -0.06
15 -0.15
16 0.14
17 0.06
18 0.07
19 -0.14
2 -0.36
20 -0.15
21 0.49
22 0.48
3 -0.68
31 0.15
32 0.4
35 0.15
38 0.15
39 0.15
4 -0.57
5 -0.56
6 0.28
7 0.28
8 0.42
9 -0.14

>  <PUBCHEM_EFFECTIVE_ROTOR_COUNT>  (1) 
3.2

>  <PUBCHEM_PHARMACOPHORE_FEATURES>  (1) 
10
1 1 acceptor
1 2 acceptor
1 3 acceptor
1 3 donor
1 4 acceptor
1 5 acceptor
3 6 10 11 hydrophobe
5 14 16 17 19 21 rings
6 1 6 7 8 9 12 rings
6 9 12 13 15 18 20 rings

>  <PUBCHEM_HEAVY_ATOM_COUNT>  (1) 
22

>  <PUBCHEM_ATOM_DEF_STEREO_COUNT>  (1) 
0

>  <PUBCHEM_ATOM_UDEF_STEREO_COUNT>  (1) 
2

>  <PUBCHEM_BOND_DEF_STEREO_COUNT>  (1) 
0

>  <PUBCHEM_BOND_UDEF_STEREO_COUNT>  (1) 
0

>  <PUBCHEM_ISOTOPIC_ATOM_COUNT>  (1) 
0

>  <PUBCHEM_COMPONENT_COUNT>  (1) 
1

>  <PUBCHEM_CACTVS_TAUTO_COUNT>  (1) 
5

>  <PUBCHEM_CONFORMER_ID>  (1) 
0000125C00000001

>  <PUBCHEM_MMFF94_ENERGY>  (1) 
65.479

>  <PUBCHEM_FEATURE_SELFOVERLAP>  (1) 
50.784

>  <PUBCHEM_SHAPE_FINGERPRINT>  (1) 
10382601 240 17823418201724947545
10411042 1 17545883093062935931
1100329 8 17044301865607135945
12173636 292 18266176321376935725
12236239 1 17677045867107622212
12390115 104 18341629104627706297
12422481 6 17970890190774744320
12500047 106 18271804687678027276
12592029 89 18408893948675336074
12633257 1 16153420666873829664
12788726 201 17683818978814582090
12930653 34 18408610258038578883
13140716 1 18264203625855319563
13464514 151 18268721519249583773
13540713 4 18191884336014164547
13544592 145 18201451285318697876
14178342 30 18187655704155618445
14251751 93 18271805769582563927
14466204 15 18410851049424382056
14790565 3 18335989743717108980
15042514 8 18049164672327324947
15163728 17 18263385640643700197
16752209 62 18267577082047795546
16945 1 18121222240289045615
18186145 218 17846512460034799112
20510252 161 18199192965196186977
20554085 129 17987211392268569848
20645477 56 18058172915363977296
21033648 29 18130212852728646104
21279426 13 18271253712140790030
212916 134 18342161294046141112
21304253 13 17474946528343303043
21524375 3 18342178916086089519
22182313 1 18269297744894663383
23366157 5 17969788475407167571
23402539 116 18199461232868725149
23419403 2 16830892194894487347
23559900 14 18053943952819907663
23728640 28 18194118749273221722
2748010 2 18264221231527509519
298252 57 18410855503268070594
3091708 16 9192969973627955555
3298306 158 18343589516685118470
3411729 13 18262801740061198881
5104073 3 18117850898143645969
5265222 85 18195539306154763484
5385378 56 18267874886859548017
559249 180 18410290320712155874
59755656 215 18193842539857649532
6138700 20 18194973950756470942
69090 78 18128819822998404894
7064713 232 18334011696417867700
7226269 152 18060136557511785000
7364860 26 18197216940800453743
81228 2 17478599570022616499
84936 182 18128534851908051905
9862522 239 18337099133594741565
9981440 41 18408041810358246763

>  <PUBCHEM_SHAPE_MULTIPOLES>  (1) 
424.29
8.67
3.66
1.11
2.4
2.22
0.22
-9.18
-0.66
-2.05
0.3
0.95
0.28
0.12

>  <PUBCHEM_SHAPE_SELFOVERLAP>  (1) 
923.329

>  <PUBCHEM_SHAPE_VOLUME>  (1) 
230.1

>  <PUBCHEM_COORDINATE_TYPE>  (1) 
2
5
10

$$$$
