47008
     RDKit          3D

 26 28  0  0  1  0  0  0  0  0999 V2000
   -1.6953   -1.8323    0.4502 O   0  0  0  0  0  0  0  0  0  0  0  0
   -1.2800   -2.9324   -1.5288 O   0  0  0  0  0  0  0  0  0  0  0  0
    4.4677   -0.9880    0.3672 O   0  0  0  0  0  0  0  0  0  0  0  0
   -4.1258    0.6573    0.4151 N   0  0  0  0  0  0  0  0  0  0  0  0
   -3.8943    2.1203    0.4215 C   0  0  0  0  0  0  0  0  0  0  0  0
   -4.4570    2.7570   -0.8653 C   0  0  0  0  0  0  0  0  0  0  0  0
   -5.5603    0.3461    0.2839 C   0  0  0  0  0  0  0  0  0  0  0  0
   -5.9325    2.4336   -1.0618 C   0  0  0  0  0  0  0  0  0  0  0  0
   -6.1529    0.9304   -0.9962 C   0  0  0  0  0  0  0  0  0  0  0  0
   -3.5993   -0.0002    1.6146 C   0  0  0  0  0  0  0  0  0  0  0  0
   -2.4059    2.4836    0.5230 C   0  0  0  0  0  0  0  0  0  0  0  0
   -3.8099   -1.5084    1.5274 C   0  0  0  0  0  0  0  0  0  0  0  0
   -3.0844   -2.1055    0.3292 C   0  0  0  0  0  0  0  0  0  0  0  0
   -0.9026   -2.3045   -0.5517 C   0  0  0  0  0  0  0  0  0  0  0  0
    0.5198   -1.9558   -0.3071 C   0  0  0  0  0  0  0  0  0  0  0  0
    0.8142   -0.7999    0.3868 C   0  0  0  0  0  0  0  0  0  0  0  0
    1.5036   -2.7986   -0.7822 C   0  0  0  0  0  0  0  0  0  0  0  0
    2.1507   -0.4726    0.6155 C   0  0  0  0  0  0  0  0  0  0  0  0
    2.8401   -2.4714   -0.5533 C   0  0  0  0  0  0  0  0  0  0  0  0
    3.1637   -1.3084    0.1456 C   0  0  0  0  0  0  0  0  0  0  0  0
    4.8549    0.3233    0.1470 C   0  0  0  0  0  0  0  0  0  0  0  0
    4.4292    0.9677   -1.0004 C   0  0  0  0  0  0  0  0  0  0  0  0
    5.6580    0.9542    1.0795 C   0  0  0  0  0  0  0  0  0  0  0  0
    4.8199    2.2882   -1.2228 C   0  0  0  0  0  0  0  0  0  0  0  0
    6.0487    2.2747    0.8573 C   0  0  0  0  0  0  0  0  0  0  0  0
    5.6297    2.9416   -0.2939 C   0  0  0  0  0  0  0  0  0  0  0  0
  1 13  1  0
  1 14  1  0
  2 14  2  0
  3 20  1  0
  3 21  1  0
  4  5  1  0
  4  7  1  0
  4 10  1  0
  5  6  1  0
  5 11  1  0
  6  8  1  0
  7  9  1  0
  8  9  1  0
 10 12  1  0
 12 13  1  0
 14 15  1  0
 15 16  2  0
 15 17  1  0
 16 18  1  0
 17 19  2  0
 18 20  2  0
 19 20  1  0
 21 22  2  0
 21 23  1  0
 22 24  1  0
 23 25  2  0
 24 26  2  0
 25 26  1  0
M  END
>  <PUBCHEM_COMPOUND_CID>  (1) 
47008

>  <PUBCHEM_CONFORMER_RMSD>  (1) 
1

>  <PUBCHEM_CONFORMER_DIVERSEORDER>  (1) 
16
205
72
228
368
400
235
350
54
364
328
18
246
383
67
270
290
427
254
201
217
408
260
168
280
208
398
295
410
31
151
150
154
340
378
87
279
13
120
248
28
263
66
188
164
296
281
420
366
104
2
384
195
10
183
343
382
231
412
42
177
193
222
332
64
289
85
388
36
53
172
325
167
117
395
250
243
92
311
153
25
218
341
363
149
101
288
225
362
137
83
147
20
102
371
194
65
198
136
351
129
60
78
397
190
379
71
6
411
56
419
276
114
76
200
130
131
94
423
121
425
202
342
82
210
211
45
26
169
267
175
99
345
376
185
234
176
405
374
402
336
313
404
406
97
297
110
90
236
180
155
37
171
51
219
361
370
124
331
191
189
242
30
4
127
109
215
429
221
5
8
73
35
372
262
305
335
312
292
287
403
266
57
323
145
277
240
306
354
21
143
133
310
58
77
239
229
165
23
192
324
144
212
320
50
283
161
422
7
1
61
396
258
106
204
349
125
24
300
317
80
227
216
339
40
365
291
105
348
19
22
41
223
206
389
107
38
352
346
108
269
316
224
315
86
237
158
393
256
148
32
302
238
49
428
329
421
274
273
156
416
163
160
401
9
377
392
11
326
113
34
59
307
375
112
426
282
157
387
380
174
103
253
321
134
159
55
304
75
399
3
47
84
347
369
126
367
244
17
386
91
111
299
96
88
135
119
140
259
93
265
247
309
74
39
233
285
146
333
184
409
308
162
170
318
209
373
319
178
356
81
89
197
43
203
415
220
381
360
166
15
414
115
27
142
337
390
68
322
284
116
353
417
100
301
138
424
385
232
298
118
394
264
327
62
418
275
69
268
196
272
241
413
407
173
226
29
48
33
303
63
334
182
179
251
123
257
186
249
95
46
338
52
359
128
230
294
199
12
139
44
245
141
314
207
98
214
181
286
355
70
213
187
122
293
391
252
79
358
261
14
255
271
278
357
344
330
132
152

>  <PUBCHEM_MMFF94_PARTIAL_CHARGES>  (1) 
30
1 -0.43
10 0.27
13 0.28
14 0.63
15 0.09
16 -0.15
17 -0.15
18 -0.15
19 -0.15
2 -0.57
20 0.08
21 0.08
22 -0.15
23 -0.15
24 -0.15
25 -0.15
26 -0.15
3 -0.17
4 -0.81
45 0.15
46 0.15
47 0.15
48 0.15
49 0.15
5 0.27
50 0.15
51 0.15
52 0.15
53 0.15
7 0.27

>  <PUBCHEM_EFFECTIVE_ROTOR_COUNT>  (1) 
9.2

>  <PUBCHEM_PHARMACOPHORE_FEATURES>  (1) 
6
1 2 acceptor
1 3 acceptor
1 4 cation
6 15 16 17 18 19 20 rings
6 21 22 23 24 25 26 rings
6 4 5 6 7 8 9 rings

>  <PUBCHEM_HEAVY_ATOM_COUNT>  (1) 
26

>  <PUBCHEM_ATOM_DEF_STEREO_COUNT>  (1) 
0

>  <PUBCHEM_ATOM_UDEF_STEREO_COUNT>  (1) 
1

>  <PUBCHEM_BOND_DEF_STEREO_COUNT>  (1) 
0

>  <PUBCHEM_BOND_UDEF_STEREO_COUNT>  (1) 
0

>  <PUBCHEM_ISOTOPIC_ATOM_COUNT>  (1) 
0

>  <PUBCHEM_COMPONENT_COUNT>  (1) 
1

>  <PUBCHEM_CACTVS_TAUTO_COUNT>  (1) 
1

>  <PUBCHEM_CONFORMER_ID>  (1) 
0000B7A000000010

>  <PUBCHEM_MMFF94_ENERGY>  (1) 
65.3356

>  <PUBCHEM_FEATURE_SELFOVERLAP>  (1) 
30.446

>  <PUBCHEM_SHAPE_FINGERPRINT>  (1) 
10904742 38 17605257507511250077
12422481 6 17894912940662692924
12596602 18 17603866736427521691
12633257 1 15430327948372591038
13911987 19 17846780702713195051
13941219 33 8790879714349182135
14251764 30 10951465134363604549
14251764 38 18267028241262544609
14739800 52 17896031062288771595
14790565 3 18266463294629060164
14951699 99 17967822651690170676
15575132 122 18339085998266266333
18393751 57 18335430028691239123
20058555 10 18408886264899877812
20715895 44 18411696570039906072
21302155 148 18409171042996322996
21315764 268 18116148874700318967
21388113 180 18411703157828648342
23559900 14 18124320410832844378
2748736 6 18411130333877749873
2838139 119 18263922155526873975
312425 54 16370720448416153010
3459 39 18130778015016830114
373842 8 18335984190271218852
437795 96 18187357723177537037
44249763 50 17773585217108827784
5219985 13 18413108385339934102
60123966 16 18200315394933277494
6371380 46 18115313250713169058
7237137 82 17845933047735866223
7808743 9 18341894155612475850
88748 71 9367345933544755346
9981440 41 18114469964143984635

>  <PUBCHEM_SHAPE_MULTIPOLES>  (1) 
512.48
16.89
4.14
1.28
1.34
0.15
0.05
15.93
-0.17
0.22
-1.17
-0.5
0.01
1.25

>  <PUBCHEM_SHAPE_SELFOVERLAP>  (1) 
1080.607

>  <PUBCHEM_SHAPE_VOLUME>  (1) 
287.5

>  <PUBCHEM_COORDINATE_TYPE>  (1) 
2
5
10

$$$$
