47009
     RDKit          3D

 25 27  0  0  1  0  0  0  0  0999 V2000
   -0.9638   -0.6356   -0.3595 O   0  0  0  0  0  0  0  0  0  0  0  0
   -0.6545   -1.5702    1.7214 O   0  0  0  0  0  0  0  0  0  0  0  0
   -5.1559    0.0432   -0.4362 N   0  0  0  0  0  0  0  0  0  0  0  0
   -6.6098   -0.2254   -0.3471 C   0  0  0  0  0  0  0  0  0  0  0  0
   -7.2207    0.5275    0.8521 C   0  0  0  0  0  0  0  0  0  0  0  0
   -4.8879    1.4872   -0.5577 C   0  0  0  0  0  0  0  0  0  0  0  0
   -6.9396    2.0231    0.7877 C   0  0  0  0  0  0  0  0  0  0  0  0
   -5.4477    2.2698    0.6279 C   0  0  0  0  0  0  0  0  0  0  0  0
   -4.5225   -0.6588   -1.5563 C   0  0  0  0  0  0  0  0  0  0  0  0
   -6.9270   -1.7190   -0.1854 C   0  0  0  0  0  0  0  0  0  0  0  0
   -3.0200   -0.3960   -1.5642 C   0  0  0  0  0  0  0  0  0  0  0  0
   -2.3590   -0.8944   -0.2862 C   0  0  0  0  0  0  0  0  0  0  0  0
   -0.2250   -1.0257    0.7161 C   0  0  0  0  0  0  0  0  0  0  0  0
    1.2096   -0.6992    0.5166 C   0  0  0  0  0  0  0  0  0  0  0  0
    1.9896   -0.4192    1.6198 C   0  0  0  0  0  0  0  0  0  0  0  0
    1.7187   -0.6874   -0.7658 C   0  0  0  0  0  0  0  0  0  0  0  0
    3.8764   -0.0958    0.1458 C   0  0  0  0  0  0  0  0  0  0  0  0
    3.3378   -0.1142    1.4324 C   0  0  0  0  0  0  0  0  0  0  0  0
    3.0668   -0.3824   -0.9532 C   0  0  0  0  0  0  0  0  0  0  0  0
    5.2745    0.2224   -0.0489 C   0  0  0  0  0  0  0  0  0  0  0  0
    5.6684    1.5464   -0.2416 C   0  0  0  0  0  0  0  0  0  0  0  0
    6.2282   -0.7954   -0.0422 C   0  0  0  0  0  0  0  0  0  0  0  0
    7.0165    1.8528   -0.4273 C   0  0  0  0  0  0  0  0  0  0  0  0
    7.5763   -0.4888   -0.2278 C   0  0  0  0  0  0  0  0  0  0  0  0
    7.9705    0.8352   -0.4203 C   0  0  0  0  0  0  0  0  0  0  0  0
  1 12  1  0
  1 13  1  0
  2 13  2  0
  3  4  1  0
  3  6  1  0
  3  9  1  0
  4  5  1  0
  4 10  1  0
  5  7  1  0
  6  8  1  0
  7  8  1  0
  9 11  1  0
 11 12  1  0
 13 14  1  0
 14 15  2  0
 14 16  1  0
 15 18  1  0
 16 19  2  0
 17 18  2  0
 17 19  1  0
 17 20  1  0
 20 21  2  0
 20 22  1  0
 21 23  1  0
 22 24  2  0
 23 25  2  0
 24 25  1  0
M  END
>  <PUBCHEM_COMPOUND_CID>  (1) 
47009

>  <PUBCHEM_CONFORMER_RMSD>  (1) 
1

>  <PUBCHEM_CONFORMER_DIVERSEORDER>  (1) 
8
132
2
281
344
353
434
181
49
41
308
170
42
24
19
249
217
526
25
300
246
45
105
4
250
81
98
409
80
32
329
189
190
192
14
191
452
171
1
366
303
441
114
48
139
302
51
424
355
165
92
370
85
6
288
11
269
201
61
284
264
57
443
68
86
3
16
88
30
241
162
21
466
237
58
222
161
34
62
274
104
148
70
160
365
93
416
64
89
66
121
450
377
253
465
18
154
94
20

>  <PUBCHEM_MMFF94_PARTIAL_CHARGES>  (1) 
27
1 -0.43
12 0.28
13 0.63
14 0.09
15 -0.15
16 -0.15
18 -0.15
19 -0.15
2 -0.57
21 -0.15
22 -0.15
23 -0.15
24 -0.15
25 -0.15
3 -0.81
4 0.27
44 0.15
45 0.15
46 0.15
47 0.15
48 0.15
49 0.15
50 0.15
51 0.15
52 0.15
6 0.27
9 0.27

>  <PUBCHEM_EFFECTIVE_ROTOR_COUNT>  (1) 
8.2

>  <PUBCHEM_PHARMACOPHORE_FEATURES>  (1) 
5
1 2 acceptor
1 3 cation
6 14 15 16 17 18 19 rings
6 20 21 22 23 24 25 rings
6 3 4 5 6 7 8 rings

>  <PUBCHEM_HEAVY_ATOM_COUNT>  (1) 
25

>  <PUBCHEM_ATOM_DEF_STEREO_COUNT>  (1) 
0

>  <PUBCHEM_ATOM_UDEF_STEREO_COUNT>  (1) 
1

>  <PUBCHEM_BOND_DEF_STEREO_COUNT>  (1) 
0

>  <PUBCHEM_BOND_UDEF_STEREO_COUNT>  (1) 
0

>  <PUBCHEM_ISOTOPIC_ATOM_COUNT>  (1) 
0

>  <PUBCHEM_COMPONENT_COUNT>  (1) 
1

>  <PUBCHEM_CACTVS_TAUTO_COUNT>  (1) 
1

>  <PUBCHEM_CONFORMER_ID>  (1) 
0000B7A100000008

>  <PUBCHEM_MMFF94_ENERGY>  (1) 
58.6244

>  <PUBCHEM_FEATURE_SELFOVERLAP>  (1) 
25.373

>  <PUBCHEM_SHAPE_FINGERPRINT>  (1) 
10 15 14634873063350791316
10165383 225 16773800282642932967
10299344 5 18342455945639409942
10369192 42 18272088301543138495
106641 1 13190343487393486412
10670039 82 18059851732465844769
10730089 173 18131069312452085217
11273773 118 17632306644805506979
11315181 36 18260828216407174311
11646440 116 17095242518958706684
11719270 70 16702302322253149374
11724838 91 16515684467847985419
12082328 90 18343581858763925255
12643181 29 14333403462898436748
12664476 115 17775002389229683801
13177829 20 12251905901881041646
13668630 136 12823290208946607277
13914758 101 18272091570150458438
13964095 4 17060619997100424127
14251752 14 17632294562334606494
14251764 18 11169916087073447816
14461889 52 14201114596421919784
14849402 71 18187932840625484885
14856354 85 18342172315475853511
14933364 13 18343019995241621909
15183329 4 16128375960840377811
15188451 53 11314313849695657777
15716309 27 8718829786342470118
1577012 14 18261386720325567875
16989713 51 17059201709512445327
1768 4 17167866404666889580
18006028 8 11815898963553620042
18335252 98 18343026605719088511
19489759 90 10809343331078143063
20281389 69 17458338637550419636
21365058 27 18334858316567210179
21424621 283 18408887317271782435
21623969 137 15357697466079951331
21792961 116 16988850466403267398
22224240 67 14923942366842854192
23198884 109 18412824698707929071
23559900 14 14692273097390389771
249057 3 15913323623808614884
29717793 49 13183021847679598642
3004659 81 15697995258283273074
3009799 131 16128653055288173546
3178227 256 15936415537309234732
3633792 109 18202850946926348918
4073 2 18409171034195898510
4098825 35 18272371940724683182
4107672 100 17846495955013499135
445580 37 17703795803658055425
5385378 56 17530961346485296658
54076057 127 17821729399615993066
559249 180 9079114463057299149
5758199 1 17822010904324781547
59682541 35 15864077589223252137
5969126 39 12319742444704698963
59755656 215 14620801496316538164
59755656 520 18259701207544792307
9689198 14 18335423447856835837
9953998 17 17313110748619562793

>  <PUBCHEM_SHAPE_MULTIPOLES>  (1) 
497.77
26.01
1.76
1.3
0.78
0.89
0.19
9.3
-2.38
-2.08
0.13
-0.48
-0.24
-1.41

>  <PUBCHEM_SHAPE_SELFOVERLAP>  (1) 
1050.328

>  <PUBCHEM_SHAPE_VOLUME>  (1) 
280.3

>  <PUBCHEM_COORDINATE_TYPE>  (1) 
2
5
10

$$$$
