47001
     RDKit          3D

 21 22  0  0  1  0  0  0  0  0999 V2000
    1.1147    2.2741    0.1942 O   0  0  0  0  0  0  0  0  0  0  0  0
   -1.5417    1.6439    0.8069 O   0  0  0  0  0  0  0  0  0  0  0  0
   -3.0637    2.0966   -0.8597 O   0  0  0  0  0  0  0  0  0  0  0  0
    2.8212    0.0333   -0.1145 N   0  0  0  0  0  0  0  0  0  0  0  0
    3.8216   -0.8751    0.4921 C   0  0  0  0  0  0  0  0  0  0  0  0
    3.2551   -2.3060    0.5905 C   0  0  0  0  0  0  0  0  0  0  0  0
    2.4124   -0.4402   -1.4488 C   0  0  0  0  0  0  0  0  0  0  0  0
    2.7868   -2.8268   -0.7621 C   0  0  0  0  0  0  0  0  0  0  0  0
    1.8137   -1.8438   -1.3939 C   0  0  0  0  0  0  0  0  0  0  0  0
    3.3067    1.4121   -0.2221 C   0  0  0  0  0  0  0  0  0  0  0  0
    4.2472   -0.4320    1.8992 C   0  0  0  0  0  0  0  0  0  0  0  0
    2.2031    2.3326   -0.7183 C   0  0  0  0  0  0  0  0  0  0  0  0
    0.0456    3.1163   -0.2147 C   0  0  0  0  0  0  0  0  0  0  0  0
   -1.0906    2.9928    0.7822 C   0  0  0  0  0  0  0  0  0  0  0  0
   -2.5360    1.3305   -0.0687 C   0  0  0  0  0  0  0  0  0  0  0  0
   -2.9157   -0.0993    0.0573 C   0  0  0  0  0  0  0  0  0  0  0  0
   -4.2148   -0.4712   -0.2219 C   0  0  0  0  0  0  0  0  0  0  0  0
   -1.9576   -1.0119    0.4490 C   0  0  0  0  0  0  0  0  0  0  0  0
   -4.5716   -1.8145   -0.1039 C   0  0  0  0  0  0  0  0  0  0  0  0
   -2.3146   -2.3551    0.5670 C   0  0  0  0  0  0  0  0  0  0  0  0
   -3.6217   -2.7564    0.2904 C   0  0  0  0  0  0  0  0  0  0  0  0
  1 12  1  0
  1 13  1  0
  2 14  1  0
  2 15  1  0
  3 15  2  0
  4  5  1  0
  4  7  1  0
  4 10  1  0
  5  6  1  0
  5 11  1  0
  6  8  1  0
  7  9  1  0
  8  9  1  0
 10 12  1  0
 13 14  1  0
 15 16  1  0
 16 17  2  0
 16 18  1  0
 17 19  1  0
 18 20  2  0
 19 21  2  0
 20 21  1  0
M  END
>  <PUBCHEM_COMPOUND_CID>  (1) 
47001

>  <PUBCHEM_CONFORMER_RMSD>  (1) 
1

>  <PUBCHEM_CONFORMER_DIVERSEORDER>  (1) 
9
7
300
248
51
5
137
28
173
233
201
184
185
297
43
244
250
6
308
315
287
133
318
101
277
122
34
68
11
219
246
249
284
128
37
108
296
70
320
225
55
26
309
162
322
130
29
325
145
329
58
82
2
60
239
253
123
229
50
192
80
79
311
342
331
127
304
135
91
339
47
299
251
301
278
310
164
72
268
111
120
4
314
208
93
211
32
258
148
281
39
236
90
195
78
167
209
286
84
107
206
25
153
19
193
112
226
335
343
100
118
183
77
326
103
159
66
178
282
266
1
257
273
63
158
199
280
168
38
136
3
154
64
125
59
214
179
292
181
143
147
196
104
307
140
113
203
46
42
23
332
92
210
94
328
95
283
247
98
317
254
116
174
129
35
215
33
69
242
291
157
155
67
176
256
49
295
216
327
312
198
61
177
121
262
114
334
182
62
217
41
212
161
52
245
234
40
53
119
126
285
186
269
15
303
190
189
202
152
48
205
142
305
27
306
99
200
290
36
24
324
270
260
166
156
18
298
44
141
106
87
243
31
13
97
321
336
341
227
264
255
240
160
10
170
65
74
337
172
187
83
221
45
259
12
22
144
218
313
302
134
338
75
115
14
224
289
21
228
150
138
204
191
8
89
96
213
207
180
146
71
272
86
333
316
17
288
294
131
163
171
238
110
175
149
279
222
274
319
330
267
241
81
102
271
237
20
261
230
109
263
275
169
56
76
30
188
16
232
231
151
340
139
88
124
165
57
132
105
73
117
85
223
252
235
265
323
220
197
293
194
54
276

>  <PUBCHEM_MMFF94_PARTIAL_CHARGES>  (1) 
22
1 -0.56
10 0.27
12 0.28
13 0.28
14 0.28
15 0.63
16 0.09
17 -0.15
18 -0.15
19 -0.15
2 -0.43
20 -0.15
21 -0.15
3 -0.57
4 -0.81
42 0.15
43 0.15
44 0.15
45 0.15
46 0.15
5 0.27
7 0.27

>  <PUBCHEM_EFFECTIVE_ROTOR_COUNT>  (1) 
9.2

>  <PUBCHEM_PHARMACOPHORE_FEATURES>  (1) 
5
1 1 acceptor
1 3 acceptor
1 4 cation
6 16 17 18 19 20 21 rings
6 4 5 6 7 8 9 rings

>  <PUBCHEM_HEAVY_ATOM_COUNT>  (1) 
21

>  <PUBCHEM_ATOM_DEF_STEREO_COUNT>  (1) 
0

>  <PUBCHEM_ATOM_UDEF_STEREO_COUNT>  (1) 
1

>  <PUBCHEM_BOND_DEF_STEREO_COUNT>  (1) 
0

>  <PUBCHEM_BOND_UDEF_STEREO_COUNT>  (1) 
0

>  <PUBCHEM_ISOTOPIC_ATOM_COUNT>  (1) 
0

>  <PUBCHEM_COMPONENT_COUNT>  (1) 
1

>  <PUBCHEM_CACTVS_TAUTO_COUNT>  (1) 
1

>  <PUBCHEM_CONFORMER_ID>  (1) 
0000B79900000009

>  <PUBCHEM_MMFF94_ENERGY>  (1) 
39.141

>  <PUBCHEM_FEATURE_SELFOVERLAP>  (1) 
25.371

>  <PUBCHEM_SHAPE_FINGERPRINT>  (1) 
10616163 171 18339931505581157908
12038231 1 17401771821864865527
12553582 1 18339098054371341619
12633257 1 18410019831597098147
13122387 1 18339368448227258295
13911882 115 18060421275394194150
14081887 123 18341607058407094970
14251705 54 18339930414632857053
14251757 17 18188194451942044349
14251757 5 17116664054816195726
14848160 33 18337391655412116071
14916288 52 18339933592945650950
15352361 1 18410572898535320315
15635459 17 18267311004723915915
17492 89 18409731750666112170
19930381 70 18410858797766780319
20775530 9 18335707156237522719
21315764 371 15840988996217877207
23184049 29 18338241461825318308
23557571 272 18342173328307250922
23559900 14 18411136943694820220
3680242 22 18335988571480473323
445580 102 18120102933230972579
463206 1 18053102006265013279
5309563 4 17833841838740257819
6433294 58 18265616674485557667
6823239 73 18201175273229229542
9709674 26 18341896234080923174
9795274 37 18261398900399535131

>  <PUBCHEM_SHAPE_MULTIPOLES>  (1) 
409.58
9.06
4.22
1.19
2.2
1.39
-0.07
-5.18
-1.08
0.42
0.1
-1.21
-0.24
0.16

>  <PUBCHEM_SHAPE_SELFOVERLAP>  (1) 
833.486

>  <PUBCHEM_SHAPE_VOLUME>  (1) 
237.5

>  <PUBCHEM_COORDINATE_TYPE>  (1) 
2
5
10

$$$$
