47011
     RDKit          3D

 25 27  0  0  0  0  0  0  0  0999 V2000
   -2.0208    1.3608    0.0577 O   0  0  0  0  0  0  0  0  0  0  0  0
    0.4483    1.0645    0.8923 O   0  0  0  0  0  0  0  0  0  0  0  0
    7.1334    1.8983    0.3375 O   0  0  0  0  0  0  0  0  0  0  0  0
    7.8422   -0.0453   -0.6041 O   0  0  0  0  0  0  0  0  0  0  0  0
    1.4765   -0.8142   -0.0661 N   0  0  0  0  0  0  0  0  0  0  0  0
   -3.3153   -0.6544    0.0770 C   0  0  0  0  0  0  0  0  0  0  0  0
   -0.9113   -0.7356    0.3243 C   0  0  0  0  0  0  0  0  0  0  0  0
   -2.0841   -0.0003    0.1520 C   0  0  0  0  0  0  0  0  0  0  0  0
   -4.5446    0.0877   -0.1015 C   0  0  0  0  0  0  0  0  0  0  0  0
   -3.3698   -2.0458    0.1750 C   0  0  0  0  0  0  0  0  0  0  0  0
   -0.9678   -2.1259    0.4219 C   0  0  0  0  0  0  0  0  0  0  0  0
    0.3842   -0.0744    0.4050 C   0  0  0  0  0  0  0  0  0  0  0  0
   -2.1971   -2.7810    0.3473 C   0  0  0  0  0  0  0  0  0  0  0  0
    2.8439   -0.4454   -0.0918 C   0  0  0  0  0  0  0  0  0  0  0  0
   -5.2572    0.5345    1.0114 C   0  0  0  0  0  0  0  0  0  0  0  0
   -5.0169    0.3568   -1.3861 C   0  0  0  0  0  0  0  0  0  0  0  0
    3.7736   -1.3334   -0.6052 C   0  0  0  0  0  0  0  0  0  0  0  0
    3.2193    0.7945    0.3958 C   0  0  0  0  0  0  0  0  0  0  0  0
   -6.4422    1.2501    0.8396 C   0  0  0  0  0  0  0  0  0  0  0  0
   -6.2018    1.0726   -1.5578 C   0  0  0  0  0  0  0  0  0  0  0  0
    5.5163    0.2752   -0.1444 C   0  0  0  0  0  0  0  0  0  0  0  0
    5.1201   -0.9702   -0.6315 C   0  0  0  0  0  0  0  0  0  0  0  0
    4.5659    1.1576    0.3693 C   0  0  0  0  0  0  0  0  0  0  0  0
   -6.9144    1.5192   -0.4449 C   0  0  0  0  0  0  0  0  0  0  0  0
    6.9200    0.6544   -0.1727 C   0  0  0  0  0  0  0  0  0  0  0  0
  1  8  1  0
  2 12  2  0
  3 25  1  0
  4 25  2  0
  5 12  1  0
  5 14  1  0
  6  8  2  0
  6  9  1  0
  6 10  1  0
  7  8  1  0
  7 11  2  0
  7 12  1  0
  9 15  2  0
  9 16  1  0
 10 13  2  0
 11 13  1  0
 14 17  2  0
 14 18  1  0
 15 19  1  0
 16 20  2  0
 17 22  1  0
 18 23  2  0
 19 24  2  0
 20 24  1  0
 21 22  2  0
 21 23  1  0
 21 25  1  0
M  END
>  <PUBCHEM_COMPOUND_CID>  (1) 
47011

>  <PUBCHEM_CONFORMER_RMSD>  (1) 
0.8

>  <PUBCHEM_CONFORMER_DIVERSEORDER>  (1) 
1
3
2
5
6
4

>  <PUBCHEM_MMFF94_PARTIAL_CHARGES>  (1) 
38
1 -0.53
10 -0.15
11 -0.15
12 0.54
13 -0.15
14 0.12
15 -0.15
16 -0.15
17 -0.15
18 -0.15
19 -0.15
2 -0.57
20 -0.15
21 0.09
22 -0.15
23 -0.15
24 -0.15
25 0.63
26 0.15
27 0.15
28 0.15
29 0.37
3 -0.65
30 0.15
31 0.15
32 0.15
33 0.15
34 0.15
35 0.15
36 0.15
37 0.15
38 0.15
39 0.45
4 -0.57
40 0.5
5 -0.55
7 0.09
8 0.08

>  <PUBCHEM_EFFECTIVE_ROTOR_COUNT>  (1) 
5

>  <PUBCHEM_PHARMACOPHORE_FEATURES>  (1) 
9
1 1 donor
1 2 acceptor
1 3 acceptor
1 4 acceptor
1 5 donor
3 3 4 25 anion
6 14 17 18 21 22 23 rings
6 6 7 8 10 11 13 rings
6 9 15 16 19 20 24 rings

>  <PUBCHEM_HEAVY_ATOM_COUNT>  (1) 
25

>  <PUBCHEM_ATOM_DEF_STEREO_COUNT>  (1) 
0

>  <PUBCHEM_ATOM_UDEF_STEREO_COUNT>  (1) 
0

>  <PUBCHEM_BOND_DEF_STEREO_COUNT>  (1) 
0

>  <PUBCHEM_BOND_UDEF_STEREO_COUNT>  (1) 
0

>  <PUBCHEM_ISOTOPIC_ATOM_COUNT>  (1) 
0

>  <PUBCHEM_COMPONENT_COUNT>  (1) 
1

>  <PUBCHEM_CACTVS_TAUTO_COUNT>  (1) 
11

>  <PUBCHEM_CONFORMER_ID>  (1) 
0000B7A300000001

>  <PUBCHEM_MMFF94_ENERGY>  (1) 
90.8675

>  <PUBCHEM_FEATURE_SELFOVERLAP>  (1) 
45.729

>  <PUBCHEM_SHAPE_FINGERPRINT>  (1) 
10 15 17748828506039627169
10066227 112 18409447002992438980
10165383 225 18408040690020491841
10411042 1 17831864921640934019
10835480 77 18271241729198313016
10906281 52 18059591173583719859
11315181 36 17561368408574176835
11719270 70 18131067118183187790
12236239 1 17313099752648703626
12616971 3 16588309431677135286
12788726 201 17988363654932296481
13073987 5 9006794072491252252
13533116 47 18059010575926742506
13668630 136 14405183979979946692
14790565 3 18124319311900757441
14856354 85 15574723508325269411
15183329 4 18201998811342958553
15849732 13 17748830708925275039
17093844 174 18335982064109082691
17780758 139 12540695908488092997
18222031 100 14261632833111469338
18608769 82 18338239362531095531
19489759 90 13542467557824260483
20281389 69 18040714757852631349
20681677 155 18187364350174333451
21033648 29 18200020872156592520
21150785 3 16845569829233055989
21236236 1 18410855504049097219
21756936 100 17167860881296495427
2215653 11 17988924466039391766
22224240 67 13551194394156195713
22288116 15 17631722877019235631
23198884 109 17561081393812340425
23559900 14 18272085045747028592
23576562 1 17202472489242237012
293599 30 18334856100373835675
29717793 49 17346605153771407980
300161 21 18407757045368112362
335352 9 18411138052060341125
3545911 37 18410294718257416074
4073 2 18261679276650731530
4938544 92 12685357527973488647
57724786 102 15503232222899862078
59755656 215 18412265008961609798
6328613 192 18412547630077806240
636775 72 18343017809093713192
7226269 152 18412263926403134337

>  <PUBCHEM_SHAPE_MULTIPOLES>  (1) 
486.03
20.8
2.01
0.98
16.32
1.05
0.18
-11.13
3.48
-1.07
-0.19
-1.17
-0.19
0.99

>  <PUBCHEM_SHAPE_SELFOVERLAP>  (1) 
1074.731

>  <PUBCHEM_SHAPE_VOLUME>  (1) 
260

>  <PUBCHEM_COORDINATE_TYPE>  (1) 
2
5
10

$$$$
