47012
     RDKit          3D

 23 24  0  0  1  0  0  0  0  0999 V2000
   -0.8619   -1.4704    0.4108 O   0  0  0  0  0  0  0  0  0  0  0  0
   -0.1716   -2.3794   -1.5883 O   0  0  0  0  0  0  0  0  0  0  0  0
    4.7933    1.1871    0.2630 O   0  0  0  0  0  0  0  0  0  0  0  0
   -3.9226    0.1841    0.4420 N   0  0  0  0  0  0  0  0  0  0  0  0
   -3.7329    1.6353    0.2145 C   0  0  0  0  0  0  0  0  0  0  0  0
   -4.4995    2.0843   -1.0459 C   0  0  0  0  0  0  0  0  0  0  0  0
   -5.3515   -0.1517    0.5742 C   0  0  0  0  0  0  0  0  0  0  0  0
   -5.9783    1.7273   -0.9697 C   0  0  0  0  0  0  0  0  0  0  0  0
   -6.1451    0.2462   -0.6681 C   0  0  0  0  0  0  0  0  0  0  0  0
   -3.2044   -0.2978    1.6254 C   0  0  0  0  0  0  0  0  0  0  0  0
   -2.2567    2.0188    0.0378 C   0  0  0  0  0  0  0  0  0  0  0  0
   -2.9587   -1.7995    1.5206 C   0  0  0  0  0  0  0  0  0  0  0  0
   -2.1088   -2.1432    0.3048 C   0  0  0  0  0  0  0  0  0  0  0  0
    0.0184   -1.6764   -0.6079 C   0  0  0  0  0  0  0  0  0  0  0  0
    1.2768   -0.9228   -0.3777 C   0  0  0  0  0  0  0  0  0  0  0  0
    2.3146   -0.9983   -1.3068 C   0  0  0  0  0  0  0  0  0  0  0  0
    1.4211   -0.1388    0.7669 C   0  0  0  0  0  0  0  0  0  0  0  0
    3.6408    0.4942    0.0536 C   0  0  0  0  0  0  0  0  0  0  0  0
    3.4966   -0.2898   -1.0912 C   0  0  0  0  0  0  0  0  0  0  0  0
    2.6030    0.5696    0.9826 C   0  0  0  0  0  0  0  0  0  0  0  0
    5.9927    0.6291   -0.2714 C   0  0  0  0  0  0  0  0  0  0  0  0
    7.1585    1.0202    0.6238 C   0  0  0  0  0  0  0  0  0  0  0  0
    8.4764    0.4718    0.1069 C   0  0  0  0  0  0  0  0  0  0  0  0
  1 13  1  0
  1 14  1  0
  2 14  2  0
  3 18  1  0
  3 21  1  0
  4  5  1  0
  4  7  1  0
  4 10  1  0
  5  6  1  0
  5 11  1  0
  6  8  1  0
  7  9  1  0
  8  9  1  0
 10 12  1  0
 12 13  1  0
 14 15  1  0
 15 16  2  0
 15 17  1  0
 16 19  1  0
 17 20  2  0
 18 19  2  0
 18 20  1  0
 21 22  1  0
 22 23  1  0
M  END
>  <PUBCHEM_COMPOUND_CID>  (1) 
47012

>  <PUBCHEM_CONFORMER_RMSD>  (1) 
1

>  <PUBCHEM_CONFORMER_DIVERSEORDER>  (1) 
6
12
136
14
8
160
46
103
28
99
163
92
94
24
128
146
42
7
1
112
34
165
100
133
156
15
124
3
59
52
30
40
164
102
80
27
144
53
170
138
130
20
117
21
134
140
45
55
159
51
32
93
39
68
70
67
127
69
109
76
61
88
58
35
41
65
111
54
50
84
63
168
19
171
37
5
157
126
33
43
131
119
49
115
135
85
9
121
91
31
97
162
44
152
105
83
36
139
4
57
120
38
158
22
142
16
66
56
129
118
122
148
141
78
101
26
151
155
106
75
96
114
143
73
72
23
125
47
167
123
166
107
81
11
79
95
77
13
60
113
98
149
110
10
108
25
161
86
132
71
17
153
147
150
82
48
116
18
74
145
169
89
154
137
90
2
104
29
64
87
62

>  <PUBCHEM_MMFF94_PARTIAL_CHARGES>  (1) 
20
1 -0.43
10 0.27
13 0.28
14 0.63
15 0.09
16 -0.15
17 -0.15
18 0.08
19 -0.15
2 -0.57
20 -0.15
21 0.28
3 -0.36
4 -0.81
42 0.15
43 0.15
44 0.15
45 0.15
5 0.27
7 0.27

>  <PUBCHEM_EFFECTIVE_ROTOR_COUNT>  (1) 
10.2

>  <PUBCHEM_PHARMACOPHORE_FEATURES>  (1) 
6
1 2 acceptor
1 23 hydrophobe
1 3 acceptor
1 4 cation
6 15 16 17 18 19 20 rings
6 4 5 6 7 8 9 rings

>  <PUBCHEM_HEAVY_ATOM_COUNT>  (1) 
23

>  <PUBCHEM_ATOM_DEF_STEREO_COUNT>  (1) 
0

>  <PUBCHEM_ATOM_UDEF_STEREO_COUNT>  (1) 
1

>  <PUBCHEM_BOND_DEF_STEREO_COUNT>  (1) 
0

>  <PUBCHEM_BOND_UDEF_STEREO_COUNT>  (1) 
0

>  <PUBCHEM_ISOTOPIC_ATOM_COUNT>  (1) 
0

>  <PUBCHEM_COMPONENT_COUNT>  (1) 
1

>  <PUBCHEM_CACTVS_TAUTO_COUNT>  (1) 
1

>  <PUBCHEM_CONFORMER_ID>  (1) 
0000B7A400000006

>  <PUBCHEM_MMFF94_ENERGY>  (1) 
43.4067

>  <PUBCHEM_FEATURE_SELFOVERLAP>  (1) 
30.446

>  <PUBCHEM_SHAPE_FINGERPRINT>  (1) 
10 15 18335984255386565032
10498660 4 18335705979970468737
10554248 39 16701752622632512140
10577160 183 17846207844539669766
12236239 1 16732706077232970394
12596602 18 16588596425233016961
12633257 1 12468651512425859769
13103583 49 14996291331198541483
13402501 40 18412824681422909137
13673619 4 10087633810857869111
13941219 33 14056993914977306296
14251764 30 13110664104643393613
15142383 8 18334292072884601016
15183329 4 15985103003430732676
15238133 3 17385732400084675012
15461852 350 18342176712788881758
15527383 91 13695591056944914063
20281389 69 18410855495274189248
20567600 254 18411974750180686316
21033648 144 18272658922145048271
21033648 29 18115319886399756223
21150785 3 14045742634529268576
21403212 168 10809612685915614095
23198884 109 15482674580384985172
23522609 53 16081672036151679982
23559900 14 17970082049538989807
2838139 119 18410288142256654997
341906 21 17822302262379955743
4028521 119 18411140200087236363
4938544 92 18114180882247110818
59755656 520 18260820518634153702
6086070 43 17131540739661361234
9981440 41 17894638020222963587
999808 66 9943527440144169837

>  <PUBCHEM_SHAPE_MULTIPOLES>  (1) 
450.74
18.58
2.23
1.3
24.23
0.31
0.03
-10.67
-0.27
-2.65
0.34
-0.56
0.39
1.8

>  <PUBCHEM_SHAPE_SELFOVERLAP>  (1) 
912.586

>  <PUBCHEM_SHAPE_VOLUME>  (1) 
263.3

>  <PUBCHEM_COORDINATE_TYPE>  (1) 
2
5
10

$$$$
