47025
     RDKit          3D

 18 18  0  0  0  0  0  0  0  0999 V2000
    1.9638   -0.4056   -0.8629 O   0  0  0  0  0  0  0  0  0  0  0  0
    2.2964   -1.4991    1.1618 O   0  0  0  0  0  0  0  0  0  0  0  0
   -3.5292   -0.3215    0.2159 N   0  0  0  0  0  0  0  0  0  0  0  0
    4.0846   -1.0074   -0.2318 N   0  0  0  0  0  0  0  0  0  0  0  0
   -2.0271   -0.3395   -0.0779 C   0  0  0  0  0  0  0  0  0  0  0  0
   -3.8783   -1.5426    1.0621 C   0  0  0  0  0  0  0  0  0  0  0  0
   -4.2886   -0.3430   -1.1077 C   0  0  0  0  0  0  0  0  0  0  0  0
   -3.9520    0.9277    0.9860 C   0  0  0  0  0  0  0  0  0  0  0  0
   -1.3035    0.7181    0.3615 C   0  0  0  0  0  0  0  0  0  0  0  0
    0.0656    0.7009    0.0953 C   0  0  0  0  0  0  0  0  0  0  0  0
   -1.5471   -1.4122   -0.7515 C   0  0  0  0  0  0  0  0  0  0  0  0
    0.9137    1.8402    0.5559 C   0  0  0  0  0  0  0  0  0  0  0  0
    0.6285   -0.3730   -0.5943 C   0  0  0  0  0  0  0  0  0  0  0  0
   -0.1778   -1.4295   -1.0180 C   0  0  0  0  0  0  0  0  0  0  0  0
    1.0120    2.9523   -0.4968 C   0  0  0  0  0  0  0  0  0  0  0  0
    1.8491    4.1236   -0.0078 C   0  0  0  0  0  0  0  0  0  0  0  0
    2.7525   -1.0222    0.1269 C   0  0  0  0  0  0  0  0  0  0  0  0
    5.1374   -1.5672    0.5834 C   0  0  0  0  0  0  0  0  0  0  0  0
  1 13  1  0
  1 17  1  0
  2 17  2  0
  3  5  1  0
  3  6  1  0
  3  7  1  0
  3  8  1  0
  4 17  1  0
  4 18  1  0
  5  9  2  0
  5 11  1  0
  9 10  1  0
 10 12  1  0
 10 13  2  0
 11 14  2  0
 12 15  1  0
 13 14  1  0
 15 16  1  0
M  CHG  1   3   1
M  END
>  <PUBCHEM_COMPOUND_CID>  (1) 
47025

>  <PUBCHEM_CONFORMER_RMSD>  (1) 
0.8

>  <PUBCHEM_CONFORMER_DIVERSEORDER>  (1) 
2
10
19
23
6
18
21
8
26
24
22
17
25
20
16
12
1
27
4
11
14
15
3
5
9
13
7

>  <PUBCHEM_MMFF94_PARTIAL_CHARGES>  (1) 
20
1 -0.23
10 -0.14
11 -0.15
12 0.14
13 0.08
14 -0.15
17 0.78
18 0.3
2 -0.57
28 0.15
29 0.15
3 -0.87
32 0.15
38 0.37
4 -0.73
5 0.36
6 0.5
7 0.5
8 0.5
9 -0.15

>  <PUBCHEM_EFFECTIVE_ROTOR_COUNT>  (1) 
6

>  <PUBCHEM_PHARMACOPHORE_FEATURES>  (1) 
5
1 16 hydrophobe
1 2 acceptor
1 3 cation
1 4 donor
6 5 9 10 11 13 14 rings

>  <PUBCHEM_HEAVY_ATOM_COUNT>  (1) 
18

>  <PUBCHEM_ATOM_DEF_STEREO_COUNT>  (1) 
0

>  <PUBCHEM_ATOM_UDEF_STEREO_COUNT>  (1) 
0

>  <PUBCHEM_BOND_DEF_STEREO_COUNT>  (1) 
0

>  <PUBCHEM_BOND_UDEF_STEREO_COUNT>  (1) 
0

>  <PUBCHEM_ISOTOPIC_ATOM_COUNT>  (1) 
0

>  <PUBCHEM_COMPONENT_COUNT>  (1) 
1

>  <PUBCHEM_CACTVS_TAUTO_COUNT>  (1) 
2

>  <PUBCHEM_CONFORMER_ID>  (1) 
0000B7B100000002

>  <PUBCHEM_MMFF94_ENERGY>  (1) 
61.9414

>  <PUBCHEM_FEATURE_SELFOVERLAP>  (1) 
25.371

>  <PUBCHEM_SHAPE_FINGERPRINT>  (1) 
10465860 250 18334574603431704066
10756046 70 18059004107125188092
107951 10 17328044555713316308
10989021 7 18411418414930789180
11578080 2 17749654264588724012
12403260 363 18271804653471198399
124424 183 18334011671069686631
12592029 89 18050013486740134552
12633257 1 18124346954352973323
12644460 14 18265911326226786489
12788726 201 17971470702733348922
13134695 92 18408316687816934045
13140716 1 18199753699168217755
13583140 156 18187641436206111551
14022349 108 18269275823545017312
14181834 199 18341053028995571069
14787075 74 18041288733467175586
15042514 8 18049725114240774248
15163728 17 11743566556149296330
15375462 189 18260827073096918002
16945 1 18272662242207314287
17041 49 18339371790012339057
17980427 23 17847058861601009345
1813 80 18271815588088688766
18222031 100 18272082786467734102
18785283 64 17899417768724965260
200 152 16298392318799644202
20097449 115 18410292480358285536
20600515 1 18202007603346650788
20671657 1 18267870655963469757
20681677 274 18190752023262590219
21029758 27 18410579470130708356
21033648 29 17631716180600764171
21501502 16 18056761163945809191
21524375 3 17622451957581607461
2255824 54 18339365282878240948
2297311 6 18270409274637408230
23175994 123 18336264561335501879
23366157 5 18117556456032673676
23402539 116 18201148845863044190
23419403 2 18115566228217341636
23557571 272 18126856988916502844
23559900 14 18335129943103860763
25147074 1 17844246452833451767
2748010 2 17770234755933793375
305870 269 17977946014018923836
3071541 12 18267588090249753612
3091708 16 9428527167514816984
312423 11 18199194052265978711
314173 85 18340487760128951102
3286 77 18261118516834991375
4175511 71 18412548699518959388
43471831 8 17619342551746299220
4409770 3 17827911828391154421
5104073 3 18196111021951969579
69474 34 18343291557718942520
7364860 26 18268711782527529788
7495541 125 18187941611443795539
74978 22 18338796822882939303
81228 2 17838920151698312281
81539 233 18046624787318243493
90316 7 18194680371986406792
9981440 41 17546997993626677240

>  <PUBCHEM_SHAPE_MULTIPOLES>  (1) 
348.73
8
3.18
1.06
0.42
4.49
0.02
-4.42
1.62
3.34
0
-0.51
-0.26
-0.55

>  <PUBCHEM_SHAPE_SELFOVERLAP>  (1) 
703.567

>  <PUBCHEM_SHAPE_VOLUME>  (1) 
205.9

>  <PUBCHEM_COORDINATE_TYPE>  (1) 
2
5
10

$$$$
