47021
     RDKit          3D

 20 21  0  0  0  0  0  0  0  0999 V2000
    0.0330   -0.9505   -0.9888 O   0  0  0  0  0  0  0  0  0  0  0  0
    0.8373   -0.0754    0.9983 O   0  0  0  0  0  0  0  0  0  0  0  0
   -4.2275    1.1849   -0.1017 N   0  0  0  0  0  0  0  0  0  0  0  0
    2.2582   -0.4506   -0.8246 N   0  0  0  0  0  0  0  0  0  0  0  0
   -3.2864   -0.0153    0.0268 C   0  0  0  0  0  0  0  0  0  0  0  0
   -4.5744    1.6883    1.2965 C   0  0  0  0  0  0  0  0  0  0  0  0
   -5.4842    0.7458   -0.8481 C   0  0  0  0  0  0  0  0  0  0  0  0
   -3.5919    2.3365   -0.8779 C   0  0  0  0  0  0  0  0  0  0  0  0
   -2.0660    0.0980   -0.5503 C   0  0  0  0  0  0  0  0  0  0  0  0
   -3.7529   -1.0898    0.7072 C   0  0  0  0  0  0  0  0  0  0  0  0
   -1.2084   -0.9958   -0.4329 C   0  0  0  0  0  0  0  0  0  0  0  0
   -2.8954   -2.1835    0.8245 C   0  0  0  0  0  0  0  0  0  0  0  0
   -1.6231   -2.1365    0.2547 C   0  0  0  0  0  0  0  0  0  0  0  0
    1.0521   -0.4462   -0.1501 C   0  0  0  0  0  0  0  0  0  0  0  0
    3.5215   -0.0297   -0.3509 C   0  0  0  0  0  0  0  0  0  0  0  0
    4.6231   -0.1134   -1.1879 C   0  0  0  0  0  0  0  0  0  0  0  0
    3.6346    0.4592    0.9410 C   0  0  0  0  0  0  0  0  0  0  0  0
    5.8699    0.3024   -0.7208 C   0  0  0  0  0  0  0  0  0  0  0  0
    4.8815    0.8750    1.4080 C   0  0  0  0  0  0  0  0  0  0  0  0
    5.9991    0.7966    0.5769 C   0  0  0  0  0  0  0  0  0  0  0  0
  1 11  1  0
  1 14  1  0
  2 14  2  0
  3  5  1  0
  3  6  1  0
  3  7  1  0
  3  8  1  0
  4 14  1  0
  4 15  1  0
  5  9  2  0
  5 10  1  0
  9 11  1  0
 10 12  2  0
 11 13  2  0
 12 13  1  0
 15 16  2  0
 15 17  1  0
 16 18  1  0
 17 19  2  0
 18 20  2  0
 19 20  1  0
M  CHG  1   3   1
M  END
>  <PUBCHEM_COMPOUND_CID>  (1) 
47021

>  <PUBCHEM_CONFORMER_RMSD>  (1) 
0.8

>  <PUBCHEM_CONFORMER_DIVERSEORDER>  (1) 
1
38
22
26
30
19
17
32
27
3
35
28
10
4
31
11
39
20
18
36
8
2
34
12
25
23
9
21
16
7
14
13
24
29
33
15
37
5
6

>  <PUBCHEM_MMFF94_PARTIAL_CHARGES>  (1) 
30
1 -0.23
10 -0.15
11 0.08
12 -0.15
13 -0.15
14 0.78
15 0.12
16 -0.15
17 -0.15
18 -0.15
19 -0.15
2 -0.57
20 -0.15
3 -0.87
30 0.15
31 0.15
32 0.15
33 0.15
34 0.37
35 0.15
36 0.15
37 0.15
38 0.15
39 0.15
4 -0.55
5 0.36
6 0.5
7 0.5
8 0.5
9 -0.15

>  <PUBCHEM_EFFECTIVE_ROTOR_COUNT>  (1) 
5

>  <PUBCHEM_PHARMACOPHORE_FEATURES>  (1) 
5
1 2 acceptor
1 3 cation
1 4 donor
6 15 16 17 18 19 20 rings
6 5 9 10 11 12 13 rings

>  <PUBCHEM_HEAVY_ATOM_COUNT>  (1) 
20

>  <PUBCHEM_ATOM_DEF_STEREO_COUNT>  (1) 
0

>  <PUBCHEM_ATOM_UDEF_STEREO_COUNT>  (1) 
0

>  <PUBCHEM_BOND_DEF_STEREO_COUNT>  (1) 
0

>  <PUBCHEM_BOND_UDEF_STEREO_COUNT>  (1) 
0

>  <PUBCHEM_ISOTOPIC_ATOM_COUNT>  (1) 
0

>  <PUBCHEM_COMPONENT_COUNT>  (1) 
1

>  <PUBCHEM_CACTVS_TAUTO_COUNT>  (1) 
2

>  <PUBCHEM_CONFORMER_ID>  (1) 
0000B7AD00000001

>  <PUBCHEM_MMFF94_ENERGY>  (1) 
84.3646

>  <PUBCHEM_FEATURE_SELFOVERLAP>  (1) 
25.371

>  <PUBCHEM_SHAPE_FINGERPRINT>  (1) 
10014705 185 17846494876507300070
10680689 15 18201158853073683142
10912923 1 17168143490118100526
11089746 13 17918267645842056014
11128504 68 13614517485039603474
11315181 36 17677049156614604230
11552529 35 16010177468558770808
12107183 9 17535450536169912624
12236239 1 17022902371590635046
12403259 415 18059581325445386066
12596602 18 16298393465118270361
12616971 3 16443345399371131294
12633257 1 17967532393484325132
12969540 114 17489580156378060900
13402501 40 18202559570737088504
13583140 156 18201719591345865142
13675066 3 18200879577647495310
13760787 5 15985114028537882466
13941219 33 12973879278542305809
14341114 328 17385443219941909708
14528608 73 13326571887216673082
14573314 32 18202569466773579516
15183329 4 17917997135932604882
15209294 21 18040995137523108251
15788980 27 18060419144694620486
15880784 105 13551484660820321117
16079462 125 17989197175478553040
17349148 13 13110966448269718934
17780758 139 14057004914636568333
17844677 252 18338523061783439480
1813 80 15213304084520140366
19489759 90 18410290332916653671
200 152 14117801314550584506
20281389 69 18333728005417120228
20645477 56 18409168805339123007
20645477 70 16988568970526551766
21033648 29 17846208986483362752
21150785 3 13973957744949862032
23198884 109 17203891842963034981
23402539 116 18261387883861051462
23557571 272 18339938085513247158
23559900 14 18339093592423113206
25122255 55 10809613784673361472
2838139 119 17846778464455166961
2916195 48 18201433679435601873
300161 21 18187077356359565862
3545911 37 18411704270388818606
4325135 7 9583225155356046730
5104073 3 18335424530120413178
5385378 56 18266748986905381987
542803 24 17749110011044159374
573450 72 17822288028505064746
59682541 35 18339658772218591241
90127 26 18271810172293170834
9981440 41 18187647951919283651

>  <PUBCHEM_SHAPE_MULTIPOLES>  (1) 
389.89
14.63
1.87
1.24
12.48
0.12
-0.16
-6.35
-0.7
-3.18
-0.21
0.44
-0.23
0.97

>  <PUBCHEM_SHAPE_SELFOVERLAP>  (1) 
824.105

>  <PUBCHEM_SHAPE_VOLUME>  (1) 
220

>  <PUBCHEM_COORDINATE_TYPE>  (1) 
2
5
10

$$$$
