47031
     RDKit          3D

 20 20  0  0  0  0  0  0  0  0999 V2000
    1.6387   -0.2209    0.5919 O   0  0  0  0  0  0  0  0  0  0  0  0
    2.4807    0.3309   -1.5040 O   0  0  0  0  0  0  0  0  0  0  0  0
   -0.8034   -1.5180    0.1294 N   0  0  0  0  0  0  0  0  0  0  0  0
    3.9024   -0.2404    0.2379 N   0  0  0  0  0  0  0  0  0  0  0  0
   -0.7035    0.0090    0.1623 C   0  0  0  0  0  0  0  0  0  0  0  0
    0.5481   -2.1901    0.3619 C   0  0  0  0  0  0  0  0  0  0  0  0
   -1.8469    0.7101   -0.0415 C   0  0  0  0  0  0  0  0  0  0  0  0
   -1.3178   -1.9464   -1.2420 C   0  0  0  0  0  0  0  0  0  0  0  0
   -1.7554   -1.9718    1.2325 C   0  0  0  0  0  0  0  0  0  0  0  0
   -3.1791    0.0824   -0.2929 C   0  0  0  0  0  0  0  0  0  0  0  0
    0.5236    0.5400    0.3936 C   0  0  0  0  0  0  0  0  0  0  0  0
    0.3673   -3.6923    0.3437 C   0  0  0  0  0  0  0  0  0  0  0  0
   -1.7528    2.1017   -0.0109 C   0  0  0  0  0  0  0  0  0  0  0  0
    0.6177    1.9314    0.4248 C   0  0  0  0  0  0  0  0  0  0  0  0
   -0.5205    2.7122    0.2224 C   0  0  0  0  0  0  0  0  0  0  0  0
   -3.7478    0.4482   -1.6759 C   0  0  0  0  0  0  0  0  0  0  0  0
   -4.2046    0.4242    0.8032 C   0  0  0  0  0  0  0  0  0  0  0  0
    1.9275    2.6042    0.6731 C   0  0  0  0  0  0  0  0  0  0  0  0
    2.6712   -0.0095   -0.3403 C   0  0  0  0  0  0  0  0  0  0  0  0
    5.1546   -0.1050   -0.4693 C   0  0  0  0  0  0  0  0  0  0  0  0
  1 11  1  0
  1 19  1  0
  2 19  2  0
  3  5  1  0
  3  6  1  0
  3  8  1  0
  3  9  1  0
  4 19  1  0
  4 20  1  0
  5  7  2  0
  5 11  1  0
  6 12  1  0
  7 10  1  0
  7 13  1  0
 10 16  1  0
 10 17  1  0
 11 14  2  0
 13 15  2  0
 14 15  1  0
 14 18  1  0
M  CHG  1   3   1
M  END
>  <PUBCHEM_COMPOUND_CID>  (1) 
47031

>  <PUBCHEM_CONFORMER_RMSD>  (1) 
0.8

>  <PUBCHEM_CONFORMER_DIVERSEORDER>  (1) 
1
4
3
5
6
2

>  <PUBCHEM_MMFF94_PARTIAL_CHARGES>  (1) 
20
1 -0.23
10 0.14
11 0.08
13 -0.15
14 -0.14
15 -0.15
18 0.14
19 0.78
2 -0.57
20 0.3
3 -0.87
30 0.15
34 0.15
4 -0.73
44 0.37
5 0.36
6 0.5
7 -0.14
8 0.5
9 0.5

>  <PUBCHEM_EFFECTIVE_ROTOR_COUNT>  (1) 
6

>  <PUBCHEM_PHARMACOPHORE_FEATURES>  (1) 
5
1 2 acceptor
1 3 cation
1 4 donor
3 10 16 17 hydrophobe
6 5 7 11 13 14 15 rings

>  <PUBCHEM_HEAVY_ATOM_COUNT>  (1) 
20

>  <PUBCHEM_ATOM_DEF_STEREO_COUNT>  (1) 
0

>  <PUBCHEM_ATOM_UDEF_STEREO_COUNT>  (1) 
0

>  <PUBCHEM_BOND_DEF_STEREO_COUNT>  (1) 
0

>  <PUBCHEM_BOND_UDEF_STEREO_COUNT>  (1) 
0

>  <PUBCHEM_ISOTOPIC_ATOM_COUNT>  (1) 
0

>  <PUBCHEM_COMPONENT_COUNT>  (1) 
1

>  <PUBCHEM_CACTVS_TAUTO_COUNT>  (1) 
2

>  <PUBCHEM_CONFORMER_ID>  (1) 
0000B7B700000001

>  <PUBCHEM_MMFF94_ENERGY>  (1) 
122.0928

>  <PUBCHEM_FEATURE_SELFOVERLAP>  (1) 
25.371

>  <PUBCHEM_SHAPE_FINGERPRINT>  (1) 
10693767 8 18058709331010048911
10906281 52 18129680680753278372
10967382 1 18410854330578169395
11680986 33 18195525019975471225
12035758 1 18339089292627554451
12035759 4 18057579093502176471
12553582 1 18339916039461882361
13140716 1 18339645662828273441
14115302 16 18187654630197737740
14790565 3 18339655463723006089
14911166 2 18410849962649378269
15099037 51 18412262839311983260
15163728 17 16589999191811659271
15209289 33 18343306946238578433
16752209 62 18338226064394234672
16945 1 18339912741275009153
18186145 218 18340196475399554477
193761 8 17906451387092804057
19591789 44 18337675342397327979
20028762 73 18057329594652839103
20510252 161 18271248197171167032
20600515 1 18343032102950225308
20645476 183 17603583045152616667
20905425 154 17981327793926357703
21029758 11 18272364269976714248
21501502 16 18054506073844290076
22182313 1 18121212340526416177
22713019 99 18343011203559728597
22802520 49 18269279138906075504
2334 1 18050562138630921473
23402539 116 18272083864530866692
23493267 7 17240476988439109969
23559900 14 18341051900415969792
238 59 17829564523828007733
25 1 18334568010957429175
2748010 2 18193836174568157177
3060560 45 18266155340962770245
3084891 72 18410571777823448490
3250762 1 17834954552717401232
350125 39 18192158302902823139
43471831 8 18192431874923600298
5845 1 11023007112728909211
589210 1 17834399295018719445
81228 2 18057065548352098592
8809292 202 18339644537736758536
9709674 26 18053375788981365152
9925002 15 17768488821437170007

>  <PUBCHEM_SHAPE_MULTIPOLES>  (1) 
389.89
6.43
3.32
1.12
3.94
1.39
0.32
-0.88
1.42
0.07
-0.74
-0.55
0.18
0.23

>  <PUBCHEM_SHAPE_SELFOVERLAP>  (1) 
799.576

>  <PUBCHEM_SHAPE_VOLUME>  (1) 
226.7

>  <PUBCHEM_COORDINATE_TYPE>  (1) 
2
5
10

$$$$
