47039
     RDKit          3D

 19 19  0  0  0  0  0  0  0  0999 V2000
   -2.1696    0.3505    0.9549 O   0  0  0  0  0  0  0  0  0  0  0  0
    1.1619   -1.4684   -1.2166 O   0  0  0  0  0  0  0  0  0  0  0  0
   -2.3383   -0.9878   -0.9391 O   0  0  0  0  0  0  0  0  0  0  0  0
    2.6490    0.2052    0.5273 N   0  0  0  0  0  0  0  0  0  0  0  0
   -3.9256   -1.1096    0.7484 N   0  0  0  0  0  0  0  0  0  0  0  0
    2.5178   -1.2975    0.7662 C   0  0  0  0  0  0  0  0  0  0  0  0
    1.3040    0.8589    0.2007 C   0  0  0  0  0  0  0  0  0  0  0  0
    3.2082    0.8414    1.7967 C   0  0  0  0  0  0  0  0  0  0  0  0
    3.5968    0.4179   -0.6496 C   0  0  0  0  0  0  0  0  0  0  0  0
    0.1987    0.2888    0.7381 C   0  0  0  0  0  0  0  0  0  0  0  0
    1.3326    1.9534   -0.5971 C   0  0  0  0  0  0  0  0  0  0  0  0
    1.9564   -2.0022   -0.4439 C   0  0  0  0  0  0  0  0  0  0  0  0
   -1.0266    0.8854    0.4411 C   0  0  0  0  0  0  0  0  0  0  0  0
   -1.0726    2.0157   -0.3750 C   0  0  0  0  0  0  0  0  0  0  0  0
    0.1070    2.5496   -0.8940 C   0  0  0  0  0  0  0  0  0  0  0  0
    2.4252   -3.4164   -0.6650 C   0  0  0  0  0  0  0  0  0  0  0  0
   -2.3752    2.6676   -0.7022 C   0  0  0  0  0  0  0  0  0  0  0  0
   -2.7804   -0.6284    0.1482 C   0  0  0  0  0  0  0  0  0  0  0  0
   -4.7693   -2.1241    0.1608 C   0  0  0  0  0  0  0  0  0  0  0  0
  1 13  1  0
  1 18  1  0
  2 12  2  0
  3 18  2  0
  4  6  1  0
  4  7  1  0
  4  8  1  0
  4  9  1  0
  5 18  1  0
  5 19  1  0
  6 12  1  0
  7 10  2  0
  7 11  1  0
 10 13  1  0
 11 15  2  0
 12 16  1  0
 13 14  2  0
 14 15  1  0
 14 17  1  0
M  CHG  1   4   1
M  END
>  <PUBCHEM_COMPOUND_CID>  (1) 
47039

>  <PUBCHEM_CONFORMER_RMSD>  (1) 
0.8

>  <PUBCHEM_CONFORMER_DIVERSEORDER>  (1) 
1
72
38
120
146
152
110
34
66
104
165
90
114
93
58
109
144
132
129
27
61
47
118
134
127
138
26
98
84
145
88
51
159
74
106
166
161
30
122
71
148
121
143
131
119
164
96
92
39
60
73
85
128
133
102
18
16
156
79
78
124
113
64
29
69
46
23
13
95
62
17
31
126
103
99
67
86
33
80
136
36
54
97
149
108
107
21
141
123
111
63
59
25
50
137
142
117
32
115
89
154
35
77
101
139
40
140
160
151
75
162
130
81
65
87
157
24
147
100
94
37
41
163
19
112
155
76
49
7
48
153
52
22
45
82
11
91
4
57
158
125
70
15
83
42
55
105
43
44
116
12
68
56
10
20
6
2
53
14
135
150
3
9
5
28
8

>  <PUBCHEM_MMFF94_PARTIAL_CHARGES>  (1) 
23
1 -0.23
10 -0.15
11 -0.15
12 0.45
13 0.08
14 -0.14
15 -0.15
16 0.06
17 0.14
18 0.78
19 0.3
2 -0.57
28 0.15
29 0.15
3 -0.57
30 0.15
37 0.37
4 -0.87
5 -0.73
6 0.56
7 0.36
8 0.5
9 0.5

>  <PUBCHEM_EFFECTIVE_ROTOR_COUNT>  (1) 
6

>  <PUBCHEM_PHARMACOPHORE_FEATURES>  (1) 
5
1 2 acceptor
1 3 acceptor
1 4 cation
1 5 donor
6 7 10 11 13 14 15 rings

>  <PUBCHEM_HEAVY_ATOM_COUNT>  (1) 
19

>  <PUBCHEM_ATOM_DEF_STEREO_COUNT>  (1) 
0

>  <PUBCHEM_ATOM_UDEF_STEREO_COUNT>  (1) 
0

>  <PUBCHEM_BOND_DEF_STEREO_COUNT>  (1) 
0

>  <PUBCHEM_BOND_UDEF_STEREO_COUNT>  (1) 
0

>  <PUBCHEM_ISOTOPIC_ATOM_COUNT>  (1) 
0

>  <PUBCHEM_COMPONENT_COUNT>  (1) 
1

>  <PUBCHEM_CACTVS_TAUTO_COUNT>  (1) 
6

>  <PUBCHEM_CONFORMER_ID>  (1) 
0000B7BF00000001

>  <PUBCHEM_MMFF94_ENERGY>  (1) 
72.4774

>  <PUBCHEM_FEATURE_SELFOVERLAP>  (1) 
25.372

>  <PUBCHEM_SHAPE_FINGERPRINT>  (1) 
10906281 52 18041857214769177745
11322862 65 18046626694752916189
11578080 2 17987219184115094601
11680986 33 18196927777684577229
116883 192 18335700508140020269
12202030 40 18198341754222878408
12400797 245 18342176661085815191
12553582 1 18337387266018758695
12596602 18 16557638610977178315
13083527 12 18116135847980575456
13140716 1 17979066412130338394
13464513 79 18269563899675354846
13583140 156 17346875646353628745
14178342 30 18340762646378131160
14223421 5 18341326704369382162
14251705 54 18410576180070059279
14252887 29 18410863191444166347
14863182 85 18339370784926961254
15422964 175 18409167727360672303
16945 1 18334289920267501672
17492 54 17825974760018384700
18981168 100 8862643703694709973
20645476 183 15940662782870466681
20645477 70 18045501069897995139
20871998 22 18409736153391757531
21285901 2 18260257547943952399
21501502 16 18262521369007173080
2255824 54 18048605016655621261
22802520 49 18194958543795643504
23184049 29 18119242870419705450
2334 1 18337671910464906490
23388829 49 18338794632017205620
23557571 272 18335415708357456136
23559900 14 18048874101047010014
2748010 2 18266736887676151060
2871803 45 18410013242837899206
3060560 45 18120947354018812876
81228 2 18188213087562983673
8809292 202 17835237840191461854
9709674 26 18195797479826091165

>  <PUBCHEM_SHAPE_MULTIPOLES>  (1) 
363.44
6.61
3.4
1.18
4.95
0.89
0.21
4.2
1.02
0.27
-1.23
-0.62
-0.08
0.97

>  <PUBCHEM_SHAPE_SELFOVERLAP>  (1) 
744.436

>  <PUBCHEM_SHAPE_VOLUME>  (1) 
210.2

>  <PUBCHEM_COORDINATE_TYPE>  (1) 
2
5
10

$$$$
