47033
     RDKit          3D

 20 20  0  0  0  0  0  0  0  0999 V2000
   -1.4738    0.3407   -0.4802 O   0  0  0  0  0  0  0  0  0  0  0  0
   -2.2007   -0.1975    1.6497 O   0  0  0  0  0  0  0  0  0  0  0  0
    0.9601    1.6886   -0.1348 N   0  0  0  0  0  0  0  0  0  0  0  0
   -3.7747    0.3214    0.0179 N   0  0  0  0  0  0  0  0  0  0  0  0
    0.8888    0.1597   -0.1518 C   0  0  0  0  0  0  0  0  0  0  0  0
    2.0533   -0.5175    0.0077 C   0  0  0  0  0  0  0  0  0  0  0  0
    3.3827    0.1378    0.1953 C   0  0  0  0  0  0  0  0  0  0  0  0
    1.8708    2.1498   -1.2692 C   0  0  0  0  0  0  0  0  0  0  0  0
    1.5057    2.1398    1.2172 C   0  0  0  0  0  0  0  0  0  0  0  0
   -0.4105    2.3327   -0.3330 C   0  0  0  0  0  0  0  0  0  0  0  0
   -0.3366   -0.3967   -0.3248 C   0  0  0  0  0  0  0  0  0  0  0  0
    1.9851   -1.9107   -0.0077 C   0  0  0  0  0  0  0  0  0  0  0  0
   -0.4048   -1.7900   -0.3403 C   0  0  0  0  0  0  0  0  0  0  0  0
    0.7561   -2.5468   -0.1815 C   0  0  0  0  0  0  0  0  0  0  0  0
    4.3657   -0.1941   -0.9421 C   0  0  0  0  0  0  0  0  0  0  0  0
    4.0187   -0.2043    1.5548 C   0  0  0  0  0  0  0  0  0  0  0  0
   -1.7108   -2.4901   -0.5246 C   0  0  0  0  0  0  0  0  0  0  0  0
   -2.4735    0.1277    0.4947 C   0  0  0  0  0  0  0  0  0  0  0  0
   -4.9141    0.1388    0.9059 C   0  0  0  0  0  0  0  0  0  0  0  0
   -4.0875    0.7107   -1.3532 C   0  0  0  0  0  0  0  0  0  0  0  0
  1 11  1  0
  1 18  1  0
  2 18  2  0
  3  5  1  0
  3  8  1  0
  3  9  1  0
  3 10  1  0
  4 18  1  0
  4 19  1  0
  4 20  1  0
  5  6  2  0
  5 11  1  0
  6  7  1  0
  6 12  1  0
  7 15  1  0
  7 16  1  0
 11 13  2  0
 12 14  2  0
 13 14  1  0
 13 17  1  0
M  CHG  1   3   1
M  END
>  <PUBCHEM_COMPOUND_CID>  (1) 
47033

>  <PUBCHEM_CONFORMER_RMSD>  (1) 
0.8

>  <PUBCHEM_CONFORMER_DIVERSEORDER>  (1) 
2
1

>  <PUBCHEM_MMFF94_PARTIAL_CHARGES>  (1) 
20
1 -0.23
10 0.5
11 0.08
12 -0.15
13 -0.14
14 -0.15
17 0.14
18 0.78
19 0.3
2 -0.57
20 0.3
3 -0.87
31 0.15
32 0.15
4 -0.66
5 0.36
6 -0.14
7 0.14
8 0.5
9 0.5

>  <PUBCHEM_EFFECTIVE_ROTOR_COUNT>  (1) 
5

>  <PUBCHEM_PHARMACOPHORE_FEATURES>  (1) 
4
1 2 acceptor
1 3 cation
3 7 15 16 hydrophobe
6 5 6 11 12 13 14 rings

>  <PUBCHEM_HEAVY_ATOM_COUNT>  (1) 
20

>  <PUBCHEM_ATOM_DEF_STEREO_COUNT>  (1) 
0

>  <PUBCHEM_ATOM_UDEF_STEREO_COUNT>  (1) 
0

>  <PUBCHEM_BOND_DEF_STEREO_COUNT>  (1) 
0

>  <PUBCHEM_BOND_UDEF_STEREO_COUNT>  (1) 
0

>  <PUBCHEM_ISOTOPIC_ATOM_COUNT>  (1) 
0

>  <PUBCHEM_COMPONENT_COUNT>  (1) 
1

>  <PUBCHEM_CACTVS_TAUTO_COUNT>  (1) 
1

>  <PUBCHEM_CONFORMER_ID>  (1) 
0000B7B900000002

>  <PUBCHEM_MMFF94_ENERGY>  (1) 
122.1324

>  <PUBCHEM_FEATURE_SELFOVERLAP>  (1) 
20.297

>  <PUBCHEM_SHAPE_FINGERPRINT>  (1) 
104564 63 18196379121577749044
10967382 1 18411418380148914846
10980938 120 18339079293849054799
11132069 177 18342168982053372826
12011746 2 18410858724334981518
12236239 1 17489585645958188125
12382932 28 18413103978998582066
12553582 1 18410852153188064332
12592029 89 18408044004944233323
12633257 1 17984106453827153232
13140716 1 18339075024793636906
13172582 1 18410006654732412066
13583140 156 17095788984801089551
14178342 30 17690267631701887808
14790565 3 18339094730262781740
14993402 34 18342740701939596550
15309172 13 18411700967474727747
15375462 189 17968085430911754962
15848702 151 17274551901544658846
1601671 61 18336550430227279988
16752209 62 18339085882745644492
16945 1 18411694370800307708
17357779 13 18337381626563409469
18186145 218 18131064939969324677
18219364 16 18409169922083451915
19591789 44 18124883361033925726
20028762 73 18058168500423382559
20511035 2 18124595542374181358
20691752 17 17532920809106976596
20739085 24 18051431585987713963
21501502 16 18193275432038021966
22182313 1 18121490263812989214
23184049 59 18412545383967665627
2334 1 18050565445734555934
23388829 49 18270683060899757765
23402539 116 15410609264117152241
23419403 2 15590677219695448182
23493267 7 17603586283652961760
23558518 356 17976252761975385018
23559900 14 17677895613222919154
25147074 1 18121213435859036830
2748010 2 18195241350386146462
34934 24 18336256886318705362
350125 39 18194970879136941895
4072396 5 18189881050616952786
465052 167 17967823759802379907
53812653 166 18342170085743916914
7164475 11 17770210871367920551
7495541 125 17386298674158264193
7832392 63 18271523190810028198
81228 2 16970269536201240179
9999458 23 18113625615689274446

>  <PUBCHEM_SHAPE_MULTIPOLES>  (1) 
389.89
7.39
2.58
1.24
4.01
0.31
0.21
-0.67
0.82
-0.58
-0.42
-0.06
-0.35
0.01

>  <PUBCHEM_SHAPE_SELFOVERLAP>  (1) 
798.746

>  <PUBCHEM_SHAPE_VOLUME>  (1) 
227.9

>  <PUBCHEM_COORDINATE_TYPE>  (1) 
2
5
10

$$$$
