47035
     RDKit          3D

 23 24  0  0  0  0  0  0  0  0999 V2000
    0.7499   -0.1020   -0.3991 O   0  0  0  0  0  0  0  0  0  0  0  0
    5.6333   -0.5749   -0.3595 O   0  0  0  0  0  0  0  0  0  0  0  0
    1.3268    0.6733    1.7060 O   0  0  0  0  0  0  0  0  0  0  0  0
   -1.5309   -1.6838   -0.0164 N   0  0  0  0  0  0  0  0  0  0  0  0
    2.9832    0.2210    0.1418 N   0  0  0  0  0  0  0  0  0  0  0  0
   -1.6190   -0.2401   -0.1273 C   0  0  0  0  0  0  0  0  0  0  0  0
   -2.8585    0.3945   -0.0439 C   0  0  0  0  0  0  0  0  0  0  0  0
   -4.1144   -0.3885    0.1597 C   0  0  0  0  0  0  0  0  0  0  0  0
   -0.4943    0.5310   -0.3152 C   0  0  0  0  0  0  0  0  0  0  0  0
   -2.3496   -2.3926   -1.1304 C   0  0  0  0  0  0  0  0  0  0  0  0
   -2.0577   -2.1843    1.3569 C   0  0  0  0  0  0  0  0  0  0  0  0
   -0.0892   -2.2657   -0.1363 C   0  0  0  0  0  0  0  0  0  0  0  0
   -0.5423    1.9024   -0.4240 C   0  0  0  0  0  0  0  0  0  0  0  0
   -2.9401    1.7830   -0.1510 C   0  0  0  0  0  0  0  0  0  0  0  0
   -1.7819    2.5369   -0.3408 C   0  0  0  0  0  0  0  0  0  0  0  0
   -5.0954   -0.2395   -1.0173 C   0  0  0  0  0  0  0  0  0  0  0  0
   -4.8208   -0.0311    1.4800 C   0  0  0  0  0  0  0  0  0  0  0  0
    3.3824   -0.2265   -1.1946 C   0  0  0  0  0  0  0  0  0  0  0  0
    4.0770    0.7184    0.9730 C   0  0  0  0  0  0  0  0  0  0  0  0
    0.6856    2.7275   -0.6273 C   0  0  0  0  0  0  0  0  0  0  0  0
    1.6606    0.2972    0.5831 C   0  0  0  0  0  0  0  0  0  0  0  0
    4.5669   -1.1791   -1.0972 C   0  0  0  0  0  0  0  0  0  0  0  0
    5.2286   -0.2770    0.9799 C   0  0  0  0  0  0  0  0  0  0  0  0
  1  9  1  0
  1 21  1  0
  2 22  1  0
  2 23  1  0
  3 21  2  0
  4  6  1  0
  4 10  1  0
  4 11  1  0
  4 12  1  0
  5 18  1  0
  5 19  1  0
  5 21  1  0
  6  7  2  0
  6  9  1  0
  7  8  1  0
  7 14  1  0
  8 16  1  0
  8 17  1  0
  9 13  2  0
 13 15  1  0
 13 20  1  0
 14 15  2  0
 18 22  1  0
 19 23  1  0
M  CHG  1   4   1
M  END
>  <PUBCHEM_COMPOUND_CID>  (1) 
47035

>  <PUBCHEM_CONFORMER_RMSD>  (1) 
0.8

>  <PUBCHEM_CONFORMER_DIVERSEORDER>  (1) 
2
1

>  <PUBCHEM_MMFF94_PARTIAL_CHARGES>  (1) 
23
1 -0.23
10 0.5
11 0.5
12 0.5
13 -0.14
14 -0.15
15 -0.15
18 0.3
19 0.3
2 -0.56
20 0.14
21 0.78
22 0.28
23 0.28
3 -0.57
34 0.15
35 0.15
4 -0.87
5 -0.66
6 0.36
7 -0.14
8 0.14
9 0.08

>  <PUBCHEM_EFFECTIVE_ROTOR_COUNT>  (1) 
6.2

>  <PUBCHEM_PHARMACOPHORE_FEATURES>  (1) 
6
1 2 acceptor
1 3 acceptor
1 4 cation
3 8 16 17 hydrophobe
6 2 5 18 19 22 23 rings
6 6 7 9 13 14 15 rings

>  <PUBCHEM_HEAVY_ATOM_COUNT>  (1) 
23

>  <PUBCHEM_ATOM_DEF_STEREO_COUNT>  (1) 
0

>  <PUBCHEM_ATOM_UDEF_STEREO_COUNT>  (1) 
0

>  <PUBCHEM_BOND_DEF_STEREO_COUNT>  (1) 
0

>  <PUBCHEM_BOND_UDEF_STEREO_COUNT>  (1) 
0

>  <PUBCHEM_ISOTOPIC_ATOM_COUNT>  (1) 
0

>  <PUBCHEM_COMPONENT_COUNT>  (1) 
1

>  <PUBCHEM_CACTVS_TAUTO_COUNT>  (1) 
1

>  <PUBCHEM_CONFORMER_ID>  (1) 
0000B7BB00000002

>  <PUBCHEM_MMFF94_ENERGY>  (1) 
118.6054

>  <PUBCHEM_FEATURE_SELFOVERLAP>  (1) 
30.446

>  <PUBCHEM_SHAPE_FINGERPRINT>  (1) 
1100329 8 18335984285071261577
11680986 33 18119249708260952001
12011746 2 18408879625370405565
12035758 1 18341620329750694251
12236239 1 17240203218664980436
12553582 1 18260539048030940530
12633257 1 17988645228582491240
12788726 201 18261674775229378776
13140716 1 18265338498344222585
13402501 40 18272091552738623902
13544592 145 18130796620556732086
13862211 1 18408318895809827943
14386348 63 17989489611159003310
14790565 3 18336841813899978957
14955137 171 18336278937134230681
15042514 8 18337394954242723267
15099037 51 18408039632857092151
15209289 33 18273498966134243457
15209294 21 17845666850189669993
16752209 62 18188477004797556773
16945 1 18408326597076242029
17804303 29 18413389851700004857
1813 80 17967534584102444308
19141452 34 18130788992267728319
19591789 44 18267304222733568558
200 152 14996002137907214813
20028762 73 18199192974398895679
20510252 161 18271241625523154897
20600515 1 18342190980696865917
21029758 27 18113061545076845629
21033648 29 18131056109364181641
21267235 1 18334864917303202441
21285901 2 18342463590770881204
22182313 1 18195257624370633269
2297311 6 18338245881763481868
2334 1 17904484357060078933
23366157 5 17680148765967250604
23402539 116 18412536609534161493
23557571 272 18412826859493359708
23559900 14 18342453798667776440
2748010 2 18048318035794243557
3286 77 17131827716174426305
335352 9 18408885148993832101
465052 167 17896618335127202211
5104073 3 18267867357422896624
559249 180 18190173478499136170
59755656 215 18339917126805903375
9709674 26 18267581497310969182

>  <PUBCHEM_SHAPE_MULTIPOLES>  (1) 
445.76
10.34
2.53
1.26
8.04
0.34
0.25
-2.18
0.54
-1.45
-0.44
0.07
-0.28
0.49

>  <PUBCHEM_SHAPE_SELFOVERLAP>  (1) 
922.924

>  <PUBCHEM_SHAPE_VOLUME>  (1) 
256.2

>  <PUBCHEM_COORDINATE_TYPE>  (1) 
2
5
10

$$$$
