47045
     RDKit          3D

 15 15  0  0  0  0  0  0  0  0999 V2000
   -0.0757   -3.4399    0.0003 O   0  0  0  0  0  0  0  0  0  0  0  0
   -2.4676    0.7760    0.0001 N   0  0  0  0  0  0  0  0  0  0  0  0
    2.4527    0.6954    0.0003 N   0  0  0  0  0  0  0  0  0  0  0  0
   -1.1546   -0.0107   -0.0017 C   0  0  0  0  0  0  0  0  0  0  0  0
    1.1885   -0.0069   -0.0004 C   0  0  0  0  0  0  0  0  0  0  0  0
   -0.0079    0.7103   -0.0011 C   0  0  0  0  0  0  0  0  0  0  0  0
   -2.5176    1.6496   -1.2501 C   0  0  0  0  0  0  0  0  0  0  0  0
   -2.5261    1.6310    1.2628 C   0  0  0  0  0  0  0  0  0  0  0  0
   -3.6896   -0.1401   -0.0103 C   0  0  0  0  0  0  0  0  0  0  0  0
    2.6039    1.6065    1.2515 C   0  0  0  0  0  0  0  0  0  0  0  0
    2.6143    1.5906   -1.2614 C   0  0  0  0  0  0  0  0  0  0  0  0
    3.7179   -0.2192    0.0107 C   0  0  0  0  0  0  0  0  0  0  0  0
   -1.2500   -1.3619   -0.0009 C   0  0  0  0  0  0  0  0  0  0  0  0
    1.1656   -1.4016    0.0002 C   0  0  0  0  0  0  0  0  0  0  0  0
   -0.0537   -2.0790    0.0000 C   0  0  0  0  0  0  0  0  0  0  0  0
  1 15  1  0
  2  4  1  0
  2  7  1  0
  2  8  1  0
  2  9  1  0
  3  5  1  0
  3 10  1  0
  3 11  1  0
  3 12  1  0
  4  6  2  0
  4 13  1  0
  5  6  1  0
  5 14  2  0
 13 15  2  0
 14 15  1  0
M  CHG  2   2   1   3   1
M  END
>  <PUBCHEM_COMPOUND_CID>  (1) 
47045

>  <PUBCHEM_CONFORMER_RMSD>  (1) 
0.6

>  <PUBCHEM_CONFORMER_DIVERSEORDER>  (1) 
1
3
2

>  <PUBCHEM_MMFF94_PARTIAL_CHARGES>  (1) 
19
1 -0.53
10 0.5
11 0.5
12 0.5
13 -0.15
14 -0.15
15 0.08
16 0.15
2 -0.87
3 -0.87
35 0.15
36 0.15
37 0.45
4 0.36
5 0.36
6 -0.15
7 0.5
8 0.5
9 0.5

>  <PUBCHEM_EFFECTIVE_ROTOR_COUNT>  (1) 
2

>  <PUBCHEM_PHARMACOPHORE_FEATURES>  (1) 
4
1 1 donor
1 2 cation
1 3 cation
6 4 5 6 13 14 15 rings

>  <PUBCHEM_HEAVY_ATOM_COUNT>  (1) 
15

>  <PUBCHEM_ATOM_DEF_STEREO_COUNT>  (1) 
0

>  <PUBCHEM_ATOM_UDEF_STEREO_COUNT>  (1) 
0

>  <PUBCHEM_BOND_DEF_STEREO_COUNT>  (1) 
0

>  <PUBCHEM_BOND_UDEF_STEREO_COUNT>  (1) 
0

>  <PUBCHEM_ISOTOPIC_ATOM_COUNT>  (1) 
0

>  <PUBCHEM_COMPONENT_COUNT>  (1) 
1

>  <PUBCHEM_CACTVS_TAUTO_COUNT>  (1) 
2

>  <PUBCHEM_CONFORMER_ID>  (1) 
0000B7C500000001

>  <PUBCHEM_MMFF94_ENERGY>  (1) 
77.5746

>  <PUBCHEM_FEATURE_SELFOVERLAP>  (1) 
20.297

>  <PUBCHEM_SHAPE_FINGERPRINT>  (1) 
1 1 18338794498888907358
11132069 177 18337387253218044937
12500047 106 18339635750486891456
12716758 59 18269836570137731882
13380535 76 18411138034627549950
13538477 17 17971189468105962278
13764800 53 18266465492971873105
14614273 12 18334289847537647533
14648413 74 17901384490004776533
15219456 202 18043811979340162685
15309172 13 18335993016486690169
15775835 57 18410015437560834596
16945 1 18050568748522390278
18186145 218 18343866593425510876
20510252 161 18198624538921976043
20645476 183 18115317790234157022
20645477 56 18338800151561844840
21028194 46 18409165510766975529
21524375 3 18410575084668743435
21947302 44 17774432910324832736
2334 1 18410293635466987911
23402539 116 18201146741360509813
23419403 2 13027366872431587645
23493267 7 17386291978146215152
23552423 10 18196093235927782951
23557571 272 17767410441316865604
23559900 14 18272941536142394364
25 1 18270687454603607972
2748010 2 18409455777578859343
305870 269 18266740190469032994
3071541 158 17830457180734756758
3071541 236 18191853737696814506
352729 6 18338801229055544487
458136 41 18266484047446966875
69090 78 18341606066048265702
7364860 26 18126285229458058591
74978 22 18338519767506697436
81228 2 17977942719741948131

>  <PUBCHEM_SHAPE_MULTIPOLES>  (1) 
292.86
5.42
2.6
1.04
0.26
2.01
0
-2.64
0
-0.09
0
0.02
-0.71
0

>  <PUBCHEM_SHAPE_SELFOVERLAP>  (1) 
589.448

>  <PUBCHEM_SHAPE_VOLUME>  (1) 
177.1

>  <PUBCHEM_COORDINATE_TYPE>  (1) 
2
5
10

$$$$
