4704
     RDKit          3D

 16 17  0  0  0  0  0  0  0  0999 V2000
    2.1449    0.0806   -1.9832 S   0  0  0  0  0  0  0  0  0  0  0  0
   -3.0351   -2.8301    0.0687 F   0  0  0  0  0  0  0  0  0  0  0  0
    3.9371   -0.5979    1.4637 O   0  0  0  0  0  0  0  0  0  0  0  0
    4.6373   -0.9111   -0.6673 O   0  0  0  0  0  0  0  0  0  0  0  0
   -1.4146    2.3831   -0.0123 N   0  0  0  0  0  0  0  0  0  0  0  0
   -1.0132    0.2002    0.2136 C   0  0  0  0  0  0  0  0  0  0  0  0
   -2.0135    1.1436   -0.0306 C   0  0  0  0  0  0  0  0  0  0  0  0
    0.2050    0.9166    0.3791 C   0  0  0  0  0  0  0  0  0  0  0  0
   -0.0740    2.2561    0.2344 C   0  0  0  0  0  0  0  0  0  0  0  0
   -1.3620   -1.1646    0.2481 C   0  0  0  0  0  0  0  0  0  0  0  0
   -3.3505    0.7890   -0.2425 C   0  0  0  0  0  0  0  0  0  0  0  0
    1.4899    0.3942    0.6444 C   0  0  0  0  0  0  0  0  0  0  0  0
   -2.6954   -1.5341    0.0379 C   0  0  0  0  0  0  0  0  0  0  0  0
   -3.6728   -0.5705   -0.2032 C   0  0  0  0  0  0  0  0  0  0  0  0
    2.4425   -0.0046   -0.2712 C   0  0  0  0  0  0  0  0  0  0  0  0
    3.7743   -0.5503    0.1204 C   0  0  0  0  0  0  0  0  0  0  0  0
  1 15  1  0
  2 13  1  0
  3 16  1  0
  4 16  2  0
  5  7  1  0
  5  9  1  0
  6  7  2  0
  6  8  1  0
  6 10  1  0
  7 11  1  0
  8  9  2  0
  8 12  1  0
 10 13  2  0
 11 14  2  0
 12 15  2  0
 13 14  1  0
 15 16  1  0
M  END
>  <PUBCHEM_COMPOUND_CID>  (1) 
4704

>  <PUBCHEM_CONFORMER_RMSD>  (1) 
0.6

>  <PUBCHEM_CONFORMER_DIVERSEORDER>  (1) 
2
3
4
1

>  <PUBCHEM_MMFF94_PARTIAL_CHARGES>  (1) 
23
1 -0.28
10 -0.15
11 -0.15
12 -0.1
13 0.19
14 -0.15
15 0.12
16 0.71
17 0.27
18 0.15
19 0.15
2 -0.19
20 0.15
21 0.15
22 0.15
23 0.18
24 0.5
3 -0.65
4 -0.57
5 0.03
7 -0.15
8 -0.05
9 -0.3

>  <PUBCHEM_EFFECTIVE_ROTOR_COUNT>  (1) 
2

>  <PUBCHEM_PHARMACOPHORE_FEATURES>  (1) 
7
1 3 acceptor
1 4 acceptor
1 5 cation
1 5 donor
3 3 4 16 anion
5 5 6 7 8 9 rings
6 6 7 10 11 13 14 rings

>  <PUBCHEM_HEAVY_ATOM_COUNT>  (1) 
16

>  <PUBCHEM_ATOM_DEF_STEREO_COUNT>  (1) 
0

>  <PUBCHEM_ATOM_UDEF_STEREO_COUNT>  (1) 
0

>  <PUBCHEM_BOND_DEF_STEREO_COUNT>  (1) 
0

>  <PUBCHEM_BOND_UDEF_STEREO_COUNT>  (1) 
1

>  <PUBCHEM_ISOTOPIC_ATOM_COUNT>  (1) 
0

>  <PUBCHEM_COMPONENT_COUNT>  (1) 
1

>  <PUBCHEM_CACTVS_TAUTO_COUNT>  (1) 
4

>  <PUBCHEM_CONFORMER_ID>  (1) 
0000126000000002

>  <PUBCHEM_MMFF94_ENERGY>  (1) 
37.313

>  <PUBCHEM_FEATURE_SELFOVERLAP>  (1) 
35.672

>  <PUBCHEM_SHAPE_FINGERPRINT>  (1) 
10062212 137 18113893845166432683
10616163 171 18411140208160712990
11543360 7 16009033937885095147
11578080 2 17388222794001410748
12032990 46 18411982502855046915
12236239 1 17749111054568237952
12363563 72 18341334508325257807
12553582 1 18337961193697890859
13140716 1 18341336699111870545
13296908 3 18341048622242729545
14115302 16 18187087260379895525
14386348 63 17846504707766562078
14911166 2 18337099108479162973
15375358 24 17917988347849431045
16752209 62 18262222327719671473
16945 1 18411705357326975625
17804303 29 18341895199283974649
17870717 6 18270415884022202358
18186145 218 13623527978228311964
19141452 34 17989208179121689047
20279233 1 17703793595696354830
20645476 183 17386006148457456979
20645477 70 17761763367088174903
20871998 22 18195808702902637753
21061003 4 16845570911638674376
22959321 94 18408319969282405962
232386 152 18409449210631548326
23366157 5 17970905798058857988
23402539 116 18341322293332753693
23557571 272 18058737901163844180
23559900 14 18341610370422920392
2748010 2 18194109949069504033
559249 180 17825941529793157186
568465 68 17275107262090413974
5902787 121 18339641243117066936
67856867 119 18187645860412940164
7364860 26 17982733279246353417
77492 1 17676775279698712760
81228 2 17986973854823290009
8809292 202 18409450314580789011
9709674 26 18200035028031638070

>  <PUBCHEM_SHAPE_MULTIPOLES>  (1) 
309.13
7.31
2.11
1.09
4.83
0.02
-0.39
-3.52
-0.18
-2.04
0.15
1.19
-0.04
0.01

>  <PUBCHEM_SHAPE_SELFOVERLAP>  (1) 
664.861

>  <PUBCHEM_SHAPE_VOLUME>  (1) 
173.9

>  <PUBCHEM_COORDINATE_TYPE>  (1) 
2
5
10

$$$$
