47055
     RDKit          3D

 18 18  0  0  0  0  0  0  0  0999 V2000
    2.4743   -0.6516    0.7645 O   0  0  0  0  0  0  0  0  0  0  0  0
    2.9846    0.8308   -0.9525 O   0  0  0  0  0  0  0  0  0  0  0  0
   -2.2125    0.4692    0.2369 N   0  0  0  0  0  0  0  0  0  0  0  0
    4.4923    0.4403    0.7670 N   0  0  0  0  0  0  0  0  0  0  0  0
   -1.9005    1.9253   -0.0963 C   0  0  0  0  0  0  0  0  0  0  0  0
   -2.5039    0.3031    1.7257 C   0  0  0  0  0  0  0  0  0  0  0  0
   -3.4621    0.0603   -0.5402 C   0  0  0  0  0  0  0  0  0  0  0  0
   -0.9986   -0.3897   -0.1261 C   0  0  0  0  0  0  0  0  0  0  0  0
   -1.5791    2.0413   -1.5702 C   0  0  0  0  0  0  0  0  0  0  0  0
   -2.8237   -1.1478    2.0121 C   0  0  0  0  0  0  0  0  0  0  0  0
   -4.6230    0.9304   -0.1105 C   0  0  0  0  0  0  0  0  0  0  0  0
    0.1665   -0.1021    0.5021 C   0  0  0  0  0  0  0  0  0  0  0  0
   -1.1917   -1.3648   -1.0464 C   0  0  0  0  0  0  0  0  0  0  0  0
    1.2725   -0.8846    0.1701 C   0  0  0  0  0  0  0  0  0  0  0  0
   -0.0858   -2.1471   -1.3785 C   0  0  0  0  0  0  0  0  0  0  0  0
    1.1463   -1.9070   -0.7702 C   0  0  0  0  0  0  0  0  0  0  0  0
    3.3010    0.2696    0.0923 C   0  0  0  0  0  0  0  0  0  0  0  0
    5.5435    1.3245    0.3202 C   0  0  0  0  0  0  0  0  0  0  0  0
  1 14  1  0
  1 17  1  0
  2 17  2  0
  3  5  1  0
  3  6  1  0
  3  7  1  0
  3  8  1  0
  4 17  1  0
  4 18  1  0
  5  9  1  0
  6 10  1  0
  7 11  1  0
  8 12  2  0
  8 13  1  0
 12 14  1  0
 13 15  2  0
 14 16  2  0
 15 16  1  0
M  CHG  1   3   1
M  END
>  <PUBCHEM_COMPOUND_CID>  (1) 
47055

>  <PUBCHEM_CONFORMER_RMSD>  (1) 
0.8

>  <PUBCHEM_CONFORMER_DIVERSEORDER>  (1) 
1
27
45
28
41
13
42
8
32
31
29
36
16
7
34
43
35
5
30
21
3
22
26
39
12
38
19
11
23
10
44
17
40
24
20
9
6
37
33
18
14
4
25
2
15

>  <PUBCHEM_MMFF94_PARTIAL_CHARGES>  (1) 
20
1 -0.23
12 -0.15
13 -0.15
14 0.08
15 -0.15
16 -0.15
17 0.78
18 0.3
2 -0.57
3 -0.87
34 0.15
35 0.15
36 0.15
37 0.15
38 0.37
4 -0.73
5 0.5
6 0.5
7 0.5
8 0.36

>  <PUBCHEM_EFFECTIVE_ROTOR_COUNT>  (1) 
7

>  <PUBCHEM_PHARMACOPHORE_FEATURES>  (1) 
4
1 2 acceptor
1 3 cation
1 4 donor
6 8 12 13 14 15 16 rings

>  <PUBCHEM_HEAVY_ATOM_COUNT>  (1) 
18

>  <PUBCHEM_ATOM_DEF_STEREO_COUNT>  (1) 
0

>  <PUBCHEM_ATOM_UDEF_STEREO_COUNT>  (1) 
0

>  <PUBCHEM_BOND_DEF_STEREO_COUNT>  (1) 
0

>  <PUBCHEM_BOND_UDEF_STEREO_COUNT>  (1) 
0

>  <PUBCHEM_ISOTOPIC_ATOM_COUNT>  (1) 
0

>  <PUBCHEM_COMPONENT_COUNT>  (1) 
1

>  <PUBCHEM_CACTVS_TAUTO_COUNT>  (1) 
2

>  <PUBCHEM_CONFORMER_ID>  (1) 
0000B7CF00000001

>  <PUBCHEM_MMFF94_ENERGY>  (1) 
75.0775

>  <PUBCHEM_FEATURE_SELFOVERLAP>  (1) 
20.297

>  <PUBCHEM_SHAPE_FINGERPRINT>  (1) 
10130415 120 10809352117732002111
10803635 8 12535357774871423616
10906281 52 18188788153898760805
11132069 177 18411143549354514815
11221954 11 17975972059934727164
11759241 127 18411695448805561509
12173636 292 17489874829736576328
12403259 118 18187365475513741292
12403814 3 18408318912678363289
12507557 5 17603868944309944308
12596602 18 16733539546525229880
12633257 1 16950005824453439748
13083527 12 17755885334949674211
13214271 11 18186802516901449883
13294875 104 16310475689542812229
13296909 8 16732984206403783637
13533116 47 17314503725950041323
13583140 156 18260827133321022802
13675066 3 18333448751470855504
15048467 5 17988640754060304113
15279308 16 18334580088157500299
15309172 13 18130794451287102035
15342168 16 18131357362680828161
15375358 24 18187651267417452425
15375462 478 17822010917236044156
15775835 57 18343577443283940718
16945 1 18200607950909455491
18186145 218 17632025182460555086
18219364 16 18202003252312892592
20344682 1 18410851045503233405
204376 136 18201720660766075202
20600515 1 17386018238838102101
20645477 56 18272087245144752076
21069387 34 13190635995592587001
21524375 3 18343299271380063590
21756936 100 18042403694435187232
22094290 60 13614521857200227427
23198884 109 16773804727221999272
23227448 37 18127686243843219276
23402539 116 17967243196662668655
23557571 272 17970093121922084347
23559900 14 17678473977608302374
27216 239 18408319977735495680
2748010 2 18195536882606168390
296302 2 18409730630274817955
458136 41 17774456983247378287
633830 44 17131288865055519450
81228 2 17841702217017880622
9925002 15 17765440133258808119

>  <PUBCHEM_SHAPE_MULTIPOLES>  (1) 
348.73
8.28
2.02
1.5
9.04
0.17
-0.34
-4.55
-1.88
-0.17
0.86
-1.08
0.21
0.69

>  <PUBCHEM_SHAPE_SELFOVERLAP>  (1) 
705.658

>  <PUBCHEM_SHAPE_VOLUME>  (1) 
204.3

>  <PUBCHEM_COORDINATE_TYPE>  (1) 
2
5
10

$$$$
