4705
     RDKit          3D

 22 24  0  0  0  0  0  0  0  0999 V2000
    5.4648   -0.7739   -2.2760 Br  0  0  0  0  0  0  0  0  0  0  0  0
   -3.3248    2.3345   -0.0542 O   0  0  0  0  0  0  0  0  0  0  0  0
   -4.9623    0.1410   -0.5319 O   0  0  0  0  0  0  0  0  0  0  0  0
    1.2958    0.3891    0.7488 N   0  0  0  0  0  0  0  0  0  0  0  0
   -1.2510   -2.7915    0.0228 N   0  0  0  0  0  0  0  0  0  0  0  0
    0.9415   -1.9259    0.5232 N   0  0  0  0  0  0  0  0  0  0  0  0
   -0.9324   -0.4247    0.2444 C   0  0  0  0  0  0  0  0  0  0  0  0
   -1.7486   -1.5424    0.0052 C   0  0  0  0  0  0  0  0  0  0  0  0
    0.4107   -0.6889    0.4981 C   0  0  0  0  0  0  0  0  0  0  0  0
   -1.4637    0.8766    0.2235 C   0  0  0  0  0  0  0  0  0  0  0  0
   -2.8165    1.0718   -0.0369 C   0  0  0  0  0  0  0  0  0  0  0  0
   -3.0988   -1.3179   -0.2526 C   0  0  0  0  0  0  0  0  0  0  0  0
   -3.6348   -0.0268   -0.2751 C   0  0  0  0  0  0  0  0  0  0  0  0
    2.6676    0.5640    0.5072 C   0  0  0  0  0  0  0  0  0  0  0  0
    0.0668   -2.9154    0.2804 C   0  0  0  0  0  0  0  0  0  0  0  0
    3.2801   -0.0780   -0.5735 C   0  0  0  0  0  0  0  0  0  0  0  0
    3.4309    1.3822    1.3454 C   0  0  0  0  0  0  0  0  0  0  0  0
    4.6429    0.0967   -0.8135 C   0  0  0  0  0  0  0  0  0  0  0  0
    4.7938    1.5569    1.1053 C   0  0  0  0  0  0  0  0  0  0  0  0
    5.3998    0.9140    0.0259 C   0  0  0  0  0  0  0  0  0  0  0  0
   -3.3173    3.0202   -1.3053 C   0  0  0  0  0  0  0  0  0  0  0  0
   -5.8443    0.1381    0.5888 C   0  0  0  0  0  0  0  0  0  0  0  0
  1 18  1  0
  2 11  1  0
  2 21  1  0
  3 13  1  0
  3 22  1  0
  4  9  1  0
  4 14  1  0
  5  8  2  0
  5 15  1  0
  6  9  1  0
  6 15  2  0
  7  8  1  0
  7  9  2  0
  7 10  1  0
  8 12  1  0
 10 11  2  0
 11 13  1  0
 12 13  2  0
 14 16  2  0
 14 17  1  0
 16 18  1  0
 17 19  2  0
 18 20  2  0
 19 20  1  0
M  END
>  <PUBCHEM_COMPOUND_CID>  (1) 
4705

>  <PUBCHEM_CONFORMER_RMSD>  (1) 
0.6

>  <PUBCHEM_CONFORMER_DIVERSEORDER>  (1) 
3
58
33
24
15
41
55
48
9
40
57
10
20
53
16
46
45
12
35
14
19
47
32
42
54
37
25
43
30
39
44
1
56
34
4
38
27
36
23
13
18
2
17
29
50
49
8
5
52
51
28
26
21
22
31
11
7
6

>  <PUBCHEM_MMFF94_PARTIAL_CHARGES>  (1) 
29
1 -0.11
10 -0.15
11 0.08
12 -0.15
13 0.08
14 0.1
15 0.47
16 -0.15
17 -0.15
18 0.11
19 -0.15
2 -0.36
20 -0.15
21 0.28
22 0.28
23 0.15
24 0.15
25 0.4
26 0.15
27 0.15
28 0.15
29 0.15
3 -0.36
30 0.15
4 -0.6
5 -0.62
6 -0.62
8 0.31
9 0.41

>  <PUBCHEM_EFFECTIVE_ROTOR_COUNT>  (1) 
4

>  <PUBCHEM_PHARMACOPHORE_FEATURES>  (1) 
9
1 1 hydrophobe
1 2 acceptor
1 3 acceptor
1 4 donor
3 4 6 9 cation
3 5 6 15 cation
6 14 16 17 18 19 20 rings
6 5 6 7 8 9 15 rings
6 7 8 10 11 12 13 rings

>  <PUBCHEM_HEAVY_ATOM_COUNT>  (1) 
22

>  <PUBCHEM_ATOM_DEF_STEREO_COUNT>  (1) 
0

>  <PUBCHEM_ATOM_UDEF_STEREO_COUNT>  (1) 
0

>  <PUBCHEM_BOND_DEF_STEREO_COUNT>  (1) 
0

>  <PUBCHEM_BOND_UDEF_STEREO_COUNT>  (1) 
0

>  <PUBCHEM_ISOTOPIC_ATOM_COUNT>  (1) 
0

>  <PUBCHEM_COMPONENT_COUNT>  (1) 
1

>  <PUBCHEM_CACTVS_TAUTO_COUNT>  (1) 
3

>  <PUBCHEM_CONFORMER_ID>  (1) 
0000126100000003

>  <PUBCHEM_MMFF94_ENERGY>  (1) 
98.6943

>  <PUBCHEM_FEATURE_SELFOVERLAP>  (1) 
45.846

>  <PUBCHEM_SHAPE_FINGERPRINT>  (1) 
10411042 1 17544471316017401955
10498660 4 18336820892723746908
10591671 39 18040725774702215167
10615611 76 16951146009516416180
10670039 82 18041567940558976580
12173636 292 18409157822849472951
12236239 1 17313097588312155960
12390115 104 18269562646136073001
12403259 415 18412263908753948388
12596602 18 16226054426321169192
12788726 201 16954522798999607658
12916748 109 18335421283261858072
13140716 1 18118966038814156433
13544592 145 18343871013463498534
14251757 17 18130791140178384320
15042514 8 18191307289582991259
15575132 122 17894914014378416173
18186145 218 18273498966150087424
200 152 15841558474605561650
20645477 56 18340767143145235520
20645477 70 17203618077689848492
21033648 29 18340756100626744328
21065201 7 18410854399967760562
21279426 13 18269559330442003950
221357 26 17989208131333742776
22393880 68 18343302540018935750
23366157 5 17752480954249082715
23402539 116 18269827765148846030
23536379 177 16271933709558743099
23557571 272 18125158483695807890
23559900 14 18201722894871521856
3004659 81 18336552625884242958
3298306 158 18272655610857385590
350125 39 18264767666714609739
4028521 119 18343299266895016856
474 4 17458347433469543818
495365 180 17346025762883709242
5104073 3 18189333464452698353
5281201 14 18202288026373352668
59755656 215 18341336612806368567
633830 44 18273206525794737814
9709674 26 18129665343509226638
9981440 41 18260261937031523827

>  <PUBCHEM_SHAPE_MULTIPOLES>  (1) 
432.01
12.61
2.67
1.28
4.29
0.4
0.53
-4.56
3.11
-1.81
0.17
1.86
-0.25
2.06

>  <PUBCHEM_SHAPE_SELFOVERLAP>  (1) 
927.551

>  <PUBCHEM_SHAPE_VOLUME>  (1) 
246.2

>  <PUBCHEM_COORDINATE_TYPE>  (1) 
2
5
10

$$$$
