47051
     RDKit          3D

 18 18  0  0  1  0  0  0  0  0999 V2000
   -2.9294    0.9105    0.3523 O   0  0  0  0  0  0  0  0  0  0  0  0
   -3.1520   -1.2332   -0.5199 O   0  0  0  0  0  0  0  0  0  0  0  0
    3.0612   -1.1935   -0.0877 N   0  0  0  0  0  0  0  0  0  0  0  0
   -5.0201    0.0702   -0.0798 N   0  0  0  0  0  0  0  0  0  0  0  0
    2.6696    0.2164    0.3306 C   0  0  0  0  0  0  0  0  0  0  0  0
    3.4222    1.1985   -0.5828 C   0  0  0  0  0  0  0  0  0  0  0  0
    2.5395   -1.4699   -1.4904 C   0  0  0  0  0  0  0  0  0  0  0  0
    4.5776   -1.3232   -0.0757 C   0  0  0  0  0  0  0  0  0  0  0  0
    2.4585   -2.1972    0.8846 C   0  0  0  0  0  0  0  0  0  0  0  0
    1.1681    0.4028    0.3364 C   0  0  0  0  0  0  0  0  0  0  0  0
    3.2560    2.6513   -0.1537 C   0  0  0  0  0  0  0  0  0  0  0  0
    0.4465    0.0370    1.4591 C   0  0  0  0  0  0  0  0  0  0  0  0
    0.5493    0.9349   -0.7814 C   0  0  0  0  0  0  0  0  0  0  0  0
   -0.9378    0.2086    1.4645 C   0  0  0  0  0  0  0  0  0  0  0  0
   -0.8350    1.1066   -0.7762 C   0  0  0  0  0  0  0  0  0  0  0  0
   -1.5787    0.7436    0.3468 C   0  0  0  0  0  0  0  0  0  0  0  0
   -3.6661   -0.1915   -0.1231 C   0  0  0  0  0  0  0  0  0  0  0  0
   -6.0296   -0.8719   -0.5036 C   0  0  0  0  0  0  0  0  0  0  0  0
  1 16  1  0
  1 17  1  0
  2 17  2  0
  3  5  1  0
  3  7  1  0
  3  8  1  0
  3  9  1  0
  4 17  1  0
  4 18  1  0
  5  6  1  0
  5 10  1  0
  6 11  1  0
 10 12  2  0
 10 13  1  0
 12 14  1  0
 13 15  2  0
 14 16  2  0
 15 16  1  0
M  CHG  1   3   1
M  END
>  <PUBCHEM_COMPOUND_CID>  (1) 
47051

>  <PUBCHEM_CONFORMER_RMSD>  (1) 
0.8

>  <PUBCHEM_CONFORMER_DIVERSEORDER>  (1) 
5
10
9
21
2
19
15
24
11
4
20
14
3
7
8
23
12
22
13
16
6
17
1
18

>  <PUBCHEM_MMFF94_PARTIAL_CHARGES>  (1) 
21
1 -0.23
10 -0.14
12 -0.15
13 -0.15
14 -0.15
15 -0.15
16 0.08
17 0.78
18 0.3
2 -0.57
3 -1.01
34 0.15
35 0.15
36 0.15
37 0.15
38 0.37
4 -0.73
5 0.65
7 0.5
8 0.5
9 0.5

>  <PUBCHEM_EFFECTIVE_ROTOR_COUNT>  (1) 
6

>  <PUBCHEM_PHARMACOPHORE_FEATURES>  (1) 
5
1 11 hydrophobe
1 2 acceptor
1 3 cation
1 4 donor
6 10 12 13 14 15 16 rings

>  <PUBCHEM_HEAVY_ATOM_COUNT>  (1) 
18

>  <PUBCHEM_ATOM_DEF_STEREO_COUNT>  (1) 
0

>  <PUBCHEM_ATOM_UDEF_STEREO_COUNT>  (1) 
1

>  <PUBCHEM_BOND_DEF_STEREO_COUNT>  (1) 
0

>  <PUBCHEM_BOND_UDEF_STEREO_COUNT>  (1) 
0

>  <PUBCHEM_ISOTOPIC_ATOM_COUNT>  (1) 
0

>  <PUBCHEM_COMPONENT_COUNT>  (1) 
1

>  <PUBCHEM_CACTVS_TAUTO_COUNT>  (1) 
2

>  <PUBCHEM_CONFORMER_ID>  (1) 
0000B7CB00000005

>  <PUBCHEM_MMFF94_ENERGY>  (1) 
67.3055

>  <PUBCHEM_FEATURE_SELFOVERLAP>  (1) 
25.371

>  <PUBCHEM_SHAPE_FINGERPRINT>  (1) 
10354089 29 9655571924524288858
10366900 7 17895205367958702760
106641 1 14548438267784103759
11543360 7 18411982498518167385
11769659 78 18342735182975153915
11796584 16 18202281377895808479
12251169 10 12031778163124722554
12616999 72 17703798032619189140
12644460 14 16199858583147899914
13167823 11 18341894087071898767
13675066 3 12535630483777392889
13760787 19 18059575853388006389
14251717 144 18408042909769471706
14289901 80 18342740727762427529
14350558 41 17988927742925410798
14576447 43 18335136462432056674
14911166 2 16805327682134008705
15375358 24 17894912983337987449
15477762 27 18339362968460658394
15527383 91 10015593791852418696
16945 1 16370732517095250168
17834072 33 18412824720325060541
17844677 252 18335144176879083365
18186145 218 17240482507165941625
19026448 5 18201446856664427953
19422 9 18272938193439324793
19784866 240 18059019376071781718
200 152 18413388713596786640
20279233 1 17676213480580288224
20281475 54 18060135470736819665
20369508 70 18114175307574492730
20645477 70 18412265029792965487
23402539 116 17241327958967628502
23559900 14 17386016087159446716
23598291 2 18200049347120299864
239999 70 18412829092459583430
2748010 2 17460903879761352864
2871803 45 18187081728367358315
29717793 49 18412538804673938901
3004659 81 18343018874223697423
3060560 45 17748821925569773307
3286 77 18115023005280188612
33824 294 18334011722403273498
42630746 31 18409163346588820072
4340502 62 18129655426076013672
465052 167 17274824692355927223
474 4 18043254737092933332
4990 188 17748544840439697787
58051976 378 18412265077280185608
6327066 14 17755869963309961468
7364860 26 18411420631234199144
76465 3 18116989997138658746

>  <PUBCHEM_SHAPE_MULTIPOLES>  (1) 
348.73
9.91
1.99
1.17
13.32
0.16
-0.13
-2.89
2.11
-2.58
0.17
-0.26
-0.19
-0.36

>  <PUBCHEM_SHAPE_SELFOVERLAP>  (1) 
703.686

>  <PUBCHEM_SHAPE_VOLUME>  (1) 
205

>  <PUBCHEM_COORDINATE_TYPE>  (1) 
2
5
10

$$$$
