4706
     RDKit          3D

 21 23  0  0  0  0  0  0  0  0999 V2000
    5.2495   -1.3354   -2.1366 Br  0  0  0  0  0  0  0  0  0  0  0  0
    1.1909    0.5899    0.6391 N   0  0  0  0  0  0  0  0  0  0  0  0
   -5.1211    0.6345   -0.6574 N   0  0  0  0  0  0  0  0  0  0  0  0
   -1.5975   -2.4574    0.3774 N   0  0  0  0  0  0  0  0  0  0  0  0
    0.6570   -1.6981    0.7621 N   0  0  0  0  0  0  0  0  0  0  0  0
   -3.2725    2.7932   -0.4974 N   0  0  0  0  0  0  0  0  0  0  0  0
   -1.0953   -0.1162    0.2429 C   0  0  0  0  0  0  0  0  0  0  0  0
   -1.9964   -1.1907    0.1674 C   0  0  0  0  0  0  0  0  0  0  0  0
   -3.7596    0.4061   -0.3553 C   0  0  0  0  0  0  0  0  0  0  0  0
    0.2238   -0.4418    0.5459 C   0  0  0  0  0  0  0  0  0  0  0  0
   -1.5237    1.2041    0.0215 C   0  0  0  0  0  0  0  0  0  0  0  0
   -2.8579    1.4618   -0.2776 C   0  0  0  0  0  0  0  0  0  0  0  0
   -3.3258   -0.9042   -0.1337 C   0  0  0  0  0  0  0  0  0  0  0  0
    2.5715    0.6195    0.3864 C   0  0  0  0  0  0  0  0  0  0  0  0
   -0.2926   -2.6423    0.6632 C   0  0  0  0  0  0  0  0  0  0  0  0
    3.1301   -0.2241   -0.5787 C   0  0  0  0  0  0  0  0  0  0  0  0
    3.3981    1.4937    1.0990 C   0  0  0  0  0  0  0  0  0  0  0  0
   -6.1723   -0.2033   -0.1735 C   0  0  0  0  0  0  0  0  0  0  0  0
    4.5021   -0.1937   -0.8287 C   0  0  0  0  0  0  0  0  0  0  0  0
    4.7699    1.5241    0.8490 C   0  0  0  0  0  0  0  0  0  0  0  0
    5.3219    0.6805   -0.1150 C   0  0  0  0  0  0  0  0  0  0  0  0
  1 19  1  0
  2 10  1  0
  2 14  1  0
  3  9  1  0
  3 18  1  0
  4  8  2  0
  4 15  1  0
  5 10  1  0
  5 15  2  0
  6 12  1  0
  7  8  1  0
  7 10  2  0
  7 11  1  0
  8 13  1  0
  9 12  1  0
  9 13  2  0
 11 12  2  0
 14 16  2  0
 14 17  1  0
 16 19  1  0
 17 20  2  0
 19 21  2  0
 20 21  1  0
M  END
>  <PUBCHEM_COMPOUND_CID>  (1) 
4706

>  <PUBCHEM_CONFORMER_RMSD>  (1) 
0.6

>  <PUBCHEM_CONFORMER_DIVERSEORDER>  (1) 
2
24
9
20
6
32
22
23
29
18
8
31
28
21
17
25
5
10
27
26
7
19
1
30
4
11
14
12
15
3
13
16

>  <PUBCHEM_MMFF94_PARTIAL_CHARGES>  (1) 
31
1 -0.11
10 0.41
11 -0.15
12 0.1
13 -0.15
14 0.1
15 0.47
16 -0.15
17 -0.15
18 0.37
19 0.11
2 -0.6
20 -0.15
21 -0.15
22 0.15
23 0.15
24 0.4
25 0.4
26 0.15
27 0.4
28 0.4
29 0.15
3 -0.87
30 0.15
34 0.15
35 0.15
4 -0.62
5 -0.62
6 -0.9
8 0.31
9 0.1

>  <PUBCHEM_EFFECTIVE_ROTOR_COUNT>  (1) 
3

>  <PUBCHEM_PHARMACOPHORE_FEATURES>  (1) 
11
1 1 hydrophobe
1 2 donor
1 3 cation
1 3 donor
1 6 cation
1 6 donor
3 2 5 10 cation
3 4 5 15 cation
6 14 16 17 19 20 21 rings
6 4 5 7 8 10 15 rings
6 7 8 9 11 12 13 rings

>  <PUBCHEM_HEAVY_ATOM_COUNT>  (1) 
21

>  <PUBCHEM_ATOM_DEF_STEREO_COUNT>  (1) 
0

>  <PUBCHEM_ATOM_UDEF_STEREO_COUNT>  (1) 
0

>  <PUBCHEM_BOND_DEF_STEREO_COUNT>  (1) 
0

>  <PUBCHEM_BOND_UDEF_STEREO_COUNT>  (1) 
0

>  <PUBCHEM_ISOTOPIC_ATOM_COUNT>  (1) 
0

>  <PUBCHEM_COMPONENT_COUNT>  (1) 
1

>  <PUBCHEM_CACTVS_TAUTO_COUNT>  (1) 
18

>  <PUBCHEM_CONFORMER_ID>  (1) 
0000126200000002

>  <PUBCHEM_MMFF94_ENERGY>  (1) 
97.3555

>  <PUBCHEM_FEATURE_SELFOVERLAP>  (1) 
56

>  <PUBCHEM_SHAPE_FINGERPRINT>  (1) 
10411042 1 17542504285504681187
10498660 4 18262228920152112221
10591671 39 17894639158114762311
10670039 82 17968384433692361388
12173636 292 18335693940554555175
12236239 1 17022897978134444968
12390115 104 18268717121726000713
12403259 415 18410012104766608709
12596602 18 16226335910056639008
12730499 353 18412831282560770323
12916748 109 18407759239721789384
12954195 1 18200884954756671669
13533116 47 17275388698892336950
13544592 145 18341337729993516734
13668630 136 16200158703084142044
14251757 17 18272373049184655808
14573314 32 18413111654221048332
15042514 8 18117561940959430259
15375358 24 18272088348856297802
15575132 122 17385725759933698517
173720 79 17749377174535926771
18186145 218 18343306946523265760
19784866 140 17489306348044548001
19784866 240 15625953006200517998
200 152 16415484848169523866
20645477 56 18409447028830580816
20645477 70 17418100897494097702
21065201 7 18408322216083227130
21344244 181 17989494021695570623
21521239 73 17917985079685547295
21637258 2 15410883077346785597
21781051 124 17895772767256306387
221357 26 18202563960293644728
2215653 11 18202290203858130750
23366157 5 17534335635500852307
23402539 116 18339070600866591143
23536379 177 16702306745752458497
23557571 272 18266461099494889026
23559900 14 18342742940514258984
23569914 152 17119995571090045413
2838139 119 16009564942415173399
3004659 81 18261960644585568822
3472631 163 17968099789166825692
3545911 37 18410854378218591320
3759504 43 17676206905170273387
4028521 119 18411697690361757992
474 4 17240205417319094354
495365 180 17560507500361331746
4990 188 18272932700550485052
5104073 3 18115867400414828897
5281201 14 18273502269186075412
5486654 2 18334572460997280375
59682541 52 17846496980882916268
59755656 215 18409731737859857495
633830 44 18342730793561009460
9709674 26 18271247235256488110

>  <PUBCHEM_SHAPE_MULTIPOLES>  (1) 
413.21
12.79
2.32
1.16
0.73
0.37
0.36
-2.28
4.53
-0.35
-0.23
1.48
0.3
2.2

>  <PUBCHEM_SHAPE_SELFOVERLAP>  (1) 
890.328

>  <PUBCHEM_SHAPE_VOLUME>  (1) 
233.6

>  <PUBCHEM_COORDINATE_TYPE>  (1) 
2
5
10

$$$$
