47068
     RDKit          3D

 17 17  0  0  0  0  0  0  0  0999 V2000
   -1.0576   -1.0329   -0.9765 O   0  0  0  0  0  0  0  0  0  0  0  0
   -1.8445   -0.2995    1.0848 O   0  0  0  0  0  0  0  0  0  0  0  0
    3.1435    1.2109   -0.0751 N   0  0  0  0  0  0  0  0  0  0  0  0
   -3.2967   -0.6179   -0.6962 N   0  0  0  0  0  0  0  0  0  0  0  0
    2.2510   -0.0297    0.0088 C   0  0  0  0  0  0  0  0  0  0  0  0
    4.4035    0.8567   -0.8597 C   0  0  0  0  0  0  0  0  0  0  0  0
    3.4938    1.6604    1.3406 C   0  0  0  0  0  0  0  0  0  0  0  0
    2.4519    2.3729   -0.7849 C   0  0  0  0  0  0  0  0  0  0  0  0
    1.0125    0.0687   -0.5314 C   0  0  0  0  0  0  0  0  0  0  0  0
    2.7752   -1.1222    0.6146 C   0  0  0  0  0  0  0  0  0  0  0  0
    0.1995   -1.0623   -0.4561 C   0  0  0  0  0  0  0  0  0  0  0  0
    1.9619   -2.2531    0.6900 C   0  0  0  0  0  0  0  0  0  0  0  0
    0.6740   -2.2230    0.1547 C   0  0  0  0  0  0  0  0  0  0  0  0
   -2.0616   -0.6155   -0.0813 C   0  0  0  0  0  0  0  0  0  0  0  0
   -4.5208   -0.2370   -0.0307 C   0  0  0  0  0  0  0  0  0  0  0  0
   -4.7364    1.2292   -0.2080 C   0  0  0  0  0  0  0  0  0  0  0  0
   -4.8493    2.0943    0.8064 C   0  0  0  0  0  0  0  0  0  0  0  0
  1 11  1  0
  1 14  1  0
  2 14  2  0
  3  5  1  0
  3  6  1  0
  3  7  1  0
  3  8  1  0
  4 14  1  0
  4 15  1  0
  5  9  2  0
  5 10  1  0
  9 11  1  0
 10 12  2  0
 11 13  2  0
 12 13  1  0
 15 16  1  0
 16 17  2  0
M  CHG  1   3   1
M  END
>  <PUBCHEM_COMPOUND_CID>  (1) 
47068

>  <PUBCHEM_CONFORMER_RMSD>  (1) 
0.8

>  <PUBCHEM_CONFORMER_DIVERSEORDER>  (1) 
1
20
61
12
53
28
16
33
52
59
22
42
19
65
46
30
48
13
62
34
35
58
3
8
32
29
44
69
55
70
64
5
66
11
71
41
60
25
23
43
18
38
51
50
6
63
47
31
26
10
67
7
37
36
14
17
68
49
57
15
56
54
24
40
45
21
4
39
9
27
2

>  <PUBCHEM_MMFF94_PARTIAL_CHARGES>  (1) 
25
1 -0.23
10 -0.15
11 0.08
12 -0.15
13 -0.15
14 0.78
15 0.44
16 -0.29
17 -0.3
2 -0.57
27 0.15
28 0.15
29 0.15
3 -0.87
30 0.15
31 0.37
34 0.15
35 0.15
36 0.15
4 -0.73
5 0.36
6 0.5
7 0.5
8 0.5
9 -0.15

>  <PUBCHEM_EFFECTIVE_ROTOR_COUNT>  (1) 
6

>  <PUBCHEM_PHARMACOPHORE_FEATURES>  (1) 
5
1 17 hydrophobe
1 2 acceptor
1 3 cation
1 4 donor
6 5 9 10 11 12 13 rings

>  <PUBCHEM_HEAVY_ATOM_COUNT>  (1) 
17

>  <PUBCHEM_ATOM_DEF_STEREO_COUNT>  (1) 
0

>  <PUBCHEM_ATOM_UDEF_STEREO_COUNT>  (1) 
0

>  <PUBCHEM_BOND_DEF_STEREO_COUNT>  (1) 
0

>  <PUBCHEM_BOND_UDEF_STEREO_COUNT>  (1) 
0

>  <PUBCHEM_ISOTOPIC_ATOM_COUNT>  (1) 
0

>  <PUBCHEM_COMPONENT_COUNT>  (1) 
1

>  <PUBCHEM_CACTVS_TAUTO_COUNT>  (1) 
2

>  <PUBCHEM_CONFORMER_ID>  (1) 
0000B7DC00000001

>  <PUBCHEM_MMFF94_ENERGY>  (1) 
60.2924

>  <PUBCHEM_FEATURE_SELFOVERLAP>  (1) 
25.371

>  <PUBCHEM_SHAPE_FINGERPRINT>  (1) 
10465860 228 18408603647508838982
10498660 4 17704073993026865865
10980938 120 18334849524261947358
11089746 13 18130777962923470348
12596602 18 15430044261852181157
12633257 1 17095795615935410240
12644460 14 17894624834293328770
13464513 79 8646773300759818360
13878862 14 18045478856343361517
14123255 52 18342454893383010675
14251764 38 18046904875574886429
14252887 29 15647052642489799042
14415576 193 18341895160645086703
14790565 3 18115880761742355068
15342816 4 9799426533003352064
1601671 61 18113903771099721468
16945 1 17970611091062731918
17868525 174 17756697538502089681
1813 80 17911524199290678598
18186145 218 18410006654437136710
18915474 69 8646476428224942809
20157964 124 18335696084655820069
20715895 44 17765432046669547345
21452121 103 18272923926011381906
21503847 285 18338802199723025387
231179 274 18341898501981794012
23402655 69 18272653449939475068
23559900 14 17844810274512688599
23596394 208 12823013071907834457
2748010 2 17972006216736415550
2838139 119 16843300540772036832
4028521 119 17775006829329107761
449060 62 18334857216574657310
474 4 18261112997548658897
5104073 3 18334857191295549115
633830 44 18339360876537175348
7970288 3 8862405127068688296
8272917 22 18337393738228810943
84936 182 18343295972560025785
94968 8 9655581833219439136

>  <PUBCHEM_SHAPE_MULTIPOLES>  (1) 
328.15
9.71
2.48
1.04
10.9
0.26
-0.14
6.22
-0.68
-1.14
-0.3
-0.38
0.23
-0.85

>  <PUBCHEM_SHAPE_SELFOVERLAP>  (1) 
664.426

>  <PUBCHEM_SHAPE_VOLUME>  (1) 
192.1

>  <PUBCHEM_COORDINATE_TYPE>  (1) 
2
5
10

$$$$
