47073
     RDKit          3D

  9  8  0  0  0  0  0  0  0  0999 V2000
   -3.4811   -0.7410    0.0841 Cl  0  0  0  0  0  0  0  0  0  0  0  0
    1.1192   -1.9828   -0.2417 O   0  0  0  0  0  0  0  0  0  0  0  0
   -0.1519    2.4370   -0.0937 O   0  0  0  0  0  0  0  0  0  0  0  0
    0.4134    0.2264   -0.1880 N   0  0  0  0  0  0  0  0  0  0  0  0
    0.7792    1.6437    0.0822 N   0  0  0  0  0  0  0  0  0  0  0  0
   -0.9449   -0.0794   -0.6146 C   0  0  0  0  0  0  0  0  0  0  0  0
   -1.8231   -0.3473    0.5979 C   0  0  0  0  0  0  0  0  0  0  0  0
    1.3536   -0.7895   -0.0355 C   0  0  0  0  0  0  0  0  0  0  0  0
    2.7355   -0.3671    0.4094 C   0  0  0  0  0  0  0  0  0  0  0  0
  1  7  1  0
  2  8  2  0
  3  5  2  0
  4  5  1  0
  4  6  1  0
  4  8  1  0
  6  7  1  0
  8  9  1  0
M  END
>  <PUBCHEM_COMPOUND_CID>  (1) 
47073

>  <PUBCHEM_CONFORMER_RMSD>  (1) 
0.6

>  <PUBCHEM_CONFORMER_DIVERSEORDER>  (1) 
1
35
11
7
34
31
36
8
26
18
2
12
24
33
27
29
32
25
30
22
15
21
19
16
17
9
10
28
5
6
23
14
13
20
4
3

>  <PUBCHEM_MMFF94_PARTIAL_CHARGES>  (1) 
9
1 -0.29
2 -0.57
3 -0.16
4 -0.18
5 -0.02
6 0.3
7 0.29
8 0.57
9 0.06

>  <PUBCHEM_EFFECTIVE_ROTOR_COUNT>  (1) 
4

>  <PUBCHEM_PHARMACOPHORE_FEATURES>  (1) 
1
1 2 acceptor

>  <PUBCHEM_HEAVY_ATOM_COUNT>  (1) 
9

>  <PUBCHEM_ATOM_DEF_STEREO_COUNT>  (1) 
0

>  <PUBCHEM_ATOM_UDEF_STEREO_COUNT>  (1) 
0

>  <PUBCHEM_BOND_DEF_STEREO_COUNT>  (1) 
0

>  <PUBCHEM_BOND_UDEF_STEREO_COUNT>  (1) 
0

>  <PUBCHEM_ISOTOPIC_ATOM_COUNT>  (1) 
0

>  <PUBCHEM_COMPONENT_COUNT>  (1) 
1

>  <PUBCHEM_CACTVS_TAUTO_COUNT>  (1) 
1

>  <PUBCHEM_CONFORMER_ID>  (1) 
0000B7E100000001

>  <PUBCHEM_MMFF94_ENERGY>  (1) 
12.9127

>  <PUBCHEM_FEATURE_SELFOVERLAP>  (1) 
5.074

>  <PUBCHEM_SHAPE_FINGERPRINT>  (1) 
10219947 1 18412543236315407466
10857977 72 18410562977308657258
20201158 50 18260828198373061675
20871998 22 18341903930694193439
21040471 1 17546450436688130189
23552449 11 18334292123664683403
29004967 10 18409730638284705226
528862 383 18118960527859535888

>  <PUBCHEM_SHAPE_MULTIPOLES>  (1) 
165.38
4.09
1.89
0.7
2.69
1.06
-0.01
-1.63
-0.61
-0.63
0.11
0.1
-0.05
0.07

>  <PUBCHEM_SHAPE_SELFOVERLAP>  (1) 
294.129

>  <PUBCHEM_SHAPE_VOLUME>  (1) 
108.1

>  <PUBCHEM_COORDINATE_TYPE>  (1) 
2
5
10

$$$$
