47076
     RDKit          3D

 25 26  0  0  0  0  0  0  0  0999 V2000
    0.4263    0.3259   -1.6085 O   0  0  0  0  0  0  0  0  0  0  0  0
   -0.7219    1.1302    1.3262 O   0  0  0  0  0  0  0  0  0  0  0  0
   -1.6625   -0.5917    0.1250 N   0  0  0  0  0  0  0  0  0  0  0  0
   -5.2018    0.5099    0.6265 N   0  0  0  0  0  0  0  0  0  0  0  0
    0.7801    0.0713   -0.2384 C   0  0  0  0  0  0  0  0  0  0  0  0
   -0.5935    0.2527    0.4616 C   0  0  0  0  0  0  0  0  0  0  0  0
    1.8600    1.0564    0.2197 C   0  0  0  0  0  0  0  0  0  0  0  0
    1.3307   -1.3650   -0.1040 C   0  0  0  0  0  0  0  0  0  0  0  0
   -2.9785   -0.5002    0.7564 C   0  0  0  0  0  0  0  0  0  0  0  0
   -3.8882    0.4552   -0.0019 C   0  0  0  0  0  0  0  0  0  0  0  0
   -1.5597   -1.6397   -0.8866 C   0  0  0  0  0  0  0  0  0  0  0  0
    2.7494    1.5368   -0.7128 C   0  0  0  0  0  0  0  0  0  0  0  0
    1.1345   -2.0225    1.0811 C   0  0  0  0  0  0  0  0  0  0  0  0
    1.8970    1.4218    1.5450 C   0  0  0  0  0  0  0  0  0  0  0  0
    1.9865   -1.9074   -1.1768 C   0  0  0  0  0  0  0  0  0  0  0  0
   -0.0733    1.6407   -1.7653 C   0  0  0  0  0  0  0  0  0  0  0  0
    3.7327    2.4340   -0.2959 C   0  0  0  0  0  0  0  0  0  0  0  0
    1.6318   -3.3201    1.2025 C   0  0  0  0  0  0  0  0  0  0  0  0
    2.8803    2.3191    1.9618 C   0  0  0  0  0  0  0  0  0  0  0  0
    2.4835   -3.2050   -1.0554 C   0  0  0  0  0  0  0  0  0  0  0  0
    3.7981    2.8251    1.0413 C   0  0  0  0  0  0  0  0  0  0  0  0
    2.3061   -3.9113    0.1344 C   0  0  0  0  0  0  0  0  0  0  0  0
   -0.4313    1.8618   -3.2196 C   0  0  0  0  0  0  0  0  0  0  0  0
   -6.0765    1.4437   -0.0854 C   0  0  0  0  0  0  0  0  0  0  0  0
   -5.8096   -0.8216    0.6690 C   0  0  0  0  0  0  0  0  0  0  0  0
  1  5  1  0
  1 16  1  0
  2  6  2  0
  3  6  1  0
  3  9  1  0
  3 11  1  0
  4 10  1  0
  4 24  1  0
  4 25  1  0
  5  6  1  0
  5  7  1  0
  5  8  1  0
  7 12  2  0
  7 14  1  0
  8 13  2  0
  8 15  1  0
  9 10  1  0
 12 17  1  0
 13 18  1  0
 14 19  2  0
 15 20  2  0
 16 23  1  0
 17 21  2  0
 18 22  2  0
 19 21  1  0
 20 22  1  0
M  END
>  <PUBCHEM_COMPOUND_CID>  (1) 
47076

>  <PUBCHEM_CONFORMER_RMSD>  (1) 
1

>  <PUBCHEM_CONFORMER_DIVERSEORDER>  (1) 
1
9
23
12
4
24
6
19
15
22
20
14
11
21
13
18
16
3
2
8
17
5
10
7

>  <PUBCHEM_MMFF94_PARTIAL_CHARGES>  (1) 
34
1 -0.56
10 0.27
11 0.3
12 -0.15
13 -0.15
14 -0.15
15 -0.15
16 0.28
17 -0.15
18 -0.15
19 -0.15
2 -0.57
20 -0.15
21 -0.15
22 -0.15
24 0.27
25 0.27
3 -0.66
33 0.15
34 0.15
35 0.15
36 0.15
39 0.15
4 -0.81
40 0.15
41 0.15
42 0.15
43 0.15
44 0.15
5 0.63
6 0.57
7 -0.14
8 -0.14
9 0.3

>  <PUBCHEM_EFFECTIVE_ROTOR_COUNT>  (1) 
9

>  <PUBCHEM_PHARMACOPHORE_FEATURES>  (1) 
5
1 1 acceptor
1 2 acceptor
1 4 cation
6 7 12 14 17 19 21 rings
6 8 13 15 18 20 22 rings

>  <PUBCHEM_HEAVY_ATOM_COUNT>  (1) 
25

>  <PUBCHEM_ATOM_DEF_STEREO_COUNT>  (1) 
0

>  <PUBCHEM_ATOM_UDEF_STEREO_COUNT>  (1) 
0

>  <PUBCHEM_BOND_DEF_STEREO_COUNT>  (1) 
0

>  <PUBCHEM_BOND_UDEF_STEREO_COUNT>  (1) 
0

>  <PUBCHEM_ISOTOPIC_ATOM_COUNT>  (1) 
0

>  <PUBCHEM_COMPONENT_COUNT>  (1) 
1

>  <PUBCHEM_CACTVS_TAUTO_COUNT>  (1) 
1

>  <PUBCHEM_CONFORMER_ID>  (1) 
0000B7E400000001

>  <PUBCHEM_MMFF94_ENERGY>  (1) 
95.1313

>  <PUBCHEM_FEATURE_SELFOVERLAP>  (1) 
25.372

>  <PUBCHEM_SHAPE_FINGERPRINT>  (1) 
10165383 225 18337678628379885228
10382601 240 18187354454595836026
11578080 2 18116994377794460228
12422481 6 18115564016087325720
12730499 353 18270410489685618779
12788726 201 16465833375507450926
12930653 34 18196936793264439459
13140716 1 18338791329646408042
13149001 5 17540787535419941052
13533116 47 18341336609344740795
13583140 156 18201442536475616459
13757389 114 17830468524107623196
13835254 42 18409167672249479133
13878862 14 18195508334819103021
13955234 65 18341898476180686515
13965767 371 18189036728797996264
14022347 108 16588600703516276781
14178342 30 18190180285716487975
14863182 85 18263376935018985647
15420108 30 18268133413615259010
15664445 248 17313681385583457364
15775530 1 17898264148697852412
16945 1 16915965017761744652
17980427 23 17607522728780788133
17980427 26 17916567873711633996
18915476 22 18266437867889989852
20369508 70 18265897956305141947
20567600 347 18339079414197738978
20691752 17 17895745309551306078
20739085 24 18113335336188005284
21033648 29 18053383481210439832
21120745 212 17478631014026979086
21421861 104 18340485573542146619
22149856 69 18119277128286946491
22182313 1 17822842079597329845
229495 10 18268973337482910333
23419403 2 18048294687866751908
23559900 14 18113910321151596779
25222932 49 17773875488553341167
298252 57 16127540439583451580
31174 14 18338792295560121942
3380486 145 17620709992182735482
3411729 13 18410853274005743291
376196 1 16914804010486796432
4340502 62 18342177820710835905
4409770 3 9189030380595076074
495365 180 18409729543553452131
5104073 3 18339933632655392219
5895379 119 16412687553229000617
59755656 215 18411704266410466316
59755656 520 18126273375955054488
633830 44 17916017052534873172
6442390 28 18267865175774935096
7364860 26 18272091565365088730
77188 2 17982172215047059250
9841814 1 18265895752696821195
9999458 23 18343025531570861732

>  <PUBCHEM_SHAPE_MULTIPOLES>  (1) 
492.79
8.69
4.13
1.94
18.74
3.29
-1.14
-3.92
2.69
-5.84
0.19
-0.68
-1.16
1.23

>  <PUBCHEM_SHAPE_SELFOVERLAP>  (1) 
1033.176

>  <PUBCHEM_SHAPE_VOLUME>  (1) 
278.2

>  <PUBCHEM_COORDINATE_TYPE>  (1) 
2
5
10

$$$$
