47079
     RDKit          3D

 11 10  0  0  0  0  0  0  0  0999 V2000
   -3.3290    0.9040    0.4039 Cl  0  0  0  0  0  0  0  0  0  0  0  0
   -1.8624   -1.3834    1.4693 Cl  0  0  0  0  0  0  0  0  0  0  0  0
   -3.4223   -1.6480   -0.9506 Cl  0  0  0  0  0  0  0  0  0  0  0  0
    1.2654    0.3008    0.8498 S   0  0  0  0  0  0  0  0  0  0  0  0
   -0.9421   -0.0928   -1.0865 S   0  0  0  0  0  0  0  0  0  0  0  0
   -0.2586    2.7025   -0.1301 S   0  0  0  0  0  0  0  0  0  0  0  0
    2.6051    0.3220   -0.3645 C   0  0  0  0  0  0  0  0  0  0  0  0
    3.8434   -0.2742    0.2236 C   0  0  0  0  0  0  0  0  0  0  0  0
   -0.0156    1.0442   -0.1111 C   0  0  0  0  0  0  0  0  0  0  0  0
   -2.3541   -0.5330   -0.0208 C   0  0  0  0  0  0  0  0  0  0  0  0
    4.4702   -1.3421   -0.2830 C   0  0  0  0  0  0  0  0  0  0  0  0
  1 10  1  0
  2 10  1  0
  3 10  1  0
  4  7  1  0
  4  9  1  0
  5  9  1  0
  5 10  1  0
  6  9  2  0
  7  8  1  0
  8 11  2  0
M  END
>  <PUBCHEM_COMPOUND_CID>  (1) 
47079

>  <PUBCHEM_CONFORMER_RMSD>  (1) 
0.6

>  <PUBCHEM_CONFORMER_DIVERSEORDER>  (1) 
1
18
68
33
23
12
66
52
72
53
48
49
35
61
54
27
19
7
63
62
28
70
15
41
39
38
22
67
44
71
47
13
69
45
31
56
43
59
50
9
8
58
30
55
40
36
14
51
26
20
65
2
37
60
64
46
42
32
21
57
29
3
4
11
17
10
16
6
25
5
24
34

>  <PUBCHEM_MMFF94_PARTIAL_CHARGES>  (1) 
14
1 -0.29
10 1.1
11 -0.3
14 0.15
15 0.15
16 0.15
2 -0.29
3 -0.29
4 -0.37
5 -0.37
6 -0.38
7 0.37
8 -0.29
9 0.66

>  <PUBCHEM_EFFECTIVE_ROTOR_COUNT>  (1) 
5

>  <PUBCHEM_PHARMACOPHORE_FEATURES>  (1) 
2
1 11 hydrophobe
1 6 acceptor

>  <PUBCHEM_HEAVY_ATOM_COUNT>  (1) 
11

>  <PUBCHEM_ATOM_DEF_STEREO_COUNT>  (1) 
0

>  <PUBCHEM_ATOM_UDEF_STEREO_COUNT>  (1) 
0

>  <PUBCHEM_BOND_DEF_STEREO_COUNT>  (1) 
0

>  <PUBCHEM_BOND_UDEF_STEREO_COUNT>  (1) 
0

>  <PUBCHEM_ISOTOPIC_ATOM_COUNT>  (1) 
0

>  <PUBCHEM_COMPONENT_COUNT>  (1) 
1

>  <PUBCHEM_CACTVS_TAUTO_COUNT>  (1) 
1

>  <PUBCHEM_CONFORMER_ID>  (1) 
0000B7E700000001

>  <PUBCHEM_MMFF94_ENERGY>  (1) 
9.9312

>  <PUBCHEM_FEATURE_SELFOVERLAP>  (1) 
10.148

>  <PUBCHEM_SHAPE_FINGERPRINT>  (1) 
11127187 94 17458063806640618323
124424 183 17131829846087795529
12932764 1 15936402381634509192
14577589 140 18202847638667264335
17841504 4 18194405713128173433
18186145 218 16877946070236456540
18342897 69 18262511494993209448
18511873 20 18411705383160122073
19422 9 18412828018517032996
19766037 51 18187932810797213100
20201158 50 18186518813042817826
20281407 28 18273496767190044066
20281475 54 18343864420456597020
20671657 53 18339358699046836677
20711983 138 18409168830850542201
20711985 344 18262787463395007400
20871998 22 18341039834856082620
20871999 31 18186791470388132701
21119208 17 15864063278318329982
21499 59 8862953761757948281
22485316 2 18272366473463183322
23402539 116 18261386724741854374
23557571 272 18269843021801512028
305870 269 10231493903118703645
449060 23 18334012770459709278
528716 315 14923660882917629503
81228 2 18265344918978016808

>  <PUBCHEM_SHAPE_MULTIPOLES>  (1) 
243.53
7.3
2.18
1.16
6.28
1.2
0.15
-4.15
-0.57
-0.8
-0.09
-0.64
-0.39
-0.11

>  <PUBCHEM_SHAPE_SELFOVERLAP>  (1) 
394.234

>  <PUBCHEM_SHAPE_VOLUME>  (1) 
166.8

>  <PUBCHEM_COORDINATE_TYPE>  (1) 
2
5
10

$$$$
