47086
     RDKit          3D

 15 15  0  0  0  0  0  0  0  0999 V2000
    1.2457    0.4258   -0.9092 O   0  0  0  0  0  0  0  0  0  0  0  0
    3.3587   -0.1888   -0.4285 O   0  0  0  0  0  0  0  0  0  0  0  0
    1.8296   -0.0767    1.2927 O   0  0  0  0  0  0  0  0  0  0  0  0
   -3.2231   -1.1218    0.0041 N   0  0  0  0  0  0  0  0  0  0  0  0
   -2.2680   -0.0845   -0.0263 C   0  0  0  0  0  0  0  0  0  0  0  0
   -0.9677   -0.3459   -0.4582 C   0  0  0  0  0  0  0  0  0  0  0  0
   -2.6240    1.2029    0.3757 C   0  0  0  0  0  0  0  0  0  0  0  0
   -0.0233    0.6803   -0.4881 C   0  0  0  0  0  0  0  0  0  0  0  0
   -4.6293   -0.8309   -0.1929 C   0  0  0  0  0  0  0  0  0  0  0  0
   -2.8094   -2.4943    0.2188 C   0  0  0  0  0  0  0  0  0  0  0  0
   -1.6797    2.2291    0.3458 C   0  0  0  0  0  0  0  0  0  0  0  0
   -0.3794    1.9677   -0.0861 C   0  0  0  0  0  0  0  0  0  0  0  0
    4.3724   -0.5958    0.4964 C   0  0  0  0  0  0  0  0  0  0  0  0
    2.1273    0.0379    0.1103 C   0  0  0  0  0  0  0  0  0  0  0  0
    5.6700   -0.8051   -0.2547 C   0  0  0  0  0  0  0  0  0  0  0  0
  1  8  1  0
  1 14  1  0
  2 13  1  0
  2 14  1  0
  3 14  2  0
  4  5  1  0
  4  9  1  0
  4 10  1  0
  5  6  2  0
  5  7  1  0
  6  8  1  0
  7 11  2  0
  8 12  2  0
 11 12  1  0
 13 15  1  0
M  END
>  <PUBCHEM_COMPOUND_CID>  (1) 
47086

>  <PUBCHEM_CONFORMER_RMSD>  (1) 
0.6

>  <PUBCHEM_CONFORMER_DIVERSEORDER>  (1) 
1
98
29
16
100
56
123
88
52
112
126
90
57
97
20
114
127
81
9
27
77
125
120
55
13
102
92
82
118
49
33
42
24
105
69
72
17
8
45
109
4
131
121
103
128
119
67
60
83
111
68
73
40
37
65
11
58
43
122
74
51
75
3
66
87
36
89
59
108
94
116
48
32
64
84
14
12
34
44
104
79
113
22
19
25
99
38
35
93
96
78
21
124
129
15
70
110
101
50
30
71
5
91
54
62
6
86
39
26
76
95
106
47
63
10
61
46
28
117
85
18
23
41
80
7
107
2
53
31
130
115

>  <PUBCHEM_MMFF94_PARTIAL_CHARGES>  (1) 
18
1 -0.23
10 0.37
11 -0.15
12 -0.15
13 0.28
14 0.87
16 0.15
17 0.15
2 -0.43
24 0.15
25 0.15
3 -0.57
4 -0.84
5 0.1
6 -0.15
7 -0.15
8 0.08
9 0.37

>  <PUBCHEM_EFFECTIVE_ROTOR_COUNT>  (1) 
5

>  <PUBCHEM_PHARMACOPHORE_FEATURES>  (1) 
2
1 4 cation
6 5 6 7 8 11 12 rings

>  <PUBCHEM_HEAVY_ATOM_COUNT>  (1) 
15

>  <PUBCHEM_ATOM_DEF_STEREO_COUNT>  (1) 
0

>  <PUBCHEM_ATOM_UDEF_STEREO_COUNT>  (1) 
0

>  <PUBCHEM_BOND_DEF_STEREO_COUNT>  (1) 
0

>  <PUBCHEM_BOND_UDEF_STEREO_COUNT>  (1) 
0

>  <PUBCHEM_ISOTOPIC_ATOM_COUNT>  (1) 
0

>  <PUBCHEM_COMPONENT_COUNT>  (1) 
1

>  <PUBCHEM_CACTVS_TAUTO_COUNT>  (1) 
1

>  <PUBCHEM_CONFORMER_ID>  (1) 
0000B7EE00000001

>  <PUBCHEM_MMFF94_ENERGY>  (1) 
54.0782

>  <PUBCHEM_FEATURE_SELFOVERLAP>  (1) 
10.148

>  <PUBCHEM_SHAPE_FINGERPRINT>  (1) 
10130415 120 18338520858676070081
10616163 171 18410013213132226882
11046707 91 18334574642139033786
12500047 106 18265889159932401837
12757275 245 18409451375326921698
13288520 33 18411420596436312174
15653759 3 17989201530111076440
17804303 29 18343865515209189688
17834072 33 18260834817328816332
18186145 218 12612752440672144918
19422 9 18334582334731448668
200 152 16949999214577515556
20871998 184 18202563960425182653
21267235 1 18336272309846991147
21650355 55 18412826871813882697
2297311 6 18201730526754204388
232386 152 18337114574265921351
23402539 116 18272644645894789429
23557571 272 18130232566738862180
23559900 14 18338509837320906024
43471831 8 18263924354102295331
5104073 3 18200869583580208730
7062679 117 18335708243497335630
81228 2 18199206035177476209

>  <PUBCHEM_SHAPE_MULTIPOLES>  (1) 
286.1
9.25
2.02
0.81
11.09
0.1
0.07
-5.1
0.1
-2.3
0.2
0.26
0.03
-0.14

>  <PUBCHEM_SHAPE_SELFOVERLAP>  (1) 
579.806

>  <PUBCHEM_SHAPE_VOLUME>  (1) 
166.3

>  <PUBCHEM_COORDINATE_TYPE>  (1) 
2
5
10

$$$$
