47082
     RDKit          3D

 22 23  0  0  0  0  0  0  0  0999 V2000
   -1.0993   -0.2248   -1.8459 O   0  0  0  0  0  0  0  0  0  0  0  0
    1.1033    0.3198   -1.8440 O   0  0  0  0  0  0  0  0  0  0  0  0
    0.0119   -0.0035    0.1932 O   0  0  0  0  0  0  0  0  0  0  0  0
   -4.4822    1.0252    1.3463 N   0  0  0  0  0  0  0  0  0  0  0  0
    4.4708   -1.0958    1.2949 N   0  0  0  0  0  0  0  0  0  0  0  0
   -3.9405    0.0928    0.4372 C   0  0  0  0  0  0  0  0  0  0  0  0
    3.9328   -0.1167    0.4338 C   0  0  0  0  0  0  0  0  0  0  0  0
   -2.7737    0.3990   -0.2635 C   0  0  0  0  0  0  0  0  0  0  0  0
    2.7701   -0.3860   -0.2883 C   0  0  0  0  0  0  0  0  0  0  0  0
   -2.2376   -0.5234   -1.1621 C   0  0  0  0  0  0  0  0  0  0  0  0
    2.2678    0.5894   -1.1206 C   0  0  0  0  0  0  0  0  0  0  0  0
   -4.5709   -1.1358    0.2396 C   0  0  0  0  0  0  0  0  0  0  0  0
    4.5632    1.1211    0.3054 C   0  0  0  0  0  0  0  0  0  0  0  0
   -5.2267    0.5733    2.5047 C   0  0  0  0  0  0  0  0  0  0  0  0
   -4.2893    2.4471    1.1414 C   0  0  0  0  0  0  0  0  0  0  0  0
    5.2088   -0.7056    2.4797 C   0  0  0  0  0  0  0  0  0  0  0  0
    4.2805   -2.5049    1.0137 C   0  0  0  0  0  0  0  0  0  0  0  0
   -2.8681   -1.7517   -1.3603 C   0  0  0  0  0  0  0  0  0  0  0  0
    2.8680    1.8201   -1.2683 C   0  0  0  0  0  0  0  0  0  0  0  0
   -4.0347   -2.0580   -0.6593 C   0  0  0  0  0  0  0  0  0  0  0  0
    4.0307    2.0895   -0.5461 C   0  0  0  0  0  0  0  0  0  0  0  0
    0.0151    0.0291   -1.0317 C   0  0  0  0  0  0  0  0  0  0  0  0
  1 10  1  0
  1 22  1  0
  2 11  1  0
  2 22  1  0
  3 22  2  0
  4  6  1  0
  4 14  1  0
  4 15  1  0
  5  7  1  0
  5 16  1  0
  5 17  1  0
  6  8  2  0
  6 12  1  0
  7  9  2  0
  7 13  1  0
  8 10  1  0
  9 11  1  0
 10 18  2  0
 11 19  2  0
 12 20  2  0
 13 21  2  0
 18 20  1  0
 19 21  1  0
M  END
>  <PUBCHEM_COMPOUND_CID>  (1) 
47082

>  <PUBCHEM_CONFORMER_RMSD>  (1) 
0.8

>  <PUBCHEM_CONFORMER_DIVERSEORDER>  (1) 
4
96
41
17
73
165
140
98
92
95
45
65
70
84
118
114
15
102
173
107
40
76
93
35
89
154
87
37
169
55
133
175
172
62
103
63
145
24
77
104
97
34
111
28
12
131
2
60
179
161
171
134
3
16
157
36
156
57
1
168
67
18
162
99
108
150
129
143
64
42
115
81
151
43
160
127
46
130
94
110
44
31
126
88
53
75
54
144
136
86
83
61
69
20
5
105
6
181
72
155
120
23
177
113
49
91
128
13
125
52
139
174
106
68
170
33
109
176
116
123
135
8
39
21
101
163
159
148
147
74
137
132
79
7
100
142
141
164
80
121
71
14
25
50
119
29
11
180
56
158
10
78
138
27
124
112
166
48
152
19
167
30
47
122
9
90
178
149
32
26
38
153
85
51
59
22
117
58
146
66
82

>  <PUBCHEM_MMFF94_PARTIAL_CHARGES>  (1) 
30
1 -0.23
10 0.08
11 0.08
12 -0.15
13 -0.15
14 0.37
15 0.37
16 0.37
17 0.37
18 -0.15
19 -0.15
2 -0.23
20 -0.15
21 -0.15
22 0.87
23 0.15
24 0.15
25 0.15
26 0.15
3 -0.57
39 0.15
4 -0.84
40 0.15
41 0.15
42 0.15
5 -0.84
6 0.1
7 0.1
8 -0.15
9 -0.15

>  <PUBCHEM_EFFECTIVE_ROTOR_COUNT>  (1) 
6

>  <PUBCHEM_PHARMACOPHORE_FEATURES>  (1) 
4
1 4 cation
1 5 cation
6 6 8 10 12 18 20 rings
6 7 9 11 13 19 21 rings

>  <PUBCHEM_HEAVY_ATOM_COUNT>  (1) 
22

>  <PUBCHEM_ATOM_DEF_STEREO_COUNT>  (1) 
0

>  <PUBCHEM_ATOM_UDEF_STEREO_COUNT>  (1) 
0

>  <PUBCHEM_BOND_DEF_STEREO_COUNT>  (1) 
0

>  <PUBCHEM_BOND_UDEF_STEREO_COUNT>  (1) 
0

>  <PUBCHEM_ISOTOPIC_ATOM_COUNT>  (1) 
0

>  <PUBCHEM_COMPONENT_COUNT>  (1) 
1

>  <PUBCHEM_CACTVS_TAUTO_COUNT>  (1) 
1

>  <PUBCHEM_CONFORMER_ID>  (1) 
0000B7EA00000004

>  <PUBCHEM_MMFF94_ENERGY>  (1) 
104.8818

>  <PUBCHEM_FEATURE_SELFOVERLAP>  (1) 
20.298

>  <PUBCHEM_SHAPE_FINGERPRINT>  (1) 
10319926 262 17775008964102122358
10498660 4 14908183049027356751
10912923 1 18339079392611826981
10928967 22 17240760640764143898
10981352 41 15793165734025954857
11089746 13 14764351487965380812
11552529 35 17974575993810866379
11595378 159 18343022207107899673
11796584 16 14201939230179590104
12107183 9 18122907525326083971
12403259 118 17704066330515110945
12422481 6 18267022756346331175
12596602 18 18339361988575001851
12633257 1 18411136926514944727
12769317 202 12535336922868589706
12788726 201 17769647934125737414
13103583 49 18409726236270072982
13167823 11 18410854395171776278
13533116 47 18187641461617121783
13544653 18 17240477018107878692
13583140 156 17986926666301918948
13726171 33 17345208872303799040
13914758 101 18041271090168752789
13955234 65 17168151195574643524
14251758 9 18267022764941547373
14252887 29 17168136871573621196
14341114 328 18341896324306722340
14739800 52 17914605301475472952
14848178 96 13038897876554274178
14849402 71 18193832872599085096
14950920 106 17895487968074914561
15142526 21 17617374426271002300
15375358 24 15626220204120412835
1813 80 17385730170669724630
19078846 21 18059572520599152276
19377110 9 18339079409786421482
193927 3 16660644025182681934
20645477 56 15625947589898591797
20645477 70 17241310478340191542
20693207 138 13334741271052917215
21033648 29 16056885740487705619
21065198 48 18411136965169656861
21065201 7 17346047765194142982
212916 134 17561365071617014727
21388113 180 15267049376763349122
21421861 104 18338805520333943670
21623969 137 16805604802309293464
23503953 91 18342458123150905629
23557571 272 17060074686635969949
23559900 14 14129054837393368542
239999 70 14996283669446565996
25122255 55 14996277020119656665
2838139 119 15625669267897614969
3089732 80 15863791681613140850
3117164 225 18266741268484718607
312425 54 17386020455152159369
314194 84 17530953667078437842
341906 21 17346600780840605192
3633792 109 18188192231913827679
3737641 26 17753322076913905554
5104073 3 18411136969464624339
5352402 22 17095530594835731985
573450 72 18343862238428763271
5758199 1 18190179182569451548
7918774 8 15719683069042498218
8863177 126 16805328794773372562
960060 61 9367349223605482290
9849439 229 17199686073817390969
9981440 41 17846503578781370407

>  <PUBCHEM_SHAPE_MULTIPOLES>  (1) 
425.18
13.69
2.21
2.09
0.15
0
0.86
0.01
8.43
-0.02
0.22
0.01
0
-3.62

>  <PUBCHEM_SHAPE_SELFOVERLAP>  (1) 
897.433

>  <PUBCHEM_SHAPE_VOLUME>  (1) 
236.6

>  <PUBCHEM_COORDINATE_TYPE>  (1) 
2
5
10

$$$$
