47097
     RDKit          3D

 24 26  0  0  0  0  0  0  0  0999 V2000
   -1.3849    0.1999    0.0781 O   0  0  0  0  0  0  0  0  0  0  0  0
   -0.2888    2.2226    0.2221 O   0  0  0  0  0  0  0  0  0  0  0  0
    0.8996    0.2597    0.0461 N   0  0  0  0  0  0  0  0  0  0  0  0
   -5.0635    0.4482    0.1723 N   0  0  0  0  0  0  0  0  0  0  0  0
    6.2907    1.7557    0.0739 N   0  0  0  0  0  0  0  0  0  0  0  0
    3.1221   -0.1946   -0.0284 C   0  0  0  0  0  0  0  0  0  0  0  0
    2.1821    0.8329    0.0703 C   0  0  0  0  0  0  0  0  0  0  0  0
    2.4134   -1.4224   -0.1143 C   0  0  0  0  0  0  0  0  0  0  0  0
    1.0441   -1.1346   -0.0672 C   0  0  0  0  0  0  0  0  0  0  0  0
   -3.7543   -0.1811    0.0843 C   0  0  0  0  0  0  0  0  0  0  0  0
    4.5007    0.1188   -0.0272 C   0  0  0  0  0  0  0  0  0  0  0  0
   -2.6512    0.8632    0.1504 C   0  0  0  0  0  0  0  0  0  0  0  0
    2.6062    2.1753    0.1704 C   0  0  0  0  0  0  0  0  0  0  0  0
   -6.1257   -0.5604    0.1509 C   0  0  0  0  0  0  0  0  0  0  0  0
   -5.2533    1.4050   -0.9207 C   0  0  0  0  0  0  0  0  0  0  0  0
   -0.2999    1.0060    0.1254 C   0  0  0  0  0  0  0  0  0  0  0  0
    2.8441   -2.7646   -0.2289 C   0  0  0  0  0  0  0  0  0  0  0  0
    0.1052   -2.1878   -0.1342 C   0  0  0  0  0  0  0  0  0  0  0  0
    4.9140    1.4473    0.0719 C   0  0  0  0  0  0  0  0  0  0  0  0
    3.9751    2.4625    0.1696 C   0  0  0  0  0  0  0  0  0  0  0  0
    1.9092   -3.7962   -0.2943 C   0  0  0  0  0  0  0  0  0  0  0  0
    0.5551   -3.5079   -0.2471 C   0  0  0  0  0  0  0  0  0  0  0  0
   -5.9509   -1.5658    1.2765 C   0  0  0  0  0  0  0  0  0  0  0  0
   -6.5891    2.1185   -0.8000 C   0  0  0  0  0  0  0  0  0  0  0  0
  1 12  1  0
  1 16  1  0
  2 16  2  0
  3  7  1  0
  3  9  1  0
  3 16  1  0
  4 10  1  0
  4 14  1  0
  4 15  1  0
  5 19  1  0
  6  7  2  0
  6  8  1  0
  6 11  1  0
  7 13  1  0
  8  9  2  0
  8 17  1  0
  9 18  1  0
 10 12  1  0
 11 19  2  0
 13 20  2  0
 14 23  1  0
 15 24  1  0
 17 21  2  0
 18 22  2  0
 19 20  1  0
 21 22  1  0
M  END
>  <PUBCHEM_COMPOUND_CID>  (1) 
47097

>  <PUBCHEM_CONFORMER_RMSD>  (1) 
0.8

>  <PUBCHEM_CONFORMER_DIVERSEORDER>  (1) 
1
46
35
74
36
83
88
67
29
39
19
57
20
86
41
37
58
69
49
92
44
91
78
53
63
50
75
103
84
30
34
87
51
56
100
45
15
28
47
13
80
23
90
54
4
55
52
40
96
48
7
11
26
62
70
95
97
65
60
10
12
18
16
79
6
81
3
27
8
33
94
99
9
24
21
93
61
14
101
72
22
71
73
43
2
25
85
77
98
42
5
102
59
66
82
68
64
17
89
32
76
31
38

>  <PUBCHEM_MMFF94_PARTIAL_CHARGES>  (1) 
29
1 -0.43
10 0.27
11 -0.15
12 0.28
13 -0.15
14 0.27
15 0.27
16 0.73
17 -0.15
18 -0.15
19 0.1
2 -0.57
20 -0.15
21 -0.15
22 -0.15
29 0.15
3 0.29
30 0.15
35 0.15
36 0.15
37 0.15
38 0.15
39 0.15
4 -0.81
46 0.4
47 0.4
5 -0.9
7 -0.15
9 -0.15

>  <PUBCHEM_EFFECTIVE_ROTOR_COUNT>  (1) 
7

>  <PUBCHEM_PHARMACOPHORE_FEATURES>  (1) 
7
1 2 acceptor
1 4 cation
1 5 cation
1 5 donor
5 3 6 7 8 9 rings
6 6 7 11 13 19 20 rings
6 8 9 17 18 21 22 rings

>  <PUBCHEM_HEAVY_ATOM_COUNT>  (1) 
24

>  <PUBCHEM_ATOM_DEF_STEREO_COUNT>  (1) 
0

>  <PUBCHEM_ATOM_UDEF_STEREO_COUNT>  (1) 
0

>  <PUBCHEM_BOND_DEF_STEREO_COUNT>  (1) 
0

>  <PUBCHEM_BOND_UDEF_STEREO_COUNT>  (1) 
0

>  <PUBCHEM_ISOTOPIC_ATOM_COUNT>  (1) 
0

>  <PUBCHEM_COMPONENT_COUNT>  (1) 
1

>  <PUBCHEM_CACTVS_TAUTO_COUNT>  (1) 
1

>  <PUBCHEM_CONFORMER_ID>  (1) 
0000B7F900000001

>  <PUBCHEM_MMFF94_ENERGY>  (1) 
67.4701

>  <PUBCHEM_FEATURE_SELFOVERLAP>  (1) 
35.688

>  <PUBCHEM_SHAPE_FINGERPRINT>  (1) 
10090160 65 18410006654384207020
10411042 1 17691122639516469566
10595046 47 18343295930507450125
10693767 8 17916307130816576670
10835480 77 18336260151232588645
10967382 1 18412265026268020778
1100329 8 18197780123009442600
11421498 54 17203060603034006171
11578080 2 13624969477033545724
11719270 70 18411973650922396090
12107183 9 17551241662276262609
12236239 1 17847067692190523825
12730499 353 18410580595174931978
12788726 201 17131556038197420977
12838862 33 18340750625281835312
13140716 1 18267857462556854330
13402501 40 18335142028978268971
13533116 47 18200868462514888721
13836976 161 18335144223801723652
138480 1 17979637836434458278
146900 427 18131638897929272403
14790565 3 18194683897885524940
15196674 1 18410293576028535691
15537594 2 17989204863401343631
15927050 60 18340204198046853606
16728300 4 17535437394266364994
19427546 62 18409166648938440852
20028762 73 18130505237106956646
20157964 124 18339357470950063981
20554085 129 17917130781200114760
20645477 70 18336543820367491947
20775438 99 17469278623391345845
21033650 10 16299520340520493413
21049683 118 18052790789082585240
21054139 6 18200303450507667391
21197605 99 18266748063651469747
21344244 181 17559978609251272118
21521721 280 18200599219009036144
21623969 137 18337118951054055771
21781051 124 18188508968324053282
221490 88 18266181621498635831
22149856 69 18266481896375123595
22224240 67 18270960262135959392
23557571 272 17385723535298783981
23559900 14 18265892458915515819
239999 70 18201163152467919494
3178227 256 18339932609530210712
335352 9 18412266164740283764
33824 294 18410857646483079202
350125 39 18410009893480566702
4073 2 18260271837426558059
42630746 31 18342739602791952622
4340502 62 18341897428350681244
474229 33 18410294747852714842
484989 97 18337968839188330366
5104073 3 18261960652874375521
5486654 2 18341055219856217844
59755656 215 18410013208810379500
6025842 7 18340763745683666615
6669772 16 18202290212648961158
8272917 22 18341048514868540855

>  <PUBCHEM_SHAPE_MULTIPOLES>  (1) 
467.23
14.57
3.82
0.75
21.17
3.09
0.03
-7.88
0.1
-3.01
-0.36
0.79
0.04
1.7

>  <PUBCHEM_SHAPE_SELFOVERLAP>  (1) 
1002.041

>  <PUBCHEM_SHAPE_VOLUME>  (1) 
261.1

>  <PUBCHEM_COORDINATE_TYPE>  (1) 
2
5
10

$$$$
