47093
     RDKit          3D

 14 16  0  0  0  0  0  0  0  0999 V2000
   -0.0103    1.4722    0.0290 N   0  0  0  0  0  0  0  0  0  0  0  0
    2.9793    2.0151    0.0445 N   0  0  0  0  0  0  0  0  0  0  0  0
   -0.9865   -0.5302   -0.0102 C   0  0  0  0  0  0  0  0  0  0  0  0
   -1.2147    0.8299    0.0122 C   0  0  0  0  0  0  0  0  0  0  0  0
   -2.0974   -1.5236   -0.0482 C   0  0  0  0  0  0  0  0  0  0  0  0
   -2.5404    1.5012    0.0461 C   0  0  0  0  0  0  0  0  0  0  0  0
   -3.4391   -0.8737    0.3431 C   0  0  0  0  0  0  0  0  0  0  0  0
   -3.6420    0.4947   -0.3350 C   0  0  0  0  0  0  0  0  0  0  0  0
    0.4234   -0.7245   -0.0152 C   0  0  0  0  0  0  0  0  0  0  0  0
    1.0104    0.5456    0.0108 C   0  0  0  0  0  0  0  0  0  0  0  0
    1.2624   -1.8569   -0.0416 C   0  0  0  0  0  0  0  0  0  0  0  0
    2.3971    0.7348    0.0145 C   0  0  0  0  0  0  0  0  0  0  0  0
    2.6506   -1.6807   -0.0390 C   0  0  0  0  0  0  0  0  0  0  0  0
    3.2071   -0.4040   -0.0110 C   0  0  0  0  0  0  0  0  0  0  0  0
  1  4  1  0
  1 10  1  0
  2 12  1  0
  3  4  2  0
  3  5  1  0
  3  9  1  0
  4  6  1  0
  5  7  1  0
  6  8  1  0
  7  8  1  0
  9 10  2  0
  9 11  1  0
 10 12  1  0
 11 13  2  0
 12 14  2  0
 13 14  1  0
M  END
>  <PUBCHEM_COMPOUND_CID>  (1) 
47093

>  <PUBCHEM_CONFORMER_RMSD>  (1) 
0.4

>  <PUBCHEM_CONFORMER_DIVERSEORDER>  (1) 
1

>  <PUBCHEM_MMFF94_PARTIAL_CHARGES>  (1) 
17
1 0.03
10 -0.15
11 -0.15
12 0.1
13 -0.15
14 -0.15
2 -0.9
23 0.27
24 0.15
25 0.15
26 0.15
27 0.4
28 0.4
3 -0.18
4 -0.33
5 0.18
6 0.18

>  <PUBCHEM_EFFECTIVE_ROTOR_COUNT>  (1) 
0.8

>  <PUBCHEM_PHARMACOPHORE_FEATURES>  (1) 
7
1 1 cation
1 1 donor
1 2 cation
1 2 donor
5 1 3 4 9 10 rings
6 3 4 5 6 7 8 rings
6 9 10 11 12 13 14 rings

>  <PUBCHEM_HEAVY_ATOM_COUNT>  (1) 
14

>  <PUBCHEM_ATOM_DEF_STEREO_COUNT>  (1) 
0

>  <PUBCHEM_ATOM_UDEF_STEREO_COUNT>  (1) 
0

>  <PUBCHEM_BOND_DEF_STEREO_COUNT>  (1) 
0

>  <PUBCHEM_BOND_UDEF_STEREO_COUNT>  (1) 
0

>  <PUBCHEM_ISOTOPIC_ATOM_COUNT>  (1) 
0

>  <PUBCHEM_COMPONENT_COUNT>  (1) 
1

>  <PUBCHEM_CACTVS_TAUTO_COUNT>  (1) 
1

>  <PUBCHEM_CONFORMER_ID>  (1) 
0000B7F500000001

>  <PUBCHEM_MMFF94_ENERGY>  (1) 
27.7323

>  <PUBCHEM_FEATURE_SELFOVERLAP>  (1) 
35.698

>  <PUBCHEM_SHAPE_FINGERPRINT>  (1) 
10608611 8 18409163294722301269
10967382 1 18338799034389988101
10980938 120 18412826914684077026
11132069 177 18411410735006712888
11471102 20 18410851036327716839
12032990 46 18410862031560272815
13140716 1 18410293571042225546
13296908 3 18408044004880793059
13380535 21 18410866463982067217
13380535 76 18410007741000649666
13897977 150 18410570703838855941
14144814 61 18411419475433991211
14325111 11 18410292518859821989
14576447 43 17841697806497846871
14790565 3 15389805040094893014
15196674 1 18410573994195118343
15219456 202 18409166619042461795
15442244 35 18195809557226563746
15536298 74 18343302565725078326
16945 1 18266743467576584914
17844478 74 18113626668441564785
17990270 104 18340488850860883054
18186145 218 18337111159577023285
193761 8 15240322009801948934
19591789 44 15883794375387560533
200 152 18059845156775423351
20201158 50 18410573942291806259
20645477 70 18341609291975017191
21267235 1 18411146818004449319
21501502 16 18410856542481025915
21501925 9 18337942424832959362
221490 88 18408895039765853426
2334 1 18410574023827275298
23402655 69 18341602669362202669
23463225 33 18409448063917556054
23552423 10 18334577931968015926
23559900 14 18340481145916355450
2748010 2 18410293618302722246
3312278 4 18411422816918566963
335352 9 18050568447737354559
5104073 3 18410012135094754467
528886 8 18411412904055017466
53812653 166 18200307852722558040
57096353 35 18340204214655965087
69090 78 18340762668227182287
7364860 26 18342738503427881374
8809292 202 18260836998623998715
9709674 26 18411422799739269407

>  <PUBCHEM_SHAPE_MULTIPOLES>  (1) 
278.15
5.86
2.01
0.62
1.37
0.06
0
0.16
0.03
-0.65
-0.02
0.08
-0.03
0.13

>  <PUBCHEM_SHAPE_SELFOVERLAP>  (1) 
614.976

>  <PUBCHEM_SHAPE_VOLUME>  (1) 
149.3

>  <PUBCHEM_COORDINATE_TYPE>  (1) 
2
5
10

$$$$
