4710
     RDKit          3D

 17 17  0  0  1  0  0  0  0  0999 V2000
   -1.4520   -1.8541    1.2733 O   0  0  0  0  0  0  0  0  0  0  0  0
   -1.9088    0.2325   -1.6740 O   0  0  0  0  0  0  0  0  0  0  0  0
    0.8645   -2.6404   -0.0441 N   0  0  0  0  0  0  0  0  0  0  0  0
    2.4652   -0.1607    0.3525 C   0  0  0  0  0  0  0  0  0  0  0  0
    0.9516   -0.2446    0.5409 C   0  0  0  0  0  0  0  0  0  0  0  0
    2.8118    0.1954   -1.0995 C   0  0  0  0  0  0  0  0  0  0  0  0
    3.0769    0.8564    1.3254 C   0  0  0  0  0  0  0  0  0  0  0  0
    0.2721   -1.3228   -0.3225 C   0  0  0  0  0  0  0  0  0  0  0  0
    4.3187    0.3375   -1.3008 C   0  0  0  0  0  0  0  0  0  0  0  0
    4.5834    0.9976    1.1200 C   0  0  0  0  0  0  0  0  0  0  0  0
    4.9244    1.3428   -0.3262 C   0  0  0  0  0  0  0  0  0  0  0  0
   -1.2527   -1.4222   -0.0801 C   0  0  0  0  0  0  0  0  0  0  0  0
   -2.0519   -0.1189   -0.2945 C   0  0  0  0  0  0  0  0  0  0  0  0
   -3.5460   -0.2473    0.0506 C   0  0  0  0  0  0  0  0  0  0  0  0
   -4.3923    1.0146   -0.2241 C   0  0  0  0  0  0  0  0  0  0  0  0
   -3.8049    2.2052    0.5400 C   0  0  0  0  0  0  0  0  0  0  0  0
   -5.8600    0.8292    0.1631 C   0  0  0  0  0  0  0  0  0  0  0  0
  1 12  1  0
  2 13  1  0
  3  8  1  0
  4  5  1  0
  4  6  1  0
  4  7  1  0
  5  8  1  0
  6  9  1  0
  7 10  1  0
  8 12  1  0
  9 11  1  0
 10 11  1  0
 12 13  1  0
 13 14  1  0
 14 15  1  0
 15 16  1  0
 15 17  1  0
M  END
>  <PUBCHEM_COMPOUND_CID>  (1) 
4710

>  <PUBCHEM_CONFORMER_RMSD>  (1) 
0.8

>  <PUBCHEM_CONFORMER_DIVERSEORDER>  (1) 
1
79
21
38
59
28
60
16
22
19
54
46
73
47
71
20
78
41
23
12
77
64
26
48
15
58
7
44
40
4
62
50
61
2
56
13
42
31
37
24
81
49
33
32
39
66
30
68
35
8
75
74
36
57
80
17
14
70
34
18
5
76
10
65
69
82
52
67
11
51
45
25
55
43
63
29
3
27
6
9
72
53

>  <PUBCHEM_MMFF94_PARTIAL_CHARGES>  (1) 
10
1 -0.68
12 0.28
13 0.28
2 -0.68
3 -0.99
36 0.36
37 0.36
39 0.4
40 0.4
8 0.27

>  <PUBCHEM_EFFECTIVE_ROTOR_COUNT>  (1) 
7.2

>  <PUBCHEM_PHARMACOPHORE_FEATURES>  (1) 
8
1 1 acceptor
1 1 donor
1 2 acceptor
1 2 donor
1 3 cation
1 3 donor
3 15 16 17 hydrophobe
6 4 6 7 9 10 11 rings

>  <PUBCHEM_HEAVY_ATOM_COUNT>  (1) 
17

>  <PUBCHEM_ATOM_DEF_STEREO_COUNT>  (1) 
0

>  <PUBCHEM_ATOM_UDEF_STEREO_COUNT>  (1) 
3

>  <PUBCHEM_BOND_DEF_STEREO_COUNT>  (1) 
0

>  <PUBCHEM_BOND_UDEF_STEREO_COUNT>  (1) 
0

>  <PUBCHEM_ISOTOPIC_ATOM_COUNT>  (1) 
0

>  <PUBCHEM_COMPONENT_COUNT>  (1) 
1

>  <PUBCHEM_CACTVS_TAUTO_COUNT>  (1) 
1

>  <PUBCHEM_CONFORMER_ID>  (1) 
0000126600000001

>  <PUBCHEM_MMFF94_ENERGY>  (1) 
22.7401

>  <PUBCHEM_FEATURE_SELFOVERLAP>  (1) 
40.6

>  <PUBCHEM_SHAPE_FINGERPRINT>  (1) 
100836 57 18411139142734114273
10354089 29 16950566592784767364
10498660 4 18271524191595748929
10670039 82 18336557001606903740
12363563 72 9727633938004248246
12596602 18 16732987543810216025
12633257 1 17022622000330822688
12730499 353 18130516274977448855
12788726 201 17391368672645924058
12892183 10 14996552971820983420
12916748 109 18342460339639113857
14123255 352 18409727365651604833
14123255 52 18343298163040767035
1420 369 8358257051110189561
14251764 30 13624079830803795184
14252887 29 11891329846680927324
14341114 176 15285357310538910988
14341114 328 16660648470220703448
15422964 175 11458691794958995426
15880784 105 15068629296512522009
1741750 31 18408602586762868594
17834072 32 18337673139084405724
1798214 55 18409728456546735884
18186145 218 17632300102879588634
18222031 100 7997969098210838242
18785283 64 18042401340234550498
200 152 13686304581994901282
20374829 77 10519984859763695161
204376 136 17967250884506708259
20621476 51 12541854849146659217
20645477 56 18272370909884812259
20645477 70 16343714222577271964
20671657 53 10807930470630179347
212847 35 18411979144280318264
21354914 88 8286197254001601437
221357 26 17060055926340406817
22713019 99 11312051054749922877
23253445 4 14129065832551636301
23402539 116 18131059472676598796
23402655 69 17060623313021041344
23500284 214 18408602573856666347
23557571 272 18129102401602427510
2916195 48 18130498747220928960
29717793 49 13470419876581706448
351380 3 10879991363345422093
4028521 119 17846500326620468657
465052 167 9367054593265705137
474 4 18334298656241290821
495365 180 17561358483606680718
5104073 3 18190185577643263505
5352402 22 13551464848325764104
56616090 163 18411428301402341606
59682541 35 18261682571259380401
59682541 52 17059495123575026717
59755656 520 18408316696385957726
633830 44 18201994447835540580
8863177 126 11886798824141566621
960060 61 12463561902617029488

>  <PUBCHEM_SHAPE_MULTIPOLES>  (1) 
333.13
11.69
1.96
1.23
3.95
0.59
-0.11
-7.82
-0.36
0.75
0.41
-0.94
-0.08
0.27

>  <PUBCHEM_SHAPE_SELFOVERLAP>  (1) 
639.575

>  <PUBCHEM_SHAPE_VOLUME>  (1) 
202.7

>  <PUBCHEM_COORDINATE_TYPE>  (1) 
2
5
10

$$$$
