47108
     RDKit          3D

 15 17  0  0  0  0  0  0  0  0999 V2000
   -0.0001    1.9213    0.0003 N   0  0  0  0  0  0  0  0  0  0  0  0
   -4.0360   -1.8602   -0.0002 N   0  0  0  0  0  0  0  0  0  0  0  0
    4.0361   -1.8602   -0.0004 N   0  0  0  0  0  0  0  0  0  0  0  0
   -0.7155   -0.1906    0.0004 C   0  0  0  0  0  0  0  0  0  0  0  0
    0.7156   -0.1906    0.0005 C   0  0  0  0  0  0  0  0  0  0  0  0
   -1.1320    1.1408    0.0001 C   0  0  0  0  0  0  0  0  0  0  0  0
    1.1320    1.1409    0.0002 C   0  0  0  0  0  0  0  0  0  0  0  0
   -1.6969   -1.2041    0.0004 C   0  0  0  0  0  0  0  0  0  0  0  0
    1.6968   -1.2042    0.0005 C   0  0  0  0  0  0  0  0  0  0  0  0
   -2.4814    1.5120   -0.0003 C   0  0  0  0  0  0  0  0  0  0  0  0
    2.4814    1.5120   -0.0001 C   0  0  0  0  0  0  0  0  0  0  0  0
   -3.0504   -0.8486   -0.0001 C   0  0  0  0  0  0  0  0  0  0  0  0
    3.0504   -0.8486   -0.0001 C   0  0  0  0  0  0  0  0  0  0  0  0
   -3.4347    0.4901   -0.0005 C   0  0  0  0  0  0  0  0  0  0  0  0
    3.4346    0.4901   -0.0006 C   0  0  0  0  0  0  0  0  0  0  0  0
  1  6  1  0
  1  7  1  0
  2 12  1  0
  3 13  1  0
  4  5  1  0
  4  6  2  0
  4  8  1  0
  5  7  2  0
  5  9  1  0
  6 10  1  0
  7 11  1  0
  8 12  2  0
  9 13  2  0
 10 14  2  0
 11 15  2  0
 12 14  1  0
 13 15  1  0
M  END
>  <PUBCHEM_COMPOUND_CID>  (1) 
47108

>  <PUBCHEM_CONFORMER_RMSD>  (1) 
0.4

>  <PUBCHEM_CONFORMER_DIVERSEORDER>  (1) 
1

>  <PUBCHEM_MMFF94_PARTIAL_CHARGES>  (1) 
24
1 0.03
10 -0.15
11 -0.15
12 0.1
13 0.1
14 -0.15
15 -0.15
16 0.27
17 0.15
18 0.15
19 0.15
2 -0.9
20 0.15
21 0.15
22 0.15
23 0.4
24 0.4
25 0.4
26 0.4
3 -0.9
6 -0.15
7 -0.15
8 -0.15
9 -0.15

>  <PUBCHEM_EFFECTIVE_ROTOR_COUNT>  (1) 
0

>  <PUBCHEM_PHARMACOPHORE_FEATURES>  (1) 
9
1 1 cation
1 1 donor
1 2 cation
1 2 donor
1 3 cation
1 3 donor
5 1 4 5 6 7 rings
6 4 6 8 10 12 14 rings
6 5 7 9 11 13 15 rings

>  <PUBCHEM_HEAVY_ATOM_COUNT>  (1) 
15

>  <PUBCHEM_ATOM_DEF_STEREO_COUNT>  (1) 
0

>  <PUBCHEM_ATOM_UDEF_STEREO_COUNT>  (1) 
0

>  <PUBCHEM_BOND_DEF_STEREO_COUNT>  (1) 
0

>  <PUBCHEM_BOND_UDEF_STEREO_COUNT>  (1) 
0

>  <PUBCHEM_ISOTOPIC_ATOM_COUNT>  (1) 
0

>  <PUBCHEM_COMPONENT_COUNT>  (1) 
1

>  <PUBCHEM_CACTVS_TAUTO_COUNT>  (1) 
1

>  <PUBCHEM_CONFORMER_ID>  (1) 
0000B80400000001

>  <PUBCHEM_MMFF94_ENERGY>  (1) 
54.1912

>  <PUBCHEM_FEATURE_SELFOVERLAP>  (1) 
45.851

>  <PUBCHEM_SHAPE_FINGERPRINT>  (1) 
10608611 8 18410851066377170148
10618630 7 18409730668333444125
10967382 1 18266458904481452166
11132069 177 18410567362401694616
11471102 20 18410288112133621252
11543360 7 15719685341149081086
11769659 78 18410571790423175878
11806522 49 18336825419729481567
12032990 46 18410577283686438403
13140716 1 18341050722466095177
13288520 33 18340208475780831238
13296908 3 18410573989446457423
14144814 61 18411982468215740169
14325111 11 18410855468718388704
14576447 43 17912072065154971495
14965852 173 18411700959100934569
15196674 1 18410573985151470631
15219456 202 18411978065874424048
15442244 35 18339362963691034968
15536298 74 18342175570617490464
16945 1 18194965136549441256
17804303 29 18341898441878632052
18186145 218 17676482839280105319
19422 9 18410579482709628997
200 152 18060127765713151543
20281475 54 18410578383197994732
20645477 70 18411414020873400983
20871998 184 18202563969120579759
21267235 1 18410865355733201539
21501502 16 18410862061498436836
21501925 9 18410565210860313218
221490 88 18335990851854867010
2255824 54 17967818245539138066
2334 1 18410855494487932652
23463225 33 18410576184354152316
23559900 14 18268703927517330370
2748010 2 18410851062092401748
2871803 45 18261385680928041055
3312278 4 18412265021245241785
335352 9 18194682562119008605
5104073 3 18411981355750620088
57096353 35 18336832016656784996
7364860 26 18269273637380478144
8809292 202 18334018271917507971
9709674 26 18336550503073211218

>  <PUBCHEM_SHAPE_MULTIPOLES>  (1) 
293.75
6.8
2.01
0.6
0
0.03
0
2.68
0
0
0
0
-0.01
0

>  <PUBCHEM_SHAPE_SELFOVERLAP>  (1) 
665.149

>  <PUBCHEM_SHAPE_VOLUME>  (1) 
156.6

>  <PUBCHEM_COORDINATE_TYPE>  (1) 
2
5
10

$$$$
