47115
     RDKit          3D

 18 18  0  0  1  0  0  0  0  0999 V2000
    0.9236    0.0777    1.9535 O   0  0  0  0  0  0  0  0  0  0  0  0
   -0.9058   -0.1174   -2.3669 O   0  0  0  0  0  0  0  0  0  0  0  0
   -1.0821    3.7575    0.0849 O   0  0  0  0  0  0  0  0  0  0  0  0
   -0.1660    1.8860    1.0561 N   0  0  0  0  0  0  0  0  0  0  0  0
   -1.0804    1.7884   -1.1018 N   0  0  0  0  0  0  0  0  0  0  0  0
   -0.4752   -0.3124    0.0115 C   0  0  0  0  0  0  0  0  0  0  0  0
   -1.8044   -0.8212    0.5976 C   0  0  0  0  0  0  0  0  0  0  0  0
    0.4267   -1.5113   -0.3162 C   0  0  0  0  0  0  0  0  0  0  0  0
   -2.5454   -1.6615   -0.4546 C   0  0  0  0  0  0  0  0  0  0  0  0
    0.1871    0.5451    1.0853 C   0  0  0  0  0  0  0  0  0  0  0  0
   -0.8117    0.4386   -1.2728 C   0  0  0  0  0  0  0  0  0  0  0  0
   -1.5320   -1.5988    1.8839 C   0  0  0  0  0  0  0  0  0  0  0  0
   -3.9050   -2.1577    0.0163 C   0  0  0  0  0  0  0  0  0  0  0  0
    1.7804   -1.0519   -0.7485 C   0  0  0  0  0  0  0  0  0  0  0  0
   -0.8110    2.5571    0.0242 C   0  0  0  0  0  0  0  0  0  0  0  0
    2.9107   -1.3661   -0.0985 C   0  0  0  0  0  0  0  0  0  0  0  0
    4.2708   -0.8865   -0.5111 C   0  0  0  0  0  0  0  0  0  0  0  0
    4.6195    0.4343    0.1571 C   0  0  0  0  0  0  0  0  0  0  0  0
  1 10  2  0
  2 11  2  0
  3 15  2  0
  4 10  1  0
  4 15  1  0
  5 11  1  0
  5 15  1  0
  6  7  1  0
  6  8  1  0
  6 10  1  0
  6 11  1  0
  7  9  1  0
  7 12  1  0
  8 14  1  0
  9 13  1  0
 14 16  2  0
 16 17  1  0
 17 18  1  0
M  END
>  <PUBCHEM_COMPOUND_CID>  (1) 
47115

>  <PUBCHEM_CONFORMER_RMSD>  (1) 
0.8

>  <PUBCHEM_CONFORMER_DIVERSEORDER>  (1) 
1
17
20
8
5
21
12
9
16
7
11
10
15
14
18
19
6
3
2
13
4

>  <PUBCHEM_MMFF94_PARTIAL_CHARGES>  (1) 
17
1 -0.57
10 0.57
11 0.57
14 -0.29
15 0.69
16 -0.29
17 0.14
2 -0.57
3 -0.57
30 0.15
31 0.37
32 0.37
33 0.15
4 -0.49
5 -0.49
6 0.12
8 0.14

>  <PUBCHEM_EFFECTIVE_ROTOR_COUNT>  (1) 
5.6

>  <PUBCHEM_PHARMACOPHORE_FEATURES>  (1) 
9
1 1 acceptor
1 12 hydrophobe
1 13 hydrophobe
1 18 hydrophobe
1 2 acceptor
1 3 acceptor
1 4 donor
1 5 donor
6 4 5 6 10 11 15 rings

>  <PUBCHEM_HEAVY_ATOM_COUNT>  (1) 
18

>  <PUBCHEM_ATOM_DEF_STEREO_COUNT>  (1) 
0

>  <PUBCHEM_ATOM_UDEF_STEREO_COUNT>  (1) 
1

>  <PUBCHEM_BOND_DEF_STEREO_COUNT>  (1) 
0

>  <PUBCHEM_BOND_UDEF_STEREO_COUNT>  (1) 
1

>  <PUBCHEM_ISOTOPIC_ATOM_COUNT>  (1) 
0

>  <PUBCHEM_COMPONENT_COUNT>  (1) 
1

>  <PUBCHEM_CACTVS_TAUTO_COUNT>  (1) 
5

>  <PUBCHEM_CONFORMER_ID>  (1) 
0000B80B00000001

>  <PUBCHEM_MMFF94_ENERGY>  (1) 
47.5043

>  <PUBCHEM_FEATURE_SELFOVERLAP>  (1) 
45.713

>  <PUBCHEM_SHAPE_FINGERPRINT>  (1) 
11578080 2 16700582736963096521
12173636 292 18265333898291771764
12423570 1 13963836357778933755
13024252 1 12324540730443169302
14142880 1 18115311068663164388
14817 1 9642733936658924157
16945 1 18196662787087559359
17980427 23 17203063953825655267
19765921 60 17263832594897142960
20473742 2 18050002491401959687
20510252 161 18409167688684880554
20600515 1 17968959589610729327
20645476 183 17764016970196572574
21339142 36 18410004455355930335
21524375 3 17468768389823705804
23227448 37 18340210665966420732
23402539 116 17967530177176088198
23419403 2 18117259566122900077
23557571 272 18408326583864611062
2748010 2 18054474106413281449
298252 57 16767298675748185069
430814 3 17402041198045057229
576247 118 18338785818902329299
7364860 26 17906174310616356459
81228 2 18116174189216663799

>  <PUBCHEM_SHAPE_MULTIPOLES>  (1) 
342.86
5.59
2.93
1.57
6.2
3.18
0.03
-3.83
-0.31
-1.89
0.12
-0.49
-0.06
0.5

>  <PUBCHEM_SHAPE_SELFOVERLAP>  (1) 
696.451

>  <PUBCHEM_SHAPE_VOLUME>  (1) 
197

>  <PUBCHEM_COORDINATE_TYPE>  (1) 
2
5
10

$$$$
