4711
     RDKit          3D

 13 13  0  0  1  0  0  0  0  0999 V2000
   -4.7979   -0.7153   -0.3523 I   0  0  0  0  0  0  0  0  0  0  0  0
    3.8757    1.2337   -0.0564 S   0  0  0  0  0  0  0  0  0  0  0  0
    1.4407   -1.5308   -1.2083 O   0  0  0  0  0  0  0  0  0  0  0  0
    2.9690   -1.5832    0.4639 O   0  0  0  0  0  0  0  0  0  0  0  0
    1.1980    1.1481    0.6510 C   0  0  0  0  0  0  0  0  0  0  0  0
   -0.2079    0.7105    0.4157 C   0  0  0  0  0  0  0  0  0  0  0  0
    2.1983    0.5768   -0.3733 C   0  0  0  0  0  0  0  0  0  0  0  0
   -1.0447    1.4660   -0.4057 C   0  0  0  0  0  0  0  0  0  0  0  0
   -0.6864   -0.4540    1.0164 C   0  0  0  0  0  0  0  0  0  0  0  0
    2.2554   -0.9394   -0.2949 C   0  0  0  0  0  0  0  0  0  0  0  0
   -2.3600    1.0574   -0.6262 C   0  0  0  0  0  0  0  0  0  0  0  0
   -2.0016   -0.8628    0.7956 C   0  0  0  0  0  0  0  0  0  0  0  0
   -2.8385   -0.1071   -0.0255 C   0  0  0  0  0  0  0  0  0  0  0  0
  1 13  1  0
  2  7  1  0
  3 10  1  0
  4 10  2  0
  5  6  1  0
  5  7  1  0
  6  8  2  0
  6  9  1  0
  7 10  1  0
  8 11  1  0
  9 12  2  0
 11 13  2  0
 12 13  1  0
M  END
>  <PUBCHEM_COMPOUND_CID>  (1) 
4711

>  <PUBCHEM_CONFORMER_RMSD>  (1) 
0.6

>  <PUBCHEM_CONFORMER_DIVERSEORDER>  (1) 
3
1
10
13
15
4
11
12
7
2
5
8
14
9
6

>  <PUBCHEM_MMFF94_PARTIAL_CHARGES>  (1) 
19
1 -0.08
10 0.66
11 -0.15
12 -0.15
13 0.08
17 0.15
18 0.15
19 0.15
2 -0.41
20 0.15
21 0.18
22 0.5
3 -0.65
4 -0.57
5 0.14
6 -0.14
7 0.29
8 -0.15
9 -0.15

>  <PUBCHEM_EFFECTIVE_ROTOR_COUNT>  (1) 
3

>  <PUBCHEM_PHARMACOPHORE_FEATURES>  (1) 
5
1 1 hydrophobe
1 3 acceptor
1 4 acceptor
3 3 4 10 anion
6 6 8 9 11 12 13 rings

>  <PUBCHEM_HEAVY_ATOM_COUNT>  (1) 
13

>  <PUBCHEM_ATOM_DEF_STEREO_COUNT>  (1) 
0

>  <PUBCHEM_ATOM_UDEF_STEREO_COUNT>  (1) 
1

>  <PUBCHEM_BOND_DEF_STEREO_COUNT>  (1) 
0

>  <PUBCHEM_BOND_UDEF_STEREO_COUNT>  (1) 
0

>  <PUBCHEM_ISOTOPIC_ATOM_COUNT>  (1) 
0

>  <PUBCHEM_COMPONENT_COUNT>  (1) 
1

>  <PUBCHEM_CACTVS_TAUTO_COUNT>  (1) 
1

>  <PUBCHEM_CONFORMER_ID>  (1) 
0000126700000003

>  <PUBCHEM_MMFF94_ENERGY>  (1) 
28.4703

>  <PUBCHEM_FEATURE_SELFOVERLAP>  (1) 
25.431

>  <PUBCHEM_SHAPE_FINGERPRINT>  (1) 
11769659 78 18060131077138399703
12032990 46 18187649133019231483
14251717 144 18202002140153908343
15219456 202 18408885126727866744
15375358 24 18187927334608467769
15775835 57 18130507530249454326
16945 1 18261967356527325424
18186145 218 18041279851047565517
200 152 18131633395696467945
20201158 50 18409171029857836808
20279233 1 18187650231765935785
20344682 1 18337670918253913692
20645476 183 15430037690636069227
20645477 70 18412824668574742255
21293036 1 17822005441432270821
21501502 16 18339929212015978233
22485316 2 18342173393132258063
23402539 116 17895746421641412925
23402655 69 18411694383885890693
23557571 272 17748819713640685989
23559900 14 18113056047818997322
4990 188 18259979393024362231
58051976 378 18335986462350863284
581208 293 18271524294389471008
69090 78 18335698364634769843

>  <PUBCHEM_SHAPE_MULTIPOLES>  (1) 
271.58
7.61
1.62
0.97
3.41
0.19
0
0.86
-1.1
-0.84
-0.17
0.09
0.15
0.32

>  <PUBCHEM_SHAPE_SELFOVERLAP>  (1) 
526.285

>  <PUBCHEM_SHAPE_VOLUME>  (1) 
168.2

>  <PUBCHEM_COORDINATE_TYPE>  (1) 
2
5
10

$$$$
