47129
     RDKit          3D

 19 21  0  0  1  0  0  0  0  0999 V2000
    1.3290    0.7867   -0.0768 N   0  0  0  0  0  0  0  0  0  0  0  0
   -3.5049   -0.5784   -0.0661 N   0  0  0  0  0  0  0  0  0  0  0  0
    3.9013    0.9972   -0.3516 C   0  0  0  0  0  0  0  0  0  0  0  0
    3.0300   -0.6078    1.3011 C   0  0  0  0  0  0  0  0  0  0  0  0
    2.5079    1.2123   -0.9663 C   0  0  0  0  0  0  0  0  0  0  0  0
    1.5947   -0.4709    0.7659 C   0  0  0  0  0  0  0  0  0  0  0  0
    3.8659    0.6517    1.1296 C   0  0  0  0  0  0  0  0  0  0  0  0
    0.1352    0.4799   -1.0041 C   0  0  0  0  0  0  0  0  0  0  0  0
    4.6607   -0.1234   -1.0954 C   0  0  0  0  0  0  0  0  0  0  0  0
    3.7631   -1.7773    0.6078 C   0  0  0  0  0  0  0  0  0  0  0  0
    4.0440   -1.5055   -0.8714 C   0  0  0  0  0  0  0  0  0  0  0  0
   -1.1046    0.1293   -0.1880 C   0  0  0  0  0  0  0  0  0  0  0  0
    0.8724    1.9519    0.8144 C   0  0  0  0  0  0  0  0  0  0  0  0
   -2.3600   -0.1945   -0.9910 C   0  0  0  0  0  0  0  0  0  0  0  0
   -3.8237    0.5801    0.9013 C   0  0  0  0  0  0  0  0  0  0  0  0
   -4.7969   -0.8178   -0.8739 C   0  0  0  0  0  0  0  0  0  0  0  0
   -5.3325    0.7192    0.8498 C   0  0  0  0  0  0  0  0  0  0  0  0
   -5.6562    0.3990   -0.5928 C   0  0  0  0  0  0  0  0  0  0  0  0
   -3.1253   -1.8317    0.7075 C   0  0  0  0  0  0  0  0  0  0  0  0
  1  5  1  0
  1  6  1  0
  1  8  1  0
  1 13  1  0
  2 14  1  0
  2 15  1  0
  2 16  1  0
  2 19  1  0
  3  5  1  0
  3  7  1  0
  3  9  1  0
  4  6  1  0
  4  7  1  0
  4 10  1  0
  8 12  1  0
  9 11  1  0
 10 11  1  0
 12 14  1  0
 15 17  1  0
 16 18  1  0
 17 18  1  0
M  CHG  2   1   1   2   1
M  END
>  <PUBCHEM_COMPOUND_CID>  (1) 
47129

>  <PUBCHEM_CONFORMER_RMSD>  (1) 
0.8

>  <PUBCHEM_CONFORMER_DIVERSEORDER>  (1) 
3
21
25
24
26
18
27
10
17
19
16
15
22
12
23
14
2
11
20
1
6
13
4
7
9
5
8

>  <PUBCHEM_MMFF94_PARTIAL_CHARGES>  (1) 
10
1 -1.01
13 0.5
14 0.5
15 0.5
16 0.5
19 0.5
2 -1.01
5 0.5
6 0.5
8 0.5

>  <PUBCHEM_EFFECTIVE_ROTOR_COUNT>  (1) 
6.4

>  <PUBCHEM_PHARMACOPHORE_FEATURES>  (1) 
5
1 1 cation
1 2 cation
5 2 15 16 17 18 rings
6 1 3 4 5 6 7 rings
6 3 4 7 9 10 11 rings

>  <PUBCHEM_HEAVY_ATOM_COUNT>  (1) 
19

>  <PUBCHEM_ATOM_DEF_STEREO_COUNT>  (1) 
0

>  <PUBCHEM_ATOM_UDEF_STEREO_COUNT>  (1) 
2

>  <PUBCHEM_BOND_DEF_STEREO_COUNT>  (1) 
0

>  <PUBCHEM_BOND_UDEF_STEREO_COUNT>  (1) 
0

>  <PUBCHEM_ISOTOPIC_ATOM_COUNT>  (1) 
0

>  <PUBCHEM_COMPONENT_COUNT>  (1) 
1

>  <PUBCHEM_CACTVS_TAUTO_COUNT>  (1) 
1

>  <PUBCHEM_CONFORMER_ID>  (1) 
0000B81900000003

>  <PUBCHEM_MMFF94_ENERGY>  (1) 
73.0049

>  <PUBCHEM_FEATURE_SELFOVERLAP>  (1) 
26.635

>  <PUBCHEM_SHAPE_FINGERPRINT>  (1) 
11128504 68 11169917177826251435
11287383 113 13190344569123994597
12107183 9 17765157163907518811
12166972 35 16271924947999636937
12236239 1 18272089404748449957
12596602 18 16343414081251186338
12616999 72 16515687719686575282
12670546 56 18201998815690855233
128620 24 12540695924913665795
12916748 109 9007056876870554781
13167823 11 18272085041473342071
13533116 47 18272931583722221323
13583140 156 16916777565170591483
13675066 3 17131829893474724079
13911852 28 13181085491992839236
13914758 101 18270954658359101245
14251764 38 13326583916856119731
14252887 29 18334851715185729208
14386348 63 16081090381082778009
15188451 53 16486674953593240775
15537594 2 17530688705702425611
15788980 27 16343702132033278215
15885798 251 18271805692204827288
17349148 13 15339119061171221901
17834072 33 18411417341056882111
18186145 218 18040150734020229522
18222031 100 17704068508147939101
19078846 21 18201722842509481897
19489759 90 17131833153866533153
20281475 54 18260824908106086603
20645477 70 17895185593349439050
21033648 29 15195280894153996651
2215653 11 18409443674830407511
23402539 116 11600009834476123169
23402655 69 17603585239933509340
23557571 272 15141223422022461622
23559900 14 18412263977631537824
239999 70 18261115192767570750
300161 21 18333725849185035245
3004659 81 18335702715568483494
345986 75 18196360434063911482
351380 180 12679463075510317555
4047638 21 8214141867745740164
4325135 7 12107795120272858851
4990 188 15068620474280034208
5104073 3 18059858389474957643
522135 26 18333731308373214142
5281201 14 16877937213829230934
5374978 207 13254794642220065118
542803 24 18343865519936595645
573450 72 17989202647082173999
7495541 125 12540704746544461645
8509985 295 18131631179630590649
90127 26 17703796945823625825
960060 61 18260270750198516854
9971528 1 18202562886620353536

>  <PUBCHEM_SHAPE_MULTIPOLES>  (1) 
381.05
12.84
1.62
1.3
11.19
0.23
0.04
1.39
-0.6
-0.84
0.24
-0.43
0
-0.28

>  <PUBCHEM_SHAPE_SELFOVERLAP>  (1) 
764.376

>  <PUBCHEM_SHAPE_VOLUME>  (1) 
221.5

>  <PUBCHEM_COORDINATE_TYPE>  (1) 
2
5
10

$$$$
