4712
     RDKit          3D

 27 30  0  0  0  0  0  0  0  0999 V2000
    5.7125   -3.5244    0.1439 F   0  0  0  0  0  0  0  0  0  0  0  0
   -7.2407   -1.2865   -0.5014 O   0  0  0  0  0  0  0  0  0  0  0  0
   -7.3248    0.6588    0.5216 O   0  0  0  0  0  0  0  0  0  0  0  0
   -0.3599    1.1505   -0.0467 N   0  0  0  0  0  0  0  0  0  0  0  0
   -0.2124   -1.0637    0.0427 N   0  0  0  0  0  0  0  0  0  0  0  0
    3.9603    3.8707   -0.1547 N   0  0  0  0  0  0  0  0  0  0  0  0
   -6.6804   -0.2872    0.0088 N   0  0  0  0  0  0  0  0  0  0  0  0
    0.9763    0.8646   -0.0345 C   0  0  0  0  0  0  0  0  0  0  0  0
    1.0389   -0.5056    0.0212 C   0  0  0  0  0  0  0  0  0  0  0  0
   -1.0337   -0.0381    0.0011 C   0  0  0  0  0  0  0  0  0  0  0  0
    2.2456   -1.2832    0.0533 C   0  0  0  0  0  0  0  0  0  0  0  0
   -2.4751   -0.1018    0.0031 C   0  0  0  0  0  0  0  0  0  0  0  0
    1.9915    1.8873   -0.0755 C   0  0  0  0  0  0  0  0  0  0  0  0
   -3.1252   -1.2009   -0.5575 C   0  0  0  0  0  0  0  0  0  0  0  0
   -3.2179    0.9361    0.5655 C   0  0  0  0  0  0  0  0  0  0  0  0
    2.8316   -1.6122    1.2755 C   0  0  0  0  0  0  0  0  0  0  0  0
    2.8305   -1.7116   -1.1384 C   0  0  0  0  0  0  0  0  0  0  0  0
    2.4841    2.3341   -1.2968 C   0  0  0  0  0  0  0  0  0  0  0  0
    2.4827    2.4316    1.1063 C   0  0  0  0  0  0  0  0  0  0  0  0
   -4.5187   -1.2624   -0.5555 C   0  0  0  0  0  0  0  0  0  0  0  0
   -4.6114    0.8746    0.5675 C   0  0  0  0  0  0  0  0  0  0  0  0
   -5.2619   -0.2246    0.0069 C   0  0  0  0  0  0  0  0  0  0  0  0
    4.0025   -2.3695    1.3062 C   0  0  0  0  0  0  0  0  0  0  0  0
    4.0014   -2.4689   -1.1077 C   0  0  0  0  0  0  0  0  0  0  0  0
    4.5874   -2.7979    0.1145 C   0  0  0  0  0  0  0  0  0  0  0  0
    3.4590    3.3185   -1.2824 C   0  0  0  0  0  0  0  0  0  0  0  0
    3.4577    3.4117    1.0133 C   0  0  0  0  0  0  0  0  0  0  0  0
  1 25  1  0
  2  7  1  0
  3  7  2  0
  4  8  1  0
  4 10  1  0
  5  9  1  0
  5 10  2  0
  6 26  2  0
  6 27  1  0
  7 22  1  0
  8  9  2  0
  8 13  1  0
  9 11  1  0
 10 12  1  0
 11 16  2  0
 11 17  1  0
 12 14  2  0
 12 15  1  0
 13 18  2  0
 13 19  1  0
 14 20  1  0
 15 21  2  0
 16 23  1  0
 17 24  2  0
 18 26  1  0
 19 27  2  0
 20 22  2  0
 21 22  1  0
 23 25  2  0
 24 25  1  0
M  CHG  2   2  -1   7   1
M  END
>  <PUBCHEM_COMPOUND_CID>  (1) 
4712

>  <PUBCHEM_CONFORMER_RMSD>  (1) 
0.8

>  <PUBCHEM_CONFORMER_DIVERSEORDER>  (1) 
1
3
2

>  <PUBCHEM_MMFF94_PARTIAL_CHARGES>  (1) 
40
1 -0.19
10 0.13
11 0.05
12 0.05
13 0.05
14 -0.15
15 -0.15
16 -0.15
17 -0.15
18 -0.15
19 -0.15
2 -0.52
20 -0.15
21 -0.15
22 0.13
23 -0.15
24 -0.15
25 0.19
26 0.16
27 0.16
28 0.27
29 0.15
3 -0.52
30 0.15
31 0.15
32 0.15
33 0.15
34 0.15
35 0.15
36 0.15
37 0.15
38 0.15
39 0.15
4 0.03
40 0.15
5 -0.57
6 -0.62
7 0.91
8 -0.2
9 0.17

>  <PUBCHEM_EFFECTIVE_ROTOR_COUNT>  (1) 
4

>  <PUBCHEM_PHARMACOPHORE_FEATURES>  (1) 
10
1 2 acceptor
1 2 anion
1 3 acceptor
1 4 donor
1 6 acceptor
3 4 5 10 cation
5 4 5 8 9 10 rings
6 11 16 17 23 24 25 rings
6 12 14 15 20 21 22 rings
6 6 13 18 19 26 27 rings

>  <PUBCHEM_HEAVY_ATOM_COUNT>  (1) 
27

>  <PUBCHEM_ATOM_DEF_STEREO_COUNT>  (1) 
0

>  <PUBCHEM_ATOM_UDEF_STEREO_COUNT>  (1) 
0

>  <PUBCHEM_BOND_DEF_STEREO_COUNT>  (1) 
0

>  <PUBCHEM_BOND_UDEF_STEREO_COUNT>  (1) 
0

>  <PUBCHEM_ISOTOPIC_ATOM_COUNT>  (1) 
0

>  <PUBCHEM_COMPONENT_COUNT>  (1) 
1

>  <PUBCHEM_CACTVS_TAUTO_COUNT>  (1) 
3

>  <PUBCHEM_CONFORMER_ID>  (1) 
0000126800000001

>  <PUBCHEM_MMFF94_ENERGY>  (1) 
76.5066

>  <PUBCHEM_FEATURE_SELFOVERLAP>  (1) 
50.827

>  <PUBCHEM_SHAPE_FINGERPRINT>  (1) 
10050765 1 18338800134619586291
10411042 1 18266177219811356530
10554248 39 18341880897670659557
10595046 47 18270680991331968261
10721379 63 18412273847962275716
12107183 9 18126011455911669657
12166972 35 18271805674972003211
12516196 113 18338796694176689546
12616971 3 18201995526447416231
12730499 353 18267596882057994265
12741549 16 17773585024109795490
12788726 201 17611468537090508690
13009979 54 18058735697449859592
13073987 5 18339645642228967563
13383668 362 18198890577945156386
133893 2 18264227901506446144
13533116 47 18411418436378966233
13590594 115 18192159200314066080
1361 4 18194963170557745959
13878862 14 18265312002886763421
13955234 65 18410293652984402696
14118638 360 18197779006871814311
14170010 4 18411135840400012496
14461889 52 17898011472152101363
14739800 52 17702938257323552273
14955137 171 18270683052394466110
15081414 286 18260828245955637317
15439362 3 18335985384799543924
15664445 248 18270129998473216454
1577012 14 18131355241979528357
15927050 60 18196090177996036038
16993427 108 17898274023461416066
17492 89 18340203106940394471
17844677 252 18336266756749546541
1813 80 18268996384535720734
18222031 100 18269841921699040302
18335252 98 18191592063680017691
20028762 73 18272929397890446783
20369508 70 18260828163955274946
20554085 129 17915453016519384928
20612939 158 18409453596151931549
20771845 65 18130224857435810826
21033648 29 17022891360080387767
21049683 271 18261399923514088908
21304303 172 17984707714588134840
2132832 1 18201440225198142873
21344244 78 18059281089703484728
21781055 127 16629705963122267011
21859007 373 17824521016836955677
22182313 1 17677310776036750957
23366157 5 18261111902643228332
23559900 14 18413382138176222331
249057 25 17846503600318991281
249999 5 18338796823014847272
25147074 1 18200609024535495225
3004659 81 18343305851369941031
312423 11 18342468027836269673
3411729 13 18337950203330040312
350125 39 18410576150121469197
4073 2 18116436036831252507
4409770 3 17251170615139942492
5104073 3 18412834603519588915
5219985 9 18264209106930103186
5385378 56 18338514252700468584
5895379 119 17273438087523163632
5912855 24 18126845134939602535
59755656 215 18337114561544978484
67856867 119 18342453776802348537
70251023 43 18335703788925036659
8863177 126 18041577926590438179
9841814 1 18188199927925237010
9962374 69 18341324557266269959
9981440 41 17978225290267434296

>  <PUBCHEM_SHAPE_MULTIPOLES>  (1) 
516.71
14.75
4.29
1.12
29.71
2.02
0.01
-5.12
-0.25
-10.74
0.12
-1.14
0.13
-1.02

>  <PUBCHEM_SHAPE_SELFOVERLAP>  (1) 
1159.304

>  <PUBCHEM_SHAPE_VOLUME>  (1) 
275.4

>  <PUBCHEM_COORDINATE_TYPE>  (1) 
2
5
10

$$$$
