47131
     RDKit          3D

 18 19  0  0  1  0  0  0  0  0999 V2000
    1.2653   -0.8462   -0.0138 N   0  0  0  0  0  0  0  0  0  0  0  0
   -4.9041    0.2949   -0.0032 N   0  0  0  0  0  0  0  0  0  0  0  0
    3.0149    0.5118    1.3394 C   0  0  0  0  0  0  0  0  0  0  0  0
    3.7836   -0.7453   -0.6343 C   0  0  0  0  0  0  0  0  0  0  0  0
    1.5363    0.3012    0.9723 C   0  0  0  0  0  0  0  0  0  0  0  0
    2.3421   -1.0161   -1.0972 C   0  0  0  0  0  0  0  0  0  0  0  0
    3.9236   -0.6166    0.8751 C   0  0  0  0  0  0  0  0  0  0  0  0
    3.5426    1.8373    0.7474 C   0  0  0  0  0  0  0  0  0  0  0  0
    4.3348    0.5419   -1.2863 C   0  0  0  0  0  0  0  0  0  0  0  0
   -0.0668   -0.5392   -0.7281 C   0  0  0  0  0  0  0  0  0  0  0  0
    3.6390    1.8066   -0.7791 C   0  0  0  0  0  0  0  0  0  0  0  0
    1.0374   -2.1665    0.7381 C   0  0  0  0  0  0  0  0  0  0  0  0
   -1.1723   -0.4166    0.3101 C   0  0  0  0  0  0  0  0  0  0  0  0
   -2.5244   -0.1574   -0.3553 C   0  0  0  0  0  0  0  0  0  0  0  0
   -3.6238    0.0008    0.6845 C   0  0  0  0  0  0  0  0  0  0  0  0
   -5.2675   -0.8282   -0.9852 C   0  0  0  0  0  0  0  0  0  0  0  0
   -6.0499    0.4303    1.0099 C   0  0  0  0  0  0  0  0  0  0  0  0
   -4.8108    1.6073   -0.7945 C   0  0  0  0  0  0  0  0  0  0  0  0
  1  5  1  0
  1  6  1  0
  1 10  1  0
  1 12  1  0
  2 15  1  0
  2 16  1  0
  2 17  1  0
  2 18  1  0
  3  5  1  0
  3  7  1  0
  3  8  1  0
  4  6  1  0
  4  7  1  0
  4  9  1  0
  8 11  1  0
  9 11  1  0
 10 13  1  0
 13 14  1  0
 14 15  1  0
M  CHG  2   1   1   2   1
M  END
>  <PUBCHEM_COMPOUND_CID>  (1) 
47131

>  <PUBCHEM_CONFORMER_RMSD>  (1) 
0.8

>  <PUBCHEM_CONFORMER_DIVERSEORDER>  (1) 
1
8
15
10
14
19
20
7
18
12
2
11
16
4
13
5
17
9
6
3

>  <PUBCHEM_MMFF94_PARTIAL_CHARGES>  (1) 
10
1 -1.01
10 0.5
12 0.5
15 0.5
16 0.5
17 0.5
18 0.5
2 -1.01
5 0.5
6 0.5

>  <PUBCHEM_EFFECTIVE_ROTOR_COUNT>  (1) 
6.4

>  <PUBCHEM_PHARMACOPHORE_FEATURES>  (1) 
4
1 1 cation
1 2 cation
6 1 3 4 5 6 7 rings
6 3 4 7 8 9 11 rings

>  <PUBCHEM_HEAVY_ATOM_COUNT>  (1) 
18

>  <PUBCHEM_ATOM_DEF_STEREO_COUNT>  (1) 
0

>  <PUBCHEM_ATOM_UDEF_STEREO_COUNT>  (1) 
2

>  <PUBCHEM_BOND_DEF_STEREO_COUNT>  (1) 
0

>  <PUBCHEM_BOND_UDEF_STEREO_COUNT>  (1) 
0

>  <PUBCHEM_ISOTOPIC_ATOM_COUNT>  (1) 
0

>  <PUBCHEM_COMPONENT_COUNT>  (1) 
1

>  <PUBCHEM_CACTVS_TAUTO_COUNT>  (1) 
1

>  <PUBCHEM_CONFORMER_ID>  (1) 
0000B81B00000001

>  <PUBCHEM_MMFF94_ENERGY>  (1) 
71.4476

>  <PUBCHEM_FEATURE_SELFOVERLAP>  (1) 
21.56

>  <PUBCHEM_SHAPE_FINGERPRINT>  (1) 
10498660 4 18413103953165617553
11089746 13 18261384546671319215
11287383 113 18202282528704236059
11595378 159 16153985734346367781
11796584 16 11527951144910772901
12596602 18 16370448856449794681
12616971 3 18272363162085713175
12730499 353 18340498823500793818
13533116 47 16805879602711589339
13675066 3 12251902581887191395
13955234 65 18187927240304297762
14251740 57 11891323236426241680
14251764 75 17536330471658683020
14252887 29 11530477831310630388
14528608 73 18341609343572283037
15183329 4 10807945855856765339
15239154 128 18343017783602691165
15375358 24 17749109985126844651
15885798 251 8935009169631532135
17834072 33 17988641921842710431
17844677 252 18334579019090776453
17857418 61 11386370378713734353
1813 80 10303816496844763843
18186145 218 18411133658519735334
18222031 100 7853574621064731362
20645477 70 16845298245687302190
212847 35 18410012135168645584
21503847 285 17895197718527334612
22289505 5 18201157659336486420
22646028 1 11386364846595110953
22854114 59 18186800279455519261
231179 274 18413385432152069184
23402655 69 17561081431802394934
23559900 14 17822018592464271978
23590187 302 17132116844513657690
26918003 58 10881402041174415829
29717793 49 14405189443468270129
3004659 81 13038911023274912044
3060560 45 16989127552418955670
34797466 226 16701743873066529797
4047638 21 18341895203742394122
42 15 11891329842328002695
465052 167 8646774391781777288
474 4 18336265746804523496
495365 180 17703784864687231538
4990 188 16200436879003547405
522135 26 17917714595608877950
5281201 14 18201442423978402261
5374978 207 15647049369603361452
54040823 5 10231750107145914270
542803 24 18273218586727523625
633830 44 18411977000770137654
8988823 20 12252189614198382743
90127 26 18261116257618825233
960060 61 13326854456566109776
9841814 1 11241971482067177390
9999458 23 18113336406194297342

>  <PUBCHEM_SHAPE_MULTIPOLES>  (1) 
360.47
13.17
1.66
1.31
18.85
0.18
-0.01
3.8
0.75
-1.07
0.02
-0.53
0.07
-0.05

>  <PUBCHEM_SHAPE_SELFOVERLAP>  (1) 
705.069

>  <PUBCHEM_SHAPE_VOLUME>  (1) 
214.9

>  <PUBCHEM_COORDINATE_TYPE>  (1) 
2
5
10

$$$$
