47139
     RDKit          3D

 28 29  0  0  1  0  0  0  0  0999 V2000
   -0.7743   -1.5452   -2.0808 O   0  0  0  0  0  0  0  0  0  0  0  0
    1.7762    1.1163    0.5567 O   0  0  0  0  0  0  0  0  0  0  0  0
   -3.5785   -2.2034    1.4698 O   0  0  0  0  0  0  0  0  0  0  0  0
    0.7938   -1.1454    2.2748 O   0  0  0  0  0  0  0  0  0  0  0  0
    4.1804   -0.0520   -0.2546 O   0  0  0  0  0  0  0  0  0  0  0  0
    1.2652    3.0321   -0.6131 O   0  0  0  0  0  0  0  0  0  0  0  0
    0.0551   -1.1639    0.0603 N   0  0  0  0  0  0  0  0  0  0  0  0
   -1.4158   -1.5559    1.8636 N   0  0  0  0  0  0  0  0  0  0  0  0
    1.4192    3.0334    1.6812 N   0  0  0  0  0  0  0  0  0  0  0  0
   -2.3869   -1.0713   -0.3311 C   0  0  0  0  0  0  0  0  0  0  0  0
   -3.3911   -1.7618   -1.2826 C   0  0  0  0  0  0  0  0  0  0  0  0
   -0.9724   -1.3066   -0.8877 C   0  0  0  0  0  0  0  0  0  0  0  0
   -2.7416    0.4328   -0.2852 C   0  0  0  0  0  0  0  0  0  0  0  0
   -2.5395   -1.6838    1.0645 C   0  0  0  0  0  0  0  0  0  0  0  0
    1.4224   -1.0569   -0.4347 C   0  0  0  0  0  0  0  0  0  0  0  0
    1.8581    0.3883   -0.6691 C   0  0  0  0  0  0  0  0  0  0  0  0
   -0.1201   -1.2556    1.4535 C   0  0  0  0  0  0  0  0  0  0  0  0
   -3.1124   -3.2457   -1.3848 C   0  0  0  0  0  0  0  0  0  0  0  0
   -2.1273    1.3217   -1.1673 C   0  0  0  0  0  0  0  0  0  0  0  0
   -3.6758    0.9010    0.6389 C   0  0  0  0  0  0  0  0  0  0  0  0
    3.2803    0.5055   -1.2075 C   0  0  0  0  0  0  0  0  0  0  0  0
   -2.4473    2.6788   -1.1254 C   0  0  0  0  0  0  0  0  0  0  0  0
   -3.9958    2.2581    0.6806 C   0  0  0  0  0  0  0  0  0  0  0  0
   -3.3815    3.1469   -0.2014 C   0  0  0  0  0  0  0  0  0  0  0  0
    1.4693    2.4425    0.4428 C   0  0  0  0  0  0  0  0  0  0  0  0
    5.5239    0.0143   -0.7096 C   0  0  0  0  0  0  0  0  0  0  0  0
    6.4125   -0.5835    0.3300 C   0  0  0  0  0  0  0  0  0  0  0  0
    7.2042   -1.6406    0.1182 C   0  0  0  0  0  0  0  0  0  0  0  0
  1 12  2  0
  2 16  1  0
  2 25  1  0
  3 14  2  0
  4 17  2  0
  5 21  1  0
  5 26  1  0
  6 25  2  0
  7 12  1  0
  7 15  1  0
  7 17  1  0
  8 14  1  0
  8 17  1  0
  9 25  1  0
 10 11  1  0
 10 12  1  0
 10 13  1  0
 10 14  1  0
 11 18  1  0
 13 19  2  0
 13 20  1  0
 15 16  1  0
 16 21  1  0
 19 22  1  0
 20 23  2  0
 22 24  2  0
 23 24  1  0
 26 27  1  0
 27 28  2  0
M  END
>  <PUBCHEM_COMPOUND_CID>  (1) 
47139

>  <PUBCHEM_CONFORMER_RMSD>  (1) 
1

>  <PUBCHEM_CONFORMER_DIVERSEORDER>  (1) 
2
76
12
11
134
21
149
97
95
102
27
82
93
125
44
115
77
25
147
106
13
81
63
88
73
46
54
60
40
85
53
139
116
79
110
138
121
100
71
94
124
35
68
107
136
145
83
36
144
118
117
57
129
39
33
75
24
67
112
34
135
99
103
17
108
49
61
91
42
65
80
51
23
74
143
128
22
7
28
123
37
14
98
43
114
84
120
105
126
20
29
26
90
45
137
111
146
141
72
92
133
31
32
18
101
89
109
131
132
6
78
119
64
30
48
122
69
10
148
130
1
19
127
113
16
15
55
140
104
52
70
87
38
3
50
4
41
56
66
5
96
62
142
47
58
59
9
86
8

>  <PUBCHEM_MMFF94_PARTIAL_CHARGES>  (1) 
37
1 -0.57
10 0.27
12 0.57
13 -0.14
14 0.57
15 0.3
16 0.28
17 0.69
19 -0.15
2 -0.43
20 -0.15
21 0.28
22 -0.15
23 -0.15
24 -0.15
25 0.78
26 0.42
27 -0.29
28 -0.3
3 -0.57
34 0.37
38 0.15
39 0.15
4 -0.57
42 0.15
43 0.15
44 0.15
47 0.15
48 0.37
49 0.37
5 -0.56
50 0.15
51 0.15
6 -0.57
7 -0.42
8 -0.49
9 -0.8

>  <PUBCHEM_EFFECTIVE_ROTOR_COUNT>  (1) 
10.6

>  <PUBCHEM_PHARMACOPHORE_FEATURES>  (1) 
11
1 1 acceptor
1 18 hydrophobe
1 28 hydrophobe
1 3 acceptor
1 4 acceptor
1 5 acceptor
1 6 acceptor
1 8 donor
1 9 donor
6 13 19 20 22 23 24 rings
6 7 8 10 12 14 17 rings

>  <PUBCHEM_HEAVY_ATOM_COUNT>  (1) 
28

>  <PUBCHEM_ATOM_DEF_STEREO_COUNT>  (1) 
0

>  <PUBCHEM_ATOM_UDEF_STEREO_COUNT>  (1) 
2

>  <PUBCHEM_BOND_DEF_STEREO_COUNT>  (1) 
0

>  <PUBCHEM_BOND_UDEF_STEREO_COUNT>  (1) 
0

>  <PUBCHEM_ISOTOPIC_ATOM_COUNT>  (1) 
0

>  <PUBCHEM_COMPONENT_COUNT>  (1) 
1

>  <PUBCHEM_CACTVS_TAUTO_COUNT>  (1) 
6

>  <PUBCHEM_CONFORMER_ID>  (1) 
0000B82300000002

>  <PUBCHEM_MMFF94_ENERGY>  (1) 
70.42

>  <PUBCHEM_FEATURE_SELFOVERLAP>  (1) 
55.823

>  <PUBCHEM_SHAPE_FINGERPRINT>  (1) 
10165383 225 17917718951111885299
11578080 2 17417236757862561904
11763715 3 17903933492823350191
12107698 1 18339643446630332151
12403259 226 18127405876582533134
14251751 93 18260831462300234876
14466204 15 18413107234720675956
14713325 29 18343303665047231167
15183329 4 17095238104391851786
15209289 33 18114183046768073116
17980427 23 14764631936756027648
18393751 57 16617558884459363184
18769570 83 18338520733874436576
18981168 100 17774427387102144681
19930381 70 17479727669258461813
21033648 29 17846203467598184514
21304303 282 16557077636074833832
21756936 100 18187646855911098003
21987440 362 17397547511651028444
23559900 14 17605553468779191958
350125 39 18342741861923800821
35225 105 16009314339500148185
3610482 184 17895780434109832004
392239 28 17678768754805163025
5104073 3 18334010610613717368
5171179 24 18200866409378551424
5283173 99 18408603648342847360
57527306 92 17416965015889165489
59755656 520 17458344139483147163
70251023 43 18196362843657101959
7226269 152 18337953373216591928

>  <PUBCHEM_SHAPE_MULTIPOLES>  (1) 
526.07
10.92
3.7
1.67
24.22
1.6
0.4
-2
-0.41
-3.86
-0.12
-0.74
-0.64
-0.14

>  <PUBCHEM_SHAPE_SELFOVERLAP>  (1) 
1100.225

>  <PUBCHEM_SHAPE_VOLUME>  (1) 
293.4

>  <PUBCHEM_COORDINATE_TYPE>  (1) 
2
5
10

$$$$
