47147
     RDKit          3D

 22 23  0  0  1  0  0  0  0  0999 V2000
    1.7440   -1.0272   -1.6008 O   0  0  0  0  0  0  0  0  0  0  0  0
   -1.3754   -0.0219   -0.1531 N   0  0  0  0  0  0  0  0  0  0  0  0
    0.2131   -1.6594    0.5461 N   0  0  0  0  0  0  0  0  0  0  0  0
   -1.6339    1.0682    0.7890 C   0  0  0  0  0  0  0  0  0  0  0  0
   -2.4121   -0.4596   -1.0899 C   0  0  0  0  0  0  0  0  0  0  0  0
   -3.0275    1.0263    1.4101 C   0  0  0  0  0  0  0  0  0  0  0  0
   -3.2825    0.6710   -1.6317 C   0  0  0  0  0  0  0  0  0  0  0  0
   -4.0776    1.7381    0.5616 C   0  0  0  0  0  0  0  0  0  0  0  0
   -4.4588    1.0067   -0.7188 C   0  0  0  0  0  0  0  0  0  0  0  0
   -0.1652   -0.6391   -0.1549 C   0  0  0  0  0  0  0  0  0  0  0  0
    0.8786   -0.0230   -1.0949 C   0  0  0  0  0  0  0  0  0  0  0  0
    1.6792    1.0485   -0.3890 C   0  0  0  0  0  0  0  0  0  0  0  0
   -0.7692   -2.2407    1.4509 C   0  0  0  0  0  0  0  0  0  0  0  0
    1.2328    2.3587   -0.4223 C   0  0  0  0  0  0  0  0  0  0  0  0
    2.8418    0.6971    0.2756 C   0  0  0  0  0  0  0  0  0  0  0  0
   -0.1548   -3.4221    2.1914 C   0  0  0  0  0  0  0  0  0  0  0  0
    1.0217   -2.0522   -2.2718 C   0  0  0  0  0  0  0  0  0  0  0  0
    1.9710    3.3470    0.2286 C   0  0  0  0  0  0  0  0  0  0  0  0
    3.5800    1.6856    0.9266 C   0  0  0  0  0  0  0  0  0  0  0  0
    1.0517   -3.0243    3.0297 C   0  0  0  0  0  0  0  0  0  0  0  0
    1.9986   -3.0882   -2.7857 C   0  0  0  0  0  0  0  0  0  0  0  0
    3.1446    3.0105    0.9031 C   0  0  0  0  0  0  0  0  0  0  0  0
  1 11  1  0
  1 17  1  0
  2  4  1  0
  2  5  1  0
  2 10  1  0
  3 10  2  0
  3 13  1  0
  4  6  1  0
  5  7  1  0
  6  8  1  0
  7  9  1  0
  8  9  1  0
 10 11  1  0
 11 12  1  0
 12 14  2  0
 12 15  1  0
 13 16  1  0
 14 18  1  0
 15 19  2  0
 16 20  1  0
 17 21  1  0
 18 22  2  0
 19 22  1  0
M  END
>  <PUBCHEM_COMPOUND_CID>  (1) 
47147

>  <PUBCHEM_CONFORMER_RMSD>  (1) 
0.8

>  <PUBCHEM_CONFORMER_DIVERSEORDER>  (1) 
1
107
86
88
83
96
22
43
109
134
37
92
101
34
121
98
12
104
126
82
114
77
115
84
108
42
26
85
103
130
119
124
20
138
94
129
47
106
39
68
64
40
132
67
78
30
50
7
44
110
29
60
100
90
102
38
57
122
76
25
48
23
10
112
128
59
8
118
63
105
58
125
111
75
136
52
123
51
131
21
91
99
93
55
32
79
120
18
62
53
133
33
70
97
135
24
137
41
71
117
15
116
17
9
19
73
65
27
16
61
46
13
127
31
54
72
3
49
14
113
35
11
28
36
95
45
81
56
87
69
89
4
6
66
74
80
5
2

>  <PUBCHEM_MMFF94_PARTIAL_CHARGES>  (1) 
20
1 -0.56
10 0.44
11 0.48
12 -0.14
13 0.25
14 -0.15
15 -0.15
17 0.28
18 -0.15
19 -0.15
2 -0.79
22 -0.15
3 -0.7
38 0.15
39 0.15
4 0.37
44 0.15
45 0.15
5 0.37
52 0.15

>  <PUBCHEM_EFFECTIVE_ROTOR_COUNT>  (1) 
8.4

>  <PUBCHEM_PHARMACOPHORE_FEATURES>  (1) 
5
1 1 acceptor
1 20 hydrophobe
3 2 3 10 cation
6 12 14 15 18 19 22 rings
7 2 4 5 6 7 8 9 rings

>  <PUBCHEM_HEAVY_ATOM_COUNT>  (1) 
22

>  <PUBCHEM_ATOM_DEF_STEREO_COUNT>  (1) 
0

>  <PUBCHEM_ATOM_UDEF_STEREO_COUNT>  (1) 
1

>  <PUBCHEM_BOND_DEF_STEREO_COUNT>  (1) 
0

>  <PUBCHEM_BOND_UDEF_STEREO_COUNT>  (1) 
0

>  <PUBCHEM_ISOTOPIC_ATOM_COUNT>  (1) 
0

>  <PUBCHEM_COMPONENT_COUNT>  (1) 
1

>  <PUBCHEM_CACTVS_TAUTO_COUNT>  (1) 
1

>  <PUBCHEM_CONFORMER_ID>  (1) 
0000B82B00000001

>  <PUBCHEM_MMFF94_ENERGY>  (1) 
58.5385

>  <PUBCHEM_FEATURE_SELFOVERLAP>  (1) 
25.372

>  <PUBCHEM_SHAPE_FINGERPRINT>  (1) 
10906281 52 18197803054150754148
12633257 1 18115286969839102088
12788726 201 17544734082020839730
13009979 54 16628568973366908999
13149001 5 18120972488020080230
13294875 104 18114469941856536779
16945 1 18130518452230248117
17980427 23 17481097317059655289
19765921 60 18339911714888842113
20600515 1 15870816220880071211
20602899 9 16091436944567245478
21524375 3 18267853055256075573
23419403 2 17979961255660770643
23558518 356 18264211494351365659
23559900 14 17058354887626116095
266924 78 17057844846879442343
2748010 2 17983037809686390132
298252 57 17844514698862198838
3493558 16 16484156878613166242
35225 105 17388847414878071505
376196 1 18270951448995592785
394222 165 18267841991720611611
4340502 62 18334298691328958201
469060 322 15823521342660693880
474 4 18343300392203198853
497634 4 16521296569192655060
6992083 37 16624082892679101581
7364860 26 17917435263399050148
81228 2 17610372662967794259
9981440 41 17987513891431791568

>  <PUBCHEM_SHAPE_MULTIPOLES>  (1) 
436.92
6.03
4.37
2.57
4.82
1.9
-0.05
-5.75
-0.19
-3.39
1.67
-0.76
3.65
1.28

>  <PUBCHEM_SHAPE_SELFOVERLAP>  (1) 
881.854

>  <PUBCHEM_SHAPE_VOLUME>  (1) 
254.1

>  <PUBCHEM_COORDINATE_TYPE>  (1) 
2
5
10

$$$$
