47146
     RDKit          3D

  9  9  0  0  0  0  0  0  0  0999 V2000
   -0.4140   -1.1702   -0.3923 N   0  0  0  0  0  0  0  0  0  0  0  0
   -2.6364   -0.4515   -0.3144 N   0  0  0  0  0  0  0  0  0  0  0  0
    1.5149   -1.6842    0.7731 N   0  0  0  0  0  0  0  0  0  0  0  0
   -0.0863    1.9211    0.0351 C   0  0  0  0  0  0  0  0  0  0  0  0
    1.3834    1.5012   -0.0413 C   0  0  0  0  0  0  0  0  0  0  0  0
   -0.9469    0.9338    0.8192 C   0  0  0  0  0  0  0  0  0  0  0  0
    1.5933    0.1911   -0.7892 C   0  0  0  0  0  0  0  0  0  0  0  0
   -1.3063   -0.2994   -0.0053 C   0  0  0  0  0  0  0  0  0  0  0  0
    0.8982   -0.9418   -0.0849 C   0  0  0  0  0  0  0  0  0  0  0  0
  1  8  2  0
  1  9  1  0
  2  8  1  0
  3  9  2  0
  4  5  1  0
  4  6  1  0
  5  7  1  0
  6  8  1  0
  7  9  1  0
M  END
>  <PUBCHEM_COMPOUND_CID>  (1) 
47146

>  <PUBCHEM_CONFORMER_RMSD>  (1) 
0.4

>  <PUBCHEM_CONFORMER_DIVERSEORDER>  (1) 
2
1
3
4

>  <PUBCHEM_MMFF94_PARTIAL_CHARGES>  (1) 
10
1 -0.66
18 0.4
19 0.4
2 -0.85
20 0.4
3 -0.85
6 0.06
7 0.06
8 0.44
9 0.6

>  <PUBCHEM_EFFECTIVE_ROTOR_COUNT>  (1) 
0.8

>  <PUBCHEM_PHARMACOPHORE_FEATURES>  (1) 
5
1 2 donor
1 3 donor
3 1 2 8 cation
3 1 3 9 cation
7 1 4 5 6 7 8 9 rings

>  <PUBCHEM_HEAVY_ATOM_COUNT>  (1) 
9

>  <PUBCHEM_ATOM_DEF_STEREO_COUNT>  (1) 
0

>  <PUBCHEM_ATOM_UDEF_STEREO_COUNT>  (1) 
0

>  <PUBCHEM_BOND_DEF_STEREO_COUNT>  (1) 
0

>  <PUBCHEM_BOND_UDEF_STEREO_COUNT>  (1) 
0

>  <PUBCHEM_ISOTOPIC_ATOM_COUNT>  (1) 
0

>  <PUBCHEM_COMPONENT_COUNT>  (1) 
1

>  <PUBCHEM_CACTVS_TAUTO_COUNT>  (1) 
2

>  <PUBCHEM_CONFORMER_ID>  (1) 
0000B82A00000002

>  <PUBCHEM_MMFF94_ENERGY>  (1) 
19.4473

>  <PUBCHEM_FEATURE_SELFOVERLAP>  (1) 
25.44

>  <PUBCHEM_SHAPE_FINGERPRINT>  (1) 
16945 1 17843138136074286732
18185500 45 18411705361152158678
21040471 1 17690279730250058084
23552333 60 18343026592322035721
23552423 10 18336273396077928797
241688 4 18269573705154308888
29004967 10 18187090593390646113
5084963 1 17765159757783032213
54338 74 17827905231299846858

>  <PUBCHEM_SHAPE_MULTIPOLES>  (1) 
170.27
2.4
1.93
0.82
1.06
0.32
-0.05
-0.33
0.28
-0.6
-0.27
-0.09
-0.05
-0.35

>  <PUBCHEM_SHAPE_SELFOVERLAP>  (1) 
337.761

>  <PUBCHEM_SHAPE_VOLUME>  (1) 
96

>  <PUBCHEM_COORDINATE_TYPE>  (1) 
2
5
10

$$$$
