47148
     RDKit          3D

 21 22  0  0  1  0  0  0  0  0999 V2000
    0.9291    0.1121    2.4261 O   0  0  0  0  0  0  0  0  0  0  0  0
   -1.4762    0.0647    0.0392 N   0  0  0  0  0  0  0  0  0  0  0  0
    0.2674   -1.5619    0.1276 N   0  0  0  0  0  0  0  0  0  0  0  0
   -2.5884   -0.1315    0.9709 C   0  0  0  0  0  0  0  0  0  0  0  0
   -1.6832    0.7572   -1.2338 C   0  0  0  0  0  0  0  0  0  0  0  0
   -3.9286   -0.4074    0.2949 C   0  0  0  0  0  0  0  0  0  0  0  0
   -2.6032    1.9706   -1.1309 C   0  0  0  0  0  0  0  0  0  0  0  0
   -4.6736    0.8674   -0.0926 C   0  0  0  0  0  0  0  0  0  0  0  0
   -4.0791    1.6114   -1.2811 C   0  0  0  0  0  0  0  0  0  0  0  0
   -0.2395   -0.3945    0.3637 C   0  0  0  0  0  0  0  0  0  0  0  0
    0.6458    0.6006    1.1244 C   0  0  0  0  0  0  0  0  0  0  0  0
    1.9316    0.8671    0.3741 C   0  0  0  0  0  0  0  0  0  0  0  0
   -0.5731   -2.5162   -0.5827 C   0  0  0  0  0  0  0  0  0  0  0  0
    3.0366    0.0702    0.6209 C   0  0  0  0  0  0  0  0  0  0  0  0
    1.9771    1.9026   -0.5438 C   0  0  0  0  0  0  0  0  0  0  0  0
    0.1788   -3.8280   -0.7703 C   0  0  0  0  0  0  0  0  0  0  0  0
   -0.2615   -0.1488    3.1587 C   0  0  0  0  0  0  0  0  0  0  0  0
    4.2228    0.3163   -0.0709 C   0  0  0  0  0  0  0  0  0  0  0  0
    3.1630    2.1486   -1.2357 C   0  0  0  0  0  0  0  0  0  0  0  0
    1.4687   -3.6559   -1.5596 C   0  0  0  0  0  0  0  0  0  0  0  0
    4.2858    1.3554   -0.9991 C   0  0  0  0  0  0  0  0  0  0  0  0
  1 11  1  0
  1 17  1  0
  2  4  1  0
  2  5  1  0
  2 10  1  0
  3 10  2  0
  3 13  1  0
  4  6  1  0
  5  7  1  0
  6  8  1  0
  7  9  1  0
  8  9  1  0
 10 11  1  0
 11 12  1  0
 12 14  2  0
 12 15  1  0
 13 16  1  0
 14 18  1  0
 15 19  2  0
 16 20  1  0
 18 21  2  0
 19 21  1  0
M  END
>  <PUBCHEM_COMPOUND_CID>  (1) 
47148

>  <PUBCHEM_CONFORMER_RMSD>  (1) 
0.8

>  <PUBCHEM_CONFORMER_DIVERSEORDER>  (1) 
35
124
47
63
80
90
152
87
86
105
133
111
24
112
149
188
117
155
102
173
88
114
151
132
194
31
156
193
163
69
148
126
62
85
29
140
129
119
158
104
175
121
60
139
5
128
123
185
41
74
182
93
55
96
26
144
94
137
113
83
164
3
77
135
71
162
150
186
160
107
131
106
61
99
95
27
50
108
44
76
65
153
38
66
191
25
92
178
39
169
101
157
98
161
81
34
37
43
18
10
146
181
189
49
141
138
167
70
46
145
75
125
19
183
67
136
97
177
159
40
89
166
51
116
11
79
84
17
59
9
21
57
143
179
127
130
115
68
174
110
91
64
32
122
134
48
7
56
187
154
171
197
14
23
52
73
36
20
45
118
195
28
109
22
103
58
190
147
82
2
100
184
165
196
42
30
54
12
120
180
1
192
168
78
13
53
72
33
4
142
15
8
170
16
172
176
6

>  <PUBCHEM_MMFF94_PARTIAL_CHARGES>  (1) 
20
1 -0.56
10 0.44
11 0.48
12 -0.14
13 0.25
14 -0.15
15 -0.15
17 0.28
18 -0.15
19 -0.15
2 -0.79
21 -0.15
3 -0.7
37 0.15
38 0.15
4 0.37
44 0.15
45 0.15
49 0.15
5 0.37

>  <PUBCHEM_EFFECTIVE_ROTOR_COUNT>  (1) 
7.4

>  <PUBCHEM_PHARMACOPHORE_FEATURES>  (1) 
5
1 1 acceptor
1 20 hydrophobe
3 2 3 10 cation
6 12 14 15 18 19 21 rings
7 2 4 5 6 7 8 9 rings

>  <PUBCHEM_HEAVY_ATOM_COUNT>  (1) 
21

>  <PUBCHEM_ATOM_DEF_STEREO_COUNT>  (1) 
0

>  <PUBCHEM_ATOM_UDEF_STEREO_COUNT>  (1) 
1

>  <PUBCHEM_BOND_DEF_STEREO_COUNT>  (1) 
0

>  <PUBCHEM_BOND_UDEF_STEREO_COUNT>  (1) 
0

>  <PUBCHEM_ISOTOPIC_ATOM_COUNT>  (1) 
0

>  <PUBCHEM_COMPONENT_COUNT>  (1) 
1

>  <PUBCHEM_CACTVS_TAUTO_COUNT>  (1) 
1

>  <PUBCHEM_CONFORMER_ID>  (1) 
0000B82C00000023

>  <PUBCHEM_MMFF94_ENERGY>  (1) 
60.4276

>  <PUBCHEM_FEATURE_SELFOVERLAP>  (1) 
25.372

>  <PUBCHEM_SHAPE_FINGERPRINT>  (1) 
10165383 225 18271821150250606955
10871710 139 17036151731576839036
12173636 292 18268988855067654517
12592029 89 18335988596970792930
13149001 5 17416679357101669776
133893 2 17982475722952894826
13681431 1 17767965333563714071
14115302 16 18058178387326353224
14251751 93 18260542359403252799
14787075 74 16663186285223892425
15502722 9 18268431239569090359
16752209 62 18056470888338879550
16945 1 17967803994304679482
1813 80 17125371130277239191
18186145 218 17917427674207805169
18915476 22 18267882596325921971
20600515 1 17489294326694948360
20602899 9 18129957757456208942
21250096 35 10375872982754651669
21524375 3 18040712580114717501
21756936 100 17314230149845656620
23114952 82 18194119616856024477
23419403 2 17540870114608662603
23559900 14 18122609567013957845
2637199 183 18186802469804847028
26918003 58 11167671953518143916
298252 57 18334571365147565576
3060560 45 18337942416179636988
3729539 64 18124057666709464454
4280585 95 17545314181800259998
458136 41 18342464716506265367
633830 44 17385718110327619144
81228 2 17478865630467300635
9999458 23 16298383513873815096

>  <PUBCHEM_SHAPE_MULTIPOLES>  (1) 
416.34
7.46
3.36
1.98
1.96
4.61
1.67
-5.28
-2.33
-1.23
-2.51
-0.03
0.06
0.54

>  <PUBCHEM_SHAPE_SELFOVERLAP>  (1) 
843.693

>  <PUBCHEM_SHAPE_VOLUME>  (1) 
241

>  <PUBCHEM_COORDINATE_TYPE>  (1) 
2
5
10

$$$$
