47159
     RDKit          3D

 21 22  0  0  0  0  0  0  0  0999 V2000
   -3.6114    0.8621    0.4864 N   0  0  0  0  0  0  0  0  0  0  0  0
    3.6692    0.8377    0.5350 N   0  0  0  0  0  0  0  0  0  0  0  0
   -4.9311   -1.6073   -1.2085 C   0  0  0  0  0  0  0  0  0  0  0  0
   -4.7671   -2.1176    0.2251 C   0  0  0  0  0  0  0  0  0  0  0  0
   -5.8901   -0.4254   -1.3692 C   0  0  0  0  0  0  0  0  0  0  0  0
    4.8062   -1.5682   -1.2643 C   0  0  0  0  0  0  0  0  0  0  0  0
    4.7849   -2.1208    0.1632 C   0  0  0  0  0  0  0  0  0  0  0  0
    5.7828   -0.4115   -1.4924 C   0  0  0  0  0  0  0  0  0  0  0  0
   -3.5533   -1.5696    0.9782 C   0  0  0  0  0  0  0  0  0  0  0  0
   -5.2288    0.9538   -1.3939 C   0  0  0  0  0  0  0  0  0  0  0  0
    3.6640   -1.5840    1.0535 C   0  0  0  0  0  0  0  0  0  0  0  0
    5.1640    0.9854   -1.4340 C   0  0  0  0  0  0  0  0  0  0  0  0
   -3.7341   -0.1723    1.5517 C   0  0  0  0  0  0  0  0  0  0  0  0
   -4.8522    1.5073   -0.0275 C   0  0  0  0  0  0  0  0  0  0  0  0
    3.8887   -0.1676    1.5731 C   0  0  0  0  0  0  0  0  0  0  0  0
    4.8539    1.4841   -0.0262 C   0  0  0  0  0  0  0  0  0  0  0  0
   -2.4535    1.2547    0.0839 C   0  0  0  0  0  0  0  0  0  0  0  0
    2.4069    1.2041    0.1517 C   0  0  0  0  0  0  0  0  0  0  0  0
   -1.2000    0.7219    0.6349 C   0  0  0  0  0  0  0  0  0  0  0  0
    1.2443    0.7391    0.6267 C   0  0  0  0  0  0  0  0  0  0  0  0
   -0.0433    1.1941    0.1525 C   0  0  0  0  0  0  0  0  0  0  0  0
  1 13  1  0
  1 14  1  0
  1 17  2  0
  2 15  1  0
  2 16  1  0
  2 18  1  0
  3  4  1  0
  3  5  1  0
  4  9  1  0
  5 10  1  0
  6  7  1  0
  6  8  1  0
  7 11  1  0
  8 12  1  0
  9 13  1  0
 10 14  1  0
 11 15  1  0
 12 16  1  0
 17 19  1  0
 18 20  2  0
 19 21  2  0
 20 21  1  0
M  CHG  1   1   1
M  END
>  <PUBCHEM_COMPOUND_CID>  (1) 
47159

>  <PUBCHEM_CONFORMER_RMSD>  (1) 
0.8

>  <PUBCHEM_CONFORMER_DIVERSEORDER>  (1) 
1
36
52
43
79
78
26
65
33
8
58
64
45
74
38
68
81
29
71
59
13
24
60
66
15
53
70
46
10
72
77
55
22
19
4
41
73
32
35
67
20
16
34
75
40
23
30
21
17
14
18
6
42
11
37
57
63
31
56
12
9
28
69
49
39
27
48
5
7
47
62
61
3
2
80
51
50
25
54
76
44

>  <PUBCHEM_MMFF94_PARTIAL_CHARGES>  (1) 
16
1 -0.09
13 0.35
14 0.35
15 0.37
16 0.37
17 0.33
18 -0.05
19 -0.14
2 -0.84
20 -0.15
21 -0.15
50 0.06
51 0.15
52 0.15
53 0.15
54 0.15

>  <PUBCHEM_EFFECTIVE_ROTOR_COUNT>  (1) 
6

>  <PUBCHEM_PHARMACOPHORE_FEATURES>  (1) 
1
1 2 cation

>  <PUBCHEM_HEAVY_ATOM_COUNT>  (1) 
21

>  <PUBCHEM_ATOM_DEF_STEREO_COUNT>  (1) 
0

>  <PUBCHEM_ATOM_UDEF_STEREO_COUNT>  (1) 
0

>  <PUBCHEM_BOND_DEF_STEREO_COUNT>  (1) 
1

>  <PUBCHEM_BOND_UDEF_STEREO_COUNT>  (1) 
2

>  <PUBCHEM_ISOTOPIC_ATOM_COUNT>  (1) 
0

>  <PUBCHEM_COMPONENT_COUNT>  (1) 
1

>  <PUBCHEM_CACTVS_TAUTO_COUNT>  (1) 
1

>  <PUBCHEM_CONFORMER_ID>  (1) 
0000B83700000001

>  <PUBCHEM_MMFF94_ENERGY>  (1) 
44.1493

>  <PUBCHEM_FEATURE_SELFOVERLAP>  (1) 
5.074

>  <PUBCHEM_SHAPE_FINGERPRINT>  (1) 
10 15 10663818598564280367
11545043 162 15841557336027856376
12596602 18 14836117762666611011
12616971 3 10737284658091028312
13167372 99 11169906187173765852
14528608 73 18040155128083035656
14849402 71 11815603204359753970
15183329 4 18113612378958744543
15250474 111 18334850580776832626
15348495 7 11095879376052467604
15799311 1 18129680633091601551
17349148 13 16559038211299174273
17844677 252 17203611488530119248
17857418 61 18411696556743703538
17870717 6 18335137614200190407
18222031 100 17918272056357290056
19377110 9 10879983662432013637
19433438 28 12679464187764435697
19958102 18 18187912981244788535
20281389 69 7853582318220976213
220451 1 18411985754145601841
22061861 79 18410009922838501764
2215653 11 18410009910027569441
23559900 14 18339070597104965129
239999 70 18341337756106335112
25122255 55 17989488524173678999
300161 21 17313100869287732304
3004659 81 18186796951188298058
465052 167 17131836456607129204
5104073 3 11095885964458251582
960060 61 18040155098160598432

>  <PUBCHEM_SHAPE_MULTIPOLES>  (1) 
422.21
17.78
2.19
1.56
0.53
0.87
-0.23
3.94
-6.65
0.05
-0.03
-0.2
0.28
-0.01

>  <PUBCHEM_SHAPE_SELFOVERLAP>  (1) 
825.418

>  <PUBCHEM_SHAPE_VOLUME>  (1) 
245.9

>  <PUBCHEM_COORDINATE_TYPE>  (1) 
2
5
10

$$$$
