47152
     RDKit          3D

  9  9  0  0  0  0  0  0  0  0999 V2000
   -3.2537   -1.5498   -0.1601 Cl  0  0  0  0  0  0  0  0  0  0  0  0
    2.9579   -1.9268    0.1149 Cl  0  0  0  0  0  0  0  0  0  0  0  0
    0.0171    0.8458    0.0434 N   0  0  0  0  0  0  0  0  0  0  0  0
    0.5648    1.9604   -0.6891 C   0  0  0  0  0  0  0  0  0  0  0  0
   -0.0556    2.1376    0.6796 C   0  0  0  0  0  0  0  0  0  0  0  0
   -1.2614    0.2928   -0.4649 C   0  0  0  0  0  0  0  0  0  0  0  0
    0.9623   -0.1260    0.5973 C   0  0  0  0  0  0  0  0  0  0  0  0
   -1.7034   -0.8746    0.3974 C   0  0  0  0  0  0  0  0  0  0  0  0
    1.7720   -0.7594   -0.5185 C   0  0  0  0  0  0  0  0  0  0  0  0
  1  8  1  0
  2  9  1  0
  3  4  1  0
  3  5  1  0
  3  6  1  0
  3  7  1  0
  4  5  1  0
  6  8  1  0
  7  9  1  0
M  CHG  1   3   1
M  END
>  <PUBCHEM_COMPOUND_CID>  (1) 
47152

>  <PUBCHEM_CONFORMER_RMSD>  (1) 
0.6

>  <PUBCHEM_CONFORMER_DIVERSEORDER>  (1) 
1
6
9
5
2
7
8
10
3
4

>  <PUBCHEM_MMFF94_PARTIAL_CHARGES>  (1) 
13
1 -0.29
10 0.1
11 0.1
12 0.1
13 0.1
2 -0.29
3 -0.8
4 0.2
5 0.2
6 0.5
7 0.5
8 0.29
9 0.29

>  <PUBCHEM_EFFECTIVE_ROTOR_COUNT>  (1) 
4.6

>  <PUBCHEM_PHARMACOPHORE_FEATURES>  (1) 
1
1 3 cation

>  <PUBCHEM_HEAVY_ATOM_COUNT>  (1) 
9

>  <PUBCHEM_ATOM_DEF_STEREO_COUNT>  (1) 
0

>  <PUBCHEM_ATOM_UDEF_STEREO_COUNT>  (1) 
0

>  <PUBCHEM_BOND_DEF_STEREO_COUNT>  (1) 
0

>  <PUBCHEM_BOND_UDEF_STEREO_COUNT>  (1) 
0

>  <PUBCHEM_ISOTOPIC_ATOM_COUNT>  (1) 
0

>  <PUBCHEM_COMPONENT_COUNT>  (1) 
1

>  <PUBCHEM_CACTVS_TAUTO_COUNT>  (1) 
1

>  <PUBCHEM_CONFORMER_ID>  (1) 
0000B83000000001

>  <PUBCHEM_MMFF94_ENERGY>  (1) 
26.0026

>  <PUBCHEM_FEATURE_SELFOVERLAP>  (1) 
5.074

>  <PUBCHEM_SHAPE_FINGERPRINT>  (1) 
1 1 17833830847343759069
12716758 59 17548409311601184202
14128692 85 18334303066951131854
20645477 70 18119799464449821711
20653091 64 18268437995584074497
20711978 78 18124299752208111327
20711985 344 18119515544886769451
20871998 184 18057600962895561030
20871998 22 18411133653781779827
21040471 1 17040918140168551001
23552423 10 18334586766641838932
23552449 11 18268427013426720307
29004967 10 18340766039180300296

>  <PUBCHEM_SHAPE_MULTIPOLES>  (1) 
183.97
3.97
2.52
0.84
0.99
0.81
0
-4.34
0.18
-0.52
-0.06
-0.05
0.16
-0.11

>  <PUBCHEM_SHAPE_SELFOVERLAP>  (1) 
328.035

>  <PUBCHEM_SHAPE_VOLUME>  (1) 
122.4

>  <PUBCHEM_COORDINATE_TYPE>  (1) 
2
5
10

$$$$
