47168
     RDKit          3D

 17 18  0  0  0  0  0  0  0  0999 V2000
    1.1657   -2.3076    0.3943 O   0  0  0  0  0  0  0  0  0  0  0  0
   -4.0996   -1.1840   -1.2105 O   0  0  0  0  0  0  0  0  0  0  0  0
    3.2767    0.7274   -0.6522 N   0  0  0  0  0  0  0  0  0  0  0  0
    0.4947   -0.0182    0.1189 C   0  0  0  0  0  0  0  0  0  0  0  0
    1.0736   -0.2020   -1.3074 C   0  0  0  0  0  0  0  0  0  0  0  0
    1.3392    1.0618    0.8426 C   0  0  0  0  0  0  0  0  0  0  0  0
    2.5968   -0.3791   -1.3312 C   0  0  0  0  0  0  0  0  0  0  0  0
    2.8499    0.8187    0.7472 C   0  0  0  0  0  0  0  0  0  0  0  0
   -1.0081    0.3014    0.0505 C   0  0  0  0  0  0  0  0  0  0  0  0
    0.6452   -1.3119    0.8947 C   0  0  0  0  0  0  0  0  0  0  0  0
    4.7280    0.5667   -0.7365 C   0  0  0  0  0  0  0  0  0  0  0  0
   -1.8803   -0.5981   -0.5561 C   0  0  0  0  0  0  0  0  0  0  0  0
   -1.4881    1.4892    0.5954 C   0  0  0  0  0  0  0  0  0  0  0  0
    0.1289   -1.3173    2.3082 C   0  0  0  0  0  0  0  0  0  0  0  0
   -3.2432   -0.3078   -0.6181 C   0  0  0  0  0  0  0  0  0  0  0  0
   -2.8509    1.7796    0.5334 C   0  0  0  0  0  0  0  0  0  0  0  0
   -3.7285    0.8811   -0.0733 C   0  0  0  0  0  0  0  0  0  0  0  0
  1 10  2  0
  2 15  1  0
  3  7  1  0
  3  8  1  0
  3 11  1  0
  4  5  1  0
  4  6  1  0
  4  9  1  0
  4 10  1  0
  5  7  1  0
  6  8  1  0
  9 12  2  0
  9 13  1  0
 10 14  1  0
 12 15  1  0
 13 16  2  0
 15 17  2  0
 16 17  1  0
M  END
>  <PUBCHEM_COMPOUND_CID>  (1) 
47168

>  <PUBCHEM_CONFORMER_RMSD>  (1) 
0.6

>  <PUBCHEM_CONFORMER_DIVERSEORDER>  (1) 
5
22
20
13
35
38
44
27
32
46
37
15
18
23
6
16
9
7
2
12
33
8
10
36
24
31
34
42
17
29
45
1
25
30
11
43
39
26
14
19
40
28
21
3
41
4

>  <PUBCHEM_MMFF94_PARTIAL_CHARGES>  (1) 
20
1 -0.57
10 0.45
11 0.27
12 -0.15
13 -0.15
14 0.06
15 0.08
16 -0.15
17 -0.15
2 -0.53
29 0.15
3 -0.81
30 0.15
34 0.15
35 0.15
36 0.45
4 0.2
7 0.27
8 0.27
9 -0.14

>  <PUBCHEM_EFFECTIVE_ROTOR_COUNT>  (1) 
3.2

>  <PUBCHEM_PHARMACOPHORE_FEATURES>  (1) 
5
1 1 acceptor
1 2 donor
1 3 cation
6 3 4 5 6 7 8 rings
6 9 12 13 15 16 17 rings

>  <PUBCHEM_HEAVY_ATOM_COUNT>  (1) 
17

>  <PUBCHEM_ATOM_DEF_STEREO_COUNT>  (1) 
0

>  <PUBCHEM_ATOM_UDEF_STEREO_COUNT>  (1) 
0

>  <PUBCHEM_BOND_DEF_STEREO_COUNT>  (1) 
0

>  <PUBCHEM_BOND_UDEF_STEREO_COUNT>  (1) 
0

>  <PUBCHEM_ISOTOPIC_ATOM_COUNT>  (1) 
0

>  <PUBCHEM_COMPONENT_COUNT>  (1) 
1

>  <PUBCHEM_CACTVS_TAUTO_COUNT>  (1) 
6

>  <PUBCHEM_CONFORMER_ID>  (1) 
0000B84000000005

>  <PUBCHEM_MMFF94_ENERGY>  (1) 
45.8605

>  <PUBCHEM_FEATURE_SELFOVERLAP>  (1) 
25.371

>  <PUBCHEM_SHAPE_FINGERPRINT>  (1) 
10219947 1 16732976518480921452
12119455 92 16298381379317091508
121448 382 18040720315561626139
12491281 212 18411144610269466008
12932764 1 18339079277191360105
13296909 8 11674883329068655301
13538477 17 18269547248535346153
13583140 156 14996571745081173873
13675066 3 14562532916405096956
13705890 14 16917069962470376684
14993402 34 17458341983224513148
15219456 202 17275099548360896309
15309172 13 16877665673016955848
15775835 57 18336831887976759001
15852999 172 17603870017756304506
16945 1 18411698824254132377
18186145 218 18260276222071248052
200 152 15626232303576185180
204376 136 17095531716085868992
20671657 53 16056613040583179520
20871999 31 18131346402383192517
21501502 16 18268988696243320627
21524375 3 18040436611623203218
22094290 60 17775287174956201413
23175994 123 14764635208951498273
23402539 116 18410573985679335956
23419403 2 16984064498493773634
23493267 7 17703511000160460561
23557571 272 17775293772020842837
23559900 14 17416130478015134734
25 1 18261399914280601696
2748010 2 17833263499718145785
276578 36 17894353254799779848
2871803 45 18200581605717023831
3323516 105 17489869375180903300
34934 24 18338518530577501037
4340502 62 17531544087790286713
474 4 18187375336795634892
528886 8 17489869306508983860
57096353 35 18410564107090661127
6049 1 15913031132857955827
633830 44 18187658967829844076
7364860 26 18196933266774302078
77492 1 18262231123680597483
8030462 33 18408880707728485751
81228 2 16955085757136118810
9981440 41 17548969409744391856

>  <PUBCHEM_SHAPE_MULTIPOLES>  (1) 
333.13
6.86
1.69
1.48
0.52
0.35
-0.41
-1.78
2.7
-0.41
-0.54
0.31
0.52
-0.63

>  <PUBCHEM_SHAPE_SELFOVERLAP>  (1) 
701.247

>  <PUBCHEM_SHAPE_VOLUME>  (1) 
187.6

>  <PUBCHEM_COORDINATE_TYPE>  (1) 
2
5
10

$$$$
