47174
     RDKit          3D

 23 25  0  0  1  0  0  0  0  0999 V2000
    0.8451   -1.2119   -2.9419 Cl  0  0  0  0  0  0  0  0  0  0  0  0
    3.8375    2.2182    0.7753 O   0  0  0  0  0  0  0  0  0  0  0  0
   -0.1925   -2.1405   -0.3999 N   0  0  0  0  0  0  0  0  0  0  0  0
    1.1761   -1.9122    0.0762 C   0  0  0  0  0  0  0  0  0  0  0  0
    1.1384   -2.0162    1.6095 C   0  0  0  0  0  0  0  0  0  0  0  0
    2.4730   -1.5987    2.2102 C   0  0  0  0  0  0  0  0  0  0  0  0
    1.7927   -0.6118   -0.4177 C   0  0  0  0  0  0  0  0  0  0  0  0
    2.7411   -0.1300    1.9017 C   0  0  0  0  0  0  0  0  0  0  0  0
    2.5521    0.2075    0.4437 C   0  0  0  0  0  0  0  0  0  0  0  0
   -1.0560   -1.0322   -0.0028 C   0  0  0  0  0  0  0  0  0  0  0  0
    1.6874   -0.2451   -1.7720 C   0  0  0  0  0  0  0  0  0  0  0  0
    3.1231    1.3943   -0.0457 C   0  0  0  0  0  0  0  0  0  0  0  0
   -0.7030   -3.4056    0.1204 C   0  0  0  0  0  0  0  0  0  0  0  0
   -2.4798   -1.2266   -0.5303 C   0  0  0  0  0  0  0  0  0  0  0  0
    2.2706    0.9301   -2.2485 C   0  0  0  0  0  0  0  0  0  0  0  0
    2.9820    1.7534   -1.3840 C   0  0  0  0  0  0  0  0  0  0  0  0
   -3.3823   -0.0882   -0.1553 C   0  0  0  0  0  0  0  0  0  0  0  0
   -4.0958   -0.1392    1.0371 C   0  0  0  0  0  0  0  0  0  0  0  0
   -3.4970    1.0078   -1.0033 C   0  0  0  0  0  0  0  0  0  0  0  0
    3.1127    3.2396    1.4551 C   0  0  0  0  0  0  0  0  0  0  0  0
   -4.9347    0.9192    1.3859 C   0  0  0  0  0  0  0  0  0  0  0  0
   -4.3359    2.0662   -0.6542 C   0  0  0  0  0  0  0  0  0  0  0  0
   -5.0547    2.0218    0.5404 C   0  0  0  0  0  0  0  0  0  0  0  0
  1 11  1  0
  2 12  1  0
  2 20  1  0
  3  4  1  0
  3 10  1  0
  3 13  1  0
  4  5  1  0
  4  7  1  0
  5  6  1  0
  6  8  1  0
  7  9  2  0
  7 11  1  0
  8  9  1  0
  9 12  1  0
 10 14  1  0
 11 15  2  0
 12 16  2  0
 14 17  1  0
 15 16  1  0
 17 18  2  0
 17 19  1  0
 18 21  1  0
 19 22  2  0
 21 23  2  0
 22 23  1  0
M  END
>  <PUBCHEM_COMPOUND_CID>  (1) 
47174

>  <PUBCHEM_CONFORMER_RMSD>  (1) 
0.8

>  <PUBCHEM_CONFORMER_DIVERSEORDER>  (1) 
1
2
11
7
3
5
4
10
8
6
9

>  <PUBCHEM_MMFF94_PARTIAL_CHARGES>  (1) 
28
1 -0.18
10 0.27
11 0.18
12 0.08
13 0.27
14 0.14
15 -0.15
16 -0.15
17 -0.14
18 -0.15
19 -0.15
2 -0.36
20 0.28
21 -0.15
22 -0.15
23 -0.15
3 -0.81
38 0.15
39 0.15
4 0.41
40 0.15
41 0.15
45 0.15
46 0.15
47 0.15
7 -0.14
8 0.14
9 -0.14

>  <PUBCHEM_EFFECTIVE_ROTOR_COUNT>  (1) 
5.8

>  <PUBCHEM_PHARMACOPHORE_FEATURES>  (1) 
5
1 2 acceptor
1 3 cation
6 17 18 19 21 22 23 rings
6 4 5 6 7 8 9 rings
6 7 9 11 12 15 16 rings

>  <PUBCHEM_HEAVY_ATOM_COUNT>  (1) 
23

>  <PUBCHEM_ATOM_DEF_STEREO_COUNT>  (1) 
0

>  <PUBCHEM_ATOM_UDEF_STEREO_COUNT>  (1) 
1

>  <PUBCHEM_BOND_DEF_STEREO_COUNT>  (1) 
0

>  <PUBCHEM_BOND_UDEF_STEREO_COUNT>  (1) 
0

>  <PUBCHEM_ISOTOPIC_ATOM_COUNT>  (1) 
0

>  <PUBCHEM_COMPONENT_COUNT>  (1) 
1

>  <PUBCHEM_CACTVS_TAUTO_COUNT>  (1) 
1

>  <PUBCHEM_CONFORMER_ID>  (1) 
0000B84600000001

>  <PUBCHEM_MMFF94_ENERGY>  (1) 
80.3924

>  <PUBCHEM_FEATURE_SELFOVERLAP>  (1) 
25.392

>  <PUBCHEM_SHAPE_FINGERPRINT>  (1) 
10042902 136 10737273624367706296
10382601 240 17168133560206401362
10498660 4 18202289100014761657
10764073 3 16479924781043637490
10928967 22 11675173523046099833
11221954 11 17914051172894039504
11595378 159 18262803011730656427
11640471 11 18261667189852968582
11720765 8 17343522019966629084
11991303 11 10514282783409112450
12422481 6 17679829736233931784
12633257 1 18339624668785550240
12788726 201 16669123712006368895
13103583 49 15068886538946203397
13224815 77 18340770356276534377
13583140 156 16805313384557366295
13965767 371 18187920660102637357
14955137 171 18118685418193682914
14957384 54 18129651032414432644
15163728 17 17774445017763481440
15210252 30 17632306669679330984
15475509 8 18040727961558039548
15664445 248 13181864044956622787
15848702 68 18339066091140705504
1601671 61 18043528322520533218
20739085 24 16298385799181285772
20775530 9 10738375313338608016
21427221 339 18114449132982619602
21452121 199 9727636089904605086
21503847 285 18187652344832115330
21756936 100 17026870629799705860
21864079 5 18342454850839643073
23503958 8 11314574407923077053
235170 7 15195271041726060793
238 59 15482393148394727894
2838139 119 17557978722302403440
3797600 57 16663497378094602943
38570 142 17097520788887920108
427121 178 18261683648404796332
4280585 95 11671799143350660676
49207404 50 17386019368340297035
5895379 119 17559119761230044576
59444896 2 10661522711423075874
633830 44 17917158200028796869
7097593 13 17096081381927516523
7471813 234 14691471438050322350
7808743 9 18046644552910740476
8988823 20 14274317963723531479
960060 61 11887660759436546841

>  <PUBCHEM_SHAPE_MULTIPOLES>  (1) 
464.35
9.06
3.27
2.33
12.42
0.01
0.77
7.79
-2.72
-1.32
-0.85
-2.01
-0.19
-0.13

>  <PUBCHEM_SHAPE_SELFOVERLAP>  (1) 
980.75

>  <PUBCHEM_SHAPE_VOLUME>  (1) 
261.3

>  <PUBCHEM_COORDINATE_TYPE>  (1) 
2
5
10

$$$$
