47178
     RDKit          3D

 29 31  0  0  1  0  0  0  0  0999 V2000
   -7.2926    2.5619    0.4081 Cl  0  0  0  0  0  0  0  0  0  0  0  0
   -0.9723    1.4616    0.2444 O   0  0  0  0  0  0  0  0  0  0  0  0
    4.5146    1.7554    0.4107 N   0  0  0  0  0  0  0  0  0  0  0  0
    0.1456   -0.5368    0.6435 N   0  0  0  0  0  0  0  0  0  0  0  0
   -2.1818   -0.5614   -0.2675 C   0  0  0  0  0  0  0  0  0  0  0  0
    3.4765    1.2741    1.3140 C   0  0  0  0  0  0  0  0  0  0  0  0
    2.3208    0.6121    0.5573 C   0  0  0  0  0  0  0  0  0  0  0  0
    1.1743    0.1279    1.4443 C   0  0  0  0  0  0  0  0  0  0  0  0
   -2.0119   -1.1109   -1.6906 C   0  0  0  0  0  0  0  0  0  0  0  0
    5.1135    0.6415   -0.3269 C   0  0  0  0  0  0  0  0  0  0  0  0
    3.9700    2.7458   -0.5199 C   0  0  0  0  0  0  0  0  0  0  0  0
   -0.6254   -1.6777   -1.9692 C   0  0  0  0  0  0  0  0  0  0  0  0
   -0.9502    0.2283    0.1988 C   0  0  0  0  0  0  0  0  0  0  0  0
    0.3153   -1.9406    0.3824 C   0  0  0  0  0  0  0  0  0  0  0  0
   -0.0962   -2.5209   -0.8383 C   0  0  0  0  0  0  0  0  0  0  0  0
   -3.4744    0.2279   -0.0969 C   0  0  0  0  0  0  0  0  0  0  0  0
    5.7864   -0.3135    0.6538 C   0  0  0  0  0  0  0  0  0  0  0  0
    4.0506   -0.0789   -1.1518 C   0  0  0  0  0  0  0  0  0  0  0  0
    3.3571    3.8995    0.2677 C   0  0  0  0  0  0  0  0  0  0  0  0
    5.0628    3.2442   -1.4613 C   0  0  0  0  0  0  0  0  0  0  0  0
    0.9377   -2.7622    1.3393 C   0  0  0  0  0  0  0  0  0  0  0  0
    0.0661   -3.9016   -1.0433 C   0  0  0  0  0  0  0  0  0  0  0  0
   -4.1896    0.1324    1.0926 C   0  0  0  0  0  0  0  0  0  0  0  0
   -3.9297    1.0390   -1.1315 C   0  0  0  0  0  0  0  0  0  0  0  0
    1.0972   -4.1317    1.1189 C   0  0  0  0  0  0  0  0  0  0  0  0
    0.6533   -4.7028   -0.0673 C   0  0  0  0  0  0  0  0  0  0  0  0
   -5.3722    0.8553    1.2491 C   0  0  0  0  0  0  0  0  0  0  0  0
   -5.1122    1.7619   -0.9752 C   0  0  0  0  0  0  0  0  0  0  0  0
   -5.8336    1.6701    0.2151 C   0  0  0  0  0  0  0  0  0  0  0  0
  1 29  1  0
  2 13  2  0
  3  6  1  0
  3 10  1  0
  3 11  1  0
  4  8  1  0
  4 13  1  0
  4 14  1  0
  5  9  1  0
  5 13  1  0
  5 16  1  0
  6  7  1  0
  7  8  1  0
  9 12  1  0
 10 17  1  0
 10 18  1  0
 11 19  1  0
 11 20  1  0
 12 15  1  0
 14 15  2  0
 14 21  1  0
 15 22  1  0
 16 23  2  0
 16 24  1  0
 21 25  2  0
 22 26  2  0
 23 27  1  0
 24 28  2  0
 25 26  1  0
 27 29  2  0
 28 29  1  0
M  END
>  <PUBCHEM_COMPOUND_CID>  (1) 
47178

>  <PUBCHEM_CONFORMER_RMSD>  (1) 
1

>  <PUBCHEM_CONFORMER_DIVERSEORDER>  (1) 
4
10
17
12
18
15
1
20
11
21
19
22
2
16
5
6
14
13
9
8
3
7

>  <PUBCHEM_MMFF94_PARTIAL_CHARGES>  (1) 
31
1 -0.18
10 0.27
11 0.27
12 0.14
13 0.57
14 0.12
15 -0.14
16 -0.14
2 -0.57
21 -0.15
22 -0.15
23 -0.15
24 -0.15
25 -0.15
26 -0.15
27 -0.15
28 -0.15
29 0.18
3 -0.81
4 -0.48
5 0.2
55 0.15
56 0.15
57 0.15
58 0.15
59 0.15
6 0.27
60 0.15
61 0.15
62 0.15
8 0.3

>  <PUBCHEM_EFFECTIVE_ROTOR_COUNT>  (1) 
7.8

>  <PUBCHEM_PHARMACOPHORE_FEATURES>  (1) 
7
1 2 acceptor
1 3 cation
3 10 17 18 hydrophobe
3 11 19 20 hydrophobe
6 14 15 21 22 25 26 rings
6 16 23 24 27 28 29 rings
7 4 5 9 12 13 14 15 rings

>  <PUBCHEM_HEAVY_ATOM_COUNT>  (1) 
29

>  <PUBCHEM_ATOM_DEF_STEREO_COUNT>  (1) 
0

>  <PUBCHEM_ATOM_UDEF_STEREO_COUNT>  (1) 
1

>  <PUBCHEM_BOND_DEF_STEREO_COUNT>  (1) 
0

>  <PUBCHEM_BOND_UDEF_STEREO_COUNT>  (1) 
0

>  <PUBCHEM_ISOTOPIC_ATOM_COUNT>  (1) 
0

>  <PUBCHEM_COMPONENT_COUNT>  (1) 
1

>  <PUBCHEM_CACTVS_TAUTO_COUNT>  (1) 
1

>  <PUBCHEM_CONFORMER_ID>  (1) 
0000B84A00000004

>  <PUBCHEM_MMFF94_ENERGY>  (1) 
124.8012

>  <PUBCHEM_FEATURE_SELFOVERLAP>  (1) 
35.532

>  <PUBCHEM_SHAPE_FINGERPRINT>  (1) 
10369192 42 18113907064922730813
10675989 125 18343585118871092568
107951 10 18341335603615992678
10930396 42 9582667578448749238
11445158 3 18051677859576679967
1200032 147 16771579212866298203
12342043 65 13480229646310599296
12516196 113 9151172047518926984
12788726 201 17762602289442507666
13540713 5 18057295368015908775
13544653 18 8574717900901286051
13782708 43 12757970358108642056
13944108 23 18122627154510409265
14790565 3 18339079397197301833
15183329 4 16056883515932614337
17349148 13 11530773561162535651
18222031 100 8214144087874567504
18785283 64 18263357006118083306
20715895 44 18201719553012601148
21033648 29 18338793536980328808
21120745 212 17254567508805104431
21756936 100 18191301783223518368
23559900 14 17973159531282676563
249057 3 18410296930820039212
25147074 1 17986932112779854399
27425 322 18341331196757806109
3178227 256 18335140843672725680
340366 18 18409168853106191300
3411729 13 18339927000714137907
38695281 34 18411698777099513495
4058900 60 18339372881060607241
469060 322 14998235396711255946
5219985 13 18336547213154720757
57724786 102 18195809562381854881
6004065 56 9727337026894457644
613672 6 9799695930105077084
633830 44 18341043103378552934
6669772 16 18271808995499135870
6679774 75 18188756272320126602

>  <PUBCHEM_SHAPE_MULTIPOLES>  (1) 
582.84
13.62
5.25
1.53
11.21
4.26
-0.27
-17.69
0.69
-4.18
-0.37
-0.04
0.37
-1.25

>  <PUBCHEM_SHAPE_SELFOVERLAP>  (1) 
1216.53

>  <PUBCHEM_SHAPE_VOLUME>  (1) 
330.7

>  <PUBCHEM_COORDINATE_TYPE>  (1) 
2
5
10

$$$$
