47184
     RDKit          3D

 24 25  0  0  0  0  0  0  0  0999 V2000
   -2.1065    1.2520   -0.3558 O   0  0  0  0  0  0  0  0  0  0  0  0
    0.0197   -3.3797   -0.4774 O   0  0  0  0  0  0  0  0  0  0  0  0
    2.5967   -2.1360    0.1982 N   0  0  0  0  0  0  0  0  0  0  0  0
   -0.5744   -1.1085   -0.5015 N   0  0  0  0  0  0  0  0  0  0  0  0
    1.7088   -1.7047   -0.8808 C   0  0  0  0  0  0  0  0  0  0  0  0
    3.9738   -1.7302   -0.0802 C   0  0  0  0  0  0  0  0  0  0  0  0
    2.1506   -1.5865    1.4779 C   0  0  0  0  0  0  0  0  0  0  0  0
    0.2976   -2.1910   -0.5988 C   0  0  0  0  0  0  0  0  0  0  0  0
    4.4751   -2.3427   -1.3771 C   0  0  0  0  0  0  0  0  0  0  0  0
    3.0623   -2.0248    2.6114 C   0  0  0  0  0  0  0  0  0  0  0  0
   -1.9664   -1.1412   -0.2481 C   0  0  0  0  0  0  0  0  0  0  0  0
   -1.4784    3.4734    0.3506 C   0  0  0  0  0  0  0  0  0  0  0  0
   -2.1863    2.1765    0.7268 C   0  0  0  0  0  0  0  0  0  0  0  0
   -2.7052    0.0401   -0.1802 C   0  0  0  0  0  0  0  0  0  0  0  0
   -0.0095    3.2656    0.0724 C   0  0  0  0  0  0  0  0  0  0  0  0
   -2.5993   -2.3709   -0.0655 C   0  0  0  0  0  0  0  0  0  0  0  0
   -4.0766   -0.0084    0.0702 C   0  0  0  0  0  0  0  0  0  0  0  0
    0.9184    3.3710    1.1086 C   0  0  0  0  0  0  0  0  0  0  0  0
    0.4203    2.9677   -1.2209 C   0  0  0  0  0  0  0  0  0  0  0  0
   -3.9707   -2.4192    0.1851 C   0  0  0  0  0  0  0  0  0  0  0  0
   -4.7092   -1.2380    0.2530 C   0  0  0  0  0  0  0  0  0  0  0  0
    2.2759    3.1788    0.8516 C   0  0  0  0  0  0  0  0  0  0  0  0
    1.7778    2.7755   -1.4777 C   0  0  0  0  0  0  0  0  0  0  0  0
    2.7055    2.8810   -0.4415 C   0  0  0  0  0  0  0  0  0  0  0  0
  1 13  1  0
  1 14  1  0
  2  8  2  0
  3  5  1  0
  3  6  1  0
  3  7  1  0
  4  8  1  0
  4 11  1  0
  5  8  1  0
  6  9  1  0
  7 10  1  0
 11 14  2  0
 11 16  1  0
 12 13  1  0
 12 15  1  0
 14 17  1  0
 15 18  2  0
 15 19  1  0
 16 20  2  0
 17 21  2  0
 18 22  1  0
 19 23  2  0
 20 21  1  0
 22 24  2  0
 23 24  1  0
M  END
>  <PUBCHEM_COMPOUND_CID>  (1) 
47184

>  <PUBCHEM_CONFORMER_RMSD>  (1) 
1

>  <PUBCHEM_CONFORMER_DIVERSEORDER>  (1) 
1
151
24
152
53
111
61
4
84
138
107
145
33
23
81
30
21
35
118
106
109
48
133
160
14
130
36
140
101
92
112
120
162
58
158
50
85
71
156
46
124
31
155
127
76
163
115
108
20
52
104
42
134
96
62
40
143
54
154
146
18
66
139
117
99
83
147
131
32
159
91
45
93
22
34
65
77
68
128
135
82
119
75
6
94
136
150
11
80
144
51
16
72
8
137
67
148
114
64
28
5
157
41
132
69
26
89
98
57
13
78
60
161
121
116
97
39
63
100
15
125
90
49
95
126
87
153
79
123
73
59
86
12
110
142
7
37
29
25
149
141
102
38
55
70
3
43
27
88
17
2
74
10
103
122
113
44
129
105
9
47
56
19

>  <PUBCHEM_MMFF94_PARTIAL_CHARGES>  (1) 
32
1 -0.36
11 0.12
12 0.14
13 0.28
14 0.08
15 -0.14
16 -0.15
17 -0.15
18 -0.15
19 -0.15
2 -0.57
20 -0.15
21 -0.15
22 -0.15
23 -0.15
24 -0.15
3 -0.81
39 0.37
4 -0.55
42 0.15
43 0.15
44 0.15
45 0.15
46 0.15
47 0.15
48 0.15
49 0.15
5 0.33
50 0.15
6 0.27
7 0.27
8 0.57

>  <PUBCHEM_EFFECTIVE_ROTOR_COUNT>  (1) 
10

>  <PUBCHEM_PHARMACOPHORE_FEATURES>  (1) 
6
1 1 acceptor
1 2 acceptor
1 3 cation
1 4 donor
6 11 14 16 17 20 21 rings
6 15 18 19 22 23 24 rings

>  <PUBCHEM_HEAVY_ATOM_COUNT>  (1) 
24

>  <PUBCHEM_ATOM_DEF_STEREO_COUNT>  (1) 
0

>  <PUBCHEM_ATOM_UDEF_STEREO_COUNT>  (1) 
0

>  <PUBCHEM_BOND_DEF_STEREO_COUNT>  (1) 
0

>  <PUBCHEM_BOND_UDEF_STEREO_COUNT>  (1) 
0

>  <PUBCHEM_ISOTOPIC_ATOM_COUNT>  (1) 
0

>  <PUBCHEM_COMPONENT_COUNT>  (1) 
1

>  <PUBCHEM_CACTVS_TAUTO_COUNT>  (1) 
2

>  <PUBCHEM_CONFORMER_ID>  (1) 
0000B85000000001

>  <PUBCHEM_MMFF94_ENERGY>  (1) 
66.7659

>  <PUBCHEM_FEATURE_SELFOVERLAP>  (1) 
30.446

>  <PUBCHEM_SHAPE_FINGERPRINT>  (1) 
10670039 82 18122352272724879190
1100329 8 18268441126979756113
11578080 2 17387387182322486831
12156800 1 16054386469159355056
12422481 6 18051937529478740840
12553582 1 18194118521317636369
12592029 89 17905334279638124843
12788726 201 18117282445334791794
13122387 1 18266739086815574480
13140716 1 18339371837642153139
138480 1 18411985788162286412
16120349 306 17691385821741514576
16719943 64 17689437505076801036
17859628 97 17832701649202758945
19591789 44 17258500475173184579
19930381 70 18196092372338695695
20028762 73 16758891217395874519
20905425 154 18341060695391011413
21033648 29 17488165024657704690
23419403 2 17970602208769541159
23557571 272 17983581805658860534
23559900 14 18413387648793576479
3187 122 18192969566058017355
3298306 158 17976815712382077767
3524813 1 17700396010367216218
57091435 65 18266165322176758800
9925002 15 17627760292251265559

>  <PUBCHEM_SHAPE_MULTIPOLES>  (1) 
472.21
7.47
6.02
1.44
3.43
3.63
-0.63
-5.56
-0.17
-3.7
-0.08
-1.77
-0.39
-0.43

>  <PUBCHEM_SHAPE_SELFOVERLAP>  (1) 
975.151

>  <PUBCHEM_SHAPE_VOLUME>  (1) 
270.9

>  <PUBCHEM_COORDINATE_TYPE>  (1) 
2
5
10

$$$$
