47209
     RDKit          3D

 20 20  0  0  0  0  0  0  0  0999 V2000
   -0.7483    1.7085   -0.7269 S   0  0  0  0  0  0  0  0  0  0  0  0
   -0.9582    1.6215   -2.1595 O   0  0  0  0  0  0  0  0  0  0  0  0
   -0.7181    3.0067   -0.0792 O   0  0  0  0  0  0  0  0  0  0  0  0
   -3.2461   -1.2065    0.3848 O   0  0  0  0  0  0  0  0  0  0  0  0
   -2.3834   -0.7368   -1.6821 O   0  0  0  0  0  0  0  0  0  0  0  0
    4.8277   -1.9113   -0.4221 O   0  0  0  0  0  0  0  0  0  0  0  0
    5.0871   -0.6946    1.3865 O   0  0  0  0  0  0  0  0  0  0  0  0
   -1.8576    0.6755    0.1279 N   0  0  0  0  0  0  0  0  0  0  0  0
    4.4284   -1.0241    0.3705 N   0  0  0  0  0  0  0  0  0  0  0  0
    0.7902    0.8966   -0.4007 C   0  0  0  0  0  0  0  0  0  0  0  0
   -2.0303    0.9653    1.5832 C   0  0  0  0  0  0  0  0  0  0  0  0
    1.2331   -0.0825   -1.2714 C   0  0  0  0  0  0  0  0  0  0  0  0
    1.5184    1.2572    0.7186 C   0  0  0  0  0  0  0  0  0  0  0  0
   -2.4998   -0.4647   -0.4924 C   0  0  0  0  0  0  0  0  0  0  0  0
   -3.2270    1.8696    1.8245 C   0  0  0  0  0  0  0  0  0  0  0  0
    2.4454   -0.7229   -1.0142 C   0  0  0  0  0  0  0  0  0  0  0  0
    2.7306    0.6170    0.9759 C   0  0  0  0  0  0  0  0  0  0  0  0
    3.1941   -0.3731    0.1094 C   0  0  0  0  0  0  0  0  0  0  0  0
   -3.9066   -2.3516   -0.1655 C   0  0  0  0  0  0  0  0  0  0  0  0
   -4.6797   -3.0500    0.9328 C   0  0  0  0  0  0  0  0  0  0  0  0
  1  2  2  0
  1  3  2  0
  1  8  1  0
  1 10  1  0
  4 14  1  0
  4 19  1  0
  5 14  2  0
  6  9  1  0
  7  9  2  0
  8 11  1  0
  8 14  1  0
  9 18  1  0
 10 12  2  0
 10 13  1  0
 11 15  1  0
 12 16  1  0
 13 17  2  0
 16 18  2  0
 17 18  1  0
 19 20  1  0
M  CHG  2   6  -1   9   1
M  END
>  <PUBCHEM_COMPOUND_CID>  (1) 
47209

>  <PUBCHEM_CONFORMER_RMSD>  (1) 
0.8

>  <PUBCHEM_CONFORMER_DIVERSEORDER>  (1) 
1
26
9
20
8
35
30
14
24
32
2
13
19
7
17
21
22
18
15
4
12
11
29
27
6
31
16
10
33
25
3
5
28
23
34

>  <PUBCHEM_MMFF94_PARTIAL_CHARGES>  (1) 
22
1 1.45
10 -0.01
11 0.36
12 -0.15
13 -0.15
14 0.96
16 -0.15
17 -0.15
18 0.13
19 0.28
2 -0.65
23 0.15
24 0.15
28 0.15
29 0.15
3 -0.65
4 -0.43
5 -0.57
6 -0.52
7 -0.52
8 -0.73
9 0.91

>  <PUBCHEM_EFFECTIVE_ROTOR_COUNT>  (1) 
7

>  <PUBCHEM_PHARMACOPHORE_FEATURES>  (1) 
7
1 2 acceptor
1 3 acceptor
1 5 acceptor
1 6 acceptor
1 6 anion
1 7 acceptor
6 10 12 13 16 17 18 rings

>  <PUBCHEM_HEAVY_ATOM_COUNT>  (1) 
20

>  <PUBCHEM_ATOM_DEF_STEREO_COUNT>  (1) 
0

>  <PUBCHEM_ATOM_UDEF_STEREO_COUNT>  (1) 
0

>  <PUBCHEM_BOND_DEF_STEREO_COUNT>  (1) 
0

>  <PUBCHEM_BOND_UDEF_STEREO_COUNT>  (1) 
0

>  <PUBCHEM_ISOTOPIC_ATOM_COUNT>  (1) 
0

>  <PUBCHEM_COMPONENT_COUNT>  (1) 
1

>  <PUBCHEM_CACTVS_TAUTO_COUNT>  (1) 
1

>  <PUBCHEM_CONFORMER_ID>  (1) 
0000B86900000001

>  <PUBCHEM_MMFF94_ENERGY>  (1) 
33.0472

>  <PUBCHEM_FEATURE_SELFOVERLAP>  (1) 
35.628

>  <PUBCHEM_SHAPE_FINGERPRINT>  (1) 
11046707 91 18334292063287260270
12363563 72 18261395597733123507
12633257 1 17988374667044080201
12824470 246 18408320008016324043
12892183 10 17917990581633384162
13544653 18 18199179771267533095
13583140 156 16917060036737594162
13675066 3 16487249938097687744
14178342 30 18271821072593269587
17134986 127 8573896540341276625
193927 3 18334860566739241195
200 152 16515406240103596044
20281475 54 18410019818849235950
20361792 2 17676779742090839573
20671657 53 18042123335754289071
20871999 31 11458431262469510755
21421861 104 17982756330757213777
21756936 100 11455885880018737734
23402655 69 11314299547006331622
23419403 2 18055606629502826225
23503958 8 18341618109226306371
23598288 3 17751380403286602989
312423 11 18410865386167075508
3286 77 18271806864772753016
5104073 3 18130781214831055090
5486654 36 18341620295296062250
9981440 41 15553045390789896593

>  <PUBCHEM_SHAPE_MULTIPOLES>  (1) 
370.26
9.03
2.81
1.63
3.81
0.26
0.18
8.72
-3.6
-3.08
-0.4
-0.5
-0.52
-0.1

>  <PUBCHEM_SHAPE_SELFOVERLAP>  (1) 
741.251

>  <PUBCHEM_SHAPE_VOLUME>  (1) 
218.6

>  <PUBCHEM_COORDINATE_TYPE>  (1) 
2
5
10

$$$$
