47207
     RDKit          3D

 12 12  0  0  0  0  0  0  0  0999 V2000
    0.6379   -0.1986   -0.7244 O   0  0  0  0  0  0  0  0  0  0  0  0
    2.0316   -0.9077    0.9652 O   0  0  0  0  0  0  0  0  0  0  0  0
    2.3649   -1.5522   -1.2166 N   0  0  0  0  0  0  0  0  0  0  0  0
   -0.1355    0.5416    0.2249 C   0  0  0  0  0  0  0  0  0  0  0  0
   -1.2766    1.2370   -0.5333 C   0  0  0  0  0  0  0  0  0  0  0  0
   -0.6907   -0.4264    1.2823 C   0  0  0  0  0  0  0  0  0  0  0  0
   -2.2773    0.2391   -1.1192 C   0  0  0  0  0  0  0  0  0  0  0  0
   -1.6910   -1.4199    0.6895 C   0  0  0  0  0  0  0  0  0  0  0  0
   -2.8173   -0.7078   -0.0524 C   0  0  0  0  0  0  0  0  0  0  0  0
    0.7860    1.5779    0.8706 C   0  0  0  0  0  0  0  0  0  0  0  0
    1.3651    2.5014   -0.1706 C   0  0  0  0  0  0  0  0  0  0  0  0
    1.7029   -0.8843   -0.2161 C   0  0  0  0  0  0  0  0  0  0  0  0
  1  4  1  0
  1 12  1  0
  2 12  2  0
  3 12  1  0
  4  5  1  0
  4  6  1  0
  4 10  1  0
  5  7  1  0
  6  8  1  0
  7  9  1  0
  8  9  1  0
 10 11  1  0
M  END
>  <PUBCHEM_COMPOUND_CID>  (1) 
47207

>  <PUBCHEM_CONFORMER_RMSD>  (1) 
0.6

>  <PUBCHEM_CONFORMER_DIVERSEORDER>  (1) 
1
5
11
10
4
12
2
6
7
9
8
3

>  <PUBCHEM_MMFF94_PARTIAL_CHARGES>  (1) 
7
1 -0.43
12 0.78
2 -0.57
28 0.37
29 0.37
3 -0.8
4 0.28

>  <PUBCHEM_EFFECTIVE_ROTOR_COUNT>  (1) 
4.2

>  <PUBCHEM_PHARMACOPHORE_FEATURES>  (1) 
4
1 11 hydrophobe
1 2 acceptor
1 3 donor
6 4 5 6 7 8 9 rings

>  <PUBCHEM_HEAVY_ATOM_COUNT>  (1) 
12

>  <PUBCHEM_ATOM_DEF_STEREO_COUNT>  (1) 
0

>  <PUBCHEM_ATOM_UDEF_STEREO_COUNT>  (1) 
0

>  <PUBCHEM_BOND_DEF_STEREO_COUNT>  (1) 
0

>  <PUBCHEM_BOND_UDEF_STEREO_COUNT>  (1) 
0

>  <PUBCHEM_ISOTOPIC_ATOM_COUNT>  (1) 
0

>  <PUBCHEM_COMPONENT_COUNT>  (1) 
1

>  <PUBCHEM_CACTVS_TAUTO_COUNT>  (1) 
2

>  <PUBCHEM_CONFORMER_ID>  (1) 
0000B86700000001

>  <PUBCHEM_MMFF94_ENERGY>  (1) 
25.465

>  <PUBCHEM_FEATURE_SELFOVERLAP>  (1) 
20.297

>  <PUBCHEM_SHAPE_FINGERPRINT>  (1) 
1 1 18052535766329687436
12138202 97 17679841967783533087
12423570 1 15942297700915734057
12524768 44 18262516030378375565
12716758 59 17905317434085267043
13024252 1 17609529066549131430
13839132 238 17750778012769535653
14128692 85 17632283601425112613
14817 1 15111356597418965056
15219456 202 18190173666918372025
161256 15 18189060948397769785
16945 1 18261670359797022927
17990270 104 18413385453579413423
20201158 50 18410848867416932291
20379382 53 18125748865467886905
20645477 70 18268985561540317215
20653085 51 15141821496012863175
20711978 78 18200315545008725069
20711985 344 17838336276895995520
21501502 16 18336825389780878473
21922407 69 17202496669738691347
23559900 14 18046606929725175850
2748010 2 18115022038912709199
29004967 10 18059846242832579779
369184 2 15697707113222267251
528862 383 18197772400378273064
81228 2 17910114607897317824

>  <PUBCHEM_SHAPE_MULTIPOLES>  (1) 
230.23
3.36
2.06
1.19
1.04
0.7
-0.02
-0.89
0.6
-1.32
0.12
-0.04
-0.21
0.67

>  <PUBCHEM_SHAPE_SELFOVERLAP>  (1) 
458.901

>  <PUBCHEM_SHAPE_VOLUME>  (1) 
134.1

>  <PUBCHEM_COORDINATE_TYPE>  (1) 
2
5
10

$$$$
