47203
     RDKit          3D

 19 19  0  0  1  0  0  0  0  0999 V2000
   -0.1109   -0.2781   -2.0836 O   0  0  0  0  0  0  0  0  0  0  0  0
    1.9852    0.2655    0.6247 N   0  0  0  0  0  0  0  0  0  0  0  0
    0.0394    1.5825    0.1484 N   0  0  0  0  0  0  0  0  0  0  0  0
    0.0701   -0.6539   -0.7249 C   0  0  0  0  0  0  0  0  0  0  0  0
    0.7351    0.4907    0.0655 C   0  0  0  0  0  0  0  0  0  0  0  0
   -1.2747   -1.0359   -0.1464 C   0  0  0  0  0  0  0  0  0  0  0  0
    2.7720   -0.9414    0.5467 C   0  0  0  0  0  0  0  0  0  0  0  0
    4.0610   -0.7986    1.3493 C   0  0  0  0  0  0  0  0  0  0  0  0
    0.6078    2.6983    0.8909 C   0  0  0  0  0  0  0  0  0  0  0  0
   -1.3369   -2.0149    0.8303 C   0  0  0  0  0  0  0  0  0  0  0  0
   -2.4141   -0.3979   -0.6058 C   0  0  0  0  0  0  0  0  0  0  0  0
   -0.3577    3.8768    0.8729 C   0  0  0  0  0  0  0  0  0  0  0  0
    1.1190    0.0944   -2.6903 C   0  0  0  0  0  0  0  0  0  0  0  0
    4.9078   -2.0636    1.3362 C   0  0  0  0  0  0  0  0  0  0  0  0
   -2.5765   -2.3670    1.3639 C   0  0  0  0  0  0  0  0  0  0  0  0
   -3.6538   -0.7500   -0.0720 C   0  0  0  0  0  0  0  0  0  0  0  0
   -3.7350   -1.7346    0.9129 C   0  0  0  0  0  0  0  0  0  0  0  0
   -1.6986    3.5452    1.5120 C   0  0  0  0  0  0  0  0  0  0  0  0
    0.8608    0.4825   -4.1306 C   0  0  0  0  0  0  0  0  0  0  0  0
  1  4  1  0
  1 13  1  0
  2  5  1  0
  2  7  1  0
  3  5  2  0
  3  9  1  0
  4  5  1  0
  4  6  1  0
  6 10  2  0
  6 11  1  0
  7  8  1  0
  8 14  1  0
  9 12  1  0
 10 15  1  0
 11 16  2  0
 12 18  1  0
 13 19  1  0
 15 17  2  0
 16 17  1  0
M  END
>  <PUBCHEM_COMPOUND_CID>  (1) 
47203

>  <PUBCHEM_CONFORMER_RMSD>  (1) 
0.8

>  <PUBCHEM_CONFORMER_DIVERSEORDER>  (1) 
1
173
113
29
202
85
197
116
158
117
4
138
135
168
31
43
72
160
24
136
157
17
159
107
49
80
139
191
5
68
156
75
103
112
87
94
203
101
34
193
129
77
105
11
84
74
192
186
83
114
144
151
124
194
69
121
199
172
109
189
184
70
153
183
86
127
118
152
181
175
50
91
39
146
82
122
164
141
154
171
92
200
170
126
98
7
106
79
32
76
36
99
204
123
145
78
133
128
35
111
65
198
120
54
174
115
155
64
56
14
37
88
16
131
177
125
137
51
167
71
178
169
89
42
20
196
201
22
60
8
55
19
90
30
73
163
96
188
132
97
142
66
179
62
165
52
166
95
140
21
150
195
190
104
18
15
149
176
185
59
33
180
27
147
182
45
13
9
67
134
130
26
40
25
81
108
148
2
119
57
38
53
48
110
63
161
47
187
28
41
44
162
100
143
3
10
46
12
93
61
23
6
58
102

>  <PUBCHEM_MMFF94_PARTIAL_CHARGES>  (1) 
20
1 -0.56
10 -0.15
11 -0.15
13 0.28
15 -0.15
16 -0.15
17 -0.15
2 -0.82
23 0.4
28 0.15
29 0.15
3 -0.7
37 0.15
38 0.15
39 0.15
4 0.48
5 0.44
6 -0.14
7 0.37
9 0.25

>  <PUBCHEM_EFFECTIVE_ROTOR_COUNT>  (1) 
9

>  <PUBCHEM_PHARMACOPHORE_FEATURES>  (1) 
6
1 1 acceptor
1 14 hydrophobe
1 18 hydrophobe
1 2 donor
3 2 3 5 cation
6 6 10 11 15 16 17 rings

>  <PUBCHEM_HEAVY_ATOM_COUNT>  (1) 
19

>  <PUBCHEM_ATOM_DEF_STEREO_COUNT>  (1) 
0

>  <PUBCHEM_ATOM_UDEF_STEREO_COUNT>  (1) 
1

>  <PUBCHEM_BOND_DEF_STEREO_COUNT>  (1) 
0

>  <PUBCHEM_BOND_UDEF_STEREO_COUNT>  (1) 
0

>  <PUBCHEM_ISOTOPIC_ATOM_COUNT>  (1) 
0

>  <PUBCHEM_COMPONENT_COUNT>  (1) 
1

>  <PUBCHEM_CACTVS_TAUTO_COUNT>  (1) 
1

>  <PUBCHEM_CONFORMER_ID>  (1) 
0000B86300000001

>  <PUBCHEM_MMFF94_ENERGY>  (1) 
35.1777

>  <PUBCHEM_FEATURE_SELFOVERLAP>  (1) 
30.446

>  <PUBCHEM_SHAPE_FINGERPRINT>  (1) 
11578080 2 17750774709644520317
12507560 14 18341610473096441075
12507560 18 18188758471263097139
12716301 132 17838088942419356520
12788726 201 18411990130970146520
13134695 92 18198327636692035917
14817 1 15237238700109265148
14863182 85 16454888351180550666
14866123 147 17761767369412159026
15238133 3 18263946379490563801
17804303 29 18041274452342707563
20600515 1 18040996211370700398
21524375 3 17123081934499708016
23175994 123 18410564093863173059
23352939 185 17603588530437705678
23382010 3 11818998504149144954
23419403 2 18045466894521571708
23558518 356 17908419156661659730
23559900 14 17387405964404856275
23598288 3 18129369437547747080
266924 78 17117433068630520164
2748010 2 17487644951678738573
298252 57 15975562823903215032
3052486 1 18050880778244890473
3286 77 18263362663238709115
497634 4 18114461138212842494
68419 9 17828525463458909260
7097593 13 18052250988301619386
81228 2 18268149760218330088

>  <PUBCHEM_SHAPE_MULTIPOLES>  (1) 
375.18
6.11
3.79
2.78
4.42
4.8
-4.63
-6.19
4.06
-1.67
3.15
1.56
0.64
-0.87

>  <PUBCHEM_SHAPE_SELFOVERLAP>  (1) 
739.165

>  <PUBCHEM_SHAPE_VOLUME>  (1) 
222.7

>  <PUBCHEM_COORDINATE_TYPE>  (1) 
2
5
10

$$$$
