47206
     RDKit          3D

 16 16  0  0  0  0  0  0  0  0999 V2000
    0.3446   -1.0816   -0.9239 S   0  0  0  0  0  0  0  0  0  0  0  0
    4.3331   -0.2794    0.6304 S   0  0  0  0  0  0  0  0  0  0  0  0
    1.3313   -0.9311    1.8865 S   0  0  0  0  0  0  0  0  0  0  0  0
   -3.7750   -1.5020    0.4738 O   0  0  0  0  0  0  0  0  0  0  0  0
   -1.8502   -2.3046   -0.2254 O   0  0  0  0  0  0  0  0  0  0  0  0
    2.9323   -0.5485   -0.3475 N   0  0  0  0  0  0  0  0  0  0  0  0
   -2.5979   -1.3464    0.0760 N   0  0  0  0  0  0  0  0  0  0  0  0
   -0.7850    0.2303   -0.4759 C   0  0  0  0  0  0  0  0  0  0  0  0
   -2.0874   -0.0219   -0.0395 C   0  0  0  0  0  0  0  0  0  0  0  0
   -0.3288    1.5464   -0.5731 C   0  0  0  0  0  0  0  0  0  0  0  0
   -2.9296    1.0376    0.2983 C   0  0  0  0  0  0  0  0  0  0  0  0
   -1.1709    2.6058   -0.2352 C   0  0  0  0  0  0  0  0  0  0  0  0
   -2.4713    2.3514    0.2003 C   0  0  0  0  0  0  0  0  0  0  0  0
    1.6751   -0.8143    0.2319 C   0  0  0  0  0  0  0  0  0  0  0  0
    3.1806   -0.4567   -1.7921 C   0  0  0  0  0  0  0  0  0  0  0  0
    4.1991    1.5150    0.8153 C   0  0  0  0  0  0  0  0  0  0  0  0
  1  8  1  0
  1 14  1  0
  2  6  1  0
  2 16  1  0
  3 14  2  0
  4  7  1  0
  5  7  2  0
  6 14  1  0
  6 15  1  0
  7  9  1  0
  8  9  2  0
  8 10  1  0
  9 11  1  0
 10 12  2  0
 11 13  2  0
 12 13  1  0
M  CHG  2   4  -1   7   1
M  END
>  <PUBCHEM_COMPOUND_CID>  (1) 
47206

>  <PUBCHEM_CONFORMER_RMSD>  (1) 
0.6

>  <PUBCHEM_CONFORMER_DIVERSEORDER>  (1) 
1
90
30
39
98
119
61
64
106
142
60
66
72
16
140
148
86
145
126
28
43
114
120
92
122
21
7
79
97
82
118
32
128
36
102
70
132
124
100
137
13
19
73
35
42
108
81
37
75
14
135
95
131
33
93
129
143
20
84
52
38
69
109
51
123
78
15
5
27
127
83
34
31
47
25
96
112
110
103
29
77
117
116
55
48
76
59
85
134
136
111
17
144
49
4
40
24
105
8
50
53
115
147
141
130
101
56
22
133
88
94
74
99
23
89
125
6
67
63
12
57
41
11
80
65
87
26
107
104
18
138
44
71
113
10
139
68
146
62
46
45
91
3
9
54
121
2
58

>  <PUBCHEM_MMFF94_PARTIAL_CHARGES>  (1) 
20
1 -0.24
10 -0.15
11 -0.15
12 -0.15
13 -0.15
14 0.58
15 0.3
16 0.23
17 0.15
18 0.15
19 0.15
2 -0.22
20 0.15
3 -0.38
4 -0.52
5 -0.52
6 -0.37
7 0.91
8 0.1
9 0.13

>  <PUBCHEM_EFFECTIVE_ROTOR_COUNT>  (1) 
5

>  <PUBCHEM_PHARMACOPHORE_FEATURES>  (1) 
5
1 3 acceptor
1 4 acceptor
1 4 anion
1 5 acceptor
6 8 9 10 11 12 13 rings

>  <PUBCHEM_HEAVY_ATOM_COUNT>  (1) 
16

>  <PUBCHEM_ATOM_DEF_STEREO_COUNT>  (1) 
0

>  <PUBCHEM_ATOM_UDEF_STEREO_COUNT>  (1) 
0

>  <PUBCHEM_BOND_DEF_STEREO_COUNT>  (1) 
0

>  <PUBCHEM_BOND_UDEF_STEREO_COUNT>  (1) 
0

>  <PUBCHEM_ISOTOPIC_ATOM_COUNT>  (1) 
0

>  <PUBCHEM_COMPONENT_COUNT>  (1) 
1

>  <PUBCHEM_CACTVS_TAUTO_COUNT>  (1) 
1

>  <PUBCHEM_CONFORMER_ID>  (1) 
0000B86600000001

>  <PUBCHEM_MMFF94_ENERGY>  (1) 
59.7046

>  <PUBCHEM_FEATURE_SELFOVERLAP>  (1) 
25.452

>  <PUBCHEM_SHAPE_FINGERPRINT>  (1) 
10608611 8 18271806766194226884
11132069 177 18409170978318456668
12173636 292 18266739086836738789
13538477 17 18115582638991382006
13764800 53 18200589185780614521
14420673 8 17832138326147222786
14787075 74 17753608245967311354
15375462 189 17894636950274647579
15775835 57 18189335671849648920
16945 1 18337678507566484229
18186145 218 17703518688336686198
192875 21 16732979843112734396
20510252 161 18343585122806746515
20645477 56 18339929194862352820
20671657 1 17905890271143431938
20871998 184 18343586218245115591
22802520 49 17915470389218394046
23236772 104 17968106295604233899
23402539 116 18342166787509954599
23419403 2 17901076914237664701
23526113 38 17488736753713468002
23557571 272 18343309184343521564
23559900 14 18198626527845443854
23598294 1 18335986372235606451
2748010 2 18340480175158749181
6049 1 17988373572270128220
7097593 13 17609762111786336642
77492 1 17604160245913053766
81228 2 18335435538310904991
90316 7 17895755089017863620

>  <PUBCHEM_SHAPE_MULTIPOLES>  (1) 
319.12
7.08
2.43
1.3
4.74
0.78
0.04
0.6
1.07
-2.03
0.1
1.22
-0.31
0.36

>  <PUBCHEM_SHAPE_SELFOVERLAP>  (1) 
612.885

>  <PUBCHEM_SHAPE_VOLUME>  (1) 
198.1

>  <PUBCHEM_COORDINATE_TYPE>  (1) 
2
5
10

$$$$
