47201
     RDKit          3D

 22 22  0  0  1  0  0  0  0  0999 V2000
   -4.9417   -3.1088    1.2124 Cl  0  0  0  0  0  0  0  0  0  0  0  0
   -0.2003    0.0710   -2.1312 O   0  0  0  0  0  0  0  0  0  0  0  0
    1.9657    0.2913    0.5676 N   0  0  0  0  0  0  0  0  0  0  0  0
   -0.1316    1.4448    0.4328 N   0  0  0  0  0  0  0  0  0  0  0  0
    0.0910   -0.5493   -0.8861 C   0  0  0  0  0  0  0  0  0  0  0  0
    0.6710    0.4799    0.1046 C   0  0  0  0  0  0  0  0  0  0  0  0
    2.8671   -0.7827    0.2270 C   0  0  0  0  0  0  0  0  0  0  0  0
    4.2211   -0.5883    0.9039 C   0  0  0  0  0  0  0  0  0  0  0  0
   -1.1732   -1.1927   -0.3599 C   0  0  0  0  0  0  0  0  0  0  0  0
    5.2279   -1.6807    0.5344 C   0  0  0  0  0  0  0  0  0  0  0  0
    0.3531    2.4445    1.3734 C   0  0  0  0  0  0  0  0  0  0  0  0
   -0.7499    3.4546    1.6696 C   0  0  0  0  0  0  0  0  0  0  0  0
   -1.2002    4.2126    0.4187 C   0  0  0  0  0  0  0  0  0  0  0  0
   -2.4144   -0.6192   -0.6356 C   0  0  0  0  0  0  0  0  0  0  0  0
   -1.0974   -2.3585    0.4024 C   0  0  0  0  0  0  0  0  0  0  0  0
    6.5849   -1.4236    1.1712 C   0  0  0  0  0  0  0  0  0  0  0  0
    0.9790    0.2906   -2.8934 C   0  0  0  0  0  0  0  0  0  0  0  0
   -2.3096    5.2026    0.7385 C   0  0  0  0  0  0  0  0  0  0  0  0
   -3.5799   -1.2114   -0.1492 C   0  0  0  0  0  0  0  0  0  0  0  0
   -2.2627   -2.9506    0.8889 C   0  0  0  0  0  0  0  0  0  0  0  0
   -3.5040   -2.3772    0.6131 C   0  0  0  0  0  0  0  0  0  0  0  0
    0.6039    0.9510   -4.2030 C   0  0  0  0  0  0  0  0  0  0  0  0
  1 21  1  0
  2  5  1  0
  2 17  1  0
  3  6  1  0
  3  7  1  0
  4  6  2  0
  4 11  1  0
  5  6  1  0
  5  9  1  0
  7  8  1  0
  8 10  1  0
  9 14  2  0
  9 15  1  0
 10 16  1  0
 11 12  1  0
 12 13  1  0
 13 18  1  0
 14 19  1  0
 15 20  2  0
 17 22  1  0
 19 21  2  0
 20 21  1  0
M  END
>  <PUBCHEM_COMPOUND_CID>  (1) 
47201

>  <PUBCHEM_CONFORMER_RMSD>  (1) 
1

>  <PUBCHEM_CONFORMER_DIVERSEORDER>  (1) 
1
132
60
129
102
72
112
127
105
53
103
88
69
115
24
84
35
74
131
95
28
6
90
85
89
114
126
124
83
135
137
109
93
63
14
110
76
39
55
64
59
47
138
10
113
27
87
21
13
107
133
34
71
121
37
65
130
2
73
54
98
78
3
29
86
120
82
9
11
100
58
18
30
99
122
38
56
80
134
101
17
48
26
23
57
79
106
81
50
62
61
12
108
67
92
77
15
68
94
16
118
40
96
128
111
125
36
75
33
104
70
5
136
43
91
46
31
41
66
49
45
42
25
7
97
117
20
116
52
123
22
32
44
19
8
51
119
4

>  <PUBCHEM_MMFF94_PARTIAL_CHARGES>  (1) 
20
1 -0.18
11 0.25
14 -0.15
15 -0.15
17 0.28
19 -0.15
2 -0.56
20 -0.15
21 0.18
28 0.4
3 -0.82
37 0.15
38 0.15
4 -0.7
47 0.15
48 0.15
5 0.48
6 0.44
7 0.37
9 -0.14

>  <PUBCHEM_EFFECTIVE_ROTOR_COUNT>  (1) 
11

>  <PUBCHEM_PHARMACOPHORE_FEATURES>  (1) 
6
1 16 hydrophobe
1 18 hydrophobe
1 2 acceptor
1 3 donor
3 3 4 6 cation
6 9 14 15 19 20 21 rings

>  <PUBCHEM_HEAVY_ATOM_COUNT>  (1) 
22

>  <PUBCHEM_ATOM_DEF_STEREO_COUNT>  (1) 
0

>  <PUBCHEM_ATOM_UDEF_STEREO_COUNT>  (1) 
1

>  <PUBCHEM_BOND_DEF_STEREO_COUNT>  (1) 
0

>  <PUBCHEM_BOND_UDEF_STEREO_COUNT>  (1) 
0

>  <PUBCHEM_ISOTOPIC_ATOM_COUNT>  (1) 
0

>  <PUBCHEM_COMPONENT_COUNT>  (1) 
1

>  <PUBCHEM_CACTVS_TAUTO_COUNT>  (1) 
1

>  <PUBCHEM_CONFORMER_ID>  (1) 
0000B86100000001

>  <PUBCHEM_MMFF94_ENERGY>  (1) 
33.3858

>  <PUBCHEM_FEATURE_SELFOVERLAP>  (1) 
30.446

>  <PUBCHEM_SHAPE_FINGERPRINT>  (1) 
12082328 90 18342175511569889806
12788726 201 18339654394839560346
13009979 54 18113911480370656663
13052359 8 18196091036530351800
13134695 92 18196365042769489263
14863182 85 16242088905290464674
14866123 147 18051409570007038850
15878777 1 13067899024354710476
17980427 26 17261868266045529916
20600515 1 17988095498496533611
23352939 185 17749111127751546046
23559900 14 17678167415875373967
23598288 3 18272927190392592692
3759504 43 18053094022210980144
4409770 3 18337948966347940553
497634 4 18260265210492655790
56616090 278 17476385145409473465
57527573 199 18127131875382135245
59755656 520 17906164054471759160
621550 5 18041828631761348556
7226269 152 18339070489434850585
77188 2 18266739258440368817
9841814 1 17911545373325856219

>  <PUBCHEM_SHAPE_MULTIPOLES>  (1) 
438.79
8.78
5.55
2.57
12.88
9.11
-4.42
-11.43
5.67
-6.95
3.73
1.01
1.3
-0.43

>  <PUBCHEM_SHAPE_SELFOVERLAP>  (1) 
851.917

>  <PUBCHEM_SHAPE_VOLUME>  (1) 
266.4

>  <PUBCHEM_COORDINATE_TYPE>  (1) 
2
5
10

$$$$
