47214
     RDKit          3D

 17 17  0  0  0  0  0  0  0  0999 V2000
    1.7659    0.4992    0.8795 O   0  0  0  0  0  0  0  0  0  0  0  0
    2.1882    0.8578   -1.3786 O   0  0  0  0  0  0  0  0  0  0  0  0
    0.5781   -1.9695    0.2346 N   0  0  0  0  0  0  0  0  0  0  0  0
   -3.6723    0.3159   -0.2776 N   0  0  0  0  0  0  0  0  0  0  0  0
    3.9247    0.7709    0.1572 N   0  0  0  0  0  0  0  0  0  0  0  0
   -0.1740   -0.7752    0.2708 C   0  0  0  0  0  0  0  0  0  0  0  0
   -2.2930    0.3569    0.0136 C   0  0  0  0  0  0  0  0  0  0  0  0
   -1.5380   -0.8157   -0.0185 C   0  0  0  0  0  0  0  0  0  0  0  0
    0.4349    0.4380    0.5921 C   0  0  0  0  0  0  0  0  0  0  0  0
   -1.6841    1.5699    0.3350 C   0  0  0  0  0  0  0  0  0  0  0  0
   -0.3202    1.6105    0.6242 C   0  0  0  0  0  0  0  0  0  0  0  0
    0.6715   -2.7394   -0.9889 C   0  0  0  0  0  0  0  0  0  0  0  0
    1.2764   -2.4313    1.4169 C   0  0  0  0  0  0  0  0  0  0  0  0
   -4.5801    1.2657    0.3344 C   0  0  0  0  0  0  0  0  0  0  0  0
   -4.1981   -0.6676   -1.2034 C   0  0  0  0  0  0  0  0  0  0  0  0
    2.6015    0.7251   -0.2305 C   0  0  0  0  0  0  0  0  0  0  0  0
    5.0186    0.9889   -0.7606 C   0  0  0  0  0  0  0  0  0  0  0  0
  1  9  1  0
  1 16  1  0
  2 16  2  0
  3  6  1  0
  3 12  1  0
  3 13  1  0
  4  7  1  0
  4 14  1  0
  4 15  1  0
  5 16  1  0
  5 17  1  0
  6  8  2  0
  6  9  1  0
  7  8  1  0
  7 10  2  0
  9 11  2  0
 10 11  1  0
M  END
>  <PUBCHEM_COMPOUND_CID>  (1) 
47214

>  <PUBCHEM_CONFORMER_RMSD>  (1) 
0.6

>  <PUBCHEM_CONFORMER_DIVERSEORDER>  (1) 
1
16
39
45
12
29
47
3
17
41
37
42
48
22
34
36
15
27
38
24
13
26
23
43
25
2
5
30
40
14
6
10
33
31
4
19
18
32
7
8
46
28
44
21
11
20
35
9

>  <PUBCHEM_MMFF94_PARTIAL_CHARGES>  (1) 
21
1 -0.23
10 -0.15
11 -0.15
12 0.37
13 0.37
14 0.37
15 0.37
16 0.78
17 0.3
18 0.15
19 0.15
2 -0.57
20 0.15
3 -0.84
33 0.37
4 -0.84
5 -0.73
6 0.1
7 0.1
8 -0.15
9 0.08

>  <PUBCHEM_EFFECTIVE_ROTOR_COUNT>  (1) 
5

>  <PUBCHEM_PHARMACOPHORE_FEATURES>  (1) 
5
1 2 acceptor
1 3 cation
1 4 cation
1 5 donor
6 6 7 8 9 10 11 rings

>  <PUBCHEM_HEAVY_ATOM_COUNT>  (1) 
17

>  <PUBCHEM_ATOM_DEF_STEREO_COUNT>  (1) 
0

>  <PUBCHEM_ATOM_UDEF_STEREO_COUNT>  (1) 
0

>  <PUBCHEM_BOND_DEF_STEREO_COUNT>  (1) 
0

>  <PUBCHEM_BOND_UDEF_STEREO_COUNT>  (1) 
0

>  <PUBCHEM_ISOTOPIC_ATOM_COUNT>  (1) 
0

>  <PUBCHEM_COMPONENT_COUNT>  (1) 
1

>  <PUBCHEM_CACTVS_TAUTO_COUNT>  (1) 
2

>  <PUBCHEM_CONFORMER_ID>  (1) 
0000B86E00000001

>  <PUBCHEM_MMFF94_ENERGY>  (1) 
78.8269

>  <PUBCHEM_FEATURE_SELFOVERLAP>  (1) 
25.371

>  <PUBCHEM_SHAPE_FINGERPRINT>  (1) 
10726558 24 18410299116003285846
10756046 5 17983022154203282124
10980938 120 18341607075887637843
12119455 92 17167856491396644492
12251169 10 7853570201538141181
12592029 89 18040999514426936770
12644460 14 18189621544572021963
13380535 76 18407478860072561083
14181834 199 18118124671558074982
14911166 2 18341611559390668965
14993402 34 18187645842626221100
15207287 21 17561091336498081356
15775835 57 18411418414461082928
16945 1 18272379693124607265
18186145 218 18341885333549313049
187816 3 18202007654986842280
200 152 14476973280765137804
20645476 183 17750233776046489362
20645477 70 18267013961113334063
20871999 31 18196374938442782540
21296965 67 10591769761695442218
21501502 16 18195804072949108657
21524375 3 18335422387189564384
21637258 2 15123504813578822901
22713019 99 18060140980921371750
23114952 82 18046330943193916901
231179 274 17313095345832805853
23366157 5 17971480593816548186
23402539 116 18272930540066267644
23402655 69 18342452596150838621
23419403 2 17616589099647511698
23559900 14 17841142260440360702
25147074 1 18198054786331233905
2748010 2 17979064217802924721
298252 57 18261395589480520160
3071541 37 18335420123483473130
34934 24 18272370828829326125
366044 4 18411139160235548474
3759504 43 17895478149726759042
4990 188 17703792526286616125
58051976 378 18260267439037272285
6138700 20 18266466395907366590
633830 44 18130498725577579413
69090 78 18201156641629262116
7364860 26 18198906898751840894
81228 2 17544746193664967307
81539 233 18113335288964509410

>  <PUBCHEM_SHAPE_MULTIPOLES>  (1) 
323.17
7.67
2.36
1.11
0.03
1.8
0.06
-3.82
2.36
0.71
-0.18
0.26
0.35
-0.93

>  <PUBCHEM_SHAPE_SELFOVERLAP>  (1) 
655.589

>  <PUBCHEM_SHAPE_VOLUME>  (1) 
189.2

>  <PUBCHEM_COORDINATE_TYPE>  (1) 
2
5
10

$$$$
