47218
     RDKit          3D

 15 15  0  0  0  0  0  0  0  0999 V2000
   -1.4013    2.8721    0.0552 Cl  0  0  0  0  0  0  0  0  0  0  0  0
   -1.5573   -0.0014    0.9265 O   0  0  0  0  0  0  0  0  0  0  0  0
   -2.0954   -0.6076   -1.2527 O   0  0  0  0  0  0  0  0  0  0  0  0
    3.0359   -1.0542   -0.0038 N   0  0  0  0  0  0  0  0  0  0  0  0
   -3.6151   -0.9048    0.4748 N   0  0  0  0  0  0  0  0  0  0  0  0
    1.9755   -0.1247    0.0134 C   0  0  0  0  0  0  0  0  0  0  0  0
    0.7139   -0.5133    0.4646 C   0  0  0  0  0  0  0  0  0  0  0  0
    2.1878    1.1836   -0.4217 C   0  0  0  0  0  0  0  0  0  0  0  0
   -0.3349    0.4062    0.4814 C   0  0  0  0  0  0  0  0  0  0  0  0
    4.4045   -0.6100    0.1710 C   0  0  0  0  0  0  0  0  0  0  0  0
    2.7700   -2.4679   -0.1826 C   0  0  0  0  0  0  0  0  0  0  0  0
    1.1388    2.1031   -0.4052 C   0  0  0  0  0  0  0  0  0  0  0  0
   -0.1224    1.7144    0.0466 C   0  0  0  0  0  0  0  0  0  0  0  0
   -2.4066   -0.5204   -0.0685 C   0  0  0  0  0  0  0  0  0  0  0  0
   -4.6932   -1.4751   -0.2990 C   0  0  0  0  0  0  0  0  0  0  0  0
  1 13  1  0
  2  9  1  0
  2 14  1  0
  3 14  2  0
  4  6  1  0
  4 10  1  0
  4 11  1  0
  5 14  1  0
  5 15  1  0
  6  7  2  0
  6  8  1  0
  7  9  1  0
  8 12  2  0
  9 13  2  0
 12 13  1  0
M  END
>  <PUBCHEM_COMPOUND_CID>  (1) 
47218

>  <PUBCHEM_CONFORMER_RMSD>  (1) 
0.6

>  <PUBCHEM_CONFORMER_DIVERSEORDER>  (1) 
3
29
22
41
36
39
28
16
20
34
25
15
40
32
18
24
38
33
26
30
23
1
21
37
31
13
17
14
35
27
4
19
12
11
7
10
8
6
2
9
5

>  <PUBCHEM_MMFF94_PARTIAL_CHARGES>  (1) 
19
1 -0.18
10 0.37
11 0.37
12 -0.15
13 0.18
14 0.78
15 0.3
16 0.15
17 0.15
2 -0.23
24 0.15
25 0.37
3 -0.57
4 -0.84
5 -0.73
6 0.1
7 -0.15
8 -0.15
9 0.08

>  <PUBCHEM_EFFECTIVE_ROTOR_COUNT>  (1) 
4

>  <PUBCHEM_PHARMACOPHORE_FEATURES>  (1) 
4
1 3 acceptor
1 4 cation
1 5 donor
6 6 7 8 9 12 13 rings

>  <PUBCHEM_HEAVY_ATOM_COUNT>  (1) 
15

>  <PUBCHEM_ATOM_DEF_STEREO_COUNT>  (1) 
0

>  <PUBCHEM_ATOM_UDEF_STEREO_COUNT>  (1) 
0

>  <PUBCHEM_BOND_DEF_STEREO_COUNT>  (1) 
0

>  <PUBCHEM_BOND_UDEF_STEREO_COUNT>  (1) 
0

>  <PUBCHEM_ISOTOPIC_ATOM_COUNT>  (1) 
0

>  <PUBCHEM_COMPONENT_COUNT>  (1) 
1

>  <PUBCHEM_CACTVS_TAUTO_COUNT>  (1) 
2

>  <PUBCHEM_CONFORMER_ID>  (1) 
0000B87200000003

>  <PUBCHEM_MMFF94_ENERGY>  (1) 
51.7094

>  <PUBCHEM_FEATURE_SELFOVERLAP>  (1) 
20.297

>  <PUBCHEM_SHAPE_FINGERPRINT>  (1) 
10618630 7 18411420583424959030
11471102 20 18263361546056192413
11578080 2 17774140371544237497
116883 192 18339362951043536029
11806522 49 18408886248204681626
14178342 30 18193828242143194522
14251717 144 18337391642337375026
14576447 43 18126565858573982599
15477762 27 18409730685735190594
16945 1 18264219156683992976
18186145 218 17458337572530359859
19422 9 18342183305938051643
200 152 18408601469955151534
20645477 70 18262796397343668867
20671657 53 18114178618777967292
20871998 184 18129379298170257588
20871998 22 18341901744766693430
21296965 67 18411416202521276945
21501502 16 18335712602583582164
21501925 9 18410571803677343152
221490 88 17973731564722858851
22802520 49 18114164346665414525
23388829 49 18411980265367074180
23402539 116 18335133159897358178
23419403 2 17682634658836633740
23557571 272 18200037227339307742
2748010 2 18337390414377616012
54173680 148 18194403277549420144
69090 78 17978789008735547512
7364860 26 18268710687411037832
81228 2 18261679151416204384
83771 10 18413669110478670610

>  <PUBCHEM_SHAPE_MULTIPOLES>  (1) 
288.86
6.96
2.65
0.8
2.39
1.21
0.05
-5.44
0.35
0.09
0.24
0.24
-0.03
-0.27

>  <PUBCHEM_SHAPE_SELFOVERLAP>  (1) 
582.029

>  <PUBCHEM_SHAPE_VOLUME>  (1) 
171.6

>  <PUBCHEM_COORDINATE_TYPE>  (1) 
2
5
10

$$$$
