47229
     RDKit          3D

 18 18  0  0  1  0  0  0  0  0999 V2000
    3.5903    0.3208   -0.8092 O   0  0  0  0  0  0  0  0  0  0  0  0
    3.6157   -0.6841    1.2873 O   0  0  0  0  0  0  0  0  0  0  0  0
   -4.7417   -0.6748   -0.1655 N   0  0  0  0  0  0  0  0  0  0  0  0
    5.5891   -0.3023    0.1290 N   0  0  0  0  0  0  0  0  0  0  0  0
   -4.1456    0.0845    0.9340 C   0  0  0  0  0  0  0  0  0  0  0  0
   -2.6083    0.0700    0.8418 C   0  0  0  0  0  0  0  0  0  0  0  0
   -2.0315    0.6443   -0.4610 C   0  0  0  0  0  0  0  0  0  0  0  0
   -4.6684    1.5211    0.9062 C   0  0  0  0  0  0  0  0  0  0  0  0
   -0.5289    0.5576   -0.5537 C   0  0  0  0  0  0  0  0  0  0  0  0
   -6.1982   -0.6969   -0.0397 C   0  0  0  0  0  0  0  0  0  0  0  0
   -4.2096   -2.0364   -0.1930 C   0  0  0  0  0  0  0  0  0  0  0  0
    0.2442    1.6047   -0.0757 C   0  0  0  0  0  0  0  0  0  0  0  0
    0.0543   -0.5675   -1.1162 C   0  0  0  0  0  0  0  0  0  0  0  0
    1.6341    1.5246   -0.1625 C   0  0  0  0  0  0  0  0  0  0  0  0
    1.4442   -0.6476   -1.2028 C   0  0  0  0  0  0  0  0  0  0  0  0
    2.2341    0.3984   -0.7260 C   0  0  0  0  0  0  0  0  0  0  0  0
    4.2211   -0.2676    0.3041 C   0  0  0  0  0  0  0  0  0  0  0  0
    6.5052   -0.8486    1.1030 C   0  0  0  0  0  0  0  0  0  0  0  0
  1 16  1  0
  1 17  1  0
  2 17  2  0
  3  5  1  0
  3 10  1  0
  3 11  1  0
  4 17  1  0
  4 18  1  0
  5  6  1  0
  5  8  1  0
  6  7  1  0
  7  9  1  0
  9 12  2  0
  9 13  1  0
 12 14  1  0
 13 15  2  0
 14 16  2  0
 15 16  1  0
M  END
>  <PUBCHEM_COMPOUND_CID>  (1) 
47229

>  <PUBCHEM_CONFORMER_RMSD>  (1) 
0.8

>  <PUBCHEM_CONFORMER_DIVERSEORDER>  (1) 
1
43
120
79
38
12
105
91
51
125
75
30
66
73
62
100
84
71
77
64
106
69
20
109
47
13
11
28
123
59
89
56
122
63
2
50
101
82
27
15
117
3
121
112
113
103
65
86
81
23
102
34
119
8
9
110
94
54
49
6
36
60
76
128
33
96
22
67
95
80
108
118
53
87
37
78
44
116
83
107
85
114
45
52
17
48
40
25
124
14
68
42
90
16
18
72
29
88
24
127
58
61
21
97
35
19
70
39
26
57
4
74
111
32
7
126
99
10
55
41
5
93
115
104
92
46
31
98

>  <PUBCHEM_MMFF94_PARTIAL_CHARGES>  (1) 
21
1 -0.23
10 0.27
11 0.27
12 -0.15
13 -0.15
14 -0.15
15 -0.15
16 0.08
17 0.78
18 0.3
2 -0.57
3 -0.81
33 0.15
34 0.15
35 0.15
36 0.15
37 0.37
4 -0.73
5 0.27
7 0.14
9 -0.14

>  <PUBCHEM_EFFECTIVE_ROTOR_COUNT>  (1) 
7

>  <PUBCHEM_PHARMACOPHORE_FEATURES>  (1) 
4
1 2 acceptor
1 3 cation
1 4 donor
6 9 12 13 14 15 16 rings

>  <PUBCHEM_HEAVY_ATOM_COUNT>  (1) 
18

>  <PUBCHEM_ATOM_DEF_STEREO_COUNT>  (1) 
0

>  <PUBCHEM_ATOM_UDEF_STEREO_COUNT>  (1) 
1

>  <PUBCHEM_BOND_DEF_STEREO_COUNT>  (1) 
0

>  <PUBCHEM_BOND_UDEF_STEREO_COUNT>  (1) 
0

>  <PUBCHEM_ISOTOPIC_ATOM_COUNT>  (1) 
0

>  <PUBCHEM_COMPONENT_COUNT>  (1) 
1

>  <PUBCHEM_CACTVS_TAUTO_COUNT>  (1) 
2

>  <PUBCHEM_CONFORMER_ID>  (1) 
0000B87D00000001

>  <PUBCHEM_MMFF94_ENERGY>  (1) 
44.5493

>  <PUBCHEM_FEATURE_SELFOVERLAP>  (1) 
20.297

>  <PUBCHEM_SHAPE_FINGERPRINT>  (1) 
10 15 17346309423835230306
100836 57 12031786981040630328
10354089 29 14908180859179559226
106641 1 18131063879249559378
11796584 16 17313106349702789203
12403259 118 17917716794669602569
12507557 5 17203612588400183145
12507560 40 16629974234947282645
12555020 224 17240481442404585843
12596602 18 18272929432133036682
12670543 26 11530757090231954912
12954195 1 14129605624178833758
13288520 33 17095242501404089165
13668630 136 16877944949186962147
13675066 3 17203616973197795277
13862211 1 18260266343615013314
14251752 14 11314298447853185768
14251764 18 18335426781147109433
14911166 2 11530487726973406740
15048467 5 11312056552028434634
15183329 4 14056992802380192713
15188451 53 18130498738836884999
15788980 27 17313105263360600741
17834072 8 14201114618002023355
17857418 61 18187361038770125243
17862501 102 18413109485114746991
18186145 218 12901830566580960493
18222031 100 18410866464225037580
19489759 90 18131070424948549433
19784866 240 16878229671385418070
200 152 17022903437011549868
20281389 69 13686296864244924546
20645477 56 15195282023561778404
20645477 70 16009033899209115232
20735858 18 17632857533599581007
20871999 31 13695861498340389606
21033648 29 16128367121845117131
21637258 2 17458334231161880832
22079108 93 16272203102676483566
22224240 67 17346310514182202726
22854114 59 17203331095705376765
23198884 109 9943806698579892074
23402539 116 18114180822228390565
23559900 14 16515974777714875052
25147074 1 17986382511384173220
26918003 58 18201722877464786311
2838139 119 13183011909294256738
2871803 45 15502370102556698866
2916195 48 15410892950838438250
29717793 49 16443347559491787446
347723 3 10953456332382564580
351380 3 17894629249319313938
3545911 37 14261351362440034852
3759504 43 10879698893258052828
4047638 21 13758361072337186020
465052 167 18333737943786677526
5104073 3 18199760304980523697
559249 180 18334574629908220755
59682541 35 16702014335836972243
633830 44 11819566998894561855
67856867 119 18199187467849466641
76465 3 18260545662459963175

>  <PUBCHEM_SHAPE_MULTIPOLES>  (1) 
348.73
14.48
1.49
1.14
3.91
0.05
0.08
-4.88
5.37
-1.31
0.02
0.62
-0.1
-0.97

>  <PUBCHEM_SHAPE_SELFOVERLAP>  (1) 
700.025

>  <PUBCHEM_SHAPE_VOLUME>  (1) 
205.4

>  <PUBCHEM_COORDINATE_TYPE>  (1) 
2
5
10

$$$$
