47227
     RDKit          3D

 18 18  0  0  1  0  0  0  0  0999 V2000
    2.9872   -0.0396   -0.9120 O   0  0  0  0  0  0  0  0  0  0  0  0
    3.0148   -0.8501    1.2671 O   0  0  0  0  0  0  0  0  0  0  0  0
   -3.9177   -1.2985   -0.3951 N   0  0  0  0  0  0  0  0  0  0  0  0
    4.4648   -1.6969   -0.3338 N   0  0  0  0  0  0  0  0  0  0  0  0
   -3.7962   -0.3381    0.7019 C   0  0  0  0  0  0  0  0  0  0  0  0
   -2.3487    0.1727    0.8272 C   0  0  0  0  0  0  0  0  0  0  0  0
   -1.7920    0.8584   -0.4297 C   0  0  0  0  0  0  0  0  0  0  0  0
   -4.7558    0.8293    0.4684 C   0  0  0  0  0  0  0  0  0  0  0  0
   -0.3526    1.2896   -0.3030 C   0  0  0  0  0  0  0  0  0  0  0  0
   -5.2836   -1.8147   -0.4726 C   0  0  0  0  0  0  0  0  0  0  0  0
   -2.9656   -2.3946   -0.2218 C   0  0  0  0  0  0  0  0  0  0  0  0
    0.6559    0.4125   -0.6717 C   0  0  0  0  0  0  0  0  0  0  0  0
   -0.0618    2.5562    0.1805 C   0  0  0  0  0  0  0  0  0  0  0  0
    1.9873    0.8115   -0.5542 C   0  0  0  0  0  0  0  0  0  0  0  0
    1.2695    2.9553    0.2980 C   0  0  0  0  0  0  0  0  0  0  0  0
    2.2941    2.0829   -0.0693 C   0  0  0  0  0  0  0  0  0  0  0  0
    3.4564   -0.8729    0.1220 C   0  0  0  0  0  0  0  0  0  0  0  0
    5.1440   -2.6629    0.4980 C   0  0  0  0  0  0  0  0  0  0  0  0
  1 14  1  0
  1 17  1  0
  2 17  2  0
  3  5  1  0
  3 10  1  0
  3 11  1  0
  4 17  1  0
  4 18  1  0
  5  6  1  0
  5  8  1  0
  6  7  1  0
  7  9  1  0
  9 12  2  0
  9 13  1  0
 12 14  1  0
 13 15  2  0
 14 16  2  0
 15 16  1  0
M  END
>  <PUBCHEM_COMPOUND_CID>  (1) 
47227

>  <PUBCHEM_CONFORMER_RMSD>  (1) 
0.8

>  <PUBCHEM_CONFORMER_DIVERSEORDER>  (1) 
1
75
157
186
135
243
113
99
98
88
240
128
220
256
120
126
190
184
46
148
239
301
225
271
159
284
155
252
63
192
277
117
302
179
267
268
162
280
69
287
242
195
172
177
42
22
233
139
187
230
264
245
199
175
197
35
123
241
125
37
147
298
306
255
283
273
140
274
132
78
304
174
188
153
127
167
109
299
93
297
83
272
27
62
106
13
262
222
154
85
250
185
51
196
116
124
44
20
56
171
308
134
45
30
26
164
191
180
248
119
208
130
6
307
52
105
161
49
10
5
205
142
19
176
141
169
104
73
217
17
257
97
198
254
181
21
293
77
165
260
206
160
224
57
266
101
278
36
74
129
178
111
213
288
214
158
216
253
152
64
54
234
32
4
211
3
263
100
210
200
166
47
251
227
289
137
183
122
108
82
87
68
7
33
249
103
221
67
24
133
292
193
14
156
209
228
218
163
65
231
92
89
16
286
28
43
29
53
25
60
149
31
226
12
202
72
235
121
232
168
281
300
102
291
212
90
79
114
9
247
61
204
145
118
182
144
236
34
8
282
201
71
173
70
275
38
59
81
58
189
11
276
265
296
15
303
66
96
203
238
246
258
261
285
294
305
41
146
91
170
295
80
150
194
112
223
110
18
76
138
107
259
48
143
84
151
229
279
219
237
270
86
50
55
269
290
40
136
95
244
2
131
115
215
39
94
23
207

>  <PUBCHEM_MMFF94_PARTIAL_CHARGES>  (1) 
21
1 -0.23
10 0.27
11 0.27
12 -0.15
13 -0.15
14 0.08
15 -0.15
16 -0.15
17 0.78
18 0.3
2 -0.57
3 -0.81
33 0.15
34 0.15
35 0.15
36 0.15
37 0.37
4 -0.73
5 0.27
7 0.14
9 -0.14

>  <PUBCHEM_EFFECTIVE_ROTOR_COUNT>  (1) 
7

>  <PUBCHEM_PHARMACOPHORE_FEATURES>  (1) 
4
1 2 acceptor
1 3 cation
1 4 donor
6 9 12 13 14 15 16 rings

>  <PUBCHEM_HEAVY_ATOM_COUNT>  (1) 
18

>  <PUBCHEM_ATOM_DEF_STEREO_COUNT>  (1) 
0

>  <PUBCHEM_ATOM_UDEF_STEREO_COUNT>  (1) 
1

>  <PUBCHEM_BOND_DEF_STEREO_COUNT>  (1) 
0

>  <PUBCHEM_BOND_UDEF_STEREO_COUNT>  (1) 
0

>  <PUBCHEM_ISOTOPIC_ATOM_COUNT>  (1) 
0

>  <PUBCHEM_COMPONENT_COUNT>  (1) 
1

>  <PUBCHEM_CACTVS_TAUTO_COUNT>  (1) 
2

>  <PUBCHEM_CONFORMER_ID>  (1) 
0000B87B00000001

>  <PUBCHEM_MMFF94_ENERGY>  (1) 
44.4625

>  <PUBCHEM_FEATURE_SELFOVERLAP>  (1) 
20.297

>  <PUBCHEM_SHAPE_FINGERPRINT>  (1) 
11405975 8 18342464768214775825
12107183 9 18269847419600012745
12553582 1 18262228928625638666
12555020 224 18409721851662572991
12596599 1 18059032621471360787
12633257 1 18272385143891890369
13103583 49 18130798797593383481
13167823 11 18339645646028192459
13533116 47 18268146642705095051
13955234 65 18053105309058187905
14178342 30 17773613636759634793
14251764 30 17916033361237872510
14787075 74 18260831531847711216
15042514 8 18051415067870800956
15163728 17 10087345807620228146
15188451 53 17417799661236123863
15352361 1 18410292484653311278
15442244 35 18341336673231374469
17492 89 18195246839640018707
18186145 218 14490478624907109645
18222031 100 18131637776647480332
20281475 54 18409733979985740845
20291156 8 18335983082311659058
20621476 51 18201711890675414111
20621476 91 18338780236125652042
20626108 58 18271518788579040395
20645477 70 18262796388558094333
20832881 197 18334581205018088473
21033648 29 15123237585103526561
21250096 35 18409449171887223739
221490 88 18191595348211296867
2255824 54 18192438690873357212
23559900 14 18341044216118331121
314194 84 18335993020871471282
33824 294 18122906692118655153
3421961 26 18412542145683858168
351380 3 18114467764366276594
463206 1 18261396615614590650
5104073 3 18130235955805286235
559249 180 18044376024320372841
5902787 121 18412547617161002372
633830 44 17022622013769898325
76465 3 18410572885813916255
7808743 9 9366759889900421150
7970288 3 18410008793516297550
88748 71 18335146439978818899
960060 61 17895198834775440743
9709674 26 18192152818329812923

>  <PUBCHEM_SHAPE_MULTIPOLES>  (1) 
348.73
10.73
3.22
0.89
2.73
0.15
-0.08
-10.04
-0.75
-2.09
-0.18
-0.08
-0.08
-0.97

>  <PUBCHEM_SHAPE_SELFOVERLAP>  (1) 
699.984

>  <PUBCHEM_SHAPE_VOLUME>  (1) 
205.1

>  <PUBCHEM_COORDINATE_TYPE>  (1) 
2
5
10

$$$$
