47237
     RDKit          3D

 13 14  0  0  0  0  0  0  0  0999 V2000
    3.4931   -0.0205    0.5636 O   0  0  0  0  0  0  0  0  0  0  0  0
    2.5002    1.7541   -0.4828 O   0  0  0  0  0  0  0  0  0  0  0  0
   -0.0153    0.1299   -0.0042 C   0  0  0  0  0  0  0  0  0  0  0  0
   -0.7675   -1.1291   -0.0439 C   0  0  0  0  0  0  0  0  0  0  0  0
    1.2850   -0.2410   -0.0433 C   0  0  0  0  0  0  0  0  0  0  0  0
    0.1772   -2.2296   -0.1067 C   0  0  0  0  0  0  0  0  0  0  0  0
    1.4015   -1.6875   -0.1061 C   0  0  0  0  0  0  0  0  0  0  0  0
   -0.5189    1.4807    0.0632 C   0  0  0  0  0  0  0  0  0  0  0  0
   -2.0958   -1.3001   -0.0286 C   0  0  0  0  0  0  0  0  0  0  0  0
   -1.8037    1.8593    0.1012 C   0  0  0  0  0  0  0  0  0  0  0  0
   -3.1216   -0.2858    0.0303 C   0  0  0  0  0  0  0  0  0  0  0  0
    2.4626    0.6227   -0.0275 C   0  0  0  0  0  0  0  0  0  0  0  0
   -2.9968    1.0469    0.0848 C   0  0  0  0  0  0  0  0  0  0  0  0
  1 12  1  0
  2 12  2  0
  3  4  1  0
  3  5  2  0
  3  8  1  0
  4  6  1  0
  4  9  2  0
  5  7  1  0
  5 12  1  0
  6  7  2  0
  8 10  2  0
  9 11  1  0
 10 13  1  0
 11 13  2  0
M  END
>  <PUBCHEM_COMPOUND_CID>  (1) 
47237

>  <PUBCHEM_CONFORMER_RMSD>  (1) 
0.4

>  <PUBCHEM_CONFORMER_DIVERSEORDER>  (1) 
1
3
2

>  <PUBCHEM_MMFF94_PARTIAL_CHARGES>  (1) 
19
1 -0.65
10 -0.15
11 -0.15
12 0.71
13 -0.15
14 0.15
15 0.15
16 0.15
17 0.15
18 0.15
19 0.15
2 -0.57
20 0.15
21 0.5
5 0.01
6 -0.15
7 -0.15
8 -0.15
9 -0.15

>  <PUBCHEM_EFFECTIVE_ROTOR_COUNT>  (1) 
1

>  <PUBCHEM_PHARMACOPHORE_FEATURES>  (1) 
5
1 1 acceptor
1 2 acceptor
3 1 2 12 anion
5 3 4 5 6 7 rings
7 3 4 8 9 10 11 13 rings

>  <PUBCHEM_HEAVY_ATOM_COUNT>  (1) 
13

>  <PUBCHEM_ATOM_DEF_STEREO_COUNT>  (1) 
0

>  <PUBCHEM_ATOM_UDEF_STEREO_COUNT>  (1) 
0

>  <PUBCHEM_BOND_DEF_STEREO_COUNT>  (1) 
0

>  <PUBCHEM_BOND_UDEF_STEREO_COUNT>  (1) 
0

>  <PUBCHEM_ISOTOPIC_ATOM_COUNT>  (1) 
0

>  <PUBCHEM_COMPONENT_COUNT>  (1) 
1

>  <PUBCHEM_CACTVS_TAUTO_COUNT>  (1) 
1

>  <PUBCHEM_CONFORMER_ID>  (1) 
0000B88500000001

>  <PUBCHEM_MMFF94_ENERGY>  (1) 
55.0809

>  <PUBCHEM_FEATURE_SELFOVERLAP>  (1) 
25.456

>  <PUBCHEM_SHAPE_FINGERPRINT>  (1) 
10967382 1 18411138026052945911
11132069 177 18412820300328998257
12696612 119 18263363599050598846
13380535 76 18410570656668172603
13897977 150 18338515244816470477
14325111 11 18410856559724399976
14614273 12 18334287635413374725
15775835 57 18272374139874305281
16945 1 18337395937404709439
193761 8 18050849922819637783
19973954 147 18267588996519014275
20510252 161 18272092763513206568
21501502 16 18339922589355580387
22344851 341 18265895748359434859
22802520 49 18128842796504262318
2334 1 18338800146749542565
23402539 116 18199173148016740111
23402655 69 18270385089644805653
23463225 33 18334853905302448168
23552423 10 18264773164462574527
23559900 14 18202006564819575068
2748010 2 18194686960276185343
528886 8 18411976987953625483
53812653 166 18273209798528318497
53812653 8 18264498449722073004
6333449 129 18341890801110713385
7364860 26 18127972992728565422

>  <PUBCHEM_SHAPE_MULTIPOLES>  (1) 
255.8
4.62
2.23
0.64
0.42
0.23
0
-1.31
-0.29
-0.03
0.12
0.06
-0.01
-0.14

>  <PUBCHEM_SHAPE_SELFOVERLAP>  (1) 
560.679

>  <PUBCHEM_SHAPE_VOLUME>  (1) 
137.1

>  <PUBCHEM_COORDINATE_TYPE>  (1) 
2
5
10

$$$$
