47235
     RDKit          3D

 18 18  0  0  0  0  0  0  0  0999 V2000
   -1.0878   -1.0491    0.8512 O   0  0  0  0  0  0  0  0  0  0  0  0
   -1.2480   -2.1191   -1.2069 O   0  0  0  0  0  0  0  0  0  0  0  0
   -1.8224    2.8480   -0.0784 N   0  0  0  0  0  0  0  0  0  0  0  0
    3.6243   -0.4655    0.0902 N   0  0  0  0  0  0  0  0  0  0  0  0
   -2.6592   -2.6904    0.5437 N   0  0  0  0  0  0  0  0  0  0  0  0
   -0.3153    0.9180   -0.2793 C   0  0  0  0  0  0  0  0  0  0  0  0
   -1.7198    1.4297   -0.4200 C   0  0  0  0  0  0  0  0  0  0  0  0
   -0.0680   -0.2973    0.3496 C   0  0  0  0  0  0  0  0  0  0  0  0
    2.2987    0.0001   -0.0340 C   0  0  0  0  0  0  0  0  0  0  0  0
    0.7327    1.6789   -0.7866 C   0  0  0  0  0  0  0  0  0  0  0  0
    1.2428   -0.7577    0.4727 C   0  0  0  0  0  0  0  0  0  0  0  0
    2.0439    1.2188   -0.6634 C   0  0  0  0  0  0  0  0  0  0  0  0
   -1.4047    3.0719    1.3051 C   0  0  0  0  0  0  0  0  0  0  0  0
   -3.1894    3.3256   -0.2833 C   0  0  0  0  0  0  0  0  0  0  0  0
    4.7246    0.4720    0.1947 C   0  0  0  0  0  0  0  0  0  0  0  0
    3.9019   -1.8875    0.1289 C   0  0  0  0  0  0  0  0  0  0  0  0
   -1.6379   -1.9789   -0.0514 C   0  0  0  0  0  0  0  0  0  0  0  0
   -3.4165   -3.7175   -0.1329 C   0  0  0  0  0  0  0  0  0  0  0  0
  1  8  1  0
  1 17  1  0
  2 17  2  0
  3  7  1  0
  3 13  1  0
  3 14  1  0
  4  9  1  0
  4 15  1  0
  4 16  1  0
  5 17  1  0
  5 18  1  0
  6  7  1  0
  6  8  2  0
  6 10  1  0
  8 11  1  0
  9 11  2  0
  9 12  1  0
 10 12  2  0
M  END
>  <PUBCHEM_COMPOUND_CID>  (1) 
47235

>  <PUBCHEM_CONFORMER_RMSD>  (1) 
0.8

>  <PUBCHEM_CONFORMER_DIVERSEORDER>  (1) 
2
5
16
30
31
8
38
24
39
35
23
36
33
34
18
26
12
11
28
7
29
3
4
25
27
6
14
13
21
15
19
32
20
22
17
37
1
10
9

>  <PUBCHEM_MMFF94_PARTIAL_CHARGES>  (1) 
22
1 -0.23
10 -0.15
11 -0.15
12 -0.15
13 0.27
14 0.27
15 0.37
16 0.37
17 0.78
18 0.3
2 -0.57
21 0.15
22 0.15
23 0.15
3 -0.81
36 0.37
4 -0.84
5 -0.73
6 -0.14
7 0.41
8 0.08
9 0.1

>  <PUBCHEM_EFFECTIVE_ROTOR_COUNT>  (1) 
6

>  <PUBCHEM_PHARMACOPHORE_FEATURES>  (1) 
5
1 2 acceptor
1 3 cation
1 4 cation
1 5 donor
6 6 8 9 10 11 12 rings

>  <PUBCHEM_HEAVY_ATOM_COUNT>  (1) 
18

>  <PUBCHEM_ATOM_DEF_STEREO_COUNT>  (1) 
0

>  <PUBCHEM_ATOM_UDEF_STEREO_COUNT>  (1) 
0

>  <PUBCHEM_BOND_DEF_STEREO_COUNT>  (1) 
0

>  <PUBCHEM_BOND_UDEF_STEREO_COUNT>  (1) 
0

>  <PUBCHEM_ISOTOPIC_ATOM_COUNT>  (1) 
0

>  <PUBCHEM_COMPONENT_COUNT>  (1) 
1

>  <PUBCHEM_CACTVS_TAUTO_COUNT>  (1) 
2

>  <PUBCHEM_CONFORMER_ID>  (1) 
0000B88300000002

>  <PUBCHEM_MMFF94_ENERGY>  (1) 
66.605

>  <PUBCHEM_FEATURE_SELFOVERLAP>  (1) 
25.371

>  <PUBCHEM_SHAPE_FINGERPRINT>  (1) 
11265709 11 18193561287876236066
11578080 2 17845644996979323977
116883 192 18411142450043789159
12532896 13 18195806263086868157
12553582 1 18120670277141756666
12788726 201 18335133228258373146
13052359 8 18337387137238291965
13134695 92 17906167713525523727
13140716 1 18339647870462575409
13955234 65 17185882138837717795
14178000 15 17979074109017642139
14178342 30 18335969910084766986
15042514 8 18336548213776098962
15309172 13 17975699385414447584
15906896 17 18342449301514894311
16945 1 18409740542505637548
19591789 44 17760086211706004358
201361 129 17263849078992473536
20510252 161 18342738468614923953
21041028 32 18192432085345251719
21296965 67 18194117645033752478
21478907 32 18408885157072557027
21501502 16 18260271871665321284
21524375 3 17974010552665292768
22112679 90 18125182647012704883
2255824 54 17114949344888503503
23402539 116 18199174118832492229
23419403 2 16964858194967140060
23557571 272 18343025493316699540
23558518 356 18260551138780532128
23559900 14 18269550534760509474
25147074 1 17968103040641756276
257057 1 18195247947519255497
283562 15 18262797492591796362
3091708 16 8986918213285286481
474229 33 18265616485982003777
54173680 148 18409729551631449574
68521 5 18337955700370999887
69090 78 18192427476956125820
7164475 11 18335987561899128582
7364860 26 17403458966981568819
81228 2 18260267481575508272
84936 182 16543566167800315865
9709674 26 18270961233358023438

>  <PUBCHEM_SHAPE_MULTIPOLES>  (1) 
343.75
6.49
4.52
0.91
6.42
1.12
-0.05
1.54
-0.23
-7.19
-0.17
-0.22
-0.22
-0.33

>  <PUBCHEM_SHAPE_SELFOVERLAP>  (1) 
696.026

>  <PUBCHEM_SHAPE_VOLUME>  (1) 
201.7

>  <PUBCHEM_COORDINATE_TYPE>  (1) 
2
5
10

$$$$
