4723
     RDKit          3D

 13 14  0  0  1  0  0  0  0  0999 V2000
    1.3847   -0.7917    0.8475 O   0  0  0  0  0  0  0  0  0  0  0  0
    0.9803    2.2988   -0.6638 O   0  0  0  0  0  0  0  0  0  0  0  0
    2.4673    0.5249   -0.6270 N   0  0  0  0  0  0  0  0  0  0  0  0
    3.3274   -1.6305   -0.0238 N   0  0  0  0  0  0  0  0  0  0  0  0
    0.6037    0.4056    0.7930 C   0  0  0  0  0  0  0  0  0  0  0  0
   -0.7891    0.0736    0.3751 C   0  0  0  0  0  0  0  0  0  0  0  0
    1.3427    1.2085   -0.2425 C   0  0  0  0  0  0  0  0  0  0  0  0
   -1.8365    0.9400    0.6885 C   0  0  0  0  0  0  0  0  0  0  0  0
   -1.0443   -1.1030   -0.3294 C   0  0  0  0  0  0  0  0  0  0  0  0
    2.4438   -0.5962    0.0120 C   0  0  0  0  0  0  0  0  0  0  0  0
   -3.1390    0.6298    0.2976 C   0  0  0  0  0  0  0  0  0  0  0  0
   -2.3469   -1.4131   -0.7203 C   0  0  0  0  0  0  0  0  0  0  0  0
   -3.3942   -0.5467   -0.4069 C   0  0  0  0  0  0  0  0  0  0  0  0
  1  5  1  0
  1 10  1  0
  2  7  2  0
  3  7  1  0
  3 10  2  0
  4 10  1  0
  5  6  1  0
  5  7  1  0
  6  8  2  0
  6  9  1  0
  8 11  1  0
  9 12  2  0
 11 13  2  0
 12 13  1  0
M  END
>  <PUBCHEM_COMPOUND_CID>  (1) 
4723

>  <PUBCHEM_CONFORMER_RMSD>  (1) 
0.4

>  <PUBCHEM_CONFORMER_DIVERSEORDER>  (1) 
2
1

>  <PUBCHEM_MMFF94_PARTIAL_CHARGES>  (1) 
20
1 -0.43
10 0.65
11 -0.15
12 -0.15
13 -0.15
15 0.15
16 0.15
17 0.15
18 0.15
19 0.15
2 -0.57
20 0.4
21 0.4
3 -0.66
4 -0.85
5 0.48
6 -0.14
7 0.72
8 -0.15
9 -0.15

>  <PUBCHEM_EFFECTIVE_ROTOR_COUNT>  (1) 
1.4

>  <PUBCHEM_PHARMACOPHORE_FEATURES>  (1) 
5
1 2 acceptor
1 3 donor
1 4 donor
5 1 3 5 7 10 rings
6 6 8 9 11 12 13 rings

>  <PUBCHEM_HEAVY_ATOM_COUNT>  (1) 
13

>  <PUBCHEM_ATOM_DEF_STEREO_COUNT>  (1) 
0

>  <PUBCHEM_ATOM_UDEF_STEREO_COUNT>  (1) 
1

>  <PUBCHEM_BOND_DEF_STEREO_COUNT>  (1) 
0

>  <PUBCHEM_BOND_UDEF_STEREO_COUNT>  (1) 
0

>  <PUBCHEM_ISOTOPIC_ATOM_COUNT>  (1) 
0

>  <PUBCHEM_COMPONENT_COUNT>  (1) 
1

>  <PUBCHEM_CACTVS_TAUTO_COUNT>  (1) 
3

>  <PUBCHEM_CONFORMER_ID>  (1) 
0000127300000002

>  <PUBCHEM_MMFF94_ENERGY>  (1) 
26.2352

>  <PUBCHEM_FEATURE_SELFOVERLAP>  (1) 
25.404

>  <PUBCHEM_SHAPE_FINGERPRINT>  (1) 
10465860 71 18271545125376424590
11769659 78 18201431484807501343
12202030 40 15194181506953704261
12932764 1 17702949278488558179
13571099 22 18412537708956040295
14128692 85 18343020007962993528
14144814 61 18412826888956432339
14993402 34 18410577253705998615
15219459 52 18410295834516519855
15775835 57 18334583459802020157
16945 1 18265338493553421921
18186145 218 17895182329801781671
18511873 20 18341614772242172459
19422 9 18411987996297741931
20645476 183 18340213010865382567
20653085 51 18040709277938669933
207724 885 18409733924066393051
232386 152 17918272064899251542
23463225 33 18341050701081150038
23552423 10 18266737064001957615
23559900 14 17632294532918734026
2748010 2 16106408092374811899
369184 2 10591770878671775651
5084963 1 18341609321997258697
63268167 104 18261112997358949713
6992083 37 18197793114953047817
7364860 26 18200308960871664512
74978 22 18408884074735081911
8030462 33 18270120248348204261
9939556 21 18412546547930209133

>  <PUBCHEM_SHAPE_MULTIPOLES>  (1) 
245.83
5.18
1.7
0.86
0.51
0.24
-0.03
-1.44
0.45
-0.48
0.31
-0.01
0.08
-0.67

>  <PUBCHEM_SHAPE_SELFOVERLAP>  (1) 
535.254

>  <PUBCHEM_SHAPE_VOLUME>  (1) 
134.8

>  <PUBCHEM_COORDINATE_TYPE>  (1) 
2
5
10

$$$$
