47242
     RDKit          3D

 19 18  0  0  0  0  0  0  0  0999 V2000
    1.0088    0.5382    0.3910 O   0  0  0  0  0  0  0  0  0  0  0  0
   -2.4177   -0.7827   -0.0364 N   0  0  0  0  0  0  0  0  0  0  0  0
    4.7118    0.6574   -0.0562 N   0  0  0  0  0  0  0  0  0  0  0  0
   -3.7937   -0.3476    0.4858 C   0  0  0  0  0  0  0  0  0  0  0  0
   -1.3592    0.1489    0.4282 C   0  0  0  0  0  0  0  0  0  0  0  0
   -2.4781   -0.8174   -1.5696 C   0  0  0  0  0  0  0  0  0  0  0  0
   -2.1461   -2.2081    0.4633 C   0  0  0  0  0  0  0  0  0  0  0  0
   -4.1205    1.0339   -0.0612 C   0  0  0  0  0  0  0  0  0  0  0  0
   -0.0134   -0.3293   -0.0803 C   0  0  0  0  0  0  0  0  0  0  0  0
   -3.5913   -1.7457   -2.0034 C   0  0  0  0  0  0  0  0  0  0  0  0
   -2.0816   -2.2023    1.9750 C   0  0  0  0  0  0  0  0  0  0  0  0
    3.3459    1.0807    0.4647 C   0  0  0  0  0  0  0  0  0  0  0  0
   -5.4647    1.5303    0.4699 C   0  0  0  0  0  0  0  0  0  0  0  0
    2.2919    0.1272   -0.0625 C   0  0  0  0  0  0  0  0  0  0  0  0
    5.0335   -0.7436    0.4433 C   0  0  0  0  0  0  0  0  0  0  0  0
    4.6984    0.6628   -1.5780 C   0  0  0  0  0  0  0  0  0  0  0  0
    5.7694    1.6302    0.4453 C   0  0  0  0  0  0  0  0  0  0  0  0
   -5.7855    2.9257   -0.0415 C   0  0  0  0  0  0  0  0  0  0  0  0
    6.3921   -1.1586   -0.0775 C   0  0  0  0  0  0  0  0  0  0  0  0
  1  9  1  0
  1 14  1  0
  2  4  1  0
  2  5  1  0
  2  6  1  0
  2  7  1  0
  3 12  1  0
  3 15  1  0
  3 16  1  0
  3 17  1  0
  4  8  1  0
  5  9  1  0
  6 10  1  0
  7 11  1  0
  8 13  1  0
 12 14  1  0
 13 18  1  0
 15 19  1  0
M  CHG  2   2   1   3   1
M  END
>  <PUBCHEM_COMPOUND_CID>  (1) 
47242

>  <PUBCHEM_CONFORMER_RMSD>  (1) 
1

>  <PUBCHEM_CONFORMER_DIVERSEORDER>  (1) 
1
74
61
45
11
109
110
88
3
77
102
128
38
24
89
9
96
97
85
121
33
72
82
105
100
103
79
63
71
75
120
124
4
87
122
78
47
13
36
91
84
2
41
30
104
94
5
123
130
55
93
117
56
125
57
92
37
114
66
83
68
20
80
46
54
119
126
101
81
90
40
64
48
95
108
12
99
115
25
62
32
129
116
52
53
67
44
27
15
112
51
118
86
14
73
49
106
22
98
107
29
69
70
28
39
127
113
43
76
65
18
42
35
10
50
59
21
34
7
111
58
8
23
6
17
60
16
19
31
26

>  <PUBCHEM_MMFF94_PARTIAL_CHARGES>  (1) 
13
1 -0.56
12 0.5
14 0.28
15 0.5
16 0.5
17 0.5
2 -1.01
3 -1.01
4 0.5
5 0.5
6 0.5
7 0.5
9 0.28

>  <PUBCHEM_EFFECTIVE_ROTOR_COUNT>  (1) 
12

>  <PUBCHEM_PHARMACOPHORE_FEATURES>  (1) 
4
1 1 acceptor
1 18 hydrophobe
1 2 cation
1 3 cation

>  <PUBCHEM_HEAVY_ATOM_COUNT>  (1) 
19

>  <PUBCHEM_ATOM_DEF_STEREO_COUNT>  (1) 
0

>  <PUBCHEM_ATOM_UDEF_STEREO_COUNT>  (1) 
0

>  <PUBCHEM_BOND_DEF_STEREO_COUNT>  (1) 
0

>  <PUBCHEM_BOND_UDEF_STEREO_COUNT>  (1) 
0

>  <PUBCHEM_ISOTOPIC_ATOM_COUNT>  (1) 
0

>  <PUBCHEM_COMPONENT_COUNT>  (1) 
1

>  <PUBCHEM_CACTVS_TAUTO_COUNT>  (1) 
1

>  <PUBCHEM_CONFORMER_ID>  (1) 
0000B88A00000001

>  <PUBCHEM_MMFF94_ENERGY>  (1) 
72.434

>  <PUBCHEM_FEATURE_SELFOVERLAP>  (1) 
20.297

>  <PUBCHEM_SHAPE_FINGERPRINT>  (1) 
10014705 185 18130788975335629337
10803635 8 17704348879460317383
11036077 3 18113622240409638275
11089746 13 17774995769851695552
11315181 36 18189046667694807590
11370993 144 18333731334037490446
11405975 8 18114464564979313064
11724838 91 10519690182484706642
11809386 21 17916573358363993607
12616971 3 16009026228967288628
12788726 201 18128534868839891368
13073987 5 18336545023037534290
14251752 14 18343580711638073361
15183329 4 17917714560822229041
15537594 2 16225761917926598138
15788980 27 18202003252819222862
167882 2 17702109058616733543
17093844 174 18059851792447180666
17844677 252 18266748050623538824
18222031 100 13326856639058323408
19489759 90 14620800383471712746
20281389 69 18408605842511940625
20621476 66 18411139117101850385
20645477 56 16805315596059445871
20681677 155 18260828206693685496
21756936 100 18334855018131553233
22646028 1 17988640839685063982
23081809 10 18335698373530419348
23402539 116 18412539920547849028
23559900 14 16845282869466940896
2838139 119 18201432533302150733
300161 21 18273493494609743416
4073 2 18114467859704506618
5104073 3 17749667506431631832
542803 24 17385445440403123892
559249 180 18059851753318130695
59755656 520 18186799176124093795
633830 44 18261670467355789242
77188 2 17471020641522015851
90127 26 18271530913503909928

>  <PUBCHEM_SHAPE_MULTIPOLES>  (1) 
375.18
16.21
2.4
1.4
15.1
0.31
-0.41
7.5
-0.62
-3.53
0.37
-0.9
-0.86
-0.4

>  <PUBCHEM_SHAPE_SELFOVERLAP>  (1) 
690.032

>  <PUBCHEM_SHAPE_VOLUME>  (1) 
242.1

>  <PUBCHEM_COORDINATE_TYPE>  (1) 
2
5
10

$$$$
