47244
     RDKit          3D

 17 18  0  0  0  0  0  0  0  0999 V2000
    0.6293    2.7953    0.7993 Cl  0  0  0  0  0  0  0  0  0  0  0  0
    1.5654    0.0048   -0.9439 S   0  0  0  0  0  0  0  0  0  0  0  0
    4.9798   -0.7979    0.7353 O   0  0  0  0  0  0  0  0  0  0  0  0
    4.2692    1.0482   -0.3838 O   0  0  0  0  0  0  0  0  0  0  0  0
   -1.2194   -0.0939   -0.1982 C   0  0  0  0  0  0  0  0  0  0  0  0
   -2.3513   -0.8621    0.1642 C   0  0  0  0  0  0  0  0  0  0  0  0
   -1.3361    1.3031   -0.2826 C   0  0  0  0  0  0  0  0  0  0  0  0
   -0.0043   -0.7451   -0.4663 C   0  0  0  0  0  0  0  0  0  0  0  0
   -3.5663   -0.2109    0.4323 C   0  0  0  0  0  0  0  0  0  0  0  0
   -2.2345   -2.2592    0.2483 C   0  0  0  0  0  0  0  0  0  0  0  0
   -2.5511    1.9336   -0.0128 C   0  0  0  0  0  0  0  0  0  0  0  0
    0.0938   -2.1340   -0.3778 C   0  0  0  0  0  0  0  0  0  0  0  0
   -3.6639    1.1781    0.3441 C   0  0  0  0  0  0  0  0  0  0  0  0
   -0.2484    2.2629   -0.6503 C   0  0  0  0  0  0  0  0  0  0  0  0
   -1.0192   -2.8894   -0.0212 C   0  0  0  0  0  0  0  0  0  0  0  0
    2.6350   -0.5336    0.4144 C   0  0  0  0  0  0  0  0  0  0  0  0
    4.0220    0.0001    0.1991 C   0  0  0  0  0  0  0  0  0  0  0  0
  1 14  1  0
  2  8  1  0
  2 16  1  0
  3 17  1  0
  4 17  2  0
  5  6  1  0
  5  7  2  0
  5  8  1  0
  6  9  2  0
  6 10  1  0
  7 11  1  0
  7 14  1  0
  8 12  2  0
  9 13  1  0
 10 15  2  0
 11 13  2  0
 12 15  1  0
 16 17  1  0
M  END
>  <PUBCHEM_COMPOUND_CID>  (1) 
47244

>  <PUBCHEM_CONFORMER_RMSD>  (1) 
0.6

>  <PUBCHEM_CONFORMER_DIVERSEORDER>  (1) 
1
22
25
9
24
30
26
13
16
23
32
14
19
29
28
11
4
8
20
12
31
18
6
17
5
21
15
3
7
2
10
27

>  <PUBCHEM_MMFF94_PARTIAL_CHARGES>  (1) 
22
1 -0.29
10 -0.15
11 -0.15
12 -0.15
13 -0.15
14 0.43
15 -0.15
16 0.29
17 0.66
18 0.15
19 0.15
2 -0.33
20 0.15
21 0.15
22 0.15
25 0.15
28 0.5
3 -0.65
4 -0.57
7 -0.14
8 0.1
9 -0.15

>  <PUBCHEM_EFFECTIVE_ROTOR_COUNT>  (1) 
4

>  <PUBCHEM_PHARMACOPHORE_FEATURES>  (1) 
5
1 3 acceptor
1 4 acceptor
3 3 4 17 anion
6 5 6 7 9 11 13 rings
6 5 6 8 10 12 15 rings

>  <PUBCHEM_HEAVY_ATOM_COUNT>  (1) 
17

>  <PUBCHEM_ATOM_DEF_STEREO_COUNT>  (1) 
0

>  <PUBCHEM_ATOM_UDEF_STEREO_COUNT>  (1) 
0

>  <PUBCHEM_BOND_DEF_STEREO_COUNT>  (1) 
0

>  <PUBCHEM_BOND_UDEF_STEREO_COUNT>  (1) 
0

>  <PUBCHEM_ISOTOPIC_ATOM_COUNT>  (1) 
0

>  <PUBCHEM_COMPONENT_COUNT>  (1) 
1

>  <PUBCHEM_CACTVS_TAUTO_COUNT>  (1) 
1

>  <PUBCHEM_CONFORMER_ID>  (1) 
0000B88C00000001

>  <PUBCHEM_MMFF94_ENERGY>  (1) 
62.6788

>  <PUBCHEM_FEATURE_SELFOVERLAP>  (1) 
25.456

>  <PUBCHEM_SHAPE_FINGERPRINT>  (1) 
10493431 412 18270410386659411009
10759866 29 18187655691434311884
10967382 1 18338803308140949583
11132069 177 18411705352620272485
11680986 33 18050279577254195193
12011746 2 18411412904313441405
12251169 10 18334297565119157046
12382932 28 18410862022986006611
12403814 3 17748826306494470125
12633257 1 18272093802958589336
13140716 1 18194976364290214147
13544592 271 18337678507988282363
14420673 8 18119526528016029194
14614273 12 18189616030050538293
14790565 3 18339654330189301873
15042514 8 18336551615791780107
15375462 189 18040711485293215538
16945 1 17114109322653095895
17780758 139 18046316714648085274
17804303 29 18340773744383485561
17846911 113 18341049622970219876
1813 80 16733551503671769534
193761 8 17979077407505072285
20510252 161 18270402676591643320
20600515 1 18411708677189243172
21501502 16 18123757710034414325
2297311 6 18341626906036571342
23184049 29 18050853513401890855
2334 1 17835250313198456551
23366157 5 17826792835129418036
23402539 116 18341603846093720391
23557571 272 18272103720517883270
23559900 14 18270699575608064046
2748010 2 18048897207897300711
350125 39 18338242673686746593
43471831 8 18190462662314577531
5706482 22 18410852131829558079
58807428 26 18263652757771528563
7097593 13 18115292372960915594
7364860 26 17837212571744373735
90316 7 18186794764644139076

>  <PUBCHEM_SHAPE_MULTIPOLES>  (1) 
343.83
6.87
3.09
0.84
7.89
0.03
0.03
-0.31
-1.5
-1.37
-0.19
0.23
-0.13
-0.04

>  <PUBCHEM_SHAPE_SELFOVERLAP>  (1) 
715.207

>  <PUBCHEM_SHAPE_VOLUME>  (1) 
197.3

>  <PUBCHEM_COORDINATE_TYPE>  (1) 
2
5
10

$$$$
