47250
     RDKit          3D

 16 17  0  0  0  0  0  0  0  0999 V2000
    0.2132   -0.0273   -0.4031 N   0  0  0  0  0  0  0  0  0  0  0  0
    4.4653   -0.0251   -0.1720 N   0  0  0  0  0  0  0  0  0  0  0  0
    2.2745    0.5836    0.7413 C   0  0  0  0  0  0  0  0  0  0  0  0
    1.6014    0.3759   -0.6112 C   0  0  0  0  0  0  0  0  0  0  0  0
    3.7342    0.9960    0.5688 C   0  0  0  0  0  0  0  0  0  0  0  0
   -0.7276    0.9223   -0.3205 C   0  0  0  0  0  0  0  0  0  0  0  0
   -2.0652    0.5750   -0.1220 C   0  0  0  0  0  0  0  0  0  0  0  0
   -0.0689   -1.3313   -0.3020 C   0  0  0  0  0  0  0  0  0  0  0  0
   -2.3960   -0.7931   -0.0114 C   0  0  0  0  0  0  0  0  0  0  0  0
   -1.3771   -1.7494   -0.1040 C   0  0  0  0  0  0  0  0  0  0  0  0
    4.4547   -1.2960    0.5547 C   0  0  0  0  0  0  0  0  0  0  0  0
    5.8421    0.4054   -0.4215 C   0  0  0  0  0  0  0  0  0  0  0  0
   -3.0764    1.5441   -0.0310 C   0  0  0  0  0  0  0  0  0  0  0  0
   -3.7374   -1.1586    0.1886 C   0  0  0  0  0  0  0  0  0  0  0  0
   -4.4036    1.1636    0.1679 C   0  0  0  0  0  0  0  0  0  0  0  0
   -4.7334   -0.1850    0.2775 C   0  0  0  0  0  0  0  0  0  0  0  0
  1  4  1  0
  1  6  2  0
  1  8  1  0
  2  5  1  0
  2 11  1  0
  2 12  1  0
  3  4  1  0
  3  5  1  0
  6  7  1  0
  7  9  2  0
  7 13  1  0
  8 10  2  0
  9 10  1  0
  9 14  1  0
 13 15  2  0
 14 16  2  0
 15 16  1  0
M  CHG  1   1   1
M  END
>  <PUBCHEM_COMPOUND_CID>  (1) 
47250

>  <PUBCHEM_CONFORMER_RMSD>  (1) 
0.6

>  <PUBCHEM_CONFORMER_DIVERSEORDER>  (1) 
5
10
7
19
14
23
13
1
12
11
16
8
18
9
22
21
6
15
4
2
20
17
3

>  <PUBCHEM_MMFF94_PARTIAL_CHARGES>  (1) 
20
1 -0.21
10 -0.15
11 0.27
12 0.27
13 -0.15
14 -0.15
15 -0.15
16 -0.15
2 -0.81
23 0.15
24 0.15
25 0.15
32 0.15
33 0.15
34 0.15
35 0.15
4 0.49
5 0.27
6 0.21
8 0.21

>  <PUBCHEM_EFFECTIVE_ROTOR_COUNT>  (1) 
4

>  <PUBCHEM_PHARMACOPHORE_FEATURES>  (1) 
3
1 2 cation
6 1 6 7 8 9 10 rings
6 7 9 13 14 15 16 rings

>  <PUBCHEM_HEAVY_ATOM_COUNT>  (1) 
16

>  <PUBCHEM_ATOM_DEF_STEREO_COUNT>  (1) 
0

>  <PUBCHEM_ATOM_UDEF_STEREO_COUNT>  (1) 
0

>  <PUBCHEM_BOND_DEF_STEREO_COUNT>  (1) 
0

>  <PUBCHEM_BOND_UDEF_STEREO_COUNT>  (1) 
0

>  <PUBCHEM_ISOTOPIC_ATOM_COUNT>  (1) 
0

>  <PUBCHEM_COMPONENT_COUNT>  (1) 
1

>  <PUBCHEM_CACTVS_TAUTO_COUNT>  (1) 
1

>  <PUBCHEM_CONFORMER_ID>  (1) 
0000B89200000005

>  <PUBCHEM_MMFF94_ENERGY>  (1) 
43.0382

>  <PUBCHEM_FEATURE_SELFOVERLAP>  (1) 
15.251

>  <PUBCHEM_SHAPE_FINGERPRINT>  (1) 
11287383 113 8574708005618389540
12107183 9 17686614646089193136
12119455 92 17203609289437758917
12236239 1 17676489458183443700
12251169 10 18334294292338363685
12390115 104 18129114329164776865
12403259 415 18343575248587827369
124424 183 17632295692074607248
128620 24 12973601136528483378
13167823 11 18334573538438089834
13214271 11 18342175575102245173
13675066 3 18408323314945878346
14251731 8 18342458132199860444
14251764 18 18410851067025620522
14420673 8 18192149300752338218
14573314 32 18202291273173060228
15042514 8 18194124238526489771
15196674 1 18409729534763083074
15219456 202 18131075896109358087
15242433 33 18335139791611576302
15536298 74 18341614759051809214
16945 1 18337121150414719775
17804303 29 18412545448154999553
17834072 33 18113903796953719556
17959699 21 11743838066701665970
1813 80 16660366948442484342
19489759 90 11167945753472380836
200 152 15195570095507794880
20645477 56 18343304764532095181
20645477 70 17060066896076764478
21267235 1 18335990860729677099
2215653 11 17989210309266829382
2297311 6 18341905090514678988
23175994 123 17203614804223506280
23402539 116 18201431489461048141
23559900 14 18272929457982311944
2748010 2 18265627481245650015
300161 21 18334569153613973644
3004659 81 18336270042816493414
351380 180 18060415824257827625
3545911 37 18413673504166865421
42 15 18334575737461215290
4214541 1 18410855464644902544
474 4 16951979577249420956
5104073 3 18410008836544098818
542803 24 17748828522924200964
69090 78 18060134366587651879
7364860 26 18127131875086931199
77779 3 18409448102899270432

>  <PUBCHEM_SHAPE_MULTIPOLES>  (1) 
319.31
11.46
1.58
0.75
10.36
0.29
-0.03
-1.12
-0.87
-0.76
-0.05
0.3
-0.03
-0.07

>  <PUBCHEM_SHAPE_SELFOVERLAP>  (1) 
669.827

>  <PUBCHEM_SHAPE_VOLUME>  (1) 
180.3

>  <PUBCHEM_COORDINATE_TYPE>  (1) 
2
5
10

$$$$
