47256
     RDKit          3D

 10 11  0  0  1  0  0  0  0  0999 V2000
    1.0706    0.6131   -0.2826 N   0  0  0  0  0  0  0  0  0  0  0  0
   -0.5568   -1.1231    0.5152 C   0  0  0  0  0  0  0  0  0  0  0  0
   -1.3574    1.0453    0.2182 C   0  0  0  0  0  0  0  0  0  0  0  0
   -1.3698   -0.0665    1.2596 C   0  0  0  0  0  0  0  0  0  0  0  0
    0.9305   -0.6631    0.4548 C   0  0  0  0  0  0  0  0  0  0  0  0
   -1.2415   -1.1326   -0.8652 C   0  0  0  0  0  0  0  0  0  0  0  0
   -1.7556    0.3014   -1.0655 C   0  0  0  0  0  0  0  0  0  0  0  0
    0.0707    1.6183    0.1237 C   0  0  0  0  0  0  0  0  0  0  0  0
    1.7936   -1.7742   -0.1601 C   0  0  0  0  0  0  0  0  0  0  0  0
    2.4158    1.1814   -0.1981 C   0  0  0  0  0  0  0  0  0  0  0  0
  1  5  1  0
  1  8  1  0
  1 10  1  0
  2  4  1  0
  2  5  1  0
  2  6  1  0
  3  4  1  0
  3  7  1  0
  3  8  1  0
  5  9  1  0
  6  7  1  0
M  END
>  <PUBCHEM_COMPOUND_CID>  (1) 
47256

>  <PUBCHEM_CONFORMER_RMSD>  (1) 
0.4

>  <PUBCHEM_CONFORMER_DIVERSEORDER>  (1) 
3
1
2
4

>  <PUBCHEM_MMFF94_PARTIAL_CHARGES>  (1) 
4
1 -0.81
10 0.27
5 0.27
8 0.27

>  <PUBCHEM_EFFECTIVE_ROTOR_COUNT>  (1) 
1.2

>  <PUBCHEM_PHARMACOPHORE_FEATURES>  (1) 
2
1 1 cation
8 1 2 3 4 5 6 7 8 rings

>  <PUBCHEM_HEAVY_ATOM_COUNT>  (1) 
10

>  <PUBCHEM_ATOM_DEF_STEREO_COUNT>  (1) 
0

>  <PUBCHEM_ATOM_UDEF_STEREO_COUNT>  (1) 
3

>  <PUBCHEM_BOND_DEF_STEREO_COUNT>  (1) 
0

>  <PUBCHEM_BOND_UDEF_STEREO_COUNT>  (1) 
0

>  <PUBCHEM_ISOTOPIC_ATOM_COUNT>  (1) 
0

>  <PUBCHEM_COMPONENT_COUNT>  (1) 
1

>  <PUBCHEM_CACTVS_TAUTO_COUNT>  (1) 
1

>  <PUBCHEM_CONFORMER_ID>  (1) 
0000B89800000003

>  <PUBCHEM_MMFF94_ENERGY>  (1) 
21.9731

>  <PUBCHEM_FEATURE_SELFOVERLAP>  (1) 
10.148

>  <PUBCHEM_SHAPE_FINGERPRINT>  (1) 
12423570 1 15666180142082832331
13024252 1 17823698770452931036
137420 1 10134414113313853087
16945 1 18198046165983594045
18185500 45 18343012324240185654
21040471 1 18409165506487929984
21922407 69 16702297962185732978
23552423 10 18337384955126049230
241688 4 17978778026471997136
2748010 2 18335707108850346982
369184 2 18265895937538306200
5084963 1 17914889834019913819
68250623 7 18339651057586791179

>  <PUBCHEM_SHAPE_MULTIPOLES>  (1) 
200.81
2.6
1.8
1.03
1.04
0.08
-0.04
-0.2
0.35
0.64
0.08
-0.49
0.1
-0.11

>  <PUBCHEM_SHAPE_SELFOVERLAP>  (1) 
410.185

>  <PUBCHEM_SHAPE_VOLUME>  (1) 
117.2

>  <PUBCHEM_COORDINATE_TYPE>  (1) 
2
5
10

$$$$
