47268
     RDKit          3D

 22 22  0  0  0  0  0  0  0  0999 V2000
    2.9198   -0.4410   -0.7486 O   0  0  0  0  0  0  0  0  0  0  0  0
    2.7401   -1.1701    1.4401 O   0  0  0  0  0  0  0  0  0  0  0  0
   -1.2019    3.2128    0.2588 N   0  0  0  0  0  0  0  0  0  0  0  0
    4.3282   -2.1523    0.0534 N   0  0  0  0  0  0  0  0  0  0  0  0
   -0.1467    2.2568   -0.0062 C   0  0  0  0  0  0  0  0  0  0  0  0
   -0.4296    0.9796   -0.4707 C   0  0  0  0  0  0  0  0  0  0  0  0
   -1.8539    0.5506   -0.7135 C   0  0  0  0  0  0  0  0  0  0  0  0
   -2.1272   -0.8465   -0.1522 C   0  0  0  0  0  0  0  0  0  0  0  0
   -0.6336    4.5666    0.7694 C   0  0  0  0  0  0  0  0  0  0  0  0
   -2.2013    2.6828    1.3252 C   0  0  0  0  0  0  0  0  0  0  0  0
   -2.0832    3.5816   -0.9748 C   0  0  0  0  0  0  0  0  0  0  0  0
   -3.5843   -1.2574   -0.3718 C   0  0  0  0  0  0  0  0  0  0  0  0
    1.1795    2.6307    0.2114 C   0  0  0  0  0  0  0  0  0  0  0  0
    0.5881    0.0691   -0.7223 C   0  0  0  0  0  0  0  0  0  0  0  0
   -3.8505   -2.6671    0.1584 C   0  0  0  0  0  0  0  0  0  0  0  0
    1.9140    0.4433   -0.5049 C   0  0  0  0  0  0  0  0  0  0  0  0
    2.2099    1.7239   -0.0379 C   0  0  0  0  0  0  0  0  0  0  0  0
   -5.2978   -3.0910   -0.0907 C   0  0  0  0  0  0  0  0  0  0  0  0
   -5.5571   -4.5048    0.4046 C   0  0  0  0  0  0  0  0  0  0  0  0
    3.2922   -1.2576    0.3438 C   0  0  0  0  0  0  0  0  0  0  0  0
    4.9741   -2.2506   -1.2515 C   0  0  0  0  0  0  0  0  0  0  0  0
    4.8210   -3.0593    1.0800 C   0  0  0  0  0  0  0  0  0  0  0  0
  1 16  1  0
  1 20  1  0
  2 20  2  0
  3  5  1  0
  3  9  1  0
  3 10  1  0
  3 11  1  0
  4 20  1  0
  4 21  1  0
  4 22  1  0
  5  6  2  0
  5 13  1  0
  6  7  1  0
  6 14  1  0
  7  8  1  0
  8 12  1  0
 12 15  1  0
 13 17  2  0
 14 16  2  0
 15 18  1  0
 16 17  1  0
 18 19  1  0
M  CHG  1   3   1
M  END
>  <PUBCHEM_COMPOUND_CID>  (1) 
47268

>  <PUBCHEM_CONFORMER_RMSD>  (1) 
0.8

>  <PUBCHEM_CONFORMER_DIVERSEORDER>  (1) 
1
50
12
93
100
102
35
114
142
24
87
112
58
30
67
137
90
121
46
11
84
52
41
42
34
141
120
70
108
36
130
31
10
117
73
94
20
139
134
76
99
122
136
32
125
7
128
98
119
91
4
123
21
56
126
51
69
144
3
111
109
79
88
26
95
17
86
59
105
75
103
118
13
23
107
104
62
38
78
72
133
49
116
25
115
6
81
143
28
48
97
66
74
45
5
53
96
63
55
60
19
65
138
43
113
18
57
61
132
47
80
68
33
39
92
2
85
129
82
124
9
15
135
54
16
110
77
101
89
40
71
37
8
83
14
29
106
64
140
27
127
44
131
22

>  <PUBCHEM_MMFF94_PARTIAL_CHARGES>  (1) 
20
1 -0.23
10 0.5
11 0.5
13 -0.15
14 -0.15
16 0.08
17 -0.15
2 -0.57
20 0.78
21 0.3
22 0.3
3 -0.87
38 0.15
39 0.15
4 -0.66
42 0.15
5 0.36
6 -0.14
7 0.14
9 0.5

>  <PUBCHEM_EFFECTIVE_ROTOR_COUNT>  (1) 
9

>  <PUBCHEM_PHARMACOPHORE_FEATURES>  (1) 
5
1 19 hydrophobe
1 2 acceptor
1 3 cation
5 7 8 12 15 18 hydrophobe
6 5 6 13 14 16 17 rings

>  <PUBCHEM_HEAVY_ATOM_COUNT>  (1) 
22

>  <PUBCHEM_ATOM_DEF_STEREO_COUNT>  (1) 
0

>  <PUBCHEM_ATOM_UDEF_STEREO_COUNT>  (1) 
0

>  <PUBCHEM_BOND_DEF_STEREO_COUNT>  (1) 
0

>  <PUBCHEM_BOND_UDEF_STEREO_COUNT>  (1) 
0

>  <PUBCHEM_ISOTOPIC_ATOM_COUNT>  (1) 
0

>  <PUBCHEM_COMPONENT_COUNT>  (1) 
1

>  <PUBCHEM_CACTVS_TAUTO_COUNT>  (1) 
1

>  <PUBCHEM_CONFORMER_ID>  (1) 
0000B8A400000001

>  <PUBCHEM_MMFF94_ENERGY>  (1) 
87.8225

>  <PUBCHEM_FEATURE_SELFOVERLAP>  (1) 
25.371

>  <PUBCHEM_SHAPE_FINGERPRINT>  (1) 
10411042 1 18411984688661649935
114674 6 17899973030428522827
12107183 9 18270135595137187803
12293681 25 18049406453453150053
12553582 1 18199462336691456614
12788726 201 18262523576351552667
13052359 8 18122058698223544837
13140716 1 18342175548942557673
13533116 47 17977108182808142091
13631057 29 18407764738050126670
13785724 45 18270134507983116247
13911852 28 18338795723514262631
13955234 65 17764312043572694115
14863182 85 17903635525235395892
14866123 147 18267021644630582507
15042514 8 18340211769894075125
17492 89 18409726253635019734
17859628 70 17906174302037114279
17868525 174 18197218255967716913
21478907 32 18410012126562964615
22033318 11 17838096824845155203
22849339 104 17979652142669464934
23466295 7 18338238154853364309
23559900 14 18055902205363442032
3421961 26 18195245740048730443
345986 75 17916598686086344203
5309563 4 18411701010557029727
54173680 148 18339923693030664068
58807428 26 17261878745644666064
77188 2 18339926025477370181
7970288 3 18409445873517098354
9981440 41 17329432740092400433

>  <PUBCHEM_SHAPE_MULTIPOLES>  (1) 
431.05
10.16
6.56
1.08
4.13
2.19
-0.11
-20.41
-0.47
4.3
-1.45
-0.55
0.04
0

>  <PUBCHEM_SHAPE_SELFOVERLAP>  (1) 
855.323

>  <PUBCHEM_SHAPE_VOLUME>  (1) 
258.5

>  <PUBCHEM_COORDINATE_TYPE>  (1) 
2
5
10

$$$$
