47279
     RDKit          3D

 22 23  0  0  0  0  0  0  0  0999 V2000
    8.0093    1.1473    0.2536 Cl  0  0  0  0  0  0  0  0  0  0  0  0
   -4.7580   -1.9212   -0.2493 O   0  0  0  0  0  0  0  0  0  0  0  0
    2.2471   -2.1255   -0.3042 O   0  0  0  0  0  0  0  0  0  0  0  0
   -1.0845    1.5934    0.0094 O   0  0  0  0  0  0  0  0  0  0  0  0
   -2.4723   -0.2954   -0.1313 N   0  0  0  0  0  0  0  0  0  0  0  0
    1.2759    0.0758   -0.1183 C   0  0  0  0  0  0  0  0  0  0  0  0
   -0.0943   -0.5994   -0.1654 C   0  0  0  0  0  0  0  0  0  0  0  0
    2.4296   -0.9175   -0.1725 C   0  0  0  0  0  0  0  0  0  0  0  0
   -1.2575    0.3828   -0.0833 C   0  0  0  0  0  0  0  0  0  0  0  0
    3.8258   -0.4004   -0.0656 C   0  0  0  0  0  0  0  0  0  0  0  0
   -3.7731    0.2600   -0.0822 C   0  0  0  0  0  0  0  0  0  0  0  0
   -4.8825   -0.5679   -0.1416 C   0  0  0  0  0  0  0  0  0  0  0  0
   -3.9054    1.6353    0.0264 C   0  0  0  0  0  0  0  0  0  0  0  0
    4.0179    0.9546    0.0781 C   0  0  0  0  0  0  0  0  0  0  0  0
    4.8667   -1.2991   -0.1154 C   0  0  0  0  0  0  0  0  0  0  0  0
   -6.1581   -0.0060   -0.0913 C   0  0  0  0  0  0  0  0  0  0  0  0
   -5.1811    2.1972    0.0767 C   0  0  0  0  0  0  0  0  0  0  0  0
    5.3228    1.4374    0.1775 C   0  0  0  0  0  0  0  0  0  0  0  0
    6.1716   -0.8162   -0.0159 C   0  0  0  0  0  0  0  0  0  0  0  0
   -6.3075    1.3766    0.0179 C   0  0  0  0  0  0  0  0  0  0  0  0
    6.3997    0.5520    0.1306 C   0  0  0  0  0  0  0  0  0  0  0  0
   -4.6920   -2.6637    0.9661 C   0  0  0  0  0  0  0  0  0  0  0  0
  1 21  1  0
  2 12  1  0
  2 22  1  0
  3  8  2  0
  4  9  2  0
  5  9  1  0
  5 11  1  0
  6  7  1  0
  6  8  1  0
  7  9  1  0
  8 10  1  0
 10 14  2  0
 10 15  1  0
 11 12  2  0
 11 13  1  0
 12 16  1  0
 13 17  2  0
 14 18  1  0
 15 19  2  0
 16 20  2  0
 17 20  1  0
 18 21  2  0
 19 21  1  0
M  END
>  <PUBCHEM_COMPOUND_CID>  (1) 
47279

>  <PUBCHEM_CONFORMER_RMSD>  (1) 
0.8

>  <PUBCHEM_CONFORMER_DIVERSEORDER>  (1) 
1
42
117
246
168
122
247
149
153
155
85
126
108
93
68
66
212
12
262
73
219
124
179
224
61
166
113
55
162
127
201
167
241
99
268
18
192
88
118
143
119
25
231
21
120
98
145
16
205
218
56
57
39
35
71
78
184
14
189
200
248
8
132
163
225
191
217
172
100
263
24
150
96
194
110
32
250
269
245
82
34
47
169
215
187
116
43
261
136
36
156
260
74
133
227
230
103
158
160
214
19
107
165
206
87
185
125
52
5
161
239
20
70
59
144
147
235
41
152
63
251
104
203
243
109
257
84
216
72
2
178
54
123
134
90
65
141
91
232
159
69
252
130
128
164
4
258
236
58
226
270
11
50
182
114
81
38
221
154
6
102
64
254
101
9
197
267
83
37
177
209
29
220
28
106
242
249
13
138
148
180
202
121
186
51
240
175
237
255
27
77
173
45
94
89
139
210
171
233
208
195
131
223
170
266
157
188
67
48
204
111
135
213
176
22
265
3
105
137
30
17
62
40
92
253
259
44
174
183
142
129
222
256
53
264
7
198
112
228
23
33
60
15
49
151
31
115
193
46
75
10
79
234
211
181
76
207
229
95
97
86
140
199
190
80
244
196
146
26
238

>  <PUBCHEM_MMFF94_PARTIAL_CHARGES>  (1) 
31
1 -0.18
10 0.09
11 0.12
12 0.08
13 -0.15
14 -0.15
15 -0.15
16 -0.15
17 -0.15
18 -0.15
19 -0.15
2 -0.36
20 -0.15
21 0.18
22 0.28
27 0.37
28 0.15
29 0.15
3 -0.57
30 0.15
31 0.15
32 0.15
33 0.15
34 0.15
35 0.15
4 -0.57
5 -0.55
6 0.06
7 0.06
8 0.42
9 0.57

>  <PUBCHEM_EFFECTIVE_ROTOR_COUNT>  (1) 
7

>  <PUBCHEM_PHARMACOPHORE_FEATURES>  (1) 
6
1 2 acceptor
1 3 acceptor
1 4 acceptor
1 5 donor
6 10 14 15 18 19 21 rings
6 11 12 13 16 17 20 rings

>  <PUBCHEM_HEAVY_ATOM_COUNT>  (1) 
22

>  <PUBCHEM_ATOM_DEF_STEREO_COUNT>  (1) 
0

>  <PUBCHEM_ATOM_UDEF_STEREO_COUNT>  (1) 
0

>  <PUBCHEM_BOND_DEF_STEREO_COUNT>  (1) 
0

>  <PUBCHEM_BOND_UDEF_STEREO_COUNT>  (1) 
0

>  <PUBCHEM_ISOTOPIC_ATOM_COUNT>  (1) 
0

>  <PUBCHEM_COMPONENT_COUNT>  (1) 
1

>  <PUBCHEM_CACTVS_TAUTO_COUNT>  (1) 
4

>  <PUBCHEM_CONFORMER_ID>  (1) 
0000B8AF00000001

>  <PUBCHEM_MMFF94_ENERGY>  (1) 
71.2121

>  <PUBCHEM_FEATURE_SELFOVERLAP>  (1) 
30.447

>  <PUBCHEM_SHAPE_FINGERPRINT>  (1) 
10 15 18334299751732310097
10411042 1 18049724316147737491
10595046 47 18341330007088430483
10638233 991 14117511086594205242
10835480 77 18339920424924373309
10968037 39 18342174458505823509
11315181 36 17917993880679931449
11578080 2 13685199487458683089
11719270 70 18130783422365480670
12091667 2 18131068251304739983
12107183 9 17475517179299414243
12236239 1 18411698773078534582
12516196 113 18202562869398299449
13167372 99 18341613664351990000
13533116 47 17386562449986283410
13631057 29 18338233877562433339
13668630 136 11314305028049343792
14251732 16 18410574015632940656
14251764 18 18259981587979425888
14461889 52 18410570726084079666
14933364 13 18412826876113903748
15183329 4 18201720630748939816
16989713 51 17416677145674132751
17093844 174 18187081759149320457
17844677 252 18413113874365861593
19489759 90 17894630357505103161
20281389 69 18334012752874132372
21150785 3 16272200899427170293
21236236 1 18410012156865339947
21315763 28 18412543193307510855
220451 1 17748827393036799786
22224240 67 17894909642523194714
23402539 116 18333448742132016527
23536379 177 18411136913714503632
23559900 14 18340198683213393441
300161 21 18261108539678534871
34797466 226 17847067678862582005
3545911 37 18411419479586637581
4073 2 18259710012195990370
4214541 1 18410575068105779949
4325135 7 18410572898551268228
4463277 17 18413670197079178628
5104073 3 18410012108961239442
5758199 1 18113337518611484538
67856867 119 18261116334696583101

>  <PUBCHEM_SHAPE_MULTIPOLES>  (1) 
432.03
21.84
2.18
0.66
13.04
0.58
-0.05
-4.74
-1.48
-2.39
-0.27
-0.12
0.11
0.74

>  <PUBCHEM_SHAPE_SELFOVERLAP>  (1) 
905.627

>  <PUBCHEM_SHAPE_VOLUME>  (1) 
244.2

>  <PUBCHEM_COORDINATE_TYPE>  (1) 
2
5
10

$$$$
