47287
     RDKit          3D

 18 18  0  0  1  0  0  0  0  0999 V2000
   -1.2174   -2.1635   -0.1414 O   0  0  0  0  0  0  0  0  0  0  0  0
    0.4300   -1.7337   -1.8867 O   0  0  0  0  0  0  0  0  0  0  0  0
    0.1871    1.2570    1.7254 O   0  0  0  0  0  0  0  0  0  0  0  0
    3.9223   -1.3245    1.0618 O   0  0  0  0  0  0  0  0  0  0  0  0
    2.2125   -1.4554   -0.4696 N   0  0  0  0  0  0  0  0  0  0  0  0
    2.0909    0.0381    1.3351 N   0  0  0  0  0  0  0  0  0  0  0  0
    0.4239    0.2239   -0.4556 C   0  0  0  0  0  0  0  0  0  0  0  0
   -1.1093    0.1992   -0.5383 C   0  0  0  0  0  0  0  0  0  0  0  0
   -1.7575   -0.9144    0.2930 C   0  0  0  0  0  0  0  0  0  0  0  0
    0.9635    1.3520   -1.3530 C   0  0  0  0  0  0  0  0  0  0  0  0
   -3.2832   -0.9664    0.1421 C   0  0  0  0  0  0  0  0  0  0  0  0
    0.9850   -1.0863   -0.9992 C   0  0  0  0  0  0  0  0  0  0  0  0
    0.8523    0.5459    0.9726 C   0  0  0  0  0  0  0  0  0  0  0  0
   -3.9531    0.3439    0.5697 C   0  0  0  0  0  0  0  0  0  0  0  0
    0.5223    2.6859   -0.8495 C   0  0  0  0  0  0  0  0  0  0  0  0
    2.8264   -0.9291    0.6606 C   0  0  0  0  0  0  0  0  0  0  0  0
   -5.4617    0.2815    0.3873 C   0  0  0  0  0  0  0  0  0  0  0  0
    1.3660    3.6458   -0.4542 C   0  0  0  0  0  0  0  0  0  0  0  0
  1  9  1  0
  2 12  2  0
  3 13  2  0
  4 16  2  0
  5 12  1  0
  5 16  1  0
  6 13  1  0
  6 16  1  0
  7  8  1  0
  7 10  1  0
  7 12  1  0
  7 13  1  0
  8  9  1  0
  9 11  1  0
 10 15  1  0
 11 14  1  0
 14 17  1  0
 15 18  2  0
M  END
>  <PUBCHEM_COMPOUND_CID>  (1) 
47287

>  <PUBCHEM_CONFORMER_RMSD>  (1) 
0.8

>  <PUBCHEM_CONFORMER_DIVERSEORDER>  (1) 
1
9
32
15
38
35
12
31
37
17
21
34
18
22
24
16
26
28
30
2
27
33
36
20
23
5
29
10
11
3
19
39
14
4
8
13
6
25
7

>  <PUBCHEM_MMFF94_PARTIAL_CHARGES>  (1) 
20
1 -0.68
10 0.14
12 0.57
13 0.57
15 -0.29
16 0.69
18 -0.3
2 -0.57
28 0.37
29 0.37
3 -0.57
30 0.15
31 0.4
35 0.15
36 0.15
4 -0.57
5 -0.49
6 -0.49
7 0.12
9 0.28

>  <PUBCHEM_EFFECTIVE_ROTOR_COUNT>  (1) 
6.6

>  <PUBCHEM_PHARMACOPHORE_FEATURES>  (1) 
10
1 1 acceptor
1 1 donor
1 17 hydrophobe
1 18 hydrophobe
1 2 acceptor
1 3 acceptor
1 4 acceptor
1 5 donor
1 6 donor
6 5 6 7 12 13 16 rings

>  <PUBCHEM_HEAVY_ATOM_COUNT>  (1) 
18

>  <PUBCHEM_ATOM_DEF_STEREO_COUNT>  (1) 
0

>  <PUBCHEM_ATOM_UDEF_STEREO_COUNT>  (1) 
1

>  <PUBCHEM_BOND_DEF_STEREO_COUNT>  (1) 
0

>  <PUBCHEM_BOND_UDEF_STEREO_COUNT>  (1) 
0

>  <PUBCHEM_ISOTOPIC_ATOM_COUNT>  (1) 
0

>  <PUBCHEM_COMPONENT_COUNT>  (1) 
1

>  <PUBCHEM_CACTVS_TAUTO_COUNT>  (1) 
5

>  <PUBCHEM_CONFORMER_ID>  (1) 
0000B8B700000001

>  <PUBCHEM_MMFF94_ENERGY>  (1) 
47.2286

>  <PUBCHEM_FEATURE_SELFOVERLAP>  (1) 
50.814

>  <PUBCHEM_SHAPE_FINGERPRINT>  (1) 
12011746 2 17489591134504626554
12423570 1 15453592708636947028
13134695 92 18333445456498112877
13464514 151 18043829777215457205
14817 1 17611150820768043748
15852999 172 13326573007517445677
16945 1 18263352758605819932
17041 49 18334300851148920593
17093844 170 17616250282820875285
17980427 23 18058998592682630597
20233049 118 17917159406266092145
20511035 2 18128531772120977687
20600515 1 18341614797901492214
20671657 1 18264494056070827373
21501502 16 18195808690112921735
21524375 3 17619363438067070173
22344851 341 17761785352666397924
23419403 2 18127383727378860808
2748010 2 17981897345550559167
305870 269 17903079171993135972
394222 165 18122354741692608368
430814 3 17543626886590939612
5104073 3 18189633777619998115
5939293 188 18410019857361848317
6442390 28 16970272834557600496
7364860 26 18263365956803326909
74978 22 18188495786826646755
81228 2 17908728149335437561

>  <PUBCHEM_SHAPE_MULTIPOLES>  (1) 
336.99
6.24
2.79
1.39
9.47
2.69
0.02
-1.39
-2.15
-2.16
0.71
-0.74
-0.1
-0.51

>  <PUBCHEM_SHAPE_SELFOVERLAP>  (1) 
685.724

>  <PUBCHEM_SHAPE_VOLUME>  (1) 
192

>  <PUBCHEM_COORDINATE_TYPE>  (1) 
2
5
10

$$$$
