4728
     RDKit          3D

 12 12  0  0  1  0  0  0  0  0999 V2000
    0.5443    1.4084   -0.3275 O   0  0  0  0  0  0  0  0  0  0  0  0
   -0.9015    0.3588   -1.8709 O   0  0  0  0  0  0  0  0  0  0  0  0
   -0.2630   -2.0870   -0.3354 O   0  0  0  0  0  0  0  0  0  0  0  0
    2.7637    1.4402    0.2861 O   0  0  0  0  0  0  0  0  0  0  0  0
   -0.4513    0.3871   -0.5216 C   0  0  0  0  0  0  0  0  0  0  0  0
    0.3087   -0.8497   -0.2364 C   0  0  0  0  0  0  0  0  0  0  0  0
   -1.5821    0.6317    0.4267 C   0  0  0  0  0  0  0  0  0  0  0  0
    1.5727   -0.6149    0.0977 C   0  0  0  0  0  0  0  0  0  0  0  0
    1.7316    0.8394    0.0422 C   0  0  0  0  0  0  0  0  0  0  0  0
   -1.2130    0.7746    1.8735 C   0  0  0  0  0  0  0  0  0  0  0  0
   -2.8531    0.7189    0.0072 C   0  0  0  0  0  0  0  0  0  0  0  0
    0.3431   -3.0075    0.5584 C   0  0  0  0  0  0  0  0  0  0  0  0
  1  5  1  0
  1  9  1  0
  2  5  1  0
  3  6  1  0
  3 12  1  0
  4  9  2  0
  5  6  1  0
  5  7  1  0
  6  8  2  0
  7 10  1  0
  7 11  2  0
  8  9  1  0
M  END
>  <PUBCHEM_COMPOUND_CID>  (1) 
4728

>  <PUBCHEM_CONFORMER_RMSD>  (1) 
0.6

>  <PUBCHEM_CONFORMER_DIVERSEORDER>  (1) 
1
3
4
2
5

>  <PUBCHEM_MMFF94_PARTIAL_CHARGES>  (1) 
16
1 -0.43
10 0.14
11 -0.3
12 0.28
13 0.15
17 0.4
18 0.15
19 0.15
2 -0.68
3 -0.36
4 -0.57
5 0.84
6 -0.06
7 -0.28
8 -0.14
9 0.71

>  <PUBCHEM_EFFECTIVE_ROTOR_COUNT>  (1) 
2.4

>  <PUBCHEM_PHARMACOPHORE_FEATURES>  (1) 
5
1 2 acceptor
1 2 donor
1 3 acceptor
1 4 acceptor
5 1 5 6 8 9 rings

>  <PUBCHEM_HEAVY_ATOM_COUNT>  (1) 
12

>  <PUBCHEM_ATOM_DEF_STEREO_COUNT>  (1) 
0

>  <PUBCHEM_ATOM_UDEF_STEREO_COUNT>  (1) 
1

>  <PUBCHEM_BOND_DEF_STEREO_COUNT>  (1) 
0

>  <PUBCHEM_BOND_UDEF_STEREO_COUNT>  (1) 
0

>  <PUBCHEM_ISOTOPIC_ATOM_COUNT>  (1) 
0

>  <PUBCHEM_COMPONENT_COUNT>  (1) 
1

>  <PUBCHEM_CACTVS_TAUTO_COUNT>  (1) 
1

>  <PUBCHEM_CONFORMER_ID>  (1) 
0000127800000001

>  <PUBCHEM_MMFF94_ENERGY>  (1) 
17.905

>  <PUBCHEM_FEATURE_SELFOVERLAP>  (1) 
25.373

>  <PUBCHEM_SHAPE_FINGERPRINT>  (1) 
12423570 1 8203823947055576829
13024252 1 14635966011925874788
137420 1 8642824090783167847
14817 1 10996937554563237931
16945 1 18194968435258183625
20653085 51 16199334073389465856
21040471 1 18338804519226865948
21061003 4 17832432999056539906
21922407 69 17915188914246763281
2748010 2 18336276707423964894
5084963 1 17917436358631554032
528862 383 18266452114112010946
68250623 7 17488765388012608487

>  <PUBCHEM_SHAPE_MULTIPOLES>  (1) 
223.48
2.85
2.27
1.23
1.15
1.65
0.06
-0.91
0.39
-1.76
0.34
0.61
-0.13
-0.1

>  <PUBCHEM_SHAPE_SELFOVERLAP>  (1) 
464.387

>  <PUBCHEM_SHAPE_VOLUME>  (1) 
128.8

>  <PUBCHEM_COORDINATE_TYPE>  (1) 
2
5
10

$$$$
