47288
     RDKit          3D

 22 25  0  0  0  0  0  0  0  0999 V2000
   -4.3102   -1.5069    1.0918 O   0  0  0  0  0  0  0  0  0  0  0  0
   -4.3045   -1.5282   -1.2013 N   0  0  0  0  0  0  0  0  0  0  0  0
    1.1505    0.3487    0.0016 C   0  0  0  0  0  0  0  0  0  0  0  0
    0.4585   -0.8872    0.0115 C   0  0  0  0  0  0  0  0  0  0  0  0
   -0.9471   -0.9217    0.0161 C   0  0  0  0  0  0  0  0  0  0  0  0
   -1.7125    0.2521    0.0119 C   0  0  0  0  0  0  0  0  0  0  0  0
   -1.0526    1.4943    0.0032 C   0  0  0  0  0  0  0  0  0  0  0  0
    2.5915    0.3470   -0.0035 C   0  0  0  0  0  0  0  0  0  0  0  0
    0.3551    1.5232   -0.0019 C   0  0  0  0  0  0  0  0  0  0  0  0
    3.2830   -0.8926    0.0025 C   0  0  0  0  0  0  0  0  0  0  0  0
    1.1744   -2.0873    0.0167 C   0  0  0  0  0  0  0  0  0  0  0  0
   -3.1174    0.2162    0.0168 C   0  0  0  0  0  0  0  0  0  0  0  0
    2.5650   -2.0904    0.0124 C   0  0  0  0  0  0  0  0  0  0  0  0
   -1.6100   -2.2752    0.0269 C   0  0  0  0  0  0  0  0  0  0  0  0
   -1.8150    2.6752   -0.0004 C   0  0  0  0  0  0  0  0  0  0  0  0
    3.3898    1.5187   -0.0147 C   0  0  0  0  0  0  0  0  0  0  0  0
   -3.8601    1.3966    0.0131 C   0  0  0  0  0  0  0  0  0  0  0  0
    4.6879   -0.9292   -0.0019 C   0  0  0  0  0  0  0  0  0  0  0  0
   -3.2092    2.6257    0.0044 C   0  0  0  0  0  0  0  0  0  0  0  0
    4.7864    1.4684   -0.0191 C   0  0  0  0  0  0  0  0  0  0  0  0
    5.4358    0.2439   -0.0127 C   0  0  0  0  0  0  0  0  0  0  0  0
   -3.9392   -0.9914    0.0264 C   0  0  0  0  0  0  0  0  0  0  0  0
  1 22  2  0
  2 22  1  0
  3  4  1  0
  3  8  1  0
  3  9  2  0
  4  5  2  0
  4 11  1  0
  5  6  1  0
  5 14  1  0
  6  7  2  0
  6 12  1  0
  7  9  1  0
  7 15  1  0
  8 10  2  0
  8 16  1  0
 10 13  1  0
 10 18  1  0
 11 13  2  0
 12 17  2  0
 12 22  1  0
 15 19  2  0
 16 20  2  0
 17 19  1  0
 18 21  2  0
 20 21  1  0
M  END
>  <PUBCHEM_COMPOUND_CID>  (1) 
47288

>  <PUBCHEM_CONFORMER_RMSD>  (1) 
0.6

>  <PUBCHEM_CONFORMER_DIVERSEORDER>  (1) 
1
2

>  <PUBCHEM_MMFF94_PARTIAL_CHARGES>  (1) 
28
1 -0.57
11 -0.15
12 0.09
13 -0.15
14 0.14
15 -0.15
16 -0.15
17 -0.15
18 -0.15
19 -0.15
2 -0.8
20 -0.15
21 -0.15
22 0.54
23 0.15
24 0.15
25 0.15
29 0.15
30 0.15
31 0.15
32 0.15
33 0.15
34 0.15
35 0.15
36 0.37
37 0.37
5 -0.14
9 -0.15

>  <PUBCHEM_EFFECTIVE_ROTOR_COUNT>  (1) 
1

>  <PUBCHEM_PHARMACOPHORE_FEATURES>  (1) 
6
1 1 acceptor
1 2 donor
6 3 4 5 6 7 9 rings
6 3 4 8 10 11 13 rings
6 6 7 12 15 17 19 rings
6 8 10 16 18 20 21 rings

>  <PUBCHEM_HEAVY_ATOM_COUNT>  (1) 
22

>  <PUBCHEM_ATOM_DEF_STEREO_COUNT>  (1) 
0

>  <PUBCHEM_ATOM_UDEF_STEREO_COUNT>  (1) 
0

>  <PUBCHEM_BOND_DEF_STEREO_COUNT>  (1) 
0

>  <PUBCHEM_BOND_UDEF_STEREO_COUNT>  (1) 
0

>  <PUBCHEM_ISOTOPIC_ATOM_COUNT>  (1) 
0

>  <PUBCHEM_COMPONENT_COUNT>  (1) 
1

>  <PUBCHEM_CACTVS_TAUTO_COUNT>  (1) 
2

>  <PUBCHEM_CONFORMER_ID>  (1) 
0000B8B800000001

>  <PUBCHEM_MMFF94_ENERGY>  (1) 
105.4232

>  <PUBCHEM_FEATURE_SELFOVERLAP>  (1) 
30.519

>  <PUBCHEM_SHAPE_FINGERPRINT>  (1) 
10319926 262 18339625764994007666
10411042 1 17834114525639491386
10498660 4 18409446947247457076
10608611 8 18338516339795676104
10616163 171 18411700967427216087
10646746 165 18410856517170262052
10670039 82 18188788205701911764
10967382 1 18338517567971531048
11578080 2 14044370379087432433
12107183 9 17759799239471517552
12236239 1 17894348878787345568
12390115 104 18200049351341518144
12403259 226 18412820287782154664
12403259 415 18202560705373040544
12403260 363 18409161126159195744
12553582 1 18340196514038351459
13140716 1 17977954810375190043
13224815 77 18409451366615446944
138480 1 17401768523599286826
13862211 1 18411132580235283886
14223421 5 18338520733336074015
14787075 74 18340768242714735976
14790565 3 18411708676967664265
15196674 1 18410575059325830792
15536298 74 18341613660030233126
16087824 20 18339640042072454141
16945 1 18338517564124885185
17349148 13 17967817162737829032
17492 89 18338235955583150226
18681886 176 18413103975389261112
19591789 44 18411980282214601456
200 152 18272647960981885023
20510252 161 18342460322274596089
20715895 44 17903629683906235117
21236236 1 18412545405258035137
21267235 1 18410301323637945198
21279426 13 18268153063681125038
21709351 56 18334854996414292756
221490 88 18338805502969743834
22393880 68 18338803286887652966
23227448 37 18412543202171797812
2334 1 18410856521386043025
23366157 5 17969789566682282098
23402539 116 18412537721582453541
23557571 272 18272378576744242788
23558518 356 18187656760327319755
23559900 14 18054505812342103310
2748010 2 18339080372312782845
2871803 45 18408880750367143278
335352 9 18122344580200555310
34934 24 18336542699613201137
350125 39 18411141341778650784
3545911 37 18337675208899965756
4214541 1 18410575050599077448
474 4 17531535381801854628
5104073 3 18410291368151284080
7097593 13 17392748181496649058
77779 3 18410857625208598756
9709674 26 18411424977377196846

>  <PUBCHEM_SHAPE_MULTIPOLES>  (1) 
441.9
9.99
2.79
0.7
4.94
0.36
-0.02
0.44
-0.1
-1.57
0
-0.36
-0.14
-0.06

>  <PUBCHEM_SHAPE_SELFOVERLAP>  (1) 
1013.247

>  <PUBCHEM_SHAPE_VOLUME>  (1) 
230.3

>  <PUBCHEM_COORDINATE_TYPE>  (1) 
2
5
10

$$$$
