47294
     RDKit          3D

 14 15  0  0  1  0  0  0  0  0999 V2000
   -2.9028   -1.4621    1.0188 O   0  0  0  0  0  0  0  0  0  0  0  0
   -0.7018    0.6393    0.4315 N   0  0  0  0  0  0  0  0  0  0  0  0
    1.5759    0.8536   -0.2353 N   0  0  0  0  0  0  0  0  0  0  0  0
   -1.7993   -2.3346   -0.8019 N   0  0  0  0  0  0  0  0  0  0  0  0
    3.2916   -2.3127   -0.2740 N   0  0  0  0  0  0  0  0  0  0  0  0
    0.2537    1.4761   -0.2936 C   0  0  0  0  0  0  0  0  0  0  0  0
   -1.7194    0.0118   -0.3986 C   0  0  0  0  0  0  0  0  0  0  0  0
   -2.0319    1.2313    0.4020 C   0  0  0  0  0  0  0  0  0  0  0  0
    1.5697   -0.4772    0.3544 C   0  0  0  0  0  0  0  0  0  0  0  0
    2.0161    0.7067    1.1450 C   0  0  0  0  0  0  0  0  0  0  0  0
   -0.1874    1.6199   -1.7545 C   0  0  0  0  0  0  0  0  0  0  0  0
    0.3222    2.8485    0.3817 C   0  0  0  0  0  0  0  0  0  0  0  0
   -2.2080   -1.3089    0.0173 C   0  0  0  0  0  0  0  0  0  0  0  0
    2.5214   -1.4917    0.0071 C   0  0  0  0  0  0  0  0  0  0  0  0
  1 13  2  0
  2  6  1  0
  2  7  1  0
  2  8  1  0
  3  6  1  0
  3  9  1  0
  3 10  1  0
  4 13  1  0
  5 14  3  0
  6 11  1  0
  6 12  1  0
  7  8  1  0
  7 13  1  0
  9 10  1  0
  9 14  1  0
M  END
>  <PUBCHEM_COMPOUND_CID>  (1) 
47294

>  <PUBCHEM_CONFORMER_RMSD>  (1) 
0.6

>  <PUBCHEM_CONFORMER_DIVERSEORDER>  (1) 
1
24
32
16
58
45
11
28
19
37
46
23
4
26
56
25
17
39
10
6
35
3
41
15
34
12
50
8
49
18
43
22
13
36
2
40
29
27
52
33
21
5
55
47
14
51
9
42
38
20
59
7
48
44
57
30
54
53
31

>  <PUBCHEM_MMFF94_PARTIAL_CHARGES>  (1) 
20
1 -0.57
10 -0.04
13 0.63
14 0.45
15 0.1
16 0.1
17 0.1
18 0.1
19 0.1
2 -0.59
20 0.1
27 0.37
28 0.37
3 -0.59
4 -0.8
5 -0.56
6 0.54
7 0.06
8 -0.04
9 0.16

>  <PUBCHEM_EFFECTIVE_ROTOR_COUNT>  (1) 
4.2

>  <PUBCHEM_PHARMACOPHORE_FEATURES>  (1) 
6
1 1 acceptor
1 2 cation
1 3 cation
1 4 donor
1 5 acceptor
3 6 11 12 hydrophobe

>  <PUBCHEM_HEAVY_ATOM_COUNT>  (1) 
14

>  <PUBCHEM_ATOM_DEF_STEREO_COUNT>  (1) 
0

>  <PUBCHEM_ATOM_UDEF_STEREO_COUNT>  (1) 
2

>  <PUBCHEM_BOND_DEF_STEREO_COUNT>  (1) 
0

>  <PUBCHEM_BOND_UDEF_STEREO_COUNT>  (1) 
0

>  <PUBCHEM_ISOTOPIC_ATOM_COUNT>  (1) 
0

>  <PUBCHEM_COMPONENT_COUNT>  (1) 
1

>  <PUBCHEM_CACTVS_TAUTO_COUNT>  (1) 
2

>  <PUBCHEM_CONFORMER_ID>  (1) 
0000B8BE00000001

>  <PUBCHEM_MMFF94_ENERGY>  (1) 
54.9498

>  <PUBCHEM_FEATURE_SELFOVERLAP>  (1) 
30.481

>  <PUBCHEM_SHAPE_FINGERPRINT>  (1) 
13024252 1 14348363289389040004
14817 1 13880694732797025110
15001771 113 18409173190268734080
16945 1 18196647617046960833
17990270 104 18336541741292090891
20645476 183 16954791818127410754
20645477 70 17902781204969937879
20711985 344 17970051267159615261
20871998 184 18198626527465570486
20871998 22 18408324414436472163
21256008 148 17973151842768808542
22445834 79 18197508526362196947
22713019 99 18053084143627645029
22721475 48 18197218049060382110
23530152 11 17184473655355897988
23552423 10 18121785199222440933
2748010 2 18411127022431214054
598444 67 17479465542676844782
7364860 26 18195813091974339144
81228 2 18189882141618286769

>  <PUBCHEM_SHAPE_MULTIPOLES>  (1) 
262.32
4.04
2.9
1.1
1.22
0
0.25
3.41
-0.55
0.05
0.26
-0.14
-0.31
0.35

>  <PUBCHEM_SHAPE_SELFOVERLAP>  (1) 
537.051

>  <PUBCHEM_SHAPE_VOLUME>  (1) 
152.9

>  <PUBCHEM_COORDINATE_TYPE>  (1) 
2
5
10

$$$$
