47306
     RDKit          3D

 18 19  0  0  0  0  0  0  0  0999 V2000
   -1.2405   -1.4624   -0.1593 S   0  0  0  0  0  0  0  0  0  0  0  0
    1.8031   -1.3963   -0.1497 S   0  0  0  0  0  0  0  0  0  0  0  0
    5.2163    0.6164    0.0676 O   0  0  0  0  0  0  0  0  0  0  0  0
    4.7761   -1.6322   -0.1758 O   0  0  0  0  0  0  0  0  0  0  0  0
   -1.1975    1.0838    0.1233 N   0  0  0  0  0  0  0  0  0  0  0  0
    0.1287    0.6901    0.0821 N   0  0  0  0  0  0  0  0  0  0  0  0
   -3.4546    0.1254    0.0122 C   0  0  0  0  0  0  0  0  0  0  0  0
   -2.0135    0.0589    0.0078 C   0  0  0  0  0  0  0  0  0  0  0  0
   -4.0975    1.3304   -0.2713 C   0  0  0  0  0  0  0  0  0  0  0  0
   -4.2049   -1.0145    0.3009 C   0  0  0  0  0  0  0  0  0  0  0  0
    2.9685   -0.0029    0.0039 C   0  0  0  0  0  0  0  0  0  0  0  0
   -5.4911    1.3954   -0.2665 C   0  0  0  0  0  0  0  0  0  0  0  0
   -5.5984   -0.9494    0.3059 C   0  0  0  0  0  0  0  0  0  0  0  0
    0.2463   -0.6126   -0.0622 C   0  0  0  0  0  0  0  0  0  0  0  0
   -6.2416    0.2555    0.0219 C   0  0  0  0  0  0  0  0  0  0  0  0
    6.6212    0.3436    0.0344 C   0  0  0  0  0  0  0  0  0  0  0  0
    4.3995   -0.4754   -0.0491 C   0  0  0  0  0  0  0  0  0  0  0  0
    7.3799    1.6461    0.1741 C   0  0  0  0  0  0  0  0  0  0  0  0
  1  8  1  0
  1 14  1  0
  2 11  1  0
  2 14  1  0
  3 16  1  0
  3 17  1  0
  4 17  2  0
  5  6  1  0
  5  8  2  0
  6 14  2  0
  7  8  1  0
  7  9  2  0
  7 10  1  0
  9 12  1  0
 10 13  2  0
 11 17  1  0
 12 15  2  0
 13 15  1  0
 16 18  1  0
M  END
>  <PUBCHEM_COMPOUND_CID>  (1) 
47306

>  <PUBCHEM_CONFORMER_RMSD>  (1) 
0.8

>  <PUBCHEM_CONFORMER_DIVERSEORDER>  (1) 
1
27
15
2
61
33
34
78
52
56
43
32
79
35
42
72
66
53
23
40
45
64
5
11
38
3
51
25
54
57
55
80
31
50
76
70
71
77
59
20
75
19
37
18
73
60
6
39
47
28
10
21
8
49
36
67
4
46
14
22
30
9
16
41
17
81
13
69
62
24
7
74
68
65
48
26
12
44
63
29
58

>  <PUBCHEM_MMFF94_PARTIAL_CHARGES>  (1) 
22
1 -0.08
10 -0.15
11 0.29
12 -0.15
13 -0.15
14 0.43
15 -0.15
16 0.28
17 0.66
19 0.15
2 -0.29
20 0.15
23 0.15
24 0.15
27 0.15
3 -0.43
4 -0.57
5 -0.34
6 -0.34
7 0.05
8 0.33
9 -0.15

>  <PUBCHEM_EFFECTIVE_ROTOR_COUNT>  (1) 
6

>  <PUBCHEM_PHARMACOPHORE_FEATURES>  (1) 
5
1 4 acceptor
1 5 acceptor
1 6 acceptor
5 1 5 6 8 14 rings
6 7 9 10 12 13 15 rings

>  <PUBCHEM_HEAVY_ATOM_COUNT>  (1) 
18

>  <PUBCHEM_ATOM_DEF_STEREO_COUNT>  (1) 
0

>  <PUBCHEM_ATOM_UDEF_STEREO_COUNT>  (1) 
0

>  <PUBCHEM_BOND_DEF_STEREO_COUNT>  (1) 
0

>  <PUBCHEM_BOND_UDEF_STEREO_COUNT>  (1) 
0

>  <PUBCHEM_ISOTOPIC_ATOM_COUNT>  (1) 
0

>  <PUBCHEM_COMPONENT_COUNT>  (1) 
1

>  <PUBCHEM_CACTVS_TAUTO_COUNT>  (1) 
1

>  <PUBCHEM_CONFORMER_ID>  (1) 
0000B8CA00000001

>  <PUBCHEM_MMFF94_ENERGY>  (1) 
29.7124

>  <PUBCHEM_FEATURE_SELFOVERLAP>  (1) 
26.865

>  <PUBCHEM_SHAPE_FINGERPRINT>  (1) 
10 15 18259983803950468224
10411042 1 17833551576635830843
10638233 991 16200431403363474416
10835480 77 18337104575629918765
10968037 39 18413951689799942607
11315181 36 18272934930187229033
12091667 2 18410856577389513875
12236239 1 18186800262091300186
13073987 5 18041561339120148779
13533116 47 14045472098665554142
14123256 10 17846499236284162384
14251718 22 18410856555629814907
14251732 16 18408886256351712426
14251764 18 17967532398143217500
14251764 46 14996283621921980289
14933364 13 18411702084466716652
15048467 5 18410573980951565836
15183329 4 10807942552256684006
17093844 174 17530964683875078729
18335252 98 18412549837701643210
19489759 90 17530685398909487929
20281389 69 18333166163923782020
21150785 3 17489300910631886125
21267235 1 18335708265346711987
220451 1 15841550760374955927
22224240 67 15574712526326066992
22896161 15 18411136969807781527
23198884 109 14908184157181854874
23402539 116 18410007732895862631
23536379 177 18333449815857964330
23559900 14 18342170102792145033
2916195 48 18408039606586108714
300161 21 17748821887278940859
3004659 81 18335704893512775250
34797466 226 17703798024250885156
3545911 37 18412826898152963358
4073 2 18041003981499522922
42788 4 18409730642600725951
4325135 7 18411418431572335190
4463277 17 18411138030321539432
5104073 3 18188777128284825571
59682541 35 18335990860903718619
59755656 520 17603580855089165370
67856867 119 18114750446329095893

>  <PUBCHEM_SHAPE_MULTIPOLES>  (1) 
356.43
19.06
1.61
0.63
20
0.02
0.01
-6.54
-0.74
0.31
0.05
-0.11
0.02
0.56

>  <PUBCHEM_SHAPE_SELFOVERLAP>  (1) 
717.738

>  <PUBCHEM_SHAPE_VOLUME>  (1) 
210.1

>  <PUBCHEM_COORDINATE_TYPE>  (1) 
2
5
10

$$$$
