47300
     RDKit          3D

 17 19  0  0  0  0  0  0  0  0999 V2000
   -0.7481    2.9357    0.0016 Cl  0  0  0  0  0  0  0  0  0  0  0  0
   -2.8502   -2.9657   -0.0001 Cl  0  0  0  0  0  0  0  0  0  0  0  0
   -3.9326    2.3059   -0.0019 Cl  0  0  0  0  0  0  0  0  0  0  0  0
    4.6986    1.6268   -0.0004 Cl  0  0  0  0  0  0  0  0  0  0  0  0
    0.0833   -1.9184    0.0002 O   0  0  0  0  0  0  0  0  0  0  0  0
   -0.4492    0.2795    0.0001 C   0  0  0  0  0  0  0  0  0  0  0  0
    0.9716    0.1613    0.0000 C   0  0  0  0  0  0  0  0  0  0  0  0
   -0.9420   -1.0217    0.0002 C   0  0  0  0  0  0  0  0  0  0  0  0
    1.2427   -1.2034   -0.0001 C   0  0  0  0  0  0  0  0  0  0  0  0
   -1.3700    1.3435    0.0002 C   0  0  0  0  0  0  0  0  0  0  0  0
    2.0555    1.0586    0.0000 C   0  0  0  0  0  0  0  0  0  0  0  0
   -2.2981   -1.3441    0.0004 C   0  0  0  0  0  0  0  0  0  0  0  0
    2.5267   -1.7454   -0.0003 C   0  0  0  0  0  0  0  0  0  0  0  0
   -2.7404    1.0503    0.0000 C   0  0  0  0  0  0  0  0  0  0  0  0
   -3.1937   -0.2708    0.0004 C   0  0  0  0  0  0  0  0  0  0  0  0
    3.3585    0.5429    0.0000 C   0  0  0  0  0  0  0  0  0  0  0  0
    3.5874   -0.8349   -0.0004 C   0  0  0  0  0  0  0  0  0  0  0  0
  1 10  1  0
  2 12  1  0
  3 14  1  0
  4 16  1  0
  5  8  1  0
  5  9  1  0
  6  7  1  0
  6  8  2  0
  6 10  1  0
  7  9  2  0
  7 11  1  0
  8 12  1  0
  9 13  1  0
 10 14  2  0
 11 16  2  0
 12 15  2  0
 13 17  2  0
 14 15  1  0
 16 17  1  0
M  END
>  <PUBCHEM_COMPOUND_CID>  (1) 
47300

>  <PUBCHEM_CONFORMER_RMSD>  (1) 
0.4

>  <PUBCHEM_CONFORMER_DIVERSEORDER>  (1) 
1

>  <PUBCHEM_MMFF94_PARTIAL_CHARGES>  (1) 
19
1 -0.18
10 0.18
11 -0.15
12 0.18
13 -0.15
14 0.18
15 -0.15
16 0.18
17 -0.15
18 0.15
19 0.15
2 -0.18
20 0.15
21 0.15
3 -0.18
4 -0.18
5 -0.28
8 0.14
9 0.14

>  <PUBCHEM_EFFECTIVE_ROTOR_COUNT>  (1) 
0

>  <PUBCHEM_PHARMACOPHORE_FEATURES>  (1) 
4
1 5 acceptor
5 5 6 7 8 9 rings
6 6 8 10 12 14 15 rings
6 7 9 11 13 16 17 rings

>  <PUBCHEM_HEAVY_ATOM_COUNT>  (1) 
17

>  <PUBCHEM_ATOM_DEF_STEREO_COUNT>  (1) 
0

>  <PUBCHEM_ATOM_UDEF_STEREO_COUNT>  (1) 
0

>  <PUBCHEM_BOND_DEF_STEREO_COUNT>  (1) 
0

>  <PUBCHEM_BOND_UDEF_STEREO_COUNT>  (1) 
0

>  <PUBCHEM_ISOTOPIC_ATOM_COUNT>  (1) 
0

>  <PUBCHEM_COMPONENT_COUNT>  (1) 
1

>  <PUBCHEM_CACTVS_TAUTO_COUNT>  (1) 
1

>  <PUBCHEM_CONFORMER_ID>  (1) 
0000B8C400000001

>  <PUBCHEM_MMFF94_ENERGY>  (1) 
34.6121

>  <PUBCHEM_FEATURE_SELFOVERLAP>  (1) 
20.499

>  <PUBCHEM_SHAPE_FINGERPRINT>  (1) 
10411042 1 17834114530055557099
10493431 412 18341341002885703713
10498660 4 18410295813405959724
10608611 8 18411697664839984472
10616163 171 18411703222443321582
10967382 1 18266459797824074247
11132069 177 18410289203192600872
12173636 292 18266175037551252221
12390115 104 18270699648243186432
12553582 1 18051406563667243455
13140716 1 18336546027638018370
13214271 11 18341609364593484364
13380535 76 18269552732950243831
138480 1 16681191415267919147
14787075 74 17681837637191269138
14790565 3 18124884452093269169
15196674 1 18410855438711458020
15309172 13 18195255408146480729
15442244 35 18193554459321392626
15536298 74 18341614798333801054
16945 1 18266459793555740551
17492 89 18409166610590755762
18186145 218 18270122288463126604
193761 8 16753250739861318662
19591789 44 15525467968191153651
20510252 161 18341898527609192738
21267235 1 18410020930803134530
21501502 16 18410007724005351314
2334 1 18338799021547427139
23366157 5 18113902611891197578
23402539 116 18268985565233481966
23463225 33 18408040697776820742
23557571 272 18271817851378133052
23558518 356 18187932814918575026
23559900 14 18270960138420859434
238 59 15949324598177896093
2748010 2 18412825819467468551
3312278 4 18411983589154686186
335352 9 18194401083000330942
34934 24 18409442600808787343
474 4 17604157016525103452
5104073 3 18409729556306173962
69090 78 18338231545072827381
7097593 13 17826778258105342002
7364860 26 18125158238903920334
7832392 63 18410292484584317348
8809292 202 18336270054498667379
9709674 26 18342460300884428414

>  <PUBCHEM_SHAPE_MULTIPOLES>  (1) 
351.46
7.27
3.13
0.62
4.1
0.06
0
1.97
0
-2.28
0
-0.01
0.02
0

>  <PUBCHEM_SHAPE_SELFOVERLAP>  (1) 
754.498

>  <PUBCHEM_SHAPE_VOLUME>  (1) 
199.4

>  <PUBCHEM_COORDINATE_TYPE>  (1) 
2
5
10

$$$$
