47302
     RDKit          3D

 20 23  0  0  0  0  0  0  0  0999 V2000
   -0.7581    0.6846   -0.0006 O   0  0  0  0  0  0  0  0  0  0  0  0
   -2.1600    2.5108   -0.0002 O   0  0  0  0  0  0  0  0  0  0  0  0
   -5.1329   -1.5393    0.0004 N   0  0  0  0  0  0  0  0  0  0  0  0
    1.6306    0.6526    0.0002 C   0  0  0  0  0  0  0  0  0  0  0  0
    2.9205   -1.1248    1.2656 C   0  0  0  0  0  0  0  0  0  0  0  0
    2.9097   -1.1403   -1.2545 C   0  0  0  0  0  0  0  0  0  0  0  0
    4.1654    0.6562   -0.0108 C   0  0  0  0  0  0  0  0  0  0  0  0
    1.6605   -0.2418    1.2623 C   0  0  0  0  0  0  0  0  0  0  0  0
    1.6496   -0.2572   -1.2509 C   0  0  0  0  0  0  0  0  0  0  0  0
    2.9018    1.5344   -0.0110 C   0  0  0  0  0  0  0  0  0  0  0  0
    2.9189   -2.0139    0.0110 C   0  0  0  0  0  0  0  0  0  0  0  0
    4.1683   -0.2263    1.2483 C   0  0  0  0  0  0  0  0  0  0  0  0
    4.1575   -0.2418   -1.2590 C   0  0  0  0  0  0  0  0  0  0  0  0
    0.3757    1.5297    0.0002 C   0  0  0  0  0  0  0  0  0  0  0  0
   -1.9747    1.3036   -0.0008 C   0  0  0  0  0  0  0  0  0  0  0  0
   -3.0783    0.3104   -0.0003 C   0  0  0  0  0  0  0  0  0  0  0  0
   -4.3787    0.7578    0.0009 C   0  0  0  0  0  0  0  0  0  0  0  0
   -2.7696   -1.0298   -0.0011 C   0  0  0  0  0  0  0  0  0  0  0  0
   -5.3718   -0.2086    0.0012 C   0  0  0  0  0  0  0  0  0  0  0  0
   -3.8345   -1.9162   -0.0007 C   0  0  0  0  0  0  0  0  0  0  0  0
  1 14  1  0
  1 15  1  0
  2 15  2  0
  3 19  2  0
  3 20  1  0
  4  8  1  0
  4  9  1  0
  4 10  1  0
  4 14  1  0
  5  8  1  0
  5 11  1  0
  5 12  1  0
  6  9  1  0
  6 11  1  0
  6 13  1  0
  7 10  1  0
  7 12  1  0
  7 13  1  0
 15 16  1  0
 16 17  2  0
 16 18  1  0
 17 19  1  0
 18 20  2  0
M  END
>  <PUBCHEM_COMPOUND_CID>  (1) 
47302

>  <PUBCHEM_CONFORMER_RMSD>  (1) 
0.8

>  <PUBCHEM_CONFORMER_DIVERSEORDER>  (1) 
1
5
3
4
6
2

>  <PUBCHEM_MMFF94_PARTIAL_CHARGES>  (1) 
14
1 -0.43
14 0.28
15 0.63
16 0.09
17 -0.15
18 -0.15
19 0.16
2 -0.57
20 0.16
3 -0.62
38 0.15
39 0.15
40 0.15
41 0.15

>  <PUBCHEM_EFFECTIVE_ROTOR_COUNT>  (1) 
5.2

>  <PUBCHEM_PHARMACOPHORE_FEATURES>  (1) 
7
1 2 acceptor
1 3 acceptor
6 3 16 17 18 19 20 rings
6 4 5 6 8 9 11 rings
6 4 5 7 8 10 12 rings
6 4 6 7 9 10 13 rings
6 5 6 7 11 12 13 rings

>  <PUBCHEM_HEAVY_ATOM_COUNT>  (1) 
20

>  <PUBCHEM_ATOM_DEF_STEREO_COUNT>  (1) 
0

>  <PUBCHEM_ATOM_UDEF_STEREO_COUNT>  (1) 
0

>  <PUBCHEM_BOND_DEF_STEREO_COUNT>  (1) 
0

>  <PUBCHEM_BOND_UDEF_STEREO_COUNT>  (1) 
0

>  <PUBCHEM_ISOTOPIC_ATOM_COUNT>  (1) 
0

>  <PUBCHEM_COMPONENT_COUNT>  (1) 
1

>  <PUBCHEM_CACTVS_TAUTO_COUNT>  (1) 
1

>  <PUBCHEM_CONFORMER_ID>  (1) 
0000B8C600000001

>  <PUBCHEM_MMFF94_ENERGY>  (1) 
56.1207

>  <PUBCHEM_FEATURE_SELFOVERLAP>  (1) 
48.039

>  <PUBCHEM_SHAPE_FINGERPRINT>  (1) 
10447042 23 18260816120597834774
10616163 171 18411703205406020031
108634 29 17969795252791948586
11552529 35 16916221229873053303
11578080 2 17532346756405386676
11961588 58 17751380558759513412
12107183 9 17759799247950909729
12236239 1 17749389252052359104
12553582 1 18341886428928925887
12788726 201 18409735023889712329
128620 24 17240203239802187221
13134695 92 14779265302782241486
13167823 11 18334011692343790155
13224815 77 18412262826453435499
13464513 79 18272934951192385076
13911882 115 18060426832665306262
14178342 30 18195236720553936864
14252887 29 17846503629687423020
14386348 63 18131354107127084447
14576447 43 18259987076298738170
15183329 4 18335693928740460613
15196674 1 18410575076505946823
15342816 4 18187647981451063932
15352361 1 18411419540201333439
15537594 2 18260559913393748619
15788980 27 16950558865837732949
15880784 105 16343698855026258455
16752209 62 18189603974425439233
17349148 13 16660639639968409872
17492 89 18336826394692975771
1813 80 17894355492710122829
19141452 34 18131072675691007455
19862831 5 17313103042688493833
200 152 16732980916606729349
20261772 1 17775282798199956391
20281475 54 18337674117967489249
20403669 9 18411982481654672887
20645477 70 18411139164229945989
21033648 29 16630233715312009873
21250096 35 18411980273846180481
21267235 1 18409455781841944186
21521721 280 16773799230090855350
2215653 11 18273209786445146421
22646028 1 18113335306191656425
22646028 28 18334573551391394571
22854114 59 16702018681958350997
23557571 272 18272370828344192056
23559900 14 18271248213981413804
239999 70 18272093820570747580
2871803 45 18408887338657032351
3004659 81 18260831505439461117
3060560 45 14201394980598055176
314173 41 18410298046667478185
339767 52 18335128809058557491
4214541 1 18410856530092405413
474 4 17387144258993700572
4921388 177 15502665944357309603
5104073 3 18130788897709525778
5161694 15 12324242745627854224
9709674 26 18408609175232190139

>  <PUBCHEM_SHAPE_MULTIPOLES>  (1) 
394.87
11.1
1.97
1.1
10.31
0.08
0
-2.91
0
0.77
0
-1.42
-0.26
0

>  <PUBCHEM_SHAPE_SELFOVERLAP>  (1) 
866.979

>  <PUBCHEM_SHAPE_VOLUME>  (1) 
205.4

>  <PUBCHEM_COORDINATE_TYPE>  (1) 
2
5
10

$$$$
