47307
     RDKit          3D

 20 21  0  0  0  0  0  0  0  0999 V2000
   -1.6345    1.0442   -0.1052 S   0  0  0  0  0  0  0  0  0  0  0  0
    1.3323    1.1974   -0.1212 S   0  0  0  0  0  0  0  0  0  0  0  0
   -5.0443   -0.8732    0.0756 O   0  0  0  0  0  0  0  0  0  0  0  0
   -1.6990    1.8701    1.0877 O   0  0  0  0  0  0  0  0  0  0  0  0
   -1.7244    1.6246   -1.4331 O   0  0  0  0  0  0  0  0  0  0  0  0
   -4.5600    1.3751   -0.0933 O   0  0  0  0  0  0  0  0  0  0  0  0
    0.1109   -1.0441    0.1038 N   0  0  0  0  0  0  0  0  0  0  0  0
    1.4605   -1.3489    0.1346 N   0  0  0  0  0  0  0  0  0  0  0  0
   -2.7890   -0.2796    0.0285 C   0  0  0  0  0  0  0  0  0  0  0  0
   -0.0426    0.2227   -0.0234 C   0  0  0  0  0  0  0  0  0  0  0  0
    2.2070   -0.2707    0.0262 C   0  0  0  0  0  0  0  0  0  0  0  0
   -4.2105    0.2063   -0.0060 C   0  0  0  0  0  0  0  0  0  0  0  0
    3.6480   -0.2413    0.0226 C   0  0  0  0  0  0  0  0  0  0  0  0
    4.3692   -1.3980   -0.2768 C   0  0  0  0  0  0  0  0  0  0  0  0
    4.3240    0.9429    0.3194 C   0  0  0  0  0  0  0  0  0  0  0  0
   -6.4440   -0.5745    0.0545 C   0  0  0  0  0  0  0  0  0  0  0  0
    5.7641   -1.3703   -0.2797 C   0  0  0  0  0  0  0  0  0  0  0  0
    5.7187    0.9705    0.3166 C   0  0  0  0  0  0  0  0  0  0  0  0
    6.4388   -0.1860    0.0168 C   0  0  0  0  0  0  0  0  0  0  0  0
   -7.2255   -1.8673    0.1522 C   0  0  0  0  0  0  0  0  0  0  0  0
  1  4  2  0
  1  5  2  0
  1  9  1  0
  1 10  1  0
  2 10  1  0
  2 11  1  0
  3 12  1  0
  3 16  1  0
  6 12  2  0
  7  8  1  0
  7 10  2  0
  8 11  2  0
  9 12  1  0
 11 13  1  0
 13 14  2  0
 13 15  1  0
 14 17  1  0
 15 18  2  0
 16 20  1  0
 17 19  2  0
 18 19  1  0
M  END
>  <PUBCHEM_COMPOUND_CID>  (1) 
47307

>  <PUBCHEM_CONFORMER_RMSD>  (1) 
0.8

>  <PUBCHEM_CONFORMER_DIVERSEORDER>  (1) 
1
41
30
12
62
37
4
49
13
42
48
60
14
16
28
50
63
53
15
55
56
47
9
51
34
38
46
57
20
3
59
45
40
44
54
29
11
10
61
31
58
32
17
6
24
43
22
25
33
8
23
39
52
2
5
36
7
18
21
35
19
27
26

>  <PUBCHEM_MMFF94_PARTIAL_CHARGES>  (1) 
24
1 1.26
10 0.32
11 0.33
12 0.66
13 0.05
14 -0.15
15 -0.15
16 0.28
17 -0.15
18 -0.15
19 -0.15
2 -0.08
23 0.15
24 0.15
27 0.15
28 0.15
29 0.15
3 -0.43
4 -0.65
5 -0.65
6 -0.57
7 -0.34
8 -0.34
9 0.17

>  <PUBCHEM_EFFECTIVE_ROTOR_COUNT>  (1) 
6

>  <PUBCHEM_PHARMACOPHORE_FEATURES>  (1) 
7
1 4 acceptor
1 5 acceptor
1 6 acceptor
1 7 acceptor
1 8 acceptor
5 2 7 8 10 11 rings
6 13 14 15 17 18 19 rings

>  <PUBCHEM_HEAVY_ATOM_COUNT>  (1) 
20

>  <PUBCHEM_ATOM_DEF_STEREO_COUNT>  (1) 
0

>  <PUBCHEM_ATOM_UDEF_STEREO_COUNT>  (1) 
0

>  <PUBCHEM_BOND_DEF_STEREO_COUNT>  (1) 
0

>  <PUBCHEM_BOND_UDEF_STEREO_COUNT>  (1) 
0

>  <PUBCHEM_ISOTOPIC_ATOM_COUNT>  (1) 
0

>  <PUBCHEM_COMPONENT_COUNT>  (1) 
1

>  <PUBCHEM_CACTVS_TAUTO_COUNT>  (1) 
1

>  <PUBCHEM_CONFORMER_ID>  (1) 
0000B8CB00000001

>  <PUBCHEM_MMFF94_ENERGY>  (1) 
31.6564

>  <PUBCHEM_FEATURE_SELFOVERLAP>  (1) 
37.034

>  <PUBCHEM_SHAPE_FINGERPRINT>  (1) 
10 15 18262229032754685536
10366900 7 16225770688292436308
10968037 39 18334857230076783023
11287383 113 18412825776897428248
11524674 6 16271927138586309479
12107183 9 17406842778635582442
12166972 35 18334298673463994708
12236239 1 18272090478458670977
12403259 415 18336536149878154948
12516196 113 18272651268544657025
12730499 353 18131069334106308630
12916748 109 18130790040846071944
13073987 5 18131068174448937984
13288520 33 18409730660624536045
13533116 47 18271526485419326312
13685833 64 18411420626727962507
13862211 1 18261110759770594450
13885169 127 18410292489855451509
13968360 50 14707196721690521905
14123256 10 18040996250304766267
14178184 131 17985549094978473591
1420 363 18410295813004773003
14251732 16 18412544331647989040
14251764 18 18060423534420163747
14341114 176 18273496771516861268
14350574 20 18412544310273398804
15183329 4 10953731197061650383
15196674 1 18411981317534016736
15716309 27 18131350817461840455
17492 89 18056201263535608782
17834072 8 8862947177541331185
17844677 252 18341900670914411368
18006028 8 18060136549058623041
18222031 100 16877947126988198908
18335252 98 18341897415677061738
19489759 90 16226046669520412525
200 152 18343018878581935849
20645477 70 18200878358394079422
21150785 3 17822018618650411294
21267235 1 18341618117710505126
21521721 280 17846216704318320298
21623969 137 18060704978631009990
22079108 93 18272363200777173232
22224240 67 15697998548665857831
22896161 15 18410575114759563470
23035841 295 18342176674350505411
23402539 116 18202275896815711004
23557571 272 17895759482953725036
23559900 14 18338791325615165353
23622692 88 14692567732600114649
3009799 131 13984660365037678543
34797466 226 17131839798223638316
3545911 37 18413387640640809604
42788 4 18411981347482437904
4325135 7 18412545431180605644
4340502 62 15482674576469696684
4463277 17 18413670201648407065
474229 33 18411699889364245855
5104073 3 18129657487971624104
542803 24 15123504809737353784
59682541 35 18340481274933907192
59755656 215 18186803565016557714
7495541 125 17346590894337508640
9996256 80 18413670205611051950

>  <PUBCHEM_SHAPE_MULTIPOLES>  (1) 
385.85
18
1.73
0.75
11.23
0.02
0.07
-7.26
-0.71
0.68
0.01
0.1
0.21
0.53

>  <PUBCHEM_SHAPE_SELFOVERLAP>  (1) 
786.547

>  <PUBCHEM_SHAPE_VOLUME>  (1) 
224.8

>  <PUBCHEM_COORDINATE_TYPE>  (1) 
2
5
10

$$$$
