47315
     RDKit          3D

 17 17  0  0  0  0  0  0  0  0999 V2000
    0.2434    2.7196    0.6073 Cl  0  0  0  0  0  0  0  0  0  0  0  0
    0.2444   -2.7186    0.6085 Cl  0  0  0  0  0  0  0  0  0  0  0  0
    1.4417    0.0008    0.8838 O   0  0  0  0  0  0  0  0  0  0  0  0
   -4.5790    1.0991   -0.5042 O   0  0  0  0  0  0  0  0  0  0  0  0
   -4.5782   -1.1005   -0.5044 O   0  0  0  0  0  0  0  0  0  0  0  0
    1.9288   -0.0013   -1.4047 O   0  0  0  0  0  0  0  0  0  0  0  0
   -3.9912   -0.0004   -0.3687 N   0  0  0  0  0  0  0  0  0  0  0  0
    0.1112    0.0005    0.5770 C   0  0  0  0  0  0  0  0  0  0  0  0
   -2.6074   -0.0001   -0.0499 C   0  0  0  0  0  0  0  0  0  0  0  0
   -0.5687    1.2083    0.4198 C   0  0  0  0  0  0  0  0  0  0  0  0
   -0.5683   -1.2077    0.4207 C   0  0  0  0  0  0  0  0  0  0  0  0
   -1.9280    1.2080    0.1064 C   0  0  0  0  0  0  0  0  0  0  0  0
   -1.9276   -1.2079    0.1073 C   0  0  0  0  0  0  0  0  0  0  0  0
    2.2805    0.0005   -0.2352 C   0  0  0  0  0  0  0  0  0  0  0  0
    3.6828    0.0009    0.2388 C   0  0  0  0  0  0  0  0  0  0  0  0
    4.6870   -0.0007   -0.6472 C   0  0  0  0  0  0  0  0  0  0  0  0
    6.1283   -0.0005   -0.2553 C   0  0  0  0  0  0  0  0  0  0  0  0
  1 10  1  0
  2 11  1  0
  3  8  1  0
  3 14  1  0
  4  7  1  0
  5  7  2  0
  6 14  2  0
  7  9  1  0
  8 10  2  0
  8 11  1  0
  9 12  2  0
  9 13  1  0
 10 12  1  0
 11 13  2  0
 14 15  1  0
 15 16  2  0
 16 17  1  0
M  CHG  2   4  -1   7   1
M  END
>  <PUBCHEM_COMPOUND_CID>  (1) 
47315

>  <PUBCHEM_CONFORMER_RMSD>  (1) 
0.6

>  <PUBCHEM_CONFORMER_DIVERSEORDER>  (1) 
1
10
5
7
8
3
4
6
9
2

>  <PUBCHEM_MMFF94_PARTIAL_CHARGES>  (1) 
21
1 -0.18
10 0.18
11 0.18
12 -0.15
13 -0.15
14 0.71
15 -0.14
16 -0.29
17 0.14
18 0.15
19 0.15
2 -0.18
20 0.15
21 0.15
3 -0.23
4 -0.52
5 -0.52
6 -0.57
7 0.91
8 0.08
9 0.13

>  <PUBCHEM_EFFECTIVE_ROTOR_COUNT>  (1) 
4

>  <PUBCHEM_PHARMACOPHORE_FEATURES>  (1) 
6
1 17 hydrophobe
1 4 acceptor
1 4 anion
1 5 acceptor
1 6 acceptor
6 8 9 10 11 12 13 rings

>  <PUBCHEM_HEAVY_ATOM_COUNT>  (1) 
17

>  <PUBCHEM_ATOM_DEF_STEREO_COUNT>  (1) 
0

>  <PUBCHEM_ATOM_UDEF_STEREO_COUNT>  (1) 
0

>  <PUBCHEM_BOND_DEF_STEREO_COUNT>  (1) 
0

>  <PUBCHEM_BOND_UDEF_STEREO_COUNT>  (1) 
1

>  <PUBCHEM_ISOTOPIC_ATOM_COUNT>  (1) 
0

>  <PUBCHEM_COMPONENT_COUNT>  (1) 
1

>  <PUBCHEM_CACTVS_TAUTO_COUNT>  (1) 
1

>  <PUBCHEM_CONFORMER_ID>  (1) 
0000B8D300000001

>  <PUBCHEM_MMFF94_ENERGY>  (1) 
46.2897

>  <PUBCHEM_FEATURE_SELFOVERLAP>  (1) 
30.527

>  <PUBCHEM_SHAPE_FINGERPRINT>  (1) 
10906281 52 18200054918093783248
11315181 36 18187656817016462628
11401426 45 18411698785604753268
11680986 33 18124312976085699505
12119455 92 14129055928362261472
12236239 1 17748824112208948986
13288520 33 18272373057663846452
13533116 47 18338230471922321658
14115302 16 18187935027079420364
14911166 2 18410852179126614497
14993402 34 18113900468100668996
15048467 5 17676485008824334549
15099037 51 18410012152032049094
15207287 21 17989212551139881638
16945 1 18410568488247381841
1813 80 13614250299857105880
18186145 218 18338222852159519873
187816 3 18410858763269222882
200 152 16415482640530057274
20233049 118 18261105279402887129
20300324 65 18273217478135610752
20344682 1 17632297865423141116
20645476 183 17749389303581911203
20645477 70 17131282251607900134
20871999 31 18410291427858871229
21029758 11 18272088318264538936
21637258 2 15554436384304166583
23402539 116 18341890788336607572
23557571 272 18059862723081394132
23559900 14 18340768234863468120
266924 87 18195526995797323932
2748010 2 18048027769061611163
3250762 1 17762055845031846816
351380 180 18343301466398112436
366044 4 18333169470574028362
3759504 43 17676210203420430554
81228 2 18128278717259499616
9709674 26 18271258131762942414

>  <PUBCHEM_SHAPE_MULTIPOLES>  (1) 
325.13
9.4
2.09
0.88
7.48
0
-0.06
0
-2.96
-0.91
0.61
0.22
0
0

>  <PUBCHEM_SHAPE_SELFOVERLAP>  (1) 
661.3

>  <PUBCHEM_SHAPE_VOLUME>  (1) 
189.9

>  <PUBCHEM_COORDINATE_TYPE>  (1) 
2
5
10

$$$$
