47312
     RDKit          3D

 25 26  0  0  1  0  0  0  0  0999 V2000
   -0.2050   -2.2238    0.6590 S   0  0  0  0  0  0  0  0  0  0  0  0
    3.6618    0.0363   -0.3084 O   0  0  0  0  0  0  0  0  0  0  0  0
   -0.5602   -3.0708    1.7816 O   0  0  0  0  0  0  0  0  0  0  0  0
    0.6129   -2.7460   -0.4190 O   0  0  0  0  0  0  0  0  0  0  0  0
    3.0948   -1.4758    1.3364 O   0  0  0  0  0  0  0  0  0  0  0  0
    0.4981   -0.7887    1.2343 N   0  0  0  0  0  0  0  0  0  0  0  0
    6.4983    0.9171   -1.9623 N   0  0  0  0  0  0  0  0  0  0  0  0
    1.4112   -0.0131    0.3620 C   0  0  0  0  0  0  0  0  0  0  0  0
    1.3772    1.4654    0.7567 C   0  0  0  0  0  0  0  0  0  0  0  0
    0.0007    2.0726    0.6344 C   0  0  0  0  0  0  0  0  0  0  0  0
   -1.7014   -1.6297   -0.0707 C   0  0  0  0  0  0  0  0  0  0  0  0
    2.7977   -0.5891    0.5466 C   0  0  0  0  0  0  0  0  0  0  0  0
   -0.3805    2.6561   -0.5637 C   0  0  0  0  0  0  0  0  0  0  0  0
   -0.8577    2.0353    1.7220 C   0  0  0  0  0  0  0  0  0  0  0  0
   -1.7015   -1.2598   -1.4045 C   0  0  0  0  0  0  0  0  0  0  0  0
   -2.8448   -1.5453    0.7047 C   0  0  0  0  0  0  0  0  0  0  0  0
   -4.0437   -0.6987   -1.2145 C   0  0  0  0  0  0  0  0  0  0  0  0
   -2.8819   -0.7905   -1.9808 C   0  0  0  0  0  0  0  0  0  0  0  0
   -4.0252   -1.0761    0.1283 C   0  0  0  0  0  0  0  0  0  0  0  0
   -1.6526    3.2169   -0.6770 C   0  0  0  0  0  0  0  0  0  0  0  0
   -2.1299    2.5961    1.6086 C   0  0  0  0  0  0  0  0  0  0  0  0
   -2.5273    3.1869    0.4090 C   0  0  0  0  0  0  0  0  0  0  0  0
   -5.3061   -0.1975   -1.8307 C   0  0  0  0  0  0  0  0  0  0  0  0
    5.0207   -0.4087   -0.2478 C   0  0  0  0  0  0  0  0  0  0  0  0
    5.8443    0.3310   -1.2041 C   0  0  0  0  0  0  0  0  0  0  0  0
  1  3  2  0
  1  4  2  0
  1  6  1  0
  1 11  1  0
  2 12  1  0
  2 24  1  0
  5 12  2  0
  6  8  1  0
  7 25  3  0
  8  9  1  0
  8 12  1  0
  9 10  1  0
 10 13  2  0
 10 14  1  0
 11 15  2  0
 11 16  1  0
 13 20  1  0
 14 21  2  0
 15 18  1  0
 16 19  2  0
 17 18  2  0
 17 19  1  0
 17 23  1  0
 20 22  2  0
 21 22  1  0
 24 25  1  0
M  END
>  <PUBCHEM_COMPOUND_CID>  (1) 
47312

>  <PUBCHEM_CONFORMER_RMSD>  (1) 
0.8

>  <PUBCHEM_CONFORMER_DIVERSEORDER>  (1) 
1
148
62
213
209
272
108
114
140
267
172
183
22
279
9
70
242
98
151
23
288
127
68
234
237
141
82
282
10
260
157
252
280
163
15
190
286
63
16
34
31
253
174
205
43
176
281
96
113
154
66
3
121
194
41
208
284
230
232
204
185
248
94
254
18
56
175
135
251
218
236
74
187
97
168
229
224
59
158
54
130
72
134
123
4
256
17
170
21
39
87
103
78
40
171
153
182
215
283
102
90
48
268
64
143
77
57
150
173
261
250
186
212
193
60
155
19
264
287
269
275
42
244
32
101
46
8
118
5
228
142
278
14
156
211
243
51
33
207
53
217
247
178
166
116
20
210
30
270
239
131
276
258
99
167
223
44
89
226
214
38
133
225
29
105
149
238
52
55
179
83
109
93
92
180
65
189
221
50
26
220
164
6
192
255
145
81
91
71
195
273
45
128
107
271
79
115
235
61
11
13
67
111
47
136
160
27
138
7
137
263
206
58
198
37
165
147
227
201
265
49
120
219
222
75
181
144
119
139
277
25
80
106
152
35
112
274
246
2
69
104
28
177
95
216
86
233
161
117
200
24
12
257
188
146
124
126
259
196
110
249
240
36
191
262
169
231
129
159
184
266
76
199
285
132
85
73
197
203
245
88
122
100
241
125
162
202
84

>  <PUBCHEM_MMFF94_PARTIAL_CHARGES>  (1) 
35
1 1.45
10 -0.14
11 -0.01
12 0.66
13 -0.15
14 -0.15
15 -0.15
16 -0.15
17 -0.14
18 -0.15
19 -0.15
2 -0.43
20 -0.15
21 -0.15
22 -0.15
23 0.14
24 0.48
25 0.36
29 0.42
3 -0.65
30 0.15
31 0.15
32 0.15
33 0.15
34 0.15
35 0.15
36 0.15
37 0.15
38 0.15
4 -0.65
5 -0.57
6 -0.91
7 -0.56
8 0.42
9 0.14

>  <PUBCHEM_EFFECTIVE_ROTOR_COUNT>  (1) 
8

>  <PUBCHEM_PHARMACOPHORE_FEATURES>  (1) 
7
1 3 acceptor
1 4 acceptor
1 5 acceptor
1 6 donor
1 7 acceptor
6 10 13 14 20 21 22 rings
6 11 15 16 17 18 19 rings

>  <PUBCHEM_HEAVY_ATOM_COUNT>  (1) 
25

>  <PUBCHEM_ATOM_DEF_STEREO_COUNT>  (1) 
1

>  <PUBCHEM_ATOM_UDEF_STEREO_COUNT>  (1) 
0

>  <PUBCHEM_BOND_DEF_STEREO_COUNT>  (1) 
0

>  <PUBCHEM_BOND_UDEF_STEREO_COUNT>  (1) 
0

>  <PUBCHEM_ISOTOPIC_ATOM_COUNT>  (1) 
0

>  <PUBCHEM_COMPONENT_COUNT>  (1) 
1

>  <PUBCHEM_CACTVS_TAUTO_COUNT>  (1) 
1

>  <PUBCHEM_CONFORMER_ID>  (1) 
0000B8D000000001

>  <PUBCHEM_MMFF94_ENERGY>  (1) 
41.0462

>  <PUBCHEM_FEATURE_SELFOVERLAP>  (1) 
35.541

>  <PUBCHEM_SHAPE_FINGERPRINT>  (1) 
10165383 225 17822286903645782431
104564 63 18342166727179614305
10670039 82 18411143511575541694
10871710 139 18410016494365518961
12035759 4 18187369873908451252
12156800 1 17760982507282925693
12553582 1 18341607152664481347
12788726 201 18412260619235858416
13911987 19 18334011722214116679
13947920 24 17894901945245916844
14251757 5 18341896320191298350
14931854 50 18337940217562453301
16752209 62 18341043047855402810
17357779 13 18272358793914016977
17492 54 18259979375185181541
20775438 99 16475672359604105559
20871999 31 18413112740932293300
21236236 1 18342179930172819736
21641784 216 18408325462741217996
22620623 9 17775281638743252916
23419403 2 17058052658887760617
238 59 17401449012882248543
25147074 1 18263639564217525306
27425 322 16520181243432329877
3027735 51 18272375230696122338
394222 165 16734085882816689226
469060 322 18114472179919600297
5171179 24 17774709965659110752
6438718 38 18059570227223350691
7237137 82 18272092678062428692

>  <PUBCHEM_SHAPE_MULTIPOLES>  (1) 
484.9
9.81
3.79
1.82
14.46
2.11
-0.29
-1.12
-7.28
-2.76
1.16
-0.25
-0.12
-1.22

>  <PUBCHEM_SHAPE_SELFOVERLAP>  (1) 
1004.202

>  <PUBCHEM_SHAPE_VOLUME>  (1) 
275.7

>  <PUBCHEM_COORDINATE_TYPE>  (1) 
2
5
10

$$$$
