47310
     RDKit          3D

 19 19  0  0  1  0  0  0  0  0999 V2000
   -5.1756   -1.4154    1.2894 Br  0  0  0  0  0  0  0  0  0  0  0  0
   -1.6236   -2.6279   -1.4215 Br  0  0  0  0  0  0  0  0  0  0  0  0
    0.9573    0.8995    0.0236 O   0  0  0  0  0  0  0  0  0  0  0  0
   -2.9173   -0.2402    0.1691 O   0  0  0  0  0  0  0  0  0  0  0  0
   -4.6588    1.2653    0.1065 O   0  0  0  0  0  0  0  0  0  0  0  0
   -0.4696    1.7315   -1.5721 O   0  0  0  0  0  0  0  0  0  0  0  0
   -1.1072    1.5499    0.6527 N   0  0  0  0  0  0  0  0  0  0  0  0
    3.1910    0.1366   -0.3417 C   0  0  0  0  0  0  0  0  0  0  0  0
    1.9621    0.7144   -0.9798 C   0  0  0  0  0  0  0  0  0  0  0  0
   -2.4397    2.0681    0.5357 C   0  0  0  0  0  0  0  0  0  0  0  0
    4.1697    0.9864    0.1616 C   0  0  0  0  0  0  0  0  0  0  0  0
    3.3399   -1.2435   -0.2589 C   0  0  0  0  0  0  0  0  0  0  0  0
    5.3122    0.4493    0.7550 C   0  0  0  0  0  0  0  0  0  0  0  0
    4.4823   -1.7803    0.3347 C   0  0  0  0  0  0  0  0  0  0  0  0
   -3.4693    1.0016    0.2459 C   0  0  0  0  0  0  0  0  0  0  0  0
   -3.7948   -1.3474   -0.0984 C   0  0  0  0  0  0  0  0  0  0  0  0
   -0.2284    1.4226   -0.4098 C   0  0  0  0  0  0  0  0  0  0  0  0
    5.4684   -0.9339    0.8416 C   0  0  0  0  0  0  0  0  0  0  0  0
   -2.9983   -2.6365   -0.0336 C   0  0  0  0  0  0  0  0  0  0  0  0
  1 16  1  0
  2 19  1  0
  3  9  1  0
  3 17  1  0
  4 15  1  0
  4 16  1  0
  5 15  2  0
  6 17  2  0
  7 10  1  0
  7 17  1  0
  8  9  1  0
  8 11  2  0
  8 12  1  0
 10 15  1  0
 11 13  1  0
 12 14  2  0
 13 18  2  0
 14 18  1  0
 16 19  1  0
M  END
>  <PUBCHEM_COMPOUND_CID>  (1) 
47310

>  <PUBCHEM_CONFORMER_RMSD>  (1) 
1

>  <PUBCHEM_CONFORMER_DIVERSEORDER>  (1) 
1
398
134
319
144
5
454
312
459
45
163
169
387
13
240
390
288
423
433
285
178
384
268
301
115
140
374
222
402
192
244
295
97
193
337
128
75
370
3
329
24
397
168
19
456
443
336
138
7
170
246
161
345
79
137
263
91
416
66
264
50
208
181
167
309
117
200
366
466
316
413
395
229
378
434
253
28
10
296
6
377
464
409
107
220
355
341
76
210
432
399
450
148
25
447
444
48
80
22
74
92
270
248
405
26
236
279
151
310
280
457
102
344
145
425
212
143
29
291
15
59
49
234
330
372
130
197
276
293
278
47
31
303
233
421
106
455
257
305
360
188
51
8
199
292
55
179
335
160
165
325
4
383
228
422
57
54
431
254
290
230
100
23
259
347
446
35
367
362
385
182
287
135
154
42
438
21
429
131
308
204
16
333
85
328
437
12
468
261
123
226
251
14
65
149
164
359
271
350
358
436
265
410
82
39
349
277
184
87
343
463
297
214
58
9
403
69
322
404
52
136
155
440
267
376
127
394
190
225
78
38
109
196
27
211
37
242
133
424
238
357
18
17
401
386
191
458
111
41
232
110
67
177
121
122
353
298
126
427
260
352
235
256
30
417
474
250
81
249
157
44
375
418
449
90
300
62
356
361
313
299
380
88
158
224
96
321
104
146
116
221
209
173
64
340
439
198
465
114
36
406
247
389
239
426
73
382
70
43
258
419
162
56
281
219
245
348
274
189
430
2
113
172
294
269
392
472
206
273
452
118
318
20
103
175
412
60
153
216
171
284
186
435
327
187
89
185
99
46
207
105
473
237
373
302
414
332
326
11
315
252
282
194
255
77
223
469
289
201
317
393
320
125
98
32
63
53
159
218
101
72
304
442
33
112
460
241
420
142
451
262
34
147
176
453
272
183
195
275
388
461
86
415
470
174
217
71
139
227
95
150
371
396
283
462
428
84
467
324
156
205
408
391
369
445
215
202
40
448
381
346
213
441
307
363
141
286
83
61
411
314
132
407
124
266
334
379
231
203
351
368
306
94
365
93
120
68
129
119
243
331
166
338
311
323
180
152
364
471
354
400
108
339
342

>  <PUBCHEM_MMFF94_PARTIAL_CHARGES>  (1) 
25
1 -0.23
10 0.36
11 -0.15
12 -0.15
13 -0.15
14 -0.15
15 0.66
16 0.51
17 0.78
18 -0.15
19 0.23
2 -0.23
24 0.15
25 0.15
26 0.37
27 0.15
28 0.15
3 -0.43
30 0.15
4 -0.43
5 -0.57
6 -0.57
7 -0.73
8 -0.14
9 0.42

>  <PUBCHEM_EFFECTIVE_ROTOR_COUNT>  (1) 
9

>  <PUBCHEM_PHARMACOPHORE_FEATURES>  (1) 
6
1 1 hydrophobe
1 2 hydrophobe
1 5 acceptor
1 6 acceptor
1 7 donor
6 8 11 12 13 14 18 rings

>  <PUBCHEM_HEAVY_ATOM_COUNT>  (1) 
19

>  <PUBCHEM_ATOM_DEF_STEREO_COUNT>  (1) 
0

>  <PUBCHEM_ATOM_UDEF_STEREO_COUNT>  (1) 
1

>  <PUBCHEM_BOND_DEF_STEREO_COUNT>  (1) 
0

>  <PUBCHEM_BOND_UDEF_STEREO_COUNT>  (1) 
0

>  <PUBCHEM_ISOTOPIC_ATOM_COUNT>  (1) 
0

>  <PUBCHEM_COMPONENT_COUNT>  (1) 
1

>  <PUBCHEM_CACTVS_TAUTO_COUNT>  (1) 
2

>  <PUBCHEM_CONFORMER_ID>  (1) 
0000B8CE00000001

>  <PUBCHEM_MMFF94_ENERGY>  (1) 
34.0805

>  <PUBCHEM_FEATURE_SELFOVERLAP>  (1) 
30.446

>  <PUBCHEM_SHAPE_FINGERPRINT>  (1) 
10366900 7 16988838367453819448
11045977 3 17988918972971574672
11552529 35 18060129985726219414
12410352 35 18260543399091508138
12422481 6 18196117498446140467
12523318 42 18343575231354847176
12633257 1 17346322647491077251
13167823 11 18335138674640472272
13551218 46 18410862062021007739
13583140 156 17917981763896993304
1420 369 18333737930812027026
14341114 176 18273498970687946576
15196674 1 18409731755007902586
17977361 122 18410855494963147687
1813 80 17385446526823979270
19141452 34 18335421236043734437
20261772 1 18342178886158559478
20621476 51 18058722662472471263
21673915 165 18410008836707920602
23402539 116 17168140122531639036
23559900 14 18342170085754895456
26918003 58 18271520910298484072
32948 21 8502657017604367664
339767 52 18334284379464271162
5104073 3 18341892966096153728
5312544 6 17975416029817340852
559249 180 18259982648467024529
5924683 9 18059848515324187751

>  <PUBCHEM_SHAPE_MULTIPOLES>  (1) 
374.44
12.9
2.81
1.15
6.61
0.91
0.17
3.95
-5.17
-2.41
0.46
-0.37
0.24
-0.39

>  <PUBCHEM_SHAPE_SELFOVERLAP>  (1) 
729.337

>  <PUBCHEM_SHAPE_VOLUME>  (1) 
229.9

>  <PUBCHEM_COORDINATE_TYPE>  (1) 
2
5
10

$$$$
