47314
     RDKit          3D

 17 17  0  0  0  0  0  0  0  0999 V2000
    3.5649   -1.9935   -0.2162 Cl  0  0  0  0  0  0  0  0  0  0  0  0
    1.5565    2.1300   -0.7643 O   0  0  0  0  0  0  0  0  0  0  0  0
   -0.3478   -1.6934   -1.0589 O   0  0  0  0  0  0  0  0  0  0  0  0
    0.9067   -2.1543    1.0178 O   0  0  0  0  0  0  0  0  0  0  0  0
    0.3945    0.1383    0.9349 N   0  0  0  0  0  0  0  0  0  0  0  0
    0.9177    1.4464    1.4370 C   0  0  0  0  0  0  0  0  0  0  0  0
   -0.9344    0.0120    0.5237 C   0  0  0  0  0  0  0  0  0  0  0  0
    0.7917    2.5206    0.3684 C   0  0  0  0  0  0  0  0  0  0  0  0
   -1.2882   -0.9031   -0.4677 C   0  0  0  0  0  0  0  0  0  0  0  0
    1.2917   -0.9904    0.8845 C   0  0  0  0  0  0  0  0  0  0  0  0
   -1.9120    0.8120    1.1155 C   0  0  0  0  0  0  0  0  0  0  0  0
   -2.6196   -1.0184   -0.8674 C   0  0  0  0  0  0  0  0  0  0  0  0
   -3.2434    0.6967    0.7157 C   0  0  0  0  0  0  0  0  0  0  0  0
   -3.5972   -0.2184   -0.2757 C   0  0  0  0  0  0  0  0  0  0  0  0
    2.7684   -0.6910    0.6916 C   0  0  0  0  0  0  0  0  0  0  0  0
    1.4632    3.0862   -1.8114 C   0  0  0  0  0  0  0  0  0  0  0  0
    0.2873   -1.1797   -2.2275 C   0  0  0  0  0  0  0  0  0  0  0  0
  1 15  1  0
  2  8  1  0
  2 16  1  0
  3  9  1  0
  3 17  1  0
  4 10  2  0
  5  6  1  0
  5  7  1  0
  5 10  1  0
  6  8  1  0
  7  9  2  0
  7 11  1  0
  9 12  1  0
 10 15  1  0
 11 13  2  0
 12 14  2  0
 13 14  1  0
M  END
>  <PUBCHEM_COMPOUND_CID>  (1) 
47314

>  <PUBCHEM_CONFORMER_RMSD>  (1) 
0.8

>  <PUBCHEM_CONFORMER_DIVERSEORDER>  (1) 
1
75
77
81
111
118
93
46
48
60
105
12
30
83
62
94
19
32
9
17
91
14
13
70
99
38
20
67
106
84
89
117
73
58
22
29
28
25
55
34
102
36
64
3
16
41
65
53
101
21
85
119
69
109
100
45
43
47
18
114
108
80
2
74
56
15
104
52
82
31
95
33
8
61
6
63
107
49
4
59
51
57
71
92
23
40
110
54
26
66
44
7
96
35
78
10
98
103
76
115
79
11
50
37
112
86
72
90
88
68
116
113
27
42
24
39
5
97
87

>  <PUBCHEM_MMFF94_PARTIAL_CHARGES>  (1) 
21
1 -0.29
10 0.57
11 -0.15
12 -0.15
13 -0.15
14 -0.15
15 0.35
16 0.28
17 0.28
2 -0.56
22 0.15
23 0.15
24 0.15
25 0.15
3 -0.36
4 -0.57
5 -0.48
6 0.3
7 0.12
8 0.28
9 0.08

>  <PUBCHEM_EFFECTIVE_ROTOR_COUNT>  (1) 
7

>  <PUBCHEM_PHARMACOPHORE_FEATURES>  (1) 
4
1 2 acceptor
1 3 acceptor
1 4 acceptor
6 7 9 11 12 13 14 rings

>  <PUBCHEM_HEAVY_ATOM_COUNT>  (1) 
17

>  <PUBCHEM_ATOM_DEF_STEREO_COUNT>  (1) 
0

>  <PUBCHEM_ATOM_UDEF_STEREO_COUNT>  (1) 
0

>  <PUBCHEM_BOND_DEF_STEREO_COUNT>  (1) 
0

>  <PUBCHEM_BOND_UDEF_STEREO_COUNT>  (1) 
0

>  <PUBCHEM_ISOTOPIC_ATOM_COUNT>  (1) 
0

>  <PUBCHEM_COMPONENT_COUNT>  (1) 
1

>  <PUBCHEM_CACTVS_TAUTO_COUNT>  (1) 
1

>  <PUBCHEM_CONFORMER_ID>  (1) 
0000B8D200000001

>  <PUBCHEM_MMFF94_ENERGY>  (1) 
74.9645

>  <PUBCHEM_FEATURE_SELFOVERLAP>  (1) 
20.321

>  <PUBCHEM_SHAPE_FINGERPRINT>  (1) 
10871710 139 17900851278721547772
12423570 1 10777509706930194257
13132413 78 18263928726368030853
14181834 199 18343020008132051828
14993402 34 18201148858795366667
15207287 21 13973954420064854758
15219459 52 18342453780997147491
15490181 8 17830161760083372328
16945 1 18041274387733153051
1813 80 18265343815355726230
19837323 101 17327177061890993784
20473742 2 17822289132327269708
20511035 2 18130215081615731411
20645476 183 18196090169099535903
23402539 116 18265331712449343306
23419403 2 18055604288835340240
23463225 33 17916862405072413490
2748010 2 17986369132012107899
430814 3 17899980731199070749
7364860 26 17988066919778527200
81228 2 17902226715748298624
9999458 23 18113054948191500339

>  <PUBCHEM_SHAPE_MULTIPOLES>  (1) 
329.13
4.72
2.9
1.69
1.27
2.11
0.75
-1.81
-0.27
-2.27
1.13
-0.4
0.34
-0.99

>  <PUBCHEM_SHAPE_SELFOVERLAP>  (1) 
658.302

>  <PUBCHEM_SHAPE_VOLUME>  (1) 
195

>  <PUBCHEM_COORDINATE_TYPE>  (1) 
2
5
10

$$$$
