47322
     RDKit          3D

 33 36  0  0  0  0  0  0  0  0999 V2000
   -2.6877   -0.5436    1.7288 O   0  0  0  0  0  0  0  0  0  0  0  0
   -0.2179   -1.3800   -0.8102 O   0  0  0  0  0  0  0  0  0  0  0  0
   -0.3727    1.0265    1.1982 O   0  0  0  0  0  0  0  0  0  0  0  0
   -3.4945   -2.6632    1.2896 O   0  0  0  0  0  0  0  0  0  0  0  0
    4.5227   -1.1890   -1.7054 O   0  0  0  0  0  0  0  0  0  0  0  0
    4.3167    2.1755    1.2504 O   0  0  0  0  0  0  0  0  0  0  0  0
    4.9387   -3.1667   -0.3926 O   0  0  0  0  0  0  0  0  0  0  0  0
    3.9745    4.0066   -0.2787 O   0  0  0  0  0  0  0  0  0  0  0  0
   -6.4686    1.2793   -1.4532 N   0  0  0  0  0  0  0  0  0  0  0  0
   -2.1224   -0.4817    0.4132 C   0  0  0  0  0  0  0  0  0  0  0  0
   -3.2819   -0.6329   -0.5997 C   0  0  0  0  0  0  0  0  0  0  0  0
   -4.3450    0.4737   -0.5272 C   0  0  0  0  0  0  0  0  0  0  0  0
   -1.0982   -1.6222    0.2835 C   0  0  0  0  0  0  0  0  0  0  0  0
   -1.4374    0.8908    0.2624 C   0  0  0  0  0  0  0  0  0  0  0  0
   -5.4643    0.2255   -1.5397 C   0  0  0  0  0  0  0  0  0  0  0  0
   -3.3465   -1.6983    2.0273 C   0  0  0  0  0  0  0  0  0  0  0  0
    1.0610   -1.8528   -0.6865 C   0  0  0  0  0  0  0  0  0  0  0  0
    0.6944    1.7915    0.8095 C   0  0  0  0  0  0  0  0  0  0  0  0
   -7.2428    1.3565   -2.6932 C   0  0  0  0  0  0  0  0  0  0  0  0
   -7.3578    1.0513   -0.3128 C   0  0  0  0  0  0  0  0  0  0  0  0
   -3.8801   -1.6212    3.4256 C   0  0  0  0  0  0  0  0  0  0  0  0
    2.1123   -1.1856   -1.3200 C   0  0  0  0  0  0  0  0  0  0  0  0
    1.9704    1.5042    1.3007 C   0  0  0  0  0  0  0  0  0  0  0  0
    1.3036   -3.0068    0.0793 C   0  0  0  0  0  0  0  0  0  0  0  0
    0.4948    2.8598   -0.0826 C   0  0  0  0  0  0  0  0  0  0  0  0
    3.3831   -1.7000   -1.1649 C   0  0  0  0  0  0  0  0  0  0  0  0
    3.0136    2.3027    0.8794 C   0  0  0  0  0  0  0  0  0  0  0  0
    3.6206   -2.8296   -0.4154 C   0  0  0  0  0  0  0  0  0  0  0  0
    2.8181    3.3484    0.0063 C   0  0  0  0  0  0  0  0  0  0  0  0
    2.6003   -3.5069    0.2205 C   0  0  0  0  0  0  0  0  0  0  0  0
    1.5687    3.6531   -0.4937 C   0  0  0  0  0  0  0  0  0  0  0  0
    5.5046   -2.1226   -1.2110 C   0  0  0  0  0  0  0  0  0  0  0  0
    4.9200    3.2576    0.5120 C   0  0  0  0  0  0  0  0  0  0  0  0
  1 10  1  0
  1 16  1  0
  2 13  1  0
  2 17  1  0
  3 14  1  0
  3 18  1  0
  4 16  2  0
  5 26  1  0
  5 32  1  0
  6 27  1  0
  6 33  1  0
  7 28  1  0
  7 32  1  0
  8 29  1  0
  8 33  1  0
  9 15  1  0
  9 19  1  0
  9 20  1  0
 10 11  1  0
 10 13  1  0
 10 14  1  0
 11 12  1  0
 12 15  1  0
 16 21  1  0
 17 22  1  0
 17 24  2  0
 18 23  1  0
 18 25  2  0
 22 26  2  0
 23 27  2  0
 24 30  1  0
 25 31  1  0
 26 28  1  0
 27 29  1  0
 28 30  2  0
 29 31  2  0
M  END
>  <PUBCHEM_COMPOUND_CID>  (1) 
47322

>  <PUBCHEM_CONFORMER_RMSD>  (1) 
1.4

>  <PUBCHEM_CONFORMER_DIVERSEORDER>  (1) 
6
43
95
53
72
42
77
16
30
92
89
58
40
66
64
11
47
88
76
96
7
15
80
39
87
62
38
24
37
100
97
45
34
25
67
65
98
26
83
79
17
60
57
4
33
51
74
50
81
31
56
3
9
73
71
99
90
41
52
28
14
63
59
36
48
13
84
94
78
12
68
2
19
54
86
49
75
69
5
70
32
55
82
22
35
27
46
8
91
23
44
18
29
93
10
61
21
1
85
20

>  <PUBCHEM_MMFF94_PARTIAL_CHARGES>  (1) 
37
1 -0.43
10 0.28
13 0.28
14 0.28
15 0.27
16 0.66
17 0.08
18 0.08
19 0.27
2 -0.36
20 0.27
21 0.06
22 -0.15
23 -0.15
24 -0.15
25 -0.15
26 0.08
27 0.08
28 0.08
29 0.08
3 -0.36
30 -0.15
31 -0.15
32 0.56
33 0.56
4 -0.57
5 -0.36
53 0.15
54 0.15
55 0.15
56 0.15
57 0.15
58 0.15
6 -0.36
7 -0.36
8 -0.36
9 -0.81

>  <PUBCHEM_EFFECTIVE_ROTOR_COUNT>  (1) 
13.2

>  <PUBCHEM_PHARMACOPHORE_FEATURES>  (1) 
12
1 2 acceptor
1 3 acceptor
1 4 acceptor
1 5 acceptor
1 6 acceptor
1 7 acceptor
1 8 acceptor
1 9 cation
5 5 7 26 28 32 rings
5 6 8 27 29 33 rings
6 17 22 24 26 28 30 rings
6 18 23 25 27 29 31 rings

>  <PUBCHEM_HEAVY_ATOM_COUNT>  (1) 
33

>  <PUBCHEM_ATOM_DEF_STEREO_COUNT>  (1) 
0

>  <PUBCHEM_ATOM_UDEF_STEREO_COUNT>  (1) 
0

>  <PUBCHEM_BOND_DEF_STEREO_COUNT>  (1) 
0

>  <PUBCHEM_BOND_UDEF_STEREO_COUNT>  (1) 
0

>  <PUBCHEM_ISOTOPIC_ATOM_COUNT>  (1) 
0

>  <PUBCHEM_COMPONENT_COUNT>  (1) 
1

>  <PUBCHEM_CACTVS_TAUTO_COUNT>  (1) 
1

>  <PUBCHEM_CONFORMER_ID>  (1) 
0000B8DA00000006

>  <PUBCHEM_MMFF94_ENERGY>  (1) 
105.3762

>  <PUBCHEM_FEATURE_SELFOVERLAP>  (1) 
61.213

>  <PUBCHEM_SHAPE_FINGERPRINT>  (1) 
10006869 2 17414476898574109913
10675989 125 18342736364345290480
11578080 2 18334579092068154687
12107698 1 18128528281130231173
12160290 23 17118071438030154486
12422481 6 18199731662291941864
12788726 201 17830452778282722938
133893 2 18201168714455381171
13540713 4 18260837042095709827
14068700 675 17845366644259038488
14117953 113 18412536631637238940
15064986 96 18336540620695971816
15439362 3 18412257376245984212
15968369 26 18262241127070957872
16090146 7 16917353628245049039
167882 2 18341045302343883573
20554085 129 17240754044173709963
21033648 29 18041283252661917207
22182313 1 18188780564638236123
23559900 14 17968104113866615719
244849 19 18187092784298883467
25147074 1 17560810896714309025
3298306 158 18198061589206067668
4015057 19 18411422774433091835
4066623 53 18189606155578379564
532947 4 18340486763485262516
552612 73 18114762511630292603

>  <PUBCHEM_SHAPE_MULTIPOLES>  (1) 
627.19
14.36
5.19
2.07
21.05
2.01
-0.87
2.72
7.19
-9.09
-0.32
3.39
-0.73
4.66

>  <PUBCHEM_SHAPE_SELFOVERLAP>  (1) 
1344.229

>  <PUBCHEM_SHAPE_VOLUME>  (1) 
348

>  <PUBCHEM_COORDINATE_TYPE>  (1) 
2
5
10

$$$$
