47330
     RDKit          3D

 25 26  0  0  1  0  0  0  0  0999 V2000
   -2.0342    1.9172    0.1315 O   0  0  0  0  0  0  0  0  0  0  0  0
    1.8183   -0.0757    0.8993 O   0  0  0  0  0  0  0  0  0  0  0  0
   -3.7143    1.5005    1.6455 O   0  0  0  0  0  0  0  0  0  0  0  0
    0.8476   -0.4990    2.9373 O   0  0  0  0  0  0  0  0  0  0  0  0
   -0.4085    0.1558    1.0995 N   0  0  0  0  0  0  0  0  0  0  0  0
   -1.5333    4.0812   -2.4420 N   0  0  0  0  0  0  0  0  0  0  0  0
   -1.7084    0.1551    1.7224 C   0  0  0  0  0  0  0  0  0  0  0  0
   -2.3818   -1.2227    1.6383 C   0  0  0  0  0  0  0  0  0  0  0  0
   -2.6956   -1.6879    0.2342 C   0  0  0  0  0  0  0  0  0  0  0  0
   -2.6045    1.2612    1.1808 C   0  0  0  0  0  0  0  0  0  0  0  0
   -1.7550   -2.4287   -0.4818 C   0  0  0  0  0  0  0  0  0  0  0  0
   -3.9253   -1.3757   -0.3455 C   0  0  0  0  0  0  0  0  0  0  0  0
    0.7600   -0.1710    1.7586 C   0  0  0  0  0  0  0  0  0  0  0  0
   -2.0447   -2.8574   -1.7772 C   0  0  0  0  0  0  0  0  0  0  0  0
   -4.2148   -1.8046   -1.6408 C   0  0  0  0  0  0  0  0  0  0  0  0
    3.1016   -0.3888    1.4522 C   0  0  0  0  0  0  0  0  0  0  0  0
   -3.2746   -2.5453   -2.3567 C   0  0  0  0  0  0  0  0  0  0  0  0
    4.1453   -0.2358    0.3850 C   0  0  0  0  0  0  0  0  0  0  0  0
    4.4816   -1.3224   -0.4226 C   0  0  0  0  0  0  0  0  0  0  0  0
    4.7789    0.9930    0.1998 C   0  0  0  0  0  0  0  0  0  0  0  0
   -2.8210    2.9620   -0.4496 C   0  0  0  0  0  0  0  0  0  0  0  0
    5.4514   -1.1803   -1.4149 C   0  0  0  0  0  0  0  0  0  0  0  0
    5.7488    1.1351   -0.7926 C   0  0  0  0  0  0  0  0  0  0  0  0
    6.0850    0.0484   -1.5999 C   0  0  0  0  0  0  0  0  0  0  0  0
   -2.1025    3.5857   -1.5606 C   0  0  0  0  0  0  0  0  0  0  0  0
  1 10  1  0
  1 21  1  0
  2 13  1  0
  2 16  1  0
  3 10  2  0
  4 13  2  0
  5  7  1  0
  5 13  1  0
  6 25  3  0
  7  8  1  0
  7 10  1  0
  8  9  1  0
  9 11  2  0
  9 12  1  0
 11 14  1  0
 12 15  2  0
 14 17  2  0
 15 17  1  0
 16 18  1  0
 18 19  2  0
 18 20  1  0
 19 22  1  0
 20 23  2  0
 21 25  1  0
 22 24  2  0
 23 24  1  0
M  END
>  <PUBCHEM_COMPOUND_CID>  (1) 
47330

>  <PUBCHEM_CONFORMER_RMSD>  (1) 
1

>  <PUBCHEM_CONFORMER_DIVERSEORDER>  (1) 
1
105
142
77
51
38
75
46
103
164
150
91
184
35
126
177
181
52
96
179
31
118
120
32
70
194
26
148
125
124
82
60
138
41
95
92
16
111
186
74
33
55
122
27
97
72
187
21
169
79
132
69
104
149
133
144
158
155
191
107
171
99
139
57
195
61
59
123
28
109
172
152
62
198
5
110
141
85
192
174
71
54
22
19
128
76
102
36
121
173
43
166
88
145
108
56
15
131
159
127
170
151
100
146
115
112
83
168
113
23
50
188
180
44
154
140
119
30
114
161
197
78
48
64
94
42
66
10
53
17
136
178
143
93
73
7
11
39
167
89
130
20
45
63
106
8
117
196
24
163
175
2
86
157
156
185
13
34
68
116
12
9
25
129
135
40
189
18
98
65
84
183
49
193
80
165
87
81
67
37
47
190
90
3
162
137
6
147
134
101
58
4
153
176
14
160
182
29

>  <PUBCHEM_MMFF94_PARTIAL_CHARGES>  (1) 
36
1 -0.43
10 0.66
11 -0.15
12 -0.15
13 0.78
14 -0.15
15 -0.15
16 0.42
17 -0.15
18 -0.14
19 -0.15
2 -0.43
20 -0.15
21 0.48
22 -0.15
23 -0.15
24 -0.15
25 0.36
29 0.37
3 -0.57
30 0.15
31 0.15
32 0.15
33 0.15
36 0.15
37 0.15
38 0.15
4 -0.57
41 0.15
42 0.15
43 0.15
5 -0.73
6 -0.56
7 0.36
8 0.14
9 -0.14

>  <PUBCHEM_EFFECTIVE_ROTOR_COUNT>  (1) 
10

>  <PUBCHEM_PHARMACOPHORE_FEATURES>  (1) 
6
1 3 acceptor
1 4 acceptor
1 5 donor
1 6 acceptor
6 18 19 20 22 23 24 rings
6 9 11 12 14 15 17 rings

>  <PUBCHEM_HEAVY_ATOM_COUNT>  (1) 
25

>  <PUBCHEM_ATOM_DEF_STEREO_COUNT>  (1) 
1

>  <PUBCHEM_ATOM_UDEF_STEREO_COUNT>  (1) 
0

>  <PUBCHEM_BOND_DEF_STEREO_COUNT>  (1) 
0

>  <PUBCHEM_BOND_UDEF_STEREO_COUNT>  (1) 
0

>  <PUBCHEM_ISOTOPIC_ATOM_COUNT>  (1) 
0

>  <PUBCHEM_COMPONENT_COUNT>  (1) 
1

>  <PUBCHEM_CACTVS_TAUTO_COUNT>  (1) 
2

>  <PUBCHEM_CONFORMER_ID>  (1) 
0000B8E200000001

>  <PUBCHEM_MMFF94_ENERGY>  (1) 
50.9644

>  <PUBCHEM_FEATURE_SELFOVERLAP>  (1) 
30.447

>  <PUBCHEM_SHAPE_FINGERPRINT>  (1) 
10871710 139 18259981557360909705
11477941 20 18334867151409669580
12633257 1 15912223068784108275
12788726 201 18115566202578912197
13761468 95 18049175366927773720
14910302 57 17917985105307345850
14930077 153 18260830414718767853
15575132 122 18114461154838823965
19958102 18 18202273676354769719
20693207 138 17632284722580427642
21033648 29 10159164738536553306
21421566 26 18340196483926075173
21716022 299 17547297056894923719
22393880 68 18202568363378798346
22620623 9 18341885281908998065
22907989 373 18267283384079431373
23559900 14 17131542968037199323
26353 1 18120913256463412189
312425 83 18336272219968994526
44062 13 17775011180352706522
497634 4 17775012322697839536
5081480 168 17901357277513762165
59755656 520 17202782397060092971
633830 44 17386572345590939794
7237137 82 18202284723184357626

>  <PUBCHEM_SHAPE_MULTIPOLES>  (1) 
481.05
12.31
3.84
2.57
22.1
3.03
0.1
-2.46
-5.63
-6.01
-3.76
-1.1
0.43
-0.54

>  <PUBCHEM_SHAPE_SELFOVERLAP>  (1) 
1004.917

>  <PUBCHEM_SHAPE_VOLUME>  (1) 
268.4

>  <PUBCHEM_COORDINATE_TYPE>  (1) 
2
5
10

$$$$
