47333
     RDKit          3D

 15 14  0  0  1  0  0  0  0  0999 V2000
   -2.7042    1.2643   -0.1029 S   0  0  0  0  0  0  0  0  0  0  0  0
    3.3766    0.5121    0.2064 S   0  0  0  0  0  0  0  0  0  0  0  0
   -1.4764    1.9465   -0.4775 O   0  0  0  0  0  0  0  0  0  0  0  0
   -3.7075    0.9469   -1.1058 O   0  0  0  0  0  0  0  0  0  0  0  0
    2.9600    1.6389    1.0243 O   0  0  0  0  0  0  0  0  0  0  0  0
    3.9172   -0.6881    0.8226 O   0  0  0  0  0  0  0  0  0  0  0  0
   -1.6136   -1.2993   -0.1337 C   0  0  0  0  0  0  0  0  0  0  0  0
   -0.3790   -0.8000   -0.9176 C   0  0  0  0  0  0  0  0  0  0  0  0
   -2.2757   -0.2231    0.7417 C   0  0  0  0  0  0  0  0  0  0  0  0
    0.8100   -0.4234   -0.0246 C   0  0  0  0  0  0  0  0  0  0  0  0
   -1.2844   -2.5553    0.7043 C   0  0  0  0  0  0  0  0  0  0  0  0
    2.0214    0.0437   -0.8215 C   0  0  0  0  0  0  0  0  0  0  0  0
   -0.7341   -3.7131   -0.1184 C   0  0  0  0  0  0  0  0  0  0  0  0
   -3.4959    2.2401    1.1559 C   0  0  0  0  0  0  0  0  0  0  0  0
    4.5855    1.1099   -0.9531 C   0  0  0  0  0  0  0  0  0  0  0  0
  1  3  2  0
  1  4  2  0
  1  9  1  0
  1 14  1  0
  2  5  2  0
  2  6  2  0
  2 12  1  0
  2 15  1  0
  7  8  1  0
  7  9  1  0
  7 11  1  0
  8 10  1  0
 10 12  1  0
 11 13  1  0
M  END
>  <PUBCHEM_COMPOUND_CID>  (1) 
47333

>  <PUBCHEM_CONFORMER_RMSD>  (1) 
0.8

>  <PUBCHEM_CONFORMER_DIVERSEORDER>  (1) 
1
103
126
72
14
5
127
58
16
51
107
37
124
7
3
110
44
101
123
109
43
56
47
116
32
25
23
26
49
92
96
99
24
77
78
120
48
50
46
73
82
21
35
104
108
11
39
74
10
113
75
118
27
69
4
117
112
88
2
83
13
40
63
125
66
68
81
91
12
119
28
52
34
95
84
98
71
6
20
19
114
61
62
111
97
90
57
38
70
30
100
79
76
15
41
42
89
45
65
121
17
67
60
59
80
22
93
55
94
33
31
85
102
53
8
105
18
9
29
122
86
64
115
106
54
36
87

>  <PUBCHEM_MMFF94_PARTIAL_CHARGES>  (1) 
10
1 1.09
12 0.11
14 0.11
15 0.11
2 1.09
3 -0.65
4 -0.65
5 -0.65
6 -0.65
9 0.11

>  <PUBCHEM_EFFECTIVE_ROTOR_COUNT>  (1) 
7

>  <PUBCHEM_PHARMACOPHORE_FEATURES>  (1) 
6
1 13 hydrophobe
1 3 acceptor
1 4 acceptor
1 5 acceptor
1 6 acceptor
4 7 8 10 11 hydrophobe

>  <PUBCHEM_HEAVY_ATOM_COUNT>  (1) 
15

>  <PUBCHEM_ATOM_DEF_STEREO_COUNT>  (1) 
0

>  <PUBCHEM_ATOM_UDEF_STEREO_COUNT>  (1) 
1

>  <PUBCHEM_BOND_DEF_STEREO_COUNT>  (1) 
0

>  <PUBCHEM_BOND_UDEF_STEREO_COUNT>  (1) 
0

>  <PUBCHEM_ISOTOPIC_ATOM_COUNT>  (1) 
0

>  <PUBCHEM_COMPONENT_COUNT>  (1) 
1

>  <PUBCHEM_CACTVS_TAUTO_COUNT>  (1) 
1

>  <PUBCHEM_CONFORMER_ID>  (1) 
0000B8E500000001

>  <PUBCHEM_MMFF94_ENERGY>  (1) 
15.9883

>  <PUBCHEM_FEATURE_SELFOVERLAP>  (1) 
30.508

>  <PUBCHEM_SHAPE_FINGERPRINT>  (1) 
122479 349 18343586222091748045
124424 183 18131349709396941350
12500047 106 18410009961968064710
12932764 1 18058732554140245390
14178342 30 18190447445830692226
15669948 3 18262799695762364814
1741750 31 18411703179351152378
17834072 32 18410300215536603860
18186145 218 18198065780809097717
18785283 64 18047485421470722987
19765921 60 17915743076897537649
204376 136 18335424521899249301
20510252 161 18340490070620980883
20671657 1 17836938802218196463
21524375 3 18342168913122873703
21618674 53 17677061238774222312
21731228 192 18336551512527338219
23402539 116 18341324608879490399
23500284 214 18342748385783931601
23557571 272 18198632227071632918
23598294 1 18335421317626812986
257057 1 17618501429662186463
2748010 2 18263665995077200847
305870 269 18264205803440635643
5706482 22 18408318870029591715
6049 1 17843411927865941520
633830 44 18128261082038957533
7364860 26 17834957473458939567
81228 2 18192724551264851907

>  <PUBCHEM_SHAPE_MULTIPOLES>  (1) 
292.91
7.56
3.2
1.1
6.96
2.78
-0.01
-5.33
-0.24
-2.73
-0.45
-0.02
-0.26
-0.21

>  <PUBCHEM_SHAPE_SELFOVERLAP>  (1) 
524.677

>  <PUBCHEM_SHAPE_VOLUME>  (1) 
190.2

>  <PUBCHEM_COORDINATE_TYPE>  (1) 
2
5
10

$$$$
