47331
     RDKit          3D

 26 27  0  0  1  0  0  0  0  0999 V2000
   -4.7734   -2.6783   -0.0019 Cl  0  0  0  0  0  0  0  0  0  0  0  0
   -2.2265   -3.8438    1.8086 Cl  0  0  0  0  0  0  0  0  0  0  0  0
   -2.4938   -1.3976   -0.0972 O   0  0  0  0  0  0  0  0  0  0  0  0
    2.5892    0.2152    0.1552 O   0  0  0  0  0  0  0  0  0  0  0  0
   -0.8975   -1.4547   -1.7634 O   0  0  0  0  0  0  0  0  0  0  0  0
    1.0038   -0.5767    1.6162 O   0  0  0  0  0  0  0  0  0  0  0  0
    0.4185    0.4962   -0.3563 N   0  0  0  0  0  0  0  0  0  0  0  0
   -1.0143    0.4231   -0.2182 C   0  0  0  0  0  0  0  0  0  0  0  0
   -1.7007    1.5817   -0.9454 C   0  0  0  0  0  0  0  0  0  0  0  0
   -3.0913    1.8598   -0.4285 C   0  0  0  0  0  0  0  0  0  0  0  0
   -1.4221   -0.9194   -0.7956 C   0  0  0  0  0  0  0  0  0  0  0  0
   -3.2790    2.7642    0.6169 C   0  0  0  0  0  0  0  0  0  0  0  0
   -4.1888    1.2122   -0.9959 C   0  0  0  0  0  0  0  0  0  0  0  0
    1.3072   -0.0094    0.5718 C   0  0  0  0  0  0  0  0  0  0  0  0
   -4.5643    3.0208    1.0947 C   0  0  0  0  0  0  0  0  0  0  0  0
   -5.4739    1.4690   -0.5182 C   0  0  0  0  0  0  0  0  0  0  0  0
   -5.6616    2.3731    0.5270 C   0  0  0  0  0  0  0  0  0  0  0  0
    3.6212   -0.2601    1.0268 C   0  0  0  0  0  0  0  0  0  0  0  0
   -3.0671   -2.6428   -0.5282 C   0  0  0  0  0  0  0  0  0  0  0  0
    4.9575    0.0645    0.4264 C   0  0  0  0  0  0  0  0  0  0  0  0
    5.5768   -0.8458   -0.4302 C   0  0  0  0  0  0  0  0  0  0  0  0
    5.5803    1.2767    0.7240 C   0  0  0  0  0  0  0  0  0  0  0  0
   -2.2828   -3.8295    0.0253 C   0  0  0  0  0  0  0  0  0  0  0  0
    6.8189   -0.5442   -0.9887 C   0  0  0  0  0  0  0  0  0  0  0  0
    6.8223    1.5783    0.1654 C   0  0  0  0  0  0  0  0  0  0  0  0
    7.4415    0.6678   -0.6910 C   0  0  0  0  0  0  0  0  0  0  0  0
  1 19  1  0
  2 23  1  0
  3 11  1  0
  3 19  1  0
  4 14  1  0
  4 18  1  0
  5 11  2  0
  6 14  2  0
  7  8  1  0
  7 14  1  0
  8  9  1  0
  8 11  1  0
  9 10  1  0
 10 12  2  0
 10 13  1  0
 12 15  1  0
 13 16  2  0
 15 17  2  0
 16 17  1  0
 18 20  1  0
 19 23  1  0
 20 21  2  0
 20 22  1  0
 21 24  1  0
 22 25  2  0
 24 26  2  0
 25 26  1  0
M  END
>  <PUBCHEM_COMPOUND_CID>  (1) 
47331

>  <PUBCHEM_CONFORMER_RMSD>  (1) 
1

>  <PUBCHEM_CONFORMER_DIVERSEORDER>  (1) 
1
107
18
15
28
120
98
12
80
22
70
47
55
122
4
57
115
85
119
76
68
79
27
50
103
26
95
66
117
63
121
56
45
49
62
46
59
34
52
105
7
54
89
96
116
9
97
71
113
82
14
81
78
77
10
17
48
13
83
41
30
44
60
20
102
69
93
73
25
53
31
43
42
106
36
92
91
58
88
6
40
75
8
114
110
19
100
111
37
84
61
33
64
24
21
32
5
51
65
74
90
67
87
109
94
99
101
108
118
35
29
72
38
104
3
86
11
39
16
112
123
124
2
23

>  <PUBCHEM_MMFF94_PARTIAL_CHARGES>  (1) 
37
1 -0.29
10 -0.14
11 0.66
12 -0.15
13 -0.15
14 0.78
15 -0.15
16 -0.15
17 -0.15
18 0.42
19 0.57
2 -0.29
20 -0.14
21 -0.15
22 -0.15
23 0.29
24 -0.15
25 -0.15
26 -0.15
3 -0.43
30 0.37
31 0.15
32 0.15
33 0.15
34 0.15
35 0.15
39 0.15
4 -0.43
40 0.15
43 0.15
44 0.15
45 0.15
5 -0.57
6 -0.57
7 -0.73
8 0.36
9 0.14

>  <PUBCHEM_EFFECTIVE_ROTOR_COUNT>  (1) 
11

>  <PUBCHEM_PHARMACOPHORE_FEATURES>  (1) 
5
1 5 acceptor
1 6 acceptor
1 7 donor
6 10 12 13 15 16 17 rings
6 20 21 22 24 25 26 rings

>  <PUBCHEM_HEAVY_ATOM_COUNT>  (1) 
26

>  <PUBCHEM_ATOM_DEF_STEREO_COUNT>  (1) 
1

>  <PUBCHEM_ATOM_UDEF_STEREO_COUNT>  (1) 
1

>  <PUBCHEM_BOND_DEF_STEREO_COUNT>  (1) 
0

>  <PUBCHEM_BOND_UDEF_STEREO_COUNT>  (1) 
0

>  <PUBCHEM_ISOTOPIC_ATOM_COUNT>  (1) 
0

>  <PUBCHEM_COMPONENT_COUNT>  (1) 
1

>  <PUBCHEM_CACTVS_TAUTO_COUNT>  (1) 
2

>  <PUBCHEM_CONFORMER_ID>  (1) 
0000B8E300000001

>  <PUBCHEM_MMFF94_ENERGY>  (1) 
53.111

>  <PUBCHEM_FEATURE_SELFOVERLAP>  (1) 
25.372

>  <PUBCHEM_SHAPE_FINGERPRINT>  (1) 
10411042 1 17979915235972813799
10454371 7 18412263960446354837
107951 10 18411700945937101326
11007060 377 18411979148602049361
11273773 46 17844540911834298606
12390115 104 18411420592130814963
12616971 3 16732985336702836900
12788726 201 18264474230813532491
12821665 9 18189619522064821148
13911987 19 18117821241167841101
13914758 101 12679465261421785393
14790565 3 18051412864104230745
15183329 4 16917067712113651264
15230672 131 18267305340343470206
15927050 60 18341327782813226015
17844677 252 18340490079674976480
21033648 29 17846201298887632576
21236236 1 18410008866424369543
21304303 172 18268430308289459863
21792961 116 17561090194527306316
23198884 109 18130505249617084296
23559900 14 18272077336101825728
25269216 80 18115891727009808198
3610482 184 17968391095481802342
4058900 60 17981891843856208921
4073 2 18410012157160576618
497634 4 18114455760196142814
5104073 3 18338220631967045936
563151 40 18261118447794067178
5912855 24 18113332020563470066
59755656 520 18337670819691003749

>  <PUBCHEM_SHAPE_MULTIPOLES>  (1) 
510.35
18.03
4.14
1.27
34.27
3.31
-0.17
-8.39
1.25
-9.21
-1.29
-0.25
0.39
0.06

>  <PUBCHEM_SHAPE_SELFOVERLAP>  (1) 
1042.069

>  <PUBCHEM_SHAPE_VOLUME>  (1) 
294.1

>  <PUBCHEM_COORDINATE_TYPE>  (1) 
2
5
10

$$$$
