47348
     RDKit          3D

 24 28  0  0  1  0  0  0  0  0999 V2000
    3.2870   -1.4766   -0.1053 O   0  0  0  0  0  0  0  0  0  0  0  0
    4.6786    0.2384    0.7978 O   0  0  0  0  0  0  0  0  0  0  0  0
   -0.2609    1.6186   -0.3473 O   0  0  0  0  0  0  0  0  0  0  0  0
    2.6396    1.5173   -1.6683 O   0  0  0  0  0  0  0  0  0  0  0  0
   -4.4281    2.1075    0.8105 O   0  0  0  0  0  0  0  0  0  0  0  0
   -1.1796   -3.1160    0.3607 O   0  0  0  0  0  0  0  0  0  0  0  0
   -1.9570    3.1534   -0.5150 O   0  0  0  0  0  0  0  0  0  0  0  0
    2.6720    0.8777   -0.4091 C   0  0  0  0  0  0  0  0  0  0  0  0
    1.5032   -0.0075   -0.2116 C   0  0  0  0  0  0  0  0  0  0  0  0
    3.8263   -0.1453   -0.3100 C   0  0  0  0  0  0  0  0  0  0  0  0
   -2.1830   -0.3643    0.0576 C   0  0  0  0  0  0  0  0  0  0  0  0
   -0.7840   -0.7430    0.0261 C   0  0  0  0  0  0  0  0  0  0  0  0
    0.1497    0.2795   -0.1738 C   0  0  0  0  0  0  0  0  0  0  0  0
   -3.3468   -1.2765    0.2450 C   0  0  0  0  0  0  0  0  0  0  0  0
   -2.5609    0.9061   -0.1047 C   0  0  0  0  0  0  0  0  0  0  0  0
   -4.0428    1.0595   -0.0608 C   0  0  0  0  0  0  0  0  0  0  0  0
   -4.4967   -0.2953    0.4974 C   0  0  0  0  0  0  0  0  0  0  0  0
    1.9277   -1.3157   -0.0533 C   0  0  0  0  0  0  0  0  0  0  0  0
    2.9919    1.8063    0.6963 C   0  0  0  0  0  0  0  0  0  0  0  0
   -0.3305   -2.0640    0.1819 C   0  0  0  0  0  0  0  0  0  0  0  0
    1.0372   -2.3570    0.1430 C   0  0  0  0  0  0  0  0  0  0  0  0
   -1.6045    1.9938   -0.3379 C   0  0  0  0  0  0  0  0  0  0  0  0
    4.1005    1.3859    1.2933 C   0  0  0  0  0  0  0  0  0  0  0  0
   -1.6391   -3.7827   -0.8126 C   0  0  0  0  0  0  0  0  0  0  0  0
  1 10  1  0
  1 18  1  0
  2 10  1  0
  2 23  1  0
  3 13  1  0
  3 22  1  0
  4  8  1  0
  5 16  1  0
  6 20  1  0
  6 24  1  0
  7 22  2  0
  8  9  1  0
  8 10  1  0
  8 19  1  0
  9 13  2  0
  9 18  1  0
 11 12  1  0
 11 14  1  0
 11 15  2  0
 12 13  1  0
 12 20  2  0
 14 17  1  0
 15 16  1  0
 15 22  1  0
 16 17  1  0
 18 21  2  0
 19 23  2  0
 20 21  1  0
M  END
>  <PUBCHEM_COMPOUND_CID>  (1) 
47348

>  <PUBCHEM_CONFORMER_RMSD>  (1) 
0.6

>  <PUBCHEM_CONFORMER_DIVERSEORDER>  (1) 
1

>  <PUBCHEM_MMFF94_PARTIAL_CHARGES>  (1) 
28
1 -0.36
10 0.56
11 -0.17
12 0.03
13 0.08
14 0.14
15 -0.12
16 0.42
18 0.08
19 -0.29
2 -0.36
20 0.08
21 -0.15
22 0.71
23 -0.07
24 0.28
3 -0.23
31 0.15
32 0.15
33 0.15
34 0.4
35 0.4
4 -0.68
5 -0.68
6 -0.36
7 -0.57
8 0.56
9 -0.14

>  <PUBCHEM_EFFECTIVE_ROTOR_COUNT>  (1) 
2

>  <PUBCHEM_PHARMACOPHORE_FEATURES>  (1) 
13
1 1 acceptor
1 2 acceptor
1 4 acceptor
1 4 donor
1 5 acceptor
1 5 donor
1 6 acceptor
1 7 acceptor
5 1 8 9 10 18 rings
5 11 14 15 16 17 rings
5 2 8 10 19 23 rings
6 3 11 12 13 15 22 rings
6 9 12 13 18 20 21 rings

>  <PUBCHEM_HEAVY_ATOM_COUNT>  (1) 
24

>  <PUBCHEM_ATOM_DEF_STEREO_COUNT>  (1) 
2

>  <PUBCHEM_ATOM_UDEF_STEREO_COUNT>  (1) 
1

>  <PUBCHEM_BOND_DEF_STEREO_COUNT>  (1) 
0

>  <PUBCHEM_BOND_UDEF_STEREO_COUNT>  (1) 
0

>  <PUBCHEM_ISOTOPIC_ATOM_COUNT>  (1) 
0

>  <PUBCHEM_COMPONENT_COUNT>  (1) 
1

>  <PUBCHEM_CACTVS_TAUTO_COUNT>  (1) 
1

>  <PUBCHEM_CONFORMER_ID>  (1) 
0000B8F400000001

>  <PUBCHEM_MMFF94_ENERGY>  (1) 
92.5945

>  <PUBCHEM_FEATURE_SELFOVERLAP>  (1) 
66.724

>  <PUBCHEM_SHAPE_FINGERPRINT>  (1) 
10319926 262 18198039543914112416
10411042 1 16753814158636627407
10967382 1 18409169917530002327
1100329 8 18049724324209690203
11132069 177 18334575737450841165
11370993 70 18338508647340450449
11578080 2 17058358430431323490
12173636 292 18411979127121652197
12403259 226 18410852127555553352
12403259 415 18411698764415240572
12403814 3 17530958129237845333
12553582 1 17688321504484058630
12633257 1 18267283474437528712
12788726 201 17756999174008308666
13140716 1 18120654896636594376
13224815 77 18408601448533160033
138480 1 17402612944244923087
14081887 123 18199742720767202523
14178342 30 18193830659967455090
14223421 5 18192714445179943509
14790565 3 18337405901745394589
15042514 8 18335985384298540003
15196674 1 18410013212778136427
15536298 74 18341052925873897574
16945 1 18337393858534893878
17349148 13 17967249827522461319
18186145 218 18341619165714160916
19591789 44 18338800009374204415
20261772 1 18265342870288945363
20510252 161 18342175540199597153
20715895 44 17970616408116719965
20739085 24 18047497563791635625
21033648 29 18268975540949086072
21267235 1 18336277790130334747
21524375 3 18409733932540627403
21756936 100 17626091311901963640
23227448 37 18271239542352889110
2334 1 18336829684494772093
23402539 116 18341040921704205511
23557571 272 18128826428774170206
23559900 14 18343866628481243758
25147074 1 17897444115556835788
2748010 2 18191026711699966391
335352 9 18338799996805917974
350125 39 18265339412866418196
474 4 18114188527024932517
5104073 3 18337113354721965787
58807428 26 18334292033196161403
59755656 215 18265335006150669676
633830 44 18059574620827461453
6438718 38 17915184735191499479
69090 78 18411415124474111523
7064713 232 18410013221447660009
7097593 13 18042666374308268690
7364860 26 18051975814099895479
7808743 9 18337953527735291848
81228 2 18047748483874942003
9709674 26 18343304803308549038
9862522 239 18042384885908371293

>  <PUBCHEM_SHAPE_MULTIPOLES>  (1) 
452.82
8.13
3.43
0.9
0.92
1.75
0.06
-3.31
-1.8
-2.11
0.37
0.49
-0.24
0.08

>  <PUBCHEM_SHAPE_SELFOVERLAP>  (1) 
1038.34

>  <PUBCHEM_SHAPE_VOLUME>  (1) 
235.5

>  <PUBCHEM_COORDINATE_TYPE>  (1) 
2
5
10

$$$$
