47343
     RDKit          3D

 23 26  0  0  1  0  0  0  0  0999 V2000
    0.6856   -0.0246   -0.5615 N   0  0  0  0  0  0  0  0  0  0  0  0
    2.8837    0.0751    1.2929 N   0  0  0  0  0  0  0  0  0  0  0  0
    2.8528   -1.2721   -0.8311 C   0  0  0  0  0  0  0  0  0  0  0  0
    2.8556    1.1817   -0.9657 C   0  0  0  0  0  0  0  0  0  0  0  0
    3.4409   -0.0839   -1.5916 C   0  0  0  0  0  0  0  0  0  0  0  0
    1.3178   -1.2731   -1.0120 C   0  0  0  0  0  0  0  0  0  0  0  0
    1.3203    1.1662   -1.1454 C   0  0  0  0  0  0  0  0  0  0  0  0
    3.2869   -1.1841    0.6499 C   0  0  0  0  0  0  0  0  0  0  0  0
    3.2900    1.2552    0.5159 C   0  0  0  0  0  0  0  0  0  0  0  0
   -0.7514   -0.0371   -0.8211 C   0  0  0  0  0  0  0  0  0  0  0  0
    3.3801    0.1497    2.6642 C   0  0  0  0  0  0  0  0  0  0  0  0
   -1.4345    1.2438   -0.3651 C   0  0  0  0  0  0  0  0  0  0  0  0
   -1.4317   -1.2746   -0.2547 C   0  0  0  0  0  0  0  0  0  0  0  0
   -2.5581    1.6772   -1.0390 C   0  0  0  0  0  0  0  0  0  0  0  0
   -1.5366   -2.3999   -1.0467 C   0  0  0  0  0  0  0  0  0  0  0  0
   -0.9104    1.9337    0.7093 C   0  0  0  0  0  0  0  0  0  0  0  0
   -1.9234   -1.2350    1.0344 C   0  0  0  0  0  0  0  0  0  0  0  0
   -3.1846    2.8513   -0.6209 C   0  0  0  0  0  0  0  0  0  0  0  0
   -2.1601   -3.5346   -0.5275 C   0  0  0  0  0  0  0  0  0  0  0  0
   -1.5370    3.1077    1.1274 C   0  0  0  0  0  0  0  0  0  0  0  0
   -2.5467   -2.3698    1.5535 C   0  0  0  0  0  0  0  0  0  0  0  0
   -2.6740    3.5665    0.4622 C   0  0  0  0  0  0  0  0  0  0  0  0
   -2.6651   -3.5195    0.7726 C   0  0  0  0  0  0  0  0  0  0  0  0
  1  6  1  0
  1  7  1  0
  1 10  1  0
  2  8  1  0
  2  9  1  0
  2 11  1  0
  3  5  1  0
  3  6  1  0
  3  8  1  0
  4  5  1  0
  4  7  1  0
  4  9  1  0
 10 12  1  0
 10 13  1  0
 12 14  2  0
 12 16  1  0
 13 15  2  0
 13 17  1  0
 14 18  1  0
 15 19  1  0
 16 20  2  0
 17 21  2  0
 18 22  2  0
 19 23  2  0
 20 22  1  0
 21 23  1  0
M  END
>  <PUBCHEM_COMPOUND_CID>  (1) 
47343

>  <PUBCHEM_CONFORMER_RMSD>  (1) 
0.8

>  <PUBCHEM_CONFORMER_DIVERSEORDER>  (1) 
1
5
6
4
2
3

>  <PUBCHEM_MMFF94_PARTIAL_CHARGES>  (1) 
30
1 -0.81
10 0.56
11 0.27
12 -0.14
13 -0.14
14 -0.15
15 -0.15
16 -0.15
17 -0.15
18 -0.15
19 -0.15
2 -0.81
20 -0.15
21 -0.15
22 -0.15
23 -0.15
40 0.15
41 0.15
42 0.15
43 0.15
44 0.15
45 0.15
46 0.15
47 0.15
48 0.15
49 0.15
6 0.27
7 0.27
8 0.27
9 0.27

>  <PUBCHEM_EFFECTIVE_ROTOR_COUNT>  (1) 
4.4

>  <PUBCHEM_PHARMACOPHORE_FEATURES>  (1) 
6
1 1 cation
1 2 cation
6 1 3 4 5 6 7 rings
6 12 14 16 18 20 22 rings
6 13 15 17 19 21 23 rings
6 2 3 4 5 8 9 rings

>  <PUBCHEM_HEAVY_ATOM_COUNT>  (1) 
23

>  <PUBCHEM_ATOM_DEF_STEREO_COUNT>  (1) 
0

>  <PUBCHEM_ATOM_UDEF_STEREO_COUNT>  (1) 
2

>  <PUBCHEM_BOND_DEF_STEREO_COUNT>  (1) 
0

>  <PUBCHEM_BOND_UDEF_STEREO_COUNT>  (1) 
0

>  <PUBCHEM_ISOTOPIC_ATOM_COUNT>  (1) 
0

>  <PUBCHEM_COMPONENT_COUNT>  (1) 
1

>  <PUBCHEM_CACTVS_TAUTO_COUNT>  (1) 
1

>  <PUBCHEM_CONFORMER_ID>  (1) 
0000B8EF00000001

>  <PUBCHEM_MMFF94_ENERGY>  (1) 
71.6434

>  <PUBCHEM_FEATURE_SELFOVERLAP>  (1) 
32.141

>  <PUBCHEM_SHAPE_FINGERPRINT>  (1) 
11578080 2 17703791482741231161
12160290 23 18408600353611652271
12549972 3 18059572439248020658
12553582 1 17978236276530448559
12643181 29 17977966592247067566
12788726 201 18261678176674568115
13004483 165 18337959007891944027
13140716 1 18266743678256757785
13681431 1 17615418390504410589
13692114 37 18267300925284933513
13965767 371 17623341230776438331
14081887 123 18340481270079692282
14178342 30 18335128787757755442
14223421 5 18340770463329099892
14468879 13 17271119316331541192
14787075 74 18271238336274492861
15295992 7 17774445949586671280
15420108 30 16759415108894671341
16752209 62 18408041793009552503
17974551 9 17695581305306091130
18981168 100 18131637768321270040
20197701 30 18118947115093415069
20567600 347 18050560738867442817
20691752 17 18054782884423792200
21524375 3 17908986508982959509
21731228 192 18121786028066921393
22907989 373 18337692882985697773
23419403 2 13536494073863419239
23557571 272 18342728654867450682
23558518 356 18339917096240173655
23559900 14 18411419522947585694
25222932 49 15009319522134190105
3091708 16 8625225045939711253
35225 105 18262820470286801483
352729 6 18411427172178851351
4340502 62 17975145236751433617
474 4 17834685898366236493
58807428 26 17978500936757382369
6049 1 17988935487173412838
621550 5 17198586793689995622
70251023 43 18048337796743827502
7364860 26 17188690841131920581
81228 2 18409168835446020727
84936 182 17407395836873495905
90316 7 18268440207608633595
9981440 41 17629446827498228994

>  <PUBCHEM_SHAPE_MULTIPOLES>  (1) 
463.37
6.26
4.47
1.74
4.36
0.33
-0.79
-0.38
-0.94
-6.69
-0.58
1.22
0.12
0.52

>  <PUBCHEM_SHAPE_SELFOVERLAP>  (1) 
1004.021

>  <PUBCHEM_SHAPE_VOLUME>  (1) 
246.2

>  <PUBCHEM_COORDINATE_TYPE>  (1) 
2
5
10

$$$$
