47356
     RDKit          3D

 18 19  0  0  0  0  0  0  0  0999 V2000
    4.9219    1.3541   -0.1560 F   0  0  0  0  0  0  0  0  0  0  0  0
    3.1196    2.3326   -0.8621 F   0  0  0  0  0  0  0  0  0  0  0  0
    3.4109    2.0022    1.2673 F   0  0  0  0  0  0  0  0  0  0  0  0
   -3.3447   -1.6131    0.6196 O   0  0  0  0  0  0  0  0  0  0  0  0
   -3.5987    0.6514    0.1598 N   0  0  0  0  0  0  0  0  0  0  0  0
   -5.0356    0.7183    0.3058 C   0  0  0  0  0  0  0  0  0  0  0  0
   -5.9269    0.3619   -0.8324 C   0  0  0  0  0  0  0  0  0  0  0  0
   -5.8126    1.7879   -0.3792 C   0  0  0  0  0  0  0  0  0  0  0  0
   -2.8756   -0.5170    0.3310 C   0  0  0  0  0  0  0  0  0  0  0  0
   -1.4157   -0.3002    0.1207 C   0  0  0  0  0  0  0  0  0  0  0  0
   -0.5634   -1.3294    0.2343 C   0  0  0  0  0  0  0  0  0  0  0  0
    0.8941   -1.2335    0.0396 C   0  0  0  0  0  0  0  0  0  0  0  0
    1.5113    0.0035    0.1318 C   0  0  0  0  0  0  0  0  0  0  0  0
    2.8911    0.0937   -0.0521 C   0  0  0  0  0  0  0  0  0  0  0  0
    1.6189   -2.3826   -0.2317 C   0  0  0  0  0  0  0  0  0  0  0  0
    3.6347   -1.0543   -0.3257 C   0  0  0  0  0  0  0  0  0  0  0  0
    2.9986   -2.2925   -0.4156 C   0  0  0  0  0  0  0  0  0  0  0  0
    3.5721    1.4170    0.0449 C   0  0  0  0  0  0  0  0  0  0  0  0
  1 18  1  0
  2 18  1  0
  3 18  1  0
  4  9  2  0
  5  6  1  0
  5  9  1  0
  6  7  1  0
  6  8  1  0
  7  8  1  0
  9 10  1  0
 10 11  2  0
 11 12  1  0
 12 13  2  0
 12 15  1  0
 13 14  1  0
 14 16  2  0
 14 18  1  0
 15 17  2  0
 16 17  1  0
M  END
>  <PUBCHEM_COMPOUND_CID>  (1) 
47356

>  <PUBCHEM_CONFORMER_RMSD>  (1) 
0.8

>  <PUBCHEM_CONFORMER_DIVERSEORDER>  (1) 
2
3
5
4
1

>  <PUBCHEM_MMFF94_PARTIAL_CHARGES>  (1) 
30
1 -0.34
10 -0.14
11 -0.18
12 0.03
13 -0.15
14 -0.14
15 -0.15
16 -0.15
17 -0.15
18 1.16
19 0.1
2 -0.34
20 0.1
21 0.1
22 0.1
23 0.1
24 0.37
25 0.15
26 0.15
27 0.15
28 0.15
29 0.15
3 -0.34
30 0.15
4 -0.57
5 -0.58
6 0.05
7 -0.2
8 -0.2
9 0.62

>  <PUBCHEM_EFFECTIVE_ROTOR_COUNT>  (1) 
5.6

>  <PUBCHEM_PHARMACOPHORE_FEATURES>  (1) 
3
1 4 acceptor
1 5 donor
6 12 13 14 15 16 17 rings

>  <PUBCHEM_HEAVY_ATOM_COUNT>  (1) 
18

>  <PUBCHEM_ATOM_DEF_STEREO_COUNT>  (1) 
0

>  <PUBCHEM_ATOM_UDEF_STEREO_COUNT>  (1) 
0

>  <PUBCHEM_BOND_DEF_STEREO_COUNT>  (1) 
0

>  <PUBCHEM_BOND_UDEF_STEREO_COUNT>  (1) 
1

>  <PUBCHEM_ISOTOPIC_ATOM_COUNT>  (1) 
0

>  <PUBCHEM_COMPONENT_COUNT>  (1) 
1

>  <PUBCHEM_CACTVS_TAUTO_COUNT>  (1) 
2

>  <PUBCHEM_CONFORMER_ID>  (1) 
0000B8FC00000002

>  <PUBCHEM_MMFF94_ENERGY>  (1) 
37.4919

>  <PUBCHEM_FEATURE_SELFOVERLAP>  (1) 
15.223

>  <PUBCHEM_SHAPE_FINGERPRINT>  (1) 
10014705 185 18334294271607234667
10411042 1 17762620586483665222
10595046 47 18271802403077205415
11089746 13 18261950752563664563
11405975 8 18334296444328346235
11471102 20 18341334405298777098
11595378 159 15792005628598795493
12403259 118 18043807808742334464
12596602 18 14201412585437100661
12616999 72 16415480424237268767
12633257 1 16515683398374384765
12730499 353 18410020922503421979
12769317 202 18271801362846209728
13081056 2 18334858264968599269
13551218 46 8646763405424343193
13675066 3 17894923918831125131
13836976 161 17846777364943734494
13955234 65 18043811983720195819
1420 369 9439403536531171073
14528608 73 18272366477895203511
14774955 27 18408602595336920581
14848178 96 18410857672284622609
15196674 1 18410013247512635547
15342168 16 18262240026863115373
17834072 33 18272928319905558343
17844677 252 18339088077863913361
17959699 21 18410572847628890945
20157964 124 18410853227462644831
20281475 54 9871477529528655066
20612939 158 18341898450299904434
20645477 56 18114184116731946439
20645477 70 18202285758082085455
212847 35 18335703832207064000
21452121 103 18409161100099280882
22289505 5 18412546475026671380
23402655 69 18272369776008398855
23559900 14 18341612555860446835
2916195 48 18186519883117084041
29717793 49 17489308517050648295
335352 9 18411703171705717006
3545911 37 18409453591878017699
43658 37 18272645796344683338
474 4 18334298698906133608
495365 180 18343013385239851034
5104073 3 18333455322549643323
59755656 215 18411141308056845788
633830 44 18334009505963402063
90127 26 18188218602685522491

>  <PUBCHEM_SHAPE_MULTIPOLES>  (1) 
337.76
12.85
2.44
0.79
17.28
0.25
-0.02
6.57
1.75
-2.77
0.09
0.06
0.14
0.71

>  <PUBCHEM_SHAPE_SELFOVERLAP>  (1) 
709.067

>  <PUBCHEM_SHAPE_VOLUME>  (1) 
191.6

>  <PUBCHEM_COORDINATE_TYPE>  (1) 
2
5
10

$$$$
