47357
     RDKit          3D

 15 15  0  0  0  0  0  0  0  0999 V2000
    4.3033    0.0677   -0.1177 F   0  0  0  0  0  0  0  0  0  0  0  0
    3.3214   -1.5096    1.0012 F   0  0  0  0  0  0  0  0  0  0  0  0
    3.1917   -1.4775   -1.1692 F   0  0  0  0  0  0  0  0  0  0  0  0
   -4.2849   -1.6498    0.3109 O   0  0  0  0  0  0  0  0  0  0  0  0
   -5.2879    0.2873   -0.4190 N   0  0  0  0  0  0  0  0  0  0  0  0
    1.9154    0.1491    0.0050 C   0  0  0  0  0  0  0  0  0  0  0  0
   -0.4928    0.2969    0.1315 C   0  0  0  0  0  0  0  0  0  0  0  0
    0.6683   -0.4730    0.0637 C   0  0  0  0  0  0  0  0  0  0  0  0
    2.0013    1.5413    0.0142 C   0  0  0  0  0  0  0  0  0  0  0  0
   -0.4070    1.6891    0.1408 C   0  0  0  0  0  0  0  0  0  0  0  0
    0.8403    2.3113    0.0823 C   0  0  0  0  0  0  0  0  0  0  0  0
    3.1572   -0.6738   -0.0665 C   0  0  0  0  0  0  0  0  0  0  0  0
   -1.7936   -0.3513    0.1934 C   0  0  0  0  0  0  0  0  0  0  0  0
   -2.9249    0.2719   -0.1239 C   0  0  0  0  0  0  0  0  0  0  0  0
   -4.2077   -0.4796   -0.0467 C   0  0  0  0  0  0  0  0  0  0  0  0
  1 12  1  0
  2 12  1  0
  3 12  1  0
  4 15  2  0
  5 15  1  0
  6  8  2  0
  6  9  1  0
  6 12  1  0
  7  8  1  0
  7 10  2  0
  7 13  1  0
  9 11  2  0
 10 11  1  0
 13 14  2  0
 14 15  1  0
M  END
>  <PUBCHEM_COMPOUND_CID>  (1) 
47357

>  <PUBCHEM_CONFORMER_RMSD>  (1) 
0.6

>  <PUBCHEM_CONFORMER_DIVERSEORDER>  (1) 
1
6
4
5
2
3

>  <PUBCHEM_MMFF94_PARTIAL_CHARGES>  (1) 
23
1 -0.34
10 -0.15
11 -0.15
12 1.16
13 -0.18
14 -0.14
15 0.62
16 0.15
17 0.15
18 0.15
19 0.15
2 -0.34
20 0.15
21 0.15
22 0.37
23 0.37
3 -0.34
4 -0.57
5 -0.8
6 -0.14
7 0.03
8 -0.15
9 -0.15

>  <PUBCHEM_EFFECTIVE_ROTOR_COUNT>  (1) 
3

>  <PUBCHEM_PHARMACOPHORE_FEATURES>  (1) 
3
1 4 acceptor
1 5 donor
6 6 7 8 9 10 11 rings

>  <PUBCHEM_HEAVY_ATOM_COUNT>  (1) 
15

>  <PUBCHEM_ATOM_DEF_STEREO_COUNT>  (1) 
0

>  <PUBCHEM_ATOM_UDEF_STEREO_COUNT>  (1) 
0

>  <PUBCHEM_BOND_DEF_STEREO_COUNT>  (1) 
0

>  <PUBCHEM_BOND_UDEF_STEREO_COUNT>  (1) 
1

>  <PUBCHEM_ISOTOPIC_ATOM_COUNT>  (1) 
0

>  <PUBCHEM_COMPONENT_COUNT>  (1) 
1

>  <PUBCHEM_CACTVS_TAUTO_COUNT>  (1) 
2

>  <PUBCHEM_CONFORMER_ID>  (1) 
0000B8FD00000001

>  <PUBCHEM_MMFF94_ENERGY>  (1) 
31.6586

>  <PUBCHEM_FEATURE_SELFOVERLAP>  (1) 
15.223

>  <PUBCHEM_SHAPE_FINGERPRINT>  (1) 
11471102 20 18410290345764716789
11543360 7 16081381781575974159
11806522 49 18410857680821653560
12032990 46 18412267224642416903
13675066 3 17846494838037009251
13690532 89 18412544301646508451
14115302 16 17749400281460037430
14251717 144 18412826901709569351
14252887 29 18202287996097351090
15242439 84 18187078464988408711
15442244 35 18412548695641106785
15477762 27 18413392050870687164
15848700 24 18342738494442444508
17834072 8 18335978701888161589
18186145 218 17894901967247889941
18222031 100 18131347496840087110
200 152 18060415824990836149
20339313 130 18342741835890181377
20645477 70 18412544349044194679
20671657 53 18408041792793332969
20871998 22 18272375217947915972
21267235 1 18412272734964274782
21296965 67 18413107234293778352
21501925 9 18342453746679633224
221490 88 18191311691760582011
22485316 2 18335136501255216443
23402539 116 18341323435772779855
23402655 69 18410291432660448693
23559900 14 18409726296130784888
32948 21 17749943372064846613
4047638 21 12396304750929471998
4463277 69 17417538994758511222
5104073 3 18340488967283488657
633830 44 17603861256608231957
7364860 26 18199749313890771944
8809292 202 18259989305619068579
94968 8 18409452487987136994
9709674 26 18118123812875871795

>  <PUBCHEM_SHAPE_MULTIPOLES>  (1) 
276.02
8.68
1.81
0.72
7.61
0.62
0.02
-3.67
0.65
-0.9
-0.07
-0.28
-0.16
0.22

>  <PUBCHEM_SHAPE_SELFOVERLAP>  (1) 
581.256

>  <PUBCHEM_SHAPE_VOLUME>  (1) 
155.9

>  <PUBCHEM_COORDINATE_TYPE>  (1) 
2
5
10

$$$$
