47350
     RDKit          3D

  6  5  0  0  1  0  0  0  0  0999 V2000
   -2.7409    0.3774    0.3295 Br  0  0  0  0  0  0  0  0  0  0  0  0
   -0.2225   -1.5404   -0.0662 O   0  0  0  0  0  0  0  0  0  0  0  0
    0.0607   -0.1668    0.1980 C   0  0  0  0  0  0  0  0  0  0  0  0
   -0.9895    0.7091   -0.4718 C   0  0  0  0  0  0  0  0  0  0  0  0
    1.4211    0.1241   -0.3652 C   0  0  0  0  0  0  0  0  0  0  0  0
    2.4711    0.4966    0.3757 C   0  0  0  0  0  0  0  0  0  0  0  0
  1  4  1  0
  2  3  1  0
  3  4  1  0
  3  5  1  0
  5  6  2  0
M  END
>  <PUBCHEM_COMPOUND_CID>  (1) 
47350

>  <PUBCHEM_CONFORMER_RMSD>  (1) 
0.4

>  <PUBCHEM_CONFORMER_DIVERSEORDER>  (1) 
1
11
10
12
7
9
2
4
3
5
6
8

>  <PUBCHEM_MMFF94_PARTIAL_CHARGES>  (1) 
10
1 -0.23
10 0.15
11 0.4
12 0.15
13 0.15
2 -0.68
3 0.42
4 0.23
5 -0.29
6 -0.3

>  <PUBCHEM_EFFECTIVE_ROTOR_COUNT>  (1) 
2

>  <PUBCHEM_PHARMACOPHORE_FEATURES>  (1) 
4
1 1 hydrophobe
1 2 acceptor
1 2 donor
1 6 hydrophobe

>  <PUBCHEM_HEAVY_ATOM_COUNT>  (1) 
6

>  <PUBCHEM_ATOM_DEF_STEREO_COUNT>  (1) 
0

>  <PUBCHEM_ATOM_UDEF_STEREO_COUNT>  (1) 
1

>  <PUBCHEM_BOND_DEF_STEREO_COUNT>  (1) 
0

>  <PUBCHEM_BOND_UDEF_STEREO_COUNT>  (1) 
0

>  <PUBCHEM_ISOTOPIC_ATOM_COUNT>  (1) 
0

>  <PUBCHEM_COMPONENT_COUNT>  (1) 
1

>  <PUBCHEM_CACTVS_TAUTO_COUNT>  (1) 
1

>  <PUBCHEM_CONFORMER_ID>  (1) 
0000B8F600000001

>  <PUBCHEM_MMFF94_ENERGY>  (1) 
3.995

>  <PUBCHEM_FEATURE_SELFOVERLAP>  (1) 
20.297

>  <PUBCHEM_SHAPE_FINGERPRINT>  (1) 
14390081 3 18131069295019079969
16714656 1 18335139816769463469
20096714 4 18410007732589887724
21040471 1 18410296916911439030
29004967 10 18114472171266199769
5460574 1 9583518715626819141

>  <PUBCHEM_SHAPE_MULTIPOLES>  (1) 
123.55
3.75
1.06
0.74
0.73
0.38
0.01
-0.98
0.65
0.07
-0.03
0.04
-0.07
0.08

>  <PUBCHEM_SHAPE_SELFOVERLAP>  (1) 
206.485

>  <PUBCHEM_SHAPE_VOLUME>  (1) 
86.1

>  <PUBCHEM_COORDINATE_TYPE>  (1) 
2
5
10

$$$$
