47368
     RDKit          3D

 16 17  0  0  1  0  0  0  0  0999 V2000
    0.8147   -2.7539    0.5105 Cl  0  0  0  0  0  0  0  0  0  0  0  0
    4.8007    0.6287   -0.7704 Cl  0  0  0  0  0  0  0  0  0  0  0  0
   -1.5258    2.0296    1.3151 O   0  0  0  0  0  0  0  0  0  0  0  0
   -3.5257   -0.5399   -1.9130 O   0  0  0  0  0  0  0  0  0  0  0  0
   -1.7192   -0.9404   -0.4831 N   0  0  0  0  0  0  0  0  0  0  0  0
   -2.7806    1.0112   -0.3489 N   0  0  0  0  0  0  0  0  0  0  0  0
   -1.0133   -0.2560    0.5913 C   0  0  0  0  0  0  0  0  0  0  0  0
    0.4580   -0.0654    0.2508 C   0  0  0  0  0  0  0  0  0  0  0  0
   -1.7767    1.0772    0.5881 C   0  0  0  0  0  0  0  0  0  0  0  0
   -1.3222   -0.9598    1.9189 C   0  0  0  0  0  0  0  0  0  0  0  0
   -2.7696   -0.1921   -1.0166 C   0  0  0  0  0  0  0  0  0  0  0  0
    1.3460   -1.1424    0.1951 C   0  0  0  0  0  0  0  0  0  0  0  0
    0.9194    1.2269   -0.0107 C   0  0  0  0  0  0  0  0  0  0  0  0
    2.6877   -0.9282   -0.1203 C   0  0  0  0  0  0  0  0  0  0  0  0
    2.2612    1.4410   -0.3260 C   0  0  0  0  0  0  0  0  0  0  0  0
    3.1454    0.3635   -0.3809 C   0  0  0  0  0  0  0  0  0  0  0  0
  1 12  1  0
  2 16  1  0
  3  9  2  0
  4 11  2  0
  5  7  1  0
  5 11  1  0
  6  9  1  0
  6 11  1  0
  7  8  1  0
  7  9  1  0
  7 10  1  0
  8 12  2  0
  8 13  1  0
 12 14  1  0
 13 15  2  0
 14 16  2  0
 15 16  1  0
M  END
>  <PUBCHEM_COMPOUND_CID>  (1) 
47368

>  <PUBCHEM_CONFORMER_RMSD>  (1) 
0.6

>  <PUBCHEM_CONFORMER_DIVERSEORDER>  (1) 
2
7
5
6
1
8
4
3

>  <PUBCHEM_MMFF94_PARTIAL_CHARGES>  (1) 
20
1 -0.18
11 0.69
12 0.18
13 -0.15
14 -0.15
15 -0.15
16 0.18
17 0.37
2 -0.18
21 0.37
22 0.15
23 0.15
24 0.15
3 -0.57
4 -0.57
5 -0.73
6 -0.49
7 0.5
8 -0.14
9 0.57

>  <PUBCHEM_EFFECTIVE_ROTOR_COUNT>  (1) 
1.6

>  <PUBCHEM_PHARMACOPHORE_FEATURES>  (1) 
6
1 3 acceptor
1 4 acceptor
1 5 donor
1 6 donor
5 5 6 7 9 11 rings
6 8 12 13 14 15 16 rings

>  <PUBCHEM_HEAVY_ATOM_COUNT>  (1) 
16

>  <PUBCHEM_ATOM_DEF_STEREO_COUNT>  (1) 
0

>  <PUBCHEM_ATOM_UDEF_STEREO_COUNT>  (1) 
1

>  <PUBCHEM_BOND_DEF_STEREO_COUNT>  (1) 
0

>  <PUBCHEM_BOND_UDEF_STEREO_COUNT>  (1) 
0

>  <PUBCHEM_ISOTOPIC_ATOM_COUNT>  (1) 
0

>  <PUBCHEM_COMPONENT_COUNT>  (1) 
1

>  <PUBCHEM_CACTVS_TAUTO_COUNT>  (1) 
5

>  <PUBCHEM_CONFORMER_ID>  (1) 
0000B90800000002

>  <PUBCHEM_MMFF94_ENERGY>  (1) 
48.5894

>  <PUBCHEM_FEATURE_SELFOVERLAP>  (1) 
30.517

>  <PUBCHEM_SHAPE_FINGERPRINT>  (1) 
11543360 7 16988849406158190420
12138202 97 17530681047649006187
12423570 1 17262152528482187987
124424 183 16660637454104323372
12491281 212 18269846328129504624
13024252 1 12252183021671288945
13380535 76 18186522090060484850
13583140 156 16951404511140425224
15775835 57 18341338807492465124
15852999 172 17749101201496900122
16945 1 18336533959059166379
18186145 218 18335695082947362021
18534176 82 17458909352535725707
192875 21 18262217951021331456
200 152 18272649077615372885
20300324 65 18060702801383101988
21160774 45 18119824752478444578
21501502 16 18268429023471252464
228727 97 18272930527101789587
231179 274 17167858673672599708
23402539 116 18272091616899324060
23402655 69 18339356362447899925
23493267 7 17385725833164146840
23559900 14 17131545047433976306
23598291 2 18056195774129112855
25 1 18113896026856565111
2748010 2 18189346838606245920
353137 74 18412821387124405603
4175511 318 17095243652750619838
528886 8 18335141986039151968
57096353 35 18342453755359102516
63268167 104 18190458268488784433
633830 44 18266482957005172468
8030462 33 18413671301028036160

>  <PUBCHEM_SHAPE_MULTIPOLES>  (1) 
311.31
6.07
2.02
1.3
4.02
0.95
0.01
-1.78
2.67
0.31
-0.49
-1.42
0.06
-0.35

>  <PUBCHEM_SHAPE_SELFOVERLAP>  (1) 
656.406

>  <PUBCHEM_SHAPE_VOLUME>  (1) 
178.2

>  <PUBCHEM_COORDINATE_TYPE>  (1) 
2
5
10

$$$$
