47374
     RDKit          3D

 11 10  0  0  0  0  0  0  0  0999 V2000
   -0.0838    0.0652    1.7603 N   0  0  0  0  0  0  0  0  0  0  0  0
   -0.0357   -0.1767    0.3058 C   0  0  0  0  0  0  0  0  0  0  0  0
    0.4599   -1.6466    0.0023 C   0  0  0  0  0  0  0  0  0  0  0  0
    0.9417    0.8960   -0.2662 C   0  0  0  0  0  0  0  0  0  0  0  0
   -1.4841    0.0161   -0.2458 C   0  0  0  0  0  0  0  0  0  0  0  0
    2.3917    0.7856    0.2212 C   0  0  0  0  0  0  0  0  0  0  0  0
   -2.1524    1.3639    0.0659 C   0  0  0  0  0  0  0  0  0  0  0  0
   -0.4661   -2.7488    0.5438 C   0  0  0  0  0  0  0  0  0  0  0  0
    0.7161   -1.9340   -1.4880 C   0  0  0  0  0  0  0  0  0  0  0  0
    3.2435    1.9232   -0.3248 C   0  0  0  0  0  0  0  0  0  0  0  0
   -3.5307    1.4560   -0.5746 C   0  0  0  0  0  0  0  0  0  0  0  0
  1  2  1  0
  2  3  1  0
  2  4  1  0
  2  5  1  0
  3  8  1  0
  3  9  1  0
  4  6  1  0
  5  7  1  0
  6 10  1  0
  7 11  1  0
M  END
>  <PUBCHEM_COMPOUND_CID>  (1) 
47374

>  <PUBCHEM_CONFORMER_RMSD>  (1) 
0.6

>  <PUBCHEM_CONFORMER_DIVERSEORDER>  (1) 
2
3
1
4

>  <PUBCHEM_MMFF94_PARTIAL_CHARGES>  (1) 
4
1 -0.99
2 0.27
21 0.36
22 0.36

>  <PUBCHEM_EFFECTIVE_ROTOR_COUNT>  (1) 
5

>  <PUBCHEM_PHARMACOPHORE_FEATURES>  (1) 
5
1 1 cation
1 1 donor
1 10 hydrophobe
1 11 hydrophobe
3 3 8 9 hydrophobe

>  <PUBCHEM_HEAVY_ATOM_COUNT>  (1) 
11

>  <PUBCHEM_ATOM_DEF_STEREO_COUNT>  (1) 
0

>  <PUBCHEM_ATOM_UDEF_STEREO_COUNT>  (1) 
0

>  <PUBCHEM_BOND_DEF_STEREO_COUNT>  (1) 
0

>  <PUBCHEM_BOND_UDEF_STEREO_COUNT>  (1) 
0

>  <PUBCHEM_ISOTOPIC_ATOM_COUNT>  (1) 
0

>  <PUBCHEM_COMPONENT_COUNT>  (1) 
1

>  <PUBCHEM_CACTVS_TAUTO_COUNT>  (1) 
1

>  <PUBCHEM_CONFORMER_ID>  (1) 
0000B90E00000002

>  <PUBCHEM_MMFF94_ENERGY>  (1) 
11.3545

>  <PUBCHEM_FEATURE_SELFOVERLAP>  (1) 
25.373

>  <PUBCHEM_SHAPE_FINGERPRINT>  (1) 
1 1 18337667508134029692
10922049 32 18334863822097208408
12138202 97 18129386071586884612
13024252 1 16736348892594989714
13380535 76 18411979161027625215
13380536 305 18123192295038654023
14128692 85 17484800411928620607
14648413 74 17903353706793248001
16945 1 18118964943006645530
170605 34 18260544481481477065
19021347 4 18408323315014456587
19837323 101 18267864071783554860
20473742 2 18043521729529099038
20645477 56 18195815291514981600
20645477 70 18126838301835778813
20653085 51 18335990860487155400
20653091 64 17911793570853382715
20711985 327 17690554191629635435
20711985 344 17835220621678102202
20820808 20 18341892944299654153
20871998 184 17909843363521922806
21524375 3 18411408523088298084
23211744 41 17749667398588028169
23552423 10 18053376600988744389
2748010 2 18263664925334613551
58051976 378 18409721868731613829
58734985 102 17628360376401899959
58734987 41 18341619200179368468
59915604 170 16486968552888321632
68250623 7 18187355562734497306
76951 1 17059756854518193818
81228 2 17762887062985113721
81539 233 18334851671935590597

>  <PUBCHEM_SHAPE_MULTIPOLES>  (1) 
221.39
4.08
2.76
1.13
0.79
1.71
0.09
-4.48
-0.84
-0.29
-0.28
-0.05
0.39
0.34

>  <PUBCHEM_SHAPE_SELFOVERLAP>  (1) 
398.742

>  <PUBCHEM_SHAPE_VOLUME>  (1) 
145.3

>  <PUBCHEM_COORDINATE_TYPE>  (1) 
2
5
10

$$$$
