47378
     RDKit          3D

 12 11  0  0  0  0  0  0  0  0999 V2000
   -0.0117    1.2009    1.3259 N   0  0  0  0  0  0  0  0  0  0  0  0
   -0.0060    0.2663    0.1858 C   0  0  0  0  0  0  0  0  0  0  0  0
    1.2445    0.5912   -0.6841 C   0  0  0  0  0  0  0  0  0  0  0  0
   -1.2686    0.5237   -0.6908 C   0  0  0  0  0  0  0  0  0  0  0  0
    0.0325   -1.1687    0.7772 C   0  0  0  0  0  0  0  0  0  0  0  0
    2.6032    0.3996    0.0029 C   0  0  0  0  0  0  0  0  0  0  0  0
   -2.6232    0.2624   -0.0195 C   0  0  0  0  0  0  0  0  0  0  0  0
    0.0906   -2.2969   -0.2592 C   0  0  0  0  0  0  0  0  0  0  0  0
   -0.0786    2.5706    0.8535 C   0  0  0  0  0  0  0  0  0  0  0  0
    3.7499    0.6850   -0.9567 C   0  0  0  0  0  0  0  0  0  0  0  0
   -3.7748    0.6290   -0.9453 C   0  0  0  0  0  0  0  0  0  0  0  0
    0.0420   -3.6631    0.4102 C   0  0  0  0  0  0  0  0  0  0  0  0
  1  2  1  0
  1  9  1  0
  2  3  1  0
  2  4  1  0
  2  5  1  0
  3  6  1  0
  4  7  1  0
  5  8  1  0
  6 10  1  0
  7 11  1  0
  8 12  1  0
M  END
>  <PUBCHEM_COMPOUND_CID>  (1) 
47378

>  <PUBCHEM_CONFORMER_RMSD>  (1) 
0.8

>  <PUBCHEM_CONFORMER_DIVERSEORDER>  (1) 
2
3
7
4
5
6
1
9
8

>  <PUBCHEM_MMFF94_PARTIAL_CHARGES>  (1) 
4
1 -0.9
19 0.36
2 0.27
9 0.27

>  <PUBCHEM_EFFECTIVE_ROTOR_COUNT>  (1) 
7

>  <PUBCHEM_PHARMACOPHORE_FEATURES>  (1) 
5
1 1 cation
1 1 donor
1 10 hydrophobe
1 11 hydrophobe
1 12 hydrophobe

>  <PUBCHEM_HEAVY_ATOM_COUNT>  (1) 
12

>  <PUBCHEM_ATOM_DEF_STEREO_COUNT>  (1) 
0

>  <PUBCHEM_ATOM_UDEF_STEREO_COUNT>  (1) 
0

>  <PUBCHEM_BOND_DEF_STEREO_COUNT>  (1) 
0

>  <PUBCHEM_BOND_UDEF_STEREO_COUNT>  (1) 
0

>  <PUBCHEM_ISOTOPIC_ATOM_COUNT>  (1) 
0

>  <PUBCHEM_COMPONENT_COUNT>  (1) 
1

>  <PUBCHEM_CACTVS_TAUTO_COUNT>  (1) 
1

>  <PUBCHEM_CONFORMER_ID>  (1) 
0000B91200000002

>  <PUBCHEM_MMFF94_ENERGY>  (1) 
14.3271

>  <PUBCHEM_FEATURE_SELFOVERLAP>  (1) 
25.373

>  <PUBCHEM_SHAPE_FINGERPRINT>  (1) 
1 1 18334849481243793663
10756046 5 17836368142292220069
12138202 97 18264499536443855102
13380536 167 17766843818844639889
14713566 1 18336552702549751208
14943834 7 17694226564634702649
15279308 132 18339636862239784481
16945 1 18412544314299496613
17041 49 10015582878467101167
18186145 218 18412265051294480996
187816 3 18342742922754375188
20645476 183 18113623434225877998
20645477 70 18044922499486148263
20711985 344 17757541233240724226
22802520 49 17620471750014120791
228727 97 18129947775672904488
23402539 116 18272647935650197868
23419403 2 17056962085113372466
23552423 10 17979356356787681751
2748010 2 17185873342148355759
3060560 45 18265029458209494629
3250762 1 17692809706463424649
353137 74 18199473172888591069
4369600 1 18272080595854999953
589210 1 17763466110370692457
68250623 7 17765722321258066153
81228 2 17470156424754537339
81539 233 18041273266836483039

>  <PUBCHEM_SHAPE_MULTIPOLES>  (1) 
241.97
4.45
3.12
1.09
0.14
3.59
0.08
-2.24
-2.35
-0.1
0.93
0
-0.35
-0.04

>  <PUBCHEM_SHAPE_SELFOVERLAP>  (1) 
436.712

>  <PUBCHEM_SHAPE_VOLUME>  (1) 
157.4

>  <PUBCHEM_COORDINATE_TYPE>  (1) 
2
5
10

$$$$
