47372
     RDKit          3D

 17 18  0  0  0  0  0  0  0  0999 V2000
    0.4295   -1.5104   -0.2399 O   0  0  0  0  0  0  0  0  0  0  0  0
   -2.2567   -1.6974   -0.2720 O   0  0  0  0  0  0  0  0  0  0  0  0
   -3.8352    0.5305    0.1515 O   0  0  0  0  0  0  0  0  0  0  0  0
    4.6264   -0.9699    0.2117 O   0  0  0  0  0  0  0  0  0  0  0  0
    0.3107    0.8836    0.1981 C   0  0  0  0  0  0  0  0  0  0  0  0
   -0.2835   -0.3602   -0.0393 C   0  0  0  0  0  0  0  0  0  0  0  0
    2.4702   -0.0893   -0.0756 C   0  0  0  0  0  0  0  0  0  0  0  0
    1.8460   -1.3957   -0.4496 C   0  0  0  0  0  0  0  0  0  0  0  0
    1.7621    0.9983    0.2363 C   0  0  0  0  0  0  0  0  0  0  0  0
   -1.6753   -0.4833   -0.0503 C   0  0  0  0  0  0  0  0  0  0  0  0
   -0.5003    2.0037    0.4160 C   0  0  0  0  0  0  0  0  0  0  0  0
   -2.4772    0.6370    0.1638 C   0  0  0  0  0  0  0  0  0  0  0  0
   -1.8905    1.8795    0.3958 C   0  0  0  0  0  0  0  0  0  0  0  0
    3.9305    0.0141   -0.0510 C   0  0  0  0  0  0  0  0  0  0  0  0
    4.5530    1.3517   -0.3640 C   0  0  0  0  0  0  0  0  0  0  0  0
   -2.5213   -2.5057    0.8718 C   0  0  0  0  0  0  0  0  0  0  0  0
   -4.4884    0.7135   -1.1032 C   0  0  0  0  0  0  0  0  0  0  0  0
  1  6  1  0
  1  8  1  0
  2 10  1  0
  2 16  1  0
  3 12  1  0
  3 17  1  0
  4 14  2  0
  5  6  2  0
  5  9  1  0
  5 11  1  0
  6 10  1  0
  7  8  1  0
  7  9  2  0
  7 14  1  0
 10 12  2  0
 11 13  2  0
 12 13  1  0
 14 15  1  0
M  END
>  <PUBCHEM_COMPOUND_CID>  (1) 
47372

>  <PUBCHEM_CONFORMER_RMSD>  (1) 
0.6

>  <PUBCHEM_CONFORMER_DIVERSEORDER>  (1) 
6
1
4
5
7
3
2

>  <PUBCHEM_MMFF94_PARTIAL_CHARGES>  (1) 
20
1 -0.36
10 0.08
11 -0.15
12 0.08
13 -0.15
14 0.49
15 0.06
16 0.28
17 0.28
2 -0.36
20 0.15
21 0.15
22 0.15
3 -0.36
4 -0.57
5 0.03
6 0.08
7 -0.12
8 0.42
9 -0.18

>  <PUBCHEM_EFFECTIVE_ROTOR_COUNT>  (1) 
3.4

>  <PUBCHEM_PHARMACOPHORE_FEATURES>  (1) 
6
1 1 acceptor
1 2 acceptor
1 3 acceptor
1 4 acceptor
6 1 5 6 7 8 9 rings
6 5 6 10 11 12 13 rings

>  <PUBCHEM_HEAVY_ATOM_COUNT>  (1) 
17

>  <PUBCHEM_ATOM_DEF_STEREO_COUNT>  (1) 
0

>  <PUBCHEM_ATOM_UDEF_STEREO_COUNT>  (1) 
0

>  <PUBCHEM_BOND_DEF_STEREO_COUNT>  (1) 
0

>  <PUBCHEM_BOND_UDEF_STEREO_COUNT>  (1) 
0

>  <PUBCHEM_ISOTOPIC_ATOM_COUNT>  (1) 
0

>  <PUBCHEM_COMPONENT_COUNT>  (1) 
1

>  <PUBCHEM_CACTVS_TAUTO_COUNT>  (1) 
2

>  <PUBCHEM_CONFORMER_ID>  (1) 
0000B90C00000006

>  <PUBCHEM_MMFF94_ENERGY>  (1) 
70.5131

>  <PUBCHEM_FEATURE_SELFOVERLAP>  (1) 
30.49

>  <PUBCHEM_SHAPE_FINGERPRINT>  (1) 
10014705 185 18113615711589856205
10062212 137 18410849992883129578
10366900 7 17917708002649573000
10616163 171 18411985762851814670
10906281 52 18200892703041392373
10967382 1 18340770347027171322
11132069 177 18411978070475301152
11471102 20 18413103953175939780
11680986 33 18198334263837318385
12403814 3 17822009800644923477
13140716 1 18269280217206780177
13214271 11 18341894133910500198
13380535 76 18341050722587550615
13760787 19 18113057151530848114
13862211 1 18342450435497205279
14115302 16 18333739017470375613
14911166 2 18411692180435857469
15196674 1 18411701019314794766
15375358 24 18413670197026268790
16945 1 18340217305732295337
19591789 44 16030436236672995424
200 152 17561075908680323557
20510252 161 18271533090957221322
20588541 1 18341333318719277145
20645477 70 17703514290221772886
20871999 31 18335131042626018623
21029758 11 18201994413544984441
21267235 1 18340778052515258310
21339142 51 18409448124273906037
2334 1 18052820531214306657
23402539 116 18272079462300268501
23402655 69 18200866267654861861
23463225 33 18409730621732356016
23493267 7 18259980487666016699
23558518 356 17911530787268518953
23559900 14 18412261744939386976
2748010 2 18125433365887124113
3312278 4 18410296938291382042
335352 9 18339361868711537260
34934 24 18411132532784538571
3759504 43 17676486138527223299
4340502 62 16805612417539588761
474 4 17531819077324506980
5104073 3 18411701015262421546
54173680 148 18338519741346588115
57005193 9 18410285878798125983
58051976 378 18343024385109947564
69090 78 18201433653702474543
8809292 202 18408606984724899315
9709674 26 18200319805716834550

>  <PUBCHEM_SHAPE_MULTIPOLES>  (1) 
326.37
8.02
2.18
0.78
4.11
0.58
0.04
-0.66
1.26
-1.06
-0.37
-0.42
0.01
0.32

>  <PUBCHEM_SHAPE_SELFOVERLAP>  (1) 
696.836

>  <PUBCHEM_SHAPE_VOLUME>  (1) 
181.3

>  <PUBCHEM_COORDINATE_TYPE>  (1) 
2
5
10

$$$$
