47380
     RDKit          3D

 13 12  0  0  0  0  0  0  0  0999 V2000
    0.6562    1.4357    1.0297 N   0  0  0  0  0  0  0  0  0  0  0  0
    0.0643    0.3736    0.1960 C   0  0  0  0  0  0  0  0  0  0  0  0
   -0.1116   -0.8873    1.0932 C   0  0  0  0  0  0  0  0  0  0  0  0
    1.0614    0.0048   -0.9435 C   0  0  0  0  0  0  0  0  0  0  0  0
   -1.2864    0.9197   -0.3408 C   0  0  0  0  0  0  0  0  0  0  0  0
   -0.6623   -2.1351    0.3898 C   0  0  0  0  0  0  0  0  0  0  0  0
    2.4632   -0.4339   -0.5005 C   0  0  0  0  0  0  0  0  0  0  0  0
   -2.0880   -0.0632   -1.2020 C   0  0  0  0  0  0  0  0  0  0  0  0
   -0.2240    1.7378    2.1527 C   0  0  0  0  0  0  0  0  0  0  0  0
    0.8990    2.6264    0.2236 C   0  0  0  0  0  0  0  0  0  0  0  0
   -0.7331   -3.3186    1.3445 C   0  0  0  0  0  0  0  0  0  0  0  0
    3.3127   -0.8464   -1.6947 C   0  0  0  0  0  0  0  0  0  0  0  0
   -3.3515    0.5864   -1.7481 C   0  0  0  0  0  0  0  0  0  0  0  0
  1  2  1  0
  1  9  1  0
  1 10  1  0
  2  3  1  0
  2  4  1  0
  2  5  1  0
  3  6  1  0
  4  7  1  0
  5  8  1  0
  6 11  1  0
  7 12  1  0
  8 13  1  0
M  END
>  <PUBCHEM_COMPOUND_CID>  (1) 
47380

>  <PUBCHEM_CONFORMER_RMSD>  (1) 
0.8

>  <PUBCHEM_CONFORMER_DIVERSEORDER>  (1) 
1
5
2
6
4
3

>  <PUBCHEM_MMFF94_PARTIAL_CHARGES>  (1) 
4
1 -0.81
10 0.27
2 0.27
9 0.27

>  <PUBCHEM_EFFECTIVE_ROTOR_COUNT>  (1) 
7

>  <PUBCHEM_PHARMACOPHORE_FEATURES>  (1) 
4
1 1 cation
1 11 hydrophobe
1 12 hydrophobe
1 13 hydrophobe

>  <PUBCHEM_HEAVY_ATOM_COUNT>  (1) 
13

>  <PUBCHEM_ATOM_DEF_STEREO_COUNT>  (1) 
0

>  <PUBCHEM_ATOM_UDEF_STEREO_COUNT>  (1) 
0

>  <PUBCHEM_BOND_DEF_STEREO_COUNT>  (1) 
0

>  <PUBCHEM_BOND_UDEF_STEREO_COUNT>  (1) 
0

>  <PUBCHEM_ISOTOPIC_ATOM_COUNT>  (1) 
0

>  <PUBCHEM_COMPONENT_COUNT>  (1) 
1

>  <PUBCHEM_CACTVS_TAUTO_COUNT>  (1) 
1

>  <PUBCHEM_CONFORMER_ID>  (1) 
0000B91400000001

>  <PUBCHEM_MMFF94_ENERGY>  (1) 
44.9324

>  <PUBCHEM_FEATURE_SELFOVERLAP>  (1) 
20.297

>  <PUBCHEM_SHAPE_FINGERPRINT>  (1) 
12138202 97 18116702122401882836
12326174 3 17696987636158954653
12423570 1 9430043148819315056
13024252 1 13480570636305530108
13380536 167 17330548748741540797
13380536 261 17907009582469903943
13898156 1 17261869949466636883
14817 1 12305854749462106043
15219459 28 17979894327248369298
16945 1 18409445869078439684
187816 3 18338518534671573462
20511035 2 17404821188684230488
20711985 344 17389378530681749483
22112679 90 17625808380239287977
22802520 49 18047756193504742655
228727 97 18125723387521362030
23211744 25 18338226081579060397
23382010 3 18261387879534195622
23419403 2 18126016102501430106
23526113 38 18341607152796356590
2748010 2 18050851318694558630
298252 57 17095243596610128926
3060560 45 17824794872245855421
3250762 1 18048598414979300268
4369600 1 18269541759065923503
44249140 249 17617954963481556040
68419 9 17335334935578471874
76951 1 18196626563143623747
81228 2 18057900051912765600

>  <PUBCHEM_SHAPE_MULTIPOLES>  (1) 
262.55
3.56
2.97
1.97
0.51
1.68
-0.2
0.13
3.66
-0.33
-1.99
-0.34
-0.24
0.87

>  <PUBCHEM_SHAPE_SELFOVERLAP>  (1) 
481.247

>  <PUBCHEM_SHAPE_VOLUME>  (1) 
168.9

>  <PUBCHEM_COORDINATE_TYPE>  (1) 
2
5
10

$$$$
