47386
     RDKit          3D

 14 13  0  0  0  0  0  0  0  0999 V2000
   -0.8240    0.0454    0.9010 N   0  0  0  0  0  0  0  0  0  0  0  0
    0.3497   -0.0065    0.0105 C   0  0  0  0  0  0  0  0  0  0  0  0
    1.6072   -0.0365    0.9207 C   0  0  0  0  0  0  0  0  0  0  0  0
    0.3020    1.2515   -0.9066 C   0  0  0  0  0  0  0  0  0  0  0  0
    0.2388   -1.2617   -0.9065 C   0  0  0  0  0  0  0  0  0  0  0  0
    2.9475   -0.0452    0.1764 C   0  0  0  0  0  0  0  0  0  0  0  0
    0.3981    2.6045   -0.1889 C   0  0  0  0  0  0  0  0  0  0  0  0
    0.2658   -2.6222   -0.1978 C   0  0  0  0  0  0  0  0  0  0  0  0
   -2.0472    0.0555    0.1218 C   0  0  0  0  0  0  0  0  0  0  0  0
   -3.2629    0.0945    1.0443 C   0  0  0  0  0  0  0  0  0  0  0  0
    4.1154   -0.1580    1.1461 C   0  0  0  0  0  0  0  0  0  0  0  0
    0.4044    3.7560   -1.1844 C   0  0  0  0  0  0  0  0  0  0  0  0
    0.0661   -3.7613   -1.1879 C   0  0  0  0  0  0  0  0  0  0  0  0
   -4.5607    0.0840    0.2512 C   0  0  0  0  0  0  0  0  0  0  0  0
  1  2  1  0
  1  9  1  0
  2  3  1  0
  2  4  1  0
  2  5  1  0
  3  6  1  0
  4  7  1  0
  5  8  1  0
  6 11  1  0
  7 12  1  0
  8 13  1  0
  9 10  1  0
 10 14  1  0
M  END
>  <PUBCHEM_COMPOUND_CID>  (1) 
47386

>  <PUBCHEM_CONFORMER_RMSD>  (1) 
0.8

>  <PUBCHEM_CONFORMER_DIVERSEORDER>  (1) 
3
18
12
21
11
5
8
14
22
17
10
9
20
19
1
13
15
7
16
4
6
2

>  <PUBCHEM_MMFF94_PARTIAL_CHARGES>  (1) 
4
1 -0.9
2 0.27
21 0.36
9 0.27

>  <PUBCHEM_EFFECTIVE_ROTOR_COUNT>  (1) 
9

>  <PUBCHEM_PHARMACOPHORE_FEATURES>  (1) 
6
1 1 cation
1 1 donor
1 11 hydrophobe
1 12 hydrophobe
1 13 hydrophobe
1 14 hydrophobe

>  <PUBCHEM_HEAVY_ATOM_COUNT>  (1) 
14

>  <PUBCHEM_ATOM_DEF_STEREO_COUNT>  (1) 
0

>  <PUBCHEM_ATOM_UDEF_STEREO_COUNT>  (1) 
0

>  <PUBCHEM_BOND_DEF_STEREO_COUNT>  (1) 
0

>  <PUBCHEM_BOND_UDEF_STEREO_COUNT>  (1) 
0

>  <PUBCHEM_ISOTOPIC_ATOM_COUNT>  (1) 
0

>  <PUBCHEM_COMPONENT_COUNT>  (1) 
1

>  <PUBCHEM_CACTVS_TAUTO_COUNT>  (1) 
1

>  <PUBCHEM_CONFORMER_ID>  (1) 
0000B91A00000003

>  <PUBCHEM_MMFF94_ENERGY>  (1) 
10.2463

>  <PUBCHEM_FEATURE_SELFOVERLAP>  (1) 
30.448

>  <PUBCHEM_SHAPE_FINGERPRINT>  (1) 
10219947 1 18410296899752649521
10756046 70 18263081192050109164
116883 192 17760649162123552133
13134695 92 18041274448010661029
13380536 167 17762901360894312078
14178342 30 18270417013857064059
14943834 7 17762053646135172014
14993402 34 18410864295092265068
15502708 68 18129661889754426322
161256 15 17981616969742701542
18380122 1 18194962941973874026
20511035 2 17753630214598481777
20671657 1 18047479107932309125
20711985 344 17323252419976706331
20871998 184 18264477395940334268
21524375 3 17470477456354008093
23402539 116 18336535041533401777
23419403 2 17390772384913718911
23557571 272 17898299294557432717
23558518 356 17905601455988608234
2748010 2 18049452439614921965
3060560 45 18339377347837021221
3250762 1 17618500982784607886
589210 1 17762054741330733460
68250623 7 17833273403738728170
68419 9 17691126362867012372
6992083 37 18267011928971271754
81228 2 17909515644843897754
9999458 23 17703781539971198561

>  <PUBCHEM_SHAPE_MULTIPOLES>  (1) 
283.13
5.34
3.89
1.23
2.99
0.04
-0.05
-0.06
3.01
-0.83
-2.79
-0.24
0.01
-0.21

>  <PUBCHEM_SHAPE_SELFOVERLAP>  (1) 
512.296

>  <PUBCHEM_SHAPE_VOLUME>  (1) 
183.3

>  <PUBCHEM_COORDINATE_TYPE>  (1) 
2
5
10

$$$$
