47382
     RDKit          3D

 13 12  0  0  0  0  0  0  0  0999 V2000
   -0.1513    1.1293    0.9662 N   0  0  0  0  0  0  0  0  0  0  0  0
    0.0001   -0.0007    0.0316 C   0  0  0  0  0  0  0  0  0  0  0  0
    1.2247    0.3033   -0.8816 C   0  0  0  0  0  0  0  0  0  0  0  0
   -1.2602   -0.0790   -0.8819 C   0  0  0  0  0  0  0  0  0  0  0  0
    0.1979   -1.2771    0.8932 C   0  0  0  0  0  0  0  0  0  0  0  0
    2.5773    0.4210   -0.1666 C   0  0  0  0  0  0  0  0  0  0  0  0
   -2.5904   -0.3729   -0.1763 C   0  0  0  0  0  0  0  0  0  0  0  0
    0.4221   -2.5687    0.0983 C   0  0  0  0  0  0  0  0  0  0  0  0
   -0.3619    2.3635    0.2342 C   0  0  0  0  0  0  0  0  0  0  0  0
    3.7062    0.6560   -1.1603 C   0  0  0  0  0  0  0  0  0  0  0  0
   -3.7525   -0.3406   -1.1593 C   0  0  0  0  0  0  0  0  0  0  0  0
    0.5230   -3.7740    1.0227 C   0  0  0  0  0  0  0  0  0  0  0  0
   -0.5351    3.5400    1.1798 C   0  0  0  0  0  0  0  0  0  0  0  0
  1  2  1  0
  1  9  1  0
  2  3  1  0
  2  4  1  0
  2  5  1  0
  3  6  1  0
  4  7  1  0
  5  8  1  0
  6 10  1  0
  7 11  1  0
  8 12  1  0
  9 13  1  0
M  END
>  <PUBCHEM_COMPOUND_CID>  (1) 
47382

>  <PUBCHEM_CONFORMER_RMSD>  (1) 
0.8

>  <PUBCHEM_CONFORMER_DIVERSEORDER>  (1) 
3
9
7
1
4
2
5
8
6

>  <PUBCHEM_MMFF94_PARTIAL_CHARGES>  (1) 
4
1 -0.9
2 0.27
20 0.36
9 0.27

>  <PUBCHEM_EFFECTIVE_ROTOR_COUNT>  (1) 
8

>  <PUBCHEM_PHARMACOPHORE_FEATURES>  (1) 
5
1 1 cation
1 1 donor
1 10 hydrophobe
1 11 hydrophobe
1 12 hydrophobe

>  <PUBCHEM_HEAVY_ATOM_COUNT>  (1) 
13

>  <PUBCHEM_ATOM_DEF_STEREO_COUNT>  (1) 
0

>  <PUBCHEM_ATOM_UDEF_STEREO_COUNT>  (1) 
0

>  <PUBCHEM_BOND_DEF_STEREO_COUNT>  (1) 
0

>  <PUBCHEM_BOND_UDEF_STEREO_COUNT>  (1) 
0

>  <PUBCHEM_ISOTOPIC_ATOM_COUNT>  (1) 
0

>  <PUBCHEM_COMPONENT_COUNT>  (1) 
1

>  <PUBCHEM_CACTVS_TAUTO_COUNT>  (1) 
1

>  <PUBCHEM_CONFORMER_ID>  (1) 
0000B91600000003

>  <PUBCHEM_MMFF94_ENERGY>  (1) 
10.4867

>  <PUBCHEM_FEATURE_SELFOVERLAP>  (1) 
25.373

>  <PUBCHEM_SHAPE_FINGERPRINT>  (1) 
10756046 5 18050285856079696653
108231 29 18268155433811793721
12423570 1 13207679508133890992
13380536 167 17979917103412447621
13380536 261 18268426845616878309
13380536 55 18050580542539644828
14648413 74 17621593247426601681
14943834 7 17979074877373559488
15279308 132 18192144008782137567
16945 1 18411419543963563869
187816 3 18411422847131070340
21339142 51 18050581930214930348
228727 97 18412548682370907612
23402539 116 18343022194539398804
23526113 38 18269837686549660598
23552423 10 18120372051554909567
23558518 356 18196110858199645780
2748010 2 16822495770117876702
298252 57 17095518556163753444
353137 74 18339928112535888613
4369600 1 18341323478811961025
589210 1 17978792298590253773
68250623 7 17979361849971751551
68419 9 17981608160764523972
81228 2 18129403582226968680

>  <PUBCHEM_SHAPE_MULTIPOLES>  (1) 
262.55
4.15
3.94
1.26
0.2
0.96
-0.01
-0.46
-2.83
-0.22
2.65
0.02
-0.16
-0.69

>  <PUBCHEM_SHAPE_SELFOVERLAP>  (1) 
474.352

>  <PUBCHEM_SHAPE_VOLUME>  (1) 
170.3

>  <PUBCHEM_COORDINATE_TYPE>  (1) 
2
5
10

$$$$
