47396
     RDKit          3D

 12 11  0  0  0  0  0  0  0  0999 V2000
    0.1513    1.2808    1.2111 N   0  0  0  0  0  0  0  0  0  0  0  0
    0.0856    0.2412    0.1685 C   0  0  0  0  0  0  0  0  0  0  0  0
   -1.1657    0.5004   -0.7175 C   0  0  0  0  0  0  0  0  0  0  0  0
    1.3877    0.2895   -0.6910 C   0  0  0  0  0  0  0  0  0  0  0  0
    0.0103   -1.1199    0.9256 C   0  0  0  0  0  0  0  0  0  0  0  0
   -2.4986    0.6235    0.0352 C   0  0  0  0  0  0  0  0  0  0  0  0
    2.7120    0.1126    0.0659 C   0  0  0  0  0  0  0  0  0  0  0  0
   -0.0960   -2.3414    0.0521 C   0  0  0  0  0  0  0  0  0  0  0  0
    0.2248    2.5970    0.6058 C   0  0  0  0  0  0  0  0  0  0  0  0
   -3.6387    0.9592   -0.9162 C   0  0  0  0  0  0  0  0  0  0  0  0
    3.8954    0.1120   -0.8925 C   0  0  0  0  0  0  0  0  0  0  0  0
   -1.0682   -3.2549    0.1530 C   0  0  0  0  0  0  0  0  0  0  0  0
  1  2  1  0
  1  9  1  0
  2  3  1  0
  2  4  1  0
  2  5  1  0
  3  6  1  0
  4  7  1  0
  5  8  1  0
  6 10  1  0
  7 11  1  0
  8 12  2  0
M  END
>  <PUBCHEM_COMPOUND_CID>  (1) 
47396

>  <PUBCHEM_CONFORMER_RMSD>  (1) 
0.8

>  <PUBCHEM_CONFORMER_DIVERSEORDER>  (1) 
1
11
9
13
12
2
10
5
7
8
6
3
4

>  <PUBCHEM_MMFF94_PARTIAL_CHARGES>  (1) 
10
1 -0.9
12 -0.3
19 0.36
2 0.27
24 0.15
34 0.15
35 0.15
5 0.14
8 -0.29
9 0.27

>  <PUBCHEM_EFFECTIVE_ROTOR_COUNT>  (1) 
7

>  <PUBCHEM_PHARMACOPHORE_FEATURES>  (1) 
5
1 1 cation
1 1 donor
1 10 hydrophobe
1 11 hydrophobe
1 12 hydrophobe

>  <PUBCHEM_HEAVY_ATOM_COUNT>  (1) 
12

>  <PUBCHEM_ATOM_DEF_STEREO_COUNT>  (1) 
0

>  <PUBCHEM_ATOM_UDEF_STEREO_COUNT>  (1) 
0

>  <PUBCHEM_BOND_DEF_STEREO_COUNT>  (1) 
0

>  <PUBCHEM_BOND_UDEF_STEREO_COUNT>  (1) 
0

>  <PUBCHEM_ISOTOPIC_ATOM_COUNT>  (1) 
0

>  <PUBCHEM_COMPONENT_COUNT>  (1) 
1

>  <PUBCHEM_CACTVS_TAUTO_COUNT>  (1) 
1

>  <PUBCHEM_CONFORMER_ID>  (1) 
0000B92400000001

>  <PUBCHEM_MMFF94_ENERGY>  (1) 
15.4754

>  <PUBCHEM_FEATURE_SELFOVERLAP>  (1) 
25.373

>  <PUBCHEM_SHAPE_FINGERPRINT>  (1) 
12138202 97 18336837462923463318
12716758 59 18411417358115354010
13380535 220 18117560853688671332
14713566 1 18408327683418124898
161256 15 17547578535739287810
16945 1 18410855460312979520
18186145 218 18411700967548769356
187816 3 18341897363963335628
193761 8 17906451378502979769
20645476 183 18041002851458555678
20711985 344 17900814152322867730
21501502 16 17906175405426835088
21930827 45 18265881639402039984
22802520 49 17908139133352402551
228727 97 18128819646751868800
23402539 116 18271238331667919044
23419403 2 17344623983599030202
23552423 10 17762898758318087047
23559900 14 18342176687915687836
2748010 2 17907288102656788375
3060560 45 18265311998385573941
3250762 1 17908418400462702457
4369600 1 18270952462580961681
528862 383 18043238046802177891
81228 2 17684642517413374515

>  <PUBCHEM_SHAPE_MULTIPOLES>  (1) 
241.97
4.57
2.91
1.04
1.32
2.3
-0.04
-1.57
2.18
-1.23
-0.65
0.04
-0.25
0.31

>  <PUBCHEM_SHAPE_SELFOVERLAP>  (1) 
441.049

>  <PUBCHEM_SHAPE_VOLUME>  (1) 
155.5

>  <PUBCHEM_COORDINATE_TYPE>  (1) 
2
5
10

$$$$
