47390
     RDKit          3D

 14 14  0  0  0  0  0  0  0  0999 V2000
    0.5256   -0.6555    1.0989 N   0  0  0  0  0  0  0  0  0  0  0  0
    0.1252    0.1017   -0.0986 C   0  0  0  0  0  0  0  0  0  0  0  0
    1.1427   -1.9322    0.6634 C   0  0  0  0  0  0  0  0  0  0  0  0
   -0.6446   -1.4311    1.5783 C   0  0  0  0  0  0  0  0  0  0  0  0
    1.4105    0.3631   -0.9382 C   0  0  0  0  0  0  0  0  0  0  0  0
   -0.4409    1.4862    0.3386 C   0  0  0  0  0  0  0  0  0  0  0  0
   -0.9191   -0.7626   -0.8557 C   0  0  0  0  0  0  0  0  0  0  0  0
    0.2747   -2.6542    1.7037 C   0  0  0  0  0  0  0  0  0  0  0  0
    2.5390    1.1110   -0.2155 C   0  0  0  0  0  0  0  0  0  0  0  0
   -1.7205    1.4578    1.1847 C   0  0  0  0  0  0  0  0  0  0  0  0
   -1.4279   -0.1619   -2.1713 C   0  0  0  0  0  0  0  0  0  0  0  0
    3.7636    1.2548   -1.1083 C   0  0  0  0  0  0  0  0  0  0  0  0
   -2.1243    2.8605    1.6173 C   0  0  0  0  0  0  0  0  0  0  0  0
   -2.5040   -1.0378   -2.7972 C   0  0  0  0  0  0  0  0  0  0  0  0
  1  2  1  0
  1  3  1  0
  1  4  1  0
  2  5  1  0
  2  6  1  0
  2  7  1  0
  3  8  1  0
  4  8  1  0
  5  9  1  0
  6 10  1  0
  7 11  1  0
  9 12  1  0
 10 13  1  0
 11 14  1  0
M  END
>  <PUBCHEM_COMPOUND_CID>  (1) 
47390

>  <PUBCHEM_CONFORMER_RMSD>  (1) 
0.8

>  <PUBCHEM_CONFORMER_DIVERSEORDER>  (1) 
2
1
3

>  <PUBCHEM_MMFF94_PARTIAL_CHARGES>  (1) 
4
1 -0.69
2 0.27
3 0.21
4 0.21

>  <PUBCHEM_EFFECTIVE_ROTOR_COUNT>  (1) 
7.8

>  <PUBCHEM_PHARMACOPHORE_FEATURES>  (1) 
5
1 1 cation
1 12 hydrophobe
1 13 hydrophobe
1 14 hydrophobe
4 1 3 4 8 rings

>  <PUBCHEM_HEAVY_ATOM_COUNT>  (1) 
14

>  <PUBCHEM_ATOM_DEF_STEREO_COUNT>  (1) 
0

>  <PUBCHEM_ATOM_UDEF_STEREO_COUNT>  (1) 
0

>  <PUBCHEM_BOND_DEF_STEREO_COUNT>  (1) 
0

>  <PUBCHEM_BOND_UDEF_STEREO_COUNT>  (1) 
0

>  <PUBCHEM_ISOTOPIC_ATOM_COUNT>  (1) 
0

>  <PUBCHEM_COMPONENT_COUNT>  (1) 
1

>  <PUBCHEM_CACTVS_TAUTO_COUNT>  (1) 
1

>  <PUBCHEM_CONFORMER_ID>  (1) 
0000B91E00000002

>  <PUBCHEM_MMFF94_ENERGY>  (1) 
53.3303

>  <PUBCHEM_FEATURE_SELFOVERLAP>  (1) 
25.373

>  <PUBCHEM_SHAPE_FINGERPRINT>  (1) 
10756046 70 17837204879193734844
12173636 292 18047501038541556084
12423570 1 15299160944238006315
12592029 89 17024000749526211434
12716301 132 16598391012689925379
13024252 1 12758259696631835204
13380536 261 18198882816748568223
13898156 1 18055330471357485301
14817 1 15374803977111681127
15501101 241 16449858699626141441
16945 1 18131638910429233704
18721546 61 18131358530706100281
20602899 9 17969209191888045166
20711985 344 17489288798829399229
21061003 4 16611686418814982192
21524375 3 18126869113235418848
22112679 90 18057021554500659197
22892500 29 17174065214705826125
2306618 200 17534345827742854588
23419403 2 17185310388047088519
23526113 38 17547834709026760400
266924 78 17897998045667504943
298252 57 17701838586876632064
4175511 376 16012367489515455143
430814 3 18126581028071573680
59915604 170 17768228464851089556
68250623 7 18126588741927626811
68419 9 18057020446425379645
76951 1 17691077868396515525
81228 2 17757024398487933552

>  <PUBCHEM_SHAPE_MULTIPOLES>  (1) 
283.13
3.62
2.81
2.52
3.07
0.42
-1.21
2.22
-2.11
-1.02
2.06
-1.93
-1.05
-2.11

>  <PUBCHEM_SHAPE_SELFOVERLAP>  (1) 
539.577

>  <PUBCHEM_SHAPE_VOLUME>  (1) 
177.9

>  <PUBCHEM_COORDINATE_TYPE>  (1) 
2
5
10

$$$$
