47405
     RDKit          3D

 29 31  0  0  1  0  0  0  0  0999 V2000
    5.2307   -3.1034   -0.0148 O   0  0  0  0  0  0  0  0  0  0  0  0
    3.3838   -0.1052    0.8106 O   0  0  0  0  0  0  0  0  0  0  0  0
   -4.9385    1.0036   -1.0873 O   0  0  0  0  0  0  0  0  0  0  0  0
   -0.9069    1.8125    1.3736 O   0  0  0  0  0  0  0  0  0  0  0  0
    1.6702   -2.1245   -0.3557 N   0  0  0  0  0  0  0  0  0  0  0  0
   -1.1547   -1.7907   -0.0963 N   0  0  0  0  0  0  0  0  0  0  0  0
    0.2356    3.4711    0.1478 N   0  0  0  0  0  0  0  0  0  0  0  0
    0.8022   -2.2017   -1.5371 C   0  0  0  0  0  0  0  0  0  0  0  0
    0.9642   -2.6523    0.8181 C   0  0  0  0  0  0  0  0  0  0  0  0
   -0.4761   -1.3851   -1.3336 C   0  0  0  0  0  0  0  0  0  0  0  0
   -0.3096   -1.8515    1.1002 C   0  0  0  0  0  0  0  0  0  0  0  0
    2.9120   -2.8630   -0.5825 C   0  0  0  0  0  0  0  0  0  0  0  0
    4.0538   -2.3538    0.3004 C   0  0  0  0  0  0  0  0  0  0  0  0
   -2.5180   -1.5018    0.0309 C   0  0  0  0  0  0  0  0  0  0  0  0
    4.3551   -0.8698    0.1032 C   0  0  0  0  0  0  0  0  0  0  0  0
   -3.0550   -0.3792   -0.5992 C   0  0  0  0  0  0  0  0  0  0  0  0
   -3.3399   -2.3366    0.7880 C   0  0  0  0  0  0  0  0  0  0  0  0
   -4.4139   -0.0916   -0.4724 C   0  0  0  0  0  0  0  0  0  0  0  0
   -4.6989   -2.0489    0.9150 C   0  0  0  0  0  0  0  0  0  0  0  0
   -5.2359   -0.9264    0.2847 C   0  0  0  0  0  0  0  0  0  0  0  0
    3.0858    1.1313    0.3037 C   0  0  0  0  0  0  0  0  0  0  0  0
    1.8124    1.6712    0.4842 C   0  0  0  0  0  0  0  0  0  0  0  0
    4.0561    1.8512   -0.3935 C   0  0  0  0  0  0  0  0  0  0  0  0
    1.5093    2.9308   -0.0327 C   0  0  0  0  0  0  0  0  0  0  0  0
   -6.3353    1.2380   -0.9156 C   0  0  0  0  0  0  0  0  0  0  0  0
    3.7530    3.1109   -0.9103 C   0  0  0  0  0  0  0  0  0  0  0  0
    2.4796    3.6506   -0.7298 C   0  0  0  0  0  0  0  0  0  0  0  0
   -0.8588    2.9029    0.8134 C   0  0  0  0  0  0  0  0  0  0  0  0
   -2.0623    3.8113    0.7872 C   0  0  0  0  0  0  0  0  0  0  0  0
  1 13  1  0
  2 15  1  0
  2 21  1  0
  3 18  1  0
  3 25  1  0
  4 28  2  0
  5  8  1  0
  5  9  1  0
  5 12  1  0
  6 10  1  0
  6 11  1  0
  6 14  1  0
  7 24  1  0
  7 28  1  0
  8 10  1  0
  9 11  1  0
 12 13  1  0
 13 15  1  0
 14 16  2  0
 14 17  1  0
 16 18  1  0
 17 19  2  0
 18 20  2  0
 19 20  1  0
 21 22  2  0
 21 23  1  0
 22 24  1  0
 23 26  2  0
 24 27  2  0
 26 27  1  0
 28 29  1  0
M  END
>  <PUBCHEM_COMPOUND_CID>  (1) 
47405

>  <PUBCHEM_CONFORMER_RMSD>  (1) 
1.2

>  <PUBCHEM_CONFORMER_DIVERSEORDER>  (1) 
1
173
71
19
181
136
58
98
149
103
148
91
54
119
48
97
39
132
153
40
7
93
143
87
166
68
5
155
125
84
74
57
152
116
120
154
76
24
165
109
59
38
115
105
179
176
42
134
145
29
117
23
26
47
86
159
135
167
33
56
18
130
82
171
147
88
50
127
175
4
131
67
133
80
126
81
25
106
123
62
114
122
96
37
156
52
151
64
72
34
20
27
146
51
35
36
78
45
102
85
70
61
184
55
13
89
111
32
95
162
43
172
107
118
92
30
185
121
79
90
66
141
16
113
139
150
142
17
182
128
174
73
138
158
2
49
100
161
77
21
170
104
108
31
157
46
3
41
129
14
144
9
188
140
160
178
164
101
6
124
94
53
60
15
180
22
168
44
137
187
12
69
169
177
28
83
183
112
75
110
65
11
63
163
8
186
99
10

>  <PUBCHEM_MMFF94_PARTIAL_CHARGES>  (1) 
39
1 -0.68
10 0.37
11 0.37
12 0.27
13 0.28
14 0.1
15 0.28
16 -0.15
17 -0.15
18 0.08
19 -0.15
2 -0.36
20 -0.15
21 0.08
22 -0.15
23 -0.15
24 0.12
25 0.28
26 -0.15
27 -0.15
28 0.57
29 0.06
3 -0.36
4 -0.57
43 0.15
44 0.15
45 0.4
46 0.15
47 0.15
48 0.15
49 0.15
5 -0.81
50 0.15
54 0.15
55 0.37
6 -0.84
7 -0.55
8 0.27
9 0.27

>  <PUBCHEM_EFFECTIVE_ROTOR_COUNT>  (1) 
10.2

>  <PUBCHEM_PHARMACOPHORE_FEATURES>  (1) 
11
1 1 acceptor
1 1 donor
1 2 acceptor
1 3 acceptor
1 4 acceptor
1 5 cation
1 6 cation
1 7 donor
6 14 16 17 18 19 20 rings
6 21 22 23 24 26 27 rings
6 5 6 8 9 10 11 rings

>  <PUBCHEM_HEAVY_ATOM_COUNT>  (1) 
29

>  <PUBCHEM_ATOM_DEF_STEREO_COUNT>  (1) 
0

>  <PUBCHEM_ATOM_UDEF_STEREO_COUNT>  (1) 
1

>  <PUBCHEM_BOND_DEF_STEREO_COUNT>  (1) 
0

>  <PUBCHEM_BOND_UDEF_STEREO_COUNT>  (1) 
0

>  <PUBCHEM_ISOTOPIC_ATOM_COUNT>  (1) 
0

>  <PUBCHEM_COMPONENT_COUNT>  (1) 
1

>  <PUBCHEM_CACTVS_TAUTO_COUNT>  (1) 
2

>  <PUBCHEM_CONFORMER_ID>  (1) 
0000B92D00000001

>  <PUBCHEM_MMFF94_ENERGY>  (1) 
104.2885

>  <PUBCHEM_FEATURE_SELFOVERLAP>  (1) 
55.824

>  <PUBCHEM_SHAPE_FINGERPRINT>  (1) 
10190206 1 18194149471686240436
10675989 125 18410571824910541209
1100329 8 18122631543781843369
11513181 2 17988646242178936375
12156800 1 17840616728716283012
12422481 6 17986410913902298283
12788726 201 18130520720021076792
140371 6 18268719320279640815
14114211 80 17691998236864652209
14251764 38 18411140204076398109
14790565 3 17760089914337683076
150020 26 18193277622904067673
151778 21 18047471407150490364
15238133 3 18187361082532070982
15968369 153 17987220176225522308
17093844 170 18340199799867947592
19930381 70 18122344846040323019
20764821 26 18194420904121706672
21133410 90 17130691804261260208
21475661 188 18334287695284551263
23559900 14 18336260150626186931
27425 322 16732978790993901141
3014063 31 18411698759840315160
3298306 158 18267303329807359621
338550 245 18266747878719780585
3493558 16 18408046199741132285
3680242 22 18340218435651598889
373842 8 18411416185325693976
5265222 85 17686070786981326004

>  <PUBCHEM_SHAPE_MULTIPOLES>  (1) 
558.39
11.2
5.49
1.16
9.57
3.05
0.11
-1.37
1.49
-4.27
-0.28
0.41
-0.07
0.16

>  <PUBCHEM_SHAPE_SELFOVERLAP>  (1) 
1168.989

>  <PUBCHEM_SHAPE_VOLUME>  (1) 
315.7

>  <PUBCHEM_COORDINATE_TYPE>  (1) 
2
5
10

$$$$
