47408
     RDKit          3D

 28 30  0  0  1  0  0  0  0  0999 V2000
    3.6406   -2.2515   -1.6917 O   0  0  0  0  0  0  0  0  0  0  0  0
   -0.3193    3.7529    1.3193 O   0  0  0  0  0  0  0  0  0  0  0  0
   -2.3346    2.0357    0.3990 O   0  0  0  0  0  0  0  0  0  0  0  0
   -7.3407   -2.2523   -0.4825 O   0  0  0  0  0  0  0  0  0  0  0  0
    1.8031    1.2852   -0.4573 N   0  0  0  0  0  0  0  0  0  0  0  0
   -6.0753   -0.9180    0.9930 N   0  0  0  0  0  0  0  0  0  0  0  0
    3.5789   -1.0630   -0.8854 C   0  0  0  0  0  0  0  0  0  0  0  0
    3.4737    0.1352   -1.8568 C   0  0  0  0  0  0  0  0  0  0  0  0
    2.2451   -1.1291   -0.1060 C   0  0  0  0  0  0  0  0  0  0  0  0
    3.0925    1.4336   -1.1430 C   0  0  0  0  0  0  0  0  0  0  0  0
    1.8486    0.2058    0.5365 C   0  0  0  0  0  0  0  0  0  0  0  0
    1.4060    2.5452    0.1698 C   0  0  0  0  0  0  0  0  0  0  0  0
    4.8632   -1.0369   -0.0531 C   0  0  0  0  0  0  0  0  0  0  0  0
   -0.0021    2.4729    0.7650 C   0  0  0  0  0  0  0  0  0  0  0  0
    6.1030   -0.9780   -0.6882 C   0  0  0  0  0  0  0  0  0  0  0  0
    4.7911   -1.0725    1.3387 C   0  0  0  0  0  0  0  0  0  0  0  0
   -1.0739    2.1077   -0.2597 C   0  0  0  0  0  0  0  0  0  0  0  0
    7.2732   -0.9547    0.0706 C   0  0  0  0  0  0  0  0  0  0  0  0
    5.9615   -1.0490    2.0972 C   0  0  0  0  0  0  0  0  0  0  0  0
    7.2024   -0.9901    1.4633 C   0  0  0  0  0  0  0  0  0  0  0  0
   -3.2567    1.1725   -0.1298 C   0  0  0  0  0  0  0  0  0  0  0  0
   -4.1929    0.5687    0.7028 C   0  0  0  0  0  0  0  0  0  0  0  0
   -3.2485    0.9075   -1.4951 C   0  0  0  0  0  0  0  0  0  0  0  0
   -5.1322   -0.3103    0.1636 C   0  0  0  0  0  0  0  0  0  0  0  0
   -4.1879    0.0285   -2.0343 C   0  0  0  0  0  0  0  0  0  0  0  0
   -5.1296   -0.5804   -1.2050 C   0  0  0  0  0  0  0  0  0  0  0  0
   -7.0881   -1.8186    0.6369 C   0  0  0  0  0  0  0  0  0  0  0  0
   -7.9013   -2.2469    1.8325 C   0  0  0  0  0  0  0  0  0  0  0  0
  1  7  1  0
  2 14  1  0
  3 17  1  0
  3 21  1  0
  4 27  2  0
  5 10  1  0
  5 11  1  0
  5 12  1  0
  6 24  1  0
  6 27  1  0
  7  8  1  0
  7  9  1  0
  7 13  1  0
  8 10  1  0
  9 11  1  0
 12 14  1  0
 13 15  2  0
 13 16  1  0
 14 17  1  0
 15 18  1  0
 16 19  2  0
 18 20  2  0
 19 20  1  0
 21 22  2  0
 21 23  1  0
 22 24  1  0
 23 25  2  0
 24 26  2  0
 25 26  1  0
 27 28  1  0
M  END
>  <PUBCHEM_COMPOUND_CID>  (1) 
47408

>  <PUBCHEM_CONFORMER_RMSD>  (1) 
1.2

>  <PUBCHEM_CONFORMER_DIVERSEORDER>  (1) 
4
547
13
124
336
352
255
8
231
216
184
365
74
531
174
40
201
84
573
112
212
272
507
76
100
120
363
516
427
378
453
397
282
553
35
192
348
14
94
56
60
86
338
208
205
75
49
540
72
26
534
237
454
1
217
223
459
30
39
345
306
230
90
67
195
139
137
170
249
157
32
47
70
475
41
522
203
361
7
532
31
106
176
561
24
65
505
91
152
17
51
168
510
151
25
87
500
381
77
344
347
123
136
462
134
34
116
81
178
64
273
43
142
444
332
204
16
128
6
101
165
356
220
158
89
18
251
256
210
571
191
58
569
2
434
241
69
232
29
42
197
194
570
421
11
110
358
279
28
46
548
163
15
118
36
309
10
59
274
5
50
504
3
52

>  <PUBCHEM_MMFF94_PARTIAL_CHARGES>  (1) 
38
1 -0.68
10 0.27
11 0.27
12 0.27
13 -0.14
14 0.28
15 -0.15
16 -0.15
17 0.28
18 -0.15
19 -0.15
2 -0.68
20 -0.15
21 0.08
22 -0.15
23 -0.15
24 0.12
25 -0.15
26 -0.15
27 0.57
28 0.06
3 -0.36
4 -0.57
40 0.4
41 0.15
42 0.15
45 0.15
46 0.15
47 0.4
48 0.15
49 0.15
5 -0.81
50 0.15
51 0.15
52 0.15
53 0.37
6 -0.55
7 0.42

>  <PUBCHEM_EFFECTIVE_ROTOR_COUNT>  (1) 
9.2

>  <PUBCHEM_PHARMACOPHORE_FEATURES>  (1) 
11
1 1 acceptor
1 1 donor
1 2 acceptor
1 2 donor
1 3 acceptor
1 4 acceptor
1 5 cation
1 6 donor
6 13 15 16 18 19 20 rings
6 21 22 23 24 25 26 rings
6 5 7 8 9 10 11 rings

>  <PUBCHEM_HEAVY_ATOM_COUNT>  (1) 
28

>  <PUBCHEM_ATOM_DEF_STEREO_COUNT>  (1) 
0

>  <PUBCHEM_ATOM_UDEF_STEREO_COUNT>  (1) 
1

>  <PUBCHEM_BOND_DEF_STEREO_COUNT>  (1) 
0

>  <PUBCHEM_BOND_UDEF_STEREO_COUNT>  (1) 
0

>  <PUBCHEM_ISOTOPIC_ATOM_COUNT>  (1) 
0

>  <PUBCHEM_COMPONENT_COUNT>  (1) 
1

>  <PUBCHEM_CACTVS_TAUTO_COUNT>  (1) 
2

>  <PUBCHEM_CONFORMER_ID>  (1) 
0000B93000000004

>  <PUBCHEM_MMFF94_ENERGY>  (1) 
83.9683

>  <PUBCHEM_FEATURE_SELFOVERLAP>  (1) 
55.826

>  <PUBCHEM_SHAPE_FINGERPRINT>  (1) 
10 15 11671783784958690319
10029044 110 11455349263718734235
10670039 82 12251900360940700638
11374522 79 17967253074734613507
11646440 116 18272368676660307922
12166972 35 17967253104804450964
12218070 45 16486389110086053988
13673619 4 18260831523236742541
13782708 43 18040433326342629979
13947930 73 18263083374210837723
14951699 99 13398634969589698881
15052358 14 11819564654528370296
15183329 4 12540695882444229120
15350500 55 11599733852805185211
15510800 12 18409175406514537539
16110190 28 17489862765057560100
17134984 74 17603587452300791562
17349148 13 18188496761968949648
190975 80 18271803557758789328
19246450 95 17988377966802420353
19841028 212 18125994113324734871
20028762 73 18410857633920359354
2026 5 17676201334223521402
20567600 247 17458340814930001338
20567600 70 18410852174837000112
21315759 148 17274267128222916604
21521239 73 16081085970304319976
21585482 310 18410288138014214568
21987483 16 18260541243782615866
22149856 69 17988376883325968690
2747138 104 18273493455923389528
312425 54 15626508293626335013
3383291 50 18411138056640989619
3737641 26 17487903306820277422
3862424 121 16590014847917714211
4058900 60 9727362358833135373
4098825 35 16950562130393167237
439807 62 17894914044711906515
4461854 278 17846782931416834702
46194498 28 17532090682292383133
474113 269 13912867689932778768
504579 68 14201392798891818299
54039377 194 18410580582480044926
59682541 35 18201710765857426736
59682541 52 14201388370479947432
6328613 192 8429728627711514958
6431902 208 18341890745086254390
9689198 14 13110671805492932912
9962374 69 18129091390065845215

>  <PUBCHEM_SHAPE_MULTIPOLES>  (1) 
542.79
22.36
2.93
1.8
14.07
1.65
0.17
-21.65
-5.21
2.26
-1.09
-0.35
-0.3
0.63

>  <PUBCHEM_SHAPE_SELFOVERLAP>  (1) 
1142.517

>  <PUBCHEM_SHAPE_VOLUME>  (1) 
303.9

>  <PUBCHEM_COORDINATE_TYPE>  (1) 
2
5
10

$$$$
