47409
     RDKit          3D

 29 31  0  0  1  0  0  0  0  0999 V2000
    4.4573    2.2686   -0.0641 O   0  0  0  0  0  0  0  0  0  0  0  0
   -2.1399    4.2777   -0.3854 O   0  0  0  0  0  0  0  0  0  0  0  0
   -3.4763    1.9029    0.2712 O   0  0  0  0  0  0  0  0  0  0  0  0
   -4.9896   -3.7304   -0.8109 O   0  0  0  0  0  0  0  0  0  0  0  0
   -3.8051   -2.4375   -2.1318 O   0  0  0  0  0  0  0  0  0  0  0  0
    0.6927    1.9118   -0.7480 N   0  0  0  0  0  0  0  0  0  0  0  0
   -4.4427   -2.6310   -1.0684 N   0  0  0  0  0  0  0  0  0  0  0  0
    3.0819    0.3019    0.0205 C   0  0  0  0  0  0  0  0  0  0  0  0
    1.7791    0.3810    0.8571 C   0  0  0  0  0  0  0  0  0  0  0  0
    2.7372    0.6917   -1.4398 C   0  0  0  0  0  0  0  0  0  0  0  0
    1.0114    1.6942    0.6661 C   0  0  0  0  0  0  0  0  0  0  0  0
    1.9165    1.9825   -1.5510 C   0  0  0  0  0  0  0  0  0  0  0  0
    3.7708   -1.0726    0.0603 C   0  0  0  0  0  0  0  0  0  0  0  0
    4.0563    1.3109    0.5953 C   0  0  0  0  0  0  0  0  0  0  0  0
   -0.1005    3.1296   -0.9135 C   0  0  0  0  0  0  0  0  0  0  0  0
   -1.4170    3.0689   -0.1354 C   0  0  0  0  0  0  0  0  0  0  0  0
    3.2005   -2.1123    0.7899 C   0  0  0  0  0  0  0  0  0  0  0  0
    4.9620   -1.2701   -0.6332 C   0  0  0  0  0  0  0  0  0  0  0  0
    4.5068    1.0847    2.0131 C   0  0  0  0  0  0  0  0  0  0  0  0
   -2.2981    1.8853   -0.5289 C   0  0  0  0  0  0  0  0  0  0  0  0
    3.8257   -3.3587    0.8261 C   0  0  0  0  0  0  0  0  0  0  0  0
    5.5871   -2.5166   -0.5971 C   0  0  0  0  0  0  0  0  0  0  0  0
    5.0191   -3.5608    0.1325 C   0  0  0  0  0  0  0  0  0  0  0  0
   -4.0610    0.6925    0.5318 C   0  0  0  0  0  0  0  0  0  0  0  0
   -3.9511   -0.3405   -0.3932 C   0  0  0  0  0  0  0  0  0  0  0  0
   -4.7619    0.5077    1.7189 C   0  0  0  0  0  0  0  0  0  0  0  0
   -4.5488   -1.5726   -0.1276 C   0  0  0  0  0  0  0  0  0  0  0  0
   -5.3593   -0.7244    1.9844 C   0  0  0  0  0  0  0  0  0  0  0  0
   -5.2530   -1.7645    1.0612 C   0  0  0  0  0  0  0  0  0  0  0  0
  1 14  2  0
  2 16  1  0
  3 20  1  0
  3 24  1  0
  4  7  1  0
  5  7  2  0
  6 11  1  0
  6 12  1  0
  6 15  1  0
  7 27  1  0
  8  9  1  0
  8 10  1  0
  8 13  1  0
  8 14  1  0
  9 11  1  0
 10 12  1  0
 13 17  2  0
 13 18  1  0
 14 19  1  0
 15 16  1  0
 16 20  1  0
 17 21  1  0
 18 22  2  0
 21 23  2  0
 22 23  1  0
 24 25  2  0
 24 26  1  0
 25 27  1  0
 26 28  2  0
 27 29  2  0
 28 29  1  0
M  CHG  2   4  -1   7   1
M  END
>  <PUBCHEM_COMPOUND_CID>  (1) 
47409

>  <PUBCHEM_CONFORMER_RMSD>  (1) 
1

>  <PUBCHEM_CONFORMER_DIVERSEORDER>  (1) 
1
28
179
457
241
32
242
405
361
280
78
249
425
75
62
125
447
182
294
366
300
373
308
402
434
306
292
317
274
44
250
388
147
353
367
252
188
35
161
266
130
214
433
424
227
64
246
31
295
184
171
89
65
106
60
399
257
253
139
158
416
369
193
95
127
363
221
230
72
177
322
27
462
248
439
385
421
206
144
332
458
251
296
262
440
204
465
449
136
443
120
24
231
312
104
10
128
12
174
258
390
233
129
218
135
18
314
372
181
302
452
115
117
157
240
319
176
163
20
16
337
384
245
328
50
345
164
393
352
123
178
362
334
313
232
444
200
435
426
408
259
264
156
415
284
400
438
414
340
168
208
463
57
412
279
244
304
80
298
59
311
53
432
141
261
346
394
330
119
236
430
403
185
391
54
70
192
356
34
350
219
96
29
256
396
97
105
160
223
238
83
272
446
66
395
229
459
271
333
198
213
186
201
320
137
79
456
442
52
69
210
423
126
288
325
82
407
121
91
354
419
180
226
270
102
341
370
420
378
9
237
142
410
167
464
268
118
323
460
92
331
140
260
318
269
265
321
58
67
85
30
379
71
146
287
234
103
299
374
81
224
429
450
342
307
148
165
315
13
108
73
145
404
114
22
23
289
283
189
222
411
216
305
365
329
6
94
428
397
339
68
195
377
149
406
455
150
138
309
383
380
290
11
220
401
285
205
124
170
152
431
175
56
225
46
247
113
436
327
281
194
375
51
48
112
111
166
77
131
134
344
88
453
310
376
133
445
21
190
42
215
7
398
441
212
172
348
14
254
132
2
255
47
55
239
109
159
382
98
15
155
389
303
36
359
41
84
273
45
338
448
275
324
211
49
116
143
282
199
293
202
228
427
286
37
386
301
26
19
263
197
355
364
437
357
209
360
217
243
417
461
3
368
451
153
267
326
173
358
43
207
25
101
187
39
74
278
316
336
343
409
87
122
191
371
291
100
4
297
63
99
86
235
5
33
203
276
183
454
422
107
351
349
277
151
413
76
418
387
335
169
38
162
61
93
40
17
90
8
110
392
381
347
154
196

>  <PUBCHEM_MMFF94_PARTIAL_CHARGES>  (1) 
37
1 -0.57
11 0.27
12 0.27
13 -0.14
14 0.45
15 0.27
16 0.28
17 -0.15
18 -0.15
19 0.06
2 -0.68
20 0.28
21 -0.15
22 -0.15
23 -0.15
24 0.08
25 -0.15
26 -0.15
27 0.13
28 -0.15
29 -0.15
3 -0.36
4 -0.52
41 0.15
42 0.15
48 0.15
49 0.15
5 -0.52
50 0.15
51 0.4
52 0.15
53 0.15
54 0.15
55 0.15
6 -0.81
7 0.91
8 0.2

>  <PUBCHEM_EFFECTIVE_ROTOR_COUNT>  (1) 
9.2

>  <PUBCHEM_PHARMACOPHORE_FEATURES>  (1) 
11
1 1 acceptor
1 2 acceptor
1 2 donor
1 3 acceptor
1 4 acceptor
1 4 anion
1 5 acceptor
1 6 cation
6 13 17 18 21 22 23 rings
6 24 25 26 27 28 29 rings
6 6 8 9 10 11 12 rings

>  <PUBCHEM_HEAVY_ATOM_COUNT>  (1) 
29

>  <PUBCHEM_ATOM_DEF_STEREO_COUNT>  (1) 
0

>  <PUBCHEM_ATOM_UDEF_STEREO_COUNT>  (1) 
1

>  <PUBCHEM_BOND_DEF_STEREO_COUNT>  (1) 
0

>  <PUBCHEM_BOND_UDEF_STEREO_COUNT>  (1) 
0

>  <PUBCHEM_ISOTOPIC_ATOM_COUNT>  (1) 
0

>  <PUBCHEM_COMPONENT_COUNT>  (1) 
1

>  <PUBCHEM_CACTVS_TAUTO_COUNT>  (1) 
2

>  <PUBCHEM_CONFORMER_ID>  (1) 
0000B93100000001

>  <PUBCHEM_MMFF94_ENERGY>  (1) 
90.6769

>  <PUBCHEM_FEATURE_SELFOVERLAP>  (1) 
55.908

>  <PUBCHEM_SHAPE_FINGERPRINT>  (1) 
10042902 136 18411140216760749246
10169797 241 18340497699068785642
10462674 125 16049791841699902662
10928967 22 18338810008427386959
11315621 136 17967827028599520028
11552529 35 18342174410486450889
117089 54 18116454663978347819
11796584 16 17977669702262452212
12174731 88 18119245069501470523
12422481 6 17917434168261764431
12633257 1 16845565405184898813
13103583 49 18059583446927043921
13690498 29 18191879928960935926
14950920 106 17846218817310517289
15274700 232 16321188183857388314
15361156 5 18115041722289170272
15537594 2 18338532927117486181
17492 89 18334298634687696744
17909252 39 18336554811415799290
20775530 9 18260827064184924627
21315759 227 17458912664208848955
21585480 29 18128803313012087954
23379529 103 18124035633363386486
23559900 14 18192423079179276720
25222932 49 17773871085594326756
312425 54 18060422400042493465
316301 35 18265048042764988754
3737641 26 18409730664159926072
463206 1 18335425724437643827
56633871 153 18412833478074782203
613672 6 18114735031875820353
6431902 208 18261114045352179514
7970288 3 18263932193039823531
8863177 126 18341331081421130650

>  <PUBCHEM_SHAPE_MULTIPOLES>  (1) 
557.5
15
4.99
1.58
5.53
0.59
0.15
13.2
2.61
0.33
-1.31
0.85
0.23
-0.74

>  <PUBCHEM_SHAPE_SELFOVERLAP>  (1) 
1184.259

>  <PUBCHEM_SHAPE_VOLUME>  (1) 
310

>  <PUBCHEM_COORDINATE_TYPE>  (1) 
2
5
10

$$$$
