47404
     RDKit          3D

 19 20  0  0  1  0  0  0  0  0999 V2000
    0.0311    0.0461   -2.1355 O   0  0  0  0  0  0  0  0  0  0  0  0
    0.6975    2.8432    1.4824 O   0  0  0  0  0  0  0  0  0  0  0  0
    3.6327   -0.5789   -0.2759 O   0  0  0  0  0  0  0  0  0  0  0  0
    2.0195   -0.3682    1.3584 O   0  0  0  0  0  0  0  0  0  0  0  0
    0.7110    1.4000   -0.3581 N   0  0  0  0  0  0  0  0  0  0  0  0
   -1.5873    1.1745   -0.7281 C   0  0  0  0  0  0  0  0  0  0  0  0
   -1.3518    2.1755    0.4069 C   0  0  0  0  0  0  0  0  0  0  0  0
   -0.2011    0.7926   -1.1938 C   0  0  0  0  0  0  0  0  0  0  0  0
    0.1376    2.1979    0.6066 C   0  0  0  0  0  0  0  0  0  0  0  0
   -2.3404   -0.0261   -0.2637 C   0  0  0  0  0  0  0  0  0  0  0  0
    2.1424    1.2073   -0.4941 C   0  0  0  0  0  0  0  0  0  0  0  0
   -3.7295   -0.0685   -0.3857 C   0  0  0  0  0  0  0  0  0  0  0  0
   -1.6560   -1.1072    0.2920 C   0  0  0  0  0  0  0  0  0  0  0  0
    2.5561    0.0110    0.3262 C   0  0  0  0  0  0  0  0  0  0  0  0
   -4.4339   -1.1914    0.0482 C   0  0  0  0  0  0  0  0  0  0  0  0
   -2.3606   -2.2302    0.7259 C   0  0  0  0  0  0  0  0  0  0  0  0
   -3.7495   -2.2721    0.6040 C   0  0  0  0  0  0  0  0  0  0  0  0
    4.1511   -1.7377    0.3854 C   0  0  0  0  0  0  0  0  0  0  0  0
    5.3310   -2.2677   -0.4011 C   0  0  0  0  0  0  0  0  0  0  0  0
  1  8  2  0
  2  9  2  0
  3 14  1  0
  3 18  1  0
  4 14  2  0
  5  8  1  0
  5  9  1  0
  5 11  1  0
  6  7  1  0
  6  8  1  0
  6 10  1  0
  7  9  1  0
 10 12  2  0
 10 13  1  0
 11 14  1  0
 12 15  1  0
 13 16  2  0
 15 17  2  0
 16 17  1  0
 18 19  1  0
M  END
>  <PUBCHEM_COMPOUND_CID>  (1) 
47404

>  <PUBCHEM_CONFORMER_RMSD>  (1) 
0.8

>  <PUBCHEM_CONFORMER_DIVERSEORDER>  (1) 
1
42
32
44
23
10
40
27
29
47
39
41
34
21
26
38
24
30
43
5
22
25
49
36
46
20
48
28
45
18
33
15
16
31
12
9
19
50
7
35
37
11
8
17
3
14
13
4
6
2

>  <PUBCHEM_MMFF94_PARTIAL_CHARGES>  (1) 
23
1 -0.57
10 -0.14
11 0.36
12 -0.15
13 -0.15
14 0.66
15 -0.15
16 -0.15
17 -0.15
18 0.28
2 -0.57
25 0.15
26 0.15
27 0.15
28 0.15
29 0.15
3 -0.43
4 -0.57
5 -0.42
6 0.2
7 0.06
8 0.57
9 0.57

>  <PUBCHEM_EFFECTIVE_ROTOR_COUNT>  (1) 
5.6

>  <PUBCHEM_PHARMACOPHORE_FEATURES>  (1) 
5
1 1 acceptor
1 2 acceptor
1 4 acceptor
5 5 6 7 8 9 rings
6 10 12 13 15 16 17 rings

>  <PUBCHEM_HEAVY_ATOM_COUNT>  (1) 
19

>  <PUBCHEM_ATOM_DEF_STEREO_COUNT>  (1) 
0

>  <PUBCHEM_ATOM_UDEF_STEREO_COUNT>  (1) 
1

>  <PUBCHEM_BOND_DEF_STEREO_COUNT>  (1) 
0

>  <PUBCHEM_BOND_UDEF_STEREO_COUNT>  (1) 
0

>  <PUBCHEM_ISOTOPIC_ATOM_COUNT>  (1) 
0

>  <PUBCHEM_COMPONENT_COUNT>  (1) 
1

>  <PUBCHEM_CACTVS_TAUTO_COUNT>  (1) 
4

>  <PUBCHEM_CONFORMER_ID>  (1) 
0000B92C00000001

>  <PUBCHEM_MMFF94_ENERGY>  (1) 
33.9923

>  <PUBCHEM_FEATURE_SELFOVERLAP>  (1) 
25.373

>  <PUBCHEM_SHAPE_FINGERPRINT>  (1) 
11578080 2 17896300541116558165
12506688 2 18337392741843435842
12507560 14 18130508634425385751
12596602 18 15194986259445652150
12633257 1 18200326441298654811
12760667 363 18340204090118321902
12824470 246 18187079508264690978
13134695 92 18129656534346991509
13533116 47 18196090178301984635
14251740 79 18115313246307009802
14866123 147 18267588992624961139
15352361 1 18409449176515020010
15422964 175 18338786939857508984
16945 1 18041829632631413077
17804303 29 18334857238392372071
1813 80 17168139074295524286
193927 3 18261118469242314946
20291156 8 18333730229988523162
20600515 1 18340216176013985429
22620623 9 17096069321500762879
23559900 14 18335976545255656364
238078 22 18335989666791903394
4416823 128 18335421278945817602
474 4 13542468704010816291
76465 3 18199742704173253159
9709674 26 18042407017969987811
9925002 15 8715677525282084121

>  <PUBCHEM_SHAPE_MULTIPOLES>  (1) 
362.55
8.28
2.95
1.19
6.01
0.24
-0.21
-8.64
-0.05
0.26
0.94
0.17
0.35
0.65

>  <PUBCHEM_SHAPE_SELFOVERLAP>  (1) 
766.458

>  <PUBCHEM_SHAPE_VOLUME>  (1) 
204.8

>  <PUBCHEM_COORDINATE_TYPE>  (1) 
2
5
10

$$$$
