47412
     RDKit          3D

 21 24  0  0  1  0  0  0  0  0999 V2000
   -2.2173   -1.8211    1.5682 O   0  0  0  0  0  0  0  0  0  0  0  0
   -3.8142   -1.6636   -1.6522 O   0  0  0  0  0  0  0  0  0  0  0  0
   -1.5787   -0.0744    0.1023 C   0  0  0  0  0  0  0  0  0  0  0  0
   -2.2860   -1.4187    0.1995 C   0  0  0  0  0  0  0  0  0  0  0  0
   -0.1528    0.0202    0.0522 C   0  0  0  0  0  0  0  0  0  0  0  0
    0.4438    1.3031   -0.0064 C   0  0  0  0  0  0  0  0  0  0  0  0
   -2.3627    1.1013    0.1269 C   0  0  0  0  0  0  0  0  0  0  0  0
   -3.7611   -1.4059   -0.2481 C   0  0  0  0  0  0  0  0  0  0  0  0
    1.8419    1.4349   -0.0674 C   0  0  0  0  0  0  0  0  0  0  0  0
    0.7187   -1.0966    0.0652 C   0  0  0  0  0  0  0  0  0  0  0  0
    2.6879    0.3171   -0.0635 C   0  0  0  0  0  0  0  0  0  0  0  0
    2.1189   -0.9682    0.0065 C   0  0  0  0  0  0  0  0  0  0  0  0
   -0.3599    2.4496    0.0055 C   0  0  0  0  0  0  0  0  0  0  0  0
   -1.7460    2.3524    0.0797 C   0  0  0  0  0  0  0  0  0  0  0  0
   -3.8246    1.0379    0.2123 C   0  0  0  0  0  0  0  0  0  0  0  0
   -4.4719   -0.1167    0.0214 C   0  0  0  0  0  0  0  0  0  0  0  0
    2.4566    2.8089   -0.1357 C   0  0  0  0  0  0  0  0  0  0  0  0
    4.0855    0.4509   -0.1239 C   0  0  0  0  0  0  0  0  0  0  0  0
    2.9630   -2.0921    0.0163 C   0  0  0  0  0  0  0  0  0  0  0  0
    4.9099   -0.6741   -0.1146 C   0  0  0  0  0  0  0  0  0  0  0  0
    4.3489   -1.9449   -0.0442 C   0  0  0  0  0  0  0  0  0  0  0  0
  1  4  1  0
  2  8  1  0
  3  4  1  0
  3  5  1  0
  3  7  2  0
  4  8  1  0
  5  6  2  0
  5 10  1  0
  6  9  1  0
  6 13  1  0
  7 14  1  0
  7 15  1  0
  8 16  1  0
  9 11  2  0
  9 17  1  0
 10 12  2  0
 11 12  1  0
 11 18  1  0
 12 19  1  0
 13 14  2  0
 15 16  2  0
 18 20  2  0
 19 21  2  0
 20 21  1  0
M  END
>  <PUBCHEM_COMPOUND_CID>  (1) 
47412

>  <PUBCHEM_CONFORMER_RMSD>  (1) 
0.6

>  <PUBCHEM_CONFORMER_DIVERSEORDER>  (1) 
1

>  <PUBCHEM_MMFF94_PARTIAL_CHARGES>  (1) 
28
1 -0.68
10 -0.15
13 -0.15
14 -0.15
15 -0.18
16 -0.29
17 0.14
18 -0.15
19 -0.15
2 -0.68
20 -0.15
21 -0.15
24 0.15
25 0.15
26 0.15
27 0.15
28 0.15
3 -0.14
32 0.15
33 0.15
34 0.4
35 0.4
36 0.15
37 0.15
4 0.42
7 0.03
8 0.42
9 -0.14

>  <PUBCHEM_EFFECTIVE_ROTOR_COUNT>  (1) 
0.4

>  <PUBCHEM_PHARMACOPHORE_FEATURES>  (1) 
8
1 1 acceptor
1 1 donor
1 2 acceptor
1 2 donor
6 11 12 18 19 20 21 rings
6 3 4 7 8 15 16 rings
6 3 5 6 7 13 14 rings
6 5 6 9 10 11 12 rings

>  <PUBCHEM_HEAVY_ATOM_COUNT>  (1) 
21

>  <PUBCHEM_ATOM_DEF_STEREO_COUNT>  (1) 
2

>  <PUBCHEM_ATOM_UDEF_STEREO_COUNT>  (1) 
0

>  <PUBCHEM_BOND_DEF_STEREO_COUNT>  (1) 
0

>  <PUBCHEM_BOND_UDEF_STEREO_COUNT>  (1) 
0

>  <PUBCHEM_ISOTOPIC_ATOM_COUNT>  (1) 
0

>  <PUBCHEM_COMPONENT_COUNT>  (1) 
1

>  <PUBCHEM_CACTVS_TAUTO_COUNT>  (1) 
1

>  <PUBCHEM_CONFORMER_ID>  (1) 
0000B93400000001

>  <PUBCHEM_MMFF94_ENERGY>  (1) 
75.2307

>  <PUBCHEM_FEATURE_SELFOVERLAP>  (1) 
40.667

>  <PUBCHEM_SHAPE_FINGERPRINT>  (1) 
10062212 137 18343299271485272831
10616163 171 18341334400766465638
10906281 52 18268449970063788733
10967382 1 18266179611474936328
1100329 8 16965759343450988979
11680986 33 18263086663648806344
11806522 49 18409448077118975604
12553582 1 18334571300480456474
13140716 1 18411147939075102169
13544653 18 18408890645781746210
13583140 156 14476965527937887102
138480 1 14447125491267488324
14115302 16 17822024102506061390
14790565 3 17474676048700050768
15196674 1 18410576171353296720
15209289 33 18334860485071175915
15352361 1 18411136926525500366
15442244 35 18339364067418554216
15536298 74 18342175596165982056
16945 1 18337116669999270272
17349148 13 18259698987104118234
17357779 13 18261097587058301933
17492 89 18339360872090071143
17804303 29 18411705348362553092
1813 80 17530970167825759580
18186145 218 17458339771216128763
19141452 34 18272653416070314421
19862831 5 17894628149633547595
200 152 18201436999671986435
20645477 70 18262796405537659298
21267235 1 18410865364755503443
21501502 16 18411987965790034489
21634736 98 18410294722293979124
221490 88 18335709398263133714
2334 1 18338241594916712801
23366157 5 18040999591942615140
23402539 116 18410005503301401207
23557571 272 18128262186336045870
23559900 14 18411412921467235656
2748010 2 18265053711457473304
2871803 45 18334290955322834894
335352 9 18338518521881935325
34934 24 18337105657576100545
350125 39 18337958887706862057
4214541 1 18339081475787230800
46194498 28 17462265144234855959
4921388 177 16298681567540307475
5104073 3 18412265025450383216
7364860 26 18340487863298090328
8809292 202 18261398836006362283
9709674 26 18408606988919509778
9981440 41 17616812575433440600

>  <PUBCHEM_SHAPE_MULTIPOLES>  (1) 
420.43
8.9
2.8
0.8
1.44
1
-0.03
-3.74
-0.78
0.42
-0.02
-0.56
-0.33
-0.32

>  <PUBCHEM_SHAPE_SELFOVERLAP>  (1) 
951.878

>  <PUBCHEM_SHAPE_VOLUME>  (1) 
221.4

>  <PUBCHEM_COORDINATE_TYPE>  (1) 
2
5
10

$$$$
