47417
     RDKit          3D

 32 34  0  0  0  0  0  0  0  0999 V2000
   -3.1785    0.0692   -0.3065 P   0  0  0  0  0  0  0  0  0  0  0  0
   -2.1667   -1.0515    0.2840 O   0  0  0  0  0  0  0  0  0  0  0  0
   -4.5067   -0.1203    0.5959 O   0  0  0  0  0  0  0  0  0  0  0  0
   -2.5530    1.4512    0.2532 O   0  0  0  0  0  0  0  0  0  0  0  0
   -3.3970    0.0163   -1.7926 O   0  0  0  0  0  0  0  0  0  0  0  0
    6.6707   -0.1852    0.0886 C   0  0  0  0  0  0  0  0  0  0  0  0
    8.1371   -0.4080   -0.2882 C   0  0  0  0  0  0  0  0  0  0  0  0
    5.6943   -1.0043   -0.7613 C   0  0  0  0  0  0  0  0  0  0  0  0
    9.0702    0.4145    0.6051 C   0  0  0  0  0  0  0  0  0  0  0  0
    4.2318   -0.8372   -0.3344 C   0  0  0  0  0  0  0  0  0  0  0  0
   10.5380    0.1618    0.2533 C   0  0  0  0  0  0  0  0  0  0  0  0
    3.2614   -1.6525   -1.1978 C   0  0  0  0  0  0  0  0  0  0  0  0
   11.5140    0.9839    1.0977 C   0  0  0  0  0  0  0  0  0  0  0  0
    1.8148   -1.4928   -0.8028 C   0  0  0  0  0  0  0  0  0  0  0  0
   12.9753    0.6838    0.8011 C   0  0  0  0  0  0  0  0  0  0  0  0
    1.2504   -2.3503    0.1417 C   0  0  0  0  0  0  0  0  0  0  0  0
    1.0412   -0.4871   -1.3821 C   0  0  0  0  0  0  0  0  0  0  0  0
   -0.0876   -2.2021    0.5068 C   0  0  0  0  0  0  0  0  0  0  0  0
   -0.2969   -0.3388   -1.0171 C   0  0  0  0  0  0  0  0  0  0  0  0
   -0.8613   -1.1963   -0.0727 C   0  0  0  0  0  0  0  0  0  0  0  0
   -5.3143   -1.2251    0.5817 C   0  0  0  0  0  0  0  0  0  0  0  0
   -3.1314    2.6845    0.1224 C   0  0  0  0  0  0  0  0  0  0  0  0
   -5.0136   -2.2980   -0.2574 C   0  0  0  0  0  0  0  0  0  0  0  0
   -4.3545    2.8150   -0.5354 C   0  0  0  0  0  0  0  0  0  0  0  0
   -6.4386   -1.2778    1.4055 C   0  0  0  0  0  0  0  0  0  0  0  0
   -2.4976    3.8112    0.6461 C   0  0  0  0  0  0  0  0  0  0  0  0
   -5.8373   -3.4236   -0.2727 C   0  0  0  0  0  0  0  0  0  0  0  0
   -4.9438    4.0722   -0.6697 C   0  0  0  0  0  0  0  0  0  0  0  0
   -7.2622   -2.4034    1.3903 C   0  0  0  0  0  0  0  0  0  0  0  0
   -3.0869    5.0683    0.5122 C   0  0  0  0  0  0  0  0  0  0  0  0
   -6.9615   -3.4763    0.5511 C   0  0  0  0  0  0  0  0  0  0  0  0
   -4.3098    5.1988   -0.1458 C   0  0  0  0  0  0  0  0  0  0  0  0
  1  2  1  0
  1  3  1  0
  1  4  1  0
  1  5  2  0
  2 20  1  0
  3 21  1  0
  4 22  1  0
  6  7  1  0
  6  8  1  0
  7  9  1  0
  8 10  1  0
  9 11  1  0
 10 12  1  0
 11 13  1  0
 12 14  1  0
 13 15  1  0
 14 16  2  0
 14 17  1  0
 16 18  1  0
 17 19  2  0
 18 20  2  0
 19 20  1  0
 21 23  2  0
 21 25  1  0
 22 24  2  0
 22 26  1  0
 23 27  1  0
 24 28  1  0
 25 29  2  0
 26 30  2  0
 27 31  2  0
 28 32  2  0
 29 31  1  0
 30 32  1  0
M  END
>  <PUBCHEM_COMPOUND_CID>  (1) 
47417

>  <PUBCHEM_CONFORMER_RMSD>  (1) 
1.4

>  <PUBCHEM_CONFORMER_DIVERSEORDER>  (1) 
1
13
100
83
73
29
105
43
74
33
70
37
38
92
115
16
110
58
72
112
77
111
32
67
30
11
84
91
98
36
24
52
116
23
81
78
80
17
46
90
113
56
53
14
47
108
41
69
61
97
76
96
44
57
45
71
21
9
99
40
94
18
27
62
49
35
95
86
104
79
3
68
34
82
54
25
75
93
64
39
5
59
8
65
12
66
50
89
85
20
101
103
88
28
4
109
107
48
114
60
106
2
118
55
63
31
42
26
22
51
87
117
102
10
15
7
19
6

>  <PUBCHEM_MMFF94_PARTIAL_CHARGES>  (1) 
38
1 1.51
12 0.14
14 -0.14
16 -0.15
17 -0.15
18 -0.15
19 -0.15
2 -0.35
20 0.08
21 0.08
22 0.08
23 -0.15
24 -0.15
25 -0.15
26 -0.15
27 -0.15
28 -0.15
29 -0.15
3 -0.35
30 -0.15
31 -0.15
32 -0.15
4 -0.35
5 -0.7
52 0.15
53 0.15
54 0.15
55 0.15
56 0.15
57 0.15
58 0.15
59 0.15
60 0.15
61 0.15
62 0.15
63 0.15
64 0.15
65 0.15

>  <PUBCHEM_EFFECTIVE_ROTOR_COUNT>  (1) 
14

>  <PUBCHEM_PHARMACOPHORE_FEATURES>  (1) 
5
1 15 hydrophobe
1 5 acceptor
6 14 16 17 18 19 20 rings
6 21 23 25 27 29 31 rings
6 22 24 26 28 30 32 rings

>  <PUBCHEM_HEAVY_ATOM_COUNT>  (1) 
32

>  <PUBCHEM_ATOM_DEF_STEREO_COUNT>  (1) 
0

>  <PUBCHEM_ATOM_UDEF_STEREO_COUNT>  (1) 
0

>  <PUBCHEM_BOND_DEF_STEREO_COUNT>  (1) 
0

>  <PUBCHEM_BOND_UDEF_STEREO_COUNT>  (1) 
0

>  <PUBCHEM_ISOTOPIC_ATOM_COUNT>  (1) 
0

>  <PUBCHEM_COMPONENT_COUNT>  (1) 
1

>  <PUBCHEM_CACTVS_TAUTO_COUNT>  (1) 
1

>  <PUBCHEM_CONFORMER_ID>  (1) 
0000B93900000001

>  <PUBCHEM_MMFF94_ENERGY>  (1) 
62.5695

>  <PUBCHEM_FEATURE_SELFOVERLAP>  (1) 
25.373

>  <PUBCHEM_SHAPE_FINGERPRINT>  (1) 
10050765 1 18193561068896902582
10369192 42 16917355830782069087
10411042 1 18338523070975020407
10625338 86 18342172272747434048
12104220 1 18410009974721741191
12788726 201 18118996683859559063
13073987 5 18335987458936685470
13726171 33 18127699223160444569
14040221 310 18272920636367230927
14068700 675 18188499076956069383
14150022 121 18408323276602740644
14512766 119 18265618667551253132
15328684 2 17822559522626678856
15347591 1 18267304227698929498
18603816 31 12757432816421848218
19304144 158 18271808978250331150
20721686 146 13757259302221810347
21130935 74 18262236600397955018
212700 22 11458413628516215296
249057 25 17604445054079779278
3418910 222 18337403711575727268
4409770 3 18263088713767212109
44802255 64 17418085508599922638
58902169 19 12679456513560036250
59521270 166 10375604689417798378
636775 72 18413386519818655156
6691757 9 16588032312087309514
9663363 56 18410012170236038675

>  <PUBCHEM_SHAPE_MULTIPOLES>  (1) 
638.92
33.88
5.76
1.16
144.83
9.42
-0.08
-0.61
13.71
-18.78
0.49
-0.28
-0.24
2.91

>  <PUBCHEM_SHAPE_SELFOVERLAP>  (1) 
1309.703

>  <PUBCHEM_SHAPE_VOLUME>  (1) 
366.6

>  <PUBCHEM_COORDINATE_TYPE>  (1) 
2
5
10

$$$$
