47414
     RDKit          3D

 21 24  0  0  1  0  0  0  0  0999 V2000
   -3.6511   -0.9895    1.5243 O   0  0  0  0  0  0  0  0  0  0  0  0
   -4.5043    0.4905   -1.6619 O   0  0  0  0  0  0  0  0  0  0  0  0
   -1.9028   -0.3297    0.0829 C   0  0  0  0  0  0  0  0  0  0  0  0
   -3.3776   -0.6464    0.1652 C   0  0  0  0  0  0  0  0  0  0  0  0
   -0.9651   -1.3619   -0.0234 C   0  0  0  0  0  0  0  0  0  0  0  0
   -1.4511    0.9904    0.1749 C   0  0  0  0  0  0  0  0  0  0  0  0
    0.4151   -1.0994   -0.0489 C   0  0  0  0  0  0  0  0  0  0  0  0
   -4.2843    0.5273   -0.2526 C   0  0  0  0  0  0  0  0  0  0  0  0
    0.8997    0.2296    0.0427 C   0  0  0  0  0  0  0  0  0  0  0  0
   -0.0727    1.2559    0.1581 C   0  0  0  0  0  0  0  0  0  0  0  0
    2.3214    0.4617    0.0162 C   0  0  0  0  0  0  0  0  0  0  0  0
   -2.4126    2.0902    0.2915 C   0  0  0  0  0  0  0  0  0  0  0  0
   -3.7173    1.8779    0.0751 C   0  0  0  0  0  0  0  0  0  0  0  0
    1.3134   -2.1637   -0.1612 C   0  0  0  0  0  0  0  0  0  0  0  0
    3.2020   -0.6455   -0.0998 C   0  0  0  0  0  0  0  0  0  0  0  0
   -1.4647   -2.7795   -0.0940 C   0  0  0  0  0  0  0  0  0  0  0  0
    2.6859   -1.9405   -0.1866 C   0  0  0  0  0  0  0  0  0  0  0  0
    2.9212    1.7437    0.0994 C   0  0  0  0  0  0  0  0  0  0  0  0
    4.5940   -0.4535   -0.1280 C   0  0  0  0  0  0  0  0  0  0  0  0
    4.3072    1.9208    0.0698 C   0  0  0  0  0  0  0  0  0  0  0  0
    5.1439    0.8217   -0.0439 C   0  0  0  0  0  0  0  0  0  0  0  0
  1  4  1  0
  2  8  1  0
  3  4  1  0
  3  5  1  0
  3  6  2  0
  4  8  1  0
  5  7  2  0
  5 16  1  0
  6 10  1  0
  6 12  1  0
  7  9  1  0
  7 14  1  0
  8 13  1  0
  9 10  2  0
  9 11  1  0
 11 15  2  0
 11 18  1  0
 12 13  2  0
 14 17  2  0
 15 17  1  0
 15 19  1  0
 18 20  2  0
 19 21  2  0
 20 21  1  0
M  END
>  <PUBCHEM_COMPOUND_CID>  (1) 
47414

>  <PUBCHEM_CONFORMER_RMSD>  (1) 
0.6

>  <PUBCHEM_CONFORMER_DIVERSEORDER>  (1) 
1

>  <PUBCHEM_MMFF94_PARTIAL_CHARGES>  (1) 
28
1 -0.68
10 -0.15
12 -0.18
13 -0.29
14 -0.15
16 0.14
17 -0.15
18 -0.15
19 -0.15
2 -0.68
20 -0.15
21 -0.15
24 0.15
25 0.15
26 0.15
27 0.15
3 -0.14
31 0.15
32 0.15
33 0.4
34 0.15
35 0.4
36 0.15
37 0.15
4 0.42
5 -0.14
6 0.03
8 0.42

>  <PUBCHEM_EFFECTIVE_ROTOR_COUNT>  (1) 
0.4

>  <PUBCHEM_PHARMACOPHORE_FEATURES>  (1) 
8
1 1 acceptor
1 1 donor
1 2 acceptor
1 2 donor
6 11 15 18 19 20 21 rings
6 3 4 6 8 12 13 rings
6 3 5 6 7 9 10 rings
6 7 9 11 14 15 17 rings

>  <PUBCHEM_HEAVY_ATOM_COUNT>  (1) 
21

>  <PUBCHEM_ATOM_DEF_STEREO_COUNT>  (1) 
2

>  <PUBCHEM_ATOM_UDEF_STEREO_COUNT>  (1) 
0

>  <PUBCHEM_BOND_DEF_STEREO_COUNT>  (1) 
0

>  <PUBCHEM_BOND_UDEF_STEREO_COUNT>  (1) 
0

>  <PUBCHEM_ISOTOPIC_ATOM_COUNT>  (1) 
0

>  <PUBCHEM_COMPONENT_COUNT>  (1) 
1

>  <PUBCHEM_CACTVS_TAUTO_COUNT>  (1) 
1

>  <PUBCHEM_CONFORMER_ID>  (1) 
0000B93600000001

>  <PUBCHEM_MMFF94_ENERGY>  (1) 
74.2906

>  <PUBCHEM_FEATURE_SELFOVERLAP>  (1) 
40.666

>  <PUBCHEM_SHAPE_FINGERPRINT>  (1) 
10 15 18263358252539489664
10411042 1 16970548305834526622
10498660 4 18339642342881856796
10608611 8 18410576158526384664
10616163 171 18340208599876005294
10646746 165 18409451366995417500
10967382 1 18411983546569009984
11370993 70 18410853257026242814
11471102 20 18412260614998978310
11578080 2 16807281389869434590
12236239 1 17561084687920335747
12390115 104 18128839493706313513
12403259 415 18115309960593373909
12403260 363 18267856190465760714
12969540 114 18189597428610229775
13140716 1 17979646958722864641
13224815 77 18411704283125916929
13583140 156 17240759596954630665
13675066 3 18114467846049464402
138480 1 17690844454231220638
14790565 3 18198350563528486953
15196674 1 18411420587672232714
15238133 3 14274014356247433047
15375358 24 18409167705621877346
15536298 74 18342740672243999582
16945 1 18412828022759311131
19591789 44 18411421691679547698
200 152 17988920059429443221
20510252 161 18272094876637116257
20645477 70 18271524204332568118
21267235 1 18411710876201682410
221490 88 18338527335049285898
22182313 1 18337972124495115159
23227448 37 18341331192605042422
2334 1 18339928121357717297
23366157 5 18042693797553185666
23402539 116 18343576356567609301
23402655 69 18272366442992250085
23493267 7 18040431101206510761
23559900 14 18342739564475253246
2748010 2 18337682910140012567
335352 9 18339361869128535022
34934 24 18410006650179163722
350125 39 18338805609995662816
3545911 37 18407762533940515356
4028521 119 18408036316788885645
4214541 1 18410857659441821080
474 4 17967537904265027580
5104073 3 18408888399740659216
58051976 378 18341612594604251612
59755656 215 18341618088679689814
633830 44 18128540370998536327
69090 78 18412823577425838318
7364860 26 18269839722971067054
9709674 26 18341619187331838070

>  <PUBCHEM_SHAPE_MULTIPOLES>  (1) 
420.43
9.53
2.55
0.8
2.37
0.63
0.04
-3.49
0.72
0.02
-0.05
-0.75
0.03
0.37

>  <PUBCHEM_SHAPE_SELFOVERLAP>  (1) 
951.993

>  <PUBCHEM_SHAPE_VOLUME>  (1) 
220.8

>  <PUBCHEM_COORDINATE_TYPE>  (1) 
2
5
10

$$$$
