47415
     RDKit          3D

 19 23  0  0  1  0  0  0  0  0999 V2000
    2.5911    2.5678    0.3028 O   0  0  0  0  0  0  0  0  0  0  0  0
    3.3692    1.4629    0.6526 C   0  0  0  0  0  0  0  0  0  0  0  0
    2.2337    1.4409   -0.4642 C   0  0  0  0  0  0  0  0  0  0  0  0
    4.4778    0.7447   -0.0120 C   0  0  0  0  0  0  0  0  0  0  0  0
    1.5948    0.1051   -0.2104 C   0  0  0  0  0  0  0  0  0  0  0  0
    4.0252   -0.7468   -0.1707 C   0  0  0  0  0  0  0  0  0  0  0  0
    2.5059   -0.9944   -0.1384 C   0  0  0  0  0  0  0  0  0  0  0  0
    0.2035   -0.1223   -0.1165 C   0  0  0  0  0  0  0  0  0  0  0  0
    2.0202   -2.2925    0.0080 C   0  0  0  0  0  0  0  0  0  0  0  0
   -0.2671   -1.4467    0.0427 C   0  0  0  0  0  0  0  0  0  0  0  0
    0.6469   -2.5126    0.0982 C   0  0  0  0  0  0  0  0  0  0  0  0
   -0.7389    0.9241   -0.1822 C   0  0  0  0  0  0  0  0  0  0  0  0
   -1.6484   -1.6852    0.1372 C   0  0  0  0  0  0  0  0  0  0  0  0
   -2.1206    0.6848   -0.0880 C   0  0  0  0  0  0  0  0  0  0  0  0
   -2.5813   -0.6379    0.0749 C   0  0  0  0  0  0  0  0  0  0  0  0
   -3.0531    1.7339   -0.1519 C   0  0  0  0  0  0  0  0  0  0  0  0
   -3.9623   -0.8785    0.1696 C   0  0  0  0  0  0  0  0  0  0  0  0
   -4.4213    1.4789   -0.0562 C   0  0  0  0  0  0  0  0  0  0  0  0
   -4.8755    0.1739    0.1045 C   0  0  0  0  0  0  0  0  0  0  0  0
  1  2  1  0
  1  3  1  0
  2  3  1  0
  2  4  1  0
  3  5  1  0
  4  6  1  0
  5  7  2  0
  5  8  1  0
  6  7  1  0
  7  9  1  0
  8 10  2  0
  8 12  1  0
  9 11  2  0
 10 11  1  0
 10 13  1  0
 12 14  2  0
 13 15  2  0
 14 15  1  0
 14 16  1  0
 15 17  1  0
 16 18  2  0
 17 19  2  0
 18 19  1  0
M  END
>  <PUBCHEM_COMPOUND_CID>  (1) 
47415

>  <PUBCHEM_CONFORMER_RMSD>  (1) 
0.6

>  <PUBCHEM_CONFORMER_DIVERSEORDER>  (1) 
1

>  <PUBCHEM_MMFF94_PARTIAL_CHARGES>  (1) 
25
1 -0.3
11 -0.15
12 -0.15
13 -0.15
16 -0.15
17 -0.15
18 -0.15
19 -0.15
2 -0.05
20 0.1
21 0.1
26 0.15
27 0.15
28 0.15
29 0.15
3 0.08
30 0.15
31 0.15
32 0.15
33 0.15
4 0.09
5 -0.03
6 0.14
7 -0.14
9 -0.15

>  <PUBCHEM_EFFECTIVE_ROTOR_COUNT>  (1) 
0.6

>  <PUBCHEM_PHARMACOPHORE_FEATURES>  (1) 
5
1 1 acceptor
6 14 15 16 17 18 19 rings
6 5 7 8 9 10 11 rings
6 8 10 12 13 14 15 rings
7 1 2 3 4 5 6 7 rings

>  <PUBCHEM_HEAVY_ATOM_COUNT>  (1) 
19

>  <PUBCHEM_ATOM_DEF_STEREO_COUNT>  (1) 
0

>  <PUBCHEM_ATOM_UDEF_STEREO_COUNT>  (1) 
2

>  <PUBCHEM_BOND_DEF_STEREO_COUNT>  (1) 
0

>  <PUBCHEM_BOND_UDEF_STEREO_COUNT>  (1) 
0

>  <PUBCHEM_ISOTOPIC_ATOM_COUNT>  (1) 
0

>  <PUBCHEM_COMPONENT_COUNT>  (1) 
1

>  <PUBCHEM_CACTVS_TAUTO_COUNT>  (1) 
1

>  <PUBCHEM_CONFORMER_ID>  (1) 
0000B93700000001

>  <PUBCHEM_MMFF94_ENERGY>  (1) 
95.2413

>  <PUBCHEM_FEATURE_SELFOVERLAP>  (1) 
25.432

>  <PUBCHEM_SHAPE_FINGERPRINT>  (1) 
10411042 1 17546165199468553775
10608611 8 18408884001757515693
10616163 171 18411139181768952911
10646746 165 18409450292894780460
10967382 1 18410293575511252758
11132069 177 18261109690561030077
11370993 70 18410569612906405473
11471102 20 18411417276336973542
12403259 226 18263076622041525116
12403259 415 18408037407563438037
12403260 363 18266728263619216934
12592029 89 18407760322201280442
12644460 14 18261395481626556330
13140716 1 18336541711528045778
138480 1 17834113043880899594
14466204 15 18410283684655627976
14790565 3 18263091058049690516
15196674 1 18410012126130415462
15219456 202 18409450271662621483
15442244 35 18123190095530088771
15536298 74 18413109433237672351
16945 1 18338230470909341550
17492 89 18411981347599567423
18186145 218 18201168688522072737
19591789 44 18339642355677302179
200 152 18060135440561233335
20510252 161 18125445468819842081
20645477 70 18272933773970751015
21267235 1 18410584963193783535
21279426 13 18267307517616686422
21524375 3 18409450305774641398
221490 88 18337400343973012139
22854114 111 18410293601096433679
22854114 59 18410013238758988785
23227448 37 18342173414280443495
23402539 116 18343013428030937229
23558518 356 17829042461979217178
23559900 14 18341610357005599898
25 1 18410008823654025270
2748010 2 18336838583714722550
2838139 119 15122932041741941688
3004659 81 18189064119028490902
335352 9 18410575037940964366
350125 39 18408889537785951836
351380 180 18412260648936807857
3545911 37 18409451371290358829
4214541 1 18410856542866323149
474 4 18187367657272458861
495365 180 18130773556086408872
5104073 3 18335705988475832811
6138700 20 18266745688956275286
6333272 397 18410011060973173465
633830 44 18342737416289492053
69090 78 18341610447046821975
7364860 26 18341050705550151702
7808743 9 17977664543912427216
8272917 22 18270967830010948095
9709674 26 18410862053220108959

>  <PUBCHEM_SHAPE_MULTIPOLES>  (1) 
385.14
8.82
2.49
0.66
3.46
0.3
0.01
-3.02
0.32
-1.01
0.13
-0.1
-0.05
0.34

>  <PUBCHEM_SHAPE_SELFOVERLAP>  (1) 
880.769

>  <PUBCHEM_SHAPE_VOLUME>  (1) 
201.8

>  <PUBCHEM_COORDINATE_TYPE>  (1) 
2
5
10

$$$$
