47424
     RDKit          3D

 16 18  0  0  0  0  0  0  0  0999 V2000
    0.5332    3.2165   -0.0003 Cl  0  0  0  0  0  0  0  0  0  0  0  0
    3.5051   -2.2918   -0.0010 Cl  0  0  0  0  0  0  0  0  0  0  0  0
   -4.6810    1.0375    0.0015 Cl  0  0  0  0  0  0  0  0  0  0  0  0
    0.4406   -1.7269    0.0008 O   0  0  0  0  0  0  0  0  0  0  0  0
    0.6154    0.5278   -0.0001 C   0  0  0  0  0  0  0  0  0  0  0  0
   -0.7682    0.1844   -0.0003 C   0  0  0  0  0  0  0  0  0  0  0  0
    1.3097   -0.6780    0.0004 C   0  0  0  0  0  0  0  0  0  0  0  0
   -0.8180   -1.2062    0.0002 C   0  0  0  0  0  0  0  0  0  0  0  0
    1.3546    1.7252   -0.0002 C   0  0  0  0  0  0  0  0  0  0  0  0
   -1.9815    0.8970   -0.0008 C   0  0  0  0  0  0  0  0  0  0  0  0
    2.6997   -0.7798    0.0006 C   0  0  0  0  0  0  0  0  0  0  0  0
   -1.9992   -1.9462    0.0002 C   0  0  0  0  0  0  0  0  0  0  0  0
    2.7542    1.6544    0.0003 C   0  0  0  0  0  0  0  0  0  0  0  0
   -3.1856    0.1801   -0.0012 C   0  0  0  0  0  0  0  0  0  0  0  0
    3.4126    0.4227    0.0004 C   0  0  0  0  0  0  0  0  0  0  0  0
   -3.1915   -1.2167   -0.0004 C   0  0  0  0  0  0  0  0  0  0  0  0
  1  9  1  0
  2 11  1  0
  3 14  1  0
  4  7  1  0
  4  8  1  0
  5  6  1  0
  5  7  2  0
  5  9  1  0
  6  8  2  0
  6 10  1  0
  7 11  1  0
  8 12  1  0
  9 13  2  0
 10 14  2  0
 11 15  2  0
 12 16  2  0
 13 15  1  0
 14 16  1  0
M  END
>  <PUBCHEM_COMPOUND_CID>  (1) 
47424

>  <PUBCHEM_CONFORMER_RMSD>  (1) 
0.4

>  <PUBCHEM_CONFORMER_DIVERSEORDER>  (1) 
1

>  <PUBCHEM_MMFF94_PARTIAL_CHARGES>  (1) 
19
1 -0.18
10 -0.15
11 0.18
12 -0.15
13 -0.15
14 0.18
15 -0.15
16 -0.15
17 0.15
18 0.15
19 0.15
2 -0.18
20 0.15
21 0.15
3 -0.18
4 -0.28
7 0.14
8 0.14
9 0.18

>  <PUBCHEM_EFFECTIVE_ROTOR_COUNT>  (1) 
0

>  <PUBCHEM_PHARMACOPHORE_FEATURES>  (1) 
4
1 4 acceptor
5 4 5 6 7 8 rings
6 5 7 9 11 13 15 rings
6 6 8 10 12 14 16 rings

>  <PUBCHEM_HEAVY_ATOM_COUNT>  (1) 
16

>  <PUBCHEM_ATOM_DEF_STEREO_COUNT>  (1) 
0

>  <PUBCHEM_ATOM_UDEF_STEREO_COUNT>  (1) 
0

>  <PUBCHEM_BOND_DEF_STEREO_COUNT>  (1) 
0

>  <PUBCHEM_BOND_UDEF_STEREO_COUNT>  (1) 
0

>  <PUBCHEM_ISOTOPIC_ATOM_COUNT>  (1) 
0

>  <PUBCHEM_COMPONENT_COUNT>  (1) 
1

>  <PUBCHEM_CACTVS_TAUTO_COUNT>  (1) 
1

>  <PUBCHEM_CONFORMER_ID>  (1) 
0000B94000000001

>  <PUBCHEM_MMFF94_ENERGY>  (1) 
32.4606

>  <PUBCHEM_FEATURE_SELFOVERLAP>  (1) 
20.499

>  <PUBCHEM_SHAPE_FINGERPRINT>  (1) 
10608611 8 18337951319741936105
10967382 1 18410575071794014276
10980938 120 18337673126209722032
11132069 177 18410849966870323601
11471102 20 18410852140392794205
116883 192 18126290740190866678
12032990 46 18410297969194608010
12403259 226 18407754842292469789
12507560 14 18270960141934877735
13140716 1 18410007715426012066
13571099 22 18342458127419492526
14144814 61 18410855503088423395
14178342 30 18052800727267694250
14325111 11 18410855507562745089
14648413 74 18264771149874986592
15042514 8 17544470856872080490
15196674 1 18410855473055307175
15219456 202 18410014368335511035
15442244 35 18411983516187708416
15536298 74 18342738529034278274
16945 1 18122343750928994886
17492 89 18340204201840693351
18186145 218 17894344471354646223
19591789 44 16395788961189106814
200 152 17988916786991346567
20559304 39 18265615557830893032
20645477 70 18413387614069737559
21267235 1 18339370677310114051
21501502 16 18338796831161553047
22094290 62 18411136939658465073
221490 88 18335990877361141091
2334 1 18410856598563669990
23402539 116 18128524982125433375
23402655 69 18342735221930637605
23463225 33 18410292501869798422
23558518 356 17827074318600377299
23559900 14 18342173350262018130
25 1 18335137609082342303
2748010 2 18411416215654007830
335352 9 18338516314025814295
34934 24 18411975880136776138
5104073 3 18410575097880551003
53812653 166 18341328993592453104
5939293 188 18412259575358975408
69090 78 18412539916833162903
7364860 26 18268711791254354600
74978 22 18411136982623994711
7832392 63 18340484559882229004
81228 2 18052270496417214800
8809292 202 18261397723720933651
9709674 26 18337675342202460803
9981440 41 17689989463575864376

>  <PUBCHEM_SHAPE_MULTIPOLES>  (1) 
329.01
6.73
2.81
0.62
3.59
1.04
0
-0.74
0
-1.3
0
0
0.01
0

>  <PUBCHEM_SHAPE_SELFOVERLAP>  (1) 
715.06

>  <PUBCHEM_SHAPE_VOLUME>  (1) 
183.7

>  <PUBCHEM_COORDINATE_TYPE>  (1) 
2
5
10

$$$$
