47445
     RDKit          3D

 24 25  0  0  0  0  0  0  0  0999 V2000
   -5.2183   -1.7925   -1.8246 Cl  0  0  0  0  0  0  0  0  0  0  0  0
    5.7550   -0.1888   -1.6635 F   0  0  0  0  0  0  0  0  0  0  0  0
    7.5382   -0.6189   -0.4758 F   0  0  0  0  0  0  0  0  0  0  0  0
    6.8313    1.4430   -0.6324 F   0  0  0  0  0  0  0  0  0  0  0  0
    5.6439   -0.0602    0.6173 O   0  0  0  0  0  0  0  0  0  0  0  0
   -3.4000   -1.9229    0.7328 O   0  0  0  0  0  0  0  0  0  0  0  0
   -0.6274   -1.7235    0.8141 O   0  0  0  0  0  0  0  0  0  0  0  0
    0.1345    0.4088    0.1892 N   0  0  0  0  0  0  0  0  0  0  0  0
   -2.1210   -0.0462    0.2170 N   0  0  0  0  0  0  0  0  0  0  0  0
    1.5396    0.2889    0.2978 C   0  0  0  0  0  0  0  0  0  0  0  0
    2.3383    1.3801   -0.0026 C   0  0  0  0  0  0  0  0  0  0  0  0
    2.0882   -0.9171    0.7025 C   0  0  0  0  0  0  0  0  0  0  0  0
   -4.5554    0.0170    0.1065 C   0  0  0  0  0  0  0  0  0  0  0  0
    4.2919    0.0545    0.5109 C   0  0  0  0  0  0  0  0  0  0  0  0
    3.7241    1.2621    0.1047 C   0  0  0  0  0  0  0  0  0  0  0  0
    3.4739   -1.0351    0.8100 C   0  0  0  0  0  0  0  0  0  0  0  0
   -3.3360   -0.7378    0.3687 C   0  0  0  0  0  0  0  0  0  0  0  0
   -0.8319   -0.5697    0.4459 C   0  0  0  0  0  0  0  0  0  0  0  0
   -5.4731   -0.3784   -0.8666 C   0  0  0  0  0  0  0  0  0  0  0  0
   -4.7917    1.1652    0.8624 C   0  0  0  0  0  0  0  0  0  0  0  0
   -6.6272    0.3744   -1.0837 C   0  0  0  0  0  0  0  0  0  0  0  0
   -5.9457    1.9181    0.6452 C   0  0  0  0  0  0  0  0  0  0  0  0
   -6.8634    1.5227   -0.3278 C   0  0  0  0  0  0  0  0  0  0  0  0
    6.4322    0.1562   -0.5479 C   0  0  0  0  0  0  0  0  0  0  0  0
  1 19  1  0
  2 24  1  0
  3 24  1  0
  4 24  1  0
  5 14  1  0
  5 24  1  0
  6 17  2  0
  7 18  2  0
  8 10  1  0
  8 18  1  0
  9 17  1  0
  9 18  1  0
 10 11  2  0
 10 12  1  0
 11 15  1  0
 12 16  2  0
 13 17  1  0
 13 19  2  0
 13 20  1  0
 14 15  2  0
 14 16  1  0
 19 21  1  0
 20 22  2  0
 21 23  2  0
 22 23  1  0
M  END
>  <PUBCHEM_COMPOUND_CID>  (1) 
47445

>  <PUBCHEM_CONFORMER_RMSD>  (1) 
0.8

>  <PUBCHEM_CONFORMER_DIVERSEORDER>  (1) 
1
27
39
18
30
25
22
23
35
10
28
15
26
6
31
13
41
36
2
33
32
14
40
29
5
8
4
20
38
37
24
19
34
7
17
12
11
21
3
9
16

>  <PUBCHEM_MMFF94_PARTIAL_CHARGES>  (1) 
34
1 -0.18
10 0.12
11 -0.15
12 -0.15
13 0.09
14 0.08
15 -0.15
16 -0.15
17 0.54
18 0.69
19 0.18
2 -0.34
20 -0.15
21 -0.15
22 -0.15
23 -0.15
24 1.3
25 0.15
26 0.15
27 0.37
28 0.15
29 0.15
3 -0.34
30 0.15
31 0.37
32 0.15
33 0.15
34 0.15
4 -0.34
5 -0.36
6 -0.57
7 -0.57
8 -0.55
9 -0.49

>  <PUBCHEM_EFFECTIVE_ROTOR_COUNT>  (1) 
7

>  <PUBCHEM_PHARMACOPHORE_FEATURES>  (1) 
7
1 5 acceptor
1 6 acceptor
1 7 acceptor
1 8 donor
1 9 donor
6 10 11 12 14 15 16 rings
6 13 19 20 21 22 23 rings

>  <PUBCHEM_HEAVY_ATOM_COUNT>  (1) 
24

>  <PUBCHEM_ATOM_DEF_STEREO_COUNT>  (1) 
0

>  <PUBCHEM_ATOM_UDEF_STEREO_COUNT>  (1) 
0

>  <PUBCHEM_BOND_DEF_STEREO_COUNT>  (1) 
0

>  <PUBCHEM_BOND_UDEF_STEREO_COUNT>  (1) 
0

>  <PUBCHEM_ISOTOPIC_ATOM_COUNT>  (1) 
0

>  <PUBCHEM_COMPONENT_COUNT>  (1) 
1

>  <PUBCHEM_CACTVS_TAUTO_COUNT>  (1) 
5

>  <PUBCHEM_CONFORMER_ID>  (1) 
0000B95500000001

>  <PUBCHEM_MMFF94_ENERGY>  (1) 
76.137

>  <PUBCHEM_FEATURE_SELFOVERLAP>  (1) 
35.576

>  <PUBCHEM_SHAPE_FINGERPRINT>  (1) 
10 15 14273459175662995937
10066227 112 17676488375693709204
10670039 82 18341892953364686929
10906281 52 18114758069990692698
11089746 13 18412541028702256489
11315181 36 17632860849841679065
11724838 91 10952044551326685320
12091667 2 18413390947470410531
12166972 35 13686292491483064090
12236239 1 18272366481815669802
13288520 33 10159694703936719001
13668630 136 16845574227121175471
13782708 43 13614248061809807412
14251752 14 17561361772844423157
14251764 18 17894348886976418819
14933364 13 13912322378238675876
15064981 113 17487885715114352453
15183329 4 18410571773317296369
15706992 2 13262694638615677550
1577012 14 18410851019997115337
16992828 155 18121218685096400733
17780758 139 11097855182211625791
17834072 8 18410855464428403849
18681886 176 17988635332856391906
19377110 9 9799699190026887661
19489759 90 17561363981154017009
20281389 69 17603580824628313157
21095123 145 15213316230491831601
21150785 3 18060136552525272518
21709351 56 18343015627565934549
22224240 67 13406796631861007473
23081809 10 18261103071657951947
23198884 109 18343300371197315129
23402539 116 18273208712376345865
23559900 14 18339639061321530496
29717793 49 18060140946857272764
3004659 81 18413385440874197680
328310 630 17749678475261114965
3545911 37 18333731321184269705
3663271 9 10809334538251609212
4073 2 17822296824619310122
4340502 62 13767925715740257712
4938544 92 10953724588004443375
5104073 3 17895188964946129689
5969126 39 13398632723765136067
59755656 215 18271810081845740886
59755656 520 17749105604476747243
6328613 192 18259990409167499452
9953998 17 11674879983774552117

>  <PUBCHEM_SHAPE_MULTIPOLES>  (1) 
446.39
21.79
1.7
1.14
11.25
0.04
0.29
-4.47
7.17
-2.2
0.02
-0.31
0.35
-1.19

>  <PUBCHEM_SHAPE_SELFOVERLAP>  (1) 
949.541

>  <PUBCHEM_SHAPE_VOLUME>  (1) 
248

>  <PUBCHEM_COORDINATE_TYPE>  (1) 
2
5
10

$$$$
