47443
     RDKit          3D

 21 25  0  0  1  0  0  0  0  0999 V2000
    3.1709    2.1628    0.6209 O   0  0  0  0  0  0  0  0  0  0  0  0
    4.1980   -0.0548    1.7483 O   0  0  0  0  0  0  0  0  0  0  0  0
    3.5297   -1.4606   -1.5510 O   0  0  0  0  0  0  0  0  0  0  0  0
    3.9205    1.2886   -0.2318 C   0  0  0  0  0  0  0  0  0  0  0  0
    2.4903    1.6671   -0.5414 C   0  0  0  0  0  0  0  0  0  0  0  0
    4.2086   -0.0776    0.3208 C   0  0  0  0  0  0  0  0  0  0  0  0
    1.4255    0.6295   -0.3232 C   0  0  0  0  0  0  0  0  0  0  0  0
    3.2239   -1.1450   -0.1938 C   0  0  0  0  0  0  0  0  0  0  0  0
    1.7713   -0.7192   -0.1468 C   0  0  0  0  0  0  0  0  0  0  0  0
    0.0629    0.9791   -0.2856 C   0  0  0  0  0  0  0  0  0  0  0  0
    0.7662   -1.6754    0.0374 C   0  0  0  0  0  0  0  0  0  0  0  0
   -0.9793    0.0368   -0.0895 C   0  0  0  0  0  0  0  0  0  0  0  0
   -0.5902   -1.3149    0.0707 C   0  0  0  0  0  0  0  0  0  0  0  0
   -2.3792    0.3744   -0.0486 C   0  0  0  0  0  0  0  0  0  0  0  0
   -1.5597   -2.3027    0.2636 C   0  0  0  0  0  0  0  0  0  0  0  0
   -3.3348   -0.6561    0.1500 C   0  0  0  0  0  0  0  0  0  0  0  0
   -2.9116   -1.9784    0.3028 C   0  0  0  0  0  0  0  0  0  0  0  0
   -2.8856    1.6904   -0.1952 C   0  0  0  0  0  0  0  0  0  0  0  0
   -4.7080   -0.3603    0.1947 C   0  0  0  0  0  0  0  0  0  0  0  0
   -4.2539    1.9711   -0.1485 C   0  0  0  0  0  0  0  0  0  0  0  0
   -5.1654    0.9452    0.0463 C   0  0  0  0  0  0  0  0  0  0  0  0
  1  4  1  0
  1  5  1  0
  2  6  1  0
  3  8  1  0
  4  5  1  0
  4  6  1  0
  5  7  1  0
  6  8  1  0
  7  9  2  0
  7 10  1  0
  8  9  1  0
  9 11  1  0
 10 12  2  0
 11 13  2  0
 12 13  1  0
 12 14  1  0
 13 15  1  0
 14 16  2  0
 14 18  1  0
 15 17  2  0
 16 17  1  0
 16 19  1  0
 18 20  2  0
 19 21  2  0
 20 21  1  0
M  END
>  <PUBCHEM_COMPOUND_CID>  (1) 
47443

>  <PUBCHEM_CONFORMER_RMSD>  (1) 
0.6

>  <PUBCHEM_CONFORMER_DIVERSEORDER>  (1) 
1
2

>  <PUBCHEM_MMFF94_PARTIAL_CHARGES>  (1) 
29
1 -0.3
10 -0.15
11 -0.15
15 -0.15
17 -0.15
18 -0.15
19 -0.15
2 -0.68
20 -0.15
21 -0.15
22 0.1
23 0.1
26 0.15
27 0.15
28 0.4
29 0.4
3 -0.68
30 0.15
31 0.15
32 0.15
33 0.15
34 0.15
35 0.15
4 -0.05
5 0.08
6 0.38
7 -0.03
8 0.42
9 -0.14

>  <PUBCHEM_EFFECTIVE_ROTOR_COUNT>  (1) 
0.6

>  <PUBCHEM_PHARMACOPHORE_FEATURES>  (1) 
9
1 1 acceptor
1 2 acceptor
1 2 donor
1 3 acceptor
1 3 donor
6 12 13 14 15 16 17 rings
6 14 16 18 19 20 21 rings
6 7 9 10 11 12 13 rings
7 1 4 5 6 7 8 9 rings

>  <PUBCHEM_HEAVY_ATOM_COUNT>  (1) 
21

>  <PUBCHEM_ATOM_DEF_STEREO_COUNT>  (1) 
4

>  <PUBCHEM_ATOM_UDEF_STEREO_COUNT>  (1) 
0

>  <PUBCHEM_BOND_DEF_STEREO_COUNT>  (1) 
0

>  <PUBCHEM_BOND_UDEF_STEREO_COUNT>  (1) 
0

>  <PUBCHEM_ISOTOPIC_ATOM_COUNT>  (1) 
0

>  <PUBCHEM_COMPONENT_COUNT>  (1) 
1

>  <PUBCHEM_CACTVS_TAUTO_COUNT>  (1) 
1

>  <PUBCHEM_CONFORMER_ID>  (1) 
0000B95300000001

>  <PUBCHEM_MMFF94_ENERGY>  (1) 
66.5429

>  <PUBCHEM_FEATURE_SELFOVERLAP>  (1) 
45.736

>  <PUBCHEM_SHAPE_FINGERPRINT>  (1) 
10319926 262 18338220657626378834
10411042 1 16751839440090274643
10608611 8 18411420643485780029
10616163 171 18193282007633004094
10646746 165 18409449206431571852
10967382 1 18337111172361587893
1100329 8 16897929358768534625
11132069 177 18411138030611793711
11370993 70 18411134727797760851
11405975 8 18335420175033584930
11578080 2 16915084364576918755
11595378 159 17022894614985531453
12107183 9 17900812765069186304
12173636 292 18409729582218668391
12236239 1 17385727989169215782
12403259 415 18341334465201634960
12403814 3 17603580825187177365
12592029 89 18260268503962503771
12633257 1 18261381248526819624
13140716 1 18335134315122066266
13224815 77 18260833734284855423
13544592 145 18340496555963614742
13583140 156 16916493865210774622
13675066 3 18272088305252613935
138480 1 17688871930508212011
14866123 147 16975349297180815538
15196674 1 18409451401391981695
15256400 18 18409448046690402517
15375358 24 18342176665507298311
15536298 74 18413111653719816751
16945 1 18335701581370108782
17349148 13 18412818092699827789
17492 89 18335987583216664322
1813 80 16588024610619941540
18186145 218 18271253715818610901
200 152 17846777404114780663
20510252 161 18341056297919012947
20645477 56 18409169922130885733
20645477 70 17489315135548012942
20715895 44 18191861237348360885
21065198 57 18409731780804060610
21267235 1 18336275590832792091
21279426 13 18122909732944548980
21421861 104 17749940052181805666
21859007 373 17606374606618776173
23227448 37 18412261766066181079
23402539 116 18411410731423804805
23558518 356 17899698148051797281
23559900 14 18343304726173152414
2748010 2 18337964475052664734
3004659 81 18116165368325107382
335352 9 18337391522220657518
351380 180 18412260627741520261
3545911 37 18412831295455870868
3680242 22 18263081024356487329
4214541 1 18409450288916428165
474 4 17604153738990205396
495365 180 17632289086589005186
5104073 3 18335986449550137249
633830 44 18341611473844446087
69090 78 18411698798837977223
9709674 26 18339930401811687535
9981440 41 16960988012737765905

>  <PUBCHEM_SHAPE_MULTIPOLES>  (1) 
414.56
9.93
2.32
0.86
2
0.1
0.06
-2.81
0.86
0.55
-0.04
-0.88
0.08
0.51

>  <PUBCHEM_SHAPE_SELFOVERLAP>  (1) 
945.384

>  <PUBCHEM_SHAPE_VOLUME>  (1) 
215.3

>  <PUBCHEM_COORDINATE_TYPE>  (1) 
2
5
10

$$$$
