47446
     RDKit          3D

 19 20  0  0  0  0  0  0  0  0999 V2000
    4.2211   -1.8937   -0.6094 Cl  0  0  0  0  0  0  0  0  0  0  0  0
    2.2990    3.2218   -0.2620 Cl  0  0  0  0  0  0  0  0  0  0  0  0
    4.6532    1.2160   -1.0495 Cl  0  0  0  0  0  0  0  0  0  0  0  0
   -2.4559    0.8675    2.6767 Cl  0  0  0  0  0  0  0  0  0  0  0  0
   -5.2948    0.3991   -1.8768 Cl  0  0  0  0  0  0  0  0  0  0  0  0
   -0.4228   -0.7718    1.1878 O   0  0  0  0  0  0  0  0  0  0  0  0
    1.5619   -2.6118    0.5370 N   0  0  0  0  0  0  0  0  0  0  0  0
    0.7586   -0.3320    0.6690 C   0  0  0  0  0  0  0  0  0  0  0  0
    1.7736   -1.2272    0.3315 C   0  0  0  0  0  0  0  0  0  0  0  0
   -1.5791   -0.4839    0.4843 C   0  0  0  0  0  0  0  0  0  0  0  0
    0.9440    1.0372    0.4769 C   0  0  0  0  0  0  0  0  0  0  0  0
    2.9739   -0.7534   -0.1981 C   0  0  0  0  0  0  0  0  0  0  0  0
    2.1443    1.5110   -0.0527 C   0  0  0  0  0  0  0  0  0  0  0  0
    3.1592    0.6156   -0.3902 C   0  0  0  0  0  0  0  0  0  0  0  0
   -2.5882    0.2645    1.0657 C   0  0  0  0  0  0  0  0  0  0  0  0
   -1.6902   -0.9665   -0.8092 C   0  0  0  0  0  0  0  0  0  0  0  0
   -3.7426    0.5389    0.3326 C   0  0  0  0  0  0  0  0  0  0  0  0
   -2.8446   -0.6921   -1.5423 C   0  0  0  0  0  0  0  0  0  0  0  0
   -3.8708    0.0607   -0.9714 C   0  0  0  0  0  0  0  0  0  0  0  0
  1 12  1  0
  2 13  1  0
  3 14  1  0
  4 15  1  0
  5 19  1  0
  6  8  1  0
  6 10  1  0
  7  9  1  0
  8  9  2  0
  8 11  1  0
  9 12  1  0
 10 15  2  0
 10 16  1  0
 11 13  2  0
 12 14  2  0
 13 14  1  0
 15 17  1  0
 16 18  2  0
 17 19  2  0
 18 19  1  0
M  END
>  <PUBCHEM_COMPOUND_CID>  (1) 
47446

>  <PUBCHEM_CONFORMER_RMSD>  (1) 
0.6

>  <PUBCHEM_CONFORMER_DIVERSEORDER>  (1) 
2
11
10
6
13
3
8
7
5
4
9
1
12
14

>  <PUBCHEM_MMFF94_PARTIAL_CHARGES>  (1) 
25
1 -0.18
10 0.08
11 -0.15
12 0.18
13 0.18
14 0.18
15 0.18
16 -0.15
17 -0.15
18 -0.15
19 0.18
2 -0.18
20 0.15
21 0.15
22 0.15
23 0.15
24 0.4
25 0.4
3 -0.18
4 -0.18
5 -0.18
6 -0.17
7 -0.9
8 0.08
9 0.1

>  <PUBCHEM_EFFECTIVE_ROTOR_COUNT>  (1) 
2

>  <PUBCHEM_PHARMACOPHORE_FEATURES>  (1) 
5
1 6 acceptor
1 7 cation
1 7 donor
6 10 15 16 17 18 19 rings
6 8 9 11 12 13 14 rings

>  <PUBCHEM_HEAVY_ATOM_COUNT>  (1) 
19

>  <PUBCHEM_ATOM_DEF_STEREO_COUNT>  (1) 
0

>  <PUBCHEM_ATOM_UDEF_STEREO_COUNT>  (1) 
0

>  <PUBCHEM_BOND_DEF_STEREO_COUNT>  (1) 
0

>  <PUBCHEM_BOND_UDEF_STEREO_COUNT>  (1) 
0

>  <PUBCHEM_ISOTOPIC_ATOM_COUNT>  (1) 
0

>  <PUBCHEM_COMPONENT_COUNT>  (1) 
1

>  <PUBCHEM_CACTVS_TAUTO_COUNT>  (1) 
1

>  <PUBCHEM_CONFORMER_ID>  (1) 
0000B95600000002

>  <PUBCHEM_MMFF94_ENERGY>  (1) 
67.6497

>  <PUBCHEM_FEATURE_SELFOVERLAP>  (1) 
25.371

>  <PUBCHEM_SHAPE_FINGERPRINT>  (1) 
10366900 7 17603585188615499999
11471102 20 18335138683177581182
11543360 7 18263346106297778999
11796584 16 14906801985657083636
12236239 1 18060143107172822035
12553582 1 18193006924143052202
12654215 9 18113054922437241330
12730499 353 17967532359509857699
13009979 54 17774727450212165155
13134695 92 18335421236449643636
13764800 53 16153707609501760333
14115302 16 17703495667111630167
14250199 8 18411138069082103949
15210252 30 17530683191159973868
16752209 62 17060332999202102111
16945 1 18335424551858480098
1813 80 17982453698677521366
18186145 218 18113904853178122674
18219364 16 17968951892875958009
19862831 5 18131348652418326693
200 152 18060696187222857491
20600515 1 15553323588611914418
20612939 158 18408325471599761862
20645476 183 18201433718491358047
20645477 70 18334300838164168746
21033648 29 17531246200941963597
21639500 275 18336549403719449328
221357 26 18262508200706217405
22289505 5 18115573851620378221
22892500 29 18260821609782083276
231179 274 17822009834993962536
23402539 116 16702013133382961049
23402655 69 18410570682506431469
23557571 272 17023191582077648513
23559900 14 15410900643499366312
23598291 2 18059021570610016322
25 1 18260552242450074554
3009799 131 18113896010647770022
3060560 45 18410285913527415606
3082319 5 18060419135777599129
350125 39 17901686065333558626
474 4 18337106881800379816
495365 180 17168686562825713411
6049 1 17531828937809341057
7471813 234 17846490422579072816
7615 1 17846506936538201144
77492 1 17988651765417181562
7808743 9 14996290197263950183
81228 2 15731738952296601186
9971528 1 18342734088386130458
9981440 41 17551778649004758216

>  <PUBCHEM_SHAPE_MULTIPOLES>  (1) 
389.51
9.34
2.27
1.72
2.9
0.69
-0.52
0.66
4.94
-3.15
0.08
2.36
0.33
-1

>  <PUBCHEM_SHAPE_SELFOVERLAP>  (1) 
796.768

>  <PUBCHEM_SHAPE_VOLUME>  (1) 
230.2

>  <PUBCHEM_COORDINATE_TYPE>  (1) 
2
5
10

$$$$
