47441
     RDKit          3D

 21 25  0  0  1  0  0  0  0  0999 V2000
   -2.1733    2.2960    0.5505 O   0  0  0  0  0  0  0  0  0  0  0  0
   -3.9731    0.7020    1.7278 O   0  0  0  0  0  0  0  0  0  0  0  0
   -4.0001   -0.8872   -1.5524 O   0  0  0  0  0  0  0  0  0  0  0  0
   -3.2060    1.7585   -0.2835 C   0  0  0  0  0  0  0  0  0  0  0  0
   -1.7445    1.5006   -0.5645 C   0  0  0  0  0  0  0  0  0  0  0  0
   -4.0318    0.6537    0.3032 C   0  0  0  0  0  0  0  0  0  0  0  0
   -1.1806    0.1319   -0.2560 C   0  0  0  0  0  0  0  0  0  0  0  0
   -3.5776   -0.7294   -0.1971 C   0  0  0  0  0  0  0  0  0  0  0  0
   -2.0788   -0.9500   -0.0851 C   0  0  0  0  0  0  0  0  0  0  0  0
    0.2187   -0.1059   -0.1316 C   0  0  0  0  0  0  0  0  0  0  0  0
   -1.5960   -2.2380    0.1631 C   0  0  0  0  0  0  0  0  0  0  0  0
    0.6863   -1.4158    0.1321 C   0  0  0  0  0  0  0  0  0  0  0  0
   -0.2286   -2.4661    0.2710 C   0  0  0  0  0  0  0  0  0  0  0  0
    1.1809    0.9204   -0.2591 C   0  0  0  0  0  0  0  0  0  0  0  0
    2.0648   -1.6615    0.2528 C   0  0  0  0  0  0  0  0  0  0  0  0
    2.5610    0.6780   -0.1372 C   0  0  0  0  0  0  0  0  0  0  0  0
    3.0087   -0.6322    0.1218 C   0  0  0  0  0  0  0  0  0  0  0  0
    3.5038    1.7119   -0.2674 C   0  0  0  0  0  0  0  0  0  0  0  0
    4.3868   -0.8785    0.2435 C   0  0  0  0  0  0  0  0  0  0  0  0
    4.8690    1.4529   -0.1435 C   0  0  0  0  0  0  0  0  0  0  0  0
    5.3102    0.1587    0.1116 C   0  0  0  0  0  0  0  0  0  0  0  0
  1  4  1  0
  1  5  1  0
  2  6  1  0
  3  8  1  0
  4  5  1  0
  4  6  1  0
  5  7  1  0
  6  8  1  0
  7  9  2  0
  7 10  1  0
  8  9  1  0
  9 11  1  0
 10 12  2  0
 10 14  1  0
 11 13  2  0
 12 13  1  0
 12 15  1  0
 14 16  2  0
 15 17  2  0
 16 17  1  0
 16 18  1  0
 17 19  1  0
 18 20  2  0
 19 21  2  0
 20 21  1  0
M  END
>  <PUBCHEM_COMPOUND_CID>  (1) 
47441

>  <PUBCHEM_CONFORMER_RMSD>  (1) 
0.6

>  <PUBCHEM_CONFORMER_DIVERSEORDER>  (1) 
1
2

>  <PUBCHEM_MMFF94_PARTIAL_CHARGES>  (1) 
29
1 -0.3
11 -0.15
13 -0.15
14 -0.15
15 -0.15
18 -0.15
19 -0.15
2 -0.68
20 -0.15
21 -0.15
22 0.1
23 0.1
26 0.15
27 0.4
28 0.15
29 0.15
3 -0.68
30 0.4
31 0.15
32 0.15
33 0.15
34 0.15
35 0.15
4 -0.05
5 0.08
6 0.38
7 -0.03
8 0.42
9 -0.14

>  <PUBCHEM_EFFECTIVE_ROTOR_COUNT>  (1) 
0.6

>  <PUBCHEM_PHARMACOPHORE_FEATURES>  (1) 
9
1 1 acceptor
1 2 acceptor
1 2 donor
1 3 acceptor
1 3 donor
6 10 12 14 15 16 17 rings
6 16 17 18 19 20 21 rings
6 7 9 10 11 12 13 rings
7 1 4 5 6 7 8 9 rings

>  <PUBCHEM_HEAVY_ATOM_COUNT>  (1) 
21

>  <PUBCHEM_ATOM_DEF_STEREO_COUNT>  (1) 
3

>  <PUBCHEM_ATOM_UDEF_STEREO_COUNT>  (1) 
1

>  <PUBCHEM_BOND_DEF_STEREO_COUNT>  (1) 
0

>  <PUBCHEM_BOND_UDEF_STEREO_COUNT>  (1) 
0

>  <PUBCHEM_ISOTOPIC_ATOM_COUNT>  (1) 
0

>  <PUBCHEM_COMPONENT_COUNT>  (1) 
1

>  <PUBCHEM_CACTVS_TAUTO_COUNT>  (1) 
1

>  <PUBCHEM_CONFORMER_ID>  (1) 
0000B95100000001

>  <PUBCHEM_MMFF94_ENERGY>  (1) 
64.6061

>  <PUBCHEM_FEATURE_SELFOVERLAP>  (1) 
45.739

>  <PUBCHEM_SHAPE_FINGERPRINT>  (1) 
10411042 1 17616818072859969930
10616163 171 18338518650662434166
10646746 165 18411139147640770940
10967382 1 18408603634840110910
12107183 9 17761489197507294280
12236239 1 18273494568230196135
12390115 104 18198922334880341529
12403814 3 17822005411003607173
12670546 56 18411973689661302628
13140716 1 18119538888213384337
13224815 77 18335421257365291197
13583140 156 16588014732168805881
138480 1 17616530662396458394
14787075 74 18341891917765319721
14790565 3 18410863122545743809
15042514 8 18191592058536023115
15196674 1 18409165502219128558
15209289 33 18413669123379442289
15209294 21 18272940388325862273
15309172 13 18335424534636393179
15442244 35 18336541600122737434
15536298 74 18412545384279025470
16945 1 18335703823454008367
17349148 13 18335689568383420766
18186145 218 18342461391905847990
19591789 44 18191304884348109478
200 152 18341038688452807645
20300324 65 18130783499304970703
20510252 161 18413672417582389793
20775438 99 15682749709564043343
21033648 29 17822556279019274941
21267235 1 18408611369934130470
21524375 3 18411980264982238070
21623110 236 18265055902117777509
23227448 37 18410856585457157422
23402539 116 18341323457247564589
23559900 14 18343582907337214846
335352 9 18336826378140302102
350125 39 18408886230592653005
3545911 37 18410858763554247828
4214541 1 18409728461152965532
474 4 17531531000850823172
5104073 3 18335700589712582194
633830 44 18270401589948937583
69090 78 18410289233410352662
9709674 26 18413112757885614814

>  <PUBCHEM_SHAPE_MULTIPOLES>  (1) 
414.56
9.62
2.36
0.86
5.53
0.32
-0.06
-2.9
-0.31
-0.51
-0.1
-0.84
-0.06
-0.59

>  <PUBCHEM_SHAPE_SELFOVERLAP>  (1) 
946.363

>  <PUBCHEM_SHAPE_VOLUME>  (1) 
215.2

>  <PUBCHEM_COORDINATE_TYPE>  (1) 
2
5
10

$$$$
