47442
     RDKit          3D

 21 25  0  0  1  0  0  0  0  0999 V2000
    3.4817    1.6819   -1.0987 O   0  0  0  0  0  0  0  0  0  0  0  0
    4.2035   -0.2634    1.9322 O   0  0  0  0  0  0  0  0  0  0  0  0
    3.5450   -1.2538   -1.4991 O   0  0  0  0  0  0  0  0  0  0  0  0
    3.8847    1.3710    0.2377 C   0  0  0  0  0  0  0  0  0  0  0  0
    2.4681    1.7724   -0.0763 C   0  0  0  0  0  0  0  0  0  0  0  0
    4.1970   -0.0677    0.5163 C   0  0  0  0  0  0  0  0  0  0  0  0
    1.4101    0.7017   -0.0557 C   0  0  0  0  0  0  0  0  0  0  0  0
    3.2177   -1.0723   -0.1218 C   0  0  0  0  0  0  0  0  0  0  0  0
    1.7622   -0.6577   -0.0544 C   0  0  0  0  0  0  0  0  0  0  0  0
    0.0412    1.0314   -0.0306 C   0  0  0  0  0  0  0  0  0  0  0  0
    0.7607   -1.6363   -0.0430 C   0  0  0  0  0  0  0  0  0  0  0  0
   -0.9977    0.0651   -0.0081 C   0  0  0  0  0  0  0  0  0  0  0  0
   -0.5998   -1.2929   -0.0158 C   0  0  0  0  0  0  0  0  0  0  0  0
   -2.4021    0.3853    0.0198 C   0  0  0  0  0  0  0  0  0  0  0  0
   -1.5643   -2.3041    0.0013 C   0  0  0  0  0  0  0  0  0  0  0  0
   -3.3528   -0.6687    0.0378 C   0  0  0  0  0  0  0  0  0  0  0  0
   -2.9205   -1.9967    0.0280 C   0  0  0  0  0  0  0  0  0  0  0  0
   -2.9179    1.7057    0.0310 C   0  0  0  0  0  0  0  0  0  0  0  0
   -4.7301   -0.3904    0.0654 C   0  0  0  0  0  0  0  0  0  0  0  0
   -4.2903    1.9689    0.0584 C   0  0  0  0  0  0  0  0  0  0  0  0
   -5.1967    0.9204    0.0757 C   0  0  0  0  0  0  0  0  0  0  0  0
  1  4  1  0
  1  5  1  0
  2  6  1  0
  3  8  1  0
  4  5  1  0
  4  6  1  0
  5  7  1  0
  6  8  1  0
  7  9  2  0
  7 10  1  0
  8  9  1  0
  9 11  1  0
 10 12  2  0
 11 13  2  0
 12 13  1  0
 12 14  1  0
 13 15  1  0
 14 16  2  0
 14 18  1  0
 15 17  2  0
 16 17  1  0
 16 19  1  0
 18 20  2  0
 19 21  2  0
 20 21  1  0
M  END
>  <PUBCHEM_COMPOUND_CID>  (1) 
47442

>  <PUBCHEM_CONFORMER_RMSD>  (1) 
0.6

>  <PUBCHEM_CONFORMER_DIVERSEORDER>  (1) 
1
2

>  <PUBCHEM_MMFF94_PARTIAL_CHARGES>  (1) 
29
1 -0.3
10 -0.15
11 -0.15
15 -0.15
17 -0.15
18 -0.15
19 -0.15
2 -0.68
20 -0.15
21 -0.15
22 0.1
23 0.1
26 0.15
27 0.15
28 0.4
29 0.4
3 -0.68
30 0.15
31 0.15
32 0.15
33 0.15
34 0.15
35 0.15
4 -0.05
5 0.08
6 0.38
7 -0.03
8 0.42
9 -0.14

>  <PUBCHEM_EFFECTIVE_ROTOR_COUNT>  (1) 
0.6

>  <PUBCHEM_PHARMACOPHORE_FEATURES>  (1) 
9
1 1 acceptor
1 2 acceptor
1 2 donor
1 3 acceptor
1 3 donor
6 12 13 14 15 16 17 rings
6 14 16 18 19 20 21 rings
6 7 9 10 11 12 13 rings
7 1 4 5 6 7 8 9 rings

>  <PUBCHEM_HEAVY_ATOM_COUNT>  (1) 
21

>  <PUBCHEM_ATOM_DEF_STEREO_COUNT>  (1) 
4

>  <PUBCHEM_ATOM_UDEF_STEREO_COUNT>  (1) 
0

>  <PUBCHEM_BOND_DEF_STEREO_COUNT>  (1) 
0

>  <PUBCHEM_BOND_UDEF_STEREO_COUNT>  (1) 
0

>  <PUBCHEM_ISOTOPIC_ATOM_COUNT>  (1) 
0

>  <PUBCHEM_COMPONENT_COUNT>  (1) 
1

>  <PUBCHEM_CACTVS_TAUTO_COUNT>  (1) 
1

>  <PUBCHEM_CONFORMER_ID>  (1) 
0000B95200000001

>  <PUBCHEM_MMFF94_ENERGY>  (1) 
66.2989

>  <PUBCHEM_FEATURE_SELFOVERLAP>  (1) 
45.729

>  <PUBCHEM_SHAPE_FINGERPRINT>  (1) 
10062212 137 18337099163691355907
10411042 1 16752968634252837979
10608611 8 18412545448212904877
10616163 171 18266745872695181719
10646746 165 18411138051980998774
10967382 1 18410857616402230477
11132069 177 18413106156356902051
11370993 70 18412542098391660567
11578080 2 16700037491086532211
12107183 9 17973996250360621320
12173636 292 18411698807464815959
12236239 1 17894630366189937834
12403814 3 17822004316177219877
12592029 89 18261957353833349683
12633257 1 18260820488874694456
12788726 201 17901947778844721250
12916748 109 18411423903951364273
13140716 1 18335978744336544642
13224815 77 18260835933281711259
13544592 145 18271535182443114974
13583140 156 16844999216841837198
13675066 3 18202560683133026834
138480 1 17689998929958330855
14790565 3 18269564853839083457
14866123 147 16977040358906980458
15196674 1 18410857672468926895
15256400 18 18339360760235642529
15375358 24 18272651246700646215
15442244 35 18408884014616030810
15536298 74 18343023276412045750
16945 1 18335699382415392494
17349148 13 18342729711102338264
17492 89 18336830904334932906
17980427 23 18126261242772605156
1813 80 16877944923263911324
18186145 218 18336546027643013717
200 152 17704068495748002559
20510252 161 18343026605597152409
20645477 56 18411420630959665201
20645477 70 17131841919446710438
20715895 44 18047744906800784709
21267235 1 18409739460242632523
21421861 104 17895462619394016578
21859007 373 17679558096205353773
23227448 37 18412262865598836431
23402539 116 18341884208810655053
23558518 356 17828483900939059921
23559900 14 18272092652303148494
2838139 119 17097187495426253853
335352 9 18338518521628552422
3545911 37 18342742922527385220
3680242 22 18335701572669158115
4214541 1 18410575089322198981
474 4 17386574703158830188
495365 180 17346309402181123274
5104073 3 18335984254769172921
633830 44 18260830409943615551
69090 78 18413386544891620103
77779 3 18410577296856150965
9709674 26 18341336681468050327
9981440 41 17106786553084105128

>  <PUBCHEM_SHAPE_MULTIPOLES>  (1) 
414.56
10.05
2.26
0.88
1.94
0.17
0.09
-2.81
0.79
0.75
-0.18
-1.04
0.06
-0.03

>  <PUBCHEM_SHAPE_SELFOVERLAP>  (1) 
945.26

>  <PUBCHEM_SHAPE_VOLUME>  (1) 
215.6

>  <PUBCHEM_COORDINATE_TYPE>  (1) 
2
5
10

$$$$
