47459
     RDKit          3D

 16 18  0  0  0  0  0  0  0  0999 V2000
   -0.1023    1.9414   -1.2124 O   0  0  0  0  0  0  0  0  0  0  0  0
   -2.7905   -0.1358    0.0899 N   0  0  0  0  0  0  0  0  0  0  0  0
   -0.1508   -0.1295    0.0821 C   0  0  0  0  0  0  0  0  0  0  0  0
   -2.2739   -1.3551   -0.6740 C   0  0  0  0  0  0  0  0  0  0  0  0
   -2.2671   -0.2025    1.5244 C   0  0  0  0  0  0  0  0  0  0  0  0
   -0.7409   -1.3542   -0.6632 C   0  0  0  0  0  0  0  0  0  0  0  0
   -0.7383   -0.1191    1.5161 C   0  0  0  0  0  0  0  0  0  0  0  0
   -2.2726    1.1392   -0.5869 C   0  0  0  0  0  0  0  0  0  0  0  0
   -0.7632    1.0791   -0.6400 C   0  0  0  0  0  0  0  0  0  0  0  0
   -4.3099   -0.1329    0.0940 C   0  0  0  0  0  0  0  0  0  0  0  0
    1.3373   -0.1255    0.0803 C   0  0  0  0  0  0  0  0  0  0  0  0
    2.0361    0.9313    0.6678 C   0  0  0  0  0  0  0  0  0  0  0  0
    2.0400   -1.1785   -0.5092 C   0  0  0  0  0  0  0  0  0  0  0  0
    3.4309    0.9350    0.6658 C   0  0  0  0  0  0  0  0  0  0  0  0
    3.4349   -1.1749   -0.5111 C   0  0  0  0  0  0  0  0  0  0  0  0
    4.1303   -0.1182    0.0765 C   0  0  0  0  0  0  0  0  0  0  0  0
  1  9  2  0
  2  4  1  0
  2  5  1  0
  2  8  1  0
  2 10  1  0
  3  6  1  0
  3  7  1  0
  3  9  1  0
  3 11  1  0
  4  6  1  0
  5  7  1  0
  8  9  1  0
 11 12  2  0
 11 13  1  0
 12 14  1  0
 13 15  2  0
 14 16  2  0
 15 16  1  0
M  CHG  1   2   1
M  END
>  <PUBCHEM_COMPOUND_CID>  (1) 
47459

>  <PUBCHEM_CONFORMER_RMSD>  (1) 
0.6

>  <PUBCHEM_CONFORMER_DIVERSEORDER>  (1) 
1
2

>  <PUBCHEM_MMFF94_PARTIAL_CHARGES>  (1) 
19
1 -0.57
10 0.5
11 -0.14
12 -0.15
13 -0.15
14 -0.15
15 -0.15
16 -0.15
2 -1.01
3 0.2
30 0.15
31 0.15
32 0.15
33 0.15
34 0.15
4 0.5
5 0.5
8 0.56
9 0.45

>  <PUBCHEM_EFFECTIVE_ROTOR_COUNT>  (1) 
2

>  <PUBCHEM_PHARMACOPHORE_FEATURES>  (1) 
4
1 1 acceptor
1 2 cation
6 11 12 13 14 15 16 rings
8 2 3 4 5 6 7 8 9 rings

>  <PUBCHEM_HEAVY_ATOM_COUNT>  (1) 
16

>  <PUBCHEM_ATOM_DEF_STEREO_COUNT>  (1) 
0

>  <PUBCHEM_ATOM_UDEF_STEREO_COUNT>  (1) 
0

>  <PUBCHEM_BOND_DEF_STEREO_COUNT>  (1) 
0

>  <PUBCHEM_BOND_UDEF_STEREO_COUNT>  (1) 
0

>  <PUBCHEM_ISOTOPIC_ATOM_COUNT>  (1) 
0

>  <PUBCHEM_COMPONENT_COUNT>  (1) 
1

>  <PUBCHEM_CACTVS_TAUTO_COUNT>  (1) 
2

>  <PUBCHEM_CONFORMER_ID>  (1) 
0000B96300000001

>  <PUBCHEM_MMFF94_ENERGY>  (1) 
58.4543

>  <PUBCHEM_FEATURE_SELFOVERLAP>  (1) 
20.297

>  <PUBCHEM_SHAPE_FINGERPRINT>  (1) 
10608611 8 18341886386027095728
11132069 177 18341040908829638512
11471102 20 18060135436282129226
11769659 78 17988353866612339279
12236239 1 16343984702274148080
12251169 10 18131353020357933598
12932764 1 18410292484895761538
13024252 1 16587743127316981211
13214271 11 18187084000431152330
13296908 3 18259987076082570826
13538477 17 16200140032512977268
13581323 91 18342176669680738398
14115302 16 17704074035670323426
14144814 61 17775570818970478898
15219456 202 18340762663626194916
15309172 13 18202568362708846262
15775835 57 18342458149216316294
16945 1 18273490178288238337
17844478 74 18335707117688350808
18175812 5 18412545431064632390
18186145 218 17917714582681803982
19868273 325 18187081758526984244
200 152 17418366999975941919
20279233 1 18333171665455102578
20528008 55 18131347526915433435
20645477 70 18201155451697052718
22344851 262 18339639052836609871
22802520 49 18116716201468059790
23402539 116 18041268937356350630
23557571 272 18261678082417467796
23559900 14 17489584580584941082
2748010 2 18264483992666950116
296302 2 18411418453147378592
3286 77 18131068221160944976
369184 2 17917992775976407491
45790113 50 17131841919256623854
474 4 16485259946631949976
5104073 3 18130784594432467730
69090 78 18273208712107502615
7364860 26 18191311678760057940
77492 1 16271924900565046648
81228 2 17822859649855330908

>  <PUBCHEM_SHAPE_MULTIPOLES>  (1) 
318.42
6.57
1.48
1.17
1.67
0.06
-0.24
0.51
-0.45
0.26
0.44
-0.5
-0.25
0.36

>  <PUBCHEM_SHAPE_SELFOVERLAP>  (1) 
688.968

>  <PUBCHEM_SHAPE_VOLUME>  (1) 
174.2

>  <PUBCHEM_COORDINATE_TYPE>  (1) 
2
5
10

$$$$
