4745
     RDKit          3D

 22 25  0  0  1  0  0  0  0  0999 V2000
   -3.8241   -2.9495    0.0856 S   0  0  0  0  0  0  0  0  0  0  0  0
   -1.5578    1.7433    0.4280 N   0  0  0  0  0  0  0  0  0  0  0  0
    3.8427   -0.2535   -1.3781 N   0  0  0  0  0  0  0  0  0  0  0  0
   -0.2227   -0.3108    0.9112 C   0  0  0  0  0  0  0  0  0  0  0  0
   -0.1987    1.1720    0.3544 C   0  0  0  0  0  0  0  0  0  0  0  0
   -1.2624   -1.1567    0.1629 C   0  0  0  0  0  0  0  0  0  0  0  0
   -2.6364   -0.4802    0.2031 C   0  0  0  0  0  0  0  0  0  0  0  0
   -2.5556    0.9647   -0.3129 C   0  0  0  0  0  0  0  0  0  0  0  0
    0.5071    1.3271   -1.0501 C   0  0  0  0  0  0  0  0  0  0  0  0
    1.1461   -0.9504    0.8158 C   0  0  0  0  0  0  0  0  0  0  0  0
    1.8076    0.5947   -1.0642 C   0  0  0  0  0  0  0  0  0  0  0  0
    2.0232   -0.4630   -0.1584 C   0  0  0  0  0  0  0  0  0  0  0  0
   -1.6089    3.1541    0.0550 C   0  0  0  0  0  0  0  0  0  0  0  0
   -3.6555   -1.2846   -0.6029 C   0  0  0  0  0  0  0  0  0  0  0  0
    3.2870   -0.9862   -0.3516 C   0  0  0  0  0  0  0  0  0  0  0  0
    1.5986   -2.0189    1.5963 C   0  0  0  0  0  0  0  0  0  0  0  0
    2.9527    0.7070   -1.8175 C   0  0  0  0  0  0  0  0  0  0  0  0
   -0.5879    3.9528    0.8614 C   0  0  0  0  0  0  0  0  0  0  0  0
    3.7574   -2.0476    0.4227 C   0  0  0  0  0  0  0  0  0  0  0  0
    2.8821   -2.5518    1.4011 C   0  0  0  0  0  0  0  0  0  0  0  0
   -0.6360    5.4309    0.5066 C   0  0  0  0  0  0  0  0  0  0  0  0
   -5.0586   -3.5935   -1.0682 C   0  0  0  0  0  0  0  0  0  0  0  0
  1 14  1  0
  1 22  1  0
  2  5  1  0
  2  8  1  0
  2 13  1  0
  3 15  1  0
  3 17  1  0
  4  5  1  0
  4  6  1  0
  4 10  1  0
  5  9  1  0
  6  7  1  0
  7  8  1  0
  7 14  1  0
  9 11  1  0
 10 12  2  0
 10 16  1  0
 11 12  1  0
 11 17  2  0
 12 15  1  0
 13 18  1  0
 15 19  2  0
 16 20  2  0
 18 21  1  0
 19 20  1  0
M  END
>  <PUBCHEM_COMPOUND_CID>  (1) 
4745

>  <PUBCHEM_CONFORMER_RMSD>  (1) 
0.8

>  <PUBCHEM_CONFORMER_DIVERSEORDER>  (1) 
1
38
23
17
13
10
6
2
36
30
28
24
4
29
11
32
31
3
20
16
43
18
25
7
27
40
9
39
5
15
34
35
22
8
26
21
14
33
41
37
19
42
12

>  <PUBCHEM_MMFF94_PARTIAL_CHARGES>  (1) 
22
1 -0.46
10 -0.14
11 -0.18
13 0.27
14 0.23
15 -0.15
16 -0.15
17 -0.3
19 -0.15
2 -0.81
20 -0.15
22 0.23
3 0.03
36 0.15
37 0.15
4 0.14
40 0.27
41 0.15
42 0.15
5 0.27
8 0.27
9 0.18

>  <PUBCHEM_EFFECTIVE_ROTOR_COUNT>  (1) 
5

>  <PUBCHEM_PHARMACOPHORE_FEATURES>  (1) 
9
1 2 cation
1 21 hydrophobe
1 22 hydrophobe
1 3 cation
1 3 donor
5 3 11 12 15 17 rings
6 10 12 15 16 19 20 rings
6 2 4 5 6 7 8 rings
6 4 5 9 10 11 12 rings

>  <PUBCHEM_HEAVY_ATOM_COUNT>  (1) 
22

>  <PUBCHEM_ATOM_DEF_STEREO_COUNT>  (1) 
0

>  <PUBCHEM_ATOM_UDEF_STEREO_COUNT>  (1) 
3

>  <PUBCHEM_BOND_DEF_STEREO_COUNT>  (1) 
0

>  <PUBCHEM_BOND_UDEF_STEREO_COUNT>  (1) 
0

>  <PUBCHEM_ISOTOPIC_ATOM_COUNT>  (1) 
0

>  <PUBCHEM_COMPONENT_COUNT>  (1) 
1

>  <PUBCHEM_CACTVS_TAUTO_COUNT>  (1) 
1

>  <PUBCHEM_CONFORMER_ID>  (1) 
0000128900000001

>  <PUBCHEM_MMFF94_ENERGY>  (1) 
49.2285

>  <PUBCHEM_FEATURE_SELFOVERLAP>  (1) 
45.945

>  <PUBCHEM_SHAPE_FINGERPRINT>  (1) 
10764073 3 16528554260394628481
11578080 2 18044910468560650308
12173636 292 17835794201581044613
12293681 160 18045803422547318484
12553582 1 18411139177674517243
12788726 201 18337682892991817961
13009979 54 18261948536149699690
13140716 1 18409448051306896267
13583140 156 17200201787477669490
13965767 371 16676398648335557856
14178342 30 18047457938370674106
14576447 43 18262799686861622758
14787075 74 18121226630162431820
15420108 30 16751542575590984905
15664445 248 18127423447388972879
15842332 3 18043543711398339150
16752209 62 18124306108770518441
16945 1 18196937669147117304
19141452 34 17616248079655652778
20775438 99 17544423921764382903
21452121 199 18337941393951059579
22112679 90 18340779169201240441
23184049 59 17105387472219542168
23419403 2 16670710169798492296
23557571 272 18129372714048689890
23559900 14 18199463277985184288
23598288 3 18263938652638474945
23598291 2 17899425190317286726
25147074 1 17897175624203009014
2748010 2 16819414921361689019
3091708 16 9280204165555735945
352729 6 17977102354188816057
4017518 198 17116056007479332111
463206 1 18263363758054995203
59444896 2 11980106756185506208
59554788 248 17541961788322380921
6669772 16 17331965430835276413
6992083 37 17682963189226541280
7064713 232 17400347963381984480
7164475 11 18409451345388965638
7471813 234 18335127718026425862
7832392 63 17756718438155719752
90525 40 17975700484920332865

>  <PUBCHEM_SHAPE_MULTIPOLES>  (1) 
446.64
7.13
5.47
1.36
5.42
8.26
0.18
-9.63
2.64
2.76
-1.79
-0.99
-0.34
-1.78

>  <PUBCHEM_SHAPE_SELFOVERLAP>  (1) 
946.275

>  <PUBCHEM_SHAPE_VOLUME>  (1) 
253.3

>  <PUBCHEM_COORDINATE_TYPE>  (1) 
2
5
10

$$$$
