47467
     RDKit          3D

 13 14  0  0  0  0  0  0  0  0999 V2000
    0.9621   -1.1237   -0.3037 N   0  0  0  0  0  0  0  0  0  0  0  0
   -1.0762    0.0201    0.0064 C   0  0  0  0  0  0  0  0  0  0  0  0
    0.3703    0.0481    0.0139 C   0  0  0  0  0  0  0  0  0  0  0  0
    3.0949   -0.0241   -0.0088 C   0  0  0  0  0  0  0  0  0  0  0  0
    1.0570    1.2083    0.3269 C   0  0  0  0  0  0  0  0  0  0  0  0
    2.4467    1.1632    0.3129 C   0  0  0  0  0  0  0  0  0  0  0  0
   -1.7939    1.1740   -0.3078 C   0  0  0  0  0  0  0  0  0  0  0  0
   -1.7529   -1.1602    0.3140 C   0  0  0  0  0  0  0  0  0  0  0  0
    2.3140   -1.1293   -0.3068 C   0  0  0  0  0  0  0  0  0  0  0  0
    4.5796   -0.1048   -0.0321 C   0  0  0  0  0  0  0  0  0  0  0  0
   -3.1887    1.1476   -0.3148 C   0  0  0  0  0  0  0  0  0  0  0  0
   -3.1475   -1.1865    0.3071 C   0  0  0  0  0  0  0  0  0  0  0  0
   -3.8654   -0.0327   -0.0073 C   0  0  0  0  0  0  0  0  0  0  0  0
  1  3  2  0
  1  9  1  0
  2  3  1  0
  2  7  2  0
  2  8  1  0
  3  5  1  0
  4  6  1  0
  4  9  2  0
  4 10  1  0
  5  6  2  0
  7 11  1  0
  8 12  2  0
 11 13  2  0
 12 13  1  0
M  END
>  <PUBCHEM_COMPOUND_CID>  (1) 
47467

>  <PUBCHEM_CONFORMER_RMSD>  (1) 
0.4

>  <PUBCHEM_CONFORMER_DIVERSEORDER>  (1) 
2
1
3

>  <PUBCHEM_MMFF94_PARTIAL_CHARGES>  (1) 
20
1 -0.62
10 0.14
11 -0.15
12 -0.15
13 -0.15
14 0.15
15 0.15
16 0.15
17 0.15
18 0.15
22 0.15
23 0.15
24 0.15
3 0.31
4 -0.14
5 -0.15
6 -0.15
7 -0.15
8 -0.15
9 0.16

>  <PUBCHEM_EFFECTIVE_ROTOR_COUNT>  (1) 
1

>  <PUBCHEM_PHARMACOPHORE_FEATURES>  (1) 
3
1 1 acceptor
6 1 3 4 5 6 9 rings
6 2 7 8 11 12 13 rings

>  <PUBCHEM_HEAVY_ATOM_COUNT>  (1) 
13

>  <PUBCHEM_ATOM_DEF_STEREO_COUNT>  (1) 
0

>  <PUBCHEM_ATOM_UDEF_STEREO_COUNT>  (1) 
0

>  <PUBCHEM_BOND_DEF_STEREO_COUNT>  (1) 
0

>  <PUBCHEM_BOND_UDEF_STEREO_COUNT>  (1) 
0

>  <PUBCHEM_ISOTOPIC_ATOM_COUNT>  (1) 
0

>  <PUBCHEM_COMPONENT_COUNT>  (1) 
1

>  <PUBCHEM_CACTVS_TAUTO_COUNT>  (1) 
1

>  <PUBCHEM_CONFORMER_ID>  (1) 
0000B96B00000002

>  <PUBCHEM_MMFF94_ENERGY>  (1) 
39.8912

>  <PUBCHEM_FEATURE_SELFOVERLAP>  (1) 
15.223

>  <PUBCHEM_SHAPE_FINGERPRINT>  (1) 
10219947 1 17346882238938068668
10608611 8 18410569595848310169
11471102 20 18343299266937143364
12032990 46 18342463629694643894
124424 183 18408880720228376282
12500047 106 18260823778846049511
12932764 1 17632570586908212677
13296908 3 18343305838142232278
13380535 76 18410573976672734591
14144814 61 18410855434474415761
14325111 11 18410855481629547441
15219456 202 18412543236346965017
15309172 13 17561367287767300967
15653759 3 18334012808676636545
15775835 57 17894629206285023945
16945 1 18413390929678526961
17844478 74 18335146405581663393
18175812 5 18410574019527098461
18186145 218 18339082579635887541
18522853 276 18343864411529312256
19026448 5 17167861963548878856
200 152 17775278374778968117
20201158 50 18413108346653157379
20279233 1 18412547604328757023
20528008 55 18410569604727914439
20645477 56 18188207603148144533
20645477 70 17988079972226662662
21267235 1 18410583898057607923
23402539 116 18187918482580527119
23402655 69 18271516495240870093
23463225 33 18408039606844636516
23559900 14 18339077065473158710
2748010 2 18411698819953948709
3312278 4 18412829062041092168
474 4 15720816812171807044
5104073 3 18410855477329182952
53812653 166 18411416198373950890
57812782 119 18411979169649208217
6333449 129 18408601461787080263
69090 78 18342171181261374711
8809292 202 18261960742325201579
9709674 26 18410579491395165311

>  <PUBCHEM_SHAPE_MULTIPOLES>  (1) 
262.55
7.38
1.43
0.67
1.99
0.03
0.01
-0.24
-0.09
-0.37
0.01
-0.02
0.01
0.46

>  <PUBCHEM_SHAPE_SELFOVERLAP>  (1) 
569.06

>  <PUBCHEM_SHAPE_VOLUME>  (1) 
142.9

>  <PUBCHEM_COORDINATE_TYPE>  (1) 
2
5
10

$$$$
