47465
     RDKit          3D

 32 34  0  0  0  0  0  0  0  0999 V2000
    1.6020   -1.5497    1.9518 O   0  0  0  0  0  0  0  0  0  0  0  0
    3.7429   -1.9892    0.0931 O   0  0  0  0  0  0  0  0  0  0  0  0
   -0.8016   -0.0601    1.4542 O   0  0  0  0  0  0  0  0  0  0  0  0
    6.2252   -1.5700   -0.8543 O   0  0  0  0  0  0  0  0  0  0  0  0
   -4.0443   -2.8182   -0.8263 C   0  0  0  0  0  0  0  0  0  0  0  0
   -2.7548   -3.3728   -0.2164 C   0  0  0  0  0  0  0  0  0  0  0  0
   -5.1559   -2.5713    0.1987 C   0  0  0  0  0  0  0  0  0  0  0  0
   -1.6994   -3.6247   -1.2971 C   0  0  0  0  0  0  0  0  0  0  0  0
   -4.8586   -1.5197    1.2753 C   0  0  0  0  0  0  0  0  0  0  0  0
   -0.3944   -4.2237   -0.7600 C   0  0  0  0  0  0  0  0  0  0  0  0
   -4.5021   -0.1192    0.7682 C   0  0  0  0  0  0  0  0  0  0  0  0
    0.3701   -3.3644    0.2557 C   0  0  0  0  0  0  0  0  0  0  0  0
   -5.5782    0.5028   -0.1227 C   0  0  0  0  0  0  0  0  0  0  0  0
    0.7577   -1.9793   -0.2677 C   0  0  0  0  0  0  0  0  0  0  0  0
   -5.1597    1.9008   -0.5837 C   0  0  0  0  0  0  0  0  0  0  0  0
    1.9082    0.2213    0.4423 C   0  0  0  0  0  0  0  0  0  0  0  0
    1.4356   -1.1422    0.8051 C   0  0  0  0  0  0  0  0  0  0  0  0
   -6.2344    2.5508   -1.4532 C   0  0  0  0  0  0  0  0  0  0  0  0
    3.2129    0.3912   -0.0502 C   0  0  0  0  0  0  0  0  0  0  0  0
    1.0381    1.3129    0.6008 C   0  0  0  0  0  0  0  0  0  0  0  0
    3.6593    1.6865   -0.3927 C   0  0  0  0  0  0  0  0  0  0  0  0
    1.4845    2.6081    0.2584 C   0  0  0  0  0  0  0  0  0  0  0  0
    2.7893    2.7780   -0.2339 C   0  0  0  0  0  0  0  0  0  0  0  0
    4.0834   -0.6998   -0.2093 C   0  0  0  0  0  0  0  0  0  0  0  0
   -0.2669    1.1439    1.0927 C   0  0  0  0  0  0  0  0  0  0  0  0
   -5.8308    3.9549   -1.8749 C   0  0  0  0  0  0  0  0  0  0  0  0
    4.9642    1.8553   -0.8852 C   0  0  0  0  0  0  0  0  0  0  0  0
    0.6138    3.6992    0.4171 C   0  0  0  0  0  0  0  0  0  0  0  0
    5.3762   -0.5148   -0.7000 C   0  0  0  0  0  0  0  0  0  0  0  0
   -1.1190    2.2381    1.2445 C   0  0  0  0  0  0  0  0  0  0  0  0
    5.8161    0.7612   -1.0375 C   0  0  0  0  0  0  0  0  0  0  0  0
   -0.6792    3.5141    0.9071 C   0  0  0  0  0  0  0  0  0  0  0  0
  1 17  2  0
  2 24  1  0
  3 25  1  0
  4 29  1  0
  5  6  1  0
  5  7  1  0
  6  8  1  0
  7  9  1  0
  8 10  1  0
  9 11  1  0
 10 12  1  0
 11 13  1  0
 12 14  1  0
 13 15  1  0
 14 17  1  0
 15 18  1  0
 16 17  1  0
 16 19  2  0
 16 20  1  0
 18 26  1  0
 19 21  1  0
 19 24  1  0
 20 22  2  0
 20 25  1  0
 21 23  2  0
 21 27  1  0
 22 23  1  0
 22 28  1  0
 24 29  2  0
 25 30  2  0
 27 31  2  0
 28 32  2  0
 29 31  1  0
 30 32  1  0
M  END
>  <PUBCHEM_COMPOUND_CID>  (1) 
47465

>  <PUBCHEM_CONFORMER_RMSD>  (1) 
1.4

>  <PUBCHEM_CONFORMER_DIVERSEORDER>  (1) 
3
70
76
61
120
80
104
19
54
118
53
122
69
131
84
11
93
39
128
110
91
40
59
77
7
50
127
99
123
101
100
26
89
82
83
46
65
108
43
23
117
67
106
52
48
72
107
5
86
78
44
87
18
68
38
21
115
111
25
16
64
29
13
109
17
125
90
119
14
20
112
63
88
96
103
41
74
22
33
129
36
94
1
47
121
132
60
126
81
2
130
10
8
114
113
45
133
62
71
35
98
51
9
34
95
116
75
30
55
102
24
32
42
66
49
105
27
85
97
58
92
124
31
56
37
79
57
12
73
15
6
4
28

>  <PUBCHEM_MMFF94_PARTIAL_CHARGES>  (1) 
25
1 -0.57
14 0.06
16 0.09
17 0.42
2 -0.53
23 -0.15
24 0.08
25 0.08
27 -0.15
28 -0.15
29 0.08
3 -0.53
30 -0.15
31 -0.15
32 -0.15
4 -0.53
57 0.15
61 0.15
62 0.15
63 0.15
64 0.15
65 0.15
66 0.45
67 0.45
68 0.45

>  <PUBCHEM_EFFECTIVE_ROTOR_COUNT>  (1) 
13

>  <PUBCHEM_PHARMACOPHORE_FEATURES>  (1) 
8
1 1 acceptor
1 2 donor
1 26 hydrophobe
1 3 donor
1 4 donor
6 16 19 20 21 22 23 rings
6 19 21 24 27 29 31 rings
6 20 22 25 28 30 32 rings

>  <PUBCHEM_HEAVY_ATOM_COUNT>  (1) 
32

>  <PUBCHEM_ATOM_DEF_STEREO_COUNT>  (1) 
0

>  <PUBCHEM_ATOM_UDEF_STEREO_COUNT>  (1) 
0

>  <PUBCHEM_BOND_DEF_STEREO_COUNT>  (1) 
0

>  <PUBCHEM_BOND_UDEF_STEREO_COUNT>  (1) 
0

>  <PUBCHEM_ISOTOPIC_ATOM_COUNT>  (1) 
0

>  <PUBCHEM_COMPONENT_COUNT>  (1) 
1

>  <PUBCHEM_CACTVS_TAUTO_COUNT>  (1) 
235

>  <PUBCHEM_CONFORMER_ID>  (1) 
0000B96900000003

>  <PUBCHEM_MMFF94_ENERGY>  (1) 
75.7405

>  <PUBCHEM_FEATURE_SELFOVERLAP>  (1) 
40.653

>  <PUBCHEM_SHAPE_FINGERPRINT>  (1) 
11135926 11 18268717104334732265
11273773 38 18410852119329459869
13690498 29 18336547226867232415
13944108 23 17397529919882176077
14117953 113 18124024633672631623
14289585 56 17822003242119158117
14790565 3 18337393854208849638
15001296 14 18050561039478237059
15183329 4 18198911490198916294
15274700 232 17476372604248959830
15420108 30 17769686129522309394
16087824 20 18341624732429704673
16992727 255 18334580139871486900
19311894 1 18200880689991569671
20028762 73 18129101122139815558
221357 26 18125156289062698943
22393880 68 18408881871601729001
3882209 13 16892838642008629355
484989 97 18410022039579670296

>  <PUBCHEM_SHAPE_MULTIPOLES>  (1) 
635.07
14.06
5.93
1.37
6.02
0.91
0.01
-4.03
-6.34
6.02
-1.58
1
-0.39
1.68

>  <PUBCHEM_SHAPE_SELFOVERLAP>  (1) 
1338.99

>  <PUBCHEM_SHAPE_VOLUME>  (1) 
356.6

>  <PUBCHEM_COORDINATE_TYPE>  (1) 
2
5
10

$$$$
