4746
     RDKit          3D

 20 22  0  0  1  0  0  0  0  0999 V2000
   -2.6167   -0.7223    1.1045 N   0  0  0  0  0  0  0  0  0  0  0  0
    0.2981   -0.2900    0.6324 C   0  0  0  0  0  0  0  0  0  0  0  0
    1.7383   -0.7758    0.4846 C   0  0  0  0  0  0  0  0  0  0  0  0
    0.2350    1.2188    0.4054 C   0  0  0  0  0  0  0  0  0  0  0  0
   -0.6651   -1.0027   -0.3339 C   0  0  0  0  0  0  0  0  0  0  0  0
    2.2889   -0.4370   -0.9120 C   0  0  0  0  0  0  0  0  0  0  0  0
    1.8509   -2.2757    0.7682 C   0  0  0  0  0  0  0  0  0  0  0  0
    0.5818    1.5785   -1.0414 C   0  0  0  0  0  0  0  0  0  0  0  0
    1.1553    1.9589    1.3921 C   0  0  0  0  0  0  0  0  0  0  0  0
   -2.1022   -0.4912   -0.2511 C   0  0  0  0  0  0  0  0  0  0  0  0
    3.4349   -1.3494   -1.3583 C   0  0  0  0  0  0  0  0  0  0  0  0
    3.3051   -2.7540    0.7374 C   0  0  0  0  0  0  0  0  0  0  0  0
    0.4079    3.0755   -1.3127 C   0  0  0  0  0  0  0  0  0  0  0  0
    1.6118    3.3330    0.8936 C   0  0  0  0  0  0  0  0  0  0  0  0
    4.2053   -1.9221   -0.1773 C   0  0  0  0  0  0  0  0  0  0  0  0
    0.6148    3.9513   -0.0759 C   0  0  0  0  0  0  0  0  0  0  0  0
   -2.9837   -1.1913   -1.2945 C   0  0  0  0  0  0  0  0  0  0  0  0
   -4.4398   -0.7506   -1.1729 C   0  0  0  0  0  0  0  0  0  0  0  0
   -3.9892   -0.2370    1.2511 C   0  0  0  0  0  0  0  0  0  0  0  0
   -4.9315   -0.9170    0.2608 C   0  0  0  0  0  0  0  0  0  0  0  0
  1 10  1  0
  1 19  1  0
  2  3  1  0
  2  4  1  0
  2  5  1  0
  3  6  1  0
  3  7  1  0
  4  8  1  0
  4  9  1  0
  5 10  1  0
  6 11  1  0
  7 12  1  0
  8 13  1  0
  9 14  1  0
 10 17  1  0
 11 15  1  0
 12 15  1  0
 13 16  1  0
 14 16  1  0
 17 18  1  0
 18 20  1  0
 19 20  1  0
M  END
>  <PUBCHEM_COMPOUND_CID>  (1) 
4746

>  <PUBCHEM_CONFORMER_RMSD>  (1) 
0.8

>  <PUBCHEM_CONFORMER_DIVERSEORDER>  (1) 
1
5
3
4
2
6

>  <PUBCHEM_MMFF94_PARTIAL_CHARGES>  (1) 
4
1 -0.9
10 0.27
19 0.27
49 0.36

>  <PUBCHEM_EFFECTIVE_ROTOR_COUNT>  (1) 
7.6

>  <PUBCHEM_PHARMACOPHORE_FEATURES>  (1) 
5
1 1 cation
1 1 donor
6 1 10 17 18 19 20 rings
6 3 6 7 11 12 15 rings
6 4 8 9 13 14 16 rings

>  <PUBCHEM_HEAVY_ATOM_COUNT>  (1) 
20

>  <PUBCHEM_ATOM_DEF_STEREO_COUNT>  (1) 
0

>  <PUBCHEM_ATOM_UDEF_STEREO_COUNT>  (1) 
1

>  <PUBCHEM_BOND_DEF_STEREO_COUNT>  (1) 
0

>  <PUBCHEM_BOND_UDEF_STEREO_COUNT>  (1) 
0

>  <PUBCHEM_ISOTOPIC_ATOM_COUNT>  (1) 
0

>  <PUBCHEM_COMPONENT_COUNT>  (1) 
1

>  <PUBCHEM_CACTVS_TAUTO_COUNT>  (1) 
1

>  <PUBCHEM_CONFORMER_ID>  (1) 
0000128A00000001

>  <PUBCHEM_MMFF94_ENERGY>  (1) 
59.4543

>  <PUBCHEM_FEATURE_SELFOVERLAP>  (1) 
25.373

>  <PUBCHEM_SHAPE_FINGERPRINT>  (1) 
10165383 225 16962717476003284089
104564 63 18121783828795551127
11265709 11 18340209596487512702
11578080 2 18057304133527072064
11582403 64 15263948925730027608
121448 382 7852985240161989123
12553582 1 18411699842140944955
12643181 29 16540458316608032774
12707595 3 18408322181280721147
12788726 201 17902225611720072850
13009979 54 17846508040856473155
13134695 92 18409446990228466893
13140716 1 17906449179611664776
13149001 5 18191042276846686786
13533116 47 18265622155634318099
13681431 1 18340777017275009884
13911987 19 17824856496790234710
13955234 65 18194127541160330569
14181834 199 18200592617438300461
14347329 18 16228837119175027245
14347332 77 18053394202118866510
14468879 13 14421838407592374006
14955137 171 18056790704551672315
17357779 13 18268974424093454613
17980427 23 17346594175566051769
1813 80 18271535203633075830
18222031 100 18131063805739853735
18785283 64 18044381766380456808
19078846 21 18341620256984059283
20097449 115 18411136905103405048
20369508 70 18409725179613620803
20600515 1 17917716790253199110
20671657 1 18267871760133723871
20671657 53 18411979144122199035
21041028 32 18338245872946927705
21524375 3 17620465152859919009
21641784 216 18043550334501602692
22112679 90 18054536658459320824
22182313 1 18190717834959008053
2255824 54 18340769363617109479
22849341 161 18128277643548849899
23175994 123 18261398810679936263
23402539 116 18339083666468854974
23419403 2 17556821846568539688
23526113 38 17458637721629508123
23557571 272 18196933271697010454
23558518 356 17762330718702592590
23559900 14 17677055763007664887
23598288 3 17761483704123329050
23598291 2 18202567306415657055
283562 15 18118686517953120138
3091708 16 9357031423617775000
312423 11 17987525969428551067
314173 85 18270961233041693806
352729 6 17331106205363335598
4409770 3 17760077424403325021
474 4 18051122889656253681
5895379 119 16199056957952143921
6049 1 17894627097999413559
6442390 28 17183369728681265571
70251023 43 18269008492238750614
7164475 11 18047756997107030934
7364860 26 18270962482628899829
7471813 234 18202277013955652529
7495541 125 18115036298162447347
7615 1 17703512207368017627
81228 2 18050013190339385536
9981440 41 17478316995539261225

>  <PUBCHEM_SHAPE_MULTIPOLES>  (1) 
406.61
7.49
4.04
1.42
7.57
4.76
0.12
-7.07
0.45
-3.94
-0.21
0.19
0.16
-0.07

>  <PUBCHEM_SHAPE_SELFOVERLAP>  (1) 
823.117

>  <PUBCHEM_SHAPE_VOLUME>  (1) 
231.6

>  <PUBCHEM_COORDINATE_TYPE>  (1) 
2
5
10

$$$$
