47466
     RDKit          3D

 16 18  0  0  0  0  0  0  0  0999 V2000
   -0.7061    1.6369   -0.1414 N   0  0  0  0  0  0  0  0  0  0  0  0
    0.9384   -0.0964    0.1414 C   0  0  0  0  0  0  0  0  0  0  0  0
    2.2908   -0.4660    0.2454 C   0  0  0  0  0  0  0  0  0  0  0  0
    0.5800    1.2503   -0.0387 C   0  0  0  0  0  0  0  0  0  0  0  0
    2.7141   -1.8889    0.4379 C   0  0  0  0  0  0  0  0  0  0  0  0
   -0.0907   -1.0408    0.2121 C   0  0  0  0  0  0  0  0  0  0  0  0
   -1.4278   -0.6451    0.1056 C   0  0  0  0  0  0  0  0  0  0  0  0
   -1.6936    0.7231   -0.0728 C   0  0  0  0  0  0  0  0  0  0  0  0
    3.2916    0.4983    0.1708 C   0  0  0  0  0  0  0  0  0  0  0  0
    1.6002    2.1953   -0.1099 C   0  0  0  0  0  0  0  0  0  0  0  0
    2.9452    1.8316   -0.0071 C   0  0  0  0  0  0  0  0  0  0  0  0
   -2.4819   -1.5727    0.1729 C   0  0  0  0  0  0  0  0  0  0  0  0
    2.9376   -2.6068   -0.8881 C   0  0  0  0  0  0  0  0  0  0  0  0
   -3.0228    1.1234   -0.1792 C   0  0  0  0  0  0  0  0  0  0  0  0
   -3.8022   -1.1466    0.0636 C   0  0  0  0  0  0  0  0  0  0  0  0
   -4.0729    0.2043   -0.1126 C   0  0  0  0  0  0  0  0  0  0  0  0
  1  4  2  0
  1  8  1  0
  2  3  1  0
  2  4  1  0
  2  6  2  0
  3  5  1  0
  3  9  2  0
  4 10  1  0
  5 13  1  0
  6  7  1  0
  7  8  2  0
  7 12  1  0
  8 14  1  0
  9 11  1  0
 10 11  2  0
 12 15  2  0
 14 16  2  0
 15 16  1  0
M  END
>  <PUBCHEM_COMPOUND_CID>  (1) 
47466

>  <PUBCHEM_CONFORMER_RMSD>  (1) 
0.6

>  <PUBCHEM_CONFORMER_DIVERSEORDER>  (1) 
1

>  <PUBCHEM_MMFF94_PARTIAL_CHARGES>  (1) 
21
1 -0.62
10 -0.15
11 -0.15
12 -0.15
14 -0.15
15 -0.15
16 -0.15
19 0.15
20 0.15
21 0.15
22 0.15
23 0.15
27 0.15
28 0.15
29 0.15
3 -0.14
4 0.31
5 0.14
6 -0.15
8 0.31
9 -0.15

>  <PUBCHEM_EFFECTIVE_ROTOR_COUNT>  (1) 
1

>  <PUBCHEM_PHARMACOPHORE_FEATURES>  (1) 
5
1 1 acceptor
1 13 hydrophobe
6 1 2 4 6 7 8 rings
6 2 3 4 9 10 11 rings
6 7 8 12 14 15 16 rings

>  <PUBCHEM_HEAVY_ATOM_COUNT>  (1) 
16

>  <PUBCHEM_ATOM_DEF_STEREO_COUNT>  (1) 
0

>  <PUBCHEM_ATOM_UDEF_STEREO_COUNT>  (1) 
0

>  <PUBCHEM_BOND_DEF_STEREO_COUNT>  (1) 
0

>  <PUBCHEM_BOND_UDEF_STEREO_COUNT>  (1) 
0

>  <PUBCHEM_ISOTOPIC_ATOM_COUNT>  (1) 
0

>  <PUBCHEM_COMPONENT_COUNT>  (1) 
1

>  <PUBCHEM_CACTVS_TAUTO_COUNT>  (1) 
1

>  <PUBCHEM_CONFORMER_ID>  (1) 
0000B96A00000001

>  <PUBCHEM_MMFF94_ENERGY>  (1) 
49.8654

>  <PUBCHEM_FEATURE_SELFOVERLAP>  (1) 
25.433

>  <PUBCHEM_SHAPE_FINGERPRINT>  (1) 
10608611 8 18335696165574727421
10616163 171 18195247938755760815
10922523 26 18334009497510058973
10967382 1 18409728503659364419
10980938 120 18338516442848342136
11132069 177 18337382850528725313
11471102 20 18337386136162771940
11578080 2 16951948576116806590
116883 192 18125724491523181356
12032990 46 18337957787936303659
13140716 1 18337670797983955193
13296908 3 18408040697692684611
13380535 76 18262797513829067458
13571099 22 18412543180596649709
14144814 61 18409728482437826601
14576447 43 17912350220317121695
14790565 3 16684303033338588280
14866123 147 17046272194765100834
15196674 1 18409165515599824617
15219456 202 18409729573333087383
15375462 6 18410293648388585855
15442244 35 18339643317570459697
15536298 74 18412544310046454586
16945 1 18265897036849356920
17492 89 18412544331912636167
17804303 29 18265338313302029999
17990270 104 18410292501922571994
18186145 218 17822287959864566303
200 152 18129937992164347381
20559304 39 18411698803095930344
20645477 70 18410568496610917751
20871998 22 18268427937103255730
21267235 1 18409455803375010875
21501502 16 18410575089137543777
221490 88 18335991929749480394
2334 1 18409165523657009283
23366157 5 18040435499511594536
23463225 33 18409728465131317701
23559900 14 18340199705183007322
2748010 2 18335978692512100276
335352 9 18121779431055079877
34934 24 18339352058626444145
5104073 3 18409448090104027249
5902787 121 18262510378207137386
7364860 26 18413671327087879776
81228 2 17764033467466806114
8809292 202 18259989266479176691
9709674 26 18336549403683006707

>  <PUBCHEM_SHAPE_MULTIPOLES>  (1) 
324.29
6.71
2.5
0.69
3.36
0.38
-0.03
1.27
-0.2
-1.98
-0.31
-0.18
0.16
0.38

>  <PUBCHEM_SHAPE_SELFOVERLAP>  (1) 
725.833

>  <PUBCHEM_SHAPE_VOLUME>  (1) 
171.8

>  <PUBCHEM_COORDINATE_TYPE>  (1) 
2
5
10

$$$$
