47463
     RDKit          3D

 18 19  0  0  1  0  0  0  0  0999 V2000
    0.6522    1.1359   -1.9186 O   0  0  0  0  0  0  0  0  0  0  0  0
   -0.7496   -1.8419    1.3392 O   0  0  0  0  0  0  0  0  0  0  0  0
    3.7307   -1.1982    0.6622 O   0  0  0  0  0  0  0  0  0  0  0  0
    2.2501    0.1406   -0.5489 N   0  0  0  0  0  0  0  0  0  0  0  0
    1.4890   -1.4503    1.0261 N   0  0  0  0  0  0  0  0  0  0  0  0
   -0.1105    0.1764    0.1608 C   0  0  0  0  0  0  0  0  0  0  0  0
   -1.4893    0.1428   -0.4817 C   0  0  0  0  0  0  0  0  0  0  0  0
   -1.6652   -1.0585   -1.4225 C   0  0  0  0  0  0  0  0  0  0  0  0
   -0.0794    1.2890    1.2240 C   0  0  0  0  0  0  0  0  0  0  0  0
   -3.1158   -1.5127   -1.2589 C   0  0  0  0  0  0  0  0  0  0  0  0
   -2.5956   -0.0619    0.5069 C   0  0  0  0  0  0  0  0  0  0  0  0
    0.9426    0.5219   -0.8906 C   0  0  0  0  0  0  0  0  0  0  0  0
    0.1475   -1.1410    0.8733 C   0  0  0  0  0  0  0  0  0  0  0  0
   -3.4841   -0.9632    0.0777 C   0  0  0  0  0  0  0  0  0  0  0  0
   -0.3980    2.6150    0.6157 C   0  0  0  0  0  0  0  0  0  0  0  0
    2.5777   -0.8414    0.4060 C   0  0  0  0  0  0  0  0  0  0  0  0
    3.3447    0.6839   -1.3445 C   0  0  0  0  0  0  0  0  0  0  0  0
   -1.4471    3.3637    0.9739 C   0  0  0  0  0  0  0  0  0  0  0  0
  1 12  2  0
  2 13  2  0
  3 16  2  0
  4 12  1  0
  4 16  1  0
  4 17  1  0
  5 13  1  0
  5 16  1  0
  6  7  1  0
  6  9  1  0
  6 12  1  0
  6 13  1  0
  7  8  1  0
  7 11  1  0
  8 10  1  0
  9 15  1  0
 10 14  1  0
 11 14  2  0
 15 18  2  0
M  END
>  <PUBCHEM_COMPOUND_CID>  (1) 
47463

>  <PUBCHEM_CONFORMER_RMSD>  (1) 
0.6

>  <PUBCHEM_CONFORMER_DIVERSEORDER>  (1) 
2
10
21
7
26
11
15
18
9
16
12
20
5
24
27
13
19
1
25
17
22
23
8
3
14
4
6

>  <PUBCHEM_MMFF94_PARTIAL_CHARGES>  (1) 
23
1 -0.57
10 0.14
11 -0.29
12 0.57
13 0.57
14 -0.29
15 -0.29
16 0.69
17 0.3
18 -0.3
2 -0.57
26 0.15
27 0.15
28 0.37
29 0.15
3 -0.57
33 0.15
34 0.15
4 -0.42
5 -0.49
6 0.12
7 0.14
9 0.14

>  <PUBCHEM_EFFECTIVE_ROTOR_COUNT>  (1) 
4.2

>  <PUBCHEM_PHARMACOPHORE_FEATURES>  (1) 
7
1 1 acceptor
1 18 hydrophobe
1 2 acceptor
1 3 acceptor
1 5 donor
5 7 8 10 11 14 rings
6 4 5 6 12 13 16 rings

>  <PUBCHEM_HEAVY_ATOM_COUNT>  (1) 
18

>  <PUBCHEM_ATOM_DEF_STEREO_COUNT>  (1) 
0

>  <PUBCHEM_ATOM_UDEF_STEREO_COUNT>  (1) 
2

>  <PUBCHEM_BOND_DEF_STEREO_COUNT>  (1) 
0

>  <PUBCHEM_BOND_UDEF_STEREO_COUNT>  (1) 
0

>  <PUBCHEM_ISOTOPIC_ATOM_COUNT>  (1) 
0

>  <PUBCHEM_COMPONENT_COUNT>  (1) 
1

>  <PUBCHEM_CACTVS_TAUTO_COUNT>  (1) 
3

>  <PUBCHEM_CONFORMER_ID>  (1) 
0000B96700000002

>  <PUBCHEM_MMFF94_ENERGY>  (1) 
50.7309

>  <PUBCHEM_FEATURE_SELFOVERLAP>  (1) 
35.522

>  <PUBCHEM_SHAPE_FINGERPRINT>  (1) 
11578080 2 18119498072976536748
12403814 3 16844420844103675376
12423570 1 12150699176047714817
13538477 17 18267024955396382753
13583140 156 16842443810887124010
14617773 55 18336551512574862728
14817 1 13321574541600019696
15906896 17 18195545700422096265
16945 1 18201999876363044013
200 152 18333726918827220150
20361792 2 18130778010273475991
21296965 67 18342729732724893865
21524375 3 17834972870674310760
22112679 90 18272657852571175185
228727 97 18337123335883283932
23402539 116 18410847746868298470
23419403 2 14295580194362637691
23557571 272 17703504398838041832
23559900 14 18046077205770677092
305870 269 7853035903580414399
3286 77 18192144013721001299
528886 8 17458903867725410103
7364860 26 17413864672044084313
77492 1 18408891723781666390
81228 2 18129671802696960929

>  <PUBCHEM_SHAPE_MULTIPOLES>  (1) 
342.86
4.83
2.58
1.52
1.3
2.81
-0.36
-2.42
-0.85
-1.21
0.8
0.32
-0.21
-1.08

>  <PUBCHEM_SHAPE_SELFOVERLAP>  (1) 
730.635

>  <PUBCHEM_SHAPE_VOLUME>  (1) 
189

>  <PUBCHEM_COORDINATE_TYPE>  (1) 
2
5
10

$$$$
