47478
     RDKit          3D

 17 17  0  0  0  0  0  0  0  0999 V2000
   -1.8212    2.7249    0.2962 Cl  0  0  0  0  0  0  0  0  0  0  0  0
    0.4175   -0.0172   -1.5864 O   0  0  0  0  0  0  0  0  0  0  0  0
    2.9213   -0.0110   -0.6176 N   0  0  0  0  0  0  0  0  0  0  0  0
   -0.5366   -0.0024    0.5588 N   0  0  0  0  0  0  0  0  0  0  0  0
    4.2256   -0.0102    0.0531 C   0  0  0  0  0  0  0  0  0  0  0  0
    5.3242   -0.0103   -1.0152 C   0  0  0  0  0  0  0  0  0  0  0  0
    4.3304    1.2526    0.9148 C   0  0  0  0  0  0  0  0  0  0  0  0
    4.3460   -1.2600    0.9328 C   0  0  0  0  0  0  0  0  0  0  0  0
    1.8450   -0.0006    0.3586 C   0  0  0  0  0  0  0  0  0  0  0  0
    0.5084   -0.0059   -0.3629 C   0  0  0  0  0  0  0  0  0  0  0  0
   -1.9259   -0.0054    0.2890 C   0  0  0  0  0  0  0  0  0  0  0  0
   -2.5823   -1.2218    0.1676 C   0  0  0  0  0  0  0  0  0  0  0  0
   -2.6094    1.1940    0.1505 C   0  0  0  0  0  0  0  0  0  0  0  0
   -3.9515   -1.2390   -0.0981 C   0  0  0  0  0  0  0  0  0  0  0  0
   -1.8635   -2.5243    0.3134 C   0  0  0  0  0  0  0  0  0  0  0  0
   -3.9786    1.1766   -0.1152 C   0  0  0  0  0  0  0  0  0  0  0  0
   -4.6496   -0.0400   -0.2395 C   0  0  0  0  0  0  0  0  0  0  0  0
  1 13  1  0
  2 10  2  0
  3  5  1  0
  3  9  1  0
  4 10  1  0
  4 11  1  0
  5  6  1  0
  5  7  1  0
  5  8  1  0
  9 10  1  0
 11 12  2  0
 11 13  1  0
 12 14  1  0
 12 15  1  0
 13 16  2  0
 14 17  2  0
 16 17  1  0
M  END
>  <PUBCHEM_COMPOUND_CID>  (1) 
47478

>  <PUBCHEM_CONFORMER_RMSD>  (1) 
0.6

>  <PUBCHEM_CONFORMER_DIVERSEORDER>  (1) 
1
3
4
2
5

>  <PUBCHEM_MMFF94_PARTIAL_CHARGES>  (1) 
19
1 -0.18
10 0.57
11 0.12
12 -0.14
13 0.18
14 -0.15
15 0.14
16 -0.15
17 -0.15
18 0.36
2 -0.57
3 -0.9
30 0.37
31 0.15
35 0.15
36 0.15
4 -0.55
5 0.27
9 0.33

>  <PUBCHEM_EFFECTIVE_ROTOR_COUNT>  (1) 
5

>  <PUBCHEM_PHARMACOPHORE_FEATURES>  (1) 
6
1 2 acceptor
1 3 cation
1 3 donor
1 4 donor
4 5 6 7 8 hydrophobe
6 11 12 13 14 16 17 rings

>  <PUBCHEM_HEAVY_ATOM_COUNT>  (1) 
17

>  <PUBCHEM_ATOM_DEF_STEREO_COUNT>  (1) 
0

>  <PUBCHEM_ATOM_UDEF_STEREO_COUNT>  (1) 
0

>  <PUBCHEM_BOND_DEF_STEREO_COUNT>  (1) 
0

>  <PUBCHEM_BOND_UDEF_STEREO_COUNT>  (1) 
0

>  <PUBCHEM_ISOTOPIC_ATOM_COUNT>  (1) 
0

>  <PUBCHEM_COMPONENT_COUNT>  (1) 
1

>  <PUBCHEM_CACTVS_TAUTO_COUNT>  (1) 
2

>  <PUBCHEM_CONFORMER_ID>  (1) 
0000B97600000001

>  <PUBCHEM_MMFF94_ENERGY>  (1) 
60.4678

>  <PUBCHEM_FEATURE_SELFOVERLAP>  (1) 
30.446

>  <PUBCHEM_SHAPE_FINGERPRINT>  (1) 
10366900 7 18202565081438046362
10680689 15 18410301323516294858
11315181 36 18186523224174359412
12107183 9 17614838514222006888
12236239 1 17748544827533644891
12670546 56 18409441471295692240
13167823 11 18333448729542773658
13533116 47 18336823091878722178
13760787 19 18333734619946220514
14341114 176 18410859875824352408
14573314 32 18342747277967121734
15242439 84 18273500065767105980
15375358 24 18131072631865738607
15961568 22 18264488554667088700
17834072 33 18187649128476370308
17870717 6 18272385156175496862
1813 80 16515689901282295678
187816 3 18410570691681668479
19489759 90 18342737403441506424
200 152 18187363246689101519
20279233 1 17989214745498813766
20281475 54 17967247611810167842
20510252 161 18343022142984005897
20645477 56 18339368465786903089
20645477 70 16773524274542243366
21033648 29 16916491580783851024
21267235 1 18336556001137459931
2297311 6 18342469144010723909
23175994 123 17132117952594316425
23402539 116 18341887490123523173
23557571 272 18059586749509455380
23559900 14 18413668024295063032
300161 21 18040148535519122430
34797466 226 18200606903043086644
351380 180 18272365373672123680
4214541 1 18410011009734298184
5104073 3 18411136930904851706
542803 24 17458064867650092276
573450 72 18334568019178202914
58051976 100 18260832634894806910
77779 3 18410573989878961210
90127 26 18131074857212426016
9709674 26 18342182141527693526
9971528 1 17603866702695315924

>  <PUBCHEM_SHAPE_MULTIPOLES>  (1) 
335.89
11.12
2.04
0.95
9.85
0.28
-0.15
-0.21
-0.28
-1.91
0.43
0.84
0
0

>  <PUBCHEM_SHAPE_SELFOVERLAP>  (1) 
673.267

>  <PUBCHEM_SHAPE_VOLUME>  (1) 
200.4

>  <PUBCHEM_COORDINATE_TYPE>  (1) 
2
5
10

$$$$
