47483
     RDKit          3D

 25 28  0  0  0  0  0  0  0  0999 V2000
   -5.3927   -1.4735    0.4258 O   0  0  0  0  0  0  0  0  0  0  0  0
    0.2536    0.2365   -1.2957 N   0  0  0  0  0  0  0  0  0  0  0  0
    3.8574   -0.3939    0.7499 N   0  0  0  0  0  0  0  0  0  0  0  0
   -7.1928   -0.1655    1.0012 N   0  0  0  0  0  0  0  0  0  0  0  0
    1.4756    0.0226   -0.6019 C   0  0  0  0  0  0  0  0  0  0  0  0
    1.8954   -1.2820   -0.3229 C   0  0  0  0  0  0  0  0  0  0  0  0
    2.2479    1.1187   -0.2045 C   0  0  0  0  0  0  0  0  0  0  0  0
    3.1096   -1.4461    0.3648 C   0  0  0  0  0  0  0  0  0  0  0  0
    3.4484    0.8606    0.4785 C   0  0  0  0  0  0  0  0  0  0  0  0
   -1.0644    0.4091   -0.8529 C   0  0  0  0  0  0  0  0  0  0  0  0
    1.1393   -2.4019   -0.7107 C   0  0  0  0  0  0  0  0  0  0  0  0
    1.8504    2.4404   -0.4717 C   0  0  0  0  0  0  0  0  0  0  0  0
    3.5330   -2.7426    0.6455 C   0  0  0  0  0  0  0  0  0  0  0  0
    4.2218    1.9478    0.8769 C   0  0  0  0  0  0  0  0  0  0  0  0
   -3.6983    0.7514    0.0311 C   0  0  0  0  0  0  0  0  0  0  0  0
   -1.3596    0.3848    0.5151 C   0  0  0  0  0  0  0  0  0  0  0  0
   -2.0991    0.6058   -1.7744 C   0  0  0  0  0  0  0  0  0  0  0  0
    1.5847   -3.6874   -0.4180 C   0  0  0  0  0  0  0  0  0  0  0  0
    2.6416    3.5098   -0.0627 C   0  0  0  0  0  0  0  0  0  0  0  0
   -2.6721    0.5555    0.9556 C   0  0  0  0  0  0  0  0  0  0  0  0
   -3.4116    0.7762   -1.3339 C   0  0  0  0  0  0  0  0  0  0  0  0
    2.7841   -3.8577    0.2615 C   0  0  0  0  0  0  0  0  0  0  0  0
    3.8297    3.2624    0.6131 C   0  0  0  0  0  0  0  0  0  0  0  0
   -5.1016    0.9341    0.5018 C   0  0  0  0  0  0  0  0  0  0  0  0
   -5.8804   -0.3650    0.6282 C   0  0  0  0  0  0  0  0  0  0  0  0
  1 25  2  0
  2  5  1  0
  2 10  1  0
  3  8  2  0
  3  9  1  0
  4 25  1  0
  5  6  2  0
  5  7  1  0
  6  8  1  0
  6 11  1  0
  7  9  2  0
  7 12  1  0
  8 13  1  0
  9 14  1  0
 10 16  2  0
 10 17  1  0
 11 18  2  0
 12 19  2  0
 13 22  2  0
 14 23  2  0
 15 20  2  0
 15 21  1  0
 15 24  1  0
 16 20  1  0
 17 21  2  0
 18 22  1  0
 19 23  1  0
 24 25  1  0
M  END
>  <PUBCHEM_COMPOUND_CID>  (1) 
47483

>  <PUBCHEM_CONFORMER_RMSD>  (1) 
0.8

>  <PUBCHEM_CONFORMER_DIVERSEORDER>  (1) 
1
8
10
5
9
7
6
4
3
2

>  <PUBCHEM_MMFF94_PARTIAL_CHARGES>  (1) 
38
1 -0.57
10 0.1
11 -0.15
12 -0.15
13 -0.15
14 -0.15
15 -0.14
16 -0.15
17 -0.15
18 -0.15
19 -0.15
2 -0.6
20 -0.15
21 -0.15
22 -0.15
23 -0.15
24 0.2
25 0.57
26 0.4
27 0.15
28 0.15
29 0.15
3 -0.62
30 0.15
31 0.15
32 0.15
33 0.15
34 0.15
35 0.15
36 0.15
37 0.15
38 0.15
4 -0.8
41 0.37
42 0.37
5 0.1
8 0.31
9 0.31

>  <PUBCHEM_EFFECTIVE_ROTOR_COUNT>  (1) 
4

>  <PUBCHEM_PHARMACOPHORE_FEATURES>  (1) 
9
1 1 acceptor
1 2 cation
1 2 donor
1 3 acceptor
1 4 donor
6 10 15 16 17 20 21 rings
6 3 5 6 7 8 9 rings
6 6 8 11 13 18 22 rings
6 7 9 12 14 19 23 rings

>  <PUBCHEM_HEAVY_ATOM_COUNT>  (1) 
25

>  <PUBCHEM_ATOM_DEF_STEREO_COUNT>  (1) 
0

>  <PUBCHEM_ATOM_UDEF_STEREO_COUNT>  (1) 
0

>  <PUBCHEM_BOND_DEF_STEREO_COUNT>  (1) 
0

>  <PUBCHEM_BOND_UDEF_STEREO_COUNT>  (1) 
0

>  <PUBCHEM_ISOTOPIC_ATOM_COUNT>  (1) 
0

>  <PUBCHEM_COMPONENT_COUNT>  (1) 
1

>  <PUBCHEM_CACTVS_TAUTO_COUNT>  (1) 
4

>  <PUBCHEM_CONFORMER_ID>  (1) 
0000B97B00000001

>  <PUBCHEM_MMFF94_ENERGY>  (1) 
97.7708

>  <PUBCHEM_FEATURE_SELFOVERLAP>  (1) 
45.732

>  <PUBCHEM_SHAPE_FINGERPRINT>  (1) 
10090160 65 18341888649358777165
10165383 225 18262808483714112140
10411042 1 18051413959959642730
10835480 77 18409442571556899829
1100329 8 18340475760470250546
114674 6 18113903719148988667
11582403 64 15946185810661142076
12035758 1 18337933638131738418
12107183 9 17909277879976069537
12403259 226 18043527214022760631
12553582 1 18125147239756465222
12730499 353 18409174336929998208
12788726 201 16895666568544956626
13009979 54 17558834988182316850
13140716 1 18339071709601123528
13533116 47 18408612435618438755
13785724 45 17768261110897532527
13955234 65 18411417310728243834
14341114 328 17846502552072676863
14565420 104 18198902689552256408
146900 427 18059576935904465929
14790565 3 17906174310241842693
14955137 171 18269278972109733150
15142526 21 17912640499365073800
15250474 111 18201147850201167703
15927050 60 18197216065386982270
16126227 98 17906452478574621168
16992610 120 18046641268342824060
17138139 8 17195688570806555486
17492 89 18268149769119208515
17844677 252 18340494361731185505
1813 80 17842844313668156254
18785283 64 18408038516086402198
19319366 153 18130219462424149465
19377110 9 18059848519887816471
1979834 28 18260832643548324437
20157964 124 18411979161787566293
20465049 17 18341626931742922342
20505436 4 17845654875340924396
21049683 271 18262247616914261782
21197605 99 18191874633188015603
21344244 78 18058719204727911969
21756936 100 17842272859626955164
21859007 373 17532076212948197133
2255824 54 18342172246402415934
23557571 272 17385723578353912677
23558518 356 17264958971630043837
23559900 14 18338515227646943075
23572383 38 17896044398737641291
23845131 108 18193833979766029090
239999 70 18131081419405730310
283562 15 17112676650675939136
3117164 225 18053109419758614953
31174 14 18335981965456573550
3178227 256 18409445891402589376
3421961 26 18337390426924732410
350125 39 18265334083170732590
4340502 62 18341337794349382835
474 4 18342168999117340296
5309563 4 18121780525966356554
59755656 520 18197777919765060124
621550 34 18334573564213389429
6679774 75 18040987489347027882
7399639 24 18261947544049216477
8272917 22 18341897380932260036
86090 222 17459774552719230179
8988823 20 18410858750758925775
9777508 108 17908136938776855026

>  <PUBCHEM_SHAPE_MULTIPOLES>  (1) 
493.68
11.9
4.15
1.16
23.46
1.81
-0.28
-0.75
4.88
-7.76
0.23
0.7
-0.14
0.55

>  <PUBCHEM_SHAPE_SELFOVERLAP>  (1) 
1104.928

>  <PUBCHEM_SHAPE_VOLUME>  (1) 
259.7

>  <PUBCHEM_COORDINATE_TYPE>  (1) 
2
5
10

$$$$
