47484
     RDKit          3D

 24 27  0  0  0  0  0  0  0  0999 V2000
   -6.2658   -0.0849   -0.0884 O   0  0  0  0  0  0  0  0  0  0  0  0
   -5.4590   -0.0949    1.9533 O   0  0  0  0  0  0  0  0  0  0  0  0
   -0.0721   -0.1604   -1.3596 N   0  0  0  0  0  0  0  0  0  0  0  0
    3.5407    0.2048    0.7339 N   0  0  0  0  0  0  0  0  0  0  0  0
   -5.2970   -0.0971    0.7090 N   0  0  0  0  0  0  0  0  0  0  0  0
    1.1531   -0.0364   -0.6498 C   0  0  0  0  0  0  0  0  0  0  0  0
    1.6368    1.2332   -0.3180 C   0  0  0  0  0  0  0  0  0  0  0  0
    1.8643   -1.1853   -0.2890 C   0  0  0  0  0  0  0  0  0  0  0  0
    2.8517    1.3082    0.3840 C   0  0  0  0  0  0  0  0  0  0  0  0
    3.0703   -1.0156    0.4119 C   0  0  0  0  0  0  0  0  0  0  0  0
    0.9427    2.4046   -0.6677 C   0  0  0  0  0  0  0  0  0  0  0  0
    1.4017   -2.4735   -0.6093 C   0  0  0  0  0  0  0  0  0  0  0  0
   -1.3550   -0.1430   -0.8515 C   0  0  0  0  0  0  0  0  0  0  0  0
    3.3385    2.5694    0.7172 C   0  0  0  0  0  0  0  0  0  0  0  0
    3.7831   -2.1556    0.7739 C   0  0  0  0  0  0  0  0  0  0  0  0
    1.4508    3.6533   -0.3226 C   0  0  0  0  0  0  0  0  0  0  0  0
    2.1332   -3.5971   -0.2359 C   0  0  0  0  0  0  0  0  0  0  0  0
    2.6512    3.7356    0.3713 C   0  0  0  0  0  0  0  0  0  0  0  0
    3.3263   -3.4373    0.4571 C   0  0  0  0  0  0  0  0  0  0  0  0
   -2.4762   -0.1317   -1.7067 C   0  0  0  0  0  0  0  0  0  0  0  0
   -1.5865   -0.1393    0.5395 C   0  0  0  0  0  0  0  0  0  0  0  0
   -3.7730   -0.1175   -1.1929 C   0  0  0  0  0  0  0  0  0  0  0  0
   -2.8833   -0.1253    1.0532 C   0  0  0  0  0  0  0  0  0  0  0  0
   -3.9765   -0.1143    0.1870 C   0  0  0  0  0  0  0  0  0  0  0  0
  1  5  1  0
  2  5  2  0
  3  6  1  0
  3 13  1  0
  4  9  2  0
  4 10  1  0
  5 24  1  0
  6  7  2  0
  6  8  1  0
  7  9  1  0
  7 11  1  0
  8 10  2  0
  8 12  1  0
  9 14  1  0
 10 15  1  0
 11 16  2  0
 12 17  2  0
 13 20  2  0
 13 21  1  0
 14 18  2  0
 15 19  2  0
 16 18  1  0
 17 19  1  0
 20 22  1  0
 21 23  2  0
 22 24  2  0
 23 24  1  0
M  CHG  2   1  -1   5   1
M  END
>  <PUBCHEM_COMPOUND_CID>  (1) 
47484

>  <PUBCHEM_CONFORMER_RMSD>  (1) 
0.6

>  <PUBCHEM_CONFORMER_DIVERSEORDER>  (1) 
1
2
3

>  <PUBCHEM_MMFF94_PARTIAL_CHARGES>  (1) 
35
1 -0.52
10 0.31
11 -0.15
12 -0.15
13 0.1
14 -0.15
15 -0.15
16 -0.15
17 -0.15
18 -0.15
19 -0.15
2 -0.52
20 -0.15
21 -0.15
22 -0.15
23 -0.15
24 0.13
25 0.4
26 0.15
27 0.15
28 0.15
29 0.15
3 -0.6
30 0.15
31 0.15
32 0.15
33 0.15
34 0.15
35 0.15
36 0.15
37 0.15
4 -0.62
5 0.91
6 0.1
9 0.31

>  <PUBCHEM_EFFECTIVE_ROTOR_COUNT>  (1) 
3

>  <PUBCHEM_PHARMACOPHORE_FEATURES>  (1) 
10
1 1 acceptor
1 1 anion
1 2 acceptor
1 3 cation
1 3 donor
1 4 acceptor
6 13 20 21 22 23 24 rings
6 4 6 7 8 9 10 rings
6 7 9 11 14 16 18 rings
6 8 10 12 15 17 19 rings

>  <PUBCHEM_HEAVY_ATOM_COUNT>  (1) 
24

>  <PUBCHEM_ATOM_DEF_STEREO_COUNT>  (1) 
0

>  <PUBCHEM_ATOM_UDEF_STEREO_COUNT>  (1) 
0

>  <PUBCHEM_BOND_DEF_STEREO_COUNT>  (1) 
0

>  <PUBCHEM_BOND_UDEF_STEREO_COUNT>  (1) 
0

>  <PUBCHEM_ISOTOPIC_ATOM_COUNT>  (1) 
0

>  <PUBCHEM_COMPONENT_COUNT>  (1) 
1

>  <PUBCHEM_CACTVS_TAUTO_COUNT>  (1) 
2

>  <PUBCHEM_CONFORMER_ID>  (1) 
0000B97C00000001

>  <PUBCHEM_MMFF94_ENERGY>  (1) 
101.4424

>  <PUBCHEM_FEATURE_SELFOVERLAP>  (1) 
50.889

>  <PUBCHEM_SHAPE_FINGERPRINT>  (1) 
10411042 1 18122904231630233590
1100329 8 18268138946228883920
114674 6 18113900437783353587
11582403 64 15875249769812046204
11640471 11 17774443913746026221
12107183 9 18053952753909102041
12236239 1 17704068520847912950
12390115 104 17689718979879594356
12553582 1 18268421352871178430
12633257 1 18114730646513549930
12788726 201 17327445931307326706
13134695 92 18336538322830413390
13140716 1 18194678396391023712
13533116 47 18335709338724500251
13583140 156 18336259055741173719
13785724 45 17911812275367969823
13955234 65 18410576214297611003
14790565 3 18337953497955779564
14955137 171 18411707573825720486
15142526 21 17840300356650770249
15475509 8 17988660588266691652
15475509 84 18057607568497675697
15842332 3 17845639465251298623
17138139 8 16907746318219933503
17818456 19 17487629520025047641
1813 80 18057333786207961302
18785283 64 18334575788937486884
19377110 9 17916593171659708379
20157964 124 18411979196300045205
20511986 3 17631998849916356165
20715895 44 17699861614253704041
20739085 24 18271811155619382310
20832881 197 18115871785233572195
21041028 32 18267300928762431020
21049683 271 18261404325681312244
21065201 7 16515678906313353327
21197605 99 18047196533861040339
21344244 78 18130213874856327537
21421861 104 18200887192170915137
21756936 100 17696475457272941316
2255824 54 18341611551148634414
23559900 14 18409449198047625731
23845131 108 18049153668346169507
25147074 1 17845922044319505935
2748010 2 17908952472057981524
3091708 16 9503948193454887748
31174 14 18335700520423438030
3178227 256 18335422404886788360
341906 21 15841552947114696043
3421961 26 18408884001541276898
350125 39 17904479963276951574
38570 142 18056497259617425260
394222 165 17987809629846990939
474 4 18270116945391941537
5104073 3 18338813273261597075
5309563 4 18121778327027750331
633830 44 18058454385782236852
6443956 14 18264205816346376862
81228 2 17615121084468202964
8272917 22 18412828009800530317
86090 222 17386871455740817803
8988823 20 18410009936404047847
9841814 1 18339372867743318318

>  <PUBCHEM_SHAPE_MULTIPOLES>  (1) 
467.23
9.69
4.17
1.25
17.65
1.01
-0.01
-1.75
-3.63
-7.8
-0.13
1.26
-0.05
0.04

>  <PUBCHEM_SHAPE_SELFOVERLAP>  (1) 
1055.354

>  <PUBCHEM_SHAPE_VOLUME>  (1) 
244.3

>  <PUBCHEM_COORDINATE_TYPE>  (1) 
2
5
10

$$$$
