47488
     RDKit          3D

 18 20  0  0  0  0  0  0  0  0999 V2000
   -2.3803   -2.9988   -0.3645 N   0  0  0  0  0  0  0  0  0  0  0  0
   -0.2762   -0.4491   -0.0978 C   0  0  0  0  0  0  0  0  0  0  0  0
   -2.0536   -1.6063   -0.2628 C   0  0  0  0  0  0  0  0  0  0  0  0
   -0.9205   -1.2507   -1.2479 C   0  0  0  0  0  0  0  0  0  0  0  0
   -1.0337   -1.3792    0.8725 C   0  0  0  0  0  0  0  0  0  0  0  0
    1.2706   -0.5128   -0.0194 C   0  0  0  0  0  0  0  0  0  0  0  0
   -0.6446    1.0564   -0.0257 C   0  0  0  0  0  0  0  0  0  0  0  0
    1.9015   -0.6148    1.2205 C   0  0  0  0  0  0  0  0  0  0  0  0
   -0.7458    1.8052   -1.1973 C   0  0  0  0  0  0  0  0  0  0  0  0
    2.0316   -0.4668   -1.1875 C   0  0  0  0  0  0  0  0  0  0  0  0
   -0.8737    1.6582    1.2108 C   0  0  0  0  0  0  0  0  0  0  0  0
   -3.4573   -3.3539    0.5504 C   0  0  0  0  0  0  0  0  0  0  0  0
    3.2935   -0.6712    1.2923 C   0  0  0  0  0  0  0  0  0  0  0  0
   -1.0774    3.1587   -1.1324 C   0  0  0  0  0  0  0  0  0  0  0  0
    3.4236   -0.5230   -1.1157 C   0  0  0  0  0  0  0  0  0  0  0  0
   -1.2051    3.0116    1.2758 C   0  0  0  0  0  0  0  0  0  0  0  0
    4.0547   -0.6256    0.1242 C   0  0  0  0  0  0  0  0  0  0  0  0
   -1.3073    3.7620    0.1043 C   0  0  0  0  0  0  0  0  0  0  0  0
  1  3  1  0
  1 12  1  0
  2  4  1  0
  2  5  1  0
  2  6  1  0
  2  7  1  0
  3  4  1  0
  3  5  1  0
  6  8  2  0
  6 10  1  0
  7  9  2  0
  7 11  1  0
  8 13  1  0
  9 14  1  0
 10 15  2  0
 11 16  2  0
 13 17  2  0
 14 18  2  0
 15 17  1  0
 16 18  1  0
M  END
>  <PUBCHEM_COMPOUND_CID>  (1) 
47488

>  <PUBCHEM_CONFORMER_RMSD>  (1) 
0.6

>  <PUBCHEM_CONFORMER_DIVERSEORDER>  (1) 
1
6
7
4
5
2
3

>  <PUBCHEM_MMFF94_PARTIAL_CHARGES>  (1) 
27
1 -0.84
10 -0.15
11 -0.15
12 0.27
13 -0.15
14 -0.15
15 -0.15
16 -0.15
17 -0.15
18 -0.15
2 0.22
24 0.36
25 0.15
26 0.15
27 0.15
28 0.15
3 0.21
32 0.15
33 0.15
34 0.15
35 0.15
36 0.15
37 0.15
6 -0.11
7 -0.11
8 -0.15
9 -0.15

>  <PUBCHEM_EFFECTIVE_ROTOR_COUNT>  (1) 
3.8

>  <PUBCHEM_PHARMACOPHORE_FEATURES>  (1) 
5
1 1 cation
1 1 donor
4 2 3 4 5 rings
6 6 8 10 13 15 17 rings
6 7 9 11 14 16 18 rings

>  <PUBCHEM_HEAVY_ATOM_COUNT>  (1) 
18

>  <PUBCHEM_ATOM_DEF_STEREO_COUNT>  (1) 
0

>  <PUBCHEM_ATOM_UDEF_STEREO_COUNT>  (1) 
0

>  <PUBCHEM_BOND_DEF_STEREO_COUNT>  (1) 
0

>  <PUBCHEM_BOND_UDEF_STEREO_COUNT>  (1) 
0

>  <PUBCHEM_ISOTOPIC_ATOM_COUNT>  (1) 
0

>  <PUBCHEM_COMPONENT_COUNT>  (1) 
1

>  <PUBCHEM_CACTVS_TAUTO_COUNT>  (1) 
1

>  <PUBCHEM_CONFORMER_ID>  (1) 
0000B98000000001

>  <PUBCHEM_MMFF94_ENERGY>  (1) 
59.6674

>  <PUBCHEM_FEATURE_SELFOVERLAP>  (1) 
25.373

>  <PUBCHEM_SHAPE_FINGERPRINT>  (1) 
1 1 17257931494526172910
10165383 225 17334821528299994516
11578080 2 17462251910812719997
121448 382 17981584001732025517
12532896 13 17982444893466264204
12643181 29 17764311636010990718
12788726 201 18334012778664950938
13134695 92 18053936531537952543
13140716 1 18411416258413763881
13149001 5 17976219669594845725
133893 2 17259312983726697191
136203 1 18410855425900409355
13681431 1 17978793733225479143
13955234 65 16898497810987071377
14178342 30 18263352608767911106
14181834 199 17480844751338989743
14617773 55 17967253083382166634
14817 1 12737680764269866136
14955137 171 17479465980995312040
15309172 13 17832430795643527220
15842332 3 17895198745372749154
15906896 17 18115317648183725195
16945 1 18339643339018766327
1813 80 18198351855754402247
18785283 64 17107624389791925809
20097449 115 18267018551795186843
20510252 161 18269546157049306521
20600515 1 18337094778545401999
21041028 32 18196660807360947387
21296965 67 18265331896573741743
21304303 282 17615923839177347020
21524375 3 17623558753394464860
21731228 192 17830457172213341848
22112679 90 18194149470815002557
22907989 373 18413110533076426364
23419403 2 17907542034082381837
23557571 272 18341323466301618558
23558518 356 18051119298953155815
25 1 17197419924027039824
2748010 2 18126823105344569241
3071541 236 18123171434039540984
350125 39 17835248848208582515
3729539 64 16610861183904510518
458136 41 17404320503008913993
59755656 520 18051410665312901988
6049 1 17918275338323681554
621550 5 17774181105203553714
6442390 28 17910412592818102089
6786 2 17477800912105260875
7364860 26 17548703327623884223
7615 1 17967530143575472254
81228 2 18412546487684654875
9841814 1 17975126862142636091

>  <PUBCHEM_SHAPE_MULTIPOLES>  (1) 
365.45
4.96
4.35
1.43
6.13
0.57
-0.03
1.22
-0.38
-7.07
-0.22
0.28
-0.38
0

>  <PUBCHEM_SHAPE_SELFOVERLAP>  (1) 
788.58

>  <PUBCHEM_SHAPE_VOLUME>  (1) 
202.3

>  <PUBCHEM_COORDINATE_TYPE>  (1) 
2
5
10

$$$$
