47497
     RDKit          3D

 20 23  0  0  1  0  0  0  0  0999 V2000
   -3.7819   -1.3070    1.4834 O   0  0  0  0  0  0  0  0  0  0  0  0
   -4.4194    0.2533   -1.7293 O   0  0  0  0  0  0  0  0  0  0  0  0
   -1.9711   -0.8022    0.0490 C   0  0  0  0  0  0  0  0  0  0  0  0
   -3.4694   -0.9960    0.1251 C   0  0  0  0  0  0  0  0  0  0  0  0
   -1.3835    0.4749    0.1653 C   0  0  0  0  0  0  0  0  0  0  0  0
    0.0428    0.6200    0.1267 C   0  0  0  0  0  0  0  0  0  0  0  0
   -4.2688    0.2399   -0.3119 C   0  0  0  0  0  0  0  0  0  0  0  0
    0.8733   -0.5311   -0.0155 C   0  0  0  0  0  0  0  0  0  0  0  0
   -1.1550   -1.9212   -0.0857 C   0  0  0  0  0  0  0  0  0  0  0  0
    2.3117   -0.3987   -0.0524 C   0  0  0  0  0  0  0  0  0  0  0  0
   -2.2983    1.6246    0.3351 C   0  0  0  0  0  0  0  0  0  0  0  0
   -3.6111    1.5230    0.0876 C   0  0  0  0  0  0  0  0  0  0  0  0
    0.2304   -1.7845   -0.1178 C   0  0  0  0  0  0  0  0  0  0  0  0
    0.6859    1.8723    0.2147 C   0  0  0  0  0  0  0  0  0  0  0  0
    2.8921    0.8887    0.0478 C   0  0  0  0  0  0  0  0  0  0  0  0
    2.0721    2.0048    0.1780 C   0  0  0  0  0  0  0  0  0  0  0  0
    3.2183   -1.4839   -0.1847 C   0  0  0  0  0  0  0  0  0  0  0  0
    4.2874    1.0593    0.0155 C   0  0  0  0  0  0  0  0  0  0  0  0
    4.6047   -1.3049   -0.2156 C   0  0  0  0  0  0  0  0  0  0  0  0
    5.1399   -0.0313   -0.1155 C   0  0  0  0  0  0  0  0  0  0  0  0
  1  4  1  0
  2  7  1  0
  3  4  1  0
  3  5  2  0
  3  9  1  0
  4  7  1  0
  5  6  1  0
  5 11  1  0
  6  8  2  0
  6 14  1  0
  7 12  1  0
  8 10  1  0
  8 13  1  0
  9 13  2  0
 10 15  2  0
 10 17  1  0
 11 12  2  0
 14 16  2  0
 15 16  1  0
 15 18  1  0
 17 19  2  0
 18 20  2  0
 19 20  1  0
M  END
>  <PUBCHEM_COMPOUND_CID>  (1) 
47497

>  <PUBCHEM_CONFORMER_RMSD>  (1) 
0.6

>  <PUBCHEM_CONFORMER_DIVERSEORDER>  (1) 
1

>  <PUBCHEM_MMFF94_PARTIAL_CHARGES>  (1) 
28
1 -0.68
11 -0.18
12 -0.29
13 -0.15
14 -0.15
16 -0.15
17 -0.15
18 -0.15
19 -0.15
2 -0.68
20 -0.15
23 0.15
24 0.15
25 0.15
26 0.15
27 0.15
28 0.15
29 0.15
3 -0.14
30 0.4
31 0.15
32 0.4
33 0.15
34 0.15
4 0.42
5 0.03
7 0.42
9 -0.15

>  <PUBCHEM_EFFECTIVE_ROTOR_COUNT>  (1) 
0.4

>  <PUBCHEM_PHARMACOPHORE_FEATURES>  (1) 
8
1 1 acceptor
1 1 donor
1 2 acceptor
1 2 donor
6 10 15 17 18 19 20 rings
6 3 4 5 7 11 12 rings
6 3 5 6 8 9 13 rings
6 6 8 10 14 15 16 rings

>  <PUBCHEM_HEAVY_ATOM_COUNT>  (1) 
20

>  <PUBCHEM_ATOM_DEF_STEREO_COUNT>  (1) 
2

>  <PUBCHEM_ATOM_UDEF_STEREO_COUNT>  (1) 
0

>  <PUBCHEM_BOND_DEF_STEREO_COUNT>  (1) 
0

>  <PUBCHEM_BOND_UDEF_STEREO_COUNT>  (1) 
0

>  <PUBCHEM_ISOTOPIC_ATOM_COUNT>  (1) 
0

>  <PUBCHEM_COMPONENT_COUNT>  (1) 
1

>  <PUBCHEM_CACTVS_TAUTO_COUNT>  (1) 
1

>  <PUBCHEM_CONFORMER_ID>  (1) 
0000B98900000001

>  <PUBCHEM_MMFF94_ENERGY>  (1) 
67.8814

>  <PUBCHEM_FEATURE_SELFOVERLAP>  (1) 
40.663

>  <PUBCHEM_SHAPE_FINGERPRINT>  (1) 
10411042 1 14881156388504825448
10967382 1 18412265012997997050
11471102 20 18412259541283469612
12011746 2 18410008819063542252
12236239 1 17489588965730491977
12403259 226 18340483469314450953
12403259 415 18409161113016357277
13140716 1 18125168379026229427
13583140 156 17240198842014340729
13675066 3 18334859467232420506
13862211 1 18341045234015011174
14866123 147 17263860083299559250
15099037 51 18411134727523408966
15196674 1 18411702080118956408
15375358 24 18342458149374558862
15442244 35 18412546487964210248
15536298 74 18343582949801272832
16945 1 18268429220712693992
17349148 13 17989488511114469574
17804303 29 18411143549449668208
1813 80 17313105259218861460
18186145 218 17968093114217714073
19591789 44 18410576167216812378
200 152 17917988378283395677
20645477 70 18342175548932001998
20775438 99 16763896078788214311
21029758 11 18272647943807589600
21033648 29 18188195572739071925
21267235 1 18411993455269870222
21279426 13 18266178323058477526
221357 26 18341040866128249453
221490 88 18336553831751558304
23402539 116 18130782334994365116
23493267 7 17894341194753256361
23557571 272 13038916512206258539
23559900 14 18270959150436112768
2748010 2 18411136943758273029
3004659 81 18261397698927004438
335352 9 18339644417087381892
34934 24 18340761628987443386
350125 39 18411144645077999913
4214541 1 18410857642061459352
474 4 17314519321498577700
4921388 177 16371301016293767347
5104073 3 18411139121607314928
69090 78 18272366481805315150
9709674 26 18340211876988871126
9981440 41 17400075769846028968

>  <PUBCHEM_SHAPE_MULTIPOLES>  (1) 
399.85
9.63
2.11
0.82
2.07
0.12
-0.07
-0.33
-0.94
0.15
0.15
-0.82
-0.08
0.42

>  <PUBCHEM_SHAPE_SELFOVERLAP>  (1) 
906.143

>  <PUBCHEM_SHAPE_VOLUME>  (1) 
208.7

>  <PUBCHEM_COORDINATE_TYPE>  (1) 
2
5
10

$$$$
