47494
     RDKit          3D

 17 18  0  0  0  0  0  0  0  0999 V2000
    0.7275   -2.3996    0.4442 O   0  0  0  0  0  0  0  0  0  0  0  0
    5.7629    1.4515   -0.2814 N   0  0  0  0  0  0  0  0  0  0  0  0
   -4.1759    1.8174    0.0879 N   0  0  0  0  0  0  0  0  0  0  0  0
    2.0647   -0.5018    0.1064 C   0  0  0  0  0  0  0  0  0  0  0  0
    2.1861    0.8401    0.4676 C   0  0  0  0  0  0  0  0  0  0  0  0
    3.1716   -1.1949   -0.3834 C   0  0  0  0  0  0  0  0  0  0  0  0
    0.7839   -1.1775    0.2396 C   0  0  0  0  0  0  0  0  0  0  0  0
    4.5210    0.7958   -0.1512 C   0  0  0  0  0  0  0  0  0  0  0  0
    3.4141    1.4890    0.3387 C   0  0  0  0  0  0  0  0  0  0  0  0
    4.3997   -0.5462   -0.5121 C   0  0  0  0  0  0  0  0  0  0  0  0
   -2.9636   -0.2521    0.0374 C   0  0  0  0  0  0  0  0  0  0  0  0
   -0.4749   -0.3696    0.0930 C   0  0  0  0  0  0  0  0  0  0  0  0
   -1.6776   -0.9567    0.1813 C   0  0  0  0  0  0  0  0  0  0  0  0
   -4.1109   -0.9545   -0.2668 C   0  0  0  0  0  0  0  0  0  0  0  0
   -3.0296    1.1105    0.2055 C   0  0  0  0  0  0  0  0  0  0  0  0
   -5.3099   -0.2622   -0.3961 C   0  0  0  0  0  0  0  0  0  0  0  0
   -5.2891    1.1107   -0.2106 C   0  0  0  0  0  0  0  0  0  0  0  0
  1  7  2  0
  2  8  1  0
  3 15  2  0
  3 17  1  0
  4  5  2  0
  4  6  1  0
  4  7  1  0
  5  9  1  0
  6 10  2  0
  7 12  1  0
  8  9  2  0
  8 10  1  0
 11 13  1  0
 11 14  2  0
 11 15  1  0
 12 13  2  0
 14 16  1  0
 16 17  2  0
M  END
>  <PUBCHEM_COMPOUND_CID>  (1) 
47494

>  <PUBCHEM_CONFORMER_RMSD>  (1) 
0.6

>  <PUBCHEM_CONFORMER_DIVERSEORDER>  (1) 
1
12
11
6
7
5
4
13
8
3
14
2
9
10
15

>  <PUBCHEM_MMFF94_PARTIAL_CHARGES>  (1) 
29
1 -0.57
10 -0.15
11 0.03
12 -0.14
13 -0.18
14 -0.15
15 0.16
16 -0.15
17 0.16
18 0.15
19 0.15
2 -0.9
20 0.15
21 0.15
22 0.15
23 0.15
24 0.15
25 0.15
26 0.15
27 0.4
28 0.4
29 0.15
3 -0.62
4 0.09
5 -0.15
6 -0.15
7 0.47
8 0.1
9 -0.15

>  <PUBCHEM_EFFECTIVE_ROTOR_COUNT>  (1) 
3

>  <PUBCHEM_PHARMACOPHORE_FEATURES>  (1) 
6
1 1 acceptor
1 2 cation
1 2 donor
1 3 acceptor
6 3 11 14 15 16 17 rings
6 4 5 6 8 9 10 rings

>  <PUBCHEM_HEAVY_ATOM_COUNT>  (1) 
17

>  <PUBCHEM_ATOM_DEF_STEREO_COUNT>  (1) 
0

>  <PUBCHEM_ATOM_UDEF_STEREO_COUNT>  (1) 
0

>  <PUBCHEM_BOND_DEF_STEREO_COUNT>  (1) 
0

>  <PUBCHEM_BOND_UDEF_STEREO_COUNT>  (1) 
1

>  <PUBCHEM_ISOTOPIC_ATOM_COUNT>  (1) 
0

>  <PUBCHEM_COMPONENT_COUNT>  (1) 
1

>  <PUBCHEM_CACTVS_TAUTO_COUNT>  (1) 
4

>  <PUBCHEM_CONFORMER_ID>  (1) 
0000B98600000001

>  <PUBCHEM_MMFF94_ENERGY>  (1) 
63.4835

>  <PUBCHEM_FEATURE_SELFOVERLAP>  (1) 
30.446

>  <PUBCHEM_SHAPE_FINGERPRINT>  (1) 
10014705 185 18261107436193849189
100836 57 18333735736310539956
10498660 4 18336260154915619605
11128504 68 14907897214833011664
11471102 20 18342741819279894354
12107183 9 17619631280912132971
12507557 5 17313107492454058101
12596602 18 15068630408608338564
12670543 26 18271817804676805334
12730499 353 18410865355838950146
12916748 109 18409172125021834259
13081056 2 18411981360267216949
13740256 8 9871749100500145962
14251764 18 18260259760099847394
14252887 29 11746927660258252840
14528608 73 18412259545378041903
15196674 1 18411419488187147585
15788980 27 12535631569971524035
17834072 33 18201716262735226191
17959699 21 18412263917475569993
200 152 17704070690254770827
20300324 65 18201718457959288945
20645477 70 17988650649274674718
212847 35 18408039611492999320
21652331 79 18408602535423753501
221357 26 18131913754092769921
22289505 5 18272651217047364276
22854114 59 18040714762221399815
23402539 116 18342451573679213710
23402655 69 18273496775621781678
23559900 14 18057034710186473131
245318 6 17098918349365695900
2916195 48 18342170128888872856
29717793 49 17060065809128180732
3004659 81 18410578345466669590
34797466 226 17632021930648313285
351380 180 18412543223414629276
3545911 37 18411139147424460561
4028521 119 18409727340166501185
4072396 5 18343010100581341202
4214541 1 18413670201748471421
441001 317 18410575089432858465
465052 167 8286206059059384128
474 4 18041000665214492517
495365 180 17417521523596350882
4990 188 18131637768115658766
5104073 3 18187930534612448059
5281201 14 18130512946097706558
542803 24 17967251996639207911
59755656 520 17894625985160480450
633830 44 18409163307565135318
77779 3 18413389817635568135

>  <PUBCHEM_SHAPE_MULTIPOLES>  (1) 
334.02
13.17
1.82
0.69
2.75
0.06
-0.01
-5.26
-2.17
-0.32
0.14
-0.09
0.03
0.04

>  <PUBCHEM_SHAPE_SELFOVERLAP>  (1) 
718.646

>  <PUBCHEM_SHAPE_VOLUME>  (1) 
183.6

>  <PUBCHEM_COORDINATE_TYPE>  (1) 
2
5
10

$$$$
