47495
     RDKit          3D

 14 14  0  0  0  0  0  0  0  0999 V2000
    0.7786    0.9563   -0.3061 S   0  0  0  0  0  0  0  0  0  0  0  0
    0.7539    1.5919    0.9967 O   0  0  0  0  0  0  0  0  0  0  0  0
    1.1080    1.7168   -1.4964 O   0  0  0  0  0  0  0  0  0  0  0  0
   -0.6893    0.1428   -0.5864 N   0  0  0  0  0  0  0  0  0  0  0  0
   -1.4291   -0.4234    0.5736 C   0  0  0  0  0  0  0  0  0  0  0  0
   -2.3717    0.6375    1.1456 C   0  0  0  0  0  0  0  0  0  0  0  0
   -2.1814   -1.6816    0.1351 C   0  0  0  0  0  0  0  0  0  0  0  0
   -3.5579    0.9329    0.2278 C   0  0  0  0  0  0  0  0  0  0  0  0
   -3.3685   -1.3741   -0.7775 C   0  0  0  0  0  0  0  0  0  0  0  0
   -4.3036   -0.3407   -0.1576 C   0  0  0  0  0  0  0  0  0  0  0  0
    1.9063   -0.4162   -0.2240 C   0  0  0  0  0  0  0  0  0  0  0  0
    3.3313    0.0519    0.0266 C   0  0  0  0  0  0  0  0  0  0  0  0
    4.3015   -1.1267    0.0769 C   0  0  0  0  0  0  0  0  0  0  0  0
    5.7219   -0.6674    0.3658 C   0  0  0  0  0  0  0  0  0  0  0  0
  1  2  2  0
  1  3  2  0
  1  4  1  0
  1 11  1  0
  4  5  1  0
  5  6  1  0
  5  7  1  0
  6  8  1  0
  7  9  1  0
  8 10  1  0
  9 10  1  0
 11 12  1  0
 12 13  1  0
 13 14  1  0
M  END
>  <PUBCHEM_COMPOUND_CID>  (1) 
47495

>  <PUBCHEM_CONFORMER_RMSD>  (1) 
0.8

>  <PUBCHEM_CONFORMER_DIVERSEORDER>  (1) 
1
65
29
37
17
35
58
2
8
48
50
4
68
39
22
21
13
33
34
23
62
36
20
42
64
7
9
47
26
57
41
25
53
31
24
14
19
28
54
43
51
3
11
44
27
52
60
15
55
5
6
63
56
40
67
16
46
12
45
59
49
66
18
30
32
38
61
10

>  <PUBCHEM_MMFF94_PARTIAL_CHARGES>  (1) 
7
1 1.33
11 0.11
2 -0.65
26 0.42
3 -0.65
4 -0.91
5 0.36

>  <PUBCHEM_EFFECTIVE_ROTOR_COUNT>  (1) 
6.2

>  <PUBCHEM_PHARMACOPHORE_FEATURES>  (1) 
5
1 14 hydrophobe
1 2 acceptor
1 3 acceptor
1 4 donor
6 5 6 7 8 9 10 rings

>  <PUBCHEM_HEAVY_ATOM_COUNT>  (1) 
14

>  <PUBCHEM_ATOM_DEF_STEREO_COUNT>  (1) 
0

>  <PUBCHEM_ATOM_UDEF_STEREO_COUNT>  (1) 
0

>  <PUBCHEM_BOND_DEF_STEREO_COUNT>  (1) 
0

>  <PUBCHEM_BOND_UDEF_STEREO_COUNT>  (1) 
0

>  <PUBCHEM_ISOTOPIC_ATOM_COUNT>  (1) 
0

>  <PUBCHEM_COMPONENT_COUNT>  (1) 
1

>  <PUBCHEM_CACTVS_TAUTO_COUNT>  (1) 
1

>  <PUBCHEM_CONFORMER_ID>  (1) 
0000B98700000001

>  <PUBCHEM_MMFF94_ENERGY>  (1) 
1.4463

>  <PUBCHEM_FEATURE_SELFOVERLAP>  (1) 
25.389

>  <PUBCHEM_SHAPE_FINGERPRINT>  (1) 
10465860 250 17917711296741763512
12186901 62 13262394462412317115
12251169 10 16487249985162895428
124424 183 18130786758968941857
12815109 37 18334855013520295358
12932764 1 17985844854508611309
13690532 89 18407760343786743235
17834072 14 17918275354706959209
17834072 33 18272369815106034124
17834072 8 18187918465880692999
1813 80 18187940434649026726
18186145 218 14851611011499951308
18511873 20 18334864904624126393
187816 3 15864074248070738968
200 152 17917986196476978215
20279233 1 16486983898985415357
20281475 54 18188213203442249798
20325693 3 13695588854059136371
204376 136 13183015233387901196
20645477 70 17821731658699906186
20671657 53 18113622304528088620
20711985 327 18335989718147037828
21119208 17 14779267505752518634
22485316 2 18411135818919966186
22854114 59 13686300171100476434
232386 152 18273221927478915548
23402539 116 18113896027304996966
23532345 42 16988851583321520148
23557571 272 15984559839911550609
23559900 14 18201992261729043432
2916195 48 8069736370120000126
449060 50 15267059251193770470
74978 22 17822577238796684907
76465 3 17773867783039198703
9981440 41 17398672792650238616

>  <PUBCHEM_SHAPE_MULTIPOLES>  (1) 
275.24
9.82
1.59
0.99
9.7
0.06
-0.08
-3.57
0.78
-0.42
-0.14
-0.17
0.3
-0.62

>  <PUBCHEM_SHAPE_SELFOVERLAP>  (1) 
513.577

>  <PUBCHEM_SHAPE_VOLUME>  (1) 
172.4

>  <PUBCHEM_COORDINATE_TYPE>  (1) 
2
5
10

$$$$
