47490
     RDKit          3D

 19 21  0  0  0  0  0  0  0  0999 V2000
   -3.4670   -1.0124    0.0727 N   0  0  0  0  0  0  0  0  0  0  0  0
   -0.2635   -0.1505    0.0219 C   0  0  0  0  0  0  0  0  0  0  0  0
   -2.3890   -0.0643    0.0464 C   0  0  0  0  0  0  0  0  0  0  0  0
   -1.3528   -0.4653   -1.0244 C   0  0  0  0  0  0  0  0  0  0  0  0
   -1.3271   -0.4355    1.1025 C   0  0  0  0  0  0  0  0  0  0  0  0
    0.9639   -1.0930    0.0200 C   0  0  0  0  0  0  0  0  0  0  0  0
    0.3068    1.2941   -0.0048 C   0  0  0  0  0  0  0  0  0  0  0  0
    1.5340   -1.5030    1.2272 C   0  0  0  0  0  0  0  0  0  0  0  0
    0.5473    1.9235   -1.2248 C   0  0  0  0  0  0  0  0  0  0  0  0
    1.5059   -1.5361   -1.1886 C   0  0  0  0  0  0  0  0  0  0  0  0
    0.5774    1.9571    1.1909 C   0  0  0  0  0  0  0  0  0  0  0  0
   -4.4516   -0.6360    1.0864 C   0  0  0  0  0  0  0  0  0  0  0  0
   -4.0989   -1.1086   -1.2427 C   0  0  0  0  0  0  0  0  0  0  0  0
    2.6407   -2.3524    1.2259 C   0  0  0  0  0  0  0  0  0  0  0  0
    1.0598    3.2208   -1.2492 C   0  0  0  0  0  0  0  0  0  0  0  0
    2.6127   -2.3852   -1.1897 C   0  0  0  0  0  0  0  0  0  0  0  0
    1.0901    3.2542    1.1663 C   0  0  0  0  0  0  0  0  0  0  0  0
    3.1800   -2.7937    0.0175 C   0  0  0  0  0  0  0  0  0  0  0  0
    1.3311    3.8864   -0.0536 C   0  0  0  0  0  0  0  0  0  0  0  0
  1  3  1  0
  1 12  1  0
  1 13  1  0
  2  4  1  0
  2  5  1  0
  2  6  1  0
  2  7  1  0
  3  4  1  0
  3  5  1  0
  6  8  2  0
  6 10  1  0
  7  9  2  0
  7 11  1  0
  8 14  1  0
  9 15  1  0
 10 16  2  0
 11 17  2  0
 14 18  2  0
 15 19  2  0
 16 18  1  0
 17 19  1  0
M  END
>  <PUBCHEM_COMPOUND_CID>  (1) 
47490

>  <PUBCHEM_CONFORMER_RMSD>  (1) 
0.6

>  <PUBCHEM_CONFORMER_DIVERSEORDER>  (1) 
1
4
2
3

>  <PUBCHEM_MMFF94_PARTIAL_CHARGES>  (1) 
27
1 -0.75
10 -0.15
11 -0.15
12 0.27
13 0.27
14 -0.15
15 -0.15
16 -0.15
17 -0.15
18 -0.15
19 -0.15
2 0.22
25 0.15
26 0.15
27 0.15
28 0.15
3 0.21
35 0.15
36 0.15
37 0.15
38 0.15
39 0.15
40 0.15
6 -0.11
7 -0.11
8 -0.15
9 -0.15

>  <PUBCHEM_EFFECTIVE_ROTOR_COUNT>  (1) 
3.8

>  <PUBCHEM_PHARMACOPHORE_FEATURES>  (1) 
4
1 1 cation
4 2 3 4 5 rings
6 6 8 10 14 16 18 rings
6 7 9 11 15 17 19 rings

>  <PUBCHEM_HEAVY_ATOM_COUNT>  (1) 
19

>  <PUBCHEM_ATOM_DEF_STEREO_COUNT>  (1) 
0

>  <PUBCHEM_ATOM_UDEF_STEREO_COUNT>  (1) 
0

>  <PUBCHEM_BOND_DEF_STEREO_COUNT>  (1) 
0

>  <PUBCHEM_BOND_UDEF_STEREO_COUNT>  (1) 
0

>  <PUBCHEM_ISOTOPIC_ATOM_COUNT>  (1) 
0

>  <PUBCHEM_COMPONENT_COUNT>  (1) 
1

>  <PUBCHEM_CACTVS_TAUTO_COUNT>  (1) 
1

>  <PUBCHEM_CONFORMER_ID>  (1) 
0000B98200000001

>  <PUBCHEM_MMFF94_ENERGY>  (1) 
66.7703

>  <PUBCHEM_FEATURE_SELFOVERLAP>  (1) 
20.297

>  <PUBCHEM_SHAPE_FINGERPRINT>  (1) 
1 1 18122058964427062556
107951 10 16955078074083470204
11101153 10 18264785277177938550
11578080 2 17459732770775629828
12532896 13 17476643551489453349
12553582 1 18338804399084430311
12643181 29 17833842947544324172
12707595 3 18334296444513079035
12788726 201 17686326573847614459
13004483 165 18122903127443635531
13134695 92 18337099103756720047
13140716 1 17978230783214061832
13149001 5 18187941619654545843
133893 2 18336554918541918409
13533116 47 18265910219233422555
136203 1 17762057640307129328
13681431 1 18410855460138724317
13878862 14 18410005543217337549
13955234 65 18265625458089258963
14181834 199 18270104829442050527
14817 1 15145685252992566956
14955137 171 18200039563527379146
15502722 9 18265335199740858223
15842332 3 17846222224037142935
15906896 17 17251479586058951538
16945 1 18194377078211764088
1813 80 18270686363724632615
18785283 64 18044383956813849217
19765921 60 17626675151895070649
20097449 115 18337953381199436395
20361792 2 18338516331274664239
20567600 347 17763180641274973663
20600515 1 18342462482543256715
20645476 183 17399798692504086524
21041028 32 18339935796670289569
21304303 282 16747297412740907316
21524375 3 17835516407459579653
21731228 192 17687462781549438401
22112679 90 18052565203850612512
2255824 54 18339083795312456191
22907989 373 17835805197034485086
23419403 2 17827880084567087284
23557571 272 18051684452535756750
2748010 2 18195784315746079984
283562 15 18046346323472544114
3091708 16 9430210506425202824
458136 41 17976274735264974017
57210444 14 17688053198019320828
6049 1 17822008731683155423
6138700 20 18338525244049014044
633830 44 17697055973732085701
6442390 28 17401789895472044507
6786 2 17541689516995673188
7364860 26 18341897453983341419
7615 1 17846217800215312859
81228 2 17834961871178019913
81539 233 18048026665017613165
84936 31 18198609115704861335
9841814 1 18334573538559578363

>  <PUBCHEM_SHAPE_MULTIPOLES>  (1) 
386.03
5.38
4.5
1.5
6.41
5.09
0.03
-6.01
-0.16
-4.33
0.14
-0.09
0.01
-0.15

>  <PUBCHEM_SHAPE_SELFOVERLAP>  (1) 
830.564

>  <PUBCHEM_SHAPE_VOLUME>  (1) 
215.2

>  <PUBCHEM_COORDINATE_TYPE>  (1) 
2
5
10

$$$$
