475
     RDKit          3D

 15 15  0  0  1  0  0  0  0  0999 V2000
   -2.7359   -0.1062   -0.1640 P   0  0  0  0  0  0  0  0  0  0  0  0
    0.2664   -0.6687    1.1235 O   0  0  0  0  0  0  0  0  0  0  0  0
   -1.2065    0.3400   -0.4331 O   0  0  0  0  0  0  0  0  0  0  0  0
    1.2241    0.9345   -1.8848 O   0  0  0  0  0  0  0  0  0  0  0  0
    3.2418   -0.7586   -1.0281 O   0  0  0  0  0  0  0  0  0  0  0  0
    1.3108    2.0500    1.5779 O   0  0  0  0  0  0  0  0  0  0  0  0
   -2.6000   -1.5924    0.4588 O   0  0  0  0  0  0  0  0  0  0  0  0
   -3.2944   -0.3782   -1.6569 O   0  0  0  0  0  0  0  0  0  0  0  0
   -3.5469    0.8590    0.6501 O   0  0  0  0  0  0  0  0  0  0  0  0
    1.7721    1.1145   -0.5797 C   0  0  0  0  0  0  0  0  0  0  0  0
    2.3285   -0.2222   -0.0784 C   0  0  0  0  0  0  0  0  0  0  0  0
    0.6848    1.6269    0.3682 C   0  0  0  0  0  0  0  0  0  0  0  0
    1.1942   -1.2183    0.1833 C   0  0  0  0  0  0  0  0  0  0  0  0
   -0.3558    0.5450    0.6908 C   0  0  0  0  0  0  0  0  0  0  0  0
    1.7168   -2.5254    0.7723 C   0  0  0  0  0  0  0  0  0  0  0  0
  1  3  1  0
  1  7  1  0
  1  8  1  0
  1  9  2  0
  2 13  1  0
  2 14  1  0
  3 14  1  0
  4 10  1  0
  5 11  1  0
  6 12  1  0
 10 11  1  0
 10 12  1  0
 11 13  1  0
 12 14  1  0
 13 15  1  0
M  END
>  <PUBCHEM_COMPOUND_CID>  (1) 
475

>  <PUBCHEM_CONFORMER_RMSD>  (1) 
0.6

>  <PUBCHEM_CONFORMER_DIVERSEORDER>  (1) 
8
24
66
67
52
9
45
40
64
46
76
43
54
74
30
61
6
49
59
29
56
39
72
55
19
34
53
48
68
18
20
58
1
22
16
47
62
73
33
32
21
50
35
15
42
51
70
63
41
44
27
26
71
60
57
12
25
31
7
65
37
2
11
75
5
38
69
36
10
4
23
13
17
14
28
3

>  <PUBCHEM_MMFF94_PARTIAL_CHARGES>  (1) 
19
1 1.51
10 0.28
11 0.28
12 0.28
13 0.28
14 0.56
2 -0.56
24 0.4
25 0.4
26 0.4
27 0.5
28 0.5
3 -0.55
4 -0.68
5 -0.68
6 -0.68
7 -0.77
8 -0.77
9 -0.7

>  <PUBCHEM_EFFECTIVE_ROTOR_COUNT>  (1) 
3.2

>  <PUBCHEM_PHARMACOPHORE_FEATURES>  (1) 
12
1 2 acceptor
1 4 acceptor
1 4 donor
1 5 acceptor
1 5 donor
1 6 acceptor
1 6 donor
1 7 acceptor
1 8 acceptor
1 9 acceptor
4 1 7 8 9 anion
6 2 10 11 12 13 14 rings

>  <PUBCHEM_HEAVY_ATOM_COUNT>  (1) 
15

>  <PUBCHEM_ATOM_DEF_STEREO_COUNT>  (1) 
0

>  <PUBCHEM_ATOM_UDEF_STEREO_COUNT>  (1) 
5

>  <PUBCHEM_BOND_DEF_STEREO_COUNT>  (1) 
0

>  <PUBCHEM_BOND_UDEF_STEREO_COUNT>  (1) 
0

>  <PUBCHEM_ISOTOPIC_ATOM_COUNT>  (1) 
0

>  <PUBCHEM_COMPONENT_COUNT>  (1) 
1

>  <PUBCHEM_CACTVS_TAUTO_COUNT>  (1) 
1

>  <PUBCHEM_CONFORMER_ID>  (1) 
000001DB00000008

>  <PUBCHEM_MMFF94_ENERGY>  (1) 
0.9451

>  <PUBCHEM_FEATURE_SELFOVERLAP>  (1) 
60.947

>  <PUBCHEM_SHAPE_FINGERPRINT>  (1) 
12423570 1 14379943307996316160
12897270 3 18113900472258583815
12932764 1 18272370888895447825
14128692 85 18410862027301968958
14817 1 10790250749115584736
15001771 113 17904481801275105946
15852999 172 17827321631592059163
16945 1 18260547788431799452
18186145 218 18187653526127281588
20645477 70 18059562651038340471
20711985 344 17414455895450717176
21524375 3 16447865662902385804
22112679 90 17982458096454104336
22802520 49 17459744818190497645
232386 152 18200877257816353743
23402539 116 18342745074944395222
2748010 2 18118408585801675890
5084963 1 17968942014545946985
528886 8 17821736043413005596
74978 22 18059850684372004781
8030462 33 18341044203285838853

>  <PUBCHEM_SHAPE_MULTIPOLES>  (1) 
265.59
4.82
2.04
1.35
4.04
0.62
-0.3
0.91
-1.19
-1.15
0.67
-0.07
-0.38
-0.18

>  <PUBCHEM_SHAPE_SELFOVERLAP>  (1) 
517.482

>  <PUBCHEM_SHAPE_VOLUME>  (1) 
160.9

>  <PUBCHEM_COORDINATE_TYPE>  (1) 
2
5
10

$$$$
