47505
     RDKit          3D

 20 23  0  0  0  0  0  0  0  0999 V2000
    4.2268    1.8492   -0.0001 F   0  0  0  0  0  0  0  0  0  0  0  0
   -0.6051    0.3245    0.0002 C   0  0  0  0  0  0  0  0  0  0  0  0
    0.1952   -0.8553    0.0001 C   0  0  0  0  0  0  0  0  0  0  0  0
    1.6375   -0.7675    0.0001 C   0  0  0  0  0  0  0  0  0  0  0  0
   -2.0474    0.2367    0.0002 C   0  0  0  0  0  0  0  0  0  0  0  0
    0.0734    1.5602    0.0002 C   0  0  0  0  0  0  0  0  0  0  0  0
    2.2533    0.5069   -0.0002 C   0  0  0  0  0  0  0  0  0  0  0  0
   -2.6634   -1.0376   -0.0003 C   0  0  0  0  0  0  0  0  0  0  0  0
    1.4635    1.6517   -0.0002 C   0  0  0  0  0  0  0  0  0  0  0  0
   -0.4834   -2.0911   -0.0001 C   0  0  0  0  0  0  0  0  0  0  0  0
   -1.8735   -2.1826   -0.0005 C   0  0  0  0  0  0  0  0  0  0  0  0
    2.5138   -1.8852    0.0004 C   0  0  0  0  0  0  0  0  0  0  0  0
   -2.9238    1.3545    0.0008 C   0  0  0  0  0  0  0  0  0  0  0  0
   -0.5368    2.9276   -0.0007 C   0  0  0  0  0  0  0  0  0  0  0  0
    3.6536    0.6353   -0.0002 C   0  0  0  0  0  0  0  0  0  0  0  0
   -4.0636   -1.1660   -0.0005 C   0  0  0  0  0  0  0  0  0  0  0  0
    3.9053   -1.7482    0.0002 C   0  0  0  0  0  0  0  0  0  0  0  0
    4.4759   -0.4859   -0.0001 C   0  0  0  0  0  0  0  0  0  0  0  0
   -4.3153    1.2175    0.0005 C   0  0  0  0  0  0  0  0  0  0  0  0
   -4.8859   -0.0447   -0.0001 C   0  0  0  0  0  0  0  0  0  0  0  0
  1 15  1  0
  2  3  1  0
  2  5  1  0
  2  6  2  0
  3  4  2  0
  3 10  1  0
  4  7  1  0
  4 12  1  0
  5  8  2  0
  5 13  1  0
  6  9  1  0
  6 14  1  0
  7  9  2  0
  7 15  1  0
  8 11  1  0
  8 16  1  0
 10 11  2  0
 12 17  2  0
 13 19  2  0
 15 18  2  0
 16 20  2  0
 17 18  1  0
 19 20  1  0
M  END
>  <PUBCHEM_COMPOUND_CID>  (1) 
47505

>  <PUBCHEM_CONFORMER_RMSD>  (1) 
0.6

>  <PUBCHEM_CONFORMER_DIVERSEORDER>  (1) 
1

>  <PUBCHEM_MMFF94_PARTIAL_CHARGES>  (1) 
24
1 -0.19
10 -0.15
11 -0.15
12 -0.15
13 -0.15
14 0.14
15 0.19
16 -0.15
17 -0.15
18 -0.15
19 -0.15
20 -0.15
21 0.15
22 0.15
23 0.15
24 0.15
25 0.15
29 0.15
30 0.15
31 0.15
32 0.15
33 0.15
6 -0.14
9 -0.15

>  <PUBCHEM_EFFECTIVE_ROTOR_COUNT>  (1) 
0

>  <PUBCHEM_PHARMACOPHORE_FEATURES>  (1) 
4
6 2 3 4 6 7 9 rings
6 2 3 5 8 10 11 rings
6 4 7 12 15 17 18 rings
6 5 8 13 16 19 20 rings

>  <PUBCHEM_HEAVY_ATOM_COUNT>  (1) 
20

>  <PUBCHEM_ATOM_DEF_STEREO_COUNT>  (1) 
0

>  <PUBCHEM_ATOM_UDEF_STEREO_COUNT>  (1) 
0

>  <PUBCHEM_BOND_DEF_STEREO_COUNT>  (1) 
0

>  <PUBCHEM_BOND_UDEF_STEREO_COUNT>  (1) 
0

>  <PUBCHEM_ISOTOPIC_ATOM_COUNT>  (1) 
0

>  <PUBCHEM_COMPONENT_COUNT>  (1) 
1

>  <PUBCHEM_CACTVS_TAUTO_COUNT>  (1) 
1

>  <PUBCHEM_CONFORMER_ID>  (1) 
0000B99100000001

>  <PUBCHEM_MMFF94_ENERGY>  (1) 
86.3882

>  <PUBCHEM_FEATURE_SELFOVERLAP>  (1) 
20.367

>  <PUBCHEM_SHAPE_FINGERPRINT>  (1) 
10062212 137 18343014497915890487
10411042 1 16753531584137648523
10616163 171 18267306615172712310
10967382 1 18410573993757229478
11132069 177 18412539899115080674
11471102 20 18410852174536267710
11578080 2 16986300849394342003
116883 192 18270125591498601758
12011746 2 18411982442414275127
12403814 3 17603581933009281885
12788726 201 17917442985872081000
13132413 78 18412265072848191949
13140716 1 18410015394753625771
13583140 156 14332838228022426175
138480 1 14879751447934227725
13862211 1 18410568461961119747
14115302 16 18114191842919085438
14178342 30 17909247419724906650
14790565 3 18267873778848169369
15099037 51 18409445873869350623
15196674 1 18410855464634229607
15442244 35 18411138013141670267
15536298 74 18341894091082074874
16945 1 18122343750902679591
17804303 29 18412266142395138781
1813 80 17240483610867003284
18186145 218 17749384854000865590
19591789 44 18338234843196293019
200 152 18060414729626502143
20028762 73 18201999988871932191
20510252 161 18270961224187781640
20645477 70 18342459218621176646
21029758 11 18341608226902099265
21267235 1 18410583867992940778
21279426 13 18194119616618628293
21421861 104 18041831797590336594
21452121 103 18271234019847775648
221490 88 18263369264244500179
2334 1 18410856594115760867
23402539 116 18271517633111667943
23463225 33 18409730659738241278
23559900 14 18341891888286085008
2748010 2 18411136943779313639
3004659 81 18260548901250432782
335352 9 18338798884023915678
34934 24 18339637944903930354
350125 39 18410292480980563344
4214541 1 18410855438901290625
474 4 17531815778514875252
495365 180 17417797474881167458
5104073 3 18410012139046908331
69090 78 18412823586205956287
7364860 26 18196933490107326832
77779 3 18410575084789861355
7832392 63 18340764956838219446
8809292 202 18334298668936503107
9709674 26 18411705399854986830
9981440 41 17327736713378630161

>  <PUBCHEM_SHAPE_MULTIPOLES>  (1) 
404.32
8.74
2.63
0.61
0.31
0.53
0
-0.5
0
-0.22
0
0.02
-0.01
0

>  <PUBCHEM_SHAPE_SELFOVERLAP>  (1) 
927.838

>  <PUBCHEM_SHAPE_VOLUME>  (1) 
210.9

>  <PUBCHEM_COORDINATE_TYPE>  (1) 
2
5
10

$$$$
