47502
     RDKit          3D

 20 23  0  0  0  0  0  0  0  0999 V2000
    4.2164    2.1229    0.0004 F   0  0  0  0  0  0  0  0  0  0  0  0
    0.1562   -0.5378    0.0000 C   0  0  0  0  0  0  0  0  0  0  0  0
   -0.6312    0.6508    0.0001 C   0  0  0  0  0  0  0  0  0  0  0  0
    1.5994   -0.4657    0.0000 C   0  0  0  0  0  0  0  0  0  0  0  0
   -2.0744    0.5787    0.0001 C   0  0  0  0  0  0  0  0  0  0  0  0
   -0.5358   -1.7660   -0.0001 C   0  0  0  0  0  0  0  0  0  0  0  0
   -2.7042   -0.6889   -0.0003 C   0  0  0  0  0  0  0  0  0  0  0  0
    2.2291    0.8019   -0.0004 C   0  0  0  0  0  0  0  0  0  0  0  0
   -1.9268   -1.8424   -0.0005 C   0  0  0  0  0  0  0  0  0  0  0  0
    0.0608    1.8789    0.0000 C   0  0  0  0  0  0  0  0  0  0  0  0
    1.4518    1.9552   -0.0004 C   0  0  0  0  0  0  0  0  0  0  0  0
    2.4634   -1.5928    0.0003 C   0  0  0  0  0  0  0  0  0  0  0  0
   -2.9385    1.7059    0.0006 C   0  0  0  0  0  0  0  0  0  0  0  0
    0.0592   -3.1401    0.0008 C   0  0  0  0  0  0  0  0  0  0  0  0
   -4.1058   -0.8020   -0.0005 C   0  0  0  0  0  0  0  0  0  0  0  0
    3.6306    0.9151   -0.0004 C   0  0  0  0  0  0  0  0  0  0  0  0
   -4.3314    1.5841    0.0004 C   0  0  0  0  0  0  0  0  0  0  0  0
    3.8564   -1.4710    0.0001 C   0  0  0  0  0  0  0  0  0  0  0  0
   -4.9158    0.3282   -0.0002 C   0  0  0  0  0  0  0  0  0  0  0  0
    4.4407   -0.2151   -0.0002 C   0  0  0  0  0  0  0  0  0  0  0  0
  1 16  1  0
  2  3  1  0
  2  4  1  0
  2  6  2  0
  3  5  2  0
  3 10  1  0
  4  8  2  0
  4 12  1  0
  5  7  1  0
  5 13  1  0
  6  9  1  0
  6 14  1  0
  7  9  2  0
  7 15  1  0
  8 11  1  0
  8 16  1  0
 10 11  2  0
 12 18  2  0
 13 17  2  0
 15 19  2  0
 16 20  2  0
 17 19  1  0
 18 20  1  0
M  END
>  <PUBCHEM_COMPOUND_CID>  (1) 
47502

>  <PUBCHEM_CONFORMER_RMSD>  (1) 
0.6

>  <PUBCHEM_CONFORMER_DIVERSEORDER>  (1) 
1

>  <PUBCHEM_MMFF94_PARTIAL_CHARGES>  (1) 
24
1 -0.19
10 -0.15
11 -0.15
12 -0.15
13 -0.15
14 0.14
15 -0.15
16 0.19
17 -0.15
18 -0.15
19 -0.15
20 -0.15
21 0.15
22 0.15
23 0.15
24 0.15
25 0.15
29 0.15
30 0.15
31 0.15
32 0.15
33 0.15
6 -0.14
9 -0.15

>  <PUBCHEM_EFFECTIVE_ROTOR_COUNT>  (1) 
0

>  <PUBCHEM_PHARMACOPHORE_FEATURES>  (1) 
4
6 2 3 4 8 10 11 rings
6 2 3 5 6 7 9 rings
6 4 8 12 16 18 20 rings
6 5 7 13 15 17 19 rings

>  <PUBCHEM_HEAVY_ATOM_COUNT>  (1) 
20

>  <PUBCHEM_ATOM_DEF_STEREO_COUNT>  (1) 
0

>  <PUBCHEM_ATOM_UDEF_STEREO_COUNT>  (1) 
0

>  <PUBCHEM_BOND_DEF_STEREO_COUNT>  (1) 
0

>  <PUBCHEM_BOND_UDEF_STEREO_COUNT>  (1) 
0

>  <PUBCHEM_ISOTOPIC_ATOM_COUNT>  (1) 
0

>  <PUBCHEM_COMPONENT_COUNT>  (1) 
1

>  <PUBCHEM_CACTVS_TAUTO_COUNT>  (1) 
1

>  <PUBCHEM_CONFORMER_ID>  (1) 
0000B98E00000001

>  <PUBCHEM_MMFF94_ENERGY>  (1) 
86.3611

>  <PUBCHEM_FEATURE_SELFOVERLAP>  (1) 
20.367

>  <PUBCHEM_SHAPE_FINGERPRINT>  (1) 
10062212 137 18341041952506944735
10411042 1 17113819592744720975
10608611 8 18411416249940100936
10616163 171 18194405717370321782
10967382 1 18338798918404798086
11132069 177 18411132515599362256
11471102 20 18410853252514997749
11578080 2 16771253979987900147
12011746 2 18410576167015982358
12236239 1 17917992768125094013
12403259 226 18339919428755698121
12403259 415 18260828159881925493
12592029 89 18336267838538194627
12788726 201 17774736285187090968
13140716 1 18409449146122727410
138480 1 17834395614079480519
13862211 1 18338510846379809547
14178342 30 17978773929595533842
14790565 3 18411426072546540433
15099037 51 18411420574829847262
15196674 1 18410856564151047687
15442244 35 18410855434595741408
15536298 74 18341894086760668832
16945 1 18122343746454562598
1813 80 17022903449659211900
18186145 218 18335980878692678116
19591789 44 18410291367787565639
200 152 18060132142300773581
20028762 73 18201717409951424447
20510252 161 18343867718754448097
20645477 70 18341895156102264702
21267235 1 18410864243595102250
21279426 13 18194965132264757615
21421861 104 17682117673300980787
221490 88 18335990877381850387
2334 1 18410855485908534562
23402539 116 18272080591480775142
23463225 33 18408604729793027278
23558518 356 17755860071440063210
23559900 14 18343582920074189746
2748010 2 18410014333759397486
3004659 81 18261399885033885118
335352 9 18338798884034439198
34934 24 18339637953694188624
350125 39 18337391544143860476
3680242 22 18191867829574118906
4214541 1 18410856534134054693
495365 180 17346023563543806162
5104073 3 18410293614023554025
6138700 20 18194405494370184678
633830 44 18271525299649202159
69090 78 18412260649031805399
7364860 26 18196372520281651903
77779 3 18410575080526471113
9709674 26 18411986891985063014
9981440 41 17398389118708385592

>  <PUBCHEM_SHAPE_MULTIPOLES>  (1) 
404.32
8.73
2.68
0.61
1.27
0.78
0
-2.09
0
-0.53
0
0.02
0.01
0

>  <PUBCHEM_SHAPE_SELFOVERLAP>  (1) 
927.815

>  <PUBCHEM_SHAPE_VOLUME>  (1) 
211

>  <PUBCHEM_COORDINATE_TYPE>  (1) 
2
5
10

$$$$
