47501
     RDKit          3D

 20 20  0  0  1  0  0  0  0  0999 V2000
    4.4797   -2.0758    1.3120 Cl  0  0  0  0  0  0  0  0  0  0  0  0
    2.8489    2.9970   -1.3892 Cl  0  0  0  0  0  0  0  0  0  0  0  0
   -2.8001    1.8656   -0.0209 O   0  0  0  0  0  0  0  0  0  0  0  0
   -4.1609    1.0117    1.5687 O   0  0  0  0  0  0  0  0  0  0  0  0
    2.8736    0.2248   -0.0041 N   0  0  0  0  0  0  0  0  0  0  0  0
   -4.9449   -0.9748   -0.2102 N   0  0  0  0  0  0  0  0  0  0  0  0
   -3.5972   -0.4005   -0.3408 C   0  0  0  0  0  0  0  0  0  0  0  0
   -2.5638   -1.4513    0.1322 C   0  0  0  0  0  0  0  0  0  0  0  0
   -1.1187   -1.0060    0.0958 C   0  0  0  0  0  0  0  0  0  0  0  0
    1.5261   -0.1906    0.0292 C   0  0  0  0  0  0  0  0  0  0  0  0
   -3.4186   -0.0478   -1.8258 C   0  0  0  0  0  0  0  0  0  0  0  0
   -0.5713   -0.3946    1.2107 C   0  0  0  0  0  0  0  0  0  0  0  0
   -0.3742   -1.2190   -1.0515 C   0  0  0  0  0  0  0  0  0  0  0  0
    0.7612    0.0163    1.1771 C   0  0  0  0  0  0  0  0  0  0  0  0
    0.9584   -0.8081   -1.0851 C   0  0  0  0  0  0  0  0  0  0  0  0
    3.8409   -0.4861   -0.8163 C   0  0  0  0  0  0  0  0  0  0  0  0
    3.3058    1.3765    0.7625 C   0  0  0  0  0  0  0  0  0  0  0  0
   -3.5591    0.8722    0.5098 C   0  0  0  0  0  0  0  0  0  0  0  0
    3.9526   -1.9397   -0.3842 C   0  0  0  0  0  0  0  0  0  0  0  0
    2.5614    2.6301    0.3301 C   0  0  0  0  0  0  0  0  0  0  0  0
  1 19  1  0
  2 20  1  0
  3 18  1  0
  4 18  2  0
  5 10  1  0
  5 16  1  0
  5 17  1  0
  6  7  1  0
  7  8  1  0
  7 11  1  0
  7 18  1  0
  8  9  1  0
  9 12  2  0
  9 13  1  0
 10 14  2  0
 10 15  1  0
 12 14  1  0
 13 15  2  0
 16 19  1  0
 17 20  1  0
M  END
>  <PUBCHEM_COMPOUND_CID>  (1) 
47501

>  <PUBCHEM_CONFORMER_RMSD>  (1) 
0.8

>  <PUBCHEM_CONFORMER_DIVERSEORDER>  (1) 
1
129
91
66
55
45
90
74
113
163
70
122
126
156
125
72
161
142
115
73
172
111
146
52
133
84
17
53
88
24
144
105
170
80
101
151
68
106
158
120
127
135
22
108
102
10
32
33
155
104
124
9
110
46
67
4
11
143
132
12
57
89
177
159
27
165
56
164
149
136
63
20
166
16
153
21
31
130
171
93
59
39
154
41
60
96
139
61
131
140
147
25
64
65
117
30
152
58
114
141
174
128
137
87
13
169
157
77
145
112
150
85
23
167
121
175
176
79
98
54
81
43
49
76
42
71
97
18
82
138
160
94
116
7
47
19
83
109
6
123
168
107
34
119
148
62
50
3
14
99
103
69
95
44
40
38
29
162
134
51
118
86
28
5
2
78
100
26
37
15
48
75
92
36
35
8
173

>  <PUBCHEM_MMFF94_PARTIAL_CHARGES>  (1) 
26
1 -0.29
10 0.1
12 -0.15
13 -0.15
14 -0.15
15 -0.15
16 0.37
17 0.37
18 0.66
19 0.29
2 -0.29
20 0.29
26 0.15
27 0.15
28 0.15
29 0.15
3 -0.65
34 0.36
35 0.36
4 -0.57
40 0.5
5 -0.84
6 -0.99
7 0.33
8 0.14
9 -0.14

>  <PUBCHEM_EFFECTIVE_ROTOR_COUNT>  (1) 
8

>  <PUBCHEM_PHARMACOPHORE_FEATURES>  (1) 
7
1 3 acceptor
1 4 acceptor
1 5 cation
1 6 cation
1 6 donor
3 3 4 18 anion
6 9 10 12 13 14 15 rings

>  <PUBCHEM_HEAVY_ATOM_COUNT>  (1) 
20

>  <PUBCHEM_ATOM_DEF_STEREO_COUNT>  (1) 
0

>  <PUBCHEM_ATOM_UDEF_STEREO_COUNT>  (1) 
1

>  <PUBCHEM_BOND_DEF_STEREO_COUNT>  (1) 
0

>  <PUBCHEM_BOND_UDEF_STEREO_COUNT>  (1) 
0

>  <PUBCHEM_ISOTOPIC_ATOM_COUNT>  (1) 
0

>  <PUBCHEM_COMPONENT_COUNT>  (1) 
1

>  <PUBCHEM_CACTVS_TAUTO_COUNT>  (1) 
1

>  <PUBCHEM_CONFORMER_ID>  (1) 
0000B98D00000001

>  <PUBCHEM_MMFF94_ENERGY>  (1) 
55.6711

>  <PUBCHEM_FEATURE_SELFOVERLAP>  (1) 
35.581

>  <PUBCHEM_SHAPE_FINGERPRINT>  (1) 
10062212 137 17704067361534154343
10366900 7 15791729707220286109
11405975 8 18408606988956803611
11615756 256 18341339984456149797
12403260 363 18341888585007938951
12633257 1 18339928116962516795
12670545 47 16153707669478425621
12670546 177 15840424997954876741
12670546 56 18408595946585173546
13134695 92 18335140865279670988
13583140 156 18187366579199082299
13675066 3 17095522902612731831
14289901 80 18192434284236768634
15163728 17 17610084599822618220
15375358 24 12607399970918449149
15788980 27 17346594149406176198
17349148 13 17632296752799952754
17834072 14 16128364939996793370
18186145 218 18260828206672547042
19433438 15 17704071785334268279
20645477 70 18343023307031172502
20832881 197 17823130121610892306
21033648 29 17458053868265565709
21503847 285 18259706687611656596
2255824 54 18336267924959655990
23114952 82 17702127827175151141
23402539 116 18269832025750998757
23557571 272 18051141589986110439
23559900 14 18411696617036931930
296302 2 11887662983617916515
312423 11 18342744043703753519
3286 77 18335698330169367846
345986 75 17608071093373517090
474 4 17970065754227119364
4990 188 14779554435496269370
5104073 3 18344148102888535403
5281201 14 18413111675178932980
633830 44 18410294713767406435
90127 26 16081371825725731486
9971528 1 18059856117679941446
9981440 41 17686898728232729056

>  <PUBCHEM_SHAPE_MULTIPOLES>  (1) 
393.63
9.51
2.57
1.44
3.8
1.75
0.1
-1.01
-0.42
-3.31
0.21
0.18
0.11
-0.98

>  <PUBCHEM_SHAPE_SELFOVERLAP>  (1) 
780.821

>  <PUBCHEM_SHAPE_VOLUME>  (1) 
235.6

>  <PUBCHEM_COORDINATE_TYPE>  (1) 
2
5
10

$$$$
