47519
     RDKit          3D

  7  7  0  0  1  0  0  0  0  0999 V2000
    0.1680    1.0901    0.4082 O   0  0  0  0  0  0  0  0  0  0  0  0
   -1.3318   -0.5470   -0.3699 O   0  0  0  0  0  0  0  0  0  0  0  0
    0.8414   -1.1732    0.4207 C   0  0  0  0  0  0  0  0  0  0  0  0
    1.6635   -0.4389   -0.6114 C   0  0  0  0  0  0  0  0  0  0  0  0
   -0.3395   -0.2372    0.6022 C   0  0  0  0  0  0  0  0  0  0  0  0
    1.4624    1.0044   -0.2042 C   0  0  0  0  0  0  0  0  0  0  0  0
   -2.4640    0.3018   -0.2455 C   0  0  0  0  0  0  0  0  0  0  0  0
  1  5  1  0
  1  6  1  0
  2  5  1  0
  2  7  1  0
  3  4  1  0
  3  5  1  0
  4  6  1  0
M  END
>  <PUBCHEM_COMPOUND_CID>  (1) 
47519

>  <PUBCHEM_CONFORMER_RMSD>  (1) 
0.4

>  <PUBCHEM_CONFORMER_DIVERSEORDER>  (1) 
1
2
3
4

>  <PUBCHEM_MMFF94_PARTIAL_CHARGES>  (1) 
5
1 -0.56
2 -0.56
5 0.56
6 0.28
7 0.28

>  <PUBCHEM_EFFECTIVE_ROTOR_COUNT>  (1) 
2

>  <PUBCHEM_PHARMACOPHORE_FEATURES>  (1) 
3
1 1 acceptor
1 2 acceptor
5 1 3 4 5 6 rings

>  <PUBCHEM_HEAVY_ATOM_COUNT>  (1) 
7

>  <PUBCHEM_ATOM_DEF_STEREO_COUNT>  (1) 
0

>  <PUBCHEM_ATOM_UDEF_STEREO_COUNT>  (1) 
1

>  <PUBCHEM_BOND_DEF_STEREO_COUNT>  (1) 
0

>  <PUBCHEM_BOND_UDEF_STEREO_COUNT>  (1) 
0

>  <PUBCHEM_ISOTOPIC_ATOM_COUNT>  (1) 
0

>  <PUBCHEM_COMPONENT_COUNT>  (1) 
1

>  <PUBCHEM_CACTVS_TAUTO_COUNT>  (1) 
1

>  <PUBCHEM_CONFORMER_ID>  (1) 
0000B99F00000001

>  <PUBCHEM_MMFF94_ENERGY>  (1) 
12.0854

>  <PUBCHEM_FEATURE_SELFOVERLAP>  (1) 
15.263

>  <PUBCHEM_SHAPE_FINGERPRINT>  (1) 
18185500 45 18267583511587522363
20096714 4 18335137634936555063
21040471 1 18190742122987958424
23552449 11 12751230389835791647
29004967 10 18413112753215711234
5943 1 14132975880752458330

>  <PUBCHEM_SHAPE_MULTIPOLES>  (1) 
132.32
2.62
1.18
0.78
1.56
0.05
0
0.22
0.58
-0.4
-0.1
-0.06
-0.04
-0.02

>  <PUBCHEM_SHAPE_SELFOVERLAP>  (1) 
253.708

>  <PUBCHEM_SHAPE_VOLUME>  (1) 
82.9

>  <PUBCHEM_COORDINATE_TYPE>  (1) 
2
5
10

$$$$
