47512
     RDKit          3D

 18 18  0  0  0  0  0  0  0  0999 V2000
   -1.2206    0.0075    1.4245 O   0  0  0  0  0  0  0  0  0  0  0  0
    0.0499   -0.0048   -0.5510 N   0  0  0  0  0  0  0  0  0  0  0  0
   -2.2509   -0.0078   -0.6685 N   0  0  0  0  0  0  0  0  0  0  0  0
   -4.4531   -0.0123   -1.4176 N   0  0  0  0  0  0  0  0  0  0  0  0
   -3.9357    0.0036    0.9204 N   0  0  0  0  0  0  0  0  0  0  0  0
    1.3810   -0.0006   -0.0723 C   0  0  0  0  0  0  0  0  0  0  0  0
    2.0201    1.2095    0.1559 C   0  0  0  0  0  0  0  0  0  0  0  0
    2.0261   -1.2067    0.1604 C   0  0  0  0  0  0  0  0  0  0  0  0
    1.3406    2.5176   -0.0901 C   0  0  0  0  0  0  0  0  0  0  0  0
    1.3528   -2.5191   -0.0798 C   0  0  0  0  0  0  0  0  0  0  0  0
    3.3330    1.2136    0.6269 C   0  0  0  0  0  0  0  0  0  0  0  0
    3.3390   -1.2023    0.6316 C   0  0  0  0  0  0  0  0  0  0  0  0
    3.9924    0.0078    0.8649 C   0  0  0  0  0  0  0  0  0  0  0  0
    1.5548    3.0209   -1.5140 C   0  0  0  0  0  0  0  0  0  0  0  0
    1.5695   -3.0277   -1.5014 C   0  0  0  0  0  0  0  0  0  0  0  0
   -1.1318   -0.0014    0.1999 C   0  0  0  0  0  0  0  0  0  0  0  0
   -3.6102   -0.0055   -0.3312 C   0  0  0  0  0  0  0  0  0  0  0  0
   -5.3567    0.0078    1.2415 C   0  0  0  0  0  0  0  0  0  0  0  0
  1 16  2  0
  2  6  1  0
  2 16  1  0
  3 16  1  0
  3 17  1  0
  4 17  1  0
  5 17  2  0
  5 18  1  0
  6  7  2  0
  6  8  1  0
  7  9  1  0
  7 11  1  0
  8 10  1  0
  8 12  2  0
  9 14  1  0
 10 15  1  0
 11 13  2  0
 12 13  1  0
M  END
>  <PUBCHEM_COMPOUND_CID>  (1) 
47512

>  <PUBCHEM_CONFORMER_RMSD>  (1) 
0.8

>  <PUBCHEM_CONFORMER_DIVERSEORDER>  (1) 
1
9
13
12
5
14
4
6
7
11
8
3
2
10

>  <PUBCHEM_MMFF94_PARTIAL_CHARGES>  (1) 
23
1 -0.57
10 0.14
11 -0.15
12 -0.15
13 -0.15
16 0.69
17 0.56
18 0.25
2 -0.55
23 0.15
24 0.15
25 0.15
26 0.37
3 -0.49
33 0.37
34 0.4
35 0.4
4 -0.85
5 -0.7
6 0.12
7 -0.14
8 -0.14
9 0.14

>  <PUBCHEM_EFFECTIVE_ROTOR_COUNT>  (1) 
6

>  <PUBCHEM_PHARMACOPHORE_FEATURES>  (1) 
7
1 1 acceptor
1 14 hydrophobe
1 15 hydrophobe
1 2 donor
1 3 donor
1 4 donor
6 6 7 8 11 12 13 rings

>  <PUBCHEM_HEAVY_ATOM_COUNT>  (1) 
18

>  <PUBCHEM_ATOM_DEF_STEREO_COUNT>  (1) 
0

>  <PUBCHEM_ATOM_UDEF_STEREO_COUNT>  (1) 
0

>  <PUBCHEM_BOND_DEF_STEREO_COUNT>  (1) 
0

>  <PUBCHEM_BOND_UDEF_STEREO_COUNT>  (1) 
0

>  <PUBCHEM_ISOTOPIC_ATOM_COUNT>  (1) 
0

>  <PUBCHEM_COMPONENT_COUNT>  (1) 
1

>  <PUBCHEM_CACTVS_TAUTO_COUNT>  (1) 
8

>  <PUBCHEM_CONFORMER_ID>  (1) 
0000B99800000001

>  <PUBCHEM_MMFF94_ENERGY>  (1) 
64.4323

>  <PUBCHEM_FEATURE_SELFOVERLAP>  (1) 
35.615

>  <PUBCHEM_SHAPE_FINGERPRINT>  (1) 
108634 29 17682092410303651237
12236239 1 17632854235196339018
12346645 6 18413105069835632246
13134695 92 18042105644552050868
13140716 1 18266458895886217178
13583140 156 17386271169435770027
13836976 161 18340762744961645991
14251717 144 18341040865658601366
14252887 29 18337956688208521698
18186145 218 18411703196905444367
20645477 70 18339629058674858007
20739085 24 18409174281570508272
2255824 54 18411706525215110996
23184049 59 18410564102906515248
2748010 2 18050841126937502046
3060560 45 18342174484112162246
465052 167 18260828168651253778
474 4 18411981403153515161
7364860 26 18131355163626021542
7495541 125 17531254992744903713
81228 2 17829055307984027160
8272917 22 18342465824180312971

>  <PUBCHEM_SHAPE_MULTIPOLES>  (1) 
344.64
8.41
2.79
1.31
13.23
0.01
-0.23
0.01
2.42
-3.35
-1.56
0.5
-0.01
-0.01

>  <PUBCHEM_SHAPE_SELFOVERLAP>  (1) 
699.28

>  <PUBCHEM_SHAPE_VOLUME>  (1) 
200.8

>  <PUBCHEM_COORDINATE_TYPE>  (1) 
2
5
10

$$$$
