47522
     RDKit          3D

 20 21  0  0  0  0  0  0  0  0999 V2000
    1.6424    2.3005   -0.2130 O   0  0  0  0  0  0  0  0  0  0  0  0
   -5.3548   -0.5247    0.5223 O   0  0  0  0  0  0  0  0  0  0  0  0
    4.3746   -2.7882   -0.5650 O   0  0  0  0  0  0  0  0  0  0  0  0
   -4.0520   -2.2111   -0.3479 O   0  0  0  0  0  0  0  0  0  0  0  0
    0.5169    0.2496    0.0223 N   0  0  0  0  0  0  0  0  0  0  0  0
    4.2659   -1.5707   -0.2072 N   0  0  0  0  0  0  0  0  0  0  0  0
   -0.8277    0.6064   -0.0847 C   0  0  0  0  0  0  0  0  0  0  0  0
   -1.8188   -0.3706    0.0089 C   0  0  0  0  0  0  0  0  0  0  0  0
    2.9526    0.4002    0.0768 C   0  0  0  0  0  0  0  0  0  0  0  0
   -3.1629   -0.0131   -0.0975 C   0  0  0  0  0  0  0  0  0  0  0  0
   -1.1807    1.9410   -0.2843 C   0  0  0  0  0  0  0  0  0  0  0  0
    1.6392    1.0857   -0.0452 C   0  0  0  0  0  0  0  0  0  0  0  0
   -3.5159    1.3215   -0.2974 C   0  0  0  0  0  0  0  0  0  0  0  0
   -2.5248    2.2985   -0.3907 C   0  0  0  0  0  0  0  0  0  0  0  0
    3.0548   -0.9143   -0.3120 C   0  0  0  0  0  0  0  0  0  0  0  0
    4.0287    1.0956    0.5737 C   0  0  0  0  0  0  0  0  0  0  0  0
    5.2524    0.4444    0.6834 C   0  0  0  0  0  0  0  0  0  0  0  0
   -4.1967   -1.0312   -0.0015 C   0  0  0  0  0  0  0  0  0  0  0  0
    5.3576   -0.8857    0.2906 C   0  0  0  0  0  0  0  0  0  0  0  0
   -6.4509   -1.4340    0.6685 C   0  0  0  0  0  0  0  0  0  0  0  0
  1 12  2  0
  2 18  1  0
  2 20  1  0
  3  6  1  0
  4 18  2  0
  5  7  1  0
  5 12  1  0
  6 15  2  0
  6 19  1  0
  7  8  2  0
  7 11  1  0
  8 10  1  0
  9 12  1  0
  9 15  1  0
  9 16  2  0
 10 13  2  0
 10 18  1  0
 11 14  2  0
 13 14  1  0
 16 17  1  0
 17 19  2  0
M  CHG  2   3  -1   6   1
M  END
>  <PUBCHEM_COMPOUND_CID>  (1) 
47522

>  <PUBCHEM_CONFORMER_RMSD>  (1) 
0.8

>  <PUBCHEM_CONFORMER_DIVERSEORDER>  (1) 
2
13
25
7
17
11
20
4
5
24
22
9
16
23
18
8
6
10
15
19
3
1
21
14
12

>  <PUBCHEM_MMFF94_PARTIAL_CHARGES>  (1) 
29
1 -0.57
10 0.09
11 -0.15
12 0.54
13 -0.15
14 -0.15
15 -0.06
16 -0.15
17 -0.15
18 0.63
19 -0.06
2 -0.43
20 0.28
21 0.15
22 0.37
23 0.15
24 0.15
25 0.15
26 0.15
27 0.15
28 0.15
29 0.15
3 -0.75
4 -0.57
5 -0.55
6 0.57
7 0.12
8 -0.15
9 0.09

>  <PUBCHEM_EFFECTIVE_ROTOR_COUNT>  (1) 
5

>  <PUBCHEM_PHARMACOPHORE_FEATURES>  (1) 
6
1 1 acceptor
1 3 anion
1 4 acceptor
1 5 donor
6 6 9 15 16 17 19 rings
6 7 8 10 11 13 14 rings

>  <PUBCHEM_HEAVY_ATOM_COUNT>  (1) 
20

>  <PUBCHEM_ATOM_DEF_STEREO_COUNT>  (1) 
0

>  <PUBCHEM_ATOM_UDEF_STEREO_COUNT>  (1) 
0

>  <PUBCHEM_BOND_DEF_STEREO_COUNT>  (1) 
0

>  <PUBCHEM_BOND_UDEF_STEREO_COUNT>  (1) 
0

>  <PUBCHEM_ISOTOPIC_ATOM_COUNT>  (1) 
0

>  <PUBCHEM_COMPONENT_COUNT>  (1) 
1

>  <PUBCHEM_CACTVS_TAUTO_COUNT>  (1) 
2

>  <PUBCHEM_CONFORMER_ID>  (1) 
0000B9A200000002

>  <PUBCHEM_MMFF94_ENERGY>  (1) 
64.6275

>  <PUBCHEM_FEATURE_SELFOVERLAP>  (1) 
30.446

>  <PUBCHEM_SHAPE_FINGERPRINT>  (1) 
12107183 9 17768260011200801674
12596602 18 16558467599208928410
12633257 1 16200146629609162989
12760667 363 18412823603986965399
12916754 54 18408606963556361961
13073987 5 18201440246588251872
13167823 11 18410289181870602146
13255334 9 18339925913987542630
13288520 33 18334857212569924709
13533116 47 18272936054445170432
13551218 46 18342178864900033391
13583140 156 17988346118560123308
13685833 64 18334298703860659531
1420 369 18408324393104053787
14216079 64 18408604773671530859
14341114 176 18342461443202810345
14528608 73 8574712386242373561
146900 427 17346030190805282512
15042514 8 18409170974794083789
15196674 1 18410854322315308244
15342816 4 17822285744093867408
15352361 1 18410009944297520148
17492 89 18339642231344907110
17844677 252 18412549799226240144
17857418 61 18412541041808717303
1813 80 17603307054838684949
19141452 34 18411420575183314093
193927 3 17967824863814599121
200 152 18272647948139447569
20403669 9 18411142437174659407
20645477 70 18410855430796847638
21065198 57 18341046311888415004
21065199 12 18343013368402866576
21065201 7 18188763938598579392
21267235 1 18408328795339946232
21673915 165 18411978074675589142
221490 88 18409169939184316768
23402539 116 18409160043874877709
23424784 1240 18270970042193957886
23522609 53 18120971422815988660
23559900 14 18411127026663352088
239999 70 18131074823274791494
2838139 119 9223241719468978683
3004659 81 18113620088641364228
312423 11 18187379743516606493
316301 35 18337386025269582618
351380 3 18186799205761402171
4214541 1 18410853218261150572
4325135 7 18260269689795470396
465052 167 18340212976400155343
5104073 3 18271520893176384512
542803 24 14045739339735705088
559249 180 18188484679866808153
59755656 215 18114457895016798235
77779 3 18411980222349024212
9709674 26 18335423482401138698

>  <PUBCHEM_SHAPE_MULTIPOLES>  (1) 
378.15
14.11
2.42
0.72
2.58
0.19
0.04
8.24
2.44
0.19
-0.4
-0.04
0.04
1.03

>  <PUBCHEM_SHAPE_SELFOVERLAP>  (1) 
812.07

>  <PUBCHEM_SHAPE_VOLUME>  (1) 
208.6

>  <PUBCHEM_COORDINATE_TYPE>  (1) 
2
5
10

$$$$
