47526
     RDKit          3D

 10 10  0  0  1  0  0  0  0  0999 V2000
    0.9900    0.8331    1.7530 Cl  0  0  0  0  0  0  0  0  0  0  0  0
   -3.6200   -0.3138    0.0791 Cl  0  0  0  0  0  0  0  0  0  0  0  0
    0.9590    0.2439    0.0459 C   0  0  0  0  0  0  0  0  0  0  0  0
    0.0930    1.1886   -0.8089 C   0  0  0  0  0  0  0  0  0  0  0  0
    0.3809   -1.1876    0.0091 C   0  0  0  0  0  0  0  0  0  0  0  0
   -1.3863    1.1920   -0.3964 C   0  0  0  0  0  0  0  0  0  0  0  0
   -1.1180   -1.2473    0.1072 C   0  0  0  0  0  0  0  0  0  0  0  0
   -1.9035   -0.1752   -0.0639 C   0  0  0  0  0  0  0  0  0  0  0  0
    2.3822    0.2484   -0.4333 C   0  0  0  0  0  0  0  0  0  0  0  0
    3.2228   -0.7820   -0.2918 C   0  0  0  0  0  0  0  0  0  0  0  0
  1  3  1  0
  2  8  1  0
  3  4  1  0
  3  5  1  0
  3  9  1  0
  4  6  1  0
  5  7  1  0
  6  8  1  0
  7  8  2  0
  9 10  2  0
M  END
>  <PUBCHEM_COMPOUND_CID>  (1) 
47526

>  <PUBCHEM_CONFORMER_RMSD>  (1) 
0.4

>  <PUBCHEM_CONFORMER_DIVERSEORDER>  (1) 
1
3
4
2

>  <PUBCHEM_MMFF94_PARTIAL_CHARGES>  (1) 
12
1 -0.29
10 -0.3
17 0.15
18 0.15
19 0.15
2 -0.14
20 0.15
3 0.43
5 0.14
6 0.14
7 -0.29
9 -0.29

>  <PUBCHEM_EFFECTIVE_ROTOR_COUNT>  (1) 
1.8

>  <PUBCHEM_PHARMACOPHORE_FEATURES>  (1) 
2
1 10 hydrophobe
6 3 4 5 6 7 8 rings

>  <PUBCHEM_HEAVY_ATOM_COUNT>  (1) 
10

>  <PUBCHEM_ATOM_DEF_STEREO_COUNT>  (1) 
0

>  <PUBCHEM_ATOM_UDEF_STEREO_COUNT>  (1) 
1

>  <PUBCHEM_BOND_DEF_STEREO_COUNT>  (1) 
0

>  <PUBCHEM_BOND_UDEF_STEREO_COUNT>  (1) 
0

>  <PUBCHEM_ISOTOPIC_ATOM_COUNT>  (1) 
0

>  <PUBCHEM_COMPONENT_COUNT>  (1) 
1

>  <PUBCHEM_CACTVS_TAUTO_COUNT>  (1) 
1

>  <PUBCHEM_CONFORMER_ID>  (1) 
0000B9A600000001

>  <PUBCHEM_MMFF94_ENERGY>  (1) 
12.3758

>  <PUBCHEM_FEATURE_SELFOVERLAP>  (1) 
10.148

>  <PUBCHEM_SHAPE_FINGERPRINT>  (1) 
10219947 1 18334582356047977559
10857977 72 18261104218888557683
11062470 55 12679463071088762639
12032990 46 18261683631293726175
12423570 1 17758957408385302656
12897270 3 18186803560647035774
14325111 11 18335423447735373780
14993402 34 18113339725723586295
15310529 11 15285623400874078527
16945 1 18410580573699965518
20201158 50 18273219672980132126
207724 885 18114188552852700111
21040471 1 18191009136751910629
21293036 1 17894914052731973223
21922407 69 16009297687431704433
23235685 24 18333446551920124655
23402655 69 18118383091957424053
23552423 10 17968943122795364982
2748010 2 18047192131196905191
369184 2 16773793675859475614
5084963 1 18412262843796854481
528886 8 18260550047415915490
68250623 7 17243292708604711122

>  <PUBCHEM_SHAPE_MULTIPOLES>  (1) 
209.53
4.48
1.35
1.06
1.13
0.02
0.46
1.02
-0.33
0.01
-0.01
-0.36
-0.38
0.3

>  <PUBCHEM_SHAPE_SELFOVERLAP>  (1) 
399.905

>  <PUBCHEM_SHAPE_VOLUME>  (1) 
125.6

>  <PUBCHEM_COORDINATE_TYPE>  (1) 
2
5
10

$$$$
