47521
     RDKit          3D

 33 36  0  0  1  0  0  0  0  0999 V2000
    0.3196    0.3588   -1.8634 S   0  0  0  0  0  0  0  0  0  0  0  0
   -3.9075   -0.9017    0.0403 S   0  0  0  0  0  0  0  0  0  0  0  0
    3.2671   -3.5207   -1.1844 S   0  0  0  0  0  0  0  0  0  0  0  0
    0.6612    3.1340    1.8507 O   0  0  0  0  0  0  0  0  0  0  0  0
   -2.4352    3.5679    1.3049 O   0  0  0  0  0  0  0  0  0  0  0  0
   -2.8398    1.4574    2.0875 O   0  0  0  0  0  0  0  0  0  0  0  0
    4.3174    1.9318   -1.5671 O   0  0  0  0  0  0  0  0  0  0  0  0
    6.3920   -0.9501    0.7612 O   0  0  0  0  0  0  0  0  0  0  0  0
   -0.3551    2.1763   -0.0494 N   0  0  0  0  0  0  0  0  0  0  0  0
    2.6021    1.3553   -0.0719 N   0  0  0  0  0  0  0  0  0  0  0  0
    5.8000    0.2546    0.3569 N   0  0  0  0  0  0  0  0  0  0  0  0
   -6.3313   -2.1761    0.4351 N   0  0  0  0  0  0  0  0  0  0  0  0
    3.9369   -2.0715    0.8487 N   0  0  0  0  0  0  0  0  0  0  0  0
   -6.5143   -0.3570   -0.7311 N   0  0  0  0  0  0  0  0  0  0  0  0
   -7.6372   -2.0682    0.1529 N   0  0  0  0  0  0  0  0  0  0  0  0
   -7.7430   -0.9535   -0.5602 N   0  0  0  0  0  0  0  0  0  0  0  0
    3.1861   -4.2519    1.3711 N   0  0  0  0  0  0  0  0  0  0  0  0
    0.4220    2.0629   -1.2701 C   0  0  0  0  0  0  0  0  0  0  0  0
    1.6522    2.4161   -0.4058 C   0  0  0  0  0  0  0  0  0  0  0  0
    0.6202    2.7040    0.7217 C   0  0  0  0  0  0  0  0  0  0  0  0
   -1.6558    1.8006    0.0549 C   0  0  0  0  0  0  0  0  0  0  0  0
   -2.2447    1.0225   -0.8843 C   0  0  0  0  0  0  0  0  0  0  0  0
   -1.4925    0.4220   -2.0698 C   0  0  0  0  0  0  0  0  0  0  0  0
   -3.7030    0.6310   -0.8816 C   0  0  0  0  0  0  0  0  0  0  0  0
   -2.3769    2.2221    1.2652 C   0  0  0  0  0  0  0  0  0  0  0  0
    3.8332    1.2317   -0.6925 C   0  0  0  0  0  0  0  0  0  0  0  0
    4.6345    0.0617   -0.1831 C   0  0  0  0  0  0  0  0  0  0  0  0
   -5.6555   -1.1298   -0.1070 C   0  0  0  0  0  0  0  0  0  0  0  0
    4.1304   -1.3114   -0.2883 C   0  0  0  0  0  0  0  0  0  0  0  0
    3.8224   -1.9260   -1.4838 C   0  0  0  0  0  0  0  0  0  0  0  0
   -5.8433   -3.2891    1.2093 C   0  0  0  0  0  0  0  0  0  0  0  0
    3.4839   -3.2543    0.4968 C   0  0  0  0  0  0  0  0  0  0  0  0
    7.6539   -0.6496    1.3368 C   0  0  0  0  0  0  0  0  0  0  0  0
  1 18  1  0
  1 23  1  0
  2 24  1  0
  2 28  1  0
  3 30  1  0
  3 32  1  0
  4 20  2  0
  5 25  1  0
  6 25  2  0
  7 26  2  0
  8 11  1  0
  8 33  1  0
  9 18  1  0
  9 20  1  0
  9 21  1  0
 10 19  1  0
 10 26  1  0
 11 27  2  0
 12 15  1  0
 12 28  1  0
 12 31  1  0
 13 29  1  0
 13 32  2  0
 14 16  1  0
 14 28  2  0
 15 16  2  0
 17 32  1  0
 18 19  1  0
 19 20  1  0
 21 22  2  0
 21 25  1  0
 22 23  1  0
 22 24  1  0
 26 27  1  0
 27 29  1  0
 29 30  2  0
M  END
>  <PUBCHEM_COMPOUND_CID>  (1) 
47521

>  <PUBCHEM_CONFORMER_RMSD>  (1) 
1

>  <PUBCHEM_CONFORMER_DIVERSEORDER>  (1) 
1
55
104
203
43
40
127
21
161
62
27
191
197
188
168
149
124
99
181
12
179
151
193
16
19
160
46
162
199
64
96
150
103
153
170
74
80
28
146
204
98
130
133
45
3
144
143
18
147
79
131
92
167
94
132
89
108
194
141
67
187
200
14
2
134
78
154
190
38
156
138
208
177
180
118
85
10
102
158
209
60
136
126
68
163
175
202
155
66
26
196
169
48
57
184
174
59
123
166
53
125
83
8
50
105
178
70
36
122
129
112
135
113
140
139
61
186
41
120
212
182
52
81
86
164
201
31
15
119
56
192
205
173
165
176
75
47
121
71
117
87
159
58
77
137
198
110
17
171
73
210
152
101
88
97
206
32
37
69
90
115
25
30
211
82
109
145
84
195
128
23
93
185
33
24
13
189
22
54
5
9
35
111
7
11
39
183
72
63
100
142
51
4
116
29
34
107
207
172
76
91
20
49
42
106
148
114
44
6
95
157
65

>  <PUBCHEM_MMFF94_PARTIAL_CHARGES>  (1) 
37
1 -0.45
10 -0.65
11 -0.51
12 0.31
13 -0.57
14 -0.34
15 -0.42
17 -0.88
18 0.44
19 0.28
2 -0.29
20 0.58
21 0.12
22 -0.28
23 0.37
24 0.37
25 0.71
26 0.63
27 0.54
28 0.24
29 0.14
3 -0.08
30 -0.11
31 0.26
32 0.46
33 0.28
38 0.37
4 -0.57
41 0.5
42 0.15
49 0.4
5 -0.65
50 0.4
6 -0.57
7 -0.57
8 -0.22
9 -0.39

>  <PUBCHEM_EFFECTIVE_ROTOR_COUNT>  (1) 
9.6

>  <PUBCHEM_PHARMACOPHORE_FEATURES>  (1) 
14
1 10 donor
1 11 acceptor
1 17 donor
1 4 acceptor
1 5 acceptor
1 6 acceptor
1 7 acceptor
3 12 14 28 cation
3 13 17 32 cation
3 5 6 25 anion
4 9 18 19 20 rings
5 12 14 15 16 28 rings
5 3 13 29 30 32 rings
6 1 9 18 21 22 23 rings

>  <PUBCHEM_HEAVY_ATOM_COUNT>  (1) 
33

>  <PUBCHEM_ATOM_DEF_STEREO_COUNT>  (1) 
2

>  <PUBCHEM_ATOM_UDEF_STEREO_COUNT>  (1) 
0

>  <PUBCHEM_BOND_DEF_STEREO_COUNT>  (1) 
0

>  <PUBCHEM_BOND_UDEF_STEREO_COUNT>  (1) 
1

>  <PUBCHEM_ISOTOPIC_ATOM_COUNT>  (1) 
0

>  <PUBCHEM_COMPONENT_COUNT>  (1) 
1

>  <PUBCHEM_CACTVS_TAUTO_COUNT>  (1) 
4

>  <PUBCHEM_CONFORMER_ID>  (1) 
0000B9A100000001

>  <PUBCHEM_MMFF94_ENERGY>  (1) 
76.1706

>  <PUBCHEM_FEATURE_SELFOVERLAP>  (1) 
71.363

>  <PUBCHEM_SHAPE_FINGERPRINT>  (1) 
10928967 22 17468774991595148066
117089 54 17985000206061930830
12422481 6 16988575554727286005
13533116 47 18413110588968873477
14705955 166 14979966843316919547
15347590 135 17845927558931349120
15475509 35 18341047527479834145
15510800 12 17968107407974929482
15721738 202 18273494559292453114
17492 89 18198063569402444694
19315092 285 17532355492642789778
19841028 212 18189889821267862130
20715895 44 7997974556966656532
21197605 99 18410291424482275866
21703447 108 18200872980256638369
23559900 14 18043247041270759029
249057 3 10665218259702660424
345986 75 17846780693785663497
3886686 26 17623866625530086789
439807 62 18113614594982742063
4461854 278 17918275376852690646
463206 1 18196650911213452950
5104073 3 17844810287502351184
57724786 102 12175035754086135666

>  <PUBCHEM_SHAPE_MULTIPOLES>  (1) 
616.5
18.06
4.71
1.7
13.77
2.15
-0.05
16.42
3.6
-0.67
1.72
-0.36
-0.33
-0.34

>  <PUBCHEM_SHAPE_SELFOVERLAP>  (1) 
1277.733

>  <PUBCHEM_SHAPE_VOLUME>  (1) 
355.5

>  <PUBCHEM_COORDINATE_TYPE>  (1) 
2
5
10

$$$$
