47538
     RDKit          3D

 15 16  0  0  0  0  0  0  0  0999 V2000
   -0.3244    0.9407    1.1708 O   0  0  0  0  0  0  0  0  0  0  0  0
   -0.4841    0.9868   -1.2339 O   0  0  0  0  0  0  0  0  0  0  0  0
    3.2438   -0.8275   -0.3030 N   0  0  0  0  0  0  0  0  0  0  0  0
    0.2132    1.4783   -0.0627 C   0  0  0  0  0  0  0  0  0  0  0  0
    1.6816    1.0678   -0.1680 C   0  0  0  0  0  0  0  0  0  0  0  0
    1.8619   -0.4420   -0.2268 C   0  0  0  0  0  0  0  0  0  0  0  0
    0.0790    3.0000   -0.0244 C   0  0  0  0  0  0  0  0  0  0  0  0
   -1.3253    0.1439    0.7035 C   0  0  0  0  0  0  0  0  0  0  0  0
   -1.4164    0.1704   -0.6692 C   0  0  0  0  0  0  0  0  0  0  0  0
   -2.1770   -0.6208    1.4734 C   0  0  0  0  0  0  0  0  0  0  0  0
   -2.3647   -0.5664   -1.3484 C   0  0  0  0  0  0  0  0  0  0  0  0
    3.3900   -2.2902   -0.3737 C   0  0  0  0  0  0  0  0  0  0  0  0
    4.0085   -0.3140    0.8447 C   0  0  0  0  0  0  0  0  0  0  0  0
   -3.1464   -1.3770    0.8103 C   0  0  0  0  0  0  0  0  0  0  0  0
   -3.2397   -1.3499   -0.5924 C   0  0  0  0  0  0  0  0  0  0  0  0
  1  4  1  0
  1  8  1  0
  2  4  1  0
  2  9  1  0
  3  6  1  0
  3 12  1  0
  3 13  1  0
  4  5  1  0
  4  7  1  0
  5  6  1  0
  8  9  2  0
  8 10  1  0
  9 11  1  0
 10 14  2  0
 11 15  2  0
 14 15  1  0
M  END
>  <PUBCHEM_COMPOUND_CID>  (1) 
47538

>  <PUBCHEM_CONFORMER_RMSD>  (1) 
0.6

>  <PUBCHEM_CONFORMER_DIVERSEORDER>  (1) 
1
6
3
7
4
5
2

>  <PUBCHEM_MMFF94_PARTIAL_CHARGES>  (1) 
17
1 -0.36
10 -0.15
11 -0.15
12 0.27
13 0.27
14 -0.15
15 -0.15
2 -0.36
23 0.15
24 0.15
3 -0.81
31 0.15
32 0.15
4 0.56
6 0.27
8 0.08
9 0.08

>  <PUBCHEM_EFFECTIVE_ROTOR_COUNT>  (1) 
3.6

>  <PUBCHEM_PHARMACOPHORE_FEATURES>  (1) 
5
1 1 acceptor
1 2 acceptor
1 3 cation
5 1 2 4 8 9 rings
6 8 9 10 11 14 15 rings

>  <PUBCHEM_HEAVY_ATOM_COUNT>  (1) 
15

>  <PUBCHEM_ATOM_DEF_STEREO_COUNT>  (1) 
0

>  <PUBCHEM_ATOM_UDEF_STEREO_COUNT>  (1) 
0

>  <PUBCHEM_BOND_DEF_STEREO_COUNT>  (1) 
0

>  <PUBCHEM_BOND_UDEF_STEREO_COUNT>  (1) 
0

>  <PUBCHEM_ISOTOPIC_ATOM_COUNT>  (1) 
0

>  <PUBCHEM_COMPONENT_COUNT>  (1) 
1

>  <PUBCHEM_CACTVS_TAUTO_COUNT>  (1) 
1

>  <PUBCHEM_CONFORMER_ID>  (1) 
0000B9B200000001

>  <PUBCHEM_MMFF94_ENERGY>  (1) 
38.69

>  <PUBCHEM_FEATURE_SELFOVERLAP>  (1) 
25.525

>  <PUBCHEM_SHAPE_FINGERPRINT>  (1) 
10618630 7 18410016503071498142
10857977 72 14763802952170013987
11127187 94 17240485801384895115
11137873 295 18334013895614851959
11578080 2 17559931342877872353
11769659 78 18271524324876443247
12202030 40 17679029441697009859
12251169 10 15769776887544684810
12363563 72 18334296457276375858
12553582 1 18339655502630204670
13764800 53 12679464196301771906
14787075 74 15400729365999162872
15775835 57 7997976760195442195
15906896 17 17977107859788529585
16945 1 18122909999433312221
17834072 14 18260254262003683616
18186145 218 7853858291144185326
20201158 50 18187080667679293362
20361792 2 18413109480471659268
20645477 70 18191294091026891999
20653085 51 11314314936021579944
20671657 53 17167863067234219990
20711985 344 18117546349589712136
21061003 4 18412825802160842888
21296965 67 18410854369322662577
21524375 3 17112972964190242268
22445834 79 17917155003950681955
22802520 49 17022902397465862421
23559900 14 17386270057418977160
23728640 28 17472412154278799322
27216 239 11239409615458179646
81228 2 18191865630698913112
90316 7 17060072440394188489

>  <PUBCHEM_SHAPE_MULTIPOLES>  (1) 
291.97
6
2.3
1.23
3.64
1.1
0.1
-4.8
0.42
0.88
-0.17
-0.74
-0.14
0.26

>  <PUBCHEM_SHAPE_SELFOVERLAP>  (1) 
613.484

>  <PUBCHEM_SHAPE_VOLUME>  (1) 
167.3

>  <PUBCHEM_COORDINATE_TYPE>  (1) 
2
5
10

$$$$
