47530
     RDKit          3D

 36 39  0  0  1  0  0  0  0  0999 V2000
   -6.2102    3.4536   -1.1553 Cl  0  0  0  0  0  0  0  0  0  0  0  0
    2.8364   -1.4443   -0.2914 O   0  0  0  0  0  0  0  0  0  0  0  0
    1.0095    0.9833    3.9044 O   0  0  0  0  0  0  0  0  0  0  0  0
   -3.6900   -2.6833   -0.9098 O   0  0  0  0  0  0  0  0  0  0  0  0
    2.8454   -3.2895   -1.6751 O   0  0  0  0  0  0  0  0  0  0  0  0
    6.3084    0.5585   -1.5056 O   0  0  0  0  0  0  0  0  0  0  0  0
    5.0384    2.3622   -2.0209 O   0  0  0  0  0  0  0  0  0  0  0  0
   -1.8640   -1.7532    0.0516 N   0  0  0  0  0  0  0  0  0  0  0  0
    0.2305   -2.4790    0.4290 C   0  0  0  0  0  0  0  0  0  0  0  0
   -0.0091   -1.3826    1.2899 C   0  0  0  0  0  0  0  0  0  0  0  0
   -0.9052   -2.6788   -0.3148 C   0  0  0  0  0  0  0  0  0  0  0  0
   -1.3147   -0.9349    1.0447 C   0  0  0  0  0  0  0  0  0  0  0  0
    1.4801   -3.2645    0.3420 C   0  0  0  0  0  0  0  0  0  0  0  0
    0.7794   -0.7293    2.2601 C   0  0  0  0  0  0  0  0  0  0  0  0
   -1.8479    0.1520    1.7642 C   0  0  0  0  0  0  0  0  0  0  0  0
   -1.1151   -3.7152   -1.3537 C   0  0  0  0  0  0  0  0  0  0  0  0
   -3.1505   -1.6523   -0.5217 C   0  0  0  0  0  0  0  0  0  0  0  0
    0.2494    0.3516    2.9672 C   0  0  0  0  0  0  0  0  0  0  0  0
   -1.0475    0.7838    2.7215 C   0  0  0  0  0  0  0  0  0  0  0  0
    2.4599   -2.7018   -0.6735 C   0  0  0  0  0  0  0  0  0  0  0  0
    4.0887    0.6063   -0.6048 C   0  0  0  0  0  0  0  0  0  0  0  0
   -3.9046   -0.3935   -0.6775 C   0  0  0  0  0  0  0  0  0  0  0  0
    3.7630   -0.7870   -1.1619 C   0  0  0  0  0  0  0  0  0  0  0  0
    2.8496    1.4805   -0.4885 C   0  0  0  0  0  0  0  0  0  0  0  0
   -3.3742    0.6474   -1.4396 C   0  0  0  0  0  0  0  0  0  0  0  0
   -5.1481   -0.2447   -0.0632 C   0  0  0  0  0  0  0  0  0  0  0  0
    5.1606    1.2850   -1.4523 C   0  0  0  0  0  0  0  0  0  0  0  0
    2.7384    2.3974    0.5568 C   0  0  0  0  0  0  0  0  0  0  0  0
    1.8241    1.3653   -1.4269 C   0  0  0  0  0  0  0  0  0  0  0  0
   -4.0871    1.8372   -1.5873 C   0  0  0  0  0  0  0  0  0  0  0  0
   -5.8611    0.9450   -0.2109 C   0  0  0  0  0  0  0  0  0  0  0  0
    2.3320    0.4892    4.1072 C   0  0  0  0  0  0  0  0  0  0  0  0
   -5.3305    1.9859   -0.9729 C   0  0  0  0  0  0  0  0  0  0  0  0
    1.6019    3.1990    0.6638 C   0  0  0  0  0  0  0  0  0  0  0  0
    0.6876    2.1668   -1.3201 C   0  0  0  0  0  0  0  0  0  0  0  0
    0.5764    3.0836   -0.2747 C   0  0  0  0  0  0  0  0  0  0  0  0
  1 33  1  0
  2 20  1  0
  2 23  1  0
  3 18  1  0
  3 32  1  0
  4 17  2  0
  5 20  2  0
  6 27  1  0
  7 27  2  0
  8 11  1  0
  8 12  1  0
  8 17  1  0
  9 10  1  0
  9 11  2  0
  9 13  1  0
 10 12  2  0
 10 14  1  0
 11 16  1  0
 12 15  1  0
 13 20  1  0
 14 18  2  0
 15 19  2  0
 17 22  1  0
 18 19  1  0
 21 23  1  0
 21 24  1  0
 21 27  1  0
 22 25  2  0
 22 26  1  0
 24 28  2  0
 24 29  1  0
 25 30  1  0
 26 31  2  0
 28 34  1  0
 29 35  2  0
 30 33  2  0
 31 33  1  0
 34 36  2  0
 35 36  1  0
M  END
>  <PUBCHEM_COMPOUND_CID>  (1) 
47530

>  <PUBCHEM_CONFORMER_RMSD>  (1) 
1

>  <PUBCHEM_CONFORMER_DIVERSEORDER>  (1) 
1
247
218
114
57
172
228
147
51
214
439
90
158
277
406
254
330
111
235
74
270
335
410
168
159
182
131
133
395
238
196
34
58
236
374
186
145
98
415
327
398
40
198
210
239
284
384
148
220
171
146
423
400
80
195
120
67
44
267
337
341
83
128
179
364
126
475
108
413
125
262
225
272
45
278
6
353
202
359
312
313
94
59
369
339
137
301
199
426
176
252
416
154
162
326
49
230
361
377
173
204
402
334
444
448
96
260
25
340
89
378
295
427
274
372
75
121
151
411
253
328
54
118
84
60
134
392
248
13
268
32
232
401
449
112
104
455
224
311
77
222
174
257
200
331
181
26
241
438
399
462
103
393
302
72
306
166
48
310
115
265
38
338
305
190
15
456
443
333
303
185
382
255
23
379
88
336
373
99
180
223
117
82
320
391
354
266
155
409
396
419
271
259
371
43
343
420
412
432
219
237
463
264
101
109
417
56
177
150
10
370
383
205
386
293
325
472
113
246
100
127
421
256
81
322
91
188
355
436
119
424
189
250
63
434
440
66
86
470
304
309
123
351
140
450
314
227
136
70
459
211
76
102
292
221
473
244
357
287
243
261
47
298
124
157
318
458
107
474
296
116
208
350
207
245
18
30
346
29
388
193
348
42
142
212
435
276
139
294
390
184
209
163
95
429
297
201
5
285
464
156
366
175
213
68
153
460
368
106
35
349
258
263
138
122
467
110
329
442
141
93
7
414
290
19
282
319
169
9
453
192
441
275
187
135
362
31
345
269
347
279
217
408
280
428
300
457
418
64
365
2
471
324
197
425
461
317
249
286
376
283
167
92
215
344
454
17
79
14
22
323
178
21
430
404
129
431
363
289
20
403
85
231
229
273
387
62
28
476
380
233
149
78
446
242
469
447
407
143
53
8
130
358
367
55
52
356
307
16
308
191
251
152
451
397
422
437
352
381
165
161
288
216
183
234
226
477
206
160
452
240
315
3
385
50
445
394
170
46
321
37
405
281
27
97
61
69
468
433
316
144
342
132
466
203
332
71
465
73
65
389
41
291
360
375
4
39
36
24
194
33
87
12
105
164
299
11

>  <PUBCHEM_MMFF94_PARTIAL_CHARGES>  (1) 
48
1 -0.18
11 -0.33
12 -0.15
13 0.24
14 -0.15
15 -0.15
16 0.18
17 0.49
18 0.08
19 -0.15
2 -0.43
20 0.66
21 0.2
22 0.09
23 0.28
24 -0.14
25 -0.15
26 -0.15
27 0.66
28 -0.15
29 -0.15
3 -0.36
30 -0.15
31 -0.15
32 0.28
33 0.18
34 -0.15
35 -0.15
36 -0.15
39 0.15
4 -0.57
40 0.15
44 0.15
48 0.15
49 0.15
5 -0.57
50 0.15
51 0.15
52 0.15
53 0.15
57 0.15
58 0.15
59 0.15
6 -0.65
60 0.5
7 -0.57
8 0.29
9 -0.18

>  <PUBCHEM_EFFECTIVE_ROTOR_COUNT>  (1) 
10

>  <PUBCHEM_PHARMACOPHORE_FEATURES>  (1) 
10
1 3 acceptor
1 4 acceptor
1 5 acceptor
1 6 acceptor
1 7 acceptor
3 6 7 27 anion
5 8 9 10 11 12 rings
6 10 12 14 15 18 19 rings
6 22 25 26 30 31 33 rings
6 24 28 29 34 35 36 rings

>  <PUBCHEM_HEAVY_ATOM_COUNT>  (1) 
36

>  <PUBCHEM_ATOM_DEF_STEREO_COUNT>  (1) 
0

>  <PUBCHEM_ATOM_UDEF_STEREO_COUNT>  (1) 
1

>  <PUBCHEM_BOND_DEF_STEREO_COUNT>  (1) 
0

>  <PUBCHEM_BOND_UDEF_STEREO_COUNT>  (1) 
0

>  <PUBCHEM_ISOTOPIC_ATOM_COUNT>  (1) 
0

>  <PUBCHEM_COMPONENT_COUNT>  (1) 
1

>  <PUBCHEM_CACTVS_TAUTO_COUNT>  (1) 
1

>  <PUBCHEM_CONFORMER_ID>  (1) 
0000B9AA00000001

>  <PUBCHEM_MMFF94_ENERGY>  (1) 
100.4457

>  <PUBCHEM_FEATURE_SELFOVERLAP>  (1) 
50.897

>  <PUBCHEM_SHAPE_FINGERPRINT>  (1) 
10483366 6 18339645512536241876
10764073 3 17553716812984254178
107951 10 16805613611239952800
10816530 90 17826222992122901429
11093857 51 18052514609679399711
11370993 70 17981884456300735070
11578080 2 17557419083035070033
12107698 1 17171810477007312266
12156800 1 18050534573857753032
12422481 6 17827598579219800184
12788726 201 17202780197509413523
13617811 41 17693636518709031639
13636023 20 18342454855029499118
14251757 17 18410857655104506637
14713325 29 17970358224610284203
15001296 14 18116714002725197989
15082195 135 18194373656204446487
15975801 100 17386270030842468220
18608769 82 18043261321746685659
21927370 108 15869098870312599194
23559900 14 17773597307252174144
244849 19 17314255296225047690
508180 173 18409175432553548984
508706 21 18188775092370106567
513532 50 17631142283092546877
5265222 85 18044673111688341404
57527295 17 17895195549711164690
5776283 40 18118696636616858812
6669772 16 17058908143210836883

>  <PUBCHEM_SHAPE_MULTIPOLES>  (1) 
702.54
11.09
4.48
2.97
7.74
1.17
4.06
-8.23
-7.78
0.06
-2.13
-2.44
-0.63
0.35

>  <PUBCHEM_SHAPE_SELFOVERLAP>  (1) 
1523.5

>  <PUBCHEM_SHAPE_VOLUME>  (1) 
384.7

>  <PUBCHEM_COORDINATE_TYPE>  (1) 
2
5
10

$$$$
