47534
     RDKit          3D

 19 21  0  0  0  0  0  0  0  0999 V2000
    1.9971   -0.7708   -1.3069 O   0  0  0  0  0  0  0  0  0  0  0  0
    2.2170   -1.1144    1.0690 O   0  0  0  0  0  0  0  0  0  0  0  0
   -1.9094   -1.4564    0.1576 N   0  0  0  0  0  0  0  0  0  0  0  0
   -2.8251   -0.3430    0.3986 C   0  0  0  0  0  0  0  0  0  0  0  0
   -2.7149    0.6777   -0.7393 C   0  0  0  0  0  0  0  0  0  0  0  0
   -4.2589   -0.8677    0.5336 C   0  0  0  0  0  0  0  0  0  0  0  0
   -3.7137    1.8199   -0.5613 C   0  0  0  0  0  0  0  0  0  0  0  0
   -5.2556    0.2766    0.7107 C   0  0  0  0  0  0  0  0  0  0  0  0
   -5.1415    1.3012   -0.4144 C   0  0  0  0  0  0  0  0  0  0  0  0
   -0.5309   -0.9880    0.0777 C   0  0  0  0  0  0  0  0  0  0  0  0
    0.4099   -2.1671   -0.1388 C   0  0  0  0  0  0  0  0  0  0  0  0
    1.8649   -1.7047   -0.2067 C   0  0  0  0  0  0  0  0  0  0  0  0
    2.7968   -2.8881   -0.4642 C   0  0  0  0  0  0  0  0  0  0  0  0
    2.4245    0.3488   -0.6597 C   0  0  0  0  0  0  0  0  0  0  0  0
    2.5500    0.1526    0.6965 C   0  0  0  0  0  0  0  0  0  0  0  0
    2.7120    1.5631   -1.2475 C   0  0  0  0  0  0  0  0  0  0  0  0
    2.9699    1.1600    1.5403 C   0  0  0  0  0  0  0  0  0  0  0  0
    3.1399    2.6003   -0.4155 C   0  0  0  0  0  0  0  0  0  0  0  0
    3.2681    2.4000    0.9703 C   0  0  0  0  0  0  0  0  0  0  0  0
  1 12  1  0
  1 14  1  0
  2 12  1  0
  2 15  1  0
  3  4  1  0
  3 10  1  0
  4  5  1  0
  4  6  1  0
  5  7  1  0
  6  8  1  0
  7  9  1  0
  8  9  1  0
 10 11  1  0
 11 12  1  0
 12 13  1  0
 14 15  2  0
 14 16  1  0
 15 17  1  0
 16 18  2  0
 17 19  2  0
 18 19  1  0
M  END
>  <PUBCHEM_COMPOUND_CID>  (1) 
47534

>  <PUBCHEM_CONFORMER_RMSD>  (1) 
0.8

>  <PUBCHEM_CONFORMER_DIVERSEORDER>  (1) 
1
15
7
16
6
19
14
8
20
10
2
9
4
13
11
21
5
17
12
3
18

>  <PUBCHEM_MMFF94_PARTIAL_CHARGES>  (1) 
17
1 -0.36
10 0.27
12 0.56
14 0.08
15 0.08
16 -0.15
17 -0.15
18 -0.15
19 -0.15
2 -0.36
3 -0.9
31 0.36
39 0.15
4 0.27
40 0.15
41 0.15
42 0.15

>  <PUBCHEM_EFFECTIVE_ROTOR_COUNT>  (1) 
5.8

>  <PUBCHEM_PHARMACOPHORE_FEATURES>  (1) 
7
1 1 acceptor
1 2 acceptor
1 3 cation
1 3 donor
5 1 2 12 14 15 rings
6 14 15 16 17 18 19 rings
6 4 5 6 7 8 9 rings

>  <PUBCHEM_HEAVY_ATOM_COUNT>  (1) 
19

>  <PUBCHEM_ATOM_DEF_STEREO_COUNT>  (1) 
0

>  <PUBCHEM_ATOM_UDEF_STEREO_COUNT>  (1) 
0

>  <PUBCHEM_BOND_DEF_STEREO_COUNT>  (1) 
0

>  <PUBCHEM_BOND_UDEF_STEREO_COUNT>  (1) 
0

>  <PUBCHEM_ISOTOPIC_ATOM_COUNT>  (1) 
0

>  <PUBCHEM_COMPONENT_COUNT>  (1) 
1

>  <PUBCHEM_CACTVS_TAUTO_COUNT>  (1) 
1

>  <PUBCHEM_CONFORMER_ID>  (1) 
0000B9AE00000001

>  <PUBCHEM_MMFF94_ENERGY>  (1) 
29.109

>  <PUBCHEM_FEATURE_SELFOVERLAP>  (1) 
35.674

>  <PUBCHEM_SHAPE_FINGERPRINT>  (1) 
10498660 4 18200880689753991729
11405975 8 18337112259558442043
11595378 159 16081087052662530477
11615756 256 18411424977545898009
11715629 250 18411136974018209999
12633257 1 16515954990710806440
12769317 202 18130219462350719224
13134695 92 18057596560939146006
13224815 77 18411417323982371517
13965767 371 18188755267101897620
14170010 4 18271805684042173602
14251764 38 18335978667328566989
17868525 174 17972591083264415507
1798214 55 18340487875613137033
18186145 218 18272098158271730731
19752476 56 17775852306478982160
20715895 44 18045766911289298141
21452121 103 18410851058008346642
22749437 52 18409725136774776129
23557571 272 17532957075747832971
23559900 14 18263926544952087719
341906 21 17313104142548326789
474 4 18408039624061442043
49207404 50 18260554441541882435
5104073 3 18334863792839579203
5281201 14 18340210678824559119
5895379 119 16413810175748638248
6669772 16 10666100042854568954
7364860 26 18341614793954762534
7808743 9 17976544128414902012
960060 61 11815898976701902545

>  <PUBCHEM_SHAPE_MULTIPOLES>  (1) 
374.29
10.02
2.95
1.17
13.83
0.29
0.09
-4.61
0.86
-3.06
-0.29
-0.79
-0.34
0.95

>  <PUBCHEM_SHAPE_SELFOVERLAP>  (1) 
789.269

>  <PUBCHEM_SHAPE_VOLUME>  (1) 
209.6

>  <PUBCHEM_COORDINATE_TYPE>  (1) 
2
5
10

$$$$
