47553
     RDKit          3D

 13 14  0  0  0  0  0  0  0  0999 V2000
    0.0057    2.0686    0.4847 O   0  0  0  0  0  0  0  0  0  0  0  0
    2.2517   -1.7717    0.2995 O   0  0  0  0  0  0  0  0  0  0  0  0
   -1.3738    0.2593    0.1020 N   0  0  0  0  0  0  0  0  0  0  0  0
    0.9638   -1.2811    0.5225 N   0  0  0  0  0  0  0  0  0  0  0  0
    3.0976   -0.7703   -0.1813 N   0  0  0  0  0  0  0  0  0  0  0  0
   -3.0810   -1.1720   -0.6708 C   0  0  0  0  0  0  0  0  0  0  0  0
   -3.7172    0.0104    0.0483 C   0  0  0  0  0  0  0  0  0  0  0  0
   -1.6509   -1.1549   -0.1485 C   0  0  0  0  0  0  0  0  0  0  0  0
   -2.6008    1.0427    0.0503 C   0  0  0  0  0  0  0  0  0  0  0  0
   -0.1320    0.8634    0.2772 C   0  0  0  0  0  0  0  0  0  0  0  0
    1.0405   -0.0003    0.1788 C   0  0  0  0  0  0  0  0  0  0  0  0
    2.3251    0.3127   -0.2462 C   0  0  0  0  0  0  0  0  0  0  0  0
    2.8712    1.5933   -0.7165 C   0  0  0  0  0  0  0  0  0  0  0  0
  1 10  2  0
  2  4  1  0
  2  5  1  0
  3  8  1  0
  3  9  1  0
  3 10  1  0
  4 11  2  0
  5 12  2  0
  6  7  1  0
  6  8  1  0
  7  9  1  0
 10 11  1  0
 11 12  1  0
 12 13  1  0
M  END
>  <PUBCHEM_COMPOUND_CID>  (1) 
47553

>  <PUBCHEM_CONFORMER_RMSD>  (1) 
0.6

>  <PUBCHEM_CONFORMER_DIVERSEORDER>  (1) 
4
5
3
2
1

>  <PUBCHEM_MMFF94_PARTIAL_CHARGES>  (1) 
11
1 -0.57
10 0.72
11 0.2
12 0.11
13 0.18
2 0.24
3 -0.66
4 -0.41
5 -0.41
8 0.3
9 0.3

>  <PUBCHEM_EFFECTIVE_ROTOR_COUNT>  (1) 
3

>  <PUBCHEM_PHARMACOPHORE_FEATURES>  (1) 
5
1 1 acceptor
1 4 acceptor
1 5 acceptor
5 2 4 5 11 12 rings
5 3 6 7 8 9 rings

>  <PUBCHEM_HEAVY_ATOM_COUNT>  (1) 
13

>  <PUBCHEM_ATOM_DEF_STEREO_COUNT>  (1) 
0

>  <PUBCHEM_ATOM_UDEF_STEREO_COUNT>  (1) 
0

>  <PUBCHEM_BOND_DEF_STEREO_COUNT>  (1) 
0

>  <PUBCHEM_BOND_UDEF_STEREO_COUNT>  (1) 
0

>  <PUBCHEM_ISOTOPIC_ATOM_COUNT>  (1) 
0

>  <PUBCHEM_COMPONENT_COUNT>  (1) 
1

>  <PUBCHEM_CACTVS_TAUTO_COUNT>  (1) 
1

>  <PUBCHEM_CONFORMER_ID>  (1) 
0000B9C100000004

>  <PUBCHEM_MMFF94_ENERGY>  (1) 
22.5688

>  <PUBCHEM_FEATURE_SELFOVERLAP>  (1) 
25.423

>  <PUBCHEM_SHAPE_FINGERPRINT>  (1) 
10130415 120 18411415081634948763
12897270 3 18335423482211098100
12932764 1 17917426570738475625
14144814 61 18342738524781411659
14325111 11 18409449189288658405
15375462 189 18412549829432923099
15775835 57 18410860992309835317
16945 1 18267582596864827513
17844478 74 17821738217136001249
18186145 218 17603303743439848619
18619055 16 18410005512102247861
19422 9 18413675707743674559
20201158 50 18334857212126891082
20645477 70 18410007715684598247
20711985 365 18267020544691699613
23402539 116 18342173406202075348
23402655 69 18409445873721774677
23463225 33 18340768139567234895
23552423 10 18335137557548152443
23559900 14 18200586987574997466
2748010 2 17185594057673037707
3248919 1 18040992977233517273
3312278 4 18339929311089973611
57096353 35 18339080513756547245
7364860 26 17914890066043411857

>  <PUBCHEM_SHAPE_MULTIPOLES>  (1) 
240.85
5.75
1.79
0.72
1.53
0.11
0.06
-0.38
1
-0.62
-0.08
-0.02
0.03
-0.58

>  <PUBCHEM_SHAPE_SELFOVERLAP>  (1) 
502.969

>  <PUBCHEM_SHAPE_VOLUME>  (1) 
138.8

>  <PUBCHEM_COORDINATE_TYPE>  (1) 
2
5
10

$$$$
