47551
     RDKit          3D

 11 10  0  0  0  0  0  0  0  0999 V2000
    0.4446    0.0029    0.2672 N   0  0  0  0  0  0  0  0  0  0  0  0
    2.1647    3.2831   -0.1981 N   0  0  0  0  0  0  0  0  0  0  0  0
    2.4215   -3.1277   -0.2087 N   0  0  0  0  0  0  0  0  0  0  0  0
   -4.3719    0.0809   -0.2851 N   0  0  0  0  0  0  0  0  0  0  0  0
    1.4266    0.9501   -0.2593 C   0  0  0  0  0  0  0  0  0  0  0  0
    0.7379   -1.3509   -0.2017 C   0  0  0  0  0  0  0  0  0  0  0  0
   -0.9078    0.3978   -0.1249 C   0  0  0  0  0  0  0  0  0  0  0  0
    1.1743    2.3419    0.3131 C   0  0  0  0  0  0  0  0  0  0  0  0
    2.1356   -1.7705    0.2438 C   0  0  0  0  0  0  0  0  0  0  0  0
   -1.9310   -0.5923    0.4257 C   0  0  0  0  0  0  0  0  0  0  0  0
   -3.2944   -0.2152    0.0280 C   0  0  0  0  0  0  0  0  0  0  0  0
  1  5  1  0
  1  6  1  0
  1  7  1  0
  2  8  1  0
  3  9  1  0
  4 11  3  0
  5  8  1  0
  6  9  1  0
  7 10  1  0
 10 11  1  0
M  END
>  <PUBCHEM_COMPOUND_CID>  (1) 
47551

>  <PUBCHEM_CONFORMER_RMSD>  (1) 
0.6

>  <PUBCHEM_CONFORMER_DIVERSEORDER>  (1) 
1
9
16
23
18
5
19
24
6
21
22
20
10
12
4
17
14
7
15
8
13
3
11
2

>  <PUBCHEM_MMFF94_PARTIAL_CHARGES>  (1) 
15
1 -0.81
10 0.2
11 0.36
2 -0.99
24 0.36
25 0.36
26 0.36
27 0.36
3 -0.99
4 -0.56
5 0.27
6 0.27
7 0.27
8 0.27
9 0.27

>  <PUBCHEM_EFFECTIVE_ROTOR_COUNT>  (1) 
6

>  <PUBCHEM_PHARMACOPHORE_FEATURES>  (1) 
6
1 1 cation
1 2 cation
1 2 donor
1 3 cation
1 3 donor
1 4 acceptor

>  <PUBCHEM_HEAVY_ATOM_COUNT>  (1) 
11

>  <PUBCHEM_ATOM_DEF_STEREO_COUNT>  (1) 
0

>  <PUBCHEM_ATOM_UDEF_STEREO_COUNT>  (1) 
0

>  <PUBCHEM_BOND_DEF_STEREO_COUNT>  (1) 
0

>  <PUBCHEM_BOND_UDEF_STEREO_COUNT>  (1) 
0

>  <PUBCHEM_ISOTOPIC_ATOM_COUNT>  (1) 
0

>  <PUBCHEM_COMPONENT_COUNT>  (1) 
1

>  <PUBCHEM_CACTVS_TAUTO_COUNT>  (1) 
1

>  <PUBCHEM_CONFORMER_ID>  (1) 
0000B9BF00000001

>  <PUBCHEM_MMFF94_ENERGY>  (1) 
7.8481

>  <PUBCHEM_FEATURE_SELFOVERLAP>  (1) 
30.447

>  <PUBCHEM_SHAPE_FINGERPRINT>  (1) 
1 1 18338517572409053276
12138202 78 18408319977972755589
18410436 195 18268708316319688152
19021347 4 17762055836621253474
20645477 70 18409158923147369927
20671657 1 18412830217566564821
20671657 53 18268995276154602903
20711985 327 18270123383537518183
20711985 344 17543631928919682834
20871998 22 18196086651505807762
21426921 1 17546449973502043014
21499 59 18122055679062067293
21524375 3 17829034760459511056
23532345 88 18341597227522275791
305870 269 18193553599921705952
58734987 43 18339365162840988446
7364860 26 18411699906533136744
81228 2 17618513081749763418
81539 233 18262514934771656444

>  <PUBCHEM_SHAPE_MULTIPOLES>  (1) 
206.45
5.23
3.33
0.65
7.18
0.8
-0.02
-0.69
0.36
-5.09
0.13
0.02
0
0.05

>  <PUBCHEM_SHAPE_SELFOVERLAP>  (1) 
377.224

>  <PUBCHEM_SHAPE_VOLUME>  (1) 
128.1

>  <PUBCHEM_COORDINATE_TYPE>  (1) 
2
5
10

$$$$
