47554
     RDKit          3D

 10 10  0  0  0  0  0  0  0  0999 V2000
    1.9013    1.4789   -0.0013 O   0  0  0  0  0  0  0  0  0  0  0  0
   -2.3970    1.2294    0.0031 O   0  0  0  0  0  0  0  0  0  0  0  0
   -0.9125   -0.5962    0.0002 N   0  0  0  0  0  0  0  0  0  0  0  0
    0.5138    1.3239   -0.0001 N   0  0  0  0  0  0  0  0  0  0  0  0
    2.5480    0.2415   -0.0019 N   0  0  0  0  0  0  0  0  0  0  0  0
    0.3609    0.0210    0.0007 C   0  0  0  0  0  0  0  0  0  0  0  0
    1.5579   -0.6493   -0.0006 C   0  0  0  0  0  0  0  0  0  0  0  0
    1.8521   -2.0894    0.0028 C   0  0  0  0  0  0  0  0  0  0  0  0
   -2.1539    0.0269    0.0014 C   0  0  0  0  0  0  0  0  0  0  0  0
   -3.2707   -0.9866   -0.0042 C   0  0  0  0  0  0  0  0  0  0  0  0
  1  4  1  0
  1  5  1  0
  2  9  2  0
  3  6  1  0
  3  9  1  0
  4  6  2  0
  5  7  2  0
  6  7  1  0
  7  8  1  0
  9 10  1  0
M  END
>  <PUBCHEM_COMPOUND_CID>  (1) 
47554

>  <PUBCHEM_CONFORMER_RMSD>  (1) 
0.4

>  <PUBCHEM_CONFORMER_DIVERSEORDER>  (1) 
1
4
3
2
5

>  <PUBCHEM_MMFF94_PARTIAL_CHARGES>  (1) 
11
1 0.24
10 0.06
11 0.37
2 -0.57
3 -0.49
4 -0.41
5 -0.41
6 0.35
7 0.11
8 0.18
9 0.57

>  <PUBCHEM_EFFECTIVE_ROTOR_COUNT>  (1) 
2

>  <PUBCHEM_PHARMACOPHORE_FEATURES>  (1) 
4
1 2 acceptor
1 3 donor
1 5 acceptor
5 1 4 5 6 7 rings

>  <PUBCHEM_HEAVY_ATOM_COUNT>  (1) 
10

>  <PUBCHEM_ATOM_DEF_STEREO_COUNT>  (1) 
0

>  <PUBCHEM_ATOM_UDEF_STEREO_COUNT>  (1) 
0

>  <PUBCHEM_BOND_DEF_STEREO_COUNT>  (1) 
0

>  <PUBCHEM_BOND_UDEF_STEREO_COUNT>  (1) 
0

>  <PUBCHEM_ISOTOPIC_ATOM_COUNT>  (1) 
0

>  <PUBCHEM_COMPONENT_COUNT>  (1) 
1

>  <PUBCHEM_CACTVS_TAUTO_COUNT>  (1) 
3

>  <PUBCHEM_CONFORMER_ID>  (1) 
0000B9C200000001

>  <PUBCHEM_MMFF94_ENERGY>  (1) 
13.217

>  <PUBCHEM_FEATURE_SELFOVERLAP>  (1) 
20.297

>  <PUBCHEM_SHAPE_FINGERPRINT>  (1) 
12897270 3 18337952406421182223
12932764 1 17561075930160278771
14325111 11 18410855464802930721
17990270 104 18410856516738037602
19973954 147 18410294688045185781
20201158 50 18335420196682754363
20645477 70 18411694371006685935
20653091 64 18410012109114018434
20871998 22 18054512409206245686
21040471 1 18050567640768935556
23552423 10 18334862679725617423
29004967 10 18408605842353087378
3248919 1 17458633327925241491

>  <PUBCHEM_SHAPE_MULTIPOLES>  (1) 
179.11
4.45
1.71
0.57
2.68
0.27
0
0.74
0
-0.75
0
0.02
0.04
0

>  <PUBCHEM_SHAPE_SELFOVERLAP>  (1) 
360.082

>  <PUBCHEM_SHAPE_VOLUME>  (1) 
106.6

>  <PUBCHEM_COORDINATE_TYPE>  (1) 
2
5
10

$$$$
