47552
     RDKit          3D

 14 15  0  0  0  0  0  0  0  0999 V2000
    3.4771   -0.9893   -0.1823 O   0  0  0  0  0  0  0  0  0  0  0  0
   -0.1546    2.2350    0.6207 O   0  0  0  0  0  0  0  0  0  0  0  0
   -3.1402   -0.2869   -1.1214 O   0  0  0  0  0  0  0  0  0  0  0  0
    1.0724    0.4803   -0.2759 N   0  0  0  0  0  0  0  0  0  0  0  0
   -2.0223    0.5368   -1.2669 N   0  0  0  0  0  0  0  0  0  0  0  0
   -3.1420   -0.9207    0.1228 N   0  0  0  0  0  0  0  0  0  0  0  0
    2.3561    1.1516   -0.0698 C   0  0  0  0  0  0  0  0  0  0  0  0
    1.1755   -0.8257   -0.9409 C   0  0  0  0  0  0  0  0  0  0  0  0
    3.3506    0.2076    0.5896 C   0  0  0  0  0  0  0  0  0  0  0  0
    2.2308   -1.6858   -0.2551 C   0  0  0  0  0  0  0  0  0  0  0  0
   -0.1172    1.1171    0.1076 C   0  0  0  0  0  0  0  0  0  0  0  0
   -1.3646    0.3962   -0.1215 C   0  0  0  0  0  0  0  0  0  0  0  0
   -2.0356   -0.4814    0.7198 C   0  0  0  0  0  0  0  0  0  0  0  0
   -1.6861   -0.9349    2.0733 C   0  0  0  0  0  0  0  0  0  0  0  0
  1  9  1  0
  1 10  1  0
  2 11  2  0
  3  5  1  0
  3  6  1  0
  4  7  1  0
  4  8  1  0
  4 11  1  0
  5 12  2  0
  6 13  2  0
  7  9  1  0
  8 10  1  0
 11 12  1  0
 12 13  1  0
 13 14  1  0
M  END
>  <PUBCHEM_COMPOUND_CID>  (1) 
47552

>  <PUBCHEM_CONFORMER_RMSD>  (1) 
0.6

>  <PUBCHEM_CONFORMER_DIVERSEORDER>  (1) 
1
11
10
9
5
4
7
3
8
2
6

>  <PUBCHEM_MMFF94_PARTIAL_CHARGES>  (1) 
14
1 -0.56
10 0.28
11 0.72
12 0.2
13 0.11
14 0.18
2 -0.57
3 0.24
4 -0.66
5 -0.41
6 -0.41
7 0.3
8 0.3
9 0.28

>  <PUBCHEM_EFFECTIVE_ROTOR_COUNT>  (1) 
3.2

>  <PUBCHEM_PHARMACOPHORE_FEATURES>  (1) 
6
1 1 acceptor
1 2 acceptor
1 5 acceptor
1 6 acceptor
5 3 5 6 12 13 rings
6 1 4 7 8 9 10 rings

>  <PUBCHEM_HEAVY_ATOM_COUNT>  (1) 
14

>  <PUBCHEM_ATOM_DEF_STEREO_COUNT>  (1) 
0

>  <PUBCHEM_ATOM_UDEF_STEREO_COUNT>  (1) 
0

>  <PUBCHEM_BOND_DEF_STEREO_COUNT>  (1) 
0

>  <PUBCHEM_BOND_UDEF_STEREO_COUNT>  (1) 
0

>  <PUBCHEM_ISOTOPIC_ATOM_COUNT>  (1) 
0

>  <PUBCHEM_COMPONENT_COUNT>  (1) 
1

>  <PUBCHEM_CACTVS_TAUTO_COUNT>  (1) 
1

>  <PUBCHEM_CONFORMER_ID>  (1) 
0000B9C000000001

>  <PUBCHEM_MMFF94_ENERGY>  (1) 
26.0198

>  <PUBCHEM_FEATURE_SELFOVERLAP>  (1) 
30.498

>  <PUBCHEM_SHAPE_FINGERPRINT>  (1) 
11471102 22 18342461447861807090
12202030 40 17896617260879027883
12716758 59 17312818281988020073
13296908 3 18410294696434549966
13380536 127 15482673455145732082
13764800 53 13614253542045756691
15207287 21 18188759664821237867
15775835 57 17489869345253184922
16945 1 18341618169440198620
18186145 218 17822565023841318405
18534176 82 17458346363922310759
200 152 18130496474855973767
20201158 50 18334012791544441418
20279233 1 18186237346618813066
20711985 344 18043244639524340100
21061003 4 18340219573306294304
23402539 116 17458888410465068847
23557571 272 16734121217375463117
23559900 14 17676759925623146480
2748010 2 18057041303308919204
57812782 119 18040991851994348622
77492 1 17060061492385406589
81228 2 18263929825938213616

>  <PUBCHEM_SHAPE_MULTIPOLES>  (1) 
255.56
5.34
1.61
1.26
1.14
0.28
0.33
-1.53
-0.23
0.49
0.23
-0.86
-0.28
0.62

>  <PUBCHEM_SHAPE_SELFOVERLAP>  (1) 
528.588

>  <PUBCHEM_SHAPE_VOLUME>  (1) 
146.7

>  <PUBCHEM_COORDINATE_TYPE>  (1) 
2
5
10

$$$$
