47565
     RDKit          3D

 36 38  0  0  0  0  0  0  0  0999 V2000
   -2.9357    4.6257   -1.8910 Cl  0  0  0  0  0  0  0  0  0  0  0  0
   -1.9678    0.7819    2.9816 S   0  0  0  0  0  0  0  0  0  0  0  0
    3.4742   -0.0690   -1.6625 O   0  0  0  0  0  0  0  0  0  0  0  0
   -2.6437   -1.4504   -2.1885 O   0  0  0  0  0  0  0  0  0  0  0  0
    1.6834    2.0733   -0.7320 O   0  0  0  0  0  0  0  0  0  0  0  0
    5.0322   -1.7181   -2.0194 O   0  0  0  0  0  0  0  0  0  0  0  0
   -3.3487   -0.7652   -0.1129 O   0  0  0  0  0  0  0  0  0  0  0  0
    0.6127    0.2271   -1.6773 N   0  0  0  0  0  0  0  0  0  0  0  0
   -0.0224    1.0696    0.4558 N   0  0  0  0  0  0  0  0  0  0  0  0
    5.3065   -0.1287   -0.3519 N   0  0  0  0  0  0  0  0  0  0  0  0
   -4.2710   -2.6200   -1.1575 N   0  0  0  0  0  0  0  0  0  0  0  0
    1.4329    0.2608   -2.8801 C   0  0  0  0  0  0  0  0  0  0  0  0
   -0.3935   -0.8325   -1.6290 C   0  0  0  0  0  0  0  0  0  0  0  0
    0.8261    1.1856   -0.6645 C   0  0  0  0  0  0  0  0  0  0  0  0
   -1.2078    1.8865    0.5196 C   0  0  0  0  0  0  0  0  0  0  0  0
    0.3896    0.2434    1.5643 C   0  0  0  0  0  0  0  0  0  0  0  0
   -2.1175    1.8531    1.5846 C   0  0  0  0  0  0  0  0  0  0  0  0
   -0.3819    0.0501    2.7174 C   0  0  0  0  0  0  0  0  0  0  0  0
    2.6839   -0.5846   -2.7259 C   0  0  0  0  0  0  0  0  0  0  0  0
   -1.7121   -0.3772   -2.2270 C   0  0  0  0  0  0  0  0  0  0  0  0
   -1.5019    2.7584   -0.5551 C   0  0  0  0  0  0  0  0  0  0  0  0
    1.6433   -0.4105    1.5072 C   0  0  0  0  0  0  0  0  0  0  0  0
   -3.2561    2.6839    1.5722 C   0  0  0  0  0  0  0  0  0  0  0  0
    0.0899   -0.7769    3.7568 C   0  0  0  0  0  0  0  0  0  0  0  0
   -2.6328    3.5783   -0.5595 C   0  0  0  0  0  0  0  0  0  0  0  0
    2.1038   -1.2272    2.5423 C   0  0  0  0  0  0  0  0  0  0  0  0
   -3.5108    3.5442    0.5096 C   0  0  0  0  0  0  0  0  0  0  0  0
    1.3239   -1.4126    3.6704 C   0  0  0  0  0  0  0  0  0  0  0  0
    6.5733   -0.5890    0.1686 C   0  0  0  0  0  0  0  0  0  0  0  0
   -5.2181   -2.9883   -0.1306 C   0  0  0  0  0  0  0  0  0  0  0  0
    4.6451   -0.7324   -1.4006 C   0  0  0  0  0  0  0  0  0  0  0  0
   -3.4182   -1.5407   -1.0607 C   0  0  0  0  0  0  0  0  0  0  0  0
    7.3932    0.5830    0.6938 C   0  0  0  0  0  0  0  0  0  0  0  0
    6.3515   -1.6366    1.2518 C   0  0  0  0  0  0  0  0  0  0  0  0
   -6.4586   -3.6207   -0.7493 C   0  0  0  0  0  0  0  0  0  0  0  0
   -4.5668   -3.9241    0.8793 C   0  0  0  0  0  0  0  0  0  0  0  0
  1 25  1  0
  2 17  1  0
  2 18  1  0
  3 19  1  0
  3 31  1  0
  4 20  1  0
  4 32  1  0
  5 14  2  0
  6 31  2  0
  7 32  2  0
  8 12  1  0
  8 13  1  0
  8 14  1  0
  9 14  1  0
  9 15  1  0
  9 16  1  0
 10 29  1  0
 10 31  1  0
 11 30  1  0
 11 32  1  0
 12 19  1  0
 13 20  1  0
 15 17  2  0
 15 21  1  0
 16 18  2  0
 16 22  1  0
 17 23  1  0
 18 24  1  0
 21 25  2  0
 22 26  2  0
 23 27  2  0
 24 28  2  0
 25 27  1  0
 26 28  1  0
 29 33  1  0
 29 34  1  0
 30 35  1  0
 30 36  1  0
M  END
>  <PUBCHEM_COMPOUND_CID>  (1) 
47565

>  <PUBCHEM_CONFORMER_RMSD>  (1) 
1.2

>  <PUBCHEM_CONFORMER_DIVERSEORDER>  (1) 
1
22
70
90
17
44
79
82
95
49
30
11
84
80
57
19
88
54
93
97
81
59
3
58
27
47
51
86
32
12
18
7
53
71
94
102
20
29
50
36
68
96
40
28
78
66
92
2
91
15
69
33
99
56
9
48
23
89
4
65
38
77
64
42
75
46
26
25
14
100
34
5
41
72
73
24
74
16
101
55
31
61
83
10
76
35
52
8
63
6
98
21
103
39
85
13
37
67
62
60
87
45
43

>  <PUBCHEM_MMFF94_PARTIAL_CHARGES>  (1) 
41
1 -0.18
10 -0.73
11 -0.73
12 0.3
13 0.3
14 0.69
15 0.12
16 0.12
17 0.1
18 0.1
19 0.28
2 -0.2
20 0.28
21 -0.15
22 -0.15
23 -0.15
24 -0.15
25 0.18
26 -0.15
27 -0.15
28 -0.15
29 0.3
3 -0.43
30 0.3
31 0.78
32 0.78
4 -0.43
45 0.15
46 0.15
47 0.15
48 0.15
49 0.15
5 -0.57
50 0.15
51 0.15
54 0.37
55 0.37
6 -0.57
7 -0.57
8 -0.66
9 -0.29

>  <PUBCHEM_EFFECTIVE_ROTOR_COUNT>  (1) 
14.4

>  <PUBCHEM_PHARMACOPHORE_FEATURES>  (1) 
10
1 10 donor
1 11 donor
1 5 acceptor
1 6 acceptor
1 7 acceptor
3 29 33 34 hydrophobe
3 30 35 36 hydrophobe
6 15 17 21 23 25 27 rings
6 16 18 22 24 26 28 rings
6 2 9 15 16 17 18 rings

>  <PUBCHEM_HEAVY_ATOM_COUNT>  (1) 
36

>  <PUBCHEM_ATOM_DEF_STEREO_COUNT>  (1) 
0

>  <PUBCHEM_ATOM_UDEF_STEREO_COUNT>  (1) 
0

>  <PUBCHEM_BOND_DEF_STEREO_COUNT>  (1) 
0

>  <PUBCHEM_BOND_UDEF_STEREO_COUNT>  (1) 
0

>  <PUBCHEM_ISOTOPIC_ATOM_COUNT>  (1) 
0

>  <PUBCHEM_COMPONENT_COUNT>  (1) 
1

>  <PUBCHEM_CACTVS_TAUTO_COUNT>  (1) 
3

>  <PUBCHEM_CONFORMER_ID>  (1) 
0000B9CD00000001

>  <PUBCHEM_MMFF94_ENERGY>  (1) 
96.8925

>  <PUBCHEM_FEATURE_SELFOVERLAP>  (1) 
50.776

>  <PUBCHEM_SHAPE_FINGERPRINT>  (1) 
10258939 38 18341327894370677078
12156800 1 18270387301088875675
12539745 222 18060423504134314510
14040221 97 17489313018482803576
14400156 147 17534898894687028066
14790565 3 12604339871271089138
15328829 1 17822289025216915893
16067689 68 18118950413919085826
18603816 31 17898589579066975478
23536364 44 17677620920157714611
469060 322 18198649728900022127
563151 248 18042976367350430848
56638632 10 14476661058096722626

>  <PUBCHEM_SHAPE_MULTIPOLES>  (1) 
697.31
12.78
4.59
3.8
18.19
2.04
1.72
-9.63
-3.32
-11.11
-0.76
0.85
-1.2
-2.15

>  <PUBCHEM_SHAPE_SELFOVERLAP>  (1) 
1431.694

>  <PUBCHEM_SHAPE_VOLUME>  (1) 
402.6

>  <PUBCHEM_COORDINATE_TYPE>  (1) 
2
5
10

$$$$
