47570
     RDKit          3D

 13 14  0  0  0  0  0  0  0  0999 V2000
   -2.3696    0.6115   -0.0798 N   0  0  0  0  0  0  0  0  0  0  0  0
   -1.3736   -1.4341    0.0950 N   0  0  0  0  0  0  0  0  0  0  0  0
   -3.3448   -0.2379   -0.7126 C   0  0  0  0  0  0  0  0  0  0  0  0
   -1.3423   -0.1593    0.3971 C   0  0  0  0  0  0  0  0  0  0  0  0
   -2.5964   -1.5766   -0.7495 C   0  0  0  0  0  0  0  0  0  0  0  0
   -0.2358    0.4045    1.2337 C   0  0  0  0  0  0  0  0  0  0  0  0
    1.0920    0.2292    0.5573 C   0  0  0  0  0  0  0  0  0  0  0  0
   -2.6578    1.9884    0.2237 C   0  0  0  0  0  0  0  0  0  0  0  0
    1.8367   -0.9217    0.7899 C   0  0  0  0  0  0  0  0  0  0  0  0
    1.5662    1.2194   -0.2959 C   0  0  0  0  0  0  0  0  0  0  0  0
    3.0713   -1.0846    0.1614 C   0  0  0  0  0  0  0  0  0  0  0  0
    2.8007    1.0566   -0.9245 C   0  0  0  0  0  0  0  0  0  0  0  0
    3.5533   -0.0954   -0.6957 C   0  0  0  0  0  0  0  0  0  0  0  0
  1  3  1  0
  1  4  1  0
  1  8  1  0
  2  4  2  0
  2  5  1  0
  3  5  1  0
  4  6  1  0
  6  7  1  0
  7  9  2  0
  7 10  1  0
  9 11  1  0
 10 12  2  0
 11 13  2  0
 12 13  1  0
M  END
>  <PUBCHEM_COMPOUND_CID>  (1) 
47570

>  <PUBCHEM_CONFORMER_RMSD>  (1) 
0.6

>  <PUBCHEM_CONFORMER_DIVERSEORDER>  (1) 
3
5
6
2
4
1

>  <PUBCHEM_MMFF94_PARTIAL_CHARGES>  (1) 
18
1 -0.79
10 -0.15
11 -0.15
12 -0.15
13 -0.15
2 -0.7
23 0.15
24 0.15
25 0.15
26 0.15
27 0.15
3 0.37
4 0.44
5 0.25
6 0.2
7 -0.14
8 0.37
9 -0.15

>  <PUBCHEM_EFFECTIVE_ROTOR_COUNT>  (1) 
2.6

>  <PUBCHEM_PHARMACOPHORE_FEATURES>  (1) 
3
3 1 2 4 cation
5 1 2 3 4 5 rings
6 7 9 10 11 12 13 rings

>  <PUBCHEM_HEAVY_ATOM_COUNT>  (1) 
13

>  <PUBCHEM_ATOM_DEF_STEREO_COUNT>  (1) 
0

>  <PUBCHEM_ATOM_UDEF_STEREO_COUNT>  (1) 
0

>  <PUBCHEM_BOND_DEF_STEREO_COUNT>  (1) 
0

>  <PUBCHEM_BOND_UDEF_STEREO_COUNT>  (1) 
0

>  <PUBCHEM_ISOTOPIC_ATOM_COUNT>  (1) 
0

>  <PUBCHEM_COMPONENT_COUNT>  (1) 
1

>  <PUBCHEM_CACTVS_TAUTO_COUNT>  (1) 
1

>  <PUBCHEM_CONFORMER_ID>  (1) 
0000B9D200000003

>  <PUBCHEM_MMFF94_ENERGY>  (1) 
36.4441

>  <PUBCHEM_FEATURE_SELFOVERLAP>  (1) 
15.223

>  <PUBCHEM_SHAPE_FINGERPRINT>  (1) 
10465860 71 18272381866641790236
10922523 26 18265897960309406732
11031198 65 17167871837409803618
11401426 45 18259985981625357640
12491281 212 18186810157606246760
12696612 119 10519989279058391018
12897270 3 18263362658268053762
12932764 1 18271812345008662928
13296908 3 16774074081194092330
13693222 15 12463568469690499102
13764800 53 13551468125353948181
14144814 61 18408040693233998688
14250199 8 18041564748881362605
15775835 57 18187088321184219469
16945 1 18337110197367101618
18186145 218 16950287278176457218
20279233 1 16272204172023054902
20281407 28 15410906157994683572
20361792 2 15841555197086741401
20645476 183 18408039593912768607
20653085 51 18187090520360507801
20711983 171 18411137991946649253
20711985 344 16486148175326807112
23402655 69 18187643578819695236
23552423 10 18334568036437407619
23557571 272 17989194971464231976
23559900 14 17846211095782017594
23598291 2 18188767219700307978
25 1 17385731253259750610
2748010 2 17040355190109225752
3082319 5 18335420179281007772
3248919 1 17894908555237092424
369184 2 11023831673577254091
549884 4 18040712575956640340
74978 22 18341894095134553121
7832392 63 18334296426884752084
8030462 33 18335416897947086155
81228 2 16127266471929792632
93112 12 18409730676991983108
9939556 21 18408605838015934880

>  <PUBCHEM_SHAPE_MULTIPOLES>  (1) 
257.57
6.15
1.66
1.02
0.39
0.19
0.05
-0.24
-1.81
-0.81
-0.11
0.16
0.01
-0.75

>  <PUBCHEM_SHAPE_SELFOVERLAP>  (1) 
539.442

>  <PUBCHEM_SHAPE_VOLUME>  (1) 
145.4

>  <PUBCHEM_COORDINATE_TYPE>  (1) 
2
5
10

$$$$
