47571
     RDKit          3D

 34 40  0  0  0  0  0  0  0  0999 V2000
    0.1323    0.6166    0.0005 C   0  0  0  0  0  0  0  0  0  0  0  0
    1.5202    0.6170    0.0001 C   0  0  0  0  0  0  0  0  0  0  0  0
   -0.3507    1.9177    0.0005 C   0  0  0  0  0  0  0  0  0  0  0  0
   -0.6631   -0.5272    0.0007 C   0  0  0  0  0  0  0  0  0  0  0  0
    1.9645    2.0040   -0.0002 C   0  0  0  0  0  0  0  0  0  0  0  0
    0.7946    2.8173    0.0002 C   0  0  0  0  0  0  0  0  0  0  0  0
    2.1938   -0.5902   -0.0003 C   0  0  0  0  0  0  0  0  0  0  0  0
    0.0275   -1.7549    0.0005 C   0  0  0  0  0  0  0  0  0  0  0  0
   -1.7168    2.1288    0.0006 C   0  0  0  0  0  0  0  0  0  0  0  0
    1.4392   -1.7769    0.0000 C   0  0  0  0  0  0  0  0  0  0  0  0
   -2.0544   -0.3074    0.0009 C   0  0  0  0  0  0  0  0  0  0  0  0
   -2.5665    1.0082    0.0007 C   0  0  0  0  0  0  0  0  0  0  0  0
    3.2264    2.5667   -0.0007 C   0  0  0  0  0  0  0  0  0  0  0  0
    0.8828    4.1963   -0.0003 C   0  0  0  0  0  0  0  0  0  0  0  0
    3.6368   -0.6858   -0.0001 C   0  0  0  0  0  0  0  0  0  0  0  0
   -0.6833   -3.0191    0.0000 C   0  0  0  0  0  0  0  0  0  0  0  0
   -4.0009    1.2094    0.0003 C   0  0  0  0  0  0  0  0  0  0  0  0
    3.3159    3.9617   -0.0010 C   0  0  0  0  0  0  0  0  0  0  0  0
    2.1594    4.7658   -0.0008 C   0  0  0  0  0  0  0  0  0  0  0  0
    4.3337   -0.7324   -1.2079 C   0  0  0  0  0  0  0  0  0  0  0  0
    4.3332   -0.7312    1.2081 C   0  0  0  0  0  0  0  0  0  0  0  0
   -1.0232   -3.6247    1.2078 C   0  0  0  0  0  0  0  0  0  0  0  0
   -1.0239   -3.6232   -1.2081 C   0  0  0  0  0  0  0  0  0  0  0  0
   -4.6898    1.3059   -1.2078 C   0  0  0  0  0  0  0  0  0  0  0  0
   -4.6903    1.3060    1.2081 C   0  0  0  0  0  0  0  0  0  0  0  0
    5.7255   -0.8244   -1.2076 C   0  0  0  0  0  0  0  0  0  0  0  0
    5.7249   -0.8231    1.2084 C   0  0  0  0  0  0  0  0  0  0  0  0
   -1.7069   -4.8405    1.2074 C   0  0  0  0  0  0  0  0  0  0  0  0
   -1.7078   -4.8389   -1.2086 C   0  0  0  0  0  0  0  0  0  0  0  0
    6.4211   -0.8697    0.0004 C   0  0  0  0  0  0  0  0  0  0  0  0
   -6.0712    1.4996   -1.2082 C   0  0  0  0  0  0  0  0  0  0  0  0
   -6.0717    1.4995    1.2078 C   0  0  0  0  0  0  0  0  0  0  0  0
   -2.0493   -5.4475   -0.0008 C   0  0  0  0  0  0  0  0  0  0  0  0
   -6.7621    1.5964   -0.0004 C   0  0  0  0  0  0  0  0  0  0  0  0
  1  2  2  0
  1  3  1  0
  1  4  1  0
  2  5  1  0
  2  7  1  0
  3  6  1  0
  3  9  2  0
  4  8  2  0
  4 11  1  0
  5  6  2  0
  5 13  1  0
  6 14  1  0
  7 10  2  0
  7 15  1  0
  8 10  1  0
  8 16  1  0
  9 12  1  0
 11 12  2  0
 12 17  1  0
 13 18  2  0
 14 19  2  0
 15 20  2  0
 15 21  1  0
 16 22  2  0
 16 23  1  0
 17 24  2  0
 17 25  1  0
 18 19  1  0
 20 26  1  0
 21 27  2  0
 22 28  1  0
 23 29  2  0
 24 31  1  0
 25 32  2  0
 26 30  2  0
 27 30  1  0
 28 33  2  0
 29 33  1  0
 31 34  2  0
 32 34  1  0
M  END
>  <PUBCHEM_COMPOUND_CID>  (1) 
47571

>  <PUBCHEM_CONFORMER_RMSD>  (1) 
0.8

>  <PUBCHEM_CONFORMER_DIVERSEORDER>  (1) 
1

>  <PUBCHEM_MMFF94_PARTIAL_CHARGES>  (1) 
44
10 -0.15
11 -0.15
13 -0.15
14 -0.15
18 -0.15
19 -0.15
20 -0.15
21 -0.15
22 -0.15
23 -0.15
24 -0.15
25 -0.15
26 -0.15
27 -0.15
28 -0.15
29 -0.15
30 -0.15
31 -0.15
32 -0.15
33 -0.15
34 -0.15
35 0.15
36 0.15
37 0.15
38 0.15
39 0.15
40 0.15
41 0.15
42 0.15
43 0.15
44 0.15
45 0.15
46 0.15
47 0.15
48 0.15
49 0.15
50 0.15
51 0.15
52 0.15
53 0.15
54 0.15
55 0.15
56 0.15
9 -0.15

>  <PUBCHEM_EFFECTIVE_ROTOR_COUNT>  (1) 
3

>  <PUBCHEM_PHARMACOPHORE_FEATURES>  (1) 
7
5 1 2 3 5 6 rings
6 1 2 4 7 8 10 rings
6 1 3 4 9 11 12 rings
6 15 20 21 26 27 30 rings
6 16 22 23 28 29 33 rings
6 17 24 25 31 32 34 rings
6 5 6 13 14 18 19 rings

>  <PUBCHEM_HEAVY_ATOM_COUNT>  (1) 
34

>  <PUBCHEM_ATOM_DEF_STEREO_COUNT>  (1) 
0

>  <PUBCHEM_ATOM_UDEF_STEREO_COUNT>  (1) 
0

>  <PUBCHEM_BOND_DEF_STEREO_COUNT>  (1) 
0

>  <PUBCHEM_BOND_UDEF_STEREO_COUNT>  (1) 
0

>  <PUBCHEM_ISOTOPIC_ATOM_COUNT>  (1) 
0

>  <PUBCHEM_COMPONENT_COUNT>  (1) 
1

>  <PUBCHEM_CACTVS_TAUTO_COUNT>  (1) 
1

>  <PUBCHEM_CONFORMER_ID>  (1) 
0000B9D300000001

>  <PUBCHEM_MMFF94_ENERGY>  (1) 
146.3001

>  <PUBCHEM_FEATURE_SELFOVERLAP>  (1) 
35.833

>  <PUBCHEM_SHAPE_FINGERPRINT>  (1) 
10050765 1 18194402419004029004
102385 1 18050287264808116956
10675989 125 17036122612289428357
10906281 52 18272101482660716748
10930396 42 18195214808395788384
1100329 8 18410291432396509648
11421498 54 17630607813293651843
11991303 11 18187091662975354751
12058002 1 17487369016893152952
12440605 4 18121788497430270906
12608794 3 18192119725142749068
13140716 1 18338234985494619010
13540713 4 18127699442578088212
13540713 5 18117552049723106512
13692114 37 18271518784617005935
13911987 19 18262522476776361757
140371 6 18272382940547287204
14790565 3 18339091371693249708
15131766 46 15938412328368100262
15276724 80 18122914393501672583
15439362 3 18339357569054836573
15483637 11 18121781891976375043
15484559 13 18340765932339128383
15927050 60 18195251237422519484
16090146 7 18129959900513255266
16112460 7 18341337785680613097
16628084 112 17978229357860783702
16728300 4 17245244329096989426
18681886 176 18411691076418285593
19301679 30 17760087715008453178
19319366 153 17749108847103306834
20028762 73 18273211967982590791
21781051 124 18043554770549399154
22311459 1 18410855418043671584
23558518 356 18045501077833938442
23559900 14 18341326773184441104
23569943 247 17485096188947058918
23576562 1 18261398909116031932
24771293 8 18201708545101605752
24771750 20 18118421745914508468
25223398 141 17822018644468012439
283562 15 18053666876269477528
3178227 256 18336838498305967889
335352 9 18410856547198253108
3383291 50 18410573951034657194
340366 18 18408044030555794404
9961470 85 18198893885085999856

>  <PUBCHEM_SHAPE_MULTIPOLES>  (1) 
699.7
12.51
7.06
1.13
3.6
5.84
0
-5.46
0
2.21
0
0.29
0.62
0

>  <PUBCHEM_SHAPE_SELFOVERLAP>  (1) 
1626.992

>  <PUBCHEM_SHAPE_VOLUME>  (1) 
331.6

>  <PUBCHEM_COORDINATE_TYPE>  (1) 
2
5
10

$$$$
