47583
     RDKit          3D

 21 22  0  0  1  0  0  0  0  0999 V2000
   -3.4077    2.5806   -0.8198 O   0  0  0  0  0  0  0  0  0  0  0  0
   -0.1559    1.4589    1.6612 O   0  0  0  0  0  0  0  0  0  0  0  0
   -4.7760    1.2089    0.3449 O   0  0  0  0  0  0  0  0  0  0  0  0
   -1.2485    1.1818   -0.3686 N   0  0  0  0  0  0  0  0  0  0  0  0
   -2.4477    0.5802    0.1591 C   0  0  0  0  0  0  0  0  0  0  0  0
   -2.6874   -0.8105   -0.4429 C   0  0  0  0  0  0  0  0  0  0  0  0
   -1.5409   -1.7626   -0.2011 C   0  0  0  0  0  0  0  0  0  0  0  0
    0.9425    2.1716   -0.3761 C   0  0  0  0  0  0  0  0  0  0  0  0
   -0.1891    1.5756    0.4389 C   0  0  0  0  0  0  0  0  0  0  0  0
   -3.6580    1.4688   -0.0877 C   0  0  0  0  0  0  0  0  0  0  0  0
    2.2397    1.4201   -0.2349 C   0  0  0  0  0  0  0  0  0  0  0  0
   -0.5098   -1.8324   -1.1244 C   0  0  0  0  0  0  0  0  0  0  0  0
   -1.5403   -2.5491    0.9401 C   0  0  0  0  0  0  0  0  0  0  0  0
    0.5495   -2.7119   -0.9010 C   0  0  0  0  0  0  0  0  0  0  0  0
   -0.4808   -3.4285    1.1634 C   0  0  0  0  0  0  0  0  0  0  0  0
    3.1323    1.7801    0.7649 C   0  0  0  0  0  0  0  0  0  0  0  0
    2.5240    0.3779   -1.1061 C   0  0  0  0  0  0  0  0  0  0  0  0
    0.5641   -3.5099    0.2428 C   0  0  0  0  0  0  0  0  0  0  0  0
    4.3340    1.0839    0.8960 C   0  0  0  0  0  0  0  0  0  0  0  0
    3.7255   -0.3184   -0.9749 C   0  0  0  0  0  0  0  0  0  0  0  0
    4.6304    0.0347    0.0262 C   0  0  0  0  0  0  0  0  0  0  0  0
  1 10  1  0
  2  9  2  0
  3 10  2  0
  4  5  1  0
  4  9  1  0
  5  6  1  0
  5 10  1  0
  6  7  1  0
  7 12  2  0
  7 13  1  0
  8  9  1  0
  8 11  1  0
 11 16  2  0
 11 17  1  0
 12 14  1  0
 13 15  2  0
 14 18  2  0
 15 18  1  0
 16 19  1  0
 17 20  2  0
 19 21  2  0
 20 21  1  0
M  END
>  <PUBCHEM_COMPOUND_CID>  (1) 
47583

>  <PUBCHEM_CONFORMER_RMSD>  (1) 
0.8

>  <PUBCHEM_CONFORMER_DIVERSEORDER>  (1) 
2
61
40
100
18
27
105
116
44
20
117
58
74
115
32
17
25
99
102
104
106
111
65
31
30
43
63
55
92
64
12
39
59
62
66
10
107
7
60
53
89
80
110
68
97
114
79
52
101
69
47
108
113
112
11
33
13
76
73
21
9
42
50
8
82
38
3
23
67
51
93
70
94
103
45
15
88
86
77
36
87
96
57
35
22
1
91
71
48
34
85
41
78
6
14
72
5
90
81
28
19
83
16
26
46
29
84
54
95
109
49
98
56
37
75
4
24

>  <PUBCHEM_MMFF94_PARTIAL_CHARGES>  (1) 
33
1 -0.65
10 0.66
11 -0.14
12 -0.15
13 -0.15
14 -0.15
15 -0.15
16 -0.15
17 -0.15
18 -0.15
19 -0.15
2 -0.57
20 -0.15
21 -0.15
25 0.37
28 0.15
29 0.15
3 -0.57
30 0.15
31 0.15
32 0.15
33 0.15
34 0.15
35 0.15
36 0.15
37 0.15
38 0.5
4 -0.73
5 0.36
6 0.14
7 -0.14
8 0.2
9 0.57

>  <PUBCHEM_EFFECTIVE_ROTOR_COUNT>  (1) 
7

>  <PUBCHEM_PHARMACOPHORE_FEATURES>  (1) 
7
1 1 acceptor
1 2 acceptor
1 3 acceptor
1 4 donor
3 1 3 10 anion
6 11 16 17 19 20 21 rings
6 7 12 13 14 15 18 rings

>  <PUBCHEM_HEAVY_ATOM_COUNT>  (1) 
21

>  <PUBCHEM_ATOM_DEF_STEREO_COUNT>  (1) 
0

>  <PUBCHEM_ATOM_UDEF_STEREO_COUNT>  (1) 
1

>  <PUBCHEM_BOND_DEF_STEREO_COUNT>  (1) 
0

>  <PUBCHEM_BOND_UDEF_STEREO_COUNT>  (1) 
0

>  <PUBCHEM_ISOTOPIC_ATOM_COUNT>  (1) 
0

>  <PUBCHEM_COMPONENT_COUNT>  (1) 
1

>  <PUBCHEM_CACTVS_TAUTO_COUNT>  (1) 
2

>  <PUBCHEM_CONFORMER_ID>  (1) 
0000B9DF00000002

>  <PUBCHEM_MMFF94_ENERGY>  (1) 
48.4417

>  <PUBCHEM_FEATURE_SELFOVERLAP>  (1) 
35.581

>  <PUBCHEM_SHAPE_FINGERPRINT>  (1) 
10616163 171 17834117820374519732
10759866 29 18117287054694283540
107951 10 17675928685630794539
1100329 8 16899905189674805641
11370993 70 18411695474301272532
12156800 1 16195026186868821726
12553582 1 17185037704821148486
12592029 89 18335708187304019481
12788726 201 17755874360537911066
13402501 40 18270408192041853718
13726171 33 17905083513578068468
138480 1 17617657652934434507
14251751 93 18410289237879113913
14251757 5 18264788703970880004
16752209 62 18338792437373176850
17093844 170 18340207397712118500
17859628 97 18335135367267948962
19591789 44 18338802324878411811
20567600 347 18261114019877554123
20905425 154 17836933299916587476
21524375 3 18412265034478348991
21665056 4 18335699498437447211
23419403 2 17466833344196163619
23559900 14 18202846557095440244
23728640 28 18266452290284908530
3298306 158 18337384920961522301
59755656 215 18409162183122265957
598444 67 18266752465691773871
6138700 20 18267589005352087950
81228 2 17763728189976519641
9709674 26 18198624526406332548
9953998 17 18195782212462404296

>  <PUBCHEM_SHAPE_MULTIPOLES>  (1) 
409.58
7.36
4.08
1.16
3.19
3.15
-0.11
-4.65
-0.18
-2.38
-0.51
0.3
0.23
0.8

>  <PUBCHEM_SHAPE_SELFOVERLAP>  (1) 
864.806

>  <PUBCHEM_SHAPE_VOLUME>  (1) 
227.9

>  <PUBCHEM_COORDINATE_TYPE>  (1) 
2
5
10

$$$$
