47588
     RDKit          3D

 21 22  0  0  1  0  0  0  0  0999 V2000
    0.1255   -0.1047   -1.9345 O   0  0  0  0  0  0  0  0  0  0  0  0
    2.1055   -2.8168    1.3402 O   0  0  0  0  0  0  0  0  0  0  0  0
    4.0627   -2.5966    0.2175 O   0  0  0  0  0  0  0  0  0  0  0  0
    0.8821   -0.8819    0.1184 N   0  0  0  0  0  0  0  0  0  0  0  0
    2.2685   -1.0325   -0.2561 C   0  0  0  0  0  0  0  0  0  0  0  0
   -1.4532   -0.3596   -0.1170 C   0  0  0  0  0  0  0  0  0  0  0  0
   -2.5301    0.1425   -1.0770 C   0  0  0  0  0  0  0  0  0  0  0  0
    3.0342    0.2533   -0.0509 C   0  0  0  0  0  0  0  0  0  0  0  0
   -0.0827   -0.4242   -0.7672 C   0  0  0  0  0  0  0  0  0  0  0  0
   -3.8795    0.2175   -0.4109 C   0  0  0  0  0  0  0  0  0  0  0  0
    2.7248    1.0618    1.0310 C   0  0  0  0  0  0  0  0  0  0  0  0
    4.0315    0.5998   -0.9481 C   0  0  0  0  0  0  0  0  0  0  0  0
    2.9257   -2.2048    0.4518 C   0  0  0  0  0  0  0  0  0  0  0  0
   -4.7198   -0.8858   -0.4460 C   0  0  0  0  0  0  0  0  0  0  0  0
   -4.2610    1.3884    0.2280 C   0  0  0  0  0  0  0  0  0  0  0  0
    3.4318    2.2491    1.2207 C   0  0  0  0  0  0  0  0  0  0  0  0
    4.7386    1.7871   -0.7582 C   0  0  0  0  0  0  0  0  0  0  0  0
   -5.9690   -0.8167    0.1708 C   0  0  0  0  0  0  0  0  0  0  0  0
   -5.5101    1.4574    0.8450 C   0  0  0  0  0  0  0  0  0  0  0  0
    4.4387    2.6118    0.3262 C   0  0  0  0  0  0  0  0  0  0  0  0
   -6.3641    0.3549    0.8164 C   0  0  0  0  0  0  0  0  0  0  0  0
  1  9  2  0
  2 13  1  0
  3 13  2  0
  4  5  1  0
  4  9  1  0
  5  8  1  0
  5 13  1  0
  6  7  1  0
  6  9  1  0
  7 10  1  0
  8 11  2  0
  8 12  1  0
 10 14  2  0
 10 15  1  0
 11 16  1  0
 12 17  2  0
 14 18  1  0
 15 19  2  0
 16 20  2  0
 17 20  1  0
 18 21  2  0
 19 21  1  0
M  END
>  <PUBCHEM_COMPOUND_CID>  (1) 
47588

>  <PUBCHEM_CONFORMER_RMSD>  (1) 
0.8

>  <PUBCHEM_CONFORMER_DIVERSEORDER>  (1) 
1
85
54
19
78
92
68
32
39
20
86
83
21
46
41
57
55
96
76
24
74
91
14
2
90
100
89
87
25
3
43
30
98
97
52
79
93
48
36
69
84
65
26
82
12
88
71
60
37
17
35
31
77
58
56
99
5
73
44
51
10
94
61
64
29
45
18
40
75
23
81
34
70
59
27
33
6
95
72
49
62
38
4
50
13
80
22
66
42
63
9
8
11
28
47
16
7
53
67
15

>  <PUBCHEM_MMFF94_PARTIAL_CHARGES>  (1) 
33
1 -0.57
10 -0.14
11 -0.15
12 -0.15
13 0.66
14 -0.15
15 -0.15
16 -0.15
17 -0.15
18 -0.15
19 -0.15
2 -0.65
20 -0.15
21 -0.15
27 0.37
28 0.15
29 0.15
3 -0.57
30 0.15
31 0.15
32 0.15
33 0.15
34 0.15
35 0.15
36 0.15
37 0.15
38 0.5
4 -0.73
5 0.5
6 0.06
7 0.14
8 -0.14
9 0.57

>  <PUBCHEM_EFFECTIVE_ROTOR_COUNT>  (1) 
7

>  <PUBCHEM_PHARMACOPHORE_FEATURES>  (1) 
7
1 1 acceptor
1 2 acceptor
1 3 acceptor
1 4 donor
3 2 3 13 anion
6 10 14 15 18 19 21 rings
6 8 11 12 16 17 20 rings

>  <PUBCHEM_HEAVY_ATOM_COUNT>  (1) 
21

>  <PUBCHEM_ATOM_DEF_STEREO_COUNT>  (1) 
0

>  <PUBCHEM_ATOM_UDEF_STEREO_COUNT>  (1) 
1

>  <PUBCHEM_BOND_DEF_STEREO_COUNT>  (1) 
0

>  <PUBCHEM_BOND_UDEF_STEREO_COUNT>  (1) 
0

>  <PUBCHEM_ISOTOPIC_ATOM_COUNT>  (1) 
0

>  <PUBCHEM_COMPONENT_COUNT>  (1) 
1

>  <PUBCHEM_CACTVS_TAUTO_COUNT>  (1) 
2

>  <PUBCHEM_CONFORMER_ID>  (1) 
0000B9E400000001

>  <PUBCHEM_MMFF94_ENERGY>  (1) 
49.9359

>  <PUBCHEM_FEATURE_SELFOVERLAP>  (1) 
35.581

>  <PUBCHEM_SHAPE_FINGERPRINT>  (1) 
10165383 225 18188215394513991564
10670039 82 16128109874747638441
10912923 1 18202558480542921311
12107183 9 17835242238554406545
12403259 415 17967810505796957583
12596602 18 18409452479930004819
12616971 3 18060128817642801863
12730499 353 18335989748127354362
12788726 201 17417540124693794793
12895836 83 16772949362656905540
13167823 11 18410853227362879023
13533116 47 18335702707026216763
13785724 45 17625269610725916758
13878862 14 18193252149390076253
13955234 65 18334289851859359026
14252887 29 17167863041021330455
14341114 176 18410862053573075545
14528608 73 18131349747803987197
146900 427 18413108376934070003
14848160 23 12829479381326728357
14849402 71 18408882954334401200
15142526 21 18195239151394922968
15183329 4 15625958554787061189
15238133 3 17561078073096044602
15250474 111 18130209532914280471
15880784 105 18335706018699092819
17844677 252 18336551504296203517
17868525 174 17975965467302014656
18222031 100 16153431627740963271
19377110 9 18269258197062518403
20465049 17 18202014222292304502
21065198 48 18413670202086068655
22061861 79 10303816462869705545
23559900 14 17894920611057746510
268830 7 18342450418549321381
4340502 62 18261109703398582770
474 4 18263362645473297036
5104073 3 18408888413063573131
542803 24 17989209252762954877
633830 44 17988639683953811615
6442390 28 18261955279569951378
8272917 22 18342460318227645926
960060 61 11383836008231878848

>  <PUBCHEM_SHAPE_MULTIPOLES>  (1) 
409.58
14.99
2.58
1.2
18.49
0.58
-0.13
-5.09
2.16
-4.24
1.03
-0.39
-0.01
-0.81

>  <PUBCHEM_SHAPE_SELFOVERLAP>  (1) 
865.332

>  <PUBCHEM_SHAPE_VOLUME>  (1) 
227.6

>  <PUBCHEM_COORDINATE_TYPE>  (1) 
2
5
10

$$$$
