47596
     RDKit          3D

 24 25  0  0  1  0  0  0  0  0999 V2000
   -0.8692   -0.8813   -0.0061 S   0  0  0  0  0  0  0  0  0  0  0  0
    3.8014   -0.7837    1.3887 O   0  0  0  0  0  0  0  0  0  0  0  0
    1.4041   -3.3505   -1.7108 O   0  0  0  0  0  0  0  0  0  0  0  0
    0.4399   -4.4039    0.0501 O   0  0  0  0  0  0  0  0  0  0  0  0
    2.3534   -1.3633   -0.3313 N   0  0  0  0  0  0  0  0  0  0  0  0
    1.5354   -2.2751    0.4336 C   0  0  0  0  0  0  0  0  0  0  0  0
    4.1148    0.2055   -0.7986 C   0  0  0  0  0  0  0  0  0  0  0  0
    4.1018    1.6764   -0.3868 C   0  0  0  0  0  0  0  0  0  0  0  0
    0.3811   -1.5566    1.1367 C   0  0  0  0  0  0  0  0  0  0  0  0
    3.4312   -0.6872    0.2218 C   0  0  0  0  0  0  0  0  0  0  0  0
    2.6976    2.1926   -0.2077 C   0  0  0  0  0  0  0  0  0  0  0  0
   -2.2465   -0.7752    1.1575 C   0  0  0  0  0  0  0  0  0  0  0  0
    1.0603   -3.4504   -0.4045 C   0  0  0  0  0  0  0  0  0  0  0  0
   -3.4927   -0.2325    0.5138 C   0  0  0  0  0  0  0  0  0  0  0  0
    2.0186    2.7565   -1.2879 C   0  0  0  0  0  0  0  0  0  0  0  0
    2.0763    2.1063    1.0383 C   0  0  0  0  0  0  0  0  0  0  0  0
    0.7187    3.2342   -1.1223 C   0  0  0  0  0  0  0  0  0  0  0  0
    0.7762    2.5840    1.2039 C   0  0  0  0  0  0  0  0  0  0  0  0
   -4.4066   -1.1030   -0.0803 C   0  0  0  0  0  0  0  0  0  0  0  0
   -3.7350    1.1412    0.5111 C   0  0  0  0  0  0  0  0  0  0  0  0
    0.0975    3.1479    0.1235 C   0  0  0  0  0  0  0  0  0  0  0  0
   -5.5626   -0.5998   -0.6771 C   0  0  0  0  0  0  0  0  0  0  0  0
   -4.8910    1.6443   -0.0857 C   0  0  0  0  0  0  0  0  0  0  0  0
   -5.8048    0.7736   -0.6798 C   0  0  0  0  0  0  0  0  0  0  0  0
  1  9  1  0
  1 12  1  0
  2 10  2  0
  3 13  1  0
  4 13  2  0
  5  6  1  0
  5 10  1  0
  6  9  1  0
  6 13  1  0
  7  8  1  0
  7 10  1  0
  8 11  1  0
 11 15  2  0
 11 16  1  0
 12 14  1  0
 14 19  2  0
 14 20  1  0
 15 17  1  0
 16 18  2  0
 17 21  2  0
 18 21  1  0
 19 22  1  0
 20 23  2  0
 22 24  2  0
 23 24  1  0
M  END
>  <PUBCHEM_COMPOUND_CID>  (1) 
47596

>  <PUBCHEM_CONFORMER_RMSD>  (1) 
1

>  <PUBCHEM_CONFORMER_DIVERSEORDER>  (1) 
2
112
43
318
253
252
105
267
92
281
20
269
242
246
155
238
276
227
129
28
49
142
156
235
94
9
179
147
216
68
186
77
117
108
283
65
176
167
134
85
164
211
78
157
62
257
141
274
229
146
169
213
53
314
162
189
160
284
104
268
199
193
315
258
183
219
299
194
173
96
24
311
120
263
93
38
266
59
131
166
55
305
296
36
171
174
302
220
4
50
74
150
116
97
285
151
231
127
47
87
230
107
223
138
236
247
8
39
273
224
313
251
277
34
101
83
234
161
265
126
37
27
178
237
52
240
181
232
31
10
18
217
210
256
270
262
317
58
170
254
1
184
153
195
301
71
249
30
17
140
51
304
303
66
145
42
106
294
190
239
200
119
206
271
226
46
64
292
221
222
278
309
57
175
69
14
15
244
6
154
90
12
111
121
218
259
192
215
114
306
288
289
29
185
300
245
152
188
260
72
295
61
88
33
297
201
133
310
45
148
158
196
248
132
13
3
75
243
7
23
214
287
177
128
32
40
203
60
209
197
5
110
113
11
100
22
79
149
56
124
118
272
228
21
143
180
233
208
187
86
202
130
308
275
293
280
198
48
225
168
109
41
80
207
19
103
172
54
298
91
67
102
282
165
191
125
70
286
291
63
115
312
255
137
99
144
135
16
307
35
82
212
279
159
81
204
122
84
205
261
264
163
73
95
182
44
139
250
25
89
123
290
136
316
98
76
241
26

>  <PUBCHEM_MMFF94_PARTIAL_CHARGES>  (1) 
36
1 -0.46
10 0.57
11 -0.14
12 0.37
13 0.66
14 -0.14
15 -0.15
16 -0.15
17 -0.15
18 -0.15
19 -0.15
2 -0.57
20 -0.15
21 -0.15
22 -0.15
23 -0.15
24 -0.15
3 -0.65
32 0.37
35 0.15
36 0.15
37 0.15
38 0.15
39 0.15
4 -0.57
40 0.15
41 0.15
42 0.15
43 0.15
44 0.15
45 0.5
5 -0.73
6 0.36
7 0.06
8 0.14
9 0.23

>  <PUBCHEM_EFFECTIVE_ROTOR_COUNT>  (1) 
10

>  <PUBCHEM_PHARMACOPHORE_FEATURES>  (1) 
7
1 2 acceptor
1 3 acceptor
1 4 acceptor
1 5 donor
3 3 4 13 anion
6 11 15 16 17 18 21 rings
6 14 19 20 22 23 24 rings

>  <PUBCHEM_HEAVY_ATOM_COUNT>  (1) 
24

>  <PUBCHEM_ATOM_DEF_STEREO_COUNT>  (1) 
0

>  <PUBCHEM_ATOM_UDEF_STEREO_COUNT>  (1) 
1

>  <PUBCHEM_BOND_DEF_STEREO_COUNT>  (1) 
0

>  <PUBCHEM_BOND_UDEF_STEREO_COUNT>  (1) 
0

>  <PUBCHEM_ISOTOPIC_ATOM_COUNT>  (1) 
0

>  <PUBCHEM_COMPONENT_COUNT>  (1) 
1

>  <PUBCHEM_CACTVS_TAUTO_COUNT>  (1) 
2

>  <PUBCHEM_CONFORMER_ID>  (1) 
0000B9EC00000002

>  <PUBCHEM_MMFF94_ENERGY>  (1) 
52.509

>  <PUBCHEM_FEATURE_SELFOVERLAP>  (1) 
35.581

>  <PUBCHEM_SHAPE_FINGERPRINT>  (1) 
11513181 2 17843410574676989213
11578080 2 13191489251851783764
12769317 202 18408878517068597367
13402501 40 18260829297710538165
14117953 113 18267579117841507086
14178342 30 17546996894394656360
14251757 17 17898562086701303709
14251764 38 18116717515844142379
15210252 30 18114478764067594196
15238133 3 17822009878523838880
1601671 61 18410854334941695464
17093844 170 18335419080160465224
17492 54 18187944884393666772
17921350 177 17024562659813340988
20028762 73 18272651204283840510
20567600 299 18413668011215365609
21285901 2 18040712511711901749
21860390 5 18411141298939722143
22113638 7 18265331892531923588
22289505 5 18336259038139317413
23558518 356 17398101038313670074
23559900 14 18339912776098867435
238 59 18266187316661927577
3014063 31 18336546031991267437
3060560 45 18342460356972054694
338550 245 18121497118527955015
463206 1 18200590436264781521
474 4 18408322215735132291
484985 159 14322223405856776612
508706 21 17821996598411516397
54672768 99 18116720805341263469
6443956 14 18411700971711978137

>  <PUBCHEM_SHAPE_MULTIPOLES>  (1) 
475.17
10.22
4.84
1.23
14.45
2.31
-0.01
-2.66
-1.67
-3.49
-0.98
-0.46
-0.06
-0.08

>  <PUBCHEM_SHAPE_SELFOVERLAP>  (1) 
973.583

>  <PUBCHEM_SHAPE_VOLUME>  (1) 
273.4

>  <PUBCHEM_COORDINATE_TYPE>  (1) 
2
5
10

$$$$
