47598
     RDKit          3D

 30 32  0  0  1  0  0  0  0  0999 V2000
    3.3739    1.1349    0.2097 O   0  0  0  0  0  0  0  0  0  0  0  0
   -5.0593    2.9509   -0.7071 O   0  0  0  0  0  0  0  0  0  0  0  0
   -2.5852    0.6817    1.9004 O   0  0  0  0  0  0  0  0  0  0  0  0
   -4.2536    4.8607    0.1950 O   0  0  0  0  0  0  0  0  0  0  0  0
   -2.9029    1.5480   -0.2303 N   0  0  0  0  0  0  0  0  0  0  0  0
   -2.7838    2.9407    0.1317 C   0  0  0  0  0  0  0  0  0  0  0  0
   -1.6423    3.6167   -0.6389 C   0  0  0  0  0  0  0  0  0  0  0  0
   -0.3048    2.9543   -0.4115 C   0  0  0  0  0  0  0  0  0  0  0  0
   -2.9549   -0.8393    0.0535 C   0  0  0  0  0  0  0  0  0  0  0  0
   -2.8353   -1.9799    1.0624 C   0  0  0  0  0  0  0  0  0  0  0  0
   -2.7915    0.5248    0.6999 C   0  0  0  0  0  0  0  0  0  0  0  0
   -4.0882    3.6851   -0.1130 C   0  0  0  0  0  0  0  0  0  0  0  0
    0.1104    1.9176   -1.2472 C   0  0  0  0  0  0  0  0  0  0  0  0
    0.5163    3.3798    0.6328 C   0  0  0  0  0  0  0  0  0  0  0  0
   -2.9819   -3.3261    0.4016 C   0  0  0  0  0  0  0  0  0  0  0  0
    2.1678    1.7317    0.0058 C   0  0  0  0  0  0  0  0  0  0  0  0
    1.3468    1.3061   -1.0385 C   0  0  0  0  0  0  0  0  0  0  0  0
    1.7525    2.7683    0.8415 C   0  0  0  0  0  0  0  0  0  0  0  0
   -4.2429   -3.9100    0.2807 C   0  0  0  0  0  0  0  0  0  0  0  0
   -1.8567   -3.9882   -0.0897 C   0  0  0  0  0  0  0  0  0  0  0  0
    3.7361    0.0814   -0.6818 C   0  0  0  0  0  0  0  0  0  0  0  0
   -4.3789   -5.1561   -0.3312 C   0  0  0  0  0  0  0  0  0  0  0  0
   -1.9927   -5.2343   -0.7017 C   0  0  0  0  0  0  0  0  0  0  0  0
    5.0738   -0.4646   -0.2769 C   0  0  0  0  0  0  0  0  0  0  0  0
   -3.2539   -5.8182   -0.8225 C   0  0  0  0  0  0  0  0  0  0  0  0
    6.2409    0.0815   -0.8115 C   0  0  0  0  0  0  0  0  0  0  0  0
    5.1506   -1.5178    0.6345 C   0  0  0  0  0  0  0  0  0  0  0  0
    7.4844   -0.4258   -0.4350 C   0  0  0  0  0  0  0  0  0  0  0  0
    6.3943   -2.0250    1.0110 C   0  0  0  0  0  0  0  0  0  0  0  0
    7.5611   -1.4789    0.4762 C   0  0  0  0  0  0  0  0  0  0  0  0
  1 16  1  0
  1 21  1  0
  2 12  1  0
  3 11  2  0
  4 12  2  0
  5  6  1  0
  5 11  1  0
  6  7  1  0
  6 12  1  0
  7  8  1  0
  8 13  2  0
  8 14  1  0
  9 10  1  0
  9 11  1  0
 10 15  1  0
 13 17  1  0
 14 18  2  0
 15 19  2  0
 15 20  1  0
 16 17  2  0
 16 18  1  0
 19 22  1  0
 20 23  2  0
 21 24  1  0
 22 25  2  0
 23 25  1  0
 24 26  2  0
 24 27  1  0
 26 28  1  0
 27 29  2  0
 28 30  2  0
 29 30  1  0
M  END
>  <PUBCHEM_COMPOUND_CID>  (1) 
47598

>  <PUBCHEM_CONFORMER_RMSD>  (1) 
1

>  <PUBCHEM_CONFORMER_DIVERSEORDER>  (1) 
1
77
78
125
42
135
98
82
89
161
39
137
147
128
142
145
30
140
41
144
49
117
167
29
149
47
61
19
104
166
131
50
88
113
118
158
97
37
55
17
75
163
164
105
107
101
54
114
34
45
32
59
96
83
8
170
162
143
122
126
63
20
106
67
160
80
79
134
119
58
68
38
152
85
156
46
111
71
115
48
153
109
86
151
62
57
159
124
72
132
169
148
171
81
28
69
12
102
141
74
66
31
133
65
168
56
92
91
43
138
7
22
94
70
10
108
18
150
52
53
51
110
87
99
139
103
93
35
90
95
24
121
130
154
6
146
23
2
21
100
84
112
127
157
116
16
155
40
4
123
44
13
15
165
120
25
14
36
11
9
129
76
26
73
5
136
27
33
64
60
3

>  <PUBCHEM_MMFF94_PARTIAL_CHARGES>  (1) 
46
1 -0.36
10 0.14
11 0.57
12 0.66
13 -0.15
14 -0.15
15 -0.14
16 0.08
17 -0.15
18 -0.15
19 -0.15
2 -0.65
20 -0.15
21 0.42
22 -0.15
23 -0.15
24 -0.14
25 -0.15
26 -0.15
27 -0.15
28 -0.15
29 -0.15
3 -0.57
30 -0.15
34 0.37
39 0.15
4 -0.57
40 0.15
41 0.15
42 0.15
43 0.15
44 0.15
47 0.15
48 0.15
49 0.5
5 -0.73
50 0.15
51 0.15
52 0.15
53 0.15
54 0.15
55 0.15
6 0.36
7 0.14
8 -0.14
9 0.06

>  <PUBCHEM_EFFECTIVE_ROTOR_COUNT>  (1) 
11

>  <PUBCHEM_PHARMACOPHORE_FEATURES>  (1) 
9
1 1 acceptor
1 2 acceptor
1 3 acceptor
1 4 acceptor
1 5 donor
3 2 4 12 anion
6 15 19 20 22 23 25 rings
6 24 26 27 28 29 30 rings
6 8 13 14 16 17 18 rings

>  <PUBCHEM_HEAVY_ATOM_COUNT>  (1) 
30

>  <PUBCHEM_ATOM_DEF_STEREO_COUNT>  (1) 
1

>  <PUBCHEM_ATOM_UDEF_STEREO_COUNT>  (1) 
0

>  <PUBCHEM_BOND_DEF_STEREO_COUNT>  (1) 
0

>  <PUBCHEM_BOND_UDEF_STEREO_COUNT>  (1) 
0

>  <PUBCHEM_ISOTOPIC_ATOM_COUNT>  (1) 
0

>  <PUBCHEM_COMPONENT_COUNT>  (1) 
1

>  <PUBCHEM_CACTVS_TAUTO_COUNT>  (1) 
2

>  <PUBCHEM_CONFORMER_ID>  (1) 
0000B9EE00000001

>  <PUBCHEM_MMFF94_ENERGY>  (1) 
80.0297

>  <PUBCHEM_FEATURE_SELFOVERLAP>  (1) 
45.733

>  <PUBCHEM_SHAPE_FINGERPRINT>  (1) 
10290309 65 17904202525057737990
10483366 6 18337378397676255303
10622 236 18188490293458116454
10940486 97 18261120668450564252
11069576 57 17469042614895641005
11135609 149 17695325364094648943
11524674 6 18190460450311422537
12107183 9 18053403260336548147
12202916 173 18059284375654218021
12717326 68 17835779156668998432
14114211 80 18053384293111505529
14429380 30 18192155004437076786
14444916 359 17979371762756485140
14674994 50 18338808835600544176
14844126 61 18334583425252306553
14866123 147 18410575072500857153
14904385 45 17974292328411956451
15320295 44 18261125088747008156
15400415 2 17978228262712616604
15439362 3 17543630830200027853
15803439 3 17535997036462206349
16719943 64 18266458711297776541
17492 89 18123469642145585259
20775530 9 18122074353273954026
21133410 171 17614510052098473426
23516275 137 17613457553382101834
23569943 247 14619400590255633548
3383291 50 18339643335309634633
4017518 198 18193837037840733791
404807 14 18049723220540790847
437795 96 18199478662432607990
4616759 239 17987504941368741944
484985 159 18335412457125099327
49967989 163 18340783563464429158
57527585 21 12353219884989257300

>  <PUBCHEM_SHAPE_MULTIPOLES>  (1) 
588.93
15.83
9.01
1.08
33.16
5.68
-0.12
13.07
-0.58
-19.09
1.28
0.07
-0.01
-1.07

>  <PUBCHEM_SHAPE_SELFOVERLAP>  (1) 
1250.889

>  <PUBCHEM_SHAPE_VOLUME>  (1) 
325.8

>  <PUBCHEM_COORDINATE_TYPE>  (1) 
2
5
10

$$$$
