47602
     RDKit          3D

 26 27  0  0  1  0  0  0  0  0999 V2000
   -2.1516   -1.3465   -0.2567 O   0  0  0  0  0  0  0  0  0  0  0  0
    0.6964    1.6823   -0.4210 O   0  0  0  0  0  0  0  0  0  0  0  0
   -3.0174    2.2121    1.9273 O   0  0  0  0  0  0  0  0  0  0  0  0
   -4.2588   -1.1279    0.6558 O   0  0  0  0  0  0  0  0  0  0  0  0
   -4.9401    2.3576    0.7486 O   0  0  0  0  0  0  0  0  0  0  0  0
   -0.6670    2.3562   -2.1421 O   0  0  0  0  0  0  0  0  0  0  0  0
   -1.5297    1.5832   -0.1314 N   0  0  0  0  0  0  0  0  0  0  0  0
   -2.9322    1.7114   -0.4419 C   0  0  0  0  0  0  0  0  0  0  0  0
   -3.4730    0.4178   -1.0555 C   0  0  0  0  0  0  0  0  0  0  0  0
   -3.3797   -0.7645   -0.1131 C   0  0  0  0  0  0  0  0  0  0  0  0
   -3.7403    2.1061    0.7861 C   0  0  0  0  0  0  0  0  0  0  0  0
   -1.9049   -2.4798    0.5819 C   0  0  0  0  0  0  0  0  0  0  0  0
   -0.5250   -3.0013    0.3073 C   0  0  0  0  0  0  0  0  0  0  0  0
   -0.5158    1.9161   -1.0072 C   0  0  0  0  0  0  0  0  0  0  0  0
    1.8453    1.9851   -1.2206 C   0  0  0  0  0  0  0  0  0  0  0  0
    3.0848    1.6738   -0.4344 C   0  0  0  0  0  0  0  0  0  0  0  0
   -0.3291   -3.9723   -0.6749 C   0  0  0  0  0  0  0  0  0  0  0  0
    0.5620   -2.5147    1.0335 C   0  0  0  0  0  0  0  0  0  0  0  0
    3.6672    2.6556    0.3673 C   0  0  0  0  0  0  0  0  0  0  0  0
    3.6547    0.4024   -0.5048 C   0  0  0  0  0  0  0  0  0  0  0  0
    0.9536   -4.4570   -0.9305 C   0  0  0  0  0  0  0  0  0  0  0  0
    1.8447   -2.9994    0.7778 C   0  0  0  0  0  0  0  0  0  0  0  0
    2.0405   -3.9706   -0.2042 C   0  0  0  0  0  0  0  0  0  0  0  0
    4.8194    2.3662    1.0983 C   0  0  0  0  0  0  0  0  0  0  0  0
    4.8069    0.1132    0.2263 C   0  0  0  0  0  0  0  0  0  0  0  0
    5.3892    1.0951    1.0279 C   0  0  0  0  0  0  0  0  0  0  0  0
  1 10  1  0
  1 12  1  0
  2 14  1  0
  2 15  1  0
  3 11  1  0
  4 10  2  0
  5 11  2  0
  6 14  2  0
  7  8  1  0
  7 14  1  0
  8  9  1  0
  8 11  1  0
  9 10  1  0
 12 13  1  0
 13 17  2  0
 13 18  1  0
 15 16  1  0
 16 19  2  0
 16 20  1  0
 17 21  1  0
 18 22  2  0
 19 24  1  0
 20 25  2  0
 21 23  2  0
 22 23  1  0
 24 26  2  0
 25 26  1  0
M  END
>  <PUBCHEM_COMPOUND_CID>  (1) 
47602

>  <PUBCHEM_CONFORMER_RMSD>  (1) 
1.2

>  <PUBCHEM_CONFORMER_DIVERSEORDER>  (1) 
1
57
109
49
92
48
122
113
99
127
96
50
123
112
9
154
6
35
141
19
43
151
60
56
97
40
11
80
126
85
103
10
117
115
30
130
46
2
53
140
149
26
4
152
100
108
18
66
59
128
95
88
23
76
64
42
91
82
114
87
155
94
133
83
31
93
70
84
144
101
74
17
143
5
34
24
116
32
47
111
120
71
150
90
14
51
129
63
65
135
153
36
7
25
52
28
132
62
68
137
110
104
54
107
38
78
142
138
124
13
55
146
20
39
106
67
134
81
22
73
37
44
69
3
121
12
118
77
147
33
89
98
102
27
29
131
86
8
119
15
45
125
16
58
136
79
105
41
75
139
145
21
72
61
148

>  <PUBCHEM_MMFF94_PARTIAL_CHARGES>  (1) 
38
1 -0.43
10 0.66
11 0.66
12 0.42
13 -0.14
14 0.78
15 0.42
16 -0.14
17 -0.15
18 -0.15
19 -0.15
2 -0.43
20 -0.15
21 -0.15
22 -0.15
23 -0.15
24 -0.15
25 -0.15
26 -0.15
3 -0.65
30 0.37
35 0.15
36 0.15
37 0.15
38 0.15
39 0.15
4 -0.57
40 0.15
41 0.15
42 0.15
43 0.15
44 0.5
45 0.15
5 -0.57
6 -0.57
7 -0.73
8 0.36
9 0.06

>  <PUBCHEM_EFFECTIVE_ROTOR_COUNT>  (1) 
11

>  <PUBCHEM_PHARMACOPHORE_FEATURES>  (1) 
8
1 3 acceptor
1 4 acceptor
1 5 acceptor
1 6 acceptor
1 7 donor
3 3 5 11 anion
6 13 17 18 21 22 23 rings
6 16 19 20 24 25 26 rings

>  <PUBCHEM_HEAVY_ATOM_COUNT>  (1) 
26

>  <PUBCHEM_ATOM_DEF_STEREO_COUNT>  (1) 
1

>  <PUBCHEM_ATOM_UDEF_STEREO_COUNT>  (1) 
0

>  <PUBCHEM_BOND_DEF_STEREO_COUNT>  (1) 
0

>  <PUBCHEM_BOND_UDEF_STEREO_COUNT>  (1) 
0

>  <PUBCHEM_ISOTOPIC_ATOM_COUNT>  (1) 
0

>  <PUBCHEM_COMPONENT_COUNT>  (1) 
1

>  <PUBCHEM_CACTVS_TAUTO_COUNT>  (1) 
2

>  <PUBCHEM_CONFORMER_ID>  (1) 
0000B9F200000001

>  <PUBCHEM_MMFF94_ENERGY>  (1) 
51.8332

>  <PUBCHEM_FEATURE_SELFOVERLAP>  (1) 
40.658

>  <PUBCHEM_SHAPE_FINGERPRINT>  (1) 
11200772 71 17754758327205085484
11370993 70 18412822521222677136
11513181 2 18201718410245995679
11552529 35 17908417301436540276
12422481 6 18116416069390870874
12553582 1 17110734916940564006
12788726 201 17759816131482979206
12978246 48 18263363740847797290
138480 1 17834674898875753102
14028597 1 17774459234759210473
14081887 123 17764863985277288672
16067690 210 16558475184184354312
16120349 306 18334848433424624816
22113638 7 18046622588363241742
229767 44 18335969965887894786
238918 7 18341612655272208438
532947 4 18047183056094831693
6287921 2 18054218834926607371
653340 110 18196082477208786576

>  <PUBCHEM_SHAPE_MULTIPOLES>  (1) 
494.87
9.59
6.06
1.32
4.63
7.14
0.07
-8.61
-3.22
0.16
0.41
-0.25
-0.66
-0.13

>  <PUBCHEM_SHAPE_SELFOVERLAP>  (1) 
1035.931

>  <PUBCHEM_SHAPE_VOLUME>  (1) 
277.3

>  <PUBCHEM_COORDINATE_TYPE>  (1) 
2
5
10

$$$$
