47604
     RDKit          3D

 26 27  0  0  1  0  0  0  0  0999 V2000
    2.1917   -1.2944   -0.2145 O   0  0  0  0  0  0  0  0  0  0  0  0
   -0.7891    1.7008   -0.4315 O   0  0  0  0  0  0  0  0  0  0  0  0
    2.9474    2.3602    1.8904 O   0  0  0  0  0  0  0  0  0  0  0  0
    4.2150   -0.8547    0.8023 O   0  0  0  0  0  0  0  0  0  0  0  0
    4.8329    2.6024    0.6684 O   0  0  0  0  0  0  0  0  0  0  0  0
    0.5449    2.3318   -2.1913 O   0  0  0  0  0  0  0  0  0  0  0  0
    1.4402    1.6870   -0.1502 N   0  0  0  0  0  0  0  0  0  0  0  0
    2.8366    1.8442   -0.4745 C   0  0  0  0  0  0  0  0  0  0  0  0
    3.4090    0.5369   -1.0276 C   0  0  0  0  0  0  0  0  0  0  0  0
    3.3535   -0.5994   -0.0277 C   0  0  0  0  0  0  0  0  0  0  0  0
    3.6408    2.3207    0.7268 C   0  0  0  0  0  0  0  0  0  0  0  0
    1.9972   -2.4146    0.6549 C   0  0  0  0  0  0  0  0  0  0  0  0
    0.6867   -3.0676    0.3266 C   0  0  0  0  0  0  0  0  0  0  0  0
    0.4125    1.9438   -1.0352 C   0  0  0  0  0  0  0  0  0  0  0  0
   -1.9503    1.9269   -1.2384 C   0  0  0  0  0  0  0  0  0  0  0  0
   -3.1760    1.6155   -0.4309 C   0  0  0  0  0  0  0  0  0  0  0  0
   -0.4792   -2.6547    0.9718 C   0  0  0  0  0  0  0  0  0  0  0  0
    0.6340   -4.0870   -0.6241 C   0  0  0  0  0  0  0  0  0  0  0  0
   -3.7046    0.3245   -0.4351 C   0  0  0  0  0  0  0  0  0  0  0  0
   -3.7868    2.6166    0.3245 C   0  0  0  0  0  0  0  0  0  0  0  0
   -1.6975   -3.2614    0.6665 C   0  0  0  0  0  0  0  0  0  0  0  0
   -0.5844   -4.6937   -0.9294 C   0  0  0  0  0  0  0  0  0  0  0  0
   -1.7501   -4.2807   -0.2840 C   0  0  0  0  0  0  0  0  0  0  0  0
   -4.8439    0.0347    0.3157 C   0  0  0  0  0  0  0  0  0  0  0  0
   -4.9261    2.3266    1.0754 C   0  0  0  0  0  0  0  0  0  0  0  0
   -5.4545    1.0357    1.0709 C   0  0  0  0  0  0  0  0  0  0  0  0
  1 10  1  0
  1 12  1  0
  2 14  1  0
  2 15  1  0
  3 11  1  0
  4 10  2  0
  5 11  2  0
  6 14  2  0
  7  8  1  0
  7 14  1  0
  8  9  1  0
  8 11  1  0
  9 10  1  0
 12 13  1  0
 13 17  2  0
 13 18  1  0
 15 16  1  0
 16 19  2  0
 16 20  1  0
 17 21  1  0
 18 22  2  0
 19 24  1  0
 20 25  2  0
 21 23  2  0
 22 23  1  0
 24 26  2  0
 25 26  1  0
M  END
>  <PUBCHEM_COMPOUND_CID>  (1) 
47604

>  <PUBCHEM_CONFORMER_RMSD>  (1) 
1.2

>  <PUBCHEM_CONFORMER_DIVERSEORDER>  (1) 
1
136
146
20
102
45
67
86
121
12
84
137
144
23
76
49
101
75
95
60
110
68
105
90
112
139
55
52
29
18
103
124
27
89
85
39
100
3
130
9
135
64
87
141
145
11
50
25
129
38
116
47
53
133
4
78
41
108
147
88
30
32
114
77
117
7
106
81
138
72
122
63
19
115
58
128
26
70
48
22
31
62
111
93
43
91
65
14
94
149
125
83
107
148
33
8
118
132
56
134
104
113
71
36
98
24
42
80
131
37
5
10
127
6
73
109
66
119
123
82
35
140
143
126
74
51
15
34
57
142
69
59
17
61
2
99
28
21
79
46
120
13
96
40
44
92
16
54
97

>  <PUBCHEM_MMFF94_PARTIAL_CHARGES>  (1) 
38
1 -0.43
10 0.66
11 0.66
12 0.42
13 -0.14
14 0.78
15 0.42
16 -0.14
17 -0.15
18 -0.15
19 -0.15
2 -0.43
20 -0.15
21 -0.15
22 -0.15
23 -0.15
24 -0.15
25 -0.15
26 -0.15
3 -0.65
30 0.37
35 0.15
36 0.15
37 0.15
38 0.15
39 0.15
4 -0.57
40 0.15
41 0.15
42 0.15
43 0.15
44 0.5
45 0.15
5 -0.57
6 -0.57
7 -0.73
8 0.36
9 0.06

>  <PUBCHEM_EFFECTIVE_ROTOR_COUNT>  (1) 
11

>  <PUBCHEM_PHARMACOPHORE_FEATURES>  (1) 
8
1 3 acceptor
1 4 acceptor
1 5 acceptor
1 6 acceptor
1 7 donor
3 3 5 11 anion
6 13 17 18 21 22 23 rings
6 16 19 20 24 25 26 rings

>  <PUBCHEM_HEAVY_ATOM_COUNT>  (1) 
26

>  <PUBCHEM_ATOM_DEF_STEREO_COUNT>  (1) 
1

>  <PUBCHEM_ATOM_UDEF_STEREO_COUNT>  (1) 
0

>  <PUBCHEM_BOND_DEF_STEREO_COUNT>  (1) 
0

>  <PUBCHEM_BOND_UDEF_STEREO_COUNT>  (1) 
0

>  <PUBCHEM_ISOTOPIC_ATOM_COUNT>  (1) 
0

>  <PUBCHEM_COMPONENT_COUNT>  (1) 
1

>  <PUBCHEM_CACTVS_TAUTO_COUNT>  (1) 
2

>  <PUBCHEM_CONFORMER_ID>  (1) 
0000B9F400000001

>  <PUBCHEM_MMFF94_ENERGY>  (1) 
52.0486

>  <PUBCHEM_FEATURE_SELFOVERLAP>  (1) 
40.658

>  <PUBCHEM_SHAPE_FINGERPRINT>  (1) 
10064457 181 18411699906871182204
11513181 2 18273220823810387239
11578080 2 18058720459738966688
12788726 201 17470741364513064533
13402501 40 18043819684189796795
13533116 47 18124032335309051109
138480 1 17690000033574593231
14150022 121 17475494549766637128
14363568 33 18051702044310487679
1979834 28 18263095340115811961
20775530 9 17400639325020034135
21197605 99 18335996341409043411
3052486 1 17971473151007223172
5309563 4 17690559680777155447
6287921 2 18267023865139211035
653340 110 18124873722762803490
9777508 108 18197492037893265280

>  <PUBCHEM_SHAPE_MULTIPOLES>  (1) 
494.87
9.57
6.46
1.32
6.88
8.33
-0.12
-9.02
3.36
-1.19
-0.49
-0.2
-0.68
0.23

>  <PUBCHEM_SHAPE_SELFOVERLAP>  (1) 
1035.921

>  <PUBCHEM_SHAPE_VOLUME>  (1) 
277.3

>  <PUBCHEM_COORDINATE_TYPE>  (1) 
2
5
10

$$$$
