47611
     RDKit          3D

 30 33  0  0  1  0  0  0  0  0999 V2000
    2.6521   -4.1194   -3.0252 Br  0  0  0  0  0  0  0  0  0  0  0  0
    0.4004    1.5288   -0.0855 O   0  0  0  0  0  0  0  0  0  0  0  0
    2.1196    3.0635   -0.1434 O   0  0  0  0  0  0  0  0  0  0  0  0
   -3.9864   -0.6585    0.6619 O   0  0  0  0  0  0  0  0  0  0  0  0
   -0.6242    4.5802    1.0077 N   0  0  0  0  0  0  0  0  0  0  0  0
    3.9211    1.2331    1.0350 C   0  0  0  0  0  0  0  0  0  0  0  0
    4.1392    1.9858    2.2998 C   0  0  0  0  0  0  0  0  0  0  0  0
    4.5992    0.5627    2.1772 C   0  0  0  0  0  0  0  0  0  0  0  0
    2.5148    0.8083    0.6866 C   0  0  0  0  0  0  0  0  0  0  0  0
    2.5484   -0.4048   -0.2257 C   0  0  0  0  0  0  0  0  0  0  0  0
    1.6896    1.9436    0.1014 C   0  0  0  0  0  0  0  0  0  0  0  0
    2.4526   -0.2179   -1.5912 C   0  0  0  0  0  0  0  0  0  0  0  0
    2.6739   -1.6618    0.3333 C   0  0  0  0  0  0  0  0  0  0  0  0
    2.4835   -1.3317   -2.4304 C   0  0  0  0  0  0  0  0  0  0  0  0
    2.7048   -2.7756   -0.5062 C   0  0  0  0  0  0  0  0  0  0  0  0
   -0.4943    2.5130   -0.6134 C   0  0  0  0  0  0  0  0  0  0  0  0
    2.6096   -2.6105   -1.8879 C   0  0  0  0  0  0  0  0  0  0  0  0
   -1.8497    1.8838   -0.8369 C   0  0  0  0  0  0  0  0  0  0  0  0
   -0.5685    3.6675    0.2931 C   0  0  0  0  0  0  0  0  0  0  0  0
   -2.2892    0.8952    0.0280 C   0  0  0  0  0  0  0  0  0  0  0  0
   -2.6259    2.3079   -1.9028 C   0  0  0  0  0  0  0  0  0  0  0  0
   -3.5403    0.3144   -0.1787 C   0  0  0  0  0  0  0  0  0  0  0  0
   -3.8770    1.7271   -2.1095 C   0  0  0  0  0  0  0  0  0  0  0  0
   -4.3343    0.7303   -1.2475 C   0  0  0  0  0  0  0  0  0  0  0  0
   -3.0996   -1.6629    1.0122 C   0  0  0  0  0  0  0  0  0  0  0  0
   -2.3224   -2.2486    0.0294 C   0  0  0  0  0  0  0  0  0  0  0  0
   -3.0149   -2.0550    2.3359 C   0  0  0  0  0  0  0  0  0  0  0  0
   -1.4299   -3.2610    0.3822 C   0  0  0  0  0  0  0  0  0  0  0  0
   -2.1224   -3.0672    2.6887 C   0  0  0  0  0  0  0  0  0  0  0  0
   -1.3300   -3.6702    1.7118 C   0  0  0  0  0  0  0  0  0  0  0  0
  1 17  1  0
  2 11  1  0
  2 16  1  0
  3 11  2  0
  4 22  1  0
  4 25  1  0
  5 19  3  0
  6  7  1  0
  6  8  1  0
  6  9  1  0
  7  8  1  0
  9 10  1  0
  9 11  1  0
 10 12  2  0
 10 13  1  0
 12 14  1  0
 13 15  2  0
 14 17  2  0
 15 17  1  0
 16 18  1  0
 16 19  1  0
 18 20  2  0
 18 21  1  0
 20 22  1  0
 21 23  2  0
 22 24  2  0
 23 24  1  0
 25 26  2  0
 25 27  1  0
 26 28  1  0
 27 29  2  0
 28 30  2  0
 29 30  1  0
M  END
>  <PUBCHEM_COMPOUND_CID>  (1) 
47611

>  <PUBCHEM_CONFORMER_RMSD>  (1) 
1.2

>  <PUBCHEM_CONFORMER_DIVERSEORDER>  (1) 
1
353
54
176
41
248
306
201
108
291
94
252
271
134
263
326
109
152
206
32
100
96
30
262
28
66
356
330
333
314
289
342
13
132
136
362
174
197
69
138
241
168
7
101
82
351
61
180
104
280
129
290
85
346
221
47
334
44
24
156
114
193
360
117
83
86
331
297
335
169
131
321
239
56
9
272
293
162
135
275
70
5
230
183
196
367
311
159
202
299
78
281
37
98
35
222
253
336
39
236
165
273
191
57
116
190
352
49
150
226
25
92
16
151
312
205
112
17
340
84
325
329
250
313
242
266
115
247
231
227
316
261
208
188
120
264
43
20
179
200
251
111
308
128
260
337
73
204
67
91
133
72
40
268
310
79
154
63
164
194
76
167
127
355
166
286
45
315
295
60
80
319
65
317
146
366
228
318
89
38
296
300
107
292
244
245
4
249
124
189
31
364
223
259
158
8
172
237
140
350
160
283
181
265
155
305
344
301
51
157
258
215
27
46
277
224
113
246
175
233
365
118
177
218
145
55
298
327
339
64
288
48
363
195
147
348
148
294
81
50
199
187
144
219
18
74
274
269
26
87
284
257
33
130
126
170
53
359
210
21
105
332
103
139
287
322
225
270
11
68
240
303
211
123
52
182
10
42
192
338
142
71
77
23
279
341
125
243
323
209
12
2
285
309
214
102
75
163
349
307
361
141
19
122
267
3
254
220
137
234
328
149
15
173
213
36
34
186
282
161
119
255
203
88
235
232
153
324
59
198
256
143
97
345
62
184
110
212
121
29
6
238
217
171
95
304
354
229
14
276
302
216
99
178
22
320
278
343
207
90
93
185
347
106
58
358
357

>  <PUBCHEM_MMFF94_PARTIAL_CHARGES>  (1) 
48
1 -0.11
10 -0.14
11 0.66
12 -0.15
13 -0.15
14 -0.15
15 -0.15
16 0.62
17 0.11
18 -0.14
19 0.36
2 -0.43
20 -0.15
21 -0.15
22 0.08
23 -0.15
24 -0.15
25 0.08
26 -0.15
27 -0.15
28 -0.15
29 -0.15
3 -0.57
30 -0.15
31 0.1
32 0.1
33 0.1
34 0.1
35 0.1
37 0.15
38 0.15
39 0.15
4 -0.17
40 0.15
42 0.15
43 0.15
44 0.15
45 0.15
46 0.15
47 0.15
48 0.15
49 0.15
5 -0.56
50 0.15
6 -0.19
7 -0.2
8 -0.2
9 0.3

>  <PUBCHEM_EFFECTIVE_ROTOR_COUNT>  (1) 
8.6

>  <PUBCHEM_PHARMACOPHORE_FEATURES>  (1) 
7
1 1 hydrophobe
1 3 acceptor
1 4 acceptor
1 5 acceptor
6 10 12 13 14 15 17 rings
6 18 20 21 22 23 24 rings
6 25 26 27 28 29 30 rings

>  <PUBCHEM_HEAVY_ATOM_COUNT>  (1) 
30

>  <PUBCHEM_ATOM_DEF_STEREO_COUNT>  (1) 
0

>  <PUBCHEM_ATOM_UDEF_STEREO_COUNT>  (1) 
2

>  <PUBCHEM_BOND_DEF_STEREO_COUNT>  (1) 
0

>  <PUBCHEM_BOND_UDEF_STEREO_COUNT>  (1) 
0

>  <PUBCHEM_ISOTOPIC_ATOM_COUNT>  (1) 
0

>  <PUBCHEM_COMPONENT_COUNT>  (1) 
1

>  <PUBCHEM_CACTVS_TAUTO_COUNT>  (1) 
1

>  <PUBCHEM_CONFORMER_ID>  (1) 
0000B9FB00000001

>  <PUBCHEM_MMFF94_ENERGY>  (1) 
88.8052

>  <PUBCHEM_FEATURE_SELFOVERLAP>  (1) 
35.522

>  <PUBCHEM_SHAPE_FINGERPRINT>  (1) 
10305334 12 16898448375981527602
10675989 125 17830991573667645429
10721379 63 11696394213679195704
108634 29 18334850606488282303
12202916 173 18122311753528069973
12596602 18 15984535741040073517
12633257 1 18191588751341841227
13402501 40 18409724080033038123
1361 2 18201991162613230255
13726171 33 17898599667153765692
14020679 6 17553215306775011504
140371 6 18411412908387823864
14114206 34 17545894728307702476
14114211 68 17103430380493318063
14725015 67 18118964698594676643
15420108 30 17045718590765848201
17974551 9 17555499134138094355
19315092 285 16342267239204732167
20764821 26 18408605863685817247
21133410 32 17467969208618069590
23559900 14 18335985255649559404
238918 7 18342728655131630114
3298306 158 17825376389743713277
46939830 39 15301214540360495826
57307002 85 18339367370950122254
6287921 2 17042930190592103595

>  <PUBCHEM_SHAPE_MULTIPOLES>  (1) 
600.74
8.22
5.88
2.81
0.1
0.59
0.13
-0.01
-0.04
0.52
-0.56
0.97
2.2
6.11

>  <PUBCHEM_SHAPE_SELFOVERLAP>  (1) 
1292.718

>  <PUBCHEM_SHAPE_VOLUME>  (1) 
337.1

>  <PUBCHEM_COORDINATE_TYPE>  (1) 
2
5
10

$$$$
