47624
     RDKit          3D

 24 24  0  0  1  0  0  0  0  0999 V2000
   -0.4684    0.8264   -1.9988 O   0  0  0  0  0  0  0  0  0  0  0  0
   -0.4349    0.5651    2.2776 O   0  0  0  0  0  0  0  0  0  0  0  0
   -2.2995   -3.5744   -0.8501 O   0  0  0  0  0  0  0  0  0  0  0  0
    3.4055    0.2822    0.0635 N   0  0  0  0  0  0  0  0  0  0  0  0
   -0.3472    0.9236   -0.5751 C   0  0  0  0  0  0  0  0  0  0  0  0
    1.1537    1.1699   -0.2354 C   0  0  0  0  0  0  0  0  0  0  0  0
    2.1665    0.0994   -0.7041 C   0  0  0  0  0  0  0  0  0  0  0  0
   -1.1680    2.1753   -0.1436 C   0  0  0  0  0  0  0  0  0  0  0  0
   -0.8775   -0.3407    0.1028 C   0  0  0  0  0  0  0  0  0  0  0  0
   -2.6444    2.1366   -0.5725 C   0  0  0  0  0  0  0  0  0  0  0  0
    2.4960    0.1585   -2.1939 C   0  0  0  0  0  0  0  0  0  0  0  0
    4.3395   -0.8039   -0.2196 C   0  0  0  0  0  0  0  0  0  0  0  0
    4.0069    1.5754   -0.2497 C   0  0  0  0  0  0  0  0  0  0  0  0
   -3.4063    3.4183   -0.2226 C   0  0  0  0  0  0  0  0  0  0  0  0
   -0.8933   -0.4503    1.4933 C   0  0  0  0  0  0  0  0  0  0  0  0
   -1.3500   -1.3903   -0.6849 C   0  0  0  0  0  0  0  0  0  0  0  0
    3.7242   -2.1551    0.1027 C   0  0  0  0  0  0  0  0  0  0  0  0
    5.2622    1.8107    0.5731 C   0  0  0  0  0  0  0  0  0  0  0  0
   -1.8386   -2.5496   -0.0822 C   0  0  0  0  0  0  0  0  0  0  0  0
   -1.3817   -1.6096    2.0961 C   0  0  0  0  0  0  0  0  0  0  0  0
   -4.8473    3.4202   -0.7088 C   0  0  0  0  0  0  0  0  0  0  0  0
   -1.8542   -2.6592    1.3083 C   0  0  0  0  0  0  0  0  0  0  0  0
   -0.4881    0.3682    3.6891 C   0  0  0  0  0  0  0  0  0  0  0  0
   -2.2548   -3.3967   -2.2651 C   0  0  0  0  0  0  0  0  0  0  0  0
  1  5  1  0
  2 15  1  0
  2 23  1  0
  3 19  1  0
  3 24  1  0
  4  7  1  0
  4 12  1  0
  4 13  1  0
  5  6  1  0
  5  8  1  0
  5  9  1  0
  6  7  1  0
  7 11  1  0
  8 10  1  0
  9 15  2  0
  9 16  1  0
 10 14  1  0
 12 17  1  0
 13 18  1  0
 14 21  1  0
 15 20  1  0
 16 19  2  0
 19 22  1  0
 20 22  2  0
M  END
>  <PUBCHEM_COMPOUND_CID>  (1) 
47624

>  <PUBCHEM_CONFORMER_RMSD>  (1) 
1

>  <PUBCHEM_CONFORMER_DIVERSEORDER>  (1) 
1
189
23
86
50
73
116
106
113
201
214
125
166
122
197
53
202
80
160
102
46
153
98
194
188
84
94
196
54
42
74
198
205
44
87
206
127
136
193
70
24
200
142
145
176
79
25
147
144
138
36
101
213
76
112
99
182
175
124
186
163
56
72
32
126
155
185
131
149
211
58
61
165
120
219
178
97
181
190
9
169
38
156
47
195
134
217
104
191
88
27
96
199
118
140
8
92
62
174
177
108
59
157
180
51
35
135
105
83
68
75
132
141
28
95
48
16
123
81
65
210
15
60
114
18
208
30
139
103
215
63
33
143
183
192
121
170
184
203
69
21
78
158
167
133
85
130
216
55
212
207
172
26
218
10
93
111
14
43
13
89
71
146
34
129
91
19
12
152
82
40
168
64
162
22
2
39
107
151
137
37
4
159
154
119
31
11
204
187
29
66
41
57
100
109
115
148
209
161
17
67
3
179
52
128
7
173
77
45
5
90
6
49
164
117
150
171
110
20

>  <PUBCHEM_MMFF94_PARTIAL_CHARGES>  (1) 
20
1 -0.68
12 0.27
13 0.27
15 0.08
16 -0.15
19 0.08
2 -0.36
20 -0.15
22 -0.15
23 0.28
24 0.28
3 -0.36
39 0.4
4 -0.81
42 0.15
49 0.15
5 0.42
53 0.15
7 0.27
9 -0.14

>  <PUBCHEM_EFFECTIVE_ROTOR_COUNT>  (1) 
11

>  <PUBCHEM_PHARMACOPHORE_FEATURES>  (1) 
7
1 1 acceptor
1 1 donor
1 2 acceptor
1 21 hydrophobe
1 3 acceptor
1 4 cation
6 9 15 16 19 20 22 rings

>  <PUBCHEM_HEAVY_ATOM_COUNT>  (1) 
24

>  <PUBCHEM_ATOM_DEF_STEREO_COUNT>  (1) 
0

>  <PUBCHEM_ATOM_UDEF_STEREO_COUNT>  (1) 
2

>  <PUBCHEM_BOND_DEF_STEREO_COUNT>  (1) 
0

>  <PUBCHEM_BOND_UDEF_STEREO_COUNT>  (1) 
0

>  <PUBCHEM_ISOTOPIC_ATOM_COUNT>  (1) 
0

>  <PUBCHEM_COMPONENT_COUNT>  (1) 
1

>  <PUBCHEM_CACTVS_TAUTO_COUNT>  (1) 
1

>  <PUBCHEM_CONFORMER_ID>  (1) 
0000BA0800000001

>  <PUBCHEM_MMFF94_ENERGY>  (1) 
79.6367

>  <PUBCHEM_FEATURE_SELFOVERLAP>  (1) 
35.521

>  <PUBCHEM_SHAPE_FINGERPRINT>  (1) 
11421498 54 12046802002008795817
11578080 2 17701813517331971609
12422481 6 17976580215109386507
12553582 1 17902532689339881934
12592029 89 17757552954163750931
12788726 201 18263348343400662243
13004483 165 18197206151737455710
13134695 92 17471571504756386709
14178342 30 18114181960695352148
14955137 171 16959265683828041210
17980427 23 14044084652409772331
1813 80 17837514181253344687
19930381 70 17186718321329911182
20197701 30 18188770518551936285
20567600 347 17899426281418535933
20600515 1 17198567096616860087
20602899 9 17986394390857239131
20681651 13 18272374183246095154
21521721 280 18271527494889920705
21524375 3 17971478394629853317
229495 10 17127875087351651621
23419403 2 16987140846434263185
23558518 356 17822580511772917088
23559900 14 18410289169713830500
23598288 3 17461476677737387900
23728640 28 18261679160169526218
298252 57 18262801735914048081
38695281 34 17979062787584155069
59755656 215 17320989637763379733
6138700 20 17396985656766599414
81228 2 17749670799964821525

>  <PUBCHEM_SHAPE_MULTIPOLES>  (1) 
471.32
7.7
4.35
2.42
7.63
1.26
-1.82
-5.71
1.52
-5.94
1.51
-0.97
0.96
0.28

>  <PUBCHEM_SHAPE_SELFOVERLAP>  (1) 
938.451

>  <PUBCHEM_SHAPE_VOLUME>  (1) 
281.5

>  <PUBCHEM_COORDINATE_TYPE>  (1) 
2
5
10

$$$$
