47629
     RDKit          3D

 26 29  0  0  0  0  0  0  0  0999 V2000
   -3.6642    2.6931    0.4729 O   0  0  0  0  0  0  0  0  0  0  0  0
    6.7048    0.3274   -1.7401 O   0  0  0  0  0  0  0  0  0  0  0  0
   -6.8130   -1.7727   -0.6205 O   0  0  0  0  0  0  0  0  0  0  0  0
   -6.9794    0.3762   -0.2040 O   0  0  0  0  0  0  0  0  0  0  0  0
   -0.5131   -0.3260    0.0840 N   0  0  0  0  0  0  0  0  0  0  0  0
    2.3553   -0.2239    0.2962 N   0  0  0  0  0  0  0  0  0  0  0  0
   -2.4613    2.0103    0.4169 N   0  0  0  0  0  0  0  0  0  0  0  0
   -4.7428    1.8579    0.2372 N   0  0  0  0  0  0  0  0  0  0  0  0
   -6.2835   -0.6602   -0.3637 N   0  0  0  0  0  0  0  0  0  0  0  0
    0.2500   -1.4849    0.5474 C   0  0  0  0  0  0  0  0  0  0  0  0
    0.2259    0.8861   -0.2683 C   0  0  0  0  0  0  0  0  0  0  0  0
    1.5612   -1.0485    1.2068 C   0  0  0  0  0  0  0  0  0  0  0  0
    1.6473    0.5470   -0.7257 C   0  0  0  0  0  0  0  0  0  0  0  0
   -1.9009   -0.3751   -0.0176 C   0  0  0  0  0  0  0  0  0  0  0  0
    3.7430   -0.1738    0.3995 C   0  0  0  0  0  0  0  0  0  0  0  0
   -2.7749    0.7374    0.1449 C   0  0  0  0  0  0  0  0  0  0  0  0
   -2.6041   -1.5787   -0.3014 C   0  0  0  0  0  0  0  0  0  0  0  0
    4.5578    0.0544   -0.7343 C   0  0  0  0  0  0  0  0  0  0  0  0
    4.3958   -0.3478    1.6425 C   0  0  0  0  0  0  0  0  0  0  0  0
   -4.2250    0.6405    0.0307 C   0  0  0  0  0  0  0  0  0  0  0  0
   -4.0163   -1.6731   -0.4126 C   0  0  0  0  0  0  0  0  0  0  0  0
   -4.8784   -0.5731   -0.2519 C   0  0  0  0  0  0  0  0  0  0  0  0
    5.9478    0.1058   -0.6309 C   0  0  0  0  0  0  0  0  0  0  0  0
    5.7860   -0.2966    1.7457 C   0  0  0  0  0  0  0  0  0  0  0  0
    6.5619   -0.0698    0.6091 C   0  0  0  0  0  0  0  0  0  0  0  0
    8.1201    0.3679   -1.5629 C   0  0  0  0  0  0  0  0  0  0  0  0
  1  7  1  0
  1  8  1  0
  2 23  1  0
  2 26  1  0
  3  9  1  0
  4  9  2  0
  5 10  1  0
  5 11  1  0
  5 14  1  0
  6 12  1  0
  6 13  1  0
  6 15  1  0
  7 16  2  0
  8 20  2  0
  9 22  1  0
 10 12  1  0
 11 13  1  0
 14 16  1  0
 14 17  2  0
 15 18  2  0
 15 19  1  0
 16 20  1  0
 17 21  1  0
 18 23  1  0
 19 24  2  0
 20 22  1  0
 21 22  2  0
 23 25  2  0
 24 25  1  0
M  CHG  2   3  -1   9   1
M  END
>  <PUBCHEM_COMPOUND_CID>  (1) 
47629

>  <PUBCHEM_CONFORMER_RMSD>  (1) 
0.8

>  <PUBCHEM_CONFORMER_DIVERSEORDER>  (1) 
1
35
15
5
6
16
31
30
39
27
29
18
19
14
7
41
33
9
28
21
2
4
40
24
34
42
26
36
3
22
10
37
13
32
12
17
11
25
8
20
38
23

>  <PUBCHEM_MMFF94_PARTIAL_CHARGES>  (1) 
32
1 0.24
10 0.37
11 0.37
12 0.37
13 0.37
14 0.1
15 0.1
16 0.29
17 -0.15
18 -0.15
19 -0.15
2 -0.36
20 0.29
21 -0.15
22 0.13
23 0.08
24 -0.15
25 -0.15
26 0.28
3 -0.52
35 0.15
36 0.15
37 0.15
38 0.15
39 0.15
4 -0.52
40 0.15
5 -0.84
6 -0.84
7 -0.41
8 -0.41
9 0.91

>  <PUBCHEM_EFFECTIVE_ROTOR_COUNT>  (1) 
5.2

>  <PUBCHEM_PHARMACOPHORE_FEATURES>  (1) 
12
1 2 acceptor
1 3 acceptor
1 3 anion
1 4 acceptor
1 5 cation
1 6 cation
1 7 acceptor
1 8 acceptor
5 1 7 8 16 20 rings
6 14 16 17 20 21 22 rings
6 15 18 19 23 24 25 rings
6 5 6 10 11 12 13 rings

>  <PUBCHEM_HEAVY_ATOM_COUNT>  (1) 
26

>  <PUBCHEM_ATOM_DEF_STEREO_COUNT>  (1) 
0

>  <PUBCHEM_ATOM_UDEF_STEREO_COUNT>  (1) 
0

>  <PUBCHEM_BOND_DEF_STEREO_COUNT>  (1) 
0

>  <PUBCHEM_BOND_UDEF_STEREO_COUNT>  (1) 
0

>  <PUBCHEM_ISOTOPIC_ATOM_COUNT>  (1) 
0

>  <PUBCHEM_COMPONENT_COUNT>  (1) 
1

>  <PUBCHEM_CACTVS_TAUTO_COUNT>  (1) 
1

>  <PUBCHEM_CONFORMER_ID>  (1) 
0000BA0D00000001

>  <PUBCHEM_MMFF94_ENERGY>  (1) 
111.4169

>  <PUBCHEM_FEATURE_SELFOVERLAP>  (1) 
61.162

>  <PUBCHEM_SHAPE_FINGERPRINT>  (1) 
10299344 5 18186801370714984978
10411042 1 18125434470664715455
10638233 991 17894916252262040468
10670039 82 18410858729047076316
10906281 52 17895487955342811130
11315181 36 17895198822344212601
11524674 6 15697998557055482431
12107183 9 17615679644622150554
12166972 35 17967530207494112773
12236239 1 18040712550060067282
12390115 104 18059580122991791257
12516196 113 17917709114866774016
12730499 353 17203890747957488318
13288520 33 18272651264566018757
13533116 47 17458616792944808738
13631057 29 17604435227474713627
13668630 136 15985107422530100142
13782708 43 16988552554476166287
14251764 18 18040434404004725318
14294032 229 18266183829508218345
14840074 17 17312824875100559790
14856354 85 18409452522315649407
14933364 13 17847061090709725984
15183329 4 18409171013158035006
15419008 47 17489584563141705440
1577012 14 18187085018507427392
17844677 252 18202845474404966560
18681886 176 18340201985520595145
18927931 339 18272366503834078735
19427546 20 18335979788821134789
19489759 90 18272087192861255323
20157964 124 16008745810795281874
20567600 75 17489309663944014452
21033648 29 16773217527360719656
21065198 48 18261668169247794307
21150785 3 18186804703382682142
21267235 1 18340490058273954043
21792961 116 17417820517860816566
22061861 79 16415480437544143876
22224240 67 14056720166725629064
2297311 6 18060140942361754505
2303208 19 17275107245422182950
23081809 10 18113898235023623936
23522609 53 17969240970615403812
23557571 272 18060425702629802341
23559900 14 18270110352791469105
3004659 81 18409731789805627340
335352 9 18411976967618194197
34797466 226 17703790362308875240
350125 39 18408317783608535493
3545911 37 18060419109849702219
4098825 35 15841281346035547499
4325135 7 18407478860035423534
445580 37 18412831265417512500
5104073 3 18269557135539837683
59755656 215 18060139829691347302
59755656 520 17167856496109019307

>  <PUBCHEM_SHAPE_MULTIPOLES>  (1) 
486.69
20.77
1.65
1.23
10.53
0.49
0.06
0.43
-5.22
-3.02
0.19
2.64
-0.05
-1.93

>  <PUBCHEM_SHAPE_SELFOVERLAP>  (1) 
1056.497

>  <PUBCHEM_SHAPE_VOLUME>  (1) 
265.9

>  <PUBCHEM_COORDINATE_TYPE>  (1) 
2
5
10

$$$$
