47637
     RDKit          3D

 25 28  0  0  0  0  0  0  0  0999 V2000
   -5.6419   -0.1819    0.1495 O   0  0  0  0  0  0  0  0  0  0  0  0
   -2.9721    2.9029    0.2899 O   0  0  0  0  0  0  0  0  0  0  0  0
   -0.8046    2.5967    0.1251 O   0  0  0  0  0  0  0  0  0  0  0  0
   -5.7352   -2.4421   -0.0697 O   0  0  0  0  0  0  0  0  0  0  0  0
    0.2215    0.2409   -0.1728 N   0  0  0  0  0  0  0  0  0  0  0  0
    2.9527    0.8918   -0.1732 N   0  0  0  0  0  0  0  0  0  0  0  0
   -1.9779    2.1453    0.1528 N   0  0  0  0  0  0  0  0  0  0  0  0
   -4.9912   -1.4378   -0.0157 N   0  0  0  0  0  0  0  0  0  0  0  0
   -4.6673    0.8019    0.1864 N   0  0  0  0  0  0  0  0  0  0  0  0
    0.9534    0.3221    1.1042 C   0  0  0  0  0  0  0  0  0  0  0  0
    1.0285   -0.0185   -1.3758 C   0  0  0  0  0  0  0  0  0  0  0  0
    2.1439    1.2802    0.9855 C   0  0  0  0  0  0  0  0  0  0  0  0
    2.2152    0.9453   -1.4357 C   0  0  0  0  0  0  0  0  0  0  0  0
   -1.1106   -0.1884   -0.1328 C   0  0  0  0  0  0  0  0  0  0  0  0
    4.1116    0.1396   -0.0164 C   0  0  0  0  0  0  0  0  0  0  0  0
   -2.1843    0.7517    0.0271 C   0  0  0  0  0  0  0  0  0  0  0  0
   -1.3992   -1.6049   -0.2556 C   0  0  0  0  0  0  0  0  0  0  0  0
   -3.4777    0.1983    0.0524 C   0  0  0  0  0  0  0  0  0  0  0  0
   -3.6792   -1.2262   -0.0765 C   0  0  0  0  0  0  0  0  0  0  0  0
    4.2528   -0.7828    1.0471 C   0  0  0  0  0  0  0  0  0  0  0  0
    5.1985    0.2655   -0.9135 C   0  0  0  0  0  0  0  0  0  0  0  0
   -2.6830   -2.1822   -0.2332 C   0  0  0  0  0  0  0  0  0  0  0  0
    5.4154   -1.5375    1.2044 C   0  0  0  0  0  0  0  0  0  0  0  0
    6.3611   -0.4890   -0.7561 C   0  0  0  0  0  0  0  0  0  0  0  0
    6.4696   -1.3908    0.3027 C   0  0  0  0  0  0  0  0  0  0  0  0
  1  8  1  0
  1  9  1  0
  2  7  1  0
  3  7  2  0
  4  8  1  0
  5 10  1  0
  5 11  1  0
  5 14  1  0
  6 12  1  0
  6 13  1  0
  6 15  1  0
  7 16  1  0
  8 19  2  0
  9 18  2  0
 10 12  1  0
 11 13  1  0
 14 16  2  0
 14 17  1  0
 15 20  2  0
 15 21  1  0
 16 18  1  0
 17 22  2  0
 18 19  1  0
 19 22  1  0
 20 23  1  0
 21 24  2  0
 23 25  2  0
 24 25  1  0
M  CHG  4   2  -1   4  -1   7   1   8   1
M  END
>  <PUBCHEM_COMPOUND_CID>  (1) 
47637

>  <PUBCHEM_CONFORMER_RMSD>  (1) 
0.8

>  <PUBCHEM_CONFORMER_DIVERSEORDER>  (1) 
1
4
5
3
6
2

>  <PUBCHEM_MMFF94_PARTIAL_CHARGES>  (1) 
32
1 -0.12
10 0.37
11 0.37
12 0.37
13 0.37
14 0.1
15 0.1
16 0.13
17 -0.15
18 0.29
19 -0.08
2 -0.52
20 -0.15
21 -0.15
22 -0.15
23 -0.15
24 -0.15
25 -0.15
3 -0.52
34 0.15
35 0.15
36 0.15
37 0.15
38 0.15
39 0.15
4 -0.63
40 0.15
5 -0.84
6 -0.84
7 0.91
8 0.95
9 -0.41

>  <PUBCHEM_EFFECTIVE_ROTOR_COUNT>  (1) 
4.2

>  <PUBCHEM_PHARMACOPHORE_FEATURES>  (1) 
11
1 2 acceptor
1 2 anion
1 3 acceptor
1 4 anion
1 5 cation
1 6 cation
1 9 acceptor
5 1 8 9 18 19 rings
6 14 16 17 18 19 22 rings
6 15 20 21 23 24 25 rings
6 5 6 10 11 12 13 rings

>  <PUBCHEM_HEAVY_ATOM_COUNT>  (1) 
25

>  <PUBCHEM_ATOM_DEF_STEREO_COUNT>  (1) 
0

>  <PUBCHEM_ATOM_UDEF_STEREO_COUNT>  (1) 
0

>  <PUBCHEM_BOND_DEF_STEREO_COUNT>  (1) 
0

>  <PUBCHEM_BOND_UDEF_STEREO_COUNT>  (1) 
0

>  <PUBCHEM_ISOTOPIC_ATOM_COUNT>  (1) 
0

>  <PUBCHEM_COMPONENT_COUNT>  (1) 
1

>  <PUBCHEM_CACTVS_TAUTO_COUNT>  (1) 
1

>  <PUBCHEM_CONFORMER_ID>  (1) 
0000BA1500000001

>  <PUBCHEM_MMFF94_ENERGY>  (1) 
109.919

>  <PUBCHEM_FEATURE_SELFOVERLAP>  (1) 
56.035

>  <PUBCHEM_SHAPE_FINGERPRINT>  (1) 
10319926 262 18272923916920313712
10411042 1 18268148850661196055
10595046 47 18334017203251255980
11524674 6 16773797004375163639
11796584 16 18412832412685834470
11963148 33 18342451560716496710
12107183 9 17686052795831853400
12166972 35 17895195549399993485
12236239 1 18040156214451318300
12516196 113 18201999941647286264
12633257 1 17774452666836342489
12788726 201 18410582773087231208
12969540 114 14634870860074773144
13167823 11 18334575737793557138
13288520 33 18411419518584078655
13533116 47 18260550065202433300
13583140 156 17703211928924264704
13782708 43 17560516313128308031
13862211 1 18341328994077905687
14341114 176 18411982490044283832
14347332 77 18261105253748868116
15183329 4 18408322172648354650
17349148 13 18333453152957999574
17834072 33 18186522099151384300
17844677 252 18413393142246515904
17857418 61 18407758132094954642
1813 80 17530954796533380860
18222031 100 17603579742802833348
18927931 339 18342740715325567727
19489759 90 18060138717199365018
20645477 70 15140949622774645176
21033648 29 16558454289584884618
21267235 1 18337114557328924387
22182313 1 17274554109237184804
22950370 63 18113898243698058294
2297311 6 18342463646521104716
23402539 116 18341610421530102629
23522609 53 18193589772268875692
23557571 272 17988371377278537420
23559900 14 18339917229168096240
23569914 152 14640438653450854874
23569943 247 17241877689128206706
3004659 81 18407762534879525230
335352 9 18411698782148770677
34797466 226 17846226587971985196
350125 39 18409448063827885257
351380 3 18259981578893989450
3633792 109 17531240686250915591
4073 2 17970070152869372394
4214541 1 18410573951261471020
4340502 62 14548746135408429191
465052 167 18272654571564483190
5104073 3 18201162160498805281
5265222 85 18200600310658541046
559249 180 18335416816495902578
57724786 102 15194989614320947962
59755656 215 18411981321438802135
67856867 119 18263086668471586908
7495541 125 18202564012096957656

>  <PUBCHEM_SHAPE_MULTIPOLES>  (1) 
466.11
14.81
2.29
1.05
7.4
0.48
-0.07
-7.43
0.45
-2.61
0.23
1.27
0.04
-0.98

>  <PUBCHEM_SHAPE_SELFOVERLAP>  (1) 
1017.57

>  <PUBCHEM_SHAPE_VOLUME>  (1) 
251.4

>  <PUBCHEM_COORDINATE_TYPE>  (1) 
2
5
10

$$$$
