47631
     RDKit          3D

 22 24  0  0  0  0  0  0  0  0999 V2000
   -7.2120   -0.2724    0.5786 O   0  0  0  0  0  0  0  0  0  0  0  0
    4.8798   -0.7128    0.1504 O   0  0  0  0  0  0  0  0  0  0  0  0
    1.4948   -2.9721   -0.1681 O   0  0  0  0  0  0  0  0  0  0  0  0
   -0.5120   -2.0865   -0.2539 O   0  0  0  0  0  0  0  0  0  0  0  0
    5.5659    1.4491    0.2928 O   0  0  0  0  0  0  0  0  0  0  0  0
   -3.7208    0.5949   -0.2245 N   0  0  0  0  0  0  0  0  0  0  0  0
   -0.8677    0.4728   -0.1585 N   0  0  0  0  0  0  0  0  0  0  0  0
    0.7371   -1.9686   -0.1699 N   0  0  0  0  0  0  0  0  0  0  0  0
    4.5842    0.6795    0.1958 N   0  0  0  0  0  0  0  0  0  0  0  0
    3.6817   -1.3998    0.0426 N   0  0  0  0  0  0  0  0  0  0  0  0
   -1.6373    0.3871    1.0890 C   0  0  0  0  0  0  0  0  0  0  0  0
   -1.5491    1.1260   -1.2804 C   0  0  0  0  0  0  0  0  0  0  0  0
   -3.0348   -0.1757    0.8200 C   0  0  0  0  0  0  0  0  0  0  0  0
   -2.9502    0.5404   -1.4727 C   0  0  0  0  0  0  0  0  0  0  0  0
   -5.0744    0.0825   -0.4343 C   0  0  0  0  0  0  0  0  0  0  0  0
    0.5277    0.5260   -0.0680 C   0  0  0  0  0  0  0  0  0  0  0  0
    1.3035   -0.6760   -0.0745 C   0  0  0  0  0  0  0  0  0  0  0  0
   -5.9031    0.2206    0.8328 C   0  0  0  0  0  0  0  0  0  0  0  0
    1.1689    1.8181    0.0322 C   0  0  0  0  0  0  0  0  0  0  0  0
    2.6952   -0.4922    0.0219 C   0  0  0  0  0  0  0  0  0  0  0  0
    3.2650    0.8315    0.1191 C   0  0  0  0  0  0  0  0  0  0  0  0
    2.5578    2.0276    0.1296 C   0  0  0  0  0  0  0  0  0  0  0  0
  1 18  1  0
  2  9  1  0
  2 10  1  0
  3  8  1  0
  4  8  2  0
  5  9  1  0
  6 13  1  0
  6 14  1  0
  6 15  1  0
  7 11  1  0
  7 12  1  0
  7 16  1  0
  8 17  1  0
  9 21  2  0
 10 20  2  0
 11 13  1  0
 12 14  1  0
 15 18  1  0
 16 17  2  0
 16 19  1  0
 17 20  1  0
 19 22  2  0
 20 21  1  0
 21 22  1  0
M  CHG  4   3  -1   5  -1   8   1   9   1
M  END
>  <PUBCHEM_COMPOUND_CID>  (1) 
47631

>  <PUBCHEM_CONFORMER_RMSD>  (1) 
0.8

>  <PUBCHEM_CONFORMER_DIVERSEORDER>  (1) 
1
4
5
6
3
2

>  <PUBCHEM_MMFF94_PARTIAL_CHARGES>  (1) 
25
1 -0.68
10 -0.41
11 0.37
12 0.37
13 0.27
14 0.27
15 0.27
16 0.1
17 0.13
18 0.28
19 -0.15
2 -0.12
20 0.29
21 -0.08
22 -0.15
3 -0.52
35 0.15
36 0.15
37 0.4
4 -0.52
5 -0.63
6 -0.81
7 -0.84
8 0.91
9 0.95

>  <PUBCHEM_EFFECTIVE_ROTOR_COUNT>  (1) 
5.2

>  <PUBCHEM_PHARMACOPHORE_FEATURES>  (1) 
12
1 1 acceptor
1 1 donor
1 10 acceptor
1 3 acceptor
1 3 anion
1 4 acceptor
1 5 anion
1 6 cation
1 7 cation
5 2 9 10 20 21 rings
6 16 17 19 20 21 22 rings
6 6 7 11 12 13 14 rings

>  <PUBCHEM_HEAVY_ATOM_COUNT>  (1) 
22

>  <PUBCHEM_ATOM_DEF_STEREO_COUNT>  (1) 
0

>  <PUBCHEM_ATOM_UDEF_STEREO_COUNT>  (1) 
0

>  <PUBCHEM_BOND_DEF_STEREO_COUNT>  (1) 
0

>  <PUBCHEM_BOND_UDEF_STEREO_COUNT>  (1) 
0

>  <PUBCHEM_ISOTOPIC_ATOM_COUNT>  (1) 
0

>  <PUBCHEM_COMPONENT_COUNT>  (1) 
1

>  <PUBCHEM_CACTVS_TAUTO_COUNT>  (1) 
1

>  <PUBCHEM_CONFORMER_ID>  (1) 
0000BA0F00000001

>  <PUBCHEM_MMFF94_ENERGY>  (1) 
77.5339

>  <PUBCHEM_FEATURE_SELFOVERLAP>  (1) 
61.109

>  <PUBCHEM_SHAPE_FINGERPRINT>  (1) 
10 15 18041835229754846680
11471102 20 18411416202874717804
12011746 2 18335990800457541326
12035758 1 18335967758127219456
12107183 9 17551525340797672681
12236239 1 17561363985042938517
12403259 415 18334286569887309165
12592029 89 18335978692623123690
12596602 18 17775291556339710939
13140716 1 18339354292399899890
13402501 40 18186523207005046427
13533116 47 17846781776006710338
13583140 156 16661181737691890204
13836976 161 18408890658703617188
13862211 1 18339358544824172270
14341114 176 18411704270615756277
14341114 328 17917996070770230915
14386348 63 17894916217738349105
15048467 5 13758351189395813976
16945 1 18340484479005727150
19141452 34 18261396693635475883
200 152 18272647939924000857
204376 136 18410854391166666822
20645477 70 18335981974268222898
21033648 29 18188753020454525157
21197605 99 18266467697018966491
21267235 1 18339645538849318838
21623969 137 18408329891137050531
22079108 93 18130500920173518417
22224240 67 18410852204864744011
23402539 116 17847056709510904469
23557571 272 17385724652174715149
23559900 14 17023748888396985970
335352 9 18412266160387352604
33824 294 18409166580351177250
350125 39 18266178529142950396
42630746 31 18343024375976576959
4340502 62 18343589559945968787
465052 167 17967533467162747986
5104073 3 18263636269186546049
542803 24 17275384304977451217
59755656 215 18334861593262564799
8272917 22 18271531905556725445
9999458 23 17967814981163448748

>  <PUBCHEM_SHAPE_MULTIPOLES>  (1) 
398.5
12.29
1.98
0.94
12.04
1.04
-0.13
-1.27
2.46
-2.16
-0.17
0.97
-0.18
0.45

>  <PUBCHEM_SHAPE_SELFOVERLAP>  (1) 
847.93

>  <PUBCHEM_SHAPE_VOLUME>  (1) 
221.6

>  <PUBCHEM_COORDINATE_TYPE>  (1) 
2
5
10

$$$$
