47635
     RDKit          3D

 25 28  0  0  0  0  0  0  0  0999 V2000
   -6.0204   -0.7561    0.1404 O   0  0  0  0  0  0  0  0  0  0  0  0
   -3.6521    2.4913    0.7443 O   0  0  0  0  0  0  0  0  0  0  0  0
   -1.4735    2.4184    0.4857 O   0  0  0  0  0  0  0  0  0  0  0  0
   -0.2565    0.2597   -0.2214 N   0  0  0  0  0  0  0  0  0  0  0  0
    2.4031    1.1578   -0.1655 N   0  0  0  0  0  0  0  0  0  0  0  0
   -2.6008    1.8627    0.4614 N   0  0  0  0  0  0  0  0  0  0  0  0
   -5.1552    0.3081    0.3280 N   0  0  0  0  0  0  0  0  0  0  0  0
   -5.3491   -1.9061   -0.2383 N   0  0  0  0  0  0  0  0  0  0  0  0
    0.5281    0.2802   -1.4663 C   0  0  0  0  0  0  0  0  0  0  0  0
    0.5092    0.1979    1.0367 C   0  0  0  0  0  0  0  0  0  0  0  0
    1.6201    1.3488   -1.3867 C   0  0  0  0  0  0  0  0  0  0  0  0
    1.6035    1.2710    1.0573 C   0  0  0  0  0  0  0  0  0  0  0  0
   -1.5422   -0.2947   -0.2282 C   0  0  0  0  0  0  0  0  0  0  0  0
    3.6299    0.5034   -0.1596 C   0  0  0  0  0  0  0  0  0  0  0  0
   -2.6887    0.4954    0.1073 C   0  0  0  0  0  0  0  0  0  0  0  0
   -1.7086   -1.6852   -0.5789 C   0  0  0  0  0  0  0  0  0  0  0  0
    3.8914   -0.5637    0.7317 C   0  0  0  0  0  0  0  0  0  0  0  0
    4.6685    0.8782   -1.0442 C   0  0  0  0  0  0  0  0  0  0  0  0
   -3.9301   -0.1655    0.0679 C   0  0  0  0  0  0  0  0  0  0  0  0
   -2.9393   -2.3653   -0.6245 C   0  0  0  0  0  0  0  0  0  0  0  0
    5.1227   -1.2193    0.7382 C   0  0  0  0  0  0  0  0  0  0  0  0
   -4.0535   -1.5729   -0.2920 C   0  0  0  0  0  0  0  0  0  0  0  0
    5.9000    0.2227   -1.0375 C   0  0  0  0  0  0  0  0  0  0  0  0
    6.1272   -0.8259   -0.1461 C   0  0  0  0  0  0  0  0  0  0  0  0
    5.3664   -2.3408    1.6903 C   0  0  0  0  0  0  0  0  0  0  0  0
  1  7  1  0
  1  8  1  0
  2  6  1  0
  3  6  2  0
  4  9  1  0
  4 10  1  0
  4 13  1  0
  5 11  1  0
  5 12  1  0
  5 14  1  0
  6 15  1  0
  7 19  2  0
  8 22  2  0
  9 11  1  0
 10 12  1  0
 13 15  2  0
 13 16  1  0
 14 17  2  0
 14 18  1  0
 15 19  1  0
 16 20  2  0
 17 21  1  0
 18 23  2  0
 19 22  1  0
 20 22  1  0
 21 24  2  0
 21 25  1  0
 23 24  1  0
M  CHG  2   2  -1   6   1
M  END
>  <PUBCHEM_COMPOUND_CID>  (1) 
47635

>  <PUBCHEM_CONFORMER_RMSD>  (1) 
0.8

>  <PUBCHEM_CONFORMER_DIVERSEORDER>  (1) 
1
15
9
12
14
6
11
13
10
3
8
16
5
4
7
2

>  <PUBCHEM_MMFF94_PARTIAL_CHARGES>  (1) 
31
1 0.24
10 0.37
11 0.37
12 0.37
13 0.1
14 0.1
15 0.13
16 -0.15
17 -0.15
18 -0.15
19 0.29
2 -0.52
20 -0.15
21 -0.14
22 0.29
23 -0.15
24 -0.15
25 0.14
3 -0.52
34 0.15
35 0.15
36 0.15
37 0.15
38 0.15
39 0.15
4 -0.84
5 -0.84
6 0.91
7 -0.41
8 -0.41
9 0.37

>  <PUBCHEM_EFFECTIVE_ROTOR_COUNT>  (1) 
4.2

>  <PUBCHEM_PHARMACOPHORE_FEATURES>  (1) 
11
1 2 acceptor
1 2 anion
1 3 acceptor
1 4 cation
1 5 cation
1 7 acceptor
1 8 acceptor
5 1 7 8 19 22 rings
6 13 15 16 19 20 22 rings
6 14 17 18 21 23 24 rings
6 4 5 9 10 11 12 rings

>  <PUBCHEM_HEAVY_ATOM_COUNT>  (1) 
25

>  <PUBCHEM_ATOM_DEF_STEREO_COUNT>  (1) 
0

>  <PUBCHEM_ATOM_UDEF_STEREO_COUNT>  (1) 
0

>  <PUBCHEM_BOND_DEF_STEREO_COUNT>  (1) 
0

>  <PUBCHEM_BOND_UDEF_STEREO_COUNT>  (1) 
0

>  <PUBCHEM_ISOTOPIC_ATOM_COUNT>  (1) 
0

>  <PUBCHEM_COMPONENT_COUNT>  (1) 
1

>  <PUBCHEM_CACTVS_TAUTO_COUNT>  (1) 
1

>  <PUBCHEM_CONFORMER_ID>  (1) 
0000BA1300000001

>  <PUBCHEM_MMFF94_ENERGY>  (1) 
112.0163

>  <PUBCHEM_FEATURE_SELFOVERLAP>  (1) 
56.085

>  <PUBCHEM_SHAPE_FINGERPRINT>  (1) 
10319926 262 18060131033687482873
10595046 47 18335142016325683340
11135609 187 17749391528965521916
11524674 6 16415481566862366671
11796584 16 18270969045745474230
12107183 9 17976257929084500720
12166972 35 18114183098740438277
12236239 1 18186523211073257733
12403259 415 15267345094094446104
12633257 1 17703240601783074401
12670546 56 18411136957033766360
12788726 201 18341902878643211256
12839892 36 18201998807037909742
12969540 114 15213298651359441952
13073987 5 18411415107848137096
13167823 11 18409167727481718790
13288520 33 18342460352529134517
13533116 47 18333448768307865754
13583140 156 17489293158347739800
13675066 3 17275099531713595348
13782708 43 17131265895908524703
13862211 1 18272086149944149983
13911987 19 15285651992809043238
14341114 176 18341896337292169296
14347332 77 18335132085786126165
14420673 8 18197218045019103046
15183329 4 18411702084123994279
15250474 111 18335975424591387354
15537594 2 18260546740892919526
16120349 21 18122059798389631642
17349148 13 18412266155032075807
17834072 33 18333452058289913124
17844677 252 18272093816139169488
17857418 61 18409727365851986962
1813 80 17604155826808379526
18927931 339 18201442497652021575
20281475 54 18261667100433712510
20645477 70 16877936123540624706
21033648 29 16128368238758153418
21065198 48 18407762525878114476
21267235 1 18339368569193146299
21641784 216 13551460428752222006
22182313 1 16916521254291237172
22950370 63 18187363221061716118
2297311 6 18202010944583488597
23402539 116 18273213119102482301
23522609 53 18193024614644203060
23557571 272 17703805694646049477
23559900 14 18270956976496878257
23569914 152 15653470375876795062
23569943 247 17386838405634873466
3004659 81 18410014338909037062
335352 9 18342739633426520541
34797466 226 17631743767935731316
350125 39 18411419497162041617
351380 3 18334290981251108602
4073 2 18043815509982543754
4214541 1 18413390921268239276
4340502 62 13901917742987053429
465052 167 18272375304090160518
5104073 3 17987803050305351195
559249 180 18337104562359583051
573450 72 18411980239407294808
57724786 102 14620502485305044738
59755656 215 18343304743047040903
7495541 125 17988645241488797176
86090 222 16199334065258156638
960060 61 17749111106429852470

>  <PUBCHEM_SHAPE_MULTIPOLES>  (1) 
471.98
14.68
2.3
1.2
4.48
0.2
0.02
6.22
-0.59
-1.12
-0.42
1.18
-0.01
-2.31

>  <PUBCHEM_SHAPE_SELFOVERLAP>  (1) 
1026.982

>  <PUBCHEM_SHAPE_VOLUME>  (1) 
257.4

>  <PUBCHEM_COORDINATE_TYPE>  (1) 
2
5
10

$$$$
