47649
     RDKit          3D

  9  9  0  0  0  0  0  0  0  0999 V2000
    1.3444   -0.0399    1.2764 S   0  0  0  0  0  0  0  0  0  0  0  0
    2.7379    0.7613   -0.0190 S   0  0  0  0  0  0  0  0  0  0  0  0
   -2.1620   -0.1109   -0.5183 O   0  0  0  0  0  0  0  0  0  0  0  0
   -1.0947   -0.7100    0.0718 C   0  0  0  0  0  0  0  0  0  0  0  0
   -0.1759    0.2301    0.4769 C   0  0  0  0  0  0  0  0  0  0  0  0
   -0.7131    1.4876    0.1122 C   0  0  0  0  0  0  0  0  0  0  0  0
   -1.1460   -2.1786    0.1478 C   0  0  0  0  0  0  0  0  0  0  0  0
   -1.9220    1.2264   -0.4896 C   0  0  0  0  0  0  0  0  0  0  0  0
    3.1314   -0.6661   -1.0582 C   0  0  0  0  0  0  0  0  0  0  0  0
  1  2  1  0
  1  5  1  0
  2  9  1  0
  3  4  1  0
  3  8  1  0
  4  5  2  0
  4  7  1  0
  5  6  1  0
  6  8  2  0
M  END
>  <PUBCHEM_COMPOUND_CID>  (1) 
47649

>  <PUBCHEM_CONFORMER_RMSD>  (1) 
0.4

>  <PUBCHEM_CONFORMER_DIVERSEORDER>  (1) 
1
27
24
4
14
26
10
25
23
19
9
13
3
22
2
8
17
7
21
5
6
20
12
16
15
11
18

>  <PUBCHEM_MMFF94_PARTIAL_CHARGES>  (1) 
11
1 -0.05
10 0.15
14 0.15
2 -0.23
3 -0.28
4 -0.04
5 0.05
6 -0.15
7 0.18
8 -0.01
9 0.23

>  <PUBCHEM_EFFECTIVE_ROTOR_COUNT>  (1) 
2

>  <PUBCHEM_PHARMACOPHORE_FEATURES>  (1) 
3
1 3 acceptor
1 9 hydrophobe
5 3 4 5 6 8 rings

>  <PUBCHEM_HEAVY_ATOM_COUNT>  (1) 
9

>  <PUBCHEM_ATOM_DEF_STEREO_COUNT>  (1) 
0

>  <PUBCHEM_ATOM_UDEF_STEREO_COUNT>  (1) 
0

>  <PUBCHEM_BOND_DEF_STEREO_COUNT>  (1) 
0

>  <PUBCHEM_BOND_UDEF_STEREO_COUNT>  (1) 
0

>  <PUBCHEM_ISOTOPIC_ATOM_COUNT>  (1) 
0

>  <PUBCHEM_COMPONENT_COUNT>  (1) 
1

>  <PUBCHEM_CACTVS_TAUTO_COUNT>  (1) 
1

>  <PUBCHEM_CONFORMER_ID>  (1) 
0000BA2100000001

>  <PUBCHEM_MMFF94_ENERGY>  (1) 
-2.3712

>  <PUBCHEM_FEATURE_SELFOVERLAP>  (1) 
15.223

>  <PUBCHEM_SHAPE_FINGERPRINT>  (1) 
12716758 59 18411135822987930744
12897270 3 18411421756362292636
15775835 57 17603585201632433164
20201158 50 17917997135858992510
20645464 45 17986648502623674736
20653085 51 18114195098583676580
20871998 22 17905328785816225643
21040471 1 18193533637045407849
21061003 4 17130713966777485376
23552423 10 17898001571571988360

>  <PUBCHEM_SHAPE_MULTIPOLES>  (1) 
187.05
4.01
1.74
1.04
3.1
0.58
-0.13
-0.02
1.32
-0.92
0.07
0.56
0.06
0.39

>  <PUBCHEM_SHAPE_SELFOVERLAP>  (1) 
349.333

>  <PUBCHEM_SHAPE_VOLUME>  (1) 
121.3

>  <PUBCHEM_COORDINATE_TYPE>  (1) 
2
5
10

$$$$
