47647
     RDKit          3D

 22 24  0  0  1  0  0  0  0  0999 V2000
    4.3484   -1.7704    0.3546 O   0  0  0  0  0  0  0  0  0  0  0  0
    5.0360    0.9201    0.2533 O   0  0  0  0  0  0  0  0  0  0  0  0
   -1.3508    0.4368   -0.2597 N   0  0  0  0  0  0  0  0  0  0  0  0
   -6.8037   -0.5802    0.7100 N   0  0  0  0  0  0  0  0  0  0  0  0
   -0.3997   -0.6967   -0.2861 C   0  0  0  0  0  0  0  0  0  0  0  0
   -0.9438    1.6687   -0.9369 C   0  0  0  0  0  0  0  0  0  0  0  0
    1.0467   -0.2403   -0.1437 C   0  0  0  0  0  0  0  0  0  0  0  0
    0.3499    2.1849   -0.3161 C   0  0  0  0  0  0  0  0  0  0  0  0
    1.4016    1.1184   -0.1934 C   0  0  0  0  0  0  0  0  0  0  0  0
   -0.5867   -1.4945   -1.5867 C   0  0  0  0  0  0  0  0  0  0  0  0
   -2.7047    0.1843   -0.0190 C   0  0  0  0  0  0  0  0  0  0  0  0
    2.0581   -1.1986    0.0461 C   0  0  0  0  0  0  0  0  0  0  0  0
    2.7463    1.4939   -0.0507 C   0  0  0  0  0  0  0  0  0  0  0  0
    3.3932   -0.8163    0.1754 C   0  0  0  0  0  0  0  0  0  0  0  0
    3.7376    0.5303    0.1254 C   0  0  0  0  0  0  0  0  0  0  0  0
   -3.7048    0.6812   -0.8822 C   0  0  0  0  0  0  0  0  0  0  0  0
   -3.1187   -0.5770    1.0953 C   0  0  0  0  0  0  0  0  0  0  0  0
   -5.0557    0.4290   -0.6422 C   0  0  0  0  0  0  0  0  0  0  0  0
   -4.4695   -0.8289    1.3356 C   0  0  0  0  0  0  0  0  0  0  0  0
   -5.4380   -0.3258    0.4668 C   0  0  0  0  0  0  0  0  0  0  0  0
    4.9537   -2.3097   -0.8188 C   0  0  0  0  0  0  0  0  0  0  0  0
    5.5048    1.1907    1.5729 C   0  0  0  0  0  0  0  0  0  0  0  0
  1 14  1  0
  1 21  1  0
  2 15  1  0
  2 22  1  0
  3  5  1  0
  3  6  1  0
  3 11  1  0
  4 20  1  0
  5  7  1  0
  5 10  1  0
  6  8  1  0
  7  9  2  0
  7 12  1  0
  8  9  1  0
  9 13  1  0
 11 16  2  0
 11 17  1  0
 12 14  2  0
 13 15  2  0
 14 15  1  0
 16 18  1  0
 17 19  2  0
 18 20  2  0
 19 20  1  0
M  END
>  <PUBCHEM_COMPOUND_CID>  (1) 
47647

>  <PUBCHEM_CONFORMER_RMSD>  (1) 
0.6

>  <PUBCHEM_CONFORMER_DIVERSEORDER>  (1) 
3
13
7
9
11
1
12
8
10
6
4
5
2

>  <PUBCHEM_MMFF94_PARTIAL_CHARGES>  (1) 
29
1 -0.36
11 0.1
12 -0.15
13 -0.15
14 0.08
15 0.08
16 -0.15
17 -0.15
18 -0.15
19 -0.15
2 -0.36
20 0.1
21 0.28
22 0.28
3 -0.84
31 0.15
32 0.15
33 0.15
34 0.15
35 0.15
36 0.15
4 -0.9
43 0.4
44 0.4
5 0.51
6 0.37
7 -0.14
8 0.14
9 -0.14

>  <PUBCHEM_EFFECTIVE_ROTOR_COUNT>  (1) 
3.8

>  <PUBCHEM_PHARMACOPHORE_FEATURES>  (1) 
8
1 1 acceptor
1 2 acceptor
1 3 cation
1 4 cation
1 4 donor
6 11 16 17 18 19 20 rings
6 3 5 6 7 8 9 rings
6 7 9 12 13 14 15 rings

>  <PUBCHEM_HEAVY_ATOM_COUNT>  (1) 
22

>  <PUBCHEM_ATOM_DEF_STEREO_COUNT>  (1) 
1

>  <PUBCHEM_ATOM_UDEF_STEREO_COUNT>  (1) 
0

>  <PUBCHEM_BOND_DEF_STEREO_COUNT>  (1) 
0

>  <PUBCHEM_BOND_UDEF_STEREO_COUNT>  (1) 
0

>  <PUBCHEM_ISOTOPIC_ATOM_COUNT>  (1) 
0

>  <PUBCHEM_COMPONENT_COUNT>  (1) 
1

>  <PUBCHEM_CACTVS_TAUTO_COUNT>  (1) 
1

>  <PUBCHEM_CONFORMER_ID>  (1) 
0000BA1F00000003

>  <PUBCHEM_MMFF94_ENERGY>  (1) 
106.2873

>  <PUBCHEM_FEATURE_SELFOVERLAP>  (1) 
40.622

>  <PUBCHEM_SHAPE_FINGERPRINT>  (1) 
10 15 18261382412927609648
106641 1 18200874097195236403
10912923 1 16845567625682620558
11045977 3 18187368731346702699
11796584 16 16950565514816347051
12236239 1 17561362881526260047
12507560 40 18408882914798545508
12516196 113 18407759252981198633
12596602 18 17346317141358867035
13140716 1 18124027103495221520
13533116 47 17846499206008615530
13540713 4 18194670485541650412
13675066 3 18335415777213978852
13685833 64 18187089455693817731
13955234 65 18131344199297214602
14252887 29 18411139130387113728
14341114 176 18408891732804052659
14386348 63 18113900468042698809
14790565 3 17469895836178121764
15081414 286 18413107269123184100
15196674 1 18337670819438075596
15788980 27 18407759231569490447
17844677 252 18342463594939454969
18785283 64 17897728892905175772
19141452 34 18343017826162188639
200 152 18343580742399144177
20028762 73 18201998846162659783
20261772 1 18343862225243168198
20645477 70 18410571752116987326
21033648 29 18200013102171058993
21130935 74 18342181059818420851
21267235 1 18339646642703451726
21279426 13 18116146684641648445
21637258 2 16009017423698893041
21682296 61 18128262181582844462
22182313 1 18264191553203462644
22224240 67 18272365420790066107
23184049 59 18343304768600222245
23402539 116 13334726925745928269
23559900 14 17822014202627432671
239999 70 18260269633982065730
26918003 58 17967530194598290697
3004659 81 17313109644079562590
345986 75 17844523314936237082
34797466 226 17168158848298795903
34934 24 18341884238806808644
3545911 37 18413106178279994964
4325135 7 16515687792769682388
4340502 62 17894907447251678738
465052 167 18411145722724479127
5104073 3 18339354146392397192
542803 24 16200432476915354449

>  <PUBCHEM_SHAPE_MULTIPOLES>  (1) 
431.05
13.52
1.94
1.16
6.3
0.08
0.09
2.51
4.3
-2.44
-0.38
0.28
0.12
1.45

>  <PUBCHEM_SHAPE_SELFOVERLAP>  (1) 
923.827

>  <PUBCHEM_SHAPE_VOLUME>  (1) 
239.7

>  <PUBCHEM_COORDINATE_TYPE>  (1) 
2
5
10

$$$$
