47646
     RDKit          3D

 18 19  0  0  1  0  0  0  0  0999 V2000
    3.2675   -1.6414    0.1104 O   0  0  0  0  0  0  0  0  0  0  0  0
    3.7691    1.0472   -0.3701 O   0  0  0  0  0  0  0  0  0  0  0  0
   -2.5659    0.1468   -0.2108 N   0  0  0  0  0  0  0  0  0  0  0  0
   -1.5696   -0.7881    0.3583 C   0  0  0  0  0  0  0  0  0  0  0  0
   -2.3612    1.5196    0.2580 C   0  0  0  0  0  0  0  0  0  0  0  0
   -0.1448   -0.2933    0.1426 C   0  0  0  0  0  0  0  0  0  0  0  0
   -3.9471   -0.2813   -0.0149 C   0  0  0  0  0  0  0  0  0  0  0  0
   -1.0172    2.0521   -0.2436 C   0  0  0  0  0  0  0  0  0  0  0  0
    0.1136    1.0684   -0.0954 C   0  0  0  0  0  0  0  0  0  0  0  0
   -1.7748   -1.1301    1.8459 C   0  0  0  0  0  0  0  0  0  0  0  0
    0.9309   -1.1935    0.2079 C   0  0  0  0  0  0  0  0  0  0  0  0
   -4.1278   -1.7200   -0.4911 C   0  0  0  0  0  0  0  0  0  0  0  0
   -4.8825    0.6645   -0.7616 C   0  0  0  0  0  0  0  0  0  0  0  0
    1.4349    1.5043   -0.2697 C   0  0  0  0  0  0  0  0  0  0  0  0
    2.2419   -0.7479    0.0407 C   0  0  0  0  0  0  0  0  0  0  0  0
    2.4938    0.6004   -0.1965 C   0  0  0  0  0  0  0  0  0  0  0  0
    3.6633   -2.2690   -1.1078 C   0  0  0  0  0  0  0  0  0  0  0  0
    4.4759    1.4612    0.7977 C   0  0  0  0  0  0  0  0  0  0  0  0
  1 15  1  0
  1 17  1  0
  2 16  1  0
  2 18  1  0
  3  4  1  0
  3  5  1  0
  3  7  1  0
  4  6  1  0
  4 10  1  0
  5  8  1  0
  6  9  2  0
  6 11  1  0
  7 12  1  0
  7 13  1  0
  8  9  1  0
  9 14  1  0
 11 15  2  0
 14 16  2  0
 15 16  1  0
M  END
>  <PUBCHEM_COMPOUND_CID>  (1) 
47646

>  <PUBCHEM_CONFORMER_RMSD>  (1) 
0.6

>  <PUBCHEM_CONFORMER_DIVERSEORDER>  (1) 
1
11
10
15
4
6
9
16
7
2
12
14
5
3
8
13

>  <PUBCHEM_MMFF94_PARTIAL_CHARGES>  (1) 
17
1 -0.36
11 -0.15
14 -0.15
15 0.08
16 0.08
17 0.28
18 0.28
2 -0.36
28 0.15
3 -0.81
35 0.15
4 0.41
5 0.27
6 -0.14
7 0.27
8 0.14
9 -0.14

>  <PUBCHEM_EFFECTIVE_ROTOR_COUNT>  (1) 
3.8

>  <PUBCHEM_PHARMACOPHORE_FEATURES>  (1) 
6
1 1 acceptor
1 2 acceptor
1 3 cation
3 7 12 13 hydrophobe
6 3 4 5 6 8 9 rings
6 6 9 11 14 15 16 rings

>  <PUBCHEM_HEAVY_ATOM_COUNT>  (1) 
18

>  <PUBCHEM_ATOM_DEF_STEREO_COUNT>  (1) 
0

>  <PUBCHEM_ATOM_UDEF_STEREO_COUNT>  (1) 
1

>  <PUBCHEM_BOND_DEF_STEREO_COUNT>  (1) 
0

>  <PUBCHEM_BOND_UDEF_STEREO_COUNT>  (1) 
0

>  <PUBCHEM_ISOTOPIC_ATOM_COUNT>  (1) 
0

>  <PUBCHEM_COMPONENT_COUNT>  (1) 
1

>  <PUBCHEM_CACTVS_TAUTO_COUNT>  (1) 
1

>  <PUBCHEM_CONFORMER_ID>  (1) 
0000BA1E00000001

>  <PUBCHEM_MMFF94_ENERGY>  (1) 
66.4004

>  <PUBCHEM_FEATURE_SELFOVERLAP>  (1) 
30.472

>  <PUBCHEM_SHAPE_FINGERPRINT>  (1) 
10366900 7 18340490066526590800
10906281 52 18115318889730427924
10967382 1 18409168848172796840
11132069 177 18334292071998579049
11401426 45 18336539503999348845
11471102 20 18408037403415689485
11680986 33 18334586749720348170
116883 192 18267587918223786444
11806522 49 18410290358575596781
12916754 54 18202006482091505319
13140716 1 18265897947825607152
13380535 76 18260547856998308626
13571099 22 18410859849584744862
13583140 156 14835276520465358106
14115302 16 17603880995703087015
14576447 43 18128245890935135247
15196674 1 18410009927507911189
15375358 24 18187926226427732200
15536298 74 18412545383978221572
16945 1 18265629847282045376
17349148 13 18187074092231893760
17834072 14 18334293184273549243
18186145 218 17821723919205677783
200 152 18201434809518162429
20279233 1 18187088381492999274
20645477 70 18413388709201982510
21267235 1 18338525144309996783
21501502 16 18339085882455403056
221490 88 18336553806013714627
2334 1 18336554850007038312
23402539 116 18187633747866277845
23402655 69 18409725154133701325
23557571 272 18115602572019414802
23558518 356 18262807246009208409
23559900 14 18409165494030055562
2748010 2 18335990779103965668
2871803 45 18261951856222144519
296302 2 18334856155617553801
3286 77 17417801803791541795
34934 24 18338227262505097582
4072396 5 18261656152261661376
5104073 3 18411139112969784065
57005193 9 18261384589610377776
59755656 215 18411138031207866990
633830 44 17967530164781361503
69090 78 18410851066624706727
7364860 26 18272089375443100278
81228 2 18187373081837830840
8809292 202 18187655660657572795
9709674 26 18335144210436715154

>  <PUBCHEM_SHAPE_MULTIPOLES>  (1) 
353.71
8.69
2.22
0.99
1.17
0.21
0.29
0.81
-1.38
-1.1
-0.27
0.14
0.31
0.84

>  <PUBCHEM_SHAPE_SELFOVERLAP>  (1) 
731.904

>  <PUBCHEM_SHAPE_VOLUME>  (1) 
205.9

>  <PUBCHEM_COORDINATE_TYPE>  (1) 
2
5
10

$$$$
