47658
     RDKit          3D

 16 15  0  0  1  0  0  0  0  0999 V2000
   -3.1120   -1.2201   -0.2067 S   0  0  0  0  0  0  0  0  0  0  0  0
   -4.2231   -0.8180    0.9156 O   0  0  0  0  0  0  0  0  0  0  0  0
   -1.9281    1.5249   -0.8028 O   0  0  0  0  0  0  0  0  0  0  0  0
   -2.8790   -2.6479   -0.1497 O   0  0  0  0  0  0  0  0  0  0  0  0
   -3.4281   -0.5420   -1.4465 O   0  0  0  0  0  0  0  0  0  0  0  0
   -2.1221    1.8167    1.4763 O   0  0  0  0  0  0  0  0  0  0  0  0
    0.8064   -0.1559    0.4719 C   0  0  0  0  0  0  0  0  0  0  0  0
   -0.4352   -0.7892   -0.1648 C   0  0  0  0  0  0  0  0  0  0  0  0
    2.1149   -0.5697   -0.2091 C   0  0  0  0  0  0  0  0  0  0  0  0
   -1.7313   -0.3934    0.5465 C   0  0  0  0  0  0  0  0  0  0  0  0
    3.3581    0.0417    0.4407 C   0  0  0  0  0  0  0  0  0  0  0  0
    4.6278   -0.3453   -0.3211 C   0  0  0  0  0  0  0  0  0  0  0  0
    5.8749    0.2372    0.3439 C   0  0  0  0  0  0  0  0  0  0  0  0
   -1.9589    1.1027    0.4954 C   0  0  0  0  0  0  0  0  0  0  0  0
    7.1411   -0.1731   -0.3909 C   0  0  0  0  0  0  0  0  0  0  0  0
   -2.1053    2.9314   -0.9985 C   0  0  0  0  0  0  0  0  0  0  0  0
  1  2  1  0
  1  4  2  0
  1  5  2  0
  1 10  1  0
  3 14  1  0
  3 16  1  0
  6 14  2  0
  7  8  1  0
  7  9  1  0
  8 10  1  0
  9 11  1  0
 10 14  1  0
 11 12  1  0
 12 13  1  0
 13 15  1  0
M  END
>  <PUBCHEM_COMPOUND_CID>  (1) 
47658

>  <PUBCHEM_CONFORMER_RMSD>  (1) 
0.8

>  <PUBCHEM_CONFORMER_DIVERSEORDER>  (1) 
2
156
163
212
206
162
203
180
3
31
215
57
173
32
213
192
49
219
112
51
226
202
43
128
41
139
65
82
71
223
25
201
107
88
90
178
221
208
101
105
217
136
116
187
94
5
153
152
79
169
214
121
143
125
39
126
199
174
98
120
77
185
119
111
147
97
46
34
191
113
171
118
225
144
55
149
54
207
117
103
127
195
40
188
66
37
13
17
211
134
81
200
166
50
8
170
186
62
122
23
157
21
150
84
190
175
56
123
12
53
30
142
100
67
168
161
29
76
7
189
73
183
115
91
197
129
47
172
95
218
204
11
196
141
16
159
20
155
35
124
110
167
86
96
18
78
177
6
193
9
72
80
145
135
93
4
131
184
44
85
33
165
222
151
10
209
28
15
61
19
220
148
22
63
108
38
154
158
210
138
160
26
1
89
140
59
27
194
92
109
60
146
181
75
70
24
99
182
14
45
224
137
164
74
132
83
106
87
52
68
64
133
205
42
198
179
216
130
104
114
102
36
48
176
58
69

>  <PUBCHEM_MMFF94_PARTIAL_CHARGES>  (1) 
10
1 1.38
10 0.17
14 0.66
16 0.28
2 -0.68
3 -0.43
33 0.5
4 -0.65
5 -0.65
6 -0.57

>  <PUBCHEM_EFFECTIVE_ROTOR_COUNT>  (1) 
9

>  <PUBCHEM_PHARMACOPHORE_FEATURES>  (1) 
8
1 15 hydrophobe
1 2 acceptor
1 4 acceptor
1 5 acceptor
1 6 acceptor
3 11 12 13 hydrophobe
3 7 8 9 hydrophobe
4 1 2 4 5 anion

>  <PUBCHEM_HEAVY_ATOM_COUNT>  (1) 
16

>  <PUBCHEM_ATOM_DEF_STEREO_COUNT>  (1) 
0

>  <PUBCHEM_ATOM_UDEF_STEREO_COUNT>  (1) 
1

>  <PUBCHEM_BOND_DEF_STEREO_COUNT>  (1) 
0

>  <PUBCHEM_BOND_UDEF_STEREO_COUNT>  (1) 
0

>  <PUBCHEM_ISOTOPIC_ATOM_COUNT>  (1) 
0

>  <PUBCHEM_COMPONENT_COUNT>  (1) 
1

>  <PUBCHEM_CACTVS_TAUTO_COUNT>  (1) 
1

>  <PUBCHEM_CONFORMER_ID>  (1) 
0000BA2A00000002

>  <PUBCHEM_MMFF94_ENERGY>  (1) 
12.4948

>  <PUBCHEM_FEATURE_SELFOVERLAP>  (1) 
40.663

>  <PUBCHEM_SHAPE_FINGERPRINT>  (1) 
10680689 15 18335144176651762442
10912923 1 18113898256925773882
11315181 36 16732986436087876748
12091667 2 17894635838569012730
13288520 33 18060420248306309399
17093844 174 11386368167100696612
17834072 33 18260268594736850870
18927931 339 18410017653991033694
19433438 28 18413103983768108312
19489759 90 18408601462093145914
1986462 14 18343586226924551658
20300324 65 18334293180221252852
20645477 56 18340489958677453032
20645477 70 17417541212038146558
21426921 1 18408884027221390356
2297311 6 18343309192738517618
2306618 200 18411982438304261889
23402539 116 18410853299807487622
23557571 272 18201443558213791012
23559900 14 18341039835198688512
3268164 11 18413383233318743884
4214541 1 18413390926074539290
531348 171 18263077722228723678

>  <PUBCHEM_SHAPE_MULTIPOLES>  (1) 
303.78
12.68
2.13
1.04
28.34
1.1
0.01
-1.65
-0.91
-3.73
-0.45
-0.83
0.31
0.15

>  <PUBCHEM_SHAPE_SELFOVERLAP>  (1) 
562.057

>  <PUBCHEM_SHAPE_VOLUME>  (1) 
191.3

>  <PUBCHEM_COORDINATE_TYPE>  (1) 
2
5
10

$$$$
