47651
     RDKit          3D

 17 18  0  0  0  0  0  0  0  0999 V2000
    0.5988    2.3977    0.1350 Cl  0  0  0  0  0  0  0  0  0  0  0  0
   -0.9610   -0.4937    2.5532 Cl  0  0  0  0  0  0  0  0  0  0  0  0
    3.7434    2.0450    0.1228 Cl  0  0  0  0  0  0  0  0  0  0  0  0
    4.9656   -0.8858   -0.1893 Cl  0  0  0  0  0  0  0  0  0  0  0  0
   -5.4577    0.1543   -0.3190 Cl  0  0  0  0  0  0  0  0  0  0  0  0
    0.4842   -0.2955   -0.1649 C   0  0  0  0  0  0  0  0  0  0  0  0
   -0.9626   -0.1900   -0.1671 C   0  0  0  0  0  0  0  0  0  0  0  0
    1.3140    0.8188   -0.0343 C   0  0  0  0  0  0  0  0  0  0  0  0
    1.0427   -1.5671   -0.3006 C   0  0  0  0  0  0  0  0  0  0  0  0
   -1.7079   -0.2670    1.0095 C   0  0  0  0  0  0  0  0  0  0  0  0
   -1.6074   -0.0066   -1.3903 C   0  0  0  0  0  0  0  0  0  0  0  0
    2.7000    0.6617   -0.0394 C   0  0  0  0  0  0  0  0  0  0  0  0
    2.4286   -1.7241   -0.3058 C   0  0  0  0  0  0  0  0  0  0  0  0
   -3.0979   -0.1606    0.9629 C   0  0  0  0  0  0  0  0  0  0  0  0
   -2.9975    0.0998   -1.4370 C   0  0  0  0  0  0  0  0  0  0  0  0
    3.2573   -0.6096   -0.1752 C   0  0  0  0  0  0  0  0  0  0  0  0
   -3.7427    0.0228   -0.2604 C   0  0  0  0  0  0  0  0  0  0  0  0
  1  8  1  0
  2 10  1  0
  3 12  1  0
  4 16  1  0
  5 17  1  0
  6  7  1  0
  6  8  2  0
  6  9  1  0
  7 10  2  0
  7 11  1  0
  8 12  1  0
  9 13  2  0
 10 14  1  0
 11 15  2  0
 12 16  2  0
 13 16  1  0
 14 17  2  0
 15 17  1  0
M  END
>  <PUBCHEM_COMPOUND_CID>  (1) 
47651

>  <PUBCHEM_CONFORMER_RMSD>  (1) 
0.6

>  <PUBCHEM_CONFORMER_DIVERSEORDER>  (1) 
1
2

>  <PUBCHEM_MMFF94_PARTIAL_CHARGES>  (1) 
20
1 -0.18
10 0.18
11 -0.15
12 0.18
13 -0.15
14 -0.15
15 -0.15
16 0.18
17 0.18
18 0.15
19 0.15
2 -0.18
20 0.15
21 0.15
22 0.15
3 -0.18
4 -0.18
5 -0.18
8 0.18
9 -0.15

>  <PUBCHEM_EFFECTIVE_ROTOR_COUNT>  (1) 
1

>  <PUBCHEM_PHARMACOPHORE_FEATURES>  (1) 
2
6 6 8 9 12 13 16 rings
6 7 10 11 14 15 17 rings

>  <PUBCHEM_HEAVY_ATOM_COUNT>  (1) 
17

>  <PUBCHEM_ATOM_DEF_STEREO_COUNT>  (1) 
0

>  <PUBCHEM_ATOM_UDEF_STEREO_COUNT>  (1) 
0

>  <PUBCHEM_BOND_DEF_STEREO_COUNT>  (1) 
0

>  <PUBCHEM_BOND_UDEF_STEREO_COUNT>  (1) 
0

>  <PUBCHEM_ISOTOPIC_ATOM_COUNT>  (1) 
0

>  <PUBCHEM_COMPONENT_COUNT>  (1) 
1

>  <PUBCHEM_CACTVS_TAUTO_COUNT>  (1) 
1

>  <PUBCHEM_CONFORMER_ID>  (1) 
0000BA2300000001

>  <PUBCHEM_MMFF94_ENERGY>  (1) 
48.8341

>  <PUBCHEM_FEATURE_SELFOVERLAP>  (1) 
10.149

>  <PUBCHEM_SHAPE_FINGERPRINT>  (1) 
10366900 7 18113626655435467034
11471102 20 18411418423309512940
12236239 1 17561363967667799687
124424 183 18040438780534344970
12500047 106 16732703856951474706
13140716 1 18340199817300842378
13538477 17 17131546236744441031
13581323 91 15502370136473396647
14115302 16 17418087754540899679
15219456 202 18114183072358392364
15375358 24 18040716999714829120
16945 1 18412547579133985718
1813 80 17772488802358545406
18186145 218 17749104469972085517
19049666 15 17822848667507286561
192875 21 17989489623685235480
200 152 18130785638029911335
20279233 1 17967538960304872787
20600515 1 16298947700883456029
20645476 183 17631728391635729279
20645477 70 18412825767996614982
21267235 1 18272377450993559702
21639500 275 18270111439317773060
23048698 100 18060422421248225992
23175994 123 18260836968532554996
23402539 116 18131064900924332983
23493267 7 17312822658876238264
23526113 38 17968378927153942914
23557571 272 17095521751508580855
23559900 14 17095528383624121202
23728640 28 15167988438594388939
2748010 2 18195536011503442406
474 4 18058444490436133968
5104073 3 18411699932466725011
69090 78 18186517722474591395
77492 1 17489591159963018551
8272917 22 18200881677818002999
9981440 41 16837662343627907848

>  <PUBCHEM_SHAPE_MULTIPOLES>  (1) 
359.2
8.76
1.72
1.41
2.31
0.81
-0.8
-0.13
1.43
-2.13
-0.02
1.2
-0.24
0.45

>  <PUBCHEM_SHAPE_SELFOVERLAP>  (1) 
734.618

>  <PUBCHEM_SHAPE_VOLUME>  (1) 
200.1

>  <PUBCHEM_COORDINATE_TYPE>  (1) 
2
5
10

$$$$
