47656
     RDKit          3D

 25 27  0  0  0  0  0  0  0  0999 V2000
    6.8754   -0.5970   -0.4650 S   0  0  0  0  0  0  0  0  0  0  0  0
    2.1646    0.5955    1.1194 O   0  0  0  0  0  0  0  0  0  0  0  0
    0.4484   -1.5207    1.0164 O   0  0  0  0  0  0  0  0  0  0  0  0
   -1.9478   -2.3414    0.5626 O   0  0  0  0  0  0  0  0  0  0  0  0
   -3.6045    2.6192   -0.5359 O   0  0  0  0  0  0  0  0  0  0  0  0
    7.6916   -0.1092   -1.7904 O   0  0  0  0  0  0  0  0  0  0  0  0
    6.4918   -1.9864   -0.6386 O   0  0  0  0  0  0  0  0  0  0  0  0
    7.5939   -0.1503    0.7149 O   0  0  0  0  0  0  0  0  0  0  0  0
   -1.3704   -0.0564    0.3754 C   0  0  0  0  0  0  0  0  0  0  0  0
   -1.8102    1.2372    0.0869 C   0  0  0  0  0  0  0  0  0  0  0  0
   -3.7155   -0.9497   -0.0549 C   0  0  0  0  0  0  0  0  0  0  0  0
   -4.1552    0.3438   -0.3438 C   0  0  0  0  0  0  0  0  0  0  0  0
    4.3685    0.0839    0.3259 C   0  0  0  0  0  0  0  0  0  0  0  0
   -0.0328   -0.2776    0.7243 C   0  0  0  0  0  0  0  0  0  0  0  0
   -2.3071   -1.1971    0.3153 C   0  0  0  0  0  0  0  0  0  0  0  0
    0.8588    0.7940    0.7832 C   0  0  0  0  0  0  0  0  0  0  0  0
   -3.2186    1.4846   -0.2837 C   0  0  0  0  0  0  0  0  0  0  0  0
    3.1457    0.9725    0.1557 C   0  0  0  0  0  0  0  0  0  0  0  0
    5.4516    0.4220   -0.6836 C   0  0  0  0  0  0  0  0  0  0  0  0
   -0.9124    2.3098    0.1476 C   0  0  0  0  0  0  0  0  0  0  0  0
    0.4198    2.0849    0.4957 C   0  0  0  0  0  0  0  0  0  0  0  0
   -4.6134   -2.0223   -0.1155 C   0  0  0  0  0  0  0  0  0  0  0  0
   -5.4927    0.5650   -0.6937 C   0  0  0  0  0  0  0  0  0  0  0  0
   -5.9453   -1.7976   -0.4647 C   0  0  0  0  0  0  0  0  0  0  0  0
   -6.3840   -0.5068   -0.7534 C   0  0  0  0  0  0  0  0  0  0  0  0
  1  6  1  0
  1  7  2  0
  1  8  2  0
  1 19  1  0
  2 16  1  0
  2 18  1  0
  3 14  1  0
  4 15  2  0
  5 17  2  0
  9 10  1  0
  9 14  2  0
  9 15  1  0
 10 17  1  0
 10 20  2  0
 11 12  2  0
 11 15  1  0
 11 22  1  0
 12 17  1  0
 12 23  1  0
 13 18  1  0
 13 19  1  0
 14 16  1  0
 16 21  2  0
 20 21  1  0
 22 24  2  0
 23 25  2  0
 24 25  1  0
M  END
>  <PUBCHEM_COMPOUND_CID>  (1) 
47656

>  <PUBCHEM_CONFORMER_RMSD>  (1) 
0.8

>  <PUBCHEM_CONFORMER_DIVERSEORDER>  (1) 
1
8
35
4
10
3
26
27
22
20
15
29
6
24
30
19
17
28
14
7
2
12
31
21
13
25
34
18
33
9
23
11
5
32
16

>  <PUBCHEM_MMFF94_PARTIAL_CHARGES>  (1) 
32
1 1.38
10 0.09
11 0.09
12 0.09
14 0.08
15 0.4
16 0.08
17 0.4
18 0.28
19 0.11
2 -0.36
20 -0.15
21 -0.15
22 -0.15
23 -0.15
24 -0.15
25 -0.15
3 -0.53
32 0.15
33 0.15
34 0.15
35 0.15
36 0.15
37 0.15
38 0.45
39 0.5
4 -0.57
5 -0.57
6 -0.68
7 -0.65
8 -0.65
9 0.09

>  <PUBCHEM_EFFECTIVE_ROTOR_COUNT>  (1) 
5

>  <PUBCHEM_PHARMACOPHORE_FEATURES>  (1) 
11
1 2 acceptor
1 3 donor
1 4 acceptor
1 5 acceptor
1 6 acceptor
1 7 acceptor
1 8 acceptor
4 1 6 7 8 anion
6 11 12 22 23 24 25 rings
6 9 10 11 12 15 17 rings
6 9 10 14 16 20 21 rings

>  <PUBCHEM_HEAVY_ATOM_COUNT>  (1) 
25

>  <PUBCHEM_ATOM_DEF_STEREO_COUNT>  (1) 
0

>  <PUBCHEM_ATOM_UDEF_STEREO_COUNT>  (1) 
0

>  <PUBCHEM_BOND_DEF_STEREO_COUNT>  (1) 
0

>  <PUBCHEM_BOND_UDEF_STEREO_COUNT>  (1) 
0

>  <PUBCHEM_ISOTOPIC_ATOM_COUNT>  (1) 
0

>  <PUBCHEM_COMPONENT_COUNT>  (1) 
1

>  <PUBCHEM_CACTVS_TAUTO_COUNT>  (1) 
5

>  <PUBCHEM_CONFORMER_ID>  (1) 
0000BA2800000001

>  <PUBCHEM_MMFF94_ENERGY>  (1) 
70.8274

>  <PUBCHEM_FEATURE_SELFOVERLAP>  (1) 
55.919

>  <PUBCHEM_SHAPE_FINGERPRINT>  (1) 
106641 1 10231752310263508453
10670039 82 18186795859639247045
11315181 36 18131354128275087944
11524674 6 16487254395862571215
11578080 2 17025413528022221847
12011746 2 18336537296718214805
12236239 1 17458337541932981905
12516196 113 17917711310280871032
12760667 363 18131354119753406601
12954195 1 18341612590626035785
13288520 33 18341893004761453481
13402501 40 18272934925206751886
13668630 136 17489592268507855374
13685833 64 17418094330230671232
13782708 43 17774998024672466198
14251752 14 18260828198515057598
14251764 18 11024105451787992868
14347332 77 18337668621042151752
14790565 3 17261601673489605161
14931854 50 18188477048021503951
15183329 4 18259988163326416694
15196674 1 18192139603079491945
15510800 12 17488755459135267926
16087824 20 18337387125335442573
1813 80 14835856121943877928
18603816 31 16630232706517227647
18681886 176 18336258033433734792
19958102 18 18186798050721427478
2026 5 17846500309567837510
20281389 69 8935004767843428532
21150785 3 17748827423581261316
21267235 1 18336264648179054219
21279426 13 18337660997407051741
21623969 137 17060342912007506508
21637258 2 16917064477374984004
2297311 6 18411418427762807137
23198884 109 17167581592025348428
23522609 53 18055104109307256640
23559900 14 18268141131502834625
25147074 1 17968930873580292424
2838139 119 15647053750617794540
3004659 81 18260826025398989784
335352 9 18409440385507885957
437815 12 17988925591078386464
58902169 19 17167864192858926462
59682541 35 9295286184229570685
59755656 215 18409446977607821978
59755656 520 16298386872474918314
6138700 20 18411698790105734735
86090 222 16701479921962608974

>  <PUBCHEM_SHAPE_MULTIPOLES>  (1) 
477.25
18.9
2.3
0.98
33
0.25
-0.12
-8.11
-7.53
-2.11
0.02
0.92
-0.06
0.65

>  <PUBCHEM_SHAPE_SELFOVERLAP>  (1) 
1034.724

>  <PUBCHEM_SHAPE_VOLUME>  (1) 
261.8

>  <PUBCHEM_COORDINATE_TYPE>  (1) 
2
5
10

$$$$
