47660
     RDKit          3D

 24 23  0  0  1  0  0  0  0  0999 V2000
    3.2018    3.4116    0.1986 S   0  0  0  0  0  0  0  0  0  0  0  0
    2.6691   -0.3603    0.3132 O   0  0  0  0  0  0  0  0  0  0  0  0
    2.3872    4.2973    1.2981 O   0  0  0  0  0  0  0  0  0  0  0  0
    3.5890    0.8908   -1.3908 O   0  0  0  0  0  0  0  0  0  0  0  0
    3.0098    3.9968   -1.1128 O   0  0  0  0  0  0  0  0  0  0  0  0
    4.5212    3.1147    0.7191 O   0  0  0  0  0  0  0  0  0  0  0  0
    3.6054   -3.9408    0.1106 N   0  0  0  0  0  0  0  0  0  0  0  0
   -0.2345    1.2100    0.2896 C   0  0  0  0  0  0  0  0  0  0  0  0
   -1.6203    1.4999   -0.2916 C   0  0  0  0  0  0  0  0  0  0  0  0
    0.8201    2.1561   -0.2928 C   0  0  0  0  0  0  0  0  0  0  0  0
   -2.6698    0.5370    0.2662 C   0  0  0  0  0  0  0  0  0  0  0  0
    2.9332   -2.7306    0.6470 C   0  0  0  0  0  0  0  0  0  0  0  0
    2.2093    1.9463    0.3150 C   0  0  0  0  0  0  0  0  0  0  0  0
   -4.0493    0.8047   -0.3402 C   0  0  0  0  0  0  0  0  0  0  0  0
   -5.1033   -0.1380    0.2446 C   0  0  0  0  0  0  0  0  0  0  0  0
    3.2846   -1.5374   -0.2195 C   0  0  0  0  0  0  0  0  0  0  0  0
   -6.4997    0.0653   -0.3503 C   0  0  0  0  0  0  0  0  0  0  0  0
    3.2976   -5.1662    0.9818 C   0  0  0  0  0  0  0  0  0  0  0  0
    5.1277   -3.7484    0.0775 C   0  0  0  0  0  0  0  0  0  0  0  0
    3.1306   -4.2393   -1.3180 C   0  0  0  0  0  0  0  0  0  0  0  0
    2.9075    0.7940   -0.3789 C   0  0  0  0  0  0  0  0  0  0  0  0
   -7.5682   -0.8262    0.2863 C   0  0  0  0  0  0  0  0  0  0  0  0
   -8.9375   -0.5911   -0.3529 C   0  0  0  0  0  0  0  0  0  0  0  0
  -10.0116   -1.4463    0.3004 C   0  0  0  0  0  0  0  0  0  0  0  0
  1  3  1  0
  1  5  2  0
  1  6  2  0
  1 13  1  0
  2 16  1  0
  2 21  1  0
  4 21  2  0
  7 12  1  0
  7 18  1  0
  7 19  1  0
  7 20  1  0
  8  9  1  0
  8 10  1  0
  9 11  1  0
 10 13  1  0
 11 14  1  0
 12 16  1  0
 13 21  1  0
 14 15  1  0
 15 17  1  0
 17 22  1  0
 22 23  1  0
 23 24  1  0
M  CHG  1   7   1
M  END
>  <PUBCHEM_COMPOUND_CID>  (1) 
47660

>  <PUBCHEM_CONFORMER_RMSD>  (1) 
1.4

>  <PUBCHEM_CONFORMER_DIVERSEORDER>  (1) 
1
10
9
20
37
13
25
40
6
8
14
18
51
24
29
45
23
27
34
3
31
26
2
42
17
36
49
21
15
19
4
50
11
38
46
32
35
5
7
41
30
44
16
33
43
12
47
48
22
39
28

>  <PUBCHEM_MMFF94_PARTIAL_CHARGES>  (1) 
15
1 1.38
12 0.5
13 0.17
16 0.28
18 0.5
19 0.5
2 -0.43
20 0.5
21 0.66
3 -0.68
4 -0.57
5 -0.65
6 -0.65
60 0.5
7 -1.01

>  <PUBCHEM_EFFECTIVE_ROTOR_COUNT>  (1) 
15

>  <PUBCHEM_PHARMACOPHORE_FEATURES>  (1) 
7
1 24 hydrophobe
1 3 acceptor
1 4 acceptor
1 5 acceptor
1 6 acceptor
1 7 cation
4 1 3 5 6 anion

>  <PUBCHEM_HEAVY_ATOM_COUNT>  (1) 
24

>  <PUBCHEM_ATOM_DEF_STEREO_COUNT>  (1) 
0

>  <PUBCHEM_ATOM_UDEF_STEREO_COUNT>  (1) 
1

>  <PUBCHEM_BOND_DEF_STEREO_COUNT>  (1) 
0

>  <PUBCHEM_BOND_UDEF_STEREO_COUNT>  (1) 
0

>  <PUBCHEM_ISOTOPIC_ATOM_COUNT>  (1) 
0

>  <PUBCHEM_COMPONENT_COUNT>  (1) 
1

>  <PUBCHEM_CACTVS_TAUTO_COUNT>  (1) 
1

>  <PUBCHEM_CONFORMER_ID>  (1) 
0000BA2C00000001

>  <PUBCHEM_MMFF94_ENERGY>  (1) 
31.7245

>  <PUBCHEM_FEATURE_SELFOVERLAP>  (1) 
35.575

>  <PUBCHEM_SHAPE_FINGERPRINT>  (1) 
10319688 140 18409730659738234698
10411042 1 18194682566910237402
11607047 191 17486192703500098040
12107183 9 17982742870309369497
13073987 5 18413951685859195801
13533116 47 18411700998209340513
13955234 65 18341607152807198624
13989917 61 18410294718580312859
15328684 2 17274838922274059355
17492 89 18339077078031233873
17859628 70 18411135827272523820
19427546 62 18050567649180353592
20165401 70 18413385450366718943
21049683 271 18335988576171021012
21130935 74 18410858790067804963
21344244 78 18201145564850921936
21360442 33 18334854988030560347
23523787 8 17829649306535243926
23523788 1 17976506487764964290
3421961 26 18339357470728647688
34797466 226 16877665690993404117
4073 2 18193840573268653097
5309563 4 18195246603147551718
6025842 7 18409450331597374716
6441014 3 17688868636273954339
70251023 43 18336265643799408785
9831232 110 18335416812813099047

>  <PUBCHEM_SHAPE_MULTIPOLES>  (1) 
463.43
21.59
6.94
0.97
80.49
3.97
-0.1
15.69
0.3
-19.01
0.88
-0.85
0.05
0.32

>  <PUBCHEM_SHAPE_SELFOVERLAP>  (1) 
858.654

>  <PUBCHEM_SHAPE_VOLUME>  (1) 
293.3

>  <PUBCHEM_COORDINATE_TYPE>  (1) 
2
5
10

$$$$
