47666
     RDKit          3D

 22 23  0  0  0  0  0  0  0  0999 V2000
    5.1826    2.5938    0.7392 O   0  0  0  0  0  0  0  0  0  0  0  0
    6.0759    1.5073   -1.0464 O   0  0  0  0  0  0  0  0  0  0  0  0
   -1.0914   -2.5430    0.0007 N   0  0  0  0  0  0  0  0  0  0  0  0
   -0.0178   -1.7107   -0.1171 N   0  0  0  0  0  0  0  0  0  0  0  0
    0.9709   -2.0739    0.5526 N   0  0  0  0  0  0  0  0  0  0  0  0
   -5.3228    3.6957    0.4534 N   0  0  0  0  0  0  0  0  0  0  0  0
   -2.1952   -2.2671   -0.9205 C   0  0  0  0  0  0  0  0  0  0  0  0
   -2.8737   -0.9729   -0.6228 C   0  0  0  0  0  0  0  0  0  0  0  0
   -2.4288    0.2034   -1.2262 C   0  0  0  0  0  0  0  0  0  0  0  0
   -3.9536   -0.9388    0.2594 C   0  0  0  0  0  0  0  0  0  0  0  0
   -1.3746   -3.3162    1.1889 C   0  0  0  0  0  0  0  0  0  0  0  0
   -3.0638    1.4136   -0.9476 C   0  0  0  0  0  0  0  0  0  0  0  0
   -4.5887    0.2715    0.5380 C   0  0  0  0  0  0  0  0  0  0  0  0
   -4.1438    1.4477   -0.0655 C   0  0  0  0  0  0  0  0  0  0  0  0
    2.0253   -1.1634    0.3721 C   0  0  0  0  0  0  0  0  0  0  0  0
    4.1154    0.6396    0.0154 C   0  0  0  0  0  0  0  0  0  0  0  0
    2.9421   -1.3630   -0.6555 C   0  0  0  0  0  0  0  0  0  0  0  0
    2.1463   -0.0688    1.2228 C   0  0  0  0  0  0  0  0  0  0  0  0
    3.9895   -0.4593   -0.8344 C   0  0  0  0  0  0  0  0  0  0  0  0
    3.1937    0.8348    1.0440 C   0  0  0  0  0  0  0  0  0  0  0  0
    5.2068    1.5822   -0.1713 C   0  0  0  0  0  0  0  0  0  0  0  0
   -4.7941    2.6876    0.2207 C   0  0  0  0  0  0  0  0  0  0  0  0
  1 21  1  0
  2 21  2  0
  3  4  1  0
  3  7  1  0
  3 11  1  0
  4  5  2  0
  5 15  1  0
  6 22  3  0
  7  8  1  0
  8  9  2  0
  8 10  1  0
  9 12  1  0
 10 13  2  0
 12 14  2  0
 13 14  1  0
 14 22  1  0
 15 17  2  0
 15 18  1  0
 16 19  2  0
 16 20  1  0
 16 21  1  0
 17 19  1  0
 18 20  2  0
M  END
>  <PUBCHEM_COMPOUND_CID>  (1) 
47666

>  <PUBCHEM_CONFORMER_RMSD>  (1) 
0.8

>  <PUBCHEM_CONFORMER_DIVERSEORDER>  (1) 
1
24
3
18
11
2
12
19
8
10
15
6
5
14
23
17
4
21
20
13
9
16
22
25
26
7

>  <PUBCHEM_MMFF94_PARTIAL_CHARGES>  (1) 
31
1 -0.65
10 -0.15
11 0.3
12 -0.15
13 -0.15
14 0.07
15 0.18
16 0.09
17 -0.15
18 -0.15
19 -0.15
2 -0.57
20 -0.15
21 0.63
22 0.48
25 0.15
26 0.15
3 -0.54
30 0.15
31 0.15
32 0.15
33 0.15
34 0.15
35 0.15
36 0.5
4 -0.06
5 -0.18
6 -0.56
7 0.44
8 -0.14
9 -0.15

>  <PUBCHEM_EFFECTIVE_ROTOR_COUNT>  (1) 
5

>  <PUBCHEM_PHARMACOPHORE_FEATURES>  (1) 
6
1 1 acceptor
1 2 acceptor
1 6 acceptor
3 1 2 21 anion
6 15 16 17 18 19 20 rings
6 8 9 10 12 13 14 rings

>  <PUBCHEM_HEAVY_ATOM_COUNT>  (1) 
22

>  <PUBCHEM_ATOM_DEF_STEREO_COUNT>  (1) 
0

>  <PUBCHEM_ATOM_UDEF_STEREO_COUNT>  (1) 
0

>  <PUBCHEM_BOND_DEF_STEREO_COUNT>  (1) 
0

>  <PUBCHEM_BOND_UDEF_STEREO_COUNT>  (1) 
0

>  <PUBCHEM_ISOTOPIC_ATOM_COUNT>  (1) 
0

>  <PUBCHEM_COMPONENT_COUNT>  (1) 
1

>  <PUBCHEM_CACTVS_TAUTO_COUNT>  (1) 
1

>  <PUBCHEM_CONFORMER_ID>  (1) 
0000BA3200000001

>  <PUBCHEM_MMFF94_ENERGY>  (1) 
60.5634

>  <PUBCHEM_FEATURE_SELFOVERLAP>  (1) 
30.504

>  <PUBCHEM_SHAPE_FINGERPRINT>  (1) 
10493431 412 18408042892737380165
10498660 4 18336819823313261517
10670039 82 18336261336226545268
11720765 8 17700419079459645454
12107183 9 18189599580711287162
12363563 72 9943514258878975671
12390115 104 18411991247445443189
12596602 18 16805597131207520106
13885169 86 18410302397570095633
13944108 23 17478895983043749993
14142895 15 18124871263193208733
14251764 38 18122340457085380400
14251764 75 18270404859063186785
14341114 328 16515699835372468999
14347329 18 18339640157118140864
14790565 3 18268713818484842769
14848178 5 8790878567060027441
14848178 96 18268140968694464513
15142526 21 18190464861996774819
15342168 16 18196648498274730141
16992828 155 15683594125413441960
1768 23 17604449486755521924
17834072 32 18410573946829178381
17857418 61 10735892659649064212
17959699 21 18413109476661975594
20238998 120 17833551580851508051
20843269 155 9727636077241554916
21365058 113 17049657617512509031
21388113 180 17973151838822728893
21864079 5 18339353089751177483
221357 26 17987231308084492727
22182937 141 18409168843994121099
23559900 14 18272083847910738038
23569914 152 17413049599500683564
23845131 108 18115027386574728899
283562 15 18263073461785190115
2838139 119 18272082846976908836
312425 54 11819536131027961708
316301 35 9006796271615130852
3472631 163 18271805666798864989
44062 13 10592043553513607163
5104073 3 18113898230127673122
5252454 2 18337380552905675717
633830 44 18268985406367307887
636775 72 18196087979442662200
7064713 232 18260832591871294373
7288768 16 18113900455374315491
76465 3 9295281746705498423
7808743 9 18409445916307268642
7970288 3 9078815386672217397

>  <PUBCHEM_SHAPE_MULTIPOLES>  (1) 
421.09
13.45
3.7
1.13
6.79
0.41
0
13.65
-0.5
-3.35
0.77
0.23
-0.14
-0.15

>  <PUBCHEM_SHAPE_SELFOVERLAP>  (1) 
896.65

>  <PUBCHEM_SHAPE_VOLUME>  (1) 
232.6

>  <PUBCHEM_COORDINATE_TYPE>  (1) 
2
5
10

$$$$
