47667
     RDKit          3D

 21 22  0  0  0  0  0  0  0  0999 V2000
   -5.1952    2.2305   -0.8015 O   0  0  0  0  0  0  0  0  0  0  0  0
   -5.9626    1.1261    1.0310 O   0  0  0  0  0  0  0  0  0  0  0  0
    1.5884   -2.2138    0.0633 N   0  0  0  0  0  0  0  0  0  0  0  0
    0.4247   -1.4969    0.1560 N   0  0  0  0  0  0  0  0  0  0  0  0
   -0.5318   -1.9786   -0.4893 N   0  0  0  0  0  0  0  0  0  0  0  0
    2.6513   -1.8036    0.9585 C   0  0  0  0  0  0  0  0  0  0  0  0
    3.2014   -0.4505    0.5933 C   0  0  0  0  0  0  0  0  0  0  0  0
    2.6388    0.6888    1.1511 C   0  0  0  0  0  0  0  0  0  0  0  0
    4.2626   -0.3619   -0.2965 C   0  0  0  0  0  0  0  0  0  0  0  0
    4.2146    2.0440   -0.0806 C   0  0  0  0  0  0  0  0  0  0  0  0
    3.1481    1.9424    0.8125 C   0  0  0  0  0  0  0  0  0  0  0  0
    4.7718    0.8917   -0.6352 C   0  0  0  0  0  0  0  0  0  0  0  0
    1.9327   -2.9932   -1.1133 C   0  0  0  0  0  0  0  0  0  0  0  0
    4.7588    3.3843   -0.4431 C   0  0  0  0  0  0  0  0  0  0  0  0
   -1.6664   -1.1768   -0.3319 C   0  0  0  0  0  0  0  0  0  0  0  0
   -3.9311    0.4219   -0.0185 C   0  0  0  0  0  0  0  0  0  0  0  0
   -2.5570   -1.4261    0.7122 C   0  0  0  0  0  0  0  0  0  0  0  0
   -1.9082   -0.1283   -1.2195 C   0  0  0  0  0  0  0  0  0  0  0  0
   -3.6892   -0.6267    0.8690 C   0  0  0  0  0  0  0  0  0  0  0  0
   -3.0406    0.6710   -1.0628 C   0  0  0  0  0  0  0  0  0  0  0  0
   -5.1112    1.2558    0.1452 C   0  0  0  0  0  0  0  0  0  0  0  0
  1 21  1  0
  2 21  2  0
  3  4  1  0
  3  6  1  0
  3 13  1  0
  4  5  2  0
  5 15  1  0
  6  7  1  0
  7  8  2  0
  7  9  1  0
  8 11  1  0
  9 12  2  0
 10 11  2  0
 10 12  1  0
 10 14  1  0
 15 17  2  0
 15 18  1  0
 16 19  2  0
 16 20  1  0
 16 21  1  0
 17 19  1  0
 18 20  2  0
M  END
>  <PUBCHEM_COMPOUND_CID>  (1) 
47667

>  <PUBCHEM_CONFORMER_RMSD>  (1) 
0.8

>  <PUBCHEM_CONFORMER_DIVERSEORDER>  (1) 
1
16
6
8
22
2
7
19
25
27
20
11
17
18
12
15
5
23
24
21
4
3
10
13
14
9
26

>  <PUBCHEM_MMFF94_PARTIAL_CHARGES>  (1) 
30
1 -0.65
10 -0.14
11 -0.15
12 -0.15
13 0.3
14 0.14
15 0.18
16 0.09
17 -0.15
18 -0.15
19 -0.15
2 -0.57
20 -0.15
21 0.63
24 0.15
25 0.15
26 0.15
27 0.15
3 -0.54
34 0.15
35 0.15
36 0.15
37 0.15
38 0.5
4 -0.06
5 -0.18
6 0.44
7 -0.14
8 -0.15
9 -0.15

>  <PUBCHEM_EFFECTIVE_ROTOR_COUNT>  (1) 
5

>  <PUBCHEM_PHARMACOPHORE_FEATURES>  (1) 
5
1 1 acceptor
1 2 acceptor
3 1 2 21 anion
6 15 16 17 18 19 20 rings
6 7 8 9 10 11 12 rings

>  <PUBCHEM_HEAVY_ATOM_COUNT>  (1) 
21

>  <PUBCHEM_ATOM_DEF_STEREO_COUNT>  (1) 
0

>  <PUBCHEM_ATOM_UDEF_STEREO_COUNT>  (1) 
0

>  <PUBCHEM_BOND_DEF_STEREO_COUNT>  (1) 
0

>  <PUBCHEM_BOND_UDEF_STEREO_COUNT>  (1) 
0

>  <PUBCHEM_ISOTOPIC_ATOM_COUNT>  (1) 
0

>  <PUBCHEM_COMPONENT_COUNT>  (1) 
1

>  <PUBCHEM_CACTVS_TAUTO_COUNT>  (1) 
1

>  <PUBCHEM_CONFORMER_ID>  (1) 
0000BA3300000001

>  <PUBCHEM_MMFF94_ENERGY>  (1) 
61.9046

>  <PUBCHEM_FEATURE_SELFOVERLAP>  (1) 
25.429

>  <PUBCHEM_SHAPE_FINGERPRINT>  (1) 
10447042 23 8862939459722490392
10498660 4 18272651294071711864
10730089 43 18259982652271582981
11595378 159 15864344705870838317
11720765 8 18059588945392752484
12363563 72 9222964706894651546
12403259 118 18337657711514516570
12633257 1 18115571691315235586
12769317 202 18342170042641159290
12788726 201 17775293724576262889
13828863 39 18189057662553058220
13878862 14 18118378697435623325
13944108 23 18267871571097965500
1420 369 8070034380113729384
14251740 57 12396571902296239888
14251764 38 18194397780487660189
14251764 75 18339367486313287728
14341114 328 16371009662976768700
14528608 73 18271517667687547695
14774955 27 18410287017254428013
14848178 5 9655585088604260940
14848178 96 18412539907684078601
15142526 21 18114461270512583050
151778 21 18410852170547209974
15210252 30 18411418449306943424
15342168 16 18413669106505612799
16760501 71 18408329895505961713
17834072 32 18410291449507819950
17868525 174 17754720646734167570
20626108 58 10951779560128891206
21315764 119 12823302269536469649
21365058 113 17840325327875446678
21475661 188 18118674423282711085
21864079 5 18338508750794069030
23403322 49 9871476421600724139
23559900 14 18266741277239080011
245318 6 17751655474440877340
2637199 183 18337957891506051170
397830 11 18337127687687098515
474 4 18342453703893691891
5104073 3 18040994063770845962
56616090 278 18334575699028562586
57724786 102 18270690749075853641
633830 44 18412258471826408046
76465 3 9223239541561726818
7808743 9 18047751787416981400
7970288 3 9366806073610518992
960060 61 12319733700150790226

>  <PUBCHEM_SHAPE_MULTIPOLES>  (1) 
405.49
12.95
3.23
1.13
7.86
0.19
0.01
10.93
-0.47
-2.97
0.57
0.18
-0.08
0.15

>  <PUBCHEM_SHAPE_SELFOVERLAP>  (1) 
859.159

>  <PUBCHEM_SHAPE_VOLUME>  (1) 
228.2

>  <PUBCHEM_COORDINATE_TYPE>  (1) 
2
5
10

$$$$
