47665
     RDKit          3D

 23 24  0  0  0  0  0  0  0  0999 V2000
    4.3398    3.3999    0.3394 O   0  0  0  0  0  0  0  0  0  0  0  0
    5.6897    2.2763   -0.9776 O   0  0  0  0  0  0  0  0  0  0  0  0
   -6.1611    1.4815    1.1070 O   0  0  0  0  0  0  0  0  0  0  0  0
   -5.4672    2.7654   -0.6356 O   0  0  0  0  0  0  0  0  0  0  0  0
    0.7667   -2.6917    0.0443 N   0  0  0  0  0  0  0  0  0  0  0  0
   -0.2757   -1.8070    0.1305 N   0  0  0  0  0  0  0  0  0  0  0  0
    4.7102    2.3267   -0.1951 N   0  0  0  0  0  0  0  0  0  0  0  0
   -1.2779   -2.1222   -0.5473 N   0  0  0  0  0  0  0  0  0  0  0  0
    1.8572   -2.4692    0.9720 C   0  0  0  0  0  0  0  0  0  0  0  0
    2.6079   -1.2060    0.6641 C   0  0  0  0  0  0  0  0  0  0  0  0
    2.2090   -0.0096    1.2479 C   0  0  0  0  0  0  0  0  0  0  0  0
    3.6948   -1.2461   -0.2013 C   0  0  0  0  0  0  0  0  0  0  0  0
    3.9990    1.1323    0.0948 C   0  0  0  0  0  0  0  0  0  0  0  0
    2.9070    1.1638    0.9622 C   0  0  0  0  0  0  0  0  0  0  0  0
    4.3929   -0.0728   -0.4869 C   0  0  0  0  0  0  0  0  0  0  0  0
    1.0170   -3.4885   -1.1443 C   0  0  0  0  0  0  0  0  0  0  0  0
   -2.2805   -1.1593   -0.3934 C   0  0  0  0  0  0  0  0  0  0  0  0
   -4.2810    0.7611   -0.0882 C   0  0  0  0  0  0  0  0  0  0  0  0
   -2.3363   -0.0663   -1.2585 C   0  0  0  0  0  0  0  0  0  0  0  0
   -3.2253   -1.2921    0.6242 C   0  0  0  0  0  0  0  0  0  0  0  0
   -3.3364    0.8938   -1.1059 C   0  0  0  0  0  0  0  0  0  0  0  0
   -4.2255   -0.3319    0.7768 C   0  0  0  0  0  0  0  0  0  0  0  0
   -5.3241    1.7619    0.0707 C   0  0  0  0  0  0  0  0  0  0  0  0
  1  7  1  0
  2  7  2  0
  3 23  1  0
  4 23  2  0
  5  6  1  0
  5  9  1  0
  5 16  1  0
  6  8  2  0
  7 13  1  0
  8 17  1  0
  9 10  1  0
 10 11  2  0
 10 12  1  0
 11 14  1  0
 12 15  2  0
 13 14  2  0
 13 15  1  0
 17 19  2  0
 17 20  1  0
 18 21  2  0
 18 22  1  0
 18 23  1  0
 19 21  1  0
 20 22  2  0
M  CHG  2   1  -1   7   1
M  END
>  <PUBCHEM_COMPOUND_CID>  (1) 
47665

>  <PUBCHEM_CONFORMER_RMSD>  (1) 
0.8

>  <PUBCHEM_CONFORMER_DIVERSEORDER>  (1) 
1
20
26
5
25
4
24
21
17
27
2
18
10
22
15
19
14
13
9
11
3
16
6
23
12
7
8

>  <PUBCHEM_MMFF94_PARTIAL_CHARGES>  (1) 
32
1 -0.52
10 -0.14
11 -0.15
12 -0.15
13 0.13
14 -0.15
15 -0.15
16 0.3
17 0.18
18 0.09
19 -0.15
2 -0.52
20 -0.15
21 -0.15
22 -0.15
23 0.63
26 0.15
27 0.15
28 0.15
29 0.15
3 -0.65
33 0.15
34 0.15
35 0.15
36 0.15
37 0.5
4 -0.57
5 -0.54
6 -0.06
7 0.91
8 -0.18
9 0.44

>  <PUBCHEM_EFFECTIVE_ROTOR_COUNT>  (1) 
6

>  <PUBCHEM_PHARMACOPHORE_FEATURES>  (1) 
8
1 1 acceptor
1 1 anion
1 2 acceptor
1 3 acceptor
1 4 acceptor
3 3 4 23 anion
6 10 11 12 13 14 15 rings
6 17 18 19 20 21 22 rings

>  <PUBCHEM_HEAVY_ATOM_COUNT>  (1) 
23

>  <PUBCHEM_ATOM_DEF_STEREO_COUNT>  (1) 
0

>  <PUBCHEM_ATOM_UDEF_STEREO_COUNT>  (1) 
0

>  <PUBCHEM_BOND_DEF_STEREO_COUNT>  (1) 
0

>  <PUBCHEM_BOND_UDEF_STEREO_COUNT>  (1) 
0

>  <PUBCHEM_ISOTOPIC_ATOM_COUNT>  (1) 
0

>  <PUBCHEM_COMPONENT_COUNT>  (1) 
1

>  <PUBCHEM_CACTVS_TAUTO_COUNT>  (1) 
1

>  <PUBCHEM_CONFORMER_ID>  (1) 
0000BA3100000001

>  <PUBCHEM_MMFF94_ENERGY>  (1) 
71.4247

>  <PUBCHEM_FEATURE_SELFOVERLAP>  (1) 
40.737

>  <PUBCHEM_SHAPE_FINGERPRINT>  (1) 
10042902 136 9006239987440286992
10447042 23 8718535108393822314
10498660 4 18337101358509029070
11595378 159 15792292583869204279
11720765 8 17988090968323732470
11796584 16 11311511138384603134
12166972 35 11887956570539565216
12363563 72 9295015707936441930
12633257 1 18116134602651108347
12788726 201 17632302220388669793
13828863 39 18334297603868906061
13878862 14 18046039598524921277
13944108 23 18124035620162434612
14114211 80 18272661168228002697
14251740 57 12180123134073573488
14251764 38 18050846611933343065
14251764 75 18412548742521860545
14341114 328 16443070538179819750
14508693 111 15143248830120891619
14790565 3 18410294747900798108
14848178 5 9511466606203904566
14848178 96 18413100650108634385
15142526 21 18259703410709813883
151778 21 18411694361836060534
15342168 16 18341890754261959095
16760501 71 18408610241006454793
17834072 32 18410290332673930710
20626108 58 10663822962103704182
20843269 155 10375330889658512964
21315764 119 12391510855011367009
21365058 113 17624994737039957447
21388113 180 18189886540034232533
21864079 5 18410283744357830262
23559900 14 17843958140311705079
245318 6 17896896527921308669
3472631 163 18343301461770875255
397830 11 18265913380508012041
44062 13 10663833974626366979
474 4 18270956826705883123
5104073 3 18040431096563812834
5252454 2 18339349846713011942
56616090 278 18263362486644273418
57724786 102 18199193876093094569
633830 44 18413100663099427902
636775 72 17762337316722464120
7288768 16 17968093182916306778
76465 3 9367349236258554939
7808743 9 18264204901829592074

>  <PUBCHEM_SHAPE_MULTIPOLES>  (1) 
429.93
13.7
3.73
1.14
7.37
0.01
-0.01
-13.79
0.08
-2.84
-0.56
0.15
0.11
-0.16

>  <PUBCHEM_SHAPE_SELFOVERLAP>  (1) 
916.341

>  <PUBCHEM_SHAPE_VOLUME>  (1) 
239.9

>  <PUBCHEM_COORDINATE_TYPE>  (1) 
2
5
10

$$$$
