47679
     RDKit          3D

 18 19  0  0  0  0  0  0  0  0999 V2000
    2.0335    0.2380    0.1171 N   0  0  0  0  0  0  0  0  0  0  0  0
   -3.3944    0.2934   -0.0115 N   0  0  0  0  0  0  0  0  0  0  0  0
    3.0839   -0.6400   -0.0016 C   0  0  0  0  0  0  0  0  0  0  0  0
    0.8564   -0.4476    0.2421 C   0  0  0  0  0  0  0  0  0  0  0  0
    2.1741    1.6818    0.1677 C   0  0  0  0  0  0  0  0  0  0  0  0
    4.4876   -0.1672   -0.1803 C   0  0  0  0  0  0  0  0  0  0  0  0
    3.5342    2.1576   -0.3408 C   0  0  0  0  0  0  0  0  0  0  0  0
    4.6575    1.2956    0.2358 C   0  0  0  0  0  0  0  0  0  0  0  0
   -0.4490    0.2288    0.4016 C   0  0  0  0  0  0  0  0  0  0  0  0
    1.1523   -1.7928    0.1994 C   0  0  0  0  0  0  0  0  0  0  0  0
    2.5562   -1.9153    0.0459 C   0  0  0  0  0  0  0  0  0  0  0  0
   -1.1399    0.5069   -0.9495 C   0  0  0  0  0  0  0  0  0  0  0  0
   -2.5072    1.1654   -0.7723 C   0  0  0  0  0  0  0  0  0  0  0  0
    0.1901   -2.9083    0.2968 C   0  0  0  0  0  0  0  0  0  0  0  0
   -3.5809   -0.9828   -0.7041 C   0  0  0  0  0  0  0  0  0  0  0  0
   -4.6871    0.9427    0.2131 C   0  0  0  0  0  0  0  0  0  0  0  0
   -4.4504   -1.9268    0.1090 C   0  0  0  0  0  0  0  0  0  0  0  0
   -4.5170    2.2705    0.9316 C   0  0  0  0  0  0  0  0  0  0  0  0
  1  3  1  0
  1  4  1  0
  1  5  1  0
  2 13  1  0
  2 15  1  0
  2 16  1  0
  3  6  1  0
  3 11  2  0
  4  9  1  0
  4 10  2  0
  5  7  1  0
  6  8  1  0
  7  8  1  0
  9 12  1  0
 10 11  1  0
 10 14  1  0
 12 13  1  0
 15 17  1  0
 16 18  1  0
M  END
>  <PUBCHEM_COMPOUND_CID>  (1) 
47679

>  <PUBCHEM_CONFORMER_RMSD>  (1) 
0.8

>  <PUBCHEM_CONFORMER_DIVERSEORDER>  (1) 
5
15
31
26
46
49
29
25
18
39
40
28
22
47
32
43
20
33
19
21
37
13
38
41
34
9
48
24
27
30
23
35
16
10
36
44
7
1
14
17
12
11
3
4
45
42
2
8
6

>  <PUBCHEM_MMFF94_PARTIAL_CHARGES>  (1) 
14
1 0.05
10 -0.18
11 -0.15
13 0.27
14 0.18
15 0.27
16 0.27
2 -0.81
29 0.15
3 -0.33
4 -0.33
5 0.26
6 0.18
9 0.18

>  <PUBCHEM_EFFECTIVE_ROTOR_COUNT>  (1) 
6.8

>  <PUBCHEM_PHARMACOPHORE_FEATURES>  (1) 
4
1 1 cation
1 2 cation
5 1 3 4 10 11 rings
6 1 3 5 6 7 8 rings

>  <PUBCHEM_HEAVY_ATOM_COUNT>  (1) 
18

>  <PUBCHEM_ATOM_DEF_STEREO_COUNT>  (1) 
0

>  <PUBCHEM_ATOM_UDEF_STEREO_COUNT>  (1) 
0

>  <PUBCHEM_BOND_DEF_STEREO_COUNT>  (1) 
0

>  <PUBCHEM_BOND_UDEF_STEREO_COUNT>  (1) 
0

>  <PUBCHEM_ISOTOPIC_ATOM_COUNT>  (1) 
0

>  <PUBCHEM_COMPONENT_COUNT>  (1) 
1

>  <PUBCHEM_CACTVS_TAUTO_COUNT>  (1) 
1

>  <PUBCHEM_CONFORMER_ID>  (1) 
0000BA3F00000005

>  <PUBCHEM_MMFF94_ENERGY>  (1) 
14.613

>  <PUBCHEM_FEATURE_SELFOVERLAP>  (1) 
20.385

>  <PUBCHEM_SHAPE_FINGERPRINT>  (1) 
10616163 171 18413107260580624887
11405975 8 18338796710992068347
12107183 9 17765156064638665985
12236239 1 17846496998062973104
12633257 1 18191298287194031467
12644460 14 18114740435018369498
13760787 19 18273213080326314085
14341114 176 18340776953135538369
14445660 50 18412265000292560149
14787075 74 18268707397413146511
15196674 1 18410291419253320158
17834072 33 18342451543967929029
18186145 218 18410851036570413948
19050596 39 18409445860710077029
19422 9 18272366464878523687
20645477 70 18269830930829997727
21524375 3 18261950851447859882
21673915 165 18336827588904360887
21709351 56 18409442587771087092
221490 88 18408889507753167010
23402539 116 18342733031571189020
23402655 69 18343864415992922100
23558518 356 17683238437017624600
23559900 14 18270115691404260138
25 1 18411133641429406932
2871803 45 18334564772716086223
2916195 48 17916574479524329624
4214541 1 18412544289109941545
474 4 18335423473516071256
474229 33 18263640821814929859
4990 188 18059863869826599908
5104073 3 18408600348921182907
543358 83 18269560442142084216
58051976 378 18411412903960013639
6333272 397 18262513805638122214
633830 44 18342737394835839070
77779 3 18412826871924243173
8272917 22 18270123387826866431

>  <PUBCHEM_SHAPE_MULTIPOLES>  (1) 
360.47
10.42
2.76
0.81
4.85
0.79
-0.04
-3.83
0.57
0.31
0.35
0.43
-0.15
-0.6

>  <PUBCHEM_SHAPE_SELFOVERLAP>  (1) 
727.707

>  <PUBCHEM_SHAPE_VOLUME>  (1) 
212.6

>  <PUBCHEM_COORDINATE_TYPE>  (1) 
2
5
10

$$$$
