47677
     RDKit          3D

 14 15  0  0  0  0  0  0  0  0999 V2000
    0.8122    0.1895    0.2014 N   0  0  0  0  0  0  0  0  0  0  0  0
   -4.7006    1.2938   -0.8485 N   0  0  0  0  0  0  0  0  0  0  0  0
    1.8735   -0.5549   -0.2547 C   0  0  0  0  0  0  0  0  0  0  0  0
    0.8773    1.6068    0.5084 C   0  0  0  0  0  0  0  0  0  0  0  0
    3.1945    0.0660   -0.5635 C   0  0  0  0  0  0  0  0  0  0  0  0
   -0.2834   -0.6096    0.3799 C   0  0  0  0  0  0  0  0  0  0  0  0
    2.0971    2.2866   -0.1117 C   0  0  0  0  0  0  0  0  0  0  0  0
    3.3517    1.4378    0.0961 C   0  0  0  0  0  0  0  0  0  0  0  0
    0.0763   -1.8926    0.0288 C   0  0  0  0  0  0  0  0  0  0  0  0
   -1.5766   -0.0929    0.8777 C   0  0  0  0  0  0  0  0  0  0  0  0
    1.4358   -1.8595   -0.3714 C   0  0  0  0  0  0  0  0  0  0  0  0
   -2.5096    0.3636   -0.2631 C   0  0  0  0  0  0  0  0  0  0  0  0
   -0.7887   -3.0887    0.0621 C   0  0  0  0  0  0  0  0  0  0  0  0
   -3.8594    0.8541    0.2584 C   0  0  0  0  0  0  0  0  0  0  0  0
  1  3  1  0
  1  4  1  0
  1  6  1  0
  2 14  1  0
  3  5  1  0
  3 11  2  0
  4  7  1  0
  5  8  1  0
  6  9  2  0
  6 10  1  0
  7  8  1  0
  9 11  1  0
  9 13  1  0
 10 12  1  0
 12 14  1  0
M  END
>  <PUBCHEM_COMPOUND_CID>  (1) 
47677

>  <PUBCHEM_CONFORMER_RMSD>  (1) 
0.6

>  <PUBCHEM_CONFORMER_DIVERSEORDER>  (1) 
1
3
11
9
5
7
12
4
6
8
10
2

>  <PUBCHEM_MMFF94_PARTIAL_CHARGES>  (1) 
14
1 0.05
10 0.18
11 -0.15
13 0.18
14 0.27
2 -0.99
25 0.15
3 -0.33
33 0.36
34 0.36
4 0.26
5 0.18
6 -0.33
9 -0.18

>  <PUBCHEM_EFFECTIVE_ROTOR_COUNT>  (1) 
3.8

>  <PUBCHEM_PHARMACOPHORE_FEATURES>  (1) 
5
1 1 cation
1 2 cation
1 2 donor
5 1 3 6 9 11 rings
6 1 3 4 5 7 8 rings

>  <PUBCHEM_HEAVY_ATOM_COUNT>  (1) 
14

>  <PUBCHEM_ATOM_DEF_STEREO_COUNT>  (1) 
0

>  <PUBCHEM_ATOM_UDEF_STEREO_COUNT>  (1) 
0

>  <PUBCHEM_BOND_DEF_STEREO_COUNT>  (1) 
0

>  <PUBCHEM_BOND_UDEF_STEREO_COUNT>  (1) 
0

>  <PUBCHEM_ISOTOPIC_ATOM_COUNT>  (1) 
0

>  <PUBCHEM_COMPONENT_COUNT>  (1) 
1

>  <PUBCHEM_CACTVS_TAUTO_COUNT>  (1) 
1

>  <PUBCHEM_CONFORMER_ID>  (1) 
0000BA3D00000001

>  <PUBCHEM_MMFF94_ENERGY>  (1) 
4.5508

>  <PUBCHEM_FEATURE_SELFOVERLAP>  (1) 
25.459

>  <PUBCHEM_SHAPE_FINGERPRINT>  (1) 
1 1 18409168770763340735
10608611 8 18124598836398033928
10967382 1 18411705352794339232
11206711 2 17838065058354117334
11471102 20 18339360768925855901
12654215 9 18409169883328655852
12730499 353 18334862667668793289
13294875 104 18338502106500709730
13380535 76 18341613754197994058
13380536 305 18411703145038925579
14251717 144 18340484461462017069
14911166 2 18341344318420555966
15279308 100 18338526347238222548
15775835 57 18412263939113774533
16945 1 18270136663998111234
17134986 127 18409166644648975796
18186145 218 18343032077011077217
20606313 2 18338516339610981893
20645477 70 18269552733377440487
20820808 20 18412543180654678771
21499 59 18411134736561638967
21501502 16 18121499321978059326
21524375 3 18334293192942702491
21639500 275 18411693258303752677
22289505 5 18047741608344795749
231179 274 17968090902484000237
2334 1 17981897650656513794
23382010 3 18201427138574651051
23402539 116 18343574157818712172
23402655 69 18343580712139473797
23558518 356 17829042457304259928
23559900 14 18201172048415996524
23598291 2 17628362576000180969
25 1 18411140216597095149
257057 1 17255958970766650267
2748010 2 18055370268946508062
3060560 45 18340483366118840871
58051976 378 18341891901002240439
81228 2 17688022437431612499
8272917 22 18198628727253561125
84936 182 18131066000505052753

>  <PUBCHEM_SHAPE_MULTIPOLES>  (1) 
278.15
6.07
2.77
0.78
5.49
1.5
0.01
-4.52
-1.33
-0.24
-0.06
0.22
-0.08
0.49

>  <PUBCHEM_SHAPE_SELFOVERLAP>  (1) 
570.489

>  <PUBCHEM_SHAPE_VOLUME>  (1) 
160.8

>  <PUBCHEM_COORDINATE_TYPE>  (1) 
2
5
10

$$$$
