47672
     RDKit          3D

 20 21  0  0  0  0  0  0  0  0999 V2000
    4.7501    3.4232   -0.5632 Cl  0  0  0  0  0  0  0  0  0  0  0  0
    1.2237   -2.2097    0.1052 N   0  0  0  0  0  0  0  0  0  0  0  0
    0.0950   -1.4371    0.1837 N   0  0  0  0  0  0  0  0  0  0  0  0
   -0.8833   -1.8856   -0.4528 N   0  0  0  0  0  0  0  0  0  0  0  0
   -6.1954    2.2700    0.2334 N   0  0  0  0  0  0  0  0  0  0  0  0
    2.3052   -1.8330    0.9927 C   0  0  0  0  0  0  0  0  0  0  0  0
    2.9182   -0.5145    0.6019 C   0  0  0  0  0  0  0  0  0  0  0  0
    3.9827   -0.4930   -0.2883 C   0  0  0  0  0  0  0  0  0  0  0  0
    2.4102    0.6606    1.1377 C   0  0  0  0  0  0  0  0  0  0  0  0
    1.5303   -3.0268   -1.0563 C   0  0  0  0  0  0  0  0  0  0  0  0
    4.5511    0.7287   -0.6497 C   0  0  0  0  0  0  0  0  0  0  0  0
    2.9787    1.8822    0.7765 C   0  0  0  0  0  0  0  0  0  0  0  0
    4.0491    1.9162   -0.1171 C   0  0  0  0  0  0  0  0  0  0  0  0
   -1.9789   -1.0284   -0.3112 C   0  0  0  0  0  0  0  0  0  0  0  0
   -2.1708    0.0137   -1.2183 C   0  0  0  0  0  0  0  0  0  0  0  0
   -2.8796   -1.2152    0.7374 C   0  0  0  0  0  0  0  0  0  0  0  0
   -3.2639    0.8688   -1.0772 C   0  0  0  0  0  0  0  0  0  0  0  0
   -3.9726   -0.3599    0.8786 C   0  0  0  0  0  0  0  0  0  0  0  0
   -4.1651    0.6819   -0.0288 C   0  0  0  0  0  0  0  0  0  0  0  0
   -5.2847    1.5577    0.1157 C   0  0  0  0  0  0  0  0  0  0  0  0
  1 13  1  0
  2  3  1  0
  2  6  1  0
  2 10  1  0
  3  4  2  0
  4 14  1  0
  5 20  3  0
  6  7  1  0
  7  8  2  0
  7  9  1  0
  8 11  1  0
  9 12  2  0
 11 13  2  0
 12 13  1  0
 14 15  2  0
 14 16  1  0
 15 17  1  0
 16 18  2  0
 17 19  2  0
 18 19  1  0
 19 20  1  0
M  END
>  <PUBCHEM_COMPOUND_CID>  (1) 
47672

>  <PUBCHEM_CONFORMER_RMSD>  (1) 
0.6

>  <PUBCHEM_CONFORMER_DIVERSEORDER>  (1) 
1
52
73
67
55
9
13
6
60
74
69
26
10
21
14
3
59
75
54
56
12
72
19
64
62
23
25
39
77
8
5
11
40
66
49
4
48
50
71
46
24
27
17
33
78
61
2
29
32
18
47
38
30
65
76
16
68
15
41
22
44
7
28
31
20
63
57
37
70
53
42
35
34
45
58
43
51
36

>  <PUBCHEM_MMFF94_PARTIAL_CHARGES>  (1) 
28
1 -0.18
10 0.3
11 -0.15
12 -0.15
13 0.18
14 0.18
15 -0.15
16 -0.15
17 -0.15
18 -0.15
19 0.07
2 -0.54
20 0.48
23 0.15
24 0.15
28 0.15
29 0.15
3 -0.06
30 0.15
31 0.15
32 0.15
33 0.15
4 -0.18
5 -0.56
6 0.44
7 -0.14
8 -0.15
9 -0.15

>  <PUBCHEM_EFFECTIVE_ROTOR_COUNT>  (1) 
4

>  <PUBCHEM_PHARMACOPHORE_FEATURES>  (1) 
3
1 5 acceptor
6 14 15 16 17 18 19 rings
6 7 8 9 11 12 13 rings

>  <PUBCHEM_HEAVY_ATOM_COUNT>  (1) 
20

>  <PUBCHEM_ATOM_DEF_STEREO_COUNT>  (1) 
0

>  <PUBCHEM_ATOM_UDEF_STEREO_COUNT>  (1) 
0

>  <PUBCHEM_BOND_DEF_STEREO_COUNT>  (1) 
0

>  <PUBCHEM_BOND_UDEF_STEREO_COUNT>  (1) 
0

>  <PUBCHEM_ISOTOPIC_ATOM_COUNT>  (1) 
0

>  <PUBCHEM_COMPONENT_COUNT>  (1) 
1

>  <PUBCHEM_CACTVS_TAUTO_COUNT>  (1) 
1

>  <PUBCHEM_CONFORMER_ID>  (1) 
0000BA3800000001

>  <PUBCHEM_MMFF94_ENERGY>  (1) 
50.1971

>  <PUBCHEM_FEATURE_SELFOVERLAP>  (1) 
15.223

>  <PUBCHEM_SHAPE_FINGERPRINT>  (1) 
10447042 23 8790880761730293840
10498660 4 18339637944703574280
11595378 159 15719387287703869565
11720765 8 17988093188837856652
12363563 72 9367077695815350586
12403259 118 18337941380997962946
12633257 1 18114728357122122059
12788726 201 17775012245383764633
13544653 18 9150905983359601998
13878862 14 18046039615720816077
13944108 23 18195813972649038692
1420 369 8286203863645228521
14251764 38 18123187905714751745
14251764 75 18339650043526863521
14341114 328 16371009667197889444
14528608 73 18343575248998718847
14774955 27 18409442583876877229
14848178 5 9583247110500804964
14848178 96 18411695482838420609
15142526 21 18114462356901854170
151778 21 18410853265690030462
15210252 30 18410855482057621320
15342168 16 18413105040013525951
16760501 71 18335990809427628409
17810953 82 18408325466761923748
17834072 32 18409447011518608853
17868525 174 17609759921183905010
18186145 218 17988080110003056898
21250096 35 8646501703875475142
21365058 113 17767986245780733870
21864079 5 18337945800761500446
23403322 49 9943532911932225347
23559900 14 18266459798162561451
245318 6 17823995629976805229
2637199 183 18409733997571596782
270888 7 18410292562042006332
3472631 163 18343021082111090869
397830 11 18264507126568867905
44062 13 10663559088039616283
474 4 18342454790683870179
5048184 11 18339637957561985484
5104073 3 17967810565457066690
56616090 278 18261673662727607250
57724786 102 18408883997162062941
633830 44 18411976988106730038
76465 3 9439409029361670089
7808743 9 18047188833115877736
7970288 3 9295025552023207032

>  <PUBCHEM_SHAPE_MULTIPOLES>  (1) 
393.54
12.52
3.32
1.1
8.41
0.36
0.03
11.71
-0.06
-2.61
0.51
-0.06
-0.13
-0.22

>  <PUBCHEM_SHAPE_SELFOVERLAP>  (1) 
823.931

>  <PUBCHEM_SHAPE_VOLUME>  (1) 
221.7

>  <PUBCHEM_COORDINATE_TYPE>  (1) 
2
5
10

$$$$
