47676
     RDKit          3D

 16 17  0  0  0  0  0  0  0  0999 V2000
   -1.6259    0.2674   -0.2275 N   0  0  0  0  0  0  0  0  0  0  0  0
    4.0528    0.3063    0.4168 N   0  0  0  0  0  0  0  0  0  0  0  0
   -0.7243   -0.7551   -0.4178 C   0  0  0  0  0  0  0  0  0  0  0  0
    0.6081   -0.5344   -1.0252 C   0  0  0  0  0  0  0  0  0  0  0  0
    1.6877   -0.2053    0.0256 C   0  0  0  0  0  0  0  0  0  0  0  0
   -1.2901   -1.9251    0.0412 C   0  0  0  0  0  0  0  0  0  0  0  0
   -2.7731   -0.2601    0.3572 C   0  0  0  0  0  0  0  0  0  0  0  0
    3.0670   -0.0228   -0.6061 C   0  0  0  0  0  0  0  0  0  0  0  0
   -2.5823   -1.6143    0.5303 C   0  0  0  0  0  0  0  0  0  0  0  0
   -1.4840    1.6195   -0.5409 C   0  0  0  0  0  0  0  0  0  0  0  0
   -0.6687   -3.2646    0.0285 C   0  0  0  0  0  0  0  0  0  0  0  0
   -3.8406    0.6407    0.6399 C   0  0  0  0  0  0  0  0  0  0  0  0
   -2.4928    2.4642   -0.2724 C   0  0  0  0  0  0  0  0  0  0  0  0
    5.3707    0.4930   -0.1734 C   0  0  0  0  0  0  0  0  0  0  0  0
   -3.7064    1.9464    0.3380 C   0  0  0  0  0  0  0  0  0  0  0  0
    6.4018    0.8442    0.8856 C   0  0  0  0  0  0  0  0  0  0  0  0
  1  3  1  0
  1  7  1  0
  1 10  1  0
  2  8  1  0
  2 14  1  0
  3  4  1  0
  3  6  2  0
  4  5  1  0
  5  8  1  0
  6  9  1  0
  6 11  1  0
  7  9  2  0
  7 12  1  0
 10 13  2  0
 12 15  2  0
 13 15  1  0
 14 16  1  0
M  END
>  <PUBCHEM_COMPOUND_CID>  (1) 
47676

>  <PUBCHEM_CONFORMER_RMSD>  (1) 
0.6

>  <PUBCHEM_CONFORMER_DIVERSEORDER>  (1) 
2
27
48
35
34
51
50
41
36
9
20
37
45
7
49
52
42
40
32
46
30
31
25
26
23
22
17
44
29
33
43
39
8
47
24
3
18
19
10
1
16
21
28
15
13
14
11
38
4
12
5
6

>  <PUBCHEM_MMFF94_PARTIAL_CHARGES>  (1) 
20
1 0.33
10 -0.18
11 0.18
12 -0.11
13 -0.15
14 0.27
15 -0.15
2 -0.9
23 0.15
24 0.15
28 0.15
29 0.36
3 -0.33
32 0.15
33 0.15
4 0.18
6 -0.18
7 -0.2
8 0.27
9 -0.15

>  <PUBCHEM_EFFECTIVE_ROTOR_COUNT>  (1) 
5

>  <PUBCHEM_PHARMACOPHORE_FEATURES>  (1) 
5
1 1 cation
1 2 cation
1 2 donor
5 1 3 6 7 9 rings
6 1 7 10 12 13 15 rings

>  <PUBCHEM_HEAVY_ATOM_COUNT>  (1) 
16

>  <PUBCHEM_ATOM_DEF_STEREO_COUNT>  (1) 
0

>  <PUBCHEM_ATOM_UDEF_STEREO_COUNT>  (1) 
0

>  <PUBCHEM_BOND_DEF_STEREO_COUNT>  (1) 
0

>  <PUBCHEM_BOND_UDEF_STEREO_COUNT>  (1) 
0

>  <PUBCHEM_ISOTOPIC_ATOM_COUNT>  (1) 
0

>  <PUBCHEM_COMPONENT_COUNT>  (1) 
1

>  <PUBCHEM_CACTVS_TAUTO_COUNT>  (1) 
1

>  <PUBCHEM_CONFORMER_ID>  (1) 
0000BA3C00000002

>  <PUBCHEM_MMFF94_ENERGY>  (1) 
14.7032

>  <PUBCHEM_FEATURE_SELFOVERLAP>  (1) 
25.472

>  <PUBCHEM_SHAPE_FINGERPRINT>  (1) 
10411042 1 17834396000911672591
11132069 177 18262530203781236005
11315181 36 18041275578119367860
12251169 10 18259989275148115580
12390115 104 18199203822615282032
12500047 106 18341609330761513314
12596602 18 17095246959902324792
13004483 165 17695899312784536598
14420673 8 18045219341724748218
14508225 48 17983279719614332783
15042514 8 18263935512817785467
16945 1 18117865243191410887
1813 80 16298392314863347694
20510252 161 18342183232649242665
20645477 56 18411704279247759012
20645477 70 16701752562270511198
21650355 55 18192434288600404771
22224240 67 18341622490910496001
23402539 116 18270114742575197295
23557571 272 18200051632527867220
23559900 14 18269576961314513534
2748010 2 17683827418925907207
4214541 1 18410292523814068344
5104073 3 18264497199623041299
5364581 5 18053649563778722840
573450 72 18260820523693511922
5924683 9 18270954782211916022
7364860 26 17834682591468115959
9981440 41 18335425608525975755

>  <PUBCHEM_SHAPE_MULTIPOLES>  (1) 
319.31
10.32
2.66
0.86
22.32
1.2
0.02
-5.89
-3.15
-2.98
-0.02
0.25
-0.05
0.44

>  <PUBCHEM_SHAPE_SELFOVERLAP>  (1) 
659.951

>  <PUBCHEM_SHAPE_VOLUME>  (1) 
183.3

>  <PUBCHEM_COORDINATE_TYPE>  (1) 
2
5
10

$$$$
