47670
     RDKit          3D

 24 25  0  0  0  0  0  0  0  0999 V2000
    6.2697   -1.7025    1.1447 O   0  0  0  0  0  0  0  0  0  0  0  0
    5.5142   -2.9563   -0.5942 O   0  0  0  0  0  0  0  0  0  0  0  0
   -0.4052    2.8448    0.0162 N   0  0  0  0  0  0  0  0  0  0  0  0
    0.5915    1.9046    0.1111 N   0  0  0  0  0  0  0  0  0  0  0  0
    1.6099    2.1624   -0.5629 N   0  0  0  0  0  0  0  0  0  0  0  0
   -4.6461   -2.0235   -0.1581 C   0  0  0  0  0  0  0  0  0  0  0  0
   -3.8092   -0.7670    0.1335 C   0  0  0  0  0  0  0  0  0  0  0  0
   -5.2611   -2.5544    1.1549 C   0  0  0  0  0  0  0  0  0  0  0  0
   -3.7459   -3.1159   -0.7751 C   0  0  0  0  0  0  0  0  0  0  0  0
   -5.8123   -1.7833   -1.1436 C   0  0  0  0  0  0  0  0  0  0  0  0
   -2.7483   -0.8766    0.9971 C   0  0  0  0  0  0  0  0  0  0  0  0
   -4.1616    0.4072   -0.4834 C   0  0  0  0  0  0  0  0  0  0  0  0
   -2.3165    1.4754    0.6535 C   0  0  0  0  0  0  0  0  0  0  0  0
   -1.9894    0.2636    1.2615 C   0  0  0  0  0  0  0  0  0  0  0  0
   -3.4026    1.5474   -0.2189 C   0  0  0  0  0  0  0  0  0  0  0  0
   -1.5046    2.6941    0.9355 C   0  0  0  0  0  0  0  0  0  0  0  0
   -0.5991    3.6433   -1.1864 C   0  0  0  0  0  0  0  0  0  0  0  0
    2.5592    1.1405   -0.3960 C   0  0  0  0  0  0  0  0  0  0  0  0
    2.5535    0.0450   -1.2546 C   0  0  0  0  0  0  0  0  0  0  0  0
    3.4997    1.2304    0.6261 C   0  0  0  0  0  0  0  0  0  0  0  0
    4.4410   -0.8841   -0.0670 C   0  0  0  0  0  0  0  0  0  0  0  0
    3.4965   -0.9695   -1.0896 C   0  0  0  0  0  0  0  0  0  0  0  0
    4.4426    0.2159    0.7910 C   0  0  0  0  0  0  0  0  0  0  0  0
    5.4243   -1.9416    0.1049 C   0  0  0  0  0  0  0  0  0  0  0  0
  1 24  1  0
  2 24  2  0
  3  4  1  0
  3 16  1  0
  3 17  1  0
  4  5  2  0
  5 18  1  0
  6  7  1  0
  6  8  1  0
  6  9  1  0
  6 10  1  0
  7 11  2  0
  7 12  1  0
 11 14  1  0
 12 15  2  0
 13 14  2  0
 13 15  1  0
 13 16  1  0
 18 19  2  0
 18 20  1  0
 19 22  1  0
 20 23  2  0
 21 22  2  0
 21 23  1  0
 21 24  1  0
M  END
>  <PUBCHEM_COMPOUND_CID>  (1) 
47670

>  <PUBCHEM_CONFORMER_RMSD>  (1) 
0.8

>  <PUBCHEM_CONFORMER_DIVERSEORDER>  (1) 
1
5
31
21
14
23
9
28
25
17
32
2
34
11
30
33
7
19
10
3
29
18
15
27
22
6
8
24
20
26
12
16
13
4

>  <PUBCHEM_MMFF94_PARTIAL_CHARGES>  (1) 
30
1 -0.65
11 -0.15
12 -0.15
13 -0.14
14 -0.15
15 -0.15
16 0.44
17 0.3
18 0.18
19 -0.15
2 -0.57
20 -0.15
21 0.09
22 -0.15
23 -0.15
24 0.63
3 -0.54
34 0.15
35 0.15
36 0.15
37 0.15
4 -0.06
43 0.15
44 0.15
45 0.15
46 0.15
47 0.5
5 -0.18
6 0.14
7 -0.14

>  <PUBCHEM_EFFECTIVE_ROTOR_COUNT>  (1) 
6

>  <PUBCHEM_PHARMACOPHORE_FEATURES>  (1) 
6
1 1 acceptor
1 2 acceptor
3 1 2 24 anion
4 6 8 9 10 hydrophobe
6 18 19 20 21 22 23 rings
6 7 11 12 13 14 15 rings

>  <PUBCHEM_HEAVY_ATOM_COUNT>  (1) 
24

>  <PUBCHEM_ATOM_DEF_STEREO_COUNT>  (1) 
0

>  <PUBCHEM_ATOM_UDEF_STEREO_COUNT>  (1) 
0

>  <PUBCHEM_BOND_DEF_STEREO_COUNT>  (1) 
0

>  <PUBCHEM_BOND_UDEF_STEREO_COUNT>  (1) 
0

>  <PUBCHEM_ISOTOPIC_ATOM_COUNT>  (1) 
0

>  <PUBCHEM_COMPONENT_COUNT>  (1) 
1

>  <PUBCHEM_CACTVS_TAUTO_COUNT>  (1) 
1

>  <PUBCHEM_CONFORMER_ID>  (1) 
0000BA3600000001

>  <PUBCHEM_MMFF94_ENERGY>  (1) 
81.0315

>  <PUBCHEM_FEATURE_SELFOVERLAP>  (1) 
30.504

>  <PUBCHEM_SHAPE_FINGERPRINT>  (1) 
10042902 136 18337681819518818172
10074138 170 17130169528275808209
10670039 82 9151164347011681074
10693767 8 17911222134699576583
10764073 3 17607566555318115553
11069576 57 18191590967534787036
12166972 35 17748832950729820615
12363563 72 18336558191096254545
12390115 104 9079112288922801489
13885169 86 9727628440388717219
14251751 18 18343864403066062786
14341114 328 14979957020568178161
14347329 18 8790879675420170262
14429115 67 18341617061169785769
14429380 30 18335425668703373546
1454969 45 18265615575676115188
14848178 5 18411415124447529856
14848178 96 8790621272770246821
14866123 147 18340494370632441065
14950920 106 17275386503763142402
15352361 1 18411701014819438893
15728490 83 18262530182206881307
17492 89 18410858801628548883
19141452 34 18268156365984065409
20403669 9 18342463681297678599
20775530 9 18269003136007818029
20843269 155 18335977585001999050
21585480 29 17486750125476654182
21756936 100 8862649188726928608
21864079 5 9007061227472387813
23559900 14 18412254043293743233
23572383 38 18338791316318140971
25122255 55 18413392020632213078
255183 313 18051144588090483673
2838139 119 9295025535006062905
312425 54 17916870110433121056
316301 35 18340202978365078170
3680242 22 18269287905546646179
392239 28 15769478898666575754
397830 11 18267849611921055706
44062 13 18333449824922801997
444735 79 18270384106112801008
463206 1 18267025131917511371
5104073 3 18131074835141893976
559249 180 18409446952169885929
56633871 153 18340502066717528105
57527585 103 17752803244679692323
5924683 9 18342458084507165336
613672 6 18188206627704765408
6431902 208 18411696582513767102
7970288 3 18410293635462174442
88748 71 18335990882188435995

>  <PUBCHEM_SHAPE_MULTIPOLES>  (1) 
467.23
14.61
4.08
1.23
7.58
0.95
0
-15.92
0.41
-1.06
-0.63
-0.25
-0.07
-0.26

>  <PUBCHEM_SHAPE_SELFOVERLAP>  (1) 
985.897

>  <PUBCHEM_SHAPE_VOLUME>  (1) 
265.1

>  <PUBCHEM_COORDINATE_TYPE>  (1) 
2
5
10

$$$$
