47678
     RDKit          3D

 16 17  0  0  0  0  0  0  0  0999 V2000
    1.6177    0.2337    0.2091 N   0  0  0  0  0  0  0  0  0  0  0  0
   -4.0676    0.3115   -0.4107 N   0  0  0  0  0  0  0  0  0  0  0  0
    2.7624   -0.2701   -0.3607 C   0  0  0  0  0  0  0  0  0  0  0  0
    1.4386    1.6202    0.5997 C   0  0  0  0  0  0  0  0  0  0  0  0
    0.7081   -0.7685    0.4074 C   0  0  0  0  0  0  0  0  0  0  0  0
    3.9162    0.6069   -0.7145 C   0  0  0  0  0  0  0  0  0  0  0  0
    2.4589    2.5510   -0.0540 C   0  0  0  0  0  0  0  0  0  0  0  0
    3.8625    1.9491    0.0185 C   0  0  0  0  0  0  0  0  0  0  0  0
    1.2747   -1.9398   -0.0462 C   0  0  0  0  0  0  0  0  0  0  0  0
   -0.6178   -0.5344    1.0193 C   0  0  0  0  0  0  0  0  0  0  0  0
    2.5697   -1.6270   -0.5306 C   0  0  0  0  0  0  0  0  0  0  0  0
   -1.7031   -0.2093   -0.0278 C   0  0  0  0  0  0  0  0  0  0  0  0
    0.6546   -3.2797   -0.0323 C   0  0  0  0  0  0  0  0  0  0  0  0
   -3.0778   -0.0130    0.6097 C   0  0  0  0  0  0  0  0  0  0  0  0
   -5.3810    0.5113    0.1850 C   0  0  0  0  0  0  0  0  0  0  0  0
   -6.4162    0.8579   -0.8717 C   0  0  0  0  0  0  0  0  0  0  0  0
  1  3  1  0
  1  4  1  0
  1  5  1  0
  2 14  1  0
  2 15  1  0
  3  6  1  0
  3 11  2  0
  4  7  1  0
  5  9  2  0
  5 10  1  0
  6  8  1  0
  7  8  1  0
  9 11  1  0
  9 13  1  0
 10 12  1  0
 12 14  1  0
 15 16  1  0
M  END
>  <PUBCHEM_COMPOUND_CID>  (1) 
47678

>  <PUBCHEM_CONFORMER_RMSD>  (1) 
0.6

>  <PUBCHEM_CONFORMER_DIVERSEORDER>  (1) 
1
22
54
56
18
51
58
53
47
44
20
39
29
62
48
43
25
23
40
32
50
34
41
57
60
31
30
9
42
61
10
36
63
21
26
38
14
33
16
52
35
28
45
11
2
37
27
24
15
59
8
7
46
4
49
19
17
5
12
55
3
6
13

>  <PUBCHEM_MMFF94_PARTIAL_CHARGES>  (1) 
14
1 0.05
10 0.18
11 -0.15
13 0.18
14 0.27
15 0.27
2 -0.9
27 0.15
3 -0.33
35 0.36
4 0.26
5 -0.33
6 0.18
9 -0.18

>  <PUBCHEM_EFFECTIVE_ROTOR_COUNT>  (1) 
5.8

>  <PUBCHEM_PHARMACOPHORE_FEATURES>  (1) 
5
1 1 cation
1 2 cation
1 2 donor
5 1 3 5 9 11 rings
6 1 3 4 6 7 8 rings

>  <PUBCHEM_HEAVY_ATOM_COUNT>  (1) 
16

>  <PUBCHEM_ATOM_DEF_STEREO_COUNT>  (1) 
0

>  <PUBCHEM_ATOM_UDEF_STEREO_COUNT>  (1) 
0

>  <PUBCHEM_BOND_DEF_STEREO_COUNT>  (1) 
0

>  <PUBCHEM_BOND_UDEF_STEREO_COUNT>  (1) 
0

>  <PUBCHEM_ISOTOPIC_ATOM_COUNT>  (1) 
0

>  <PUBCHEM_COMPONENT_COUNT>  (1) 
1

>  <PUBCHEM_CACTVS_TAUTO_COUNT>  (1) 
1

>  <PUBCHEM_CONFORMER_ID>  (1) 
0000BA3E00000001

>  <PUBCHEM_MMFF94_ENERGY>  (1) 
2.051

>  <PUBCHEM_FEATURE_SELFOVERLAP>  (1) 
25.459

>  <PUBCHEM_SHAPE_FINGERPRINT>  (1) 
10411042 1 17834114143698683858
10693767 8 17916030066586773126
11471102 20 18411422790953506362
12730499 353 18335428967364610635
12769317 202 18410846668694617017
13836976 161 18060414690740026151
13955234 65 18335984156106757339
14251717 144 18413392016310605594
14528608 73 18412541029408923901
16945 1 18198648668881609986
17134986 127 18338520871149599812
17834072 33 18342452660817636031
18186145 218 18199769062070712482
20645477 70 18271528602753657911
221357 26 18339922619753102821
22289505 5 18336540504758546533
231179 274 18113615707226303976
23402655 69 18343585148724275557
23532345 1 18410014317091205315
23557571 272 17531545260136912803
23590187 302 17989485225617664025
23598291 2 17773332131549374275
25 1 18411421743361359142
2748010 2 17767708387909634446
3060560 45 18341615906050540670
335352 9 18411421722450869614
4072396 5 18409719661118267920
43658 37 18341329006340075009
474 4 18409731798179160737
495365 180 18340760515973755137
5281201 14 18265895766103488085
543358 83 18269843008425655433
58051976 378 18343868805275555103
6025842 7 18340202999560560767
6327066 14 18120090838883142148
8272917 22 18342462491565396255

>  <PUBCHEM_SHAPE_MULTIPOLES>  (1) 
319.31
10.44
2.71
0.85
22.02
1.15
0.02
-6.12
-3.01
-3.04
-0.06
0.25
-0.03
0.48

>  <PUBCHEM_SHAPE_SELFOVERLAP>  (1) 
644.909

>  <PUBCHEM_SHAPE_VOLUME>  (1) 
187.5

>  <PUBCHEM_COORDINATE_TYPE>  (1) 
2
5
10

$$$$
