47688
     RDKit          3D

 24 26  0  0  1  0  0  0  0  0999 V2000
    1.4197    2.0335   -1.8749 Cl  0  0  0  0  0  0  0  0  0  0  0  0
    5.6545   -0.7680   -0.0320 S   0  0  0  0  0  0  0  0  0  0  0  0
   -4.6973    1.6572    0.4798 F   0  0  0  0  0  0  0  0  0  0  0  0
   -0.0988    2.7128    0.7276 O   0  0  0  0  0  0  0  0  0  0  0  0
    5.8566   -2.1166    0.4787 O   0  0  0  0  0  0  0  0  0  0  0  0
    6.1635   -0.4092   -1.3484 O   0  0  0  0  0  0  0  0  0  0  0  0
   -2.3719    0.1726    0.1087 N   0  0  0  0  0  0  0  0  0  0  0  0
   -0.1467    0.4207    0.1666 N   0  0  0  0  0  0  0  0  0  0  0  0
    6.2553    0.3504    1.1116 N   0  0  0  0  0  0  0  0  0  0  0  0
   -1.1763   -0.5702   -0.0740 C   0  0  0  0  0  0  0  0  0  0  0  0
   -2.1991    1.5401    0.4438 C   0  0  0  0  0  0  0  0  0  0  0  0
   -0.6949    1.6754    0.4746 C   0  0  0  0  0  0  0  0  0  0  0  0
    1.2167    0.1605    0.1002 C   0  0  0  0  0  0  0  0  0  0  0  0
   -3.6479   -0.4115   -0.0309 C   0  0  0  0  0  0  0  0  0  0  0  0
    2.0440    0.8362   -0.7970 C   0  0  0  0  0  0  0  0  0  0  0  0
    1.7545   -0.8006    0.9565 C   0  0  0  0  0  0  0  0  0  0  0  0
    3.9463   -0.4101    0.0184 C   0  0  0  0  0  0  0  0  0  0  0  0
   -4.7950    0.3586    0.1615 C   0  0  0  0  0  0  0  0  0  0  0  0
   -3.7620   -1.7618   -0.3620 C   0  0  0  0  0  0  0  0  0  0  0  0
    3.4088    0.5509   -0.8379 C   0  0  0  0  0  0  0  0  0  0  0  0
    3.1191   -1.0858    0.9156 C   0  0  0  0  0  0  0  0  0  0  0  0
   -6.0560   -0.2216    0.0226 C   0  0  0  0  0  0  0  0  0  0  0  0
   -5.0230   -2.3418   -0.5007 C   0  0  0  0  0  0  0  0  0  0  0  0
   -6.1699   -1.5718   -0.3084 C   0  0  0  0  0  0  0  0  0  0  0  0
  1 15  1  0
  2  5  2  0
  2  6  2  0
  2  9  1  0
  2 17  1  0
  3 18  1  0
  4 12  2  0
  7 10  1  0
  7 11  1  0
  7 14  1  0
  8 10  1  0
  8 12  1  0
  8 13  1  0
 11 12  1  0
 13 15  2  0
 13 16  1  0
 14 18  2  0
 14 19  1  0
 15 20  1  0
 16 21  2  0
 17 20  2  0
 17 21  1  0
 18 22  1  0
 19 23  2  0
 22 24  2  0
 23 24  1  0
M  END
>  <PUBCHEM_COMPOUND_CID>  (1) 
47688

>  <PUBCHEM_CONFORMER_RMSD>  (1) 
0.6

>  <PUBCHEM_CONFORMER_DIVERSEORDER>  (1) 
5
85
114
33
112
47
23
111
94
31
120
13
86
116
6
57
118
14
60
19
108
43
107
76
93
1
30
21
59
45
68
2
75
58
41
29
10
67
9
17
117
40
99
113
39
100
77
90
16
119
88
8
115
96
63
106
7
62
15
105
80
24
95
110
48
109
78
20
36
64
44
72
11
12
87
35
22
61
4
46
70
3
42
102
28
104
27
92
97
91
37
103
74
38
98
53
79
101
50
71
89
56
73
34
49
54
82
66
55
32
81
26
69
25
84
51
83
52
65
18

>  <PUBCHEM_MMFF94_PARTIAL_CHARGES>  (1) 
33
1 -0.18
10 0.67
11 0.43
12 0.57
13 0.12
14 0.1
15 0.18
16 -0.15
17 -0.01
18 0.19
19 -0.15
2 1.45
20 -0.15
21 -0.15
22 -0.15
23 -0.15
24 -0.15
29 0.15
3 -0.19
30 0.15
31 0.15
32 0.15
33 0.15
34 0.15
35 0.15
36 0.42
37 0.42
4 -0.57
5 -0.65
6 -0.65
7 -0.84
8 -0.48
9 -0.98

>  <PUBCHEM_EFFECTIVE_ROTOR_COUNT>  (1) 
3.8

>  <PUBCHEM_PHARMACOPHORE_FEATURES>  (1) 
8
1 4 acceptor
1 5 acceptor
1 6 acceptor
1 7 cation
1 9 donor
5 7 8 10 11 12 rings
6 13 15 16 17 20 21 rings
6 14 18 19 22 23 24 rings

>  <PUBCHEM_HEAVY_ATOM_COUNT>  (1) 
24

>  <PUBCHEM_ATOM_DEF_STEREO_COUNT>  (1) 
0

>  <PUBCHEM_ATOM_UDEF_STEREO_COUNT>  (1) 
0

>  <PUBCHEM_BOND_DEF_STEREO_COUNT>  (1) 
0

>  <PUBCHEM_BOND_UDEF_STEREO_COUNT>  (1) 
0

>  <PUBCHEM_ISOTOPIC_ATOM_COUNT>  (1) 
0

>  <PUBCHEM_COMPONENT_COUNT>  (1) 
1

>  <PUBCHEM_CACTVS_TAUTO_COUNT>  (1) 
1

>  <PUBCHEM_CONFORMER_ID>  (1) 
0000BA4800000005

>  <PUBCHEM_MMFF94_ENERGY>  (1) 
73.0908

>  <PUBCHEM_FEATURE_SELFOVERLAP>  (1) 
40.614

>  <PUBCHEM_SHAPE_FINGERPRINT>  (1) 
10 15 17131822184594224426
11315181 36 18131353025174984819
11524674 6 16343699932973632951
12107183 9 17759517773248356227
12166972 35 18260551142770142132
12236239 1 18334579023026748724
12516196 113 18272931639271576488
12616971 3 18260843608953018421
12633257 1 15338831001645747239
13288520 33 18342458149653958263
13533116 47 18408041815027512944
13782708 43 17203336559426179862
13862211 1 18411136935105216794
13911987 19 16371024983515724582
14068700 675 18409167701691322660
14251752 14 18187641384681997229
14347332 77 18190175685985764706
14576447 43 18259702294313475106
15021287 119 17749683908954381045
15183329 4 17894912936125197078
15788980 27 18409171021547535467
17857418 61 18408321090216343323
1813 80 18187090516302709966
18222031 100 18113054926932785676
18681886 176 18410571829383947298
200 152 18259705588099606616
20028762 73 18411698781875035494
20612939 158 17676774265812267749
21033648 29 15913321356736010635
21150785 3 18334303080680039870
21267235 1 18411706512942184195
21623969 137 16343709819940576374
21641784 216 16226339092938493542
21709351 56 17967810548778292125
22224240 67 15123502618913695094
2297311 6 18131357388202504104
23035841 295 18411981342934652979
23402539 116 18412543197597222975
23522609 53 18192180164065567244
23557571 272 17845942826922607944
23559900 14 18270389620645366265
24771293 8 18187648046599000724
25147074 1 18337690666735502157
3004659 81 18261390074594896503
335352 9 18413385433323207229
3411729 13 17487047014827376792
34797466 226 17775291590857944852
351380 3 18408038511406832715
397830 11 17202466957318786570
4214541 1 18411418406562186241
4325135 7 18341612651140387828
439807 62 18116436024258022011
465052 167 18202005459862908966
5104073 3 17988087815532744881
559249 180 18411135819278668759
59682541 35 18200865284486698504
59755656 215 18343587304561176926
67856867 119 18336828713848520181
7495541 125 17704068521349164128
8863177 126 17973733760084345099
999808 66 18041008379852047827

>  <PUBCHEM_SHAPE_MULTIPOLES>  (1) 
459.8
15.94
2.19
1.08
1.37
0.41
-0.26
-8.6
-0.65
-0.94
-0.09
0.98
0.33
-1.4

>  <PUBCHEM_SHAPE_SELFOVERLAP>  (1) 
982.494

>  <PUBCHEM_SHAPE_VOLUME>  (1) 
259.3

>  <PUBCHEM_COORDINATE_TYPE>  (1) 
2
5
10

$$$$
