47684
     RDKit          3D

 20 21  0  0  0  0  0  0  0  0999 V2000
   -5.1530    1.9184   -0.8831 O   0  0  0  0  0  0  0  0  0  0  0  0
   -5.8057    0.8542    1.0163 O   0  0  0  0  0  0  0  0  0  0  0  0
    1.9957   -1.8757    0.1256 N   0  0  0  0  0  0  0  0  0  0  0  0
    0.7755   -1.2569    0.1957 N   0  0  0  0  0  0  0  0  0  0  0  0
   -0.1417   -1.8532   -0.4097 N   0  0  0  0  0  0  0  0  0  0  0  0
    3.0275   -1.3278    0.9828 C   0  0  0  0  0  0  0  0  0  0  0  0
    3.4556    0.0454    0.5380 C   0  0  0  0  0  0  0  0  0  0  0  0
    4.4978    0.1757   -0.3692 C   0  0  0  0  0  0  0  0  0  0  0  0
    2.8023    1.1615    1.0415 C   0  0  0  0  0  0  0  0  0  0  0  0
    2.3952   -2.6859   -1.0121 C   0  0  0  0  0  0  0  0  0  0  0  0
    4.8945    1.4479   -0.7813 C   0  0  0  0  0  0  0  0  0  0  0  0
    3.1991    2.4337    0.6293 C   0  0  0  0  0  0  0  0  0  0  0  0
    4.2453    2.5769   -0.2821 C   0  0  0  0  0  0  0  0  0  0  0  0
   -1.3397   -1.1439   -0.2799 C   0  0  0  0  0  0  0  0  0  0  0  0
   -3.7308    0.2700   -0.0217 C   0  0  0  0  0  0  0  0  0  0  0  0
   -2.1960   -1.4110    0.7882 C   0  0  0  0  0  0  0  0  0  0  0  0
   -1.6790   -0.1700   -1.2191 C   0  0  0  0  0  0  0  0  0  0  0  0
   -3.3914   -0.7040    0.9174 C   0  0  0  0  0  0  0  0  0  0  0  0
   -2.8745    0.5369   -1.0899 C   0  0  0  0  0  0  0  0  0  0  0  0
   -4.9767    1.0077    0.1133 C   0  0  0  0  0  0  0  0  0  0  0  0
  1 20  1  0
  2 20  2  0
  3  4  1  0
  3  6  1  0
  3 10  1  0
  4  5  2  0
  5 14  1  0
  6  7  1  0
  7  8  2  0
  7  9  1  0
  8 11  1  0
  9 12  2  0
 11 13  2  0
 12 13  1  0
 14 16  2  0
 14 17  1  0
 15 18  2  0
 15 19  1  0
 15 20  1  0
 16 18  1  0
 17 19  2  0
M  END
>  <PUBCHEM_COMPOUND_CID>  (1) 
47684

>  <PUBCHEM_CONFORMER_RMSD>  (1) 
0.8

>  <PUBCHEM_CONFORMER_DIVERSEORDER>  (1) 
1
10
24
12
3
14
20
23
16
6
19
13
22
15
11
9
17
4
18
5
8
21
2
7

>  <PUBCHEM_MMFF94_PARTIAL_CHARGES>  (1) 
30
1 -0.65
10 0.3
11 -0.15
12 -0.15
13 -0.15
14 0.18
15 0.09
16 -0.15
17 -0.15
18 -0.15
19 -0.15
2 -0.57
20 0.63
23 0.15
24 0.15
28 0.15
29 0.15
3 -0.54
30 0.15
31 0.15
32 0.15
33 0.15
34 0.15
35 0.5
4 -0.06
5 -0.18
6 0.44
7 -0.14
8 -0.15
9 -0.15

>  <PUBCHEM_EFFECTIVE_ROTOR_COUNT>  (1) 
5

>  <PUBCHEM_PHARMACOPHORE_FEATURES>  (1) 
5
1 1 acceptor
1 2 acceptor
3 1 2 20 anion
6 14 15 16 17 18 19 rings
6 7 8 9 11 12 13 rings

>  <PUBCHEM_HEAVY_ATOM_COUNT>  (1) 
20

>  <PUBCHEM_ATOM_DEF_STEREO_COUNT>  (1) 
0

>  <PUBCHEM_ATOM_UDEF_STEREO_COUNT>  (1) 
0

>  <PUBCHEM_BOND_DEF_STEREO_COUNT>  (1) 
0

>  <PUBCHEM_BOND_UDEF_STEREO_COUNT>  (1) 
0

>  <PUBCHEM_ISOTOPIC_ATOM_COUNT>  (1) 
0

>  <PUBCHEM_COMPONENT_COUNT>  (1) 
1

>  <PUBCHEM_CACTVS_TAUTO_COUNT>  (1) 
1

>  <PUBCHEM_CONFORMER_ID>  (1) 
0000BA4400000001

>  <PUBCHEM_MMFF94_ENERGY>  (1) 
59.3235

>  <PUBCHEM_FEATURE_SELFOVERLAP>  (1) 
25.429

>  <PUBCHEM_SHAPE_FINGERPRINT>  (1) 
10447042 23 9367345916660149184
10498660 4 18201438137906905016
10730089 43 18186236221105377253
11595378 159 15864342523974827829
11720765 8 18130804330735536132
12633257 1 18114726188490574738
12769317 202 18341607105635904408
13878862 14 18117814665066079885
1420 369 7997978980856934656
14251740 57 12396568612372474608
14251764 38 18194960743289086101
14251764 75 18267309918098041032
14341114 328 16371007468317188636
14528608 73 18343294903350500231
14848178 5 9439412310743376332
14848178 96 18411696590818663688
15163728 17 16557361336546580425
151778 21 18409727374520919338
15210252 30 18411138086758482344
15342168 16 18413107268843193655
16752209 62 16917075425283623528
17834072 32 18410855507578621342
17857418 61 7997966865060050321
17868525 174 17754156610238240994
1813 80 17056415301718066686
18186145 218 17987519389374811658
20374829 77 10879994649184891659
20645477 56 18260550005030816479
21315764 119 14261364518167988457
21475661 188 18117828907388785445
21864079 5 18268702978055225360
22289505 5 18342738460462377790
23403322 49 10231765486933138799
23559900 14 18200591384788753850
2637199 183 18337677528988952862
4259306 186 9727628397939457369
44062 13 10591225524930406043
474 4 18342173345455438939
5104073 3 18113614607683028490
57724786 102 18270410386400792081
633830 44 18270676584363155126
76465 3 9439412323722989850
7808743 9 17972883833105479372
960060 61 12247679404721494680

>  <PUBCHEM_SHAPE_MULTIPOLES>  (1) 
384.91
12.43
2.72
1.14
7.33
0.08
-0.04
-8.5
0.27
-2.44
-0.29
0.19
0.02
0.44

>  <PUBCHEM_SHAPE_SELFOVERLAP>  (1) 
817.068

>  <PUBCHEM_SHAPE_VOLUME>  (1) 
215.1

>  <PUBCHEM_COORDINATE_TYPE>  (1) 
2
5
10

$$$$
