47680
     RDKit          3D

 16 17  0  0  0  0  0  0  0  0999 V2000
    1.4703    0.2207   -0.1434 N   0  0  0  0  0  0  0  0  0  0  0  0
   -3.9380    0.3952   -0.2552 N   0  0  0  0  0  0  0  0  0  0  0  0
    2.5220   -0.6324    0.0904 C   0  0  0  0  0  0  0  0  0  0  0  0
    1.6007    1.6576   -0.3030 C   0  0  0  0  0  0  0  0  0  0  0  0
    0.3057   -0.4866   -0.2630 C   0  0  0  0  0  0  0  0  0  0  0  0
    3.9124   -0.1300    0.2910 C   0  0  0  0  0  0  0  0  0  0  0  0
    2.9332    2.1884    0.2238 C   0  0  0  0  0  0  0  0  0  0  0  0
    4.0879    1.2968   -0.2334 C   0  0  0  0  0  0  0  0  0  0  0  0
   -1.0005    0.1610   -0.5112 C   0  0  0  0  0  0  0  0  0  0  0  0
    0.6109   -1.8205   -0.1002 C   0  0  0  0  0  0  0  0  0  0  0  0
    2.0076   -1.9137    0.1226 C   0  0  0  0  0  0  0  0  0  0  0  0
   -1.7278    0.5445    0.7942 C   0  0  0  0  0  0  0  0  0  0  0  0
   -3.0552    1.2526    0.5270 C   0  0  0  0  0  0  0  0  0  0  0  0
   -0.3372   -2.9515   -0.1461 C   0  0  0  0  0  0  0  0  0  0  0  0
   -5.1993    1.0804   -0.5432 C   0  0  0  0  0  0  0  0  0  0  0  0
   -4.1928   -0.8623    0.4496 C   0  0  0  0  0  0  0  0  0  0  0  0
  1  3  1  0
  1  4  1  0
  1  5  1  0
  2 13  1  0
  2 15  1  0
  2 16  1  0
  3  6  1  0
  3 11  2  0
  4  7  1  0
  5  9  1  0
  5 10  2  0
  6  8  1  0
  7  8  1  0
  9 12  1  0
 10 11  1  0
 10 14  1  0
 12 13  1  0
M  END
>  <PUBCHEM_COMPOUND_CID>  (1) 
47680

>  <PUBCHEM_CONFORMER_RMSD>  (1) 
0.6

>  <PUBCHEM_CONFORMER_DIVERSEORDER>  (1) 
6
27
10
26
11
28
20
18
25
16
7
12
23
19
5
14
21
13
15
3
17
22
24
1
2
9
4
8

>  <PUBCHEM_MMFF94_PARTIAL_CHARGES>  (1) 
14
1 0.05
10 -0.18
11 -0.15
13 0.27
14 0.18
15 0.27
16 0.27
2 -0.81
27 0.15
3 -0.33
4 0.26
5 -0.33
6 0.18
9 0.18

>  <PUBCHEM_EFFECTIVE_ROTOR_COUNT>  (1) 
4.8

>  <PUBCHEM_PHARMACOPHORE_FEATURES>  (1) 
4
1 1 cation
1 2 cation
5 1 3 5 10 11 rings
6 1 3 4 6 7 8 rings

>  <PUBCHEM_HEAVY_ATOM_COUNT>  (1) 
16

>  <PUBCHEM_ATOM_DEF_STEREO_COUNT>  (1) 
0

>  <PUBCHEM_ATOM_UDEF_STEREO_COUNT>  (1) 
0

>  <PUBCHEM_BOND_DEF_STEREO_COUNT>  (1) 
0

>  <PUBCHEM_BOND_UDEF_STEREO_COUNT>  (1) 
0

>  <PUBCHEM_ISOTOPIC_ATOM_COUNT>  (1) 
0

>  <PUBCHEM_COMPONENT_COUNT>  (1) 
1

>  <PUBCHEM_CACTVS_TAUTO_COUNT>  (1) 
1

>  <PUBCHEM_CONFORMER_ID>  (1) 
0000BA4000000006

>  <PUBCHEM_MMFF94_ENERGY>  (1) 
16.8557

>  <PUBCHEM_FEATURE_SELFOVERLAP>  (1) 
20.385

>  <PUBCHEM_SHAPE_FINGERPRINT>  (1) 
10967382 1 18411138030717178316
10980938 120 18410577249637962408
11370993 70 18408038507612739595
11471102 20 18410573959729988956
12119455 92 18259979383685302421
12236239 1 17846774088115380021
12403259 327 16443059538732216904
13140716 1 18265041600414167714
13380535 76 18413110584521178590
14123255 52 18339921622908953860
14251717 144 18411418371548261725
14787075 74 18128536153588863459
14897335 6 18412825823852041598
15196674 1 18410293627225193427
15375358 24 18187646869429028571
16945 1 18409157802070754078
18186145 218 18271255940669744433
200 152 18273208682506805645
204376 136 18410578409115621491
20600515 1 16008760099545022621
20645477 70 18339077078215486567
21501502 16 18192989542520707110
21524375 3 18343303686458354534
221490 88 18337682935788945323
22854114 59 18335139795273722773
23402539 116 18201430415381620468
23402655 69 18343301453101968341
23419403 2 14854377257890440691
23558518 356 17756984885057763920
23559900 14 18339638915440289779
25147074 1 18190167079198052206
3060560 45 18341333297270996782
335352 9 18410573981742798550
33824 294 18335983086422088011
3545911 37 18407762530283942469
474 4 18410293609839615529
474229 33 18340207509234016787
4990 188 17917161528427952732
5104073 3 18335704919002569905
58051976 378 18343019965345681951
6333272 397 18411421734428526890
633830 44 18059022691781129733
7364860 26 18269840821870706702
7832392 63 18267301109594110580
81539 233 18334295353163591822
8272917 22 18269559338746835349
9709674 26 18339084762154909871
9999458 23 18040436594823220286

>  <PUBCHEM_SHAPE_MULTIPOLES>  (1) 
319.31
8.69
2.51
0.74
8
1.2
0.03
-4.13
-0.1
-1.07
-0.05
0.24
-0.07
0.06

>  <PUBCHEM_SHAPE_SELFOVERLAP>  (1) 
649.99

>  <PUBCHEM_SHAPE_VOLUME>  (1) 
187

>  <PUBCHEM_COORDINATE_TYPE>  (1) 
2
5
10

$$$$
