47697
     RDKit          3D

 16 16  0  0  0  0  0  0  0  0999 V2000
    4.8046   -0.0789   -0.6278 O   0  0  0  0  0  0  0  0  0  0  0  0
   -1.0956    1.7534    0.7410 O   0  0  0  0  0  0  0  0  0  0  0  0
   -3.1845   -1.0644   -1.1998 O   0  0  0  0  0  0  0  0  0  0  0  0
   -5.6410    0.0549   -1.1309 O   0  0  0  0  0  0  0  0  0  0  0  0
   -1.3751   -0.5473    0.8168 N   0  0  0  0  0  0  0  0  0  0  0  0
   -4.8084    0.0611   -0.0037 N   0  0  0  0  0  0  0  0  0  0  0  0
    0.7947    0.4332    0.3139 C   0  0  0  0  0  0  0  0  0  0  0  0
   -0.6105    0.6122    0.6433 C   0  0  0  0  0  0  0  0  0  0  0  0
    1.4738    1.4177   -0.4038 C   0  0  0  0  0  0  0  0  0  0  0  0
    1.4632   -0.7233    0.7156 C   0  0  0  0  0  0  0  0  0  0  0  0
   -2.7875   -0.5345    1.1232 C   0  0  0  0  0  0  0  0  0  0  0  0
    3.4901    0.0893   -0.3182 C   0  0  0  0  0  0  0  0  0  0  0  0
    2.8214    1.2457   -0.7199 C   0  0  0  0  0  0  0  0  0  0  0  0
    2.8109   -0.8953    0.3996 C   0  0  0  0  0  0  0  0  0  0  0  0
   -3.5831   -0.5392   -0.1631 C   0  0  0  0  0  0  0  0  0  0  0  0
    5.4268   -1.2846   -0.1862 C   0  0  0  0  0  0  0  0  0  0  0  0
  1 12  1  0
  1 16  1  0
  2  8  2  0
  3 15  2  0
  4  6  1  0
  5  8  1  0
  5 11  1  0
  6 15  1  0
  7  8  1  0
  7  9  2  0
  7 10  1  0
  9 13  1  0
 10 14  2  0
 11 15  1  0
 12 13  2  0
 12 14  1  0
M  END
>  <PUBCHEM_COMPOUND_CID>  (1) 
47697

>  <PUBCHEM_CONFORMER_RMSD>  (1) 
0.8

>  <PUBCHEM_CONFORMER_DIVERSEORDER>  (1) 
1
6
3
2
5
4

>  <PUBCHEM_MMFF94_PARTIAL_CHARGES>  (1) 
23
1 -0.36
10 -0.15
11 0.36
12 0.08
13 -0.15
14 -0.15
15 0.57
16 0.28
17 0.15
18 0.15
2 -0.57
21 0.37
22 0.15
23 0.15
24 0.37
28 0.4
3 -0.57
4 -0.44
5 -0.73
6 -0.39
7 0.09
8 0.54
9 -0.15

>  <PUBCHEM_EFFECTIVE_ROTOR_COUNT>  (1) 
6

>  <PUBCHEM_PHARMACOPHORE_FEATURES>  (1) 
6
1 1 acceptor
1 2 acceptor
1 3 acceptor
1 5 donor
1 6 donor
6 7 9 10 12 13 14 rings

>  <PUBCHEM_HEAVY_ATOM_COUNT>  (1) 
16

>  <PUBCHEM_ATOM_DEF_STEREO_COUNT>  (1) 
0

>  <PUBCHEM_ATOM_UDEF_STEREO_COUNT>  (1) 
0

>  <PUBCHEM_BOND_DEF_STEREO_COUNT>  (1) 
0

>  <PUBCHEM_BOND_UDEF_STEREO_COUNT>  (1) 
0

>  <PUBCHEM_ISOTOPIC_ATOM_COUNT>  (1) 
0

>  <PUBCHEM_COMPONENT_COUNT>  (1) 
1

>  <PUBCHEM_CACTVS_TAUTO_COUNT>  (1) 
6

>  <PUBCHEM_CONFORMER_ID>  (1) 
0000BA5100000001

>  <PUBCHEM_MMFF94_ENERGY>  (1) 
48.9702

>  <PUBCHEM_FEATURE_SELFOVERLAP>  (1) 
30.446

>  <PUBCHEM_SHAPE_FINGERPRINT>  (1) 
100836 57 14056720136333965887
10354089 29 9295288348244318718
106641 1 11167645599424619183
11046707 91 17704075100880339115
11401426 45 18410009965993863920
11471102 20 18259707821941523312
12236239 1 18272373074479712275
12251169 10 10879991363239563241
12670543 26 17968095283271280622
12815109 37 18202844357122391498
12916748 109 12251900369451591223
13760787 5 18339655510956297817
13897977 58 13045942408956504727
14251752 14 17676762059393646052
14252887 29 12391526277837934820
14911166 2 18113058237862019106
14943859 89 14201396097078490281
15242439 84 17676209078091019163
17834072 8 18333446530745975189
18186145 218 17458339784053558009
19862831 5 18187366544896943873
200 152 18412265034124771472
20645477 56 15502375630116473971
20645477 70 18260555532458593218
20671657 53 18408612473862083844
21119208 17 18334859432693320931
221357 26 18040426686138691381
23402539 116 18272091560880184792
23402655 69 18114179726789995381
23557571 272 17274547533552505664
23559900 14 18336266846833135808
25 1 17312816087207036659
2871803 45 18186804652038292194
29717793 49 18201725032884442860
3009799 131 18040994047265994764
32948 21 17095522885717478534
4072396 5 17749376080163044928
449060 50 10159699075591090000
633830 44 16443628029303615258
7471813 234 18131068255357822264

>  <PUBCHEM_SHAPE_MULTIPOLES>  (1) 
295.83
10.96
1.35
1.02
4.19
0.31
0.06
-2.84
3.99
-0.83
-0.04
0.78
-0.05
-0.23

>  <PUBCHEM_SHAPE_SELFOVERLAP>  (1) 
608.77

>  <PUBCHEM_SHAPE_VOLUME>  (1) 
170.2

>  <PUBCHEM_COORDINATE_TYPE>  (1) 
2
5
10

$$$$
