47692
     RDKit          3D

 24 26  0  0  1  0  0  0  0  0999 V2000
    1.1127   -2.1465   -1.7344 O   0  0  0  0  0  0  0  0  0  0  0  0
    1.5067   -1.1231    0.3229 N   0  0  0  0  0  0  0  0  0  0  0  0
   -1.0537    0.2669    0.5677 N   0  0  0  0  0  0  0  0  0  0  0  0
    4.3257    1.2556   -0.1411 N   0  0  0  0  0  0  0  0  0  0  0  0
    2.8740   -0.7302    0.0188 C   0  0  0  0  0  0  0  0  0  0  0  0
    0.9867   -0.7799    1.6425 C   0  0  0  0  0  0  0  0  0  0  0  0
    0.0338    0.4081    1.5609 C   0  0  0  0  0  0  0  0  0  0  0  0
    2.9945    0.7905    0.1426 C   0  0  0  0  0  0  0  0  0  0  0  0
    0.7238   -1.7750   -0.6292 C   0  0  0  0  0  0  0  0  0  0  0  0
   -1.5136   -1.0465    0.3052 C   0  0  0  0  0  0  0  0  0  0  0  0
   -0.6893   -2.0397   -0.2640 C   0  0  0  0  0  0  0  0  0  0  0  0
    3.8209   -1.4626    0.9687 C   0  0  0  0  0  0  0  0  0  0  0  0
   -1.7291    1.4532    0.1687 C   0  0  0  0  0  0  0  0  0  0  0  0
   -2.8522   -1.3898    0.5821 C   0  0  0  0  0  0  0  0  0  0  0  0
   -1.1943   -3.3144   -0.5592 C   0  0  0  0  0  0  0  0  0  0  0  0
    4.4380    2.7092    0.0551 C   0  0  0  0  0  0  0  0  0  0  0  0
    4.7317    0.9126   -1.5127 C   0  0  0  0  0  0  0  0  0  0  0  0
   -3.3490   -2.6642    0.3004 C   0  0  0  0  0  0  0  0  0  0  0  0
   -2.5212   -3.6241   -0.2720 C   0  0  0  0  0  0  0  0  0  0  0  0
   -2.5168    1.4662   -0.9900 C   0  0  0  0  0  0  0  0  0  0  0  0
   -1.6150    2.6246    0.9290 C   0  0  0  0  0  0  0  0  0  0  0  0
   -3.1786    2.6300   -1.3815 C   0  0  0  0  0  0  0  0  0  0  0  0
   -2.2769    3.7882    0.5374 C   0  0  0  0  0  0  0  0  0  0  0  0
   -3.0587    3.7909   -0.6178 C   0  0  0  0  0  0  0  0  0  0  0  0
  1  9  2  0
  2  5  1  0
  2  6  1  0
  2  9  1  0
  3  7  1  0
  3 10  1  0
  3 13  1  0
  4  8  1  0
  4 16  1  0
  4 17  1  0
  5  8  1  0
  5 12  1  0
  6  7  1  0
  9 11  1  0
 10 11  2  0
 10 14  1  0
 11 15  1  0
 13 20  2  0
 13 21  1  0
 14 18  2  0
 15 19  2  0
 18 19  1  0
 20 22  1  0
 21 23  2  0
 22 24  2  0
 23 24  1  0
M  END
>  <PUBCHEM_COMPOUND_CID>  (1) 
47692

>  <PUBCHEM_CONFORMER_RMSD>  (1) 
0.8

>  <PUBCHEM_CONFORMER_DIVERSEORDER>  (1) 
2
5
24
8
12
15
16
9
17
25
22
13
19
20
11
23
3
6
1
7
21
10
14
4
18

>  <PUBCHEM_MMFF94_PARTIAL_CHARGES>  (1) 
32
1 -0.57
10 0.1
11 0.09
13 0.1
14 -0.15
15 -0.15
16 0.27
17 0.27
18 -0.15
19 -0.15
2 -0.66
20 -0.15
21 -0.15
22 -0.15
23 -0.15
24 -0.15
3 -0.57
35 0.15
36 0.15
4 -0.81
43 0.15
44 0.15
45 0.15
46 0.15
47 0.15
48 0.15
49 0.15
5 0.3
6 0.3
7 0.37
8 0.27
9 0.54

>  <PUBCHEM_EFFECTIVE_ROTOR_COUNT>  (1) 
4.8

>  <PUBCHEM_PHARMACOPHORE_FEATURES>  (1) 
6
1 1 acceptor
1 3 cation
1 4 cation
6 10 11 14 15 18 19 rings
6 13 20 21 22 23 24 rings
7 2 3 6 7 9 10 11 rings

>  <PUBCHEM_HEAVY_ATOM_COUNT>  (1) 
24

>  <PUBCHEM_ATOM_DEF_STEREO_COUNT>  (1) 
0

>  <PUBCHEM_ATOM_UDEF_STEREO_COUNT>  (1) 
1

>  <PUBCHEM_BOND_DEF_STEREO_COUNT>  (1) 
0

>  <PUBCHEM_BOND_UDEF_STEREO_COUNT>  (1) 
0

>  <PUBCHEM_ISOTOPIC_ATOM_COUNT>  (1) 
0

>  <PUBCHEM_COMPONENT_COUNT>  (1) 
1

>  <PUBCHEM_CACTVS_TAUTO_COUNT>  (1) 
1

>  <PUBCHEM_CONFORMER_ID>  (1) 
0000BA4C00000002

>  <PUBCHEM_MMFF94_ENERGY>  (1) 
97.8648

>  <PUBCHEM_FEATURE_SELFOVERLAP>  (1) 
30.461

>  <PUBCHEM_SHAPE_FINGERPRINT>  (1) 
10498660 4 18267866258233053942
10670039 82 18047206408454889364
10871710 139 18044674206746544404
11045515 52 18049161373554486467
11370993 70 18122898733681230461
11582403 64 17170951449405002593
11725454 13 16953375668995242461
12054548 360 18196930191529914339
12107183 9 17973712594432399130
12156800 1 15944226583666511829
12173636 292 18339355279915466677
12403814 3 18338523039965958691
12788726 201 18189046650209360642
13583140 156 17460041673276277633
138480 1 16681754360525498497
14251751 93 18412270558048637862
14363568 33 17688031229598672529
14790565 3 18340772516767228905
14955137 171 17833010595001584011
15961568 22 17762622098533543796
16728300 4 16090074215715760970
18785283 64 17545895823782909785
20600515 1 17483141587921394959
21029758 27 17979078506880063219
21049683 271 17539413545623322759
21285901 2 17916039029929954590
21524375 3 17971753268209765801
22393880 68 18411426116170881668
2255824 54 17260460376145338519
22907989 373 18411973685160691797
23227448 37 18409166584519615556
23352939 185 17840317935919575673
23557571 272 18338807821919625174
23558518 356 18260828189851809506
23559900 14 18128253373132486034
26353 1 17267476814665671270
266924 78 17406865906649635353
3060560 45 17689147911930795327
340366 18 18119250558933365626
352729 6 18198338459714119187
4409770 3 18339911658854151323
474 4 17907291057700276749
7097593 13 18043799889097525850
7164475 11 18337665412654446706
9981440 41 18050834542948180291

>  <PUBCHEM_SHAPE_MULTIPOLES>  (1) 
473.1
7.54
5.22
1.33
9.26
1.48
-0.06
4.09
-1.51
-5.7
-0.81
0.3
0.12
0.09

>  <PUBCHEM_SHAPE_SELFOVERLAP>  (1) 
1005.927

>  <PUBCHEM_SHAPE_VOLUME>  (1) 
262.9

>  <PUBCHEM_COORDINATE_TYPE>  (1) 
2
5
10

$$$$
