47693
     RDKit          3D

 25 27  0  0  0  0  0  0  0  0999 V2000
   -1.0066    1.4771   -1.7499 O   0  0  0  0  0  0  0  0  0  0  0  0
   -1.1205    0.2114    0.2047 N   0  0  0  0  0  0  0  0  0  0  0  0
    1.7437   -0.2822    0.5214 N   0  0  0  0  0  0  0  0  0  0  0  0
   -4.7100   -0.7059   -0.2560 N   0  0  0  0  0  0  0  0  0  0  0  0
   -0.5685   -0.0533    1.5294 C   0  0  0  0  0  0  0  0  0  0  0  0
   -2.2683   -0.5791   -0.2128 C   0  0  0  0  0  0  0  0  0  0  0  0
    0.7259   -0.8538    1.4305 C   0  0  0  0  0  0  0  0  0  0  0  0
   -3.5739    0.0867    0.1963 C   0  0  0  0  0  0  0  0  0  0  0  0
    1.7537    1.1266    0.3775 C   0  0  0  0  0  0  0  0  0  0  0  0
   -0.5603    1.1610   -0.6491 C   0  0  0  0  0  0  0  0  0  0  0  0
    0.6705    1.8407   -0.1763 C   0  0  0  0  0  0  0  0  0  0  0  0
   -5.9705   -0.0711    0.1343 C   0  0  0  0  0  0  0  0  0  0  0  0
   -4.6388   -2.0653    0.2837 C   0  0  0  0  0  0  0  0  0  0  0  0
    2.7882   -1.1450    0.0887 C   0  0  0  0  0  0  0  0  0  0  0  0
    2.8917    1.8633    0.7627 C   0  0  0  0  0  0  0  0  0  0  0  0
    0.7371    3.2305   -0.3524 C   0  0  0  0  0  0  0  0  0  0  0  0
   -6.0666    1.3421   -0.4151 C   0  0  0  0  0  0  0  0  0  0  0  0
   -5.7818   -2.9219   -0.2339 C   0  0  0  0  0  0  0  0  0  0  0  0
    2.9501    3.2490    0.5995 C   0  0  0  0  0  0  0  0  0  0  0  0
    1.8747    3.9309    0.0401 C   0  0  0  0  0  0  0  0  0  0  0  0
    3.5807   -0.8024   -1.0148 C   0  0  0  0  0  0  0  0  0  0  0  0
    3.0379   -2.3491    0.7601 C   0  0  0  0  0  0  0  0  0  0  0  0
    4.6047   -1.6490   -1.4395 C   0  0  0  0  0  0  0  0  0  0  0  0
    4.0619   -3.1956    0.3354 C   0  0  0  0  0  0  0  0  0  0  0  0
    4.8453   -2.8455   -0.7644 C   0  0  0  0  0  0  0  0  0  0  0  0
  1 10  2  0
  2  5  1  0
  2  6  1  0
  2 10  1  0
  3  7  1  0
  3  9  1  0
  3 14  1  0
  4  8  1  0
  4 12  1  0
  4 13  1  0
  5  7  1  0
  6  8  1  0
  9 11  2  0
  9 15  1  0
 10 11  1  0
 11 16  1  0
 12 17  1  0
 13 18  1  0
 14 21  2  0
 14 22  1  0
 15 19  2  0
 16 20  2  0
 19 20  1  0
 21 23  1  0
 22 24  2  0
 23 25  2  0
 24 25  1  0
M  END
>  <PUBCHEM_COMPOUND_CID>  (1) 
47693

>  <PUBCHEM_CONFORMER_RMSD>  (1) 
0.8

>  <PUBCHEM_CONFORMER_DIVERSEORDER>  (1) 
1
32
65
35
44
66
56
28
63
54
15
16
8
25
34
64
55
2
43
24
48
50
46
14
62
17
7
27
6
31
18
5
3
30
21
52
4
29
58
36
22
49
60
9
57
51
38
40
39
12
47
61
45
33
37
59
23
42
26
11
20
67
13
10
41
53
19

>  <PUBCHEM_MMFF94_PARTIAL_CHARGES>  (1) 
32
1 -0.57
10 0.54
11 0.09
12 0.27
13 0.27
14 0.1
15 -0.15
16 -0.15
19 -0.15
2 -0.66
20 -0.15
21 -0.15
22 -0.15
23 -0.15
24 -0.15
25 -0.15
3 -0.57
38 0.15
39 0.15
4 -0.81
46 0.15
47 0.15
48 0.15
49 0.15
5 0.3
50 0.15
51 0.15
52 0.15
6 0.3
7 0.37
8 0.27
9 0.1

>  <PUBCHEM_EFFECTIVE_ROTOR_COUNT>  (1) 
6.8

>  <PUBCHEM_PHARMACOPHORE_FEATURES>  (1) 
6
1 1 acceptor
1 3 cation
1 4 cation
6 14 21 22 23 24 25 rings
6 9 11 15 16 19 20 rings
7 2 3 5 7 9 10 11 rings

>  <PUBCHEM_HEAVY_ATOM_COUNT>  (1) 
25

>  <PUBCHEM_ATOM_DEF_STEREO_COUNT>  (1) 
0

>  <PUBCHEM_ATOM_UDEF_STEREO_COUNT>  (1) 
0

>  <PUBCHEM_BOND_DEF_STEREO_COUNT>  (1) 
0

>  <PUBCHEM_BOND_UDEF_STEREO_COUNT>  (1) 
0

>  <PUBCHEM_ISOTOPIC_ATOM_COUNT>  (1) 
0

>  <PUBCHEM_COMPONENT_COUNT>  (1) 
1

>  <PUBCHEM_CACTVS_TAUTO_COUNT>  (1) 
1

>  <PUBCHEM_CONFORMER_ID>  (1) 
0000BA4D00000001

>  <PUBCHEM_MMFF94_ENERGY>  (1) 
88.9492

>  <PUBCHEM_FEATURE_SELFOVERLAP>  (1) 
30.461

>  <PUBCHEM_SHAPE_FINGERPRINT>  (1) 
10411042 1 18266739087184982658
11135609 187 18196096766855935888
11405975 8 18413110563594578825
114674 6 18188205515387850570
12107183 9 18270408162129901121
12553582 1 18340194181765913750
12788726 201 17899697851768041930
13009979 54 17917442990250788385
13533116 47 18198623423080129587
13583140 156 17630318873637503817
13590594 115 18265063431322470697
13631057 29 18193285083900720214
13692114 37 17620743320922886674
13955234 65 18198907100536066160
14790565 3 17186159765529291344
17492 89 18339361980787414115
17818456 19 17846224319706870737
17844677 252 18411705409240837451
1813 80 18129953264931006062
20645477 70 18338795731713209299
20775438 99 18119800567507681291
20832881 197 18262239911173142361
21197605 99 17686903130247406443
22182313 1 18188750795666539316
22393880 68 18114173138837813771
22950370 63 18337959982480138047
23352939 185 18342463591066422776
23559900 14 18413383242219921361
3004659 81 17968662597281337298
3421961 26 18412261744322189008
437815 12 18270117894695583375
463206 1 18261676969478437730
465052 167 18273219672695555543
5104073 3 18272938254333765011
59755656 215 18339081604889944660
6443956 14 18408323276286164213
6823239 73 18336538352594432681
7970288 3 18196937673659388934
9709674 26 18262801907971235355

>  <PUBCHEM_SHAPE_MULTIPOLES>  (1) 
493.68
12.39
4.44
1.16
19.57
1.75
0.04
-9.96
2.23
-4.56
0.12
-0.67
-0.12
1.03

>  <PUBCHEM_SHAPE_SELFOVERLAP>  (1) 
1040.638

>  <PUBCHEM_SHAPE_VOLUME>  (1) 
276.1

>  <PUBCHEM_COORDINATE_TYPE>  (1) 
2
5
10

$$$$
