47700
     RDKit          3D

 13 13  0  0  0  0  0  0  0  0999 V2000
   -2.2280    1.0058    0.3151 O   0  0  0  0  0  0  0  0  0  0  0  0
   -0.1072   -1.7949    0.0525 O   0  0  0  0  0  0  0  0  0  0  0  0
    2.3084    1.2481   -0.7736 O   0  0  0  0  0  0  0  0  0  0  0  0
    4.6486   -0.0913   -0.9224 O   0  0  0  0  0  0  0  0  0  0  0  0
    0.2997    0.3172    0.8616 N   0  0  0  0  0  0  0  0  0  0  0  0
    3.7200   -0.3625    0.0915 N   0  0  0  0  0  0  0  0  0  0  0  0
    1.6611    0.0605    1.2278 C   0  0  0  0  0  0  0  0  0  0  0  0
   -1.9030   -0.2507   -0.0086 C   0  0  0  0  0  0  0  0  0  0  0  0
   -0.5203   -0.6564    0.2804 C   0  0  0  0  0  0  0  0  0  0  0  0
   -2.9138   -0.9492   -0.5558 C   0  0  0  0  0  0  0  0  0  0  0  0
    2.5674    0.3844    0.0610 C   0  0  0  0  0  0  0  0  0  0  0  0
   -4.0005   -0.0430   -0.5849 C   0  0  0  0  0  0  0  0  0  0  0  0
   -3.5324    1.1320   -0.0444 C   0  0  0  0  0  0  0  0  0  0  0  0
  1  8  1  0
  1 13  1  0
  2  9  2  0
  3 11  2  0
  4  6  1  0
  5  7  1  0
  5  9  1  0
  6 11  1  0
  7 11  1  0
  8  9  1  0
  8 10  2  0
 10 12  1  0
 12 13  2  0
M  END
>  <PUBCHEM_COMPOUND_CID>  (1) 
47700

>  <PUBCHEM_CONFORMER_RMSD>  (1) 
0.6

>  <PUBCHEM_CONFORMER_DIVERSEORDER>  (1) 
1
11
5
14
4
8
10
16
13
2
15
9
7
12
6
3

>  <PUBCHEM_MMFF94_PARTIAL_CHARGES>  (1) 
19
1 -0.28
10 -0.15
11 0.57
12 -0.15
13 -0.01
16 0.37
17 0.15
18 0.15
19 0.15
2 -0.57
20 0.37
21 0.4
3 -0.57
4 -0.44
5 -0.73
6 -0.39
7 0.36
8 0.05
9 0.71

>  <PUBCHEM_EFFECTIVE_ROTOR_COUNT>  (1) 
5

>  <PUBCHEM_PHARMACOPHORE_FEATURES>  (1) 
6
1 1 acceptor
1 2 acceptor
1 3 acceptor
1 5 donor
1 6 donor
5 1 8 10 12 13 rings

>  <PUBCHEM_HEAVY_ATOM_COUNT>  (1) 
13

>  <PUBCHEM_ATOM_DEF_STEREO_COUNT>  (1) 
0

>  <PUBCHEM_ATOM_UDEF_STEREO_COUNT>  (1) 
0

>  <PUBCHEM_BOND_DEF_STEREO_COUNT>  (1) 
0

>  <PUBCHEM_BOND_UDEF_STEREO_COUNT>  (1) 
0

>  <PUBCHEM_ISOTOPIC_ATOM_COUNT>  (1) 
0

>  <PUBCHEM_COMPONENT_COUNT>  (1) 
1

>  <PUBCHEM_CACTVS_TAUTO_COUNT>  (1) 
6

>  <PUBCHEM_CONFORMER_ID>  (1) 
0000BA5400000001

>  <PUBCHEM_MMFF94_ENERGY>  (1) 
16.5465

>  <PUBCHEM_FEATURE_SELFOVERLAP>  (1) 
30.446

>  <PUBCHEM_SHAPE_FINGERPRINT>  (1) 
11062470 55 8862944991571795491
12251169 10 10809346641490352987
12932764 1 16226314984801581395
13214271 11 12035447254985980035
13549 16 18411985737076268430
13705890 14 15841262739883799482
14252887 29 10809623658233176592
14325111 11 18411975879862450217
14993402 34 18186515527302717357
15775835 57 17821445763711159749
18186145 218 18060696199754448889
1986462 14 17989485234339259381
200 152 14692571009280145322
20201158 50 16845577517187469238
20279233 1 16272208604413545157
20645476 183 18260263079266106931
20645477 70 16487255482589185348
20671657 53 15841557379230619912
20711985 327 11167936982917411498
21119208 17 18410573980909335428
21501925 9 8502364547115603963
22959321 60 13118002210132765398
23402539 116 18272364257170582852
23559900 14 17989202660373095696
449060 50 14345797132175622915
57812782 119 17275382114190514004
93112 12 18411699932524512638
9882013 296 11818998491031835472

>  <PUBCHEM_SHAPE_MULTIPOLES>  (1) 
234.09
7.88
1.2
0.91
3.47
0.14
-0.06
-0.84
2.4
-0.5
0.06
0.48
-0.06
-0.24

>  <PUBCHEM_SHAPE_SELFOVERLAP>  (1) 
483.113

>  <PUBCHEM_SHAPE_VOLUME>  (1) 
134.5

>  <PUBCHEM_COORDINATE_TYPE>  (1) 
2
5
10

$$$$
