47712
     RDKit          3D

 27 28  0  0  0  0  0  0  0  0999 V2000
    0.2507   -2.0427   -0.4487 O   0  0  0  0  0  0  0  0  0  0  0  0
    3.3067    1.5686   -0.2521 O   0  0  0  0  0  0  0  0  0  0  0  0
    2.0829   -3.3755   -0.1373 O   0  0  0  0  0  0  0  0  0  0  0  0
   -3.9055   -1.4823    0.2121 N   0  0  0  0  0  0  0  0  0  0  0  0
    2.2510   -1.0430   -0.2444 N   0  0  0  0  0  0  0  0  0  0  0  0
   -3.9721   -0.3549   -0.7277 C   0  0  0  0  0  0  0  0  0  0  0  0
   -4.5474   -1.2219    1.5063 C   0  0  0  0  0  0  0  0  0  0  0  0
   -5.3506   -0.2296   -1.3757 C   0  0  0  0  0  0  0  0  0  0  0  0
   -6.0447   -0.9033    1.4492 C   0  0  0  0  0  0  0  0  0  0  0  0
   -6.3702    0.6004   -0.6034 C   0  0  0  0  0  0  0  0  0  0  0  0
   -6.3386    0.4927    0.9155 C   0  0  0  0  0  0  0  0  0  0  0  0
   -2.5071   -1.8688    0.4319 C   0  0  0  0  0  0  0  0  0  0  0  0
   -2.0196   -2.7617   -0.7046 C   0  0  0  0  0  0  0  0  0  0  0  0
   -0.5761   -3.1975   -0.4929 C   0  0  0  0  0  0  0  0  0  0  0  0
    0.8681    3.0653    0.2459 C   0  0  0  0  0  0  0  0  0  0  0  0
   -0.1598    4.1262   -0.1575 C   0  0  0  0  0  0  0  0  0  0  0  0
    2.2774    3.6248    0.4330 C   0  0  0  0  0  0  0  0  0  0  0  0
   -1.5750    3.5705   -0.3208 C   0  0  0  0  0  0  0  0  0  0  0  0
    3.2692    2.5292    0.8009 C   0  0  0  0  0  0  0  0  0  0  0  0
    1.5953   -2.2587   -0.2620 C   0  0  0  0  0  0  0  0  0  0  0  0
   -2.5420    4.6465   -0.7914 C   0  0  0  0  0  0  0  0  0  0  0  0
    3.6339   -0.8023   -0.0780 C   0  0  0  0  0  0  0  0  0  0  0  0
    4.1354    0.4994   -0.0853 C   0  0  0  0  0  0  0  0  0  0  0  0
    5.5027    0.7208    0.0802 C   0  0  0  0  0  0  0  0  0  0  0  0
    4.4998   -1.8823    0.0945 C   0  0  0  0  0  0  0  0  0  0  0  0
    6.3685   -0.3592    0.2525 C   0  0  0  0  0  0  0  0  0  0  0  0
    5.8671   -1.6607    0.2597 C   0  0  0  0  0  0  0  0  0  0  0  0
  1 14  1  0
  1 20  1  0
  2 19  1  0
  2 23  1  0
  3 20  2  0
  4  6  1  0
  4  7  1  0
  4 12  1  0
  5 20  1  0
  5 22  1  0
  6  8  1  0
  7  9  1  0
  8 10  1  0
  9 11  1  0
 10 11  1  0
 12 13  1  0
 13 14  1  0
 15 16  1  0
 15 17  1  0
 16 18  1  0
 17 19  1  0
 18 21  1  0
 22 23  2  0
 22 25  1  0
 23 24  1  0
 24 26  2  0
 25 27  2  0
 26 27  1  0
M  END
>  <PUBCHEM_COMPOUND_CID>  (1) 
47712

>  <PUBCHEM_CONFORMER_RMSD>  (1) 
1.2

>  <PUBCHEM_CONFORMER_DIVERSEORDER>  (1) 
1
76
6
66
77
63
25
86
10
17
69
48
68
33
53
8
72
39
82
28
79
15
80
30
57
61
32
34
50
75
85
45
84
78
2
18
19
51
64
54
27
65
26
35
62
73
67
71
60
4
43
22
9
13
24
14
36
11
59
40
46
74
56
16
38
52
55
49
81
20
7
21
12
41
37
70
83
3
23
31
5
42
44
29
58
47

>  <PUBCHEM_MMFF94_PARTIAL_CHARGES>  (1) 
22
1 -0.43
12 0.27
14 0.28
19 0.28
2 -0.36
20 0.78
22 0.12
23 0.08
24 -0.15
25 -0.15
26 -0.15
27 -0.15
3 -0.57
4 -0.81
5 -0.55
59 0.37
6 0.27
60 0.15
61 0.15
62 0.15
63 0.15
7 0.27

>  <PUBCHEM_EFFECTIVE_ROTOR_COUNT>  (1) 
14.4

>  <PUBCHEM_PHARMACOPHORE_FEATURES>  (1) 
8
1 2 acceptor
1 21 hydrophobe
1 3 acceptor
1 4 cation
1 5 donor
4 15 16 17 18 hydrophobe
6 22 23 24 25 26 27 rings
7 4 6 7 8 9 10 11 rings

>  <PUBCHEM_HEAVY_ATOM_COUNT>  (1) 
27

>  <PUBCHEM_ATOM_DEF_STEREO_COUNT>  (1) 
0

>  <PUBCHEM_ATOM_UDEF_STEREO_COUNT>  (1) 
0

>  <PUBCHEM_BOND_DEF_STEREO_COUNT>  (1) 
0

>  <PUBCHEM_BOND_UDEF_STEREO_COUNT>  (1) 
0

>  <PUBCHEM_ISOTOPIC_ATOM_COUNT>  (1) 
0

>  <PUBCHEM_COMPONENT_COUNT>  (1) 
1

>  <PUBCHEM_CACTVS_TAUTO_COUNT>  (1) 
2

>  <PUBCHEM_CONFORMER_ID>  (1) 
0000BA6000000001

>  <PUBCHEM_MMFF94_ENERGY>  (1) 
53.3419

>  <PUBCHEM_FEATURE_SELFOVERLAP>  (1) 
40.594

>  <PUBCHEM_SHAPE_FINGERPRINT>  (1) 
12596602 18 14417853656814531191
12925494 130 18339082700686340963
13402501 40 18408882936468521813
14117953 113 18343025466829516750
150020 26 17974300016835185681
15274700 232 16613079964252970398
15320467 1 18411134706085742581
15419008 145 18263355902954742130
15475509 84 18118111490551532530
15483637 11 18122343471603685597
16087824 20 18411983529379085000
16760501 71 18339932635838292243
16993438 75 18191309268977423817
18335252 114 18340478993826646999
20721686 56 18408601496405534889
20764821 26 18194107732344309381
21344244 246 18196076967356641783
21585483 110 18408877430890303805
2838139 119 18413384337431768175
373842 8 18120081797765305306
3882209 13 13358356079304806469
437795 96 18408037425481525433
550186 83 17896016892965399712

>  <PUBCHEM_SHAPE_MULTIPOLES>  (1) 
528.08
16.32
5.78
1.03
5.78
6.41
-0.15
-4.09
-2.57
-0.26
0.79
1.65
-0.09
1.22

>  <PUBCHEM_SHAPE_SELFOVERLAP>  (1) 
1050.467

>  <PUBCHEM_SHAPE_VOLUME>  (1) 
311.5

>  <PUBCHEM_COORDINATE_TYPE>  (1) 
2
5
10

$$$$
