47719
     RDKit          3D

 11 11  0  0  0  0  0  0  0  0999 V2000
   -4.0308   -0.5396    1.0286 Br  0  0  0  0  0  0  0  0  0  0  0  0
    2.5580    0.2539    0.2650 C   0  0  0  0  0  0  0  0  0  0  0  0
    1.0842    0.2033    0.0421 C   0  0  0  0  0  0  0  0  0  0  0  0
    3.3577    0.0414   -1.0343 C   0  0  0  0  0  0  0  0  0  0  0  0
    3.0264   -0.7488    1.3366 C   0  0  0  0  0  0  0  0  0  0  0  0
    0.4903   -0.9668   -0.4311 C   0  0  0  0  0  0  0  0  0  0  0  0
    0.2999    1.3259    0.3068 C   0  0  0  0  0  0  0  0  0  0  0  0
   -1.6726    0.1085   -0.3747 C   0  0  0  0  0  0  0  0  0  0  0  0
   -0.8882   -1.0142   -0.6395 C   0  0  0  0  0  0  0  0  0  0  0  0
   -1.0786    1.2785    0.0984 C   0  0  0  0  0  0  0  0  0  0  0  0
   -3.1462    0.0578   -0.5978 C   0  0  0  0  0  0  0  0  0  0  0  0
  1 11  1  0
  2  3  1  0
  2  4  1  0
  2  5  1  0
  3  6  2  0
  3  7  1  0
  6  9  1  0
  7 10  2  0
  8  9  2  0
  8 10  1  0
  8 11  1  0
M  END
>  <PUBCHEM_COMPOUND_CID>  (1) 
47719

>  <PUBCHEM_CONFORMER_RMSD>  (1) 
0.4

>  <PUBCHEM_CONFORMER_DIVERSEORDER>  (1) 
1
2
5
6
4
3

>  <PUBCHEM_MMFF94_PARTIAL_CHARGES>  (1) 
13
1 -0.23
10 -0.15
11 0.37
19 0.15
2 0.14
20 0.15
21 0.15
22 0.15
3 -0.14
6 -0.15
7 -0.15
8 -0.14
9 -0.15

>  <PUBCHEM_EFFECTIVE_ROTOR_COUNT>  (1) 
2

>  <PUBCHEM_PHARMACOPHORE_FEATURES>  (1) 
3
1 1 hydrophobe
3 2 4 5 hydrophobe
6 3 6 7 8 9 10 rings

>  <PUBCHEM_HEAVY_ATOM_COUNT>  (1) 
11

>  <PUBCHEM_ATOM_DEF_STEREO_COUNT>  (1) 
0

>  <PUBCHEM_ATOM_UDEF_STEREO_COUNT>  (1) 
0

>  <PUBCHEM_BOND_DEF_STEREO_COUNT>  (1) 
0

>  <PUBCHEM_BOND_UDEF_STEREO_COUNT>  (1) 
0

>  <PUBCHEM_ISOTOPIC_ATOM_COUNT>  (1) 
0

>  <PUBCHEM_COMPONENT_COUNT>  (1) 
1

>  <PUBCHEM_CACTVS_TAUTO_COUNT>  (1) 
1

>  <PUBCHEM_CONFORMER_ID>  (1) 
0000BA6700000001

>  <PUBCHEM_MMFF94_ENERGY>  (1) 
24.172

>  <PUBCHEM_FEATURE_SELFOVERLAP>  (1) 
15.223

>  <PUBCHEM_SHAPE_FINGERPRINT>  (1) 
10130415 120 18412822512210723473
10219947 1 18272933834258262453
10857977 72 18272079500611816257
11062470 55 12901545762714399367
11132069 177 17917985079611251845
11543360 7 16153431674737501527
11769659 78 16950274105300835539
12032990 46 18342746212477608879
124424 183 18187632588604714605
12932764 1 18335129929665031868
13705890 14 16515682247333659922
13760787 19 17603587413387544667
15310529 11 17458338637149570924
16945 1 18272644645251282413
17844478 74 18334860515389199941
18186145 218 16415480432579218041
19026448 4 16588016909817328375
19026448 5 16805603646673024805
19422 9 17603302622395310265
20281407 28 18040435525112528563
20645476 183 18041002881586753950
21256008 23 18271255988225549801
22485316 2 17458344169563326891
23402655 69 8069486759827353347
23552423 10 18119519092698749436
2748010 2 17984985882123419029
369184 2 16878220883513149852

>  <PUBCHEM_SHAPE_MULTIPOLES>  (1) 
232.32
6.3
1.2
1.11
1.92
0.12
-0.11
-1.34
-1.07
0.06
-0.15
-0.21
-0.21
-0.11

>  <PUBCHEM_SHAPE_SELFOVERLAP>  (1) 
455.721

>  <PUBCHEM_SHAPE_VOLUME>  (1) 
142.2

>  <PUBCHEM_COORDINATE_TYPE>  (1) 
2
5
10

$$$$
