47716
     RDKit          3D

 29 30  0  0  0  0  0  0  0  0999 V2000
   -0.9036   -2.2479    0.4985 O   0  0  0  0  0  0  0  0  0  0  0  0
   -3.3790    1.7648    0.1878 O   0  0  0  0  0  0  0  0  0  0  0  0
   -2.9145   -3.3127    0.2692 O   0  0  0  0  0  0  0  0  0  0  0  0
    3.2814   -2.3541   -0.2393 N   0  0  0  0  0  0  0  0  0  0  0  0
   -2.7464   -0.9738    0.2761 N   0  0  0  0  0  0  0  0  0  0  0  0
    3.5336   -1.2122    0.6503 C   0  0  0  0  0  0  0  0  0  0  0  0
    3.9299   -2.2455   -1.5517 C   0  0  0  0  0  0  0  0  0  0  0  0
    4.9276   -1.2688    1.2744 C   0  0  0  0  0  0  0  0  0  0  0  0
    5.4588   -2.1529   -1.5278 C   0  0  0  0  0  0  0  0  0  0  0  0
    6.0445   -0.6329    0.4538 C   0  0  0  0  0  0  0  0  0  0  0  0
    5.9679   -0.7961   -1.0584 C   0  0  0  0  0  0  0  0  0  0  0  0
    1.8370   -2.5352   -0.4240 C   0  0  0  0  0  0  0  0  0  0  0  0
    1.2438   -3.2982    0.7561 C   0  0  0  0  0  0  0  0  0  0  0  0
   -0.2524   -3.5209    0.5822 C   0  0  0  0  0  0  0  0  0  0  0  0
    0.3842    3.8194   -0.0641 C   0  0  0  0  0  0  0  0  0  0  0  0
    1.7350    3.1207    0.1169 C   0  0  0  0  0  0  0  0  0  0  0  0
   -0.7563    2.8591   -0.4092 C   0  0  0  0  0  0  0  0  0  0  0  0
    2.8891    4.0877    0.3891 C   0  0  0  0  0  0  0  0  0  0  0  0
   -2.0729    3.6104   -0.6011 C   0  0  0  0  0  0  0  0  0  0  0  0
    4.2219    3.3442    0.4891 C   0  0  0  0  0  0  0  0  0  0  0  0
   -3.2229    2.6604   -0.9042 C   0  0  0  0  0  0  0  0  0  0  0  0
    5.3786    4.3033    0.7215 C   0  0  0  0  0  0  0  0  0  0  0  0
   -2.2634   -2.2774    0.3394 C   0  0  0  0  0  0  0  0  0  0  0  0
   -4.3665    0.8206    0.0772 C   0  0  0  0  0  0  0  0  0  0  0  0
   -4.0652   -0.5407    0.1194 C   0  0  0  0  0  0  0  0  0  0  0  0
   -5.6885    1.2377   -0.0797 C   0  0  0  0  0  0  0  0  0  0  0  0
   -5.0856   -1.4848    0.0048 C   0  0  0  0  0  0  0  0  0  0  0  0
   -6.7088    0.2935   -0.1942 C   0  0  0  0  0  0  0  0  0  0  0  0
   -6.4074   -1.0676   -0.1520 C   0  0  0  0  0  0  0  0  0  0  0  0
  1 14  1  0
  1 23  1  0
  2 21  1  0
  2 24  1  0
  3 23  2  0
  4  6  1  0
  4  7  1  0
  4 12  1  0
  5 23  1  0
  5 25  1  0
  6  8  1  0
  7  9  1  0
  8 10  1  0
  9 11  1  0
 10 11  1  0
 12 13  1  0
 13 14  1  0
 15 16  1  0
 15 17  1  0
 16 18  1  0
 17 19  1  0
 18 20  1  0
 19 21  1  0
 20 22  1  0
 24 25  2  0
 24 26  1  0
 25 27  1  0
 26 28  2  0
 27 29  2  0
 28 29  1  0
M  END
>  <PUBCHEM_COMPOUND_CID>  (1) 
47716

>  <PUBCHEM_CONFORMER_RMSD>  (1) 
1.4

>  <PUBCHEM_CONFORMER_DIVERSEORDER>  (1) 
1
9
55
39
31
30
41
2
48
72
54
42
67
53
26
38
20
7
10
23
5
59
4
60
56
68
3
58
22
17
47
71
28
44
66
64
21
45
15
34
62
29
14
50
49
11
16
43
32
46
70
61
24
13
27
25
33
36
52
65
35
37
12
18
19
51
40
69
8
6
57
63

>  <PUBCHEM_MMFF94_PARTIAL_CHARGES>  (1) 
22
1 -0.43
12 0.27
14 0.28
2 -0.36
21 0.28
23 0.78
24 0.08
25 0.12
26 -0.15
27 -0.15
28 -0.15
29 -0.15
3 -0.57
4 -0.81
5 -0.55
6 0.27
65 0.37
66 0.15
67 0.15
68 0.15
69 0.15
7 0.27

>  <PUBCHEM_EFFECTIVE_ROTOR_COUNT>  (1) 
16.4

>  <PUBCHEM_PHARMACOPHORE_FEATURES>  (1) 
9
1 2 acceptor
1 22 hydrophobe
1 3 acceptor
1 4 cation
1 5 donor
3 15 17 19 hydrophobe
3 16 18 20 hydrophobe
6 24 25 26 27 28 29 rings
7 4 6 7 8 9 10 11 rings

>  <PUBCHEM_HEAVY_ATOM_COUNT>  (1) 
29

>  <PUBCHEM_ATOM_DEF_STEREO_COUNT>  (1) 
0

>  <PUBCHEM_ATOM_UDEF_STEREO_COUNT>  (1) 
0

>  <PUBCHEM_BOND_DEF_STEREO_COUNT>  (1) 
0

>  <PUBCHEM_BOND_UDEF_STEREO_COUNT>  (1) 
0

>  <PUBCHEM_ISOTOPIC_ATOM_COUNT>  (1) 
0

>  <PUBCHEM_COMPONENT_COUNT>  (1) 
1

>  <PUBCHEM_CACTVS_TAUTO_COUNT>  (1) 
2

>  <PUBCHEM_CONFORMER_ID>  (1) 
0000BA6400000001

>  <PUBCHEM_MMFF94_ENERGY>  (1) 
52.3039

>  <PUBCHEM_FEATURE_SELFOVERLAP>  (1) 
45.683

>  <PUBCHEM_SHAPE_FINGERPRINT>  (1) 
10049733 57 18262252130502910107
10670039 82 18190189979426189454
10864689 126 17978507533895798836
11513181 2 18127690650142003302
13402501 40 18411697651707123867
13561361 72 18336537262189989824
14394314 77 18193285092132218149
14647877 51 18412267272235496164
14739800 52 18187919534906407786
14747282 125 18196956554124132518
15001296 14 18261669384834490680
15274700 256 18337389328901448706
15274700 259 17243560999129927461
15320467 1 18409727331149201408
15326923 133 18272089435557260016
15961568 22 18338237046773414327
16067689 134 17621324537631667865
16067689 302 18268431425113033759
16112460 7 18341625818619139673
20642791 35 18408884044612444531
20721686 56 18263080071395915299
21344244 246 18195234754261093495
23559900 14 18412822495547715065
373842 8 18338797934857358969
437795 96 18338236089190385672
44249763 50 17988064678086023918
532947 4 18337672027056757889
53794403 172 18337674229932096464
5776283 40 18336557096570365684
9961470 85 18266737064165741449

>  <PUBCHEM_SHAPE_MULTIPOLES>  (1) 
569.24
16.73
6.82
1.04
4.43
5.5
0.21
-1.21
1.28
-6.2
-0.52
-1.44
-0.41
2.54

>  <PUBCHEM_SHAPE_SELFOVERLAP>  (1) 
1126.146

>  <PUBCHEM_SHAPE_VOLUME>  (1) 
337.4

>  <PUBCHEM_COORDINATE_TYPE>  (1) 
2
5
10

$$$$
