47718
     RDKit          3D

 28 29  0  0  1  0  0  0  0  0999 V2000
    0.1015    0.8452    0.3420 O   0  0  0  0  0  0  0  0  0  0  0  0
   -4.3729   -0.6259    0.8203 O   0  0  0  0  0  0  0  0  0  0  0  0
   -0.8115    2.8178   -0.3684 O   0  0  0  0  0  0  0  0  0  0  0  0
    3.7853    0.8438    0.3585 N   0  0  0  0  0  0  0  0  0  0  0  0
   -2.1371    0.9957    0.2665 N   0  0  0  0  0  0  0  0  0  0  0  0
    6.6143    0.8790   -0.3936 C   0  0  0  0  0  0  0  0  0  0  0  0
    4.7722    0.2044    1.2488 C   0  0  0  0  0  0  0  0  0  0  0  0
    6.1473    0.8773    1.0676 C   0  0  0  0  0  0  0  0  0  0  0  0
    5.5238    1.4867   -1.2805 C   0  0  0  0  0  0  0  0  0  0  0  0
    4.1702    0.8109   -1.0563 C   0  0  0  0  0  0  0  0  0  0  0  0
    2.4295    0.3347    0.5455 C   0  0  0  0  0  0  0  0  0  0  0  0
    7.9287    1.6417   -0.5453 C   0  0  0  0  0  0  0  0  0  0  0  0
    4.8828   -1.3224    1.1164 C   0  0  0  0  0  0  0  0  0  0  0  0
    1.4028    1.3881    0.1610 C   0  0  0  0  0  0  0  0  0  0  0  0
   -0.9539    1.6711    0.0382 C   0  0  0  0  0  0  0  0  0  0  0  0
   -1.7456   -3.9225   -0.1233 C   0  0  0  0  0  0  0  0  0  0  0  0
   -2.6005   -2.6607   -0.2584 C   0  0  0  0  0  0  0  0  0  0  0  0
   -0.2862   -3.7166   -0.5391 C   0  0  0  0  0  0  0  0  0  0  0  0
   -4.0384   -2.9160    0.1910 C   0  0  0  0  0  0  0  0  0  0  0  0
    0.5851   -4.9565   -0.3347 C   0  0  0  0  0  0  0  0  0  0  0  0
   -4.9083   -1.6785    0.0214 C   0  0  0  0  0  0  0  0  0  0  0  0
   -3.4573    1.4674    0.0860 C   0  0  0  0  0  0  0  0  0  0  0  0
   -4.5503    0.6472    0.3664 C   0  0  0  0  0  0  0  0  0  0  0  0
    2.0370   -4.6789   -0.6940 C   0  0  0  0  0  0  0  0  0  0  0  0
   -3.6614    2.7670   -0.3777 C   0  0  0  0  0  0  0  0  0  0  0  0
   -5.8473    1.1268    0.1832 C   0  0  0  0  0  0  0  0  0  0  0  0
   -4.9586    3.2465   -0.5609 C   0  0  0  0  0  0  0  0  0  0  0  0
   -6.0513    2.4265   -0.2806 C   0  0  0  0  0  0  0  0  0  0  0  0
  1 14  1  0
  1 15  1  0
  2 21  1  0
  2 23  1  0
  3 15  2  0
  4  7  1  0
  4 10  1  0
  4 11  1  0
  5 15  1  0
  5 22  1  0
  6  8  1  0
  6  9  1  0
  6 12  1  0
  7  8  1  0
  7 13  1  0
  9 10  1  0
 11 14  1  0
 16 17  1  0
 16 18  1  0
 17 19  1  0
 18 20  1  0
 19 21  1  0
 20 24  1  0
 22 23  2  0
 22 25  1  0
 23 26  1  0
 25 27  2  0
 26 28  2  0
 27 28  1  0
M  END
>  <PUBCHEM_COMPOUND_CID>  (1) 
47718

>  <PUBCHEM_CONFORMER_RMSD>  (1) 
1.4

>  <PUBCHEM_CONFORMER_DIVERSEORDER>  (1) 
2
71
90
53
30
82
15
69
37
19
77
83
110
85
65
59
78
70
60
31
17
24
106
32
87
99
28
104
91
84
7
107
95
56
62
74
42
92
108
89
46
109
50
103
79
86
23
41
26
10
88
72
96
64
47
93
94
29
40
100
67
33
51
36
3
1
61
14
39
49
101
81
11
75
55
66
57
27
73
16
97
98
76
68
38
45
80
22
34
9
43
58
20
35
63
12
4
5
8
21
44
48
102
13
18
105
6
25
52
54

>  <PUBCHEM_MMFF94_PARTIAL_CHARGES>  (1) 
22
1 -0.43
10 0.27
11 0.27
14 0.28
15 0.78
2 -0.36
21 0.28
22 0.12
23 0.08
25 -0.15
26 -0.15
27 -0.15
28 -0.15
3 -0.57
4 -0.81
5 -0.55
59 0.37
63 0.15
64 0.15
65 0.15
66 0.15
7 0.27

>  <PUBCHEM_EFFECTIVE_ROTOR_COUNT>  (1) 
14.2

>  <PUBCHEM_PHARMACOPHORE_FEATURES>  (1) 
8
1 2 acceptor
1 24 hydrophobe
1 3 acceptor
1 4 cation
1 5 donor
5 16 17 18 19 20 hydrophobe
6 22 23 25 26 27 28 rings
6 4 6 7 8 9 10 rings

>  <PUBCHEM_HEAVY_ATOM_COUNT>  (1) 
28

>  <PUBCHEM_ATOM_DEF_STEREO_COUNT>  (1) 
0

>  <PUBCHEM_ATOM_UDEF_STEREO_COUNT>  (1) 
2

>  <PUBCHEM_BOND_DEF_STEREO_COUNT>  (1) 
0

>  <PUBCHEM_BOND_UDEF_STEREO_COUNT>  (1) 
0

>  <PUBCHEM_ISOTOPIC_ATOM_COUNT>  (1) 
0

>  <PUBCHEM_COMPONENT_COUNT>  (1) 
1

>  <PUBCHEM_CACTVS_TAUTO_COUNT>  (1) 
2

>  <PUBCHEM_CONFORMER_ID>  (1) 
0000BA6600000002

>  <PUBCHEM_MMFF94_ENERGY>  (1) 
50.2171

>  <PUBCHEM_FEATURE_SELFOVERLAP>  (1) 
40.595

>  <PUBCHEM_SHAPE_FINGERPRINT>  (1) 
10939801 23 18192712469795609360
10940486 97 18263362654026536069
11014199 57 17474948104760363506
11200772 71 17973738153640093020
11524674 6 17917990586028396709
11719270 70 18339355258809622416
12522641 33 18337101256548620413
14251757 5 18193842767327443938
14647877 51 18196653986705662975
14725015 67 18054226802840436719
15400415 2 18339075978187186393
15439362 3 18049159965459601061
15927050 60 18342734088001925031
16067689 302 18342176636629899007
16719943 64 18338516442722443171
17627616 140 18339361868411746491
20511986 3 17749659753535932328
20609170 92 18261104120916719901
20771845 165 17971752165184607557
21057603 95 17623017789959621545
21344244 246 18339627942816648591
23516275 137 18118704144271953082
23559900 14 17762891066474810673
23569943 247 14691465932098182124
3298306 158 18271805683725649543
338550 245 18408041806137404662
3882209 13 16760533849065567246
397830 11 17915732279382125264
4403749 210 18339067298311475840
5085150 59 18411971469210936715
5265222 85 18339365282873310504

>  <PUBCHEM_SHAPE_MULTIPOLES>  (1) 
548.66
18.32
5.98
0.98
18.51
9.69
-0.03
-14.2
0.17
-4.71
1.63
1.26
-0.06
0.02

>  <PUBCHEM_SHAPE_SELFOVERLAP>  (1) 
1094.123

>  <PUBCHEM_SHAPE_VOLUME>  (1) 
324.5

>  <PUBCHEM_COORDINATE_TYPE>  (1) 
2
5
10

$$$$
