47722
     RDKit          3D

 23 27  0  0  1  0  0  0  0  0999 V2000
    3.3932    1.7952   -1.0947 O   0  0  0  0  0  0  0  0  0  0  0  0
    4.1654   -0.1241    1.9401 O   0  0  0  0  0  0  0  0  0  0  0  0
    3.5346   -1.1385   -1.4894 O   0  0  0  0  0  0  0  0  0  0  0  0
    3.8044    1.4977    0.2422 C   0  0  0  0  0  0  0  0  0  0  0  0
    2.3777    1.8608   -0.0723 C   0  0  0  0  0  0  0  0  0  0  0  0
    4.1545    0.0683    0.5238 C   0  0  0  0  0  0  0  0  0  0  0  0
    1.3483    0.7625   -0.0498 C   0  0  0  0  0  0  0  0  0  0  0  0
    3.2024   -0.9632   -0.1127 C   0  0  0  0  0  0  0  0  0  0  0  0
    1.7363   -0.5872   -0.0461 C   0  0  0  0  0  0  0  0  0  0  0  0
   -0.0288    1.0559   -0.0256 C   0  0  0  0  0  0  0  0  0  0  0  0
    0.7611   -1.5919   -0.0334 C   0  0  0  0  0  0  0  0  0  0  0  0
   -1.0418    0.0624   -0.0018 C   0  0  0  0  0  0  0  0  0  0  0  0
   -0.6081   -1.2847   -0.0072 C   0  0  0  0  0  0  0  0  0  0  0  0
   -0.3085    2.5297   -0.0643 C   0  0  0  0  0  0  0  0  0  0  0  0
   -2.4543    0.3453    0.0250 C   0  0  0  0  0  0  0  0  0  0  0  0
    1.2065   -3.0288   -0.0670 C   0  0  0  0  0  0  0  0  0  0  0  0
   -1.5455   -2.3210    0.0110 C   0  0  0  0  0  0  0  0  0  0  0  0
   -3.3767   -0.7335    0.0440 C   0  0  0  0  0  0  0  0  0  0  0  0
   -2.9093   -2.0496    0.0364 C   0  0  0  0  0  0  0  0  0  0  0  0
   -3.0049    1.6517    0.0341 C   0  0  0  0  0  0  0  0  0  0  0  0
   -4.7609   -0.4916    0.0698 C   0  0  0  0  0  0  0  0  0  0  0  0
   -4.3838    1.8785    0.0600 C   0  0  0  0  0  0  0  0  0  0  0  0
   -5.2620    0.8062    0.0779 C   0  0  0  0  0  0  0  0  0  0  0  0
  1  4  1  0
  1  5  1  0
  2  6  1  0
  3  8  1  0
  4  5  1  0
  4  6  1  0
  5  7  1  0
  6  8  1  0
  7  9  2  0
  7 10  1  0
  8  9  1  0
  9 11  1  0
 10 12  2  0
 10 14  1  0
 11 13  2  0
 11 16  1  0
 12 13  1  0
 12 15  1  0
 13 17  1  0
 15 18  2  0
 15 20  1  0
 17 19  2  0
 18 19  1  0
 18 21  1  0
 20 22  2  0
 21 23  2  0
 22 23  1  0
M  END
>  <PUBCHEM_COMPOUND_CID>  (1) 
47722

>  <PUBCHEM_CONFORMER_RMSD>  (1) 
0.6

>  <PUBCHEM_CONFORMER_DIVERSEORDER>  (1) 
1
2

>  <PUBCHEM_MMFF94_PARTIAL_CHARGES>  (1) 
29
1 -0.3
10 -0.14
11 -0.14
14 0.14
16 0.14
17 -0.15
19 -0.15
2 -0.68
20 -0.15
21 -0.15
22 -0.15
23 -0.15
24 0.1
25 0.1
28 0.4
3 -0.68
32 0.4
36 0.15
37 0.15
38 0.15
39 0.15
4 -0.05
40 0.15
41 0.15
5 0.08
6 0.38
7 -0.03
8 0.42
9 -0.14

>  <PUBCHEM_EFFECTIVE_ROTOR_COUNT>  (1) 
0.6

>  <PUBCHEM_PHARMACOPHORE_FEATURES>  (1) 
9
1 1 acceptor
1 2 acceptor
1 2 donor
1 3 acceptor
1 3 donor
6 12 13 15 17 18 19 rings
6 15 18 20 21 22 23 rings
6 7 9 10 11 12 13 rings
7 1 4 5 6 7 8 9 rings

>  <PUBCHEM_HEAVY_ATOM_COUNT>  (1) 
23

>  <PUBCHEM_ATOM_DEF_STEREO_COUNT>  (1) 
3

>  <PUBCHEM_ATOM_UDEF_STEREO_COUNT>  (1) 
1

>  <PUBCHEM_BOND_DEF_STEREO_COUNT>  (1) 
0

>  <PUBCHEM_BOND_UDEF_STEREO_COUNT>  (1) 
0

>  <PUBCHEM_ISOTOPIC_ATOM_COUNT>  (1) 
0

>  <PUBCHEM_COMPONENT_COUNT>  (1) 
1

>  <PUBCHEM_CACTVS_TAUTO_COUNT>  (1) 
1

>  <PUBCHEM_CONFORMER_ID>  (1) 
0000BA6A00000001

>  <PUBCHEM_MMFF94_ENERGY>  (1) 
105.896

>  <PUBCHEM_FEATURE_SELFOVERLAP>  (1) 
45.729

>  <PUBCHEM_SHAPE_FINGERPRINT>  (1) 
10062212 137 18336537321908003763
10411042 1 16825307711841606387
10616163 171 18265900331252842271
10646746 165 18410856581299313886
10759866 29 17968945317850804740
10967382 1 18410576145709898631
11132069 177 18412543206313712563
11370993 70 18411696586813671283
11578080 2 13469036639208603225
12236239 1 17894348895640108712
12403814 3 17748820822200833325
12592029 89 18335704918633564219
12633257 1 18187636990424083626
13140716 1 18409161143048830474
13224815 77 18260271875242551793
13583140 156 16486681575863182735
138480 1 17762056536817805191
14178342 30 18050558552671164512
14790565 3 18337680800958220580
15196674 1 18410576206039913831
15256400 18 18411418367264071313
15375358 24 18413388730908660911
15536298 74 18343867697078852407
1601671 61 18410013212825706636
16945 1 18337392621805981982
17349148 13 18411972563978970489
17492 89 18337112387854085874
1813 80 17167864153449677876
18186145 218 18335419045383346037
18681886 176 18411418458123152752
19591789 44 18410857663741959223
19784866 9 18409726244643717115
20691752 17 17530959215521861286
20715895 44 17974557001924555829
21267235 1 18410302410232918635
21279426 13 18196374719051187085
21421861 104 17969776385094991226
22149856 69 18269858501127183651
23227448 37 18412825819836818423
2334 1 18266462186052815654
23402539 116 18342728641671299541
23558518 356 17756988174575457769
23559900 14 18271247119208189606
2748010 2 18339369668235230326
335352 9 18338518525912937726
34797466 226 16128374934491127505
34934 24 18411694366410713115
350125 39 18266178340639363858
3680242 22 18335138631289892587
4214541 1 18410293618724910121
474 4 17822015362258202533
495365 180 17346591993859757058
5104073 3 18336265729819769105
59755656 215 18342742871583909486
633830 44 18411138043280619687
7364860 26 18269274573503929158
9709674 26 18340773731641164551

>  <PUBCHEM_SHAPE_MULTIPOLES>  (1) 
455.72
9.28
2.82
0.85
3.39
0.61
0.09
-2.47
0.77
0.1
-0.21
-0.94
0.02
0.01

>  <PUBCHEM_SHAPE_SELFOVERLAP>  (1) 
1036.356

>  <PUBCHEM_SHAPE_VOLUME>  (1) 
238.5

>  <PUBCHEM_COORDINATE_TYPE>  (1) 
2
5
10

$$$$
