4772
     RDKit          3D

 21 23  0  0  0  0  0  0  0  0999 V2000
    3.4210   -1.8478    1.9638 O   0  0  0  0  0  0  0  0  0  0  0  0
   -0.1235    0.0386   -0.6955 N   0  0  0  0  0  0  0  0  0  0  0  0
    0.3795    3.0646    0.1519 N   0  0  0  0  0  0  0  0  0  0  0  0
    2.2993    2.0839   -0.4031 N   0  0  0  0  0  0  0  0  0  0  0  0
    0.2725    1.2273   -1.4600 C   0  0  0  0  0  0  0  0  0  0  0  0
   -1.4133   -0.0876   -0.2616 C   0  0  0  0  0  0  0  0  0  0  0  0
   -2.4698    0.6222   -1.0798 C   0  0  0  0  0  0  0  0  0  0  0  0
    0.9901    2.1371   -0.5614 C   0  0  0  0  0  0  0  0  0  0  0  0
   -3.9080    0.1164   -0.8630 C   0  0  0  0  0  0  0  0  0  0  0  0
    1.3797    3.7931    0.9387 C   0  0  0  0  0  0  0  0  0  0  0  0
    2.7038    3.1158    0.5568 C   0  0  0  0  0  0  0  0  0  0  0  0
   -4.1602   -0.4817    0.4984 C   0  0  0  0  0  0  0  0  0  0  0  0
    0.8806   -0.9529   -0.4957 C   0  0  0  0  0  0  0  0  0  0  0  0
   -1.7690   -0.7875    0.8302 C   0  0  0  0  0  0  0  0  0  0  0  0
   -3.1387   -0.8832    1.2723 C   0  0  0  0  0  0  0  0  0  0  0  0
   -5.5911   -0.6230    0.9201 C   0  0  0  0  0  0  0  0  0  0  0  0
    1.6634   -0.9100    0.6491 C   0  0  0  0  0  0  0  0  0  0  0  0
    1.0596   -1.9456   -1.4486 C   0  0  0  0  0  0  0  0  0  0  0  0
    2.6462   -1.8805    0.8454 C   0  0  0  0  0  0  0  0  0  0  0  0
    2.0424   -2.9157   -1.2524 C   0  0  0  0  0  0  0  0  0  0  0  0
    2.8356   -2.8834   -0.1055 C   0  0  0  0  0  0  0  0  0  0  0  0
  1 19  1  0
  2  5  1  0
  2  6  1  0
  2 13  1  0
  3  8  2  0
  3 10  1  0
  4  8  1  0
  4 11  1  0
  5  8  1  0
  6  7  1  0
  6 14  2  0
  7  9  1  0
  9 12  1  0
 10 11  1  0
 12 15  2  0
 12 16  1  0
 13 17  2  0
 13 18  1  0
 14 15  1  0
 17 19  1  0
 18 20  2  0
 19 21  2  0
 20 21  1  0
M  CHG  1   3   1
M  END
>  <PUBCHEM_COMPOUND_CID>  (1) 
4772

>  <PUBCHEM_CONFORMER_RMSD>  (1) 
0.8

>  <PUBCHEM_CONFORMER_DIVERSEORDER>  (1) 
1
16
20
26
18
23
10
7
17
15
14
25
12
19
24
11
8
13
4
22
9
28
2
6
21
27
3
5

>  <PUBCHEM_MMFF94_PARTIAL_CHARGES>  (1) 
30
1 -0.53
10 0.49
11 0.49
12 -0.28
13 0.1
14 -0.15
15 -0.15
16 0.14
17 -0.15
18 -0.15
19 0.08
2 -0.57
20 -0.15
21 -0.15
3 -0.79
32 0.45
33 0.45
34 0.15
35 0.15
39 0.15
4 -0.79
40 0.15
41 0.15
42 0.15
43 0.45
5 0.47
6 -0.04
7 0.14
8 0.6
9 0.14

>  <PUBCHEM_EFFECTIVE_ROTOR_COUNT>  (1) 
5

>  <PUBCHEM_PHARMACOPHORE_FEATURES>  (1) 
8
1 1 donor
1 2 cation
1 3 donor
1 4 donor
3 3 4 8 cation
5 3 4 8 10 11 rings
6 13 17 18 19 20 21 rings
6 6 7 9 12 14 15 rings

>  <PUBCHEM_HEAVY_ATOM_COUNT>  (1) 
21

>  <PUBCHEM_ATOM_DEF_STEREO_COUNT>  (1) 
0

>  <PUBCHEM_ATOM_UDEF_STEREO_COUNT>  (1) 
0

>  <PUBCHEM_BOND_DEF_STEREO_COUNT>  (1) 
0

>  <PUBCHEM_BOND_UDEF_STEREO_COUNT>  (1) 
0

>  <PUBCHEM_ISOTOPIC_ATOM_COUNT>  (1) 
0

>  <PUBCHEM_COMPONENT_COUNT>  (1) 
1

>  <PUBCHEM_CACTVS_TAUTO_COUNT>  (1) 
6

>  <PUBCHEM_CONFORMER_ID>  (1) 
000012A400000001

>  <PUBCHEM_MMFF94_ENERGY>  (1) 
71.8936

>  <PUBCHEM_FEATURE_SELFOVERLAP>  (1) 
40.672

>  <PUBCHEM_SHAPE_FINGERPRINT>  (1) 
11578080 2 16733807710727689134
11582403 64 16167138234092676101
12363563 72 18263648355377588047
12553582 1 18341613659651010159
12644460 14 18340781415490338971
12707595 3 18335145237271879415
12788726 201 17688314482048388682
12839892 36 17831576848849865763
13134695 92 18338790131028259509
13140716 1 18123189275302273816
13533116 47 18337122241500053987
13681431 1 18337119977134339124
14022349 108 18338507642581847352
14178342 30 17756439514505971859
14787075 74 18040722467783593074
14955137 171 18342183288826845062
15420108 30 18128248076730168412
17876694 64 17702675341211153257
1813 80 17700717089263886806
19765921 60 17557994123759116729
20369508 70 18260271828557594051
20600515 1 17681540447103010180
21041028 32 18340491045594420037
21344244 78 18131348588442236985
21421861 104 18341347625408659273
21524375 3 17835526294315916164
21731228 192 17833833046404074208
22182313 1 17676757752475092623
23419403 2 17897696860896047044
23557571 272 17907007375368663742
23558518 356 17115497451497928788
23559900 14 17748830730774846047
31174 14 18408326605270641687
3286 77 18187369805468321927
3411729 13 18335142041531212072
35225 105 17114683258747849640
394222 165 17916317206529562833
4340502 62 17982468276096717075
474 4 17985276411239797265
495365 180 18338802320662331877
5104073 3 18336283318612874427
57672749 33 18412543219346404968
5845 1 12135338474637362132
58807428 26 18051122889466538016
5895379 119 17272317659853146753
7364860 26 18339652221137800111
81228 2 17689719653761464340
84936 31 18271519887758267622
9841814 1 18335149661024689483

>  <PUBCHEM_SHAPE_MULTIPOLES>  (1) 
411.36
7.18
4.17
1.47
10.83
3.04
-0.08
-2.74
-2.58
-6.25
-0.38
-0.24
-0.46
0.59

>  <PUBCHEM_SHAPE_SELFOVERLAP>  (1) 
878.77

>  <PUBCHEM_SHAPE_VOLUME>  (1) 
229

>  <PUBCHEM_COORDINATE_TYPE>  (1) 
2
5
10

$$$$
