47728
     RDKit          3D

 18 19  0  0  1  0  0  0  0  0999 V2000
   -0.8309   -2.4537    1.5283 O   0  0  0  0  0  0  0  0  0  0  0  0
    4.2457    0.2228   -1.0232 O   0  0  0  0  0  0  0  0  0  0  0  0
    3.0477    2.2273    1.4214 O   0  0  0  0  0  0  0  0  0  0  0  0
   -2.4766   -0.0801   -0.7394 N   0  0  0  0  0  0  0  0  0  0  0  0
   -2.0021   -0.6077    0.5415 C   0  0  0  0  0  0  0  0  0  0  0  0
   -0.9334   -1.6918    0.3203 C   0  0  0  0  0  0  0  0  0  0  0  0
   -1.4376    0.5161    1.4190 C   0  0  0  0  0  0  0  0  0  0  0  0
   -0.2082    1.1770    0.7943 C   0  0  0  0  0  0  0  0  0  0  0  0
    0.4302   -1.1442   -0.0423 C   0  0  0  0  0  0  0  0  0  0  0  0
    0.7800    0.1939    0.2189 C   0  0  0  0  0  0  0  0  0  0  0  0
   -3.5192    0.9107   -0.5304 C   0  0  0  0  0  0  0  0  0  0  0  0
    2.0637    0.6493   -0.1211 C   0  0  0  0  0  0  0  0  0  0  0  0
    1.3805   -2.0011   -0.6217 C   0  0  0  0  0  0  0  0  0  0  0  0
    2.9963   -0.2126   -0.6966 C   0  0  0  0  0  0  0  0  0  0  0  0
    2.6548   -1.5379   -0.9465 C   0  0  0  0  0  0  0  0  0  0  0  0
    2.4681    2.0697    0.1326 C   0  0  0  0  0  0  0  0  0  0  0  0
   -4.6936    0.2921    0.2225 C   0  0  0  0  0  0  0  0  0  0  0  0
   -3.9654    1.4701   -1.8775 C   0  0  0  0  0  0  0  0  0  0  0  0
  1  6  1  0
  2 14  1  0
  3 16  1  0
  4  5  1  0
  4 11  1  0
  5  6  1  0
  5  7  1  0
  6  9  1  0
  7  8  1  0
  8 10  1  0
  9 10  2  0
  9 13  1  0
 10 12  1  0
 11 17  1  0
 11 18  1  0
 12 14  2  0
 12 16  1  0
 13 15  2  0
 14 15  1  0
M  END
>  <PUBCHEM_COMPOUND_CID>  (1) 
47728

>  <PUBCHEM_CONFORMER_RMSD>  (1) 
0.6

>  <PUBCHEM_CONFORMER_DIVERSEORDER>  (1) 
2
11
5
4
10
8
9
7
3
1
6

>  <PUBCHEM_MMFF94_PARTIAL_CHARGES>  (1) 
21
1 -0.68
10 -0.14
11 0.27
12 -0.14
13 -0.15
14 0.08
15 -0.15
16 0.42
2 -0.53
25 0.36
27 0.15
28 0.4
29 0.15
3 -0.68
38 0.45
39 0.4
4 -0.9
5 0.27
6 0.42
8 0.14
9 -0.14

>  <PUBCHEM_EFFECTIVE_ROTOR_COUNT>  (1) 
3.8

>  <PUBCHEM_PHARMACOPHORE_FEATURES>  (1) 
10
1 1 acceptor
1 1 donor
1 2 donor
1 3 acceptor
1 3 donor
1 4 cation
1 4 donor
3 11 17 18 hydrophobe
6 5 6 7 8 9 10 rings
6 9 10 12 13 14 15 rings

>  <PUBCHEM_HEAVY_ATOM_COUNT>  (1) 
18

>  <PUBCHEM_ATOM_DEF_STEREO_COUNT>  (1) 
0

>  <PUBCHEM_ATOM_UDEF_STEREO_COUNT>  (1) 
2

>  <PUBCHEM_BOND_DEF_STEREO_COUNT>  (1) 
0

>  <PUBCHEM_BOND_UDEF_STEREO_COUNT>  (1) 
0

>  <PUBCHEM_ISOTOPIC_ATOM_COUNT>  (1) 
0

>  <PUBCHEM_COMPONENT_COUNT>  (1) 
1

>  <PUBCHEM_CACTVS_TAUTO_COUNT>  (1) 
9

>  <PUBCHEM_CONFORMER_ID>  (1) 
0000BA7000000002

>  <PUBCHEM_MMFF94_ENERGY>  (1) 
39.0655

>  <PUBCHEM_FEATURE_SELFOVERLAP>  (1) 
50.766

>  <PUBCHEM_SHAPE_FINGERPRINT>  (1) 
10498660 4 17459181885907894253
10608611 8 18337394953704081383
10764073 3 15659371381863116152
11471102 20 18342182132942539918
12138202 97 18260839218990176178
12403259 415 18334859424393868021
12500047 106 18186804707619867230
12654215 9 18409451354200121654
12670546 177 18343012303382619167
12670546 56 14923941249766404237
12730499 353 18042406834051012061
12892183 10 11530770271407329133
13134695 92 18200876158790010030
13140716 1 18270974564867763162
13294875 104 18042392565463085306
13464514 151 18045781183127492909
13544592 271 17985256619640016704
13571099 52 18261380170268326211
14250199 8 17989215845100027624
14911166 2 18341905073487524334
15219456 202 18340493381760976827
15852999 172 18339069497154915696
16945 1 18200605717394657818
18186145 218 18410291393905425061
18219364 16 18263667141374182346
192875 21 18200306598655268074
200 152 17418377965175070148
20626108 58 15194699295584814941
20645477 56 18188493595950305001
20645477 70 17917999385931043916
21029758 11 18201444615118325258
21486144 27 18411702122963335757
21639500 275 18272932721571699372
22112679 90 17477764576851112435
22182313 1 18126860519268817424
22892500 29 18343018891651499876
231179 274 18187082827941958500
2334 1 17983307211678459730
23402655 69 18271808960933168741
23493267 7 17969225693215381728
23526113 38 18337964372031796683
23557571 272 17894923936116352777
23559900 14 18343586261637704976
25 1 18409731716585084663
2748010 2 18126581238936050978
3323516 105 18412544314879479023
495365 180 18059284452852683424
5262128 65 17630904715128244542
633830 44 18342172237902548133
7471813 234 17131546146555597424
81228 2 17753906213761370619
84936 182 18045212744036873793

>  <PUBCHEM_SHAPE_MULTIPOLES>  (1) 
347.84
7.16
2.27
1.37
3.98
0.23
-0.05
-2.84
-2.73
-1.27
0.47
0.57
-0.2
1.48

>  <PUBCHEM_SHAPE_SELFOVERLAP>  (1) 
727.051

>  <PUBCHEM_SHAPE_VOLUME>  (1) 
197.4

>  <PUBCHEM_COORDINATE_TYPE>  (1) 
2
5
10

$$$$
