47726
     RDKit          3D

 17 19  0  0  0  0  0  0  0  0999 V2000
    4.9103    0.6508    0.0007 O   0  0  0  0  0  0  0  0  0  0  0  0
    4.4280   -1.4908    0.0008 O   0  0  0  0  0  0  0  0  0  0  0  0
   -3.7799   -2.1930    0.0004 N   0  0  0  0  0  0  0  0  0  0  0  0
    4.0768   -0.2866    0.0003 N   0  0  0  0  0  0  0  0  0  0  0  0
   -0.7896   -1.5871   -0.0004 C   0  0  0  0  0  0  0  0  0  0  0  0
   -1.9390   -0.6011   -0.0005 C   0  0  0  0  0  0  0  0  0  0  0  0
    0.4100   -0.6629   -0.0006 C   0  0  0  0  0  0  0  0  0  0  0  0
   -1.4525    0.7256   -0.0004 C   0  0  0  0  0  0  0  0  0  0  0  0
   -0.0060    0.6875   -0.0006 C   0  0  0  0  0  0  0  0  0  0  0  0
   -3.2957   -0.8738    0.0000 C   0  0  0  0  0  0  0  0  0  0  0  0
    1.7505   -1.0065   -0.0003 C   0  0  0  0  0  0  0  0  0  0  0  0
    0.9270    1.7111   -0.0006 C   0  0  0  0  0  0  0  0  0  0  0  0
   -2.3305    1.7966    0.0005 C   0  0  0  0  0  0  0  0  0  0  0  0
    2.6907    0.0256   -0.0003 C   0  0  0  0  0  0  0  0  0  0  0  0
   -4.1804    0.2060    0.0004 C   0  0  0  0  0  0  0  0  0  0  0  0
    2.2831    1.3707   -0.0003 C   0  0  0  0  0  0  0  0  0  0  0  0
   -3.7027    1.5280    0.0008 C   0  0  0  0  0  0  0  0  0  0  0  0
  1  4  1  0
  2  4  2  0
  3 10  1  0
  4 14  1  0
  5  6  1  0
  5  7  1  0
  6  8  2  0
  6 10  1  0
  7  9  2  0
  7 11  1  0
  8  9  1  0
  8 13  1  0
  9 12  1  0
 10 15  2  0
 11 14  2  0
 12 16  2  0
 13 17  2  0
 14 16  1  0
 15 17  1  0
M  CHG  2   1  -1   4   1
M  END
>  <PUBCHEM_COMPOUND_CID>  (1) 
47726

>  <PUBCHEM_CONFORMER_RMSD>  (1) 
0.6

>  <PUBCHEM_CONFORMER_DIVERSEORDER>  (1) 
1

>  <PUBCHEM_MMFF94_PARTIAL_CHARGES>  (1) 
23
1 -0.52
10 0.1
11 -0.15
12 -0.15
13 -0.15
14 0.13
15 -0.15
16 -0.15
17 -0.15
2 -0.52
20 0.15
21 0.15
22 0.15
23 0.15
24 0.15
25 0.15
26 0.4
27 0.4
3 -0.9
4 0.91
5 0.29
6 -0.14
7 -0.14

>  <PUBCHEM_EFFECTIVE_ROTOR_COUNT>  (1) 
1.2

>  <PUBCHEM_PHARMACOPHORE_FEATURES>  (1) 
8
1 1 acceptor
1 1 anion
1 2 acceptor
1 3 cation
1 3 donor
5 5 6 7 8 9 rings
6 6 8 10 13 15 17 rings
6 7 9 11 12 14 16 rings

>  <PUBCHEM_HEAVY_ATOM_COUNT>  (1) 
17

>  <PUBCHEM_ATOM_DEF_STEREO_COUNT>  (1) 
0

>  <PUBCHEM_ATOM_UDEF_STEREO_COUNT>  (1) 
0

>  <PUBCHEM_BOND_DEF_STEREO_COUNT>  (1) 
0

>  <PUBCHEM_BOND_UDEF_STEREO_COUNT>  (1) 
0

>  <PUBCHEM_ISOTOPIC_ATOM_COUNT>  (1) 
0

>  <PUBCHEM_COMPONENT_COUNT>  (1) 
1

>  <PUBCHEM_CACTVS_TAUTO_COUNT>  (1) 
1

>  <PUBCHEM_CONFORMER_ID>  (1) 
0000BA6E00000001

>  <PUBCHEM_MMFF94_ENERGY>  (1) 
69.4183

>  <PUBCHEM_FEATURE_SELFOVERLAP>  (1) 
40.841

>  <PUBCHEM_SHAPE_FINGERPRINT>  (1) 
10062212 137 18412256229473664471
10608611 8 18411978083144210897
10616163 171 18411702105799713071
10967382 1 18338797797761140743
11132069 177 18410290289713734185
11401426 45 18411978061531847572
11806522 49 18336545014194281406
12032990 46 18411140250861874962
12251169 10 18410015412302649345
12403259 226 18341044224539551569
13140716 1 18411989091583058905
13214271 11 18343016687979621685
13221675 6 18409446990054432250
13288520 33 18412547583281104070
13380535 76 18411702054312424295
13675066 3 18130783473429574322
15196674 1 18410855460444737856
15442244 35 18410012134878644560
15536298 74 18342174501017867368
16945 1 18194682802937824613
17802600 8 18411696603972571309
17804303 29 18412829100722307805
18186145 218 17895185623566820631
18522853 276 18413388734961035152
19422 9 18334298690321467332
200 152 17989199357110806157
20510252 161 18272371962072854337
21267235 1 18410019848919567483
21501502 16 18337678610761847653
221490 88 18264213680252134801
2306618 200 18201728336315667505
23175994 123 17203613678899798664
23402539 116 18341043073139715063
23402655 69 18270108003871665133
23463225 33 18408604747115399244
23559900 14 18270679767150328694
2748010 2 18339076090367701157
3312278 4 18413389813261421241
335352 9 18338516318157160349
34934 24 18335977567621013289
350125 39 18410579509065417545
4214541 1 18410573967992908320
474 4 16879640499623716204
5104073 3 18411981368725212224
54173680 148 18192152822366707131
633830 44 17022627467845458380
69090 78 18272928332157379487
7364860 26 18196653986457509327
77779 3 18410576188738790284
8809292 202 18334017224293543475
9709674 26 18411144657646565966
9981440 41 17324928547923170512

>  <PUBCHEM_SHAPE_MULTIPOLES>  (1) 
328.15
8.42
1.98
0.6
4.6
0.1
0
0.89
0
-0.98
0
-0.06
-0.02
0

>  <PUBCHEM_SHAPE_SELFOVERLAP>  (1) 
738.072

>  <PUBCHEM_SHAPE_VOLUME>  (1) 
175.7

>  <PUBCHEM_COORDINATE_TYPE>  (1) 
2
5
10

$$$$
