47738
     RDKit          3D

 33 35  0  0  0  0  0  0  0  0999 V2000
   -3.8064    1.8668    0.6152 O   0  0  0  0  0  0  0  0  0  0  0  0
   -1.8638    3.4270    1.6343 O   0  0  0  0  0  0  0  0  0  0  0  0
   -5.8713   -2.1706    2.1245 O   0  0  0  0  0  0  0  0  0  0  0  0
   -5.2288   -1.4096   -2.5604 O   0  0  0  0  0  0  0  0  0  0  0  0
   -6.1369   -3.0209   -0.4983 O   0  0  0  0  0  0  0  0  0  0  0  0
    3.2313    2.1632   -0.2836 N   0  0  0  0  0  0  0  0  0  0  0  0
    5.0098   -0.0636   -0.0886 N   0  0  0  0  0  0  0  0  0  0  0  0
   -0.8373    3.6833   -0.4385 N   0  0  0  0  0  0  0  0  0  0  0  0
    2.8480    0.9721    0.4844 C   0  0  0  0  0  0  0  0  0  0  0  0
    4.0616    1.7724   -1.4295 C   0  0  0  0  0  0  0  0  0  0  0  0
    4.0830    0.2367    1.0099 C   0  0  0  0  0  0  0  0  0  0  0  0
    5.3370    1.0626   -0.9683 C   0  0  0  0  0  0  0  0  0  0  0  0
    2.0434    2.8873   -0.7341 C   0  0  0  0  0  0  0  0  0  0  0  0
    1.4789    3.7378    0.4051 C   0  0  0  0  0  0  0  0  0  0  0  0
    5.9411   -1.0910    0.0992 C   0  0  0  0  0  0  0  0  0  0  0  0
    0.2451    4.5301   -0.0180 C   0  0  0  0  0  0  0  0  0  0  0  0
    5.6311   -2.4073   -0.2434 C   0  0  0  0  0  0  0  0  0  0  0  0
    7.1919   -0.7864    0.6363 C   0  0  0  0  0  0  0  0  0  0  0  0
    6.5720   -3.4185   -0.0491 C   0  0  0  0  0  0  0  0  0  0  0  0
    4.2995   -2.7624   -0.8205 C   0  0  0  0  0  0  0  0  0  0  0  0
    8.1327   -1.7977    0.8306 C   0  0  0  0  0  0  0  0  0  0  0  0
    7.8229   -3.1136    0.4880 C   0  0  0  0  0  0  0  0  0  0  0  0
   -1.8096    3.1982    0.4289 C   0  0  0  0  0  0  0  0  0  0  0  0
   -2.8256    2.3337   -0.2866 C   0  0  0  0  0  0  0  0  0  0  0  0
   -4.3860    0.6512    0.3382 C   0  0  0  0  0  0  0  0  0  0  0  0
   -4.5179    0.2265   -0.9837 C   0  0  0  0  0  0  0  0  0  0  0  0
   -4.8419   -0.1574    1.3793 C   0  0  0  0  0  0  0  0  0  0  0  0
   -5.4301   -1.3907    1.0985 C   0  0  0  0  0  0  0  0  0  0  0  0
   -5.1060   -1.0068   -1.2648 C   0  0  0  0  0  0  0  0  0  0  0  0
   -5.5621   -1.8154   -0.2237 C   0  0  0  0  0  0  0  0  0  0  0  0
   -5.6983   -1.6623    3.4458 C   0  0  0  0  0  0  0  0  0  0  0  0
   -4.7370   -0.5237   -3.5640 C   0  0  0  0  0  0  0  0  0  0  0  0
   -5.2703   -4.1512   -0.5631 C   0  0  0  0  0  0  0  0  0  0  0  0
  1 24  1  0
  1 25  1  0
  2 23  2  0
  3 28  1  0
  3 31  1  0
  4 29  1  0
  4 32  1  0
  5 30  1  0
  5 33  1  0
  6  9  1  0
  6 10  1  0
  6 13  1  0
  7 11  1  0
  7 12  1  0
  7 15  1  0
  8 16  1  0
  8 23  1  0
  9 11  1  0
 10 12  1  0
 13 14  1  0
 14 16  1  0
 15 17  2  0
 15 18  1  0
 17 19  1  0
 17 20  1  0
 18 21  2  0
 19 22  2  0
 21 22  1  0
 23 24  1  0
 25 26  2  0
 25 27  1  0
 26 29  1  0
 27 28  2  0
 28 30  1  0
 29 30  2  0
M  END
>  <PUBCHEM_COMPOUND_CID>  (1) 
47738

>  <PUBCHEM_CONFORMER_RMSD>  (1) 
1.2

>  <PUBCHEM_CONFORMER_DIVERSEORDER>  (1) 
1
30
62
59
37
49
70
43
26
35
24
12
22
69
47
20
50
28
58
10
66
68
19
31
56
60
14
36
4
52
34
65
32
38
33
7
51
48
67
23
45
15
40
39
46
9
18
71
25
17
21
13
8
61
2
53
16
44
3
41
57
64
63
42
11
54
29
5
27
6
55

>  <PUBCHEM_MMFF94_PARTIAL_CHARGES>  (1) 
39
1 -0.36
10 0.27
11 0.37
12 0.37
13 0.27
15 0.1
16 0.3
17 -0.14
18 -0.15
19 -0.15
2 -0.57
20 0.14
21 -0.15
22 -0.15
23 0.57
24 0.34
25 0.08
26 -0.15
27 -0.15
28 0.08
29 0.08
3 -0.36
30 0.08
31 0.28
32 0.28
33 0.28
4 -0.36
48 0.15
49 0.15
5 -0.36
53 0.37
54 0.15
55 0.15
58 0.15
59 0.15
6 -0.81
7 -0.84
8 -0.73
9 0.27

>  <PUBCHEM_EFFECTIVE_ROTOR_COUNT>  (1) 
13.2

>  <PUBCHEM_PHARMACOPHORE_FEATURES>  (1) 
11
1 1 acceptor
1 2 acceptor
1 3 acceptor
1 4 acceptor
1 5 acceptor
1 6 cation
1 7 cation
1 8 donor
6 15 17 18 19 21 22 rings
6 25 26 27 28 29 30 rings
6 6 7 9 10 11 12 rings

>  <PUBCHEM_HEAVY_ATOM_COUNT>  (1) 
33

>  <PUBCHEM_ATOM_DEF_STEREO_COUNT>  (1) 
0

>  <PUBCHEM_ATOM_UDEF_STEREO_COUNT>  (1) 
0

>  <PUBCHEM_BOND_DEF_STEREO_COUNT>  (1) 
0

>  <PUBCHEM_BOND_UDEF_STEREO_COUNT>  (1) 
0

>  <PUBCHEM_ISOTOPIC_ATOM_COUNT>  (1) 
0

>  <PUBCHEM_COMPONENT_COUNT>  (1) 
1

>  <PUBCHEM_CACTVS_TAUTO_COUNT>  (1) 
2

>  <PUBCHEM_CONFORMER_ID>  (1) 
0000BA7A00000001

>  <PUBCHEM_MMFF94_ENERGY>  (1) 
125.8485

>  <PUBCHEM_FEATURE_SELFOVERLAP>  (1) 
55.841

>  <PUBCHEM_SHAPE_FINGERPRINT>  (1) 
10169797 241 18272943739049361908
10391435 84 18266445539292930672
10622 236 18411984684493581989
11387372 6 17896056433441499473
11409948 35 18194680600696495927
11497681 19 18335145251043024524
11607047 403 18197488735924076664
117089 54 18335992994985675082
12061779 8 12397120520017349295
12174731 88 18342457041336092309
12559416 138 18129091393543369431
12559416 39 18123718054475601155
12841400 136 18334575741624450346
13553639 21 18337686320023221314
1361 4 18410858772233885724
1361 87 17967806163590438589
13782708 43 17894910745828740196
14429380 30 18408606929259595928
15467298 65 17827353277228283634
15728490 83 18410864235062949881
15803439 3 14201404884840866944
16728433 281 8717959034023073194
19303781 99 18187085040203576384
20580484 66 18119809102578097314
208703 8 18409721876593463399
21599406 157 17240486930792151566
21792965 11 17676763163838979835
23569914 152 18196623321598811733
2748736 6 8862667858617422412
32027 91 18340480170906317457
42767 28 17458338645908298049
437795 163 18409733950754283300
44426695 248 16128357291055510380
50009960 94 18115570562593022066
5047190 6 17773006839880806799
6058803 2 18193303865303270916
6201320 221 17626085810070100495
6201320 77 17751667531209772427
6431902 208 18410571756232333692
6636798 310 15984526928115140903
6712543 237 16773801363729538877
7970288 3 18411698789905307244

>  <PUBCHEM_SHAPE_MULTIPOLES>  (1) 
634.83
24.53
5.99
2.17
19.69
2.91
-0.27
-29.73
2.51
0.07
0.25
-5.88
-1.13
-0.82

>  <PUBCHEM_SHAPE_SELFOVERLAP>  (1) 
1319.802

>  <PUBCHEM_SHAPE_VOLUME>  (1) 
362.6

>  <PUBCHEM_COORDINATE_TYPE>  (1) 
2
5
10

$$$$
