4773
     RDKit          3D

 21 23  0  0  0  0  0  0  0  0999 V2000
    1.1725    3.6389    1.7531 O   0  0  0  0  0  0  0  0  0  0  0  0
   -0.1071   -0.2646   -0.7607 N   0  0  0  0  0  0  0  0  0  0  0  0
    2.7595   -2.1432   -0.5731 N   0  0  0  0  0  0  0  0  0  0  0  0
    1.0883   -2.2920    0.9644 N   0  0  0  0  0  0  0  0  0  0  0  0
   -1.4504   -0.1918   -0.5198 C   0  0  0  0  0  0  0  0  0  0  0  0
   -2.1404   -1.4906   -0.1640 C   0  0  0  0  0  0  0  0  0  0  0  0
    0.4754   -1.5183   -1.2539 C   0  0  0  0  0  0  0  0  0  0  0  0
   -3.5058   -1.3321    0.5301 C   0  0  0  0  0  0  0  0  0  0  0  0
    1.4413   -2.0009   -0.2619 C   0  0  0  0  0  0  0  0  0  0  0  0
   -4.2369   -0.0589    0.1847 C   0  0  0  0  0  0  0  0  0  0  0  0
   -2.1614    0.9474   -0.5906 C   0  0  0  0  0  0  0  0  0  0  0  0
    0.8016    0.8051   -0.5130 C   0  0  0  0  0  0  0  0  0  0  0  0
    3.4901   -2.5877    0.5750 C   0  0  0  0  0  0  0  0  0  0  0  0
   -3.5832    0.9852   -0.3501 C   0  0  0  0  0  0  0  0  0  0  0  0
    2.3640   -2.7310    1.6099 C   0  0  0  0  0  0  0  0  0  0  0  0
   -5.7033   -0.0174    0.4902 C   0  0  0  0  0  0  0  0  0  0  0  0
    0.5350    1.7037    0.5101 C   0  0  0  0  0  0  0  0  0  0  0  0
    1.9385    0.9313   -1.2983 C   0  0  0  0  0  0  0  0  0  0  0  0
    1.4242    2.7506    0.7531 C   0  0  0  0  0  0  0  0  0  0  0  0
    2.8275    1.9784   -1.0555 C   0  0  0  0  0  0  0  0  0  0  0  0
    2.5705    2.8880   -0.0297 C   0  0  0  0  0  0  0  0  0  0  0  0
  1 19  1  0
  2  5  1  0
  2  7  1  0
  2 12  1  0
  3  9  1  0
  3 13  1  0
  4  9  2  0
  4 15  1  0
  5  6  1  0
  5 11  2  0
  6  8  1  0
  7  9  1  0
  8 10  1  0
 10 14  2  0
 10 16  1  0
 11 14  1  0
 12 17  2  0
 12 18  1  0
 13 15  1  0
 17 19  1  0
 18 20  2  0
 19 21  2  0
 20 21  1  0
M  END
>  <PUBCHEM_COMPOUND_CID>  (1) 
4773

>  <PUBCHEM_CONFORMER_RMSD>  (1) 
0.8

>  <PUBCHEM_CONFORMER_DIVERSEORDER>  (1) 
1
25
21
18
10
11
9
16
15
17
7
2
3
12
13
24
19
8
6
22
14
20
23
4
5

>  <PUBCHEM_MMFF94_PARTIAL_CHARGES>  (1) 
29
1 -0.53
10 -0.28
11 -0.15
12 0.1
13 0.37
14 -0.15
15 0.25
16 0.14
17 -0.15
18 -0.15
19 0.08
2 -0.57
20 -0.15
21 -0.15
28 0.15
3 -0.82
31 0.15
32 0.4
38 0.15
39 0.15
4 -0.7
40 0.15
41 0.15
42 0.45
5 -0.04
6 0.14
7 0.43
8 0.14
9 0.44

>  <PUBCHEM_EFFECTIVE_ROTOR_COUNT>  (1) 
5

>  <PUBCHEM_PHARMACOPHORE_FEATURES>  (1) 
7
1 1 donor
1 2 cation
1 3 donor
3 3 4 9 cation
5 3 4 9 13 15 rings
6 12 17 18 19 20 21 rings
6 5 6 8 10 11 14 rings

>  <PUBCHEM_HEAVY_ATOM_COUNT>  (1) 
21

>  <PUBCHEM_ATOM_DEF_STEREO_COUNT>  (1) 
0

>  <PUBCHEM_ATOM_UDEF_STEREO_COUNT>  (1) 
0

>  <PUBCHEM_BOND_DEF_STEREO_COUNT>  (1) 
0

>  <PUBCHEM_BOND_UDEF_STEREO_COUNT>  (1) 
0

>  <PUBCHEM_ISOTOPIC_ATOM_COUNT>  (1) 
0

>  <PUBCHEM_COMPONENT_COUNT>  (1) 
1

>  <PUBCHEM_CACTVS_TAUTO_COUNT>  (1) 
3

>  <PUBCHEM_CONFORMER_ID>  (1) 
000012A500000001

>  <PUBCHEM_MMFF94_ENERGY>  (1) 
75.0349

>  <PUBCHEM_FEATURE_SELFOVERLAP>  (1) 
35.526

>  <PUBCHEM_SHAPE_FINGERPRINT>  (1) 
10165383 225 18191318258486373389
10366900 7 18264778821272132961
1100329 8 17907584623010101217
11578080 2 17386553670466254807
12592029 89 18336829796280096472
12644460 14 18339935869673852763
12730499 353 18267315399045087657
13134695 92 18197476468478451413
13140716 1 18125152998853967193
13294875 104 18129372864515177800
133893 2 17902190638007246190
13533116 47 18408885157773858811
13878862 14 18337939118552621805
14022347 108 17764327049703395959
14178342 30 17973726076012850743
14223421 5 18261955249515502503
14787075 74 18187088334676198382
14866123 147 16176510037516776835
14955137 171 18272091565513022262
15375462 189 17896888655356965651
15475509 35 17531260422322356723
15475509 84 18196103140386761849
15490181 7 18054784254480572463
15927050 60 18122628520868639670
17868525 174 18118118074810211057
17980427 23 17701792506177833959
17980427 26 17984970738164289692
18785283 64 18260266390785865548
19078846 21 18199197182991260401
19784866 9 18408887364727698300
20369508 70 18409166572177902735
20600515 1 17612585631865650862
20671657 1 18341891918018423243
20832881 197 18271259304167519532
20905425 154 18411143510816094572
21033648 29 17129278884944263715
21041028 32 18269272361479441308
21120745 212 17763196739292525070
21344244 78 18129652016051322753
21421861 104 18335988583853795632
21501502 16 18412261766192969983
21524375 3 18054232303954298396
23366157 5 18113617910523304543
23419403 2 17831823946950628180
23557571 272 17836358251483924406
23558518 356 17621874722392464356
23559900 14 17894916226592144903
25 1 18129110098104941244
350125 39 18262242101997223701
3759504 43 17829056751235522292
43471831 8 18048026656116766911
5104073 3 18337124401994951523
5265222 85 17829904475149248924
58807428 26 18123456443658766152
5895379 119 17201097889301235553
5902787 121 18190460467607264831
633830 44 18126851727096755949
6442390 28 17904209470072635345
7364860 26 18411700993212707759
81228 2 17404862549145067340
84936 182 18340210794466916217
9841814 1 18337116652945982155
9999458 23 18264213671831460468

>  <PUBCHEM_SHAPE_MULTIPOLES>  (1) 
411.36
7.4
3.98
1.27
11.17
0.8
-0.21
-1.05
-0.98
-5.42
-1.69
-0.78
0.14
-0.31

>  <PUBCHEM_SHAPE_SELFOVERLAP>  (1) 
881.159

>  <PUBCHEM_SHAPE_VOLUME>  (1) 
228.5

>  <PUBCHEM_COORDINATE_TYPE>  (1) 
2
5
10

$$$$
