47743
     RDKit          3D

 13 12  0  0  0  0  0  0  0  0999 V2000
    0.5872    1.2351    1.0899 O   0  0  0  0  0  0  0  0  0  0  0  0
   -0.9154   -2.4243    0.7527 O   0  0  0  0  0  0  0  0  0  0  0  0
   -0.8394   -0.2266   -0.0629 N   0  0  0  0  0  0  0  0  0  0  0  0
    1.4814   -0.9183    0.5348 C   0  0  0  0  0  0  0  0  0  0  0  0
    2.8980   -0.3393    0.4897 C   0  0  0  0  0  0  0  0  0  0  0  0
   -1.7004    0.8047   -0.6483 C   0  0  0  0  0  0  0  0  0  0  0  0
    0.3875    0.1501    0.5402 C   0  0  0  0  0  0  0  0  0  0  0  0
    3.1365    0.5184   -0.7556 C   0  0  0  0  0  0  0  0  0  0  0  0
   -2.6780    1.3350    0.3974 C   0  0  0  0  0  0  0  0  0  0  0  0
   -1.2294   -1.5879   -0.0992 C   0  0  0  0  0  0  0  0  0  0  0  0
    4.5485    1.0827   -0.7783 C   0  0  0  0  0  0  0  0  0  0  0  0
   -3.5986    2.3929   -0.1913 C   0  0  0  0  0  0  0  0  0  0  0  0
   -2.0779   -2.0223   -1.2691 C   0  0  0  0  0  0  0  0  0  0  0  0
  1  7  2  0
  2 10  2  0
  3  6  1  0
  3  7  1  0
  3 10  1  0
  4  5  1  0
  4  7  1  0
  5  8  1  0
  6  9  1  0
  8 11  1  0
  9 12  1  0
 10 13  1  0
M  END
>  <PUBCHEM_COMPOUND_CID>  (1) 
47743

>  <PUBCHEM_CONFORMER_RMSD>  (1) 
0.8

>  <PUBCHEM_CONFORMER_DIVERSEORDER>  (1) 
1
113
31
56
69
132
95
133
27
49
72
115
48
99
15
137
140
111
51
3
5
103
23
13
126
116
62
53
36
38
100
131
60
22
87
119
105
46
101
136
75
21
77
134
41
83
128
85
78
117
107
16
17
10
109
24
37
35
55
81
106
80
19
30
6
18
91
59
70
102
32
118
40
12
65
88
57
104
90
7
84
33
94
47
54
2
58
66
135
61
45
29
71
14
93
44
67
112
52
9
120
73
89
122
43
124
141
123
63
42
79
92
4
139
8
82
130
39
121
64
25
96
129
138
34
108
20
86
68
74
76
114
110
50
11
125
26
127
28
98
97

>  <PUBCHEM_MMFF94_PARTIAL_CHARGES>  (1) 
8
1 -0.57
10 0.57
13 0.06
2 -0.57
3 -0.42
4 0.06
6 0.3
7 0.57

>  <PUBCHEM_EFFECTIVE_ROTOR_COUNT>  (1) 
7

>  <PUBCHEM_PHARMACOPHORE_FEATURES>  (1) 
4
1 1 acceptor
1 11 hydrophobe
1 12 hydrophobe
1 2 acceptor

>  <PUBCHEM_HEAVY_ATOM_COUNT>  (1) 
13

>  <PUBCHEM_ATOM_DEF_STEREO_COUNT>  (1) 
0

>  <PUBCHEM_ATOM_UDEF_STEREO_COUNT>  (1) 
0

>  <PUBCHEM_BOND_DEF_STEREO_COUNT>  (1) 
0

>  <PUBCHEM_BOND_UDEF_STEREO_COUNT>  (1) 
0

>  <PUBCHEM_ISOTOPIC_ATOM_COUNT>  (1) 
0

>  <PUBCHEM_COMPONENT_COUNT>  (1) 
1

>  <PUBCHEM_CACTVS_TAUTO_COUNT>  (1) 
1

>  <PUBCHEM_CONFORMER_ID>  (1) 
0000BA7F00000001

>  <PUBCHEM_MMFF94_ENERGY>  (1) 
21.4089

>  <PUBCHEM_FEATURE_SELFOVERLAP>  (1) 
20.297

>  <PUBCHEM_SHAPE_FINGERPRINT>  (1) 
10922049 32 18339932493824263635
11206711 2 18269264819516908670
12138202 97 18130790035986745567
12932764 1 18201439233271349450
13380535 21 18409735036478980850
14123255 52 18334297526543975508
15502708 8 18342457092517114087
15775835 57 18259708878445663908
16945 1 18267853055266586083
1741750 31 18410575072105491160
18186145 218 18196657289276427340
20645476 183 18409170982571011604
20645477 56 18409735062539038820
20711985 344 18267010833770669435
20871999 31 18271525385427261036
21501502 16 18336536171015160306
21524375 3 18267015055844613281
22620623 9 17417796396981585127
22926399 65 18342175553263788312
23557571 272 18200039559454165828
23559900 14 18131630059582837538
23598291 2 18114169810085230642
2748010 2 17915724573688160248
528862 383 17832132832503333395
7832392 63 18333735727942496052
81228 2 18121762075266173521
81539 233 18121777219416038493
88987 49 18271225188909627226
9939556 21 18334851689347477106

>  <PUBCHEM_SHAPE_MULTIPOLES>  (1) 
250.81
6.46
2.44
1.04
5.12
0.62
0.1
-4.36
1.8
-2.63
0.17
0.12
0.16
-0.74

>  <PUBCHEM_SHAPE_SELFOVERLAP>  (1) 
466.778

>  <PUBCHEM_SHAPE_VOLUME>  (1) 
157.4

>  <PUBCHEM_COORDINATE_TYPE>  (1) 
2
5
10

$$$$
