47748
     RDKit          3D

 20 21  0  0  0  0  0  0  0  0999 V2000
    1.6070   -2.6745   -0.0016 O   0  0  0  0  0  0  0  0  0  0  0  0
    1.7873    2.8214    0.0303 O   0  0  0  0  0  0  0  0  0  0  0  0
   -4.0134    1.1954   -0.0183 O   0  0  0  0  0  0  0  0  0  0  0  0
    1.6679   -1.2832    0.0051 N   0  0  0  0  0  0  0  0  0  0  0  0
    1.7669    1.5471    0.0207 N   0  0  0  0  0  0  0  0  0  0  0  0
   -1.8810   -0.2412    0.0149 N   0  0  0  0  0  0  0  0  0  0  0  0
   -2.9531   -0.8773    0.0296 N   0  0  0  0  0  0  0  0  0  0  0  0
   -7.4603    0.7540   -0.0677 N   0  0  0  0  0  0  0  0  0  0  0  0
    2.9274   -0.6342   -0.0068 C   0  0  0  0  0  0  0  0  0  0  0  0
    2.9969    0.7712    0.0006 C   0  0  0  0  0  0  0  0  0  0  0  0
    0.4920   -0.5619    0.0219 C   0  0  0  0  0  0  0  0  0  0  0  0
    4.1301   -1.3575   -0.0263 C   0  0  0  0  0  0  0  0  0  0  0  0
    0.6213    0.9111    0.0300 C   0  0  0  0  0  0  0  0  0  0  0  0
    4.2302    1.4338   -0.0109 C   0  0  0  0  0  0  0  0  0  0  0  0
    5.3612   -0.6977   -0.0375 C   0  0  0  0  0  0  0  0  0  0  0  0
    5.4107    0.6941   -0.0298 C   0  0  0  0  0  0  0  0  0  0  0  0
   -0.7666   -1.0232    0.0325 C   0  0  0  0  0  0  0  0  0  0  0  0
   -4.0469   -0.0336    0.0103 C   0  0  0  0  0  0  0  0  0  0  0  0
   -5.3507   -0.8093    0.0282 C   0  0  0  0  0  0  0  0  0  0  0  0
   -6.5271    0.0655   -0.0252 C   0  0  0  0  0  0  0  0  0  0  0  0
  1  4  1  0
  2  5  1  0
  3 18  2  0
  4  9  1  0
  4 11  1  0
  5 10  1  0
  5 13  2  0
  6  7  2  0
  6 17  1  0
  7 18  1  0
  8 20  3  0
  9 10  2  0
  9 12  1  0
 10 14  1  0
 11 13  1  0
 11 17  2  0
 12 15  2  0
 14 16  2  0
 15 16  1  0
 18 19  1  0
 19 20  1  0
M  CHG  2   2  -1   5   1
M  END
>  <PUBCHEM_COMPOUND_CID>  (1) 
47748

>  <PUBCHEM_CONFORMER_RMSD>  (1) 
0.6

>  <PUBCHEM_CONFORMER_DIVERSEORDER>  (1) 
1
13
12
7
6
10
9
2
11
4
5
8
3

>  <PUBCHEM_MMFF94_PARTIAL_CHARGES>  (1) 
27
1 -0.38
10 -0.03
11 0.11
12 -0.15
13 -0.07
14 -0.15
15 -0.15
16 -0.15
17 0.02
18 0.72
19 0.26
2 -0.63
20 0.36
21 0.15
22 0.06
23 0.15
24 0.15
25 0.15
26 0.15
27 0.4
3 -0.57
4 -0.22
5 0.66
6 -0.17
7 -0.21
8 -0.56
9 0.1

>  <PUBCHEM_EFFECTIVE_ROTOR_COUNT>  (1) 
3.2

>  <PUBCHEM_PHARMACOPHORE_FEATURES>  (1) 
7
1 1 anion
1 2 anion
1 3 acceptor
1 7 donor
1 8 acceptor
6 4 5 9 10 11 13 rings
6 9 10 12 14 15 16 rings

>  <PUBCHEM_HEAVY_ATOM_COUNT>  (1) 
20

>  <PUBCHEM_ATOM_DEF_STEREO_COUNT>  (1) 
0

>  <PUBCHEM_ATOM_UDEF_STEREO_COUNT>  (1) 
0

>  <PUBCHEM_BOND_DEF_STEREO_COUNT>  (1) 
0

>  <PUBCHEM_BOND_UDEF_STEREO_COUNT>  (1) 
1

>  <PUBCHEM_ISOTOPIC_ATOM_COUNT>  (1) 
0

>  <PUBCHEM_COMPONENT_COUNT>  (1) 
1

>  <PUBCHEM_CACTVS_TAUTO_COUNT>  (1) 
1

>  <PUBCHEM_CONFORMER_ID>  (1) 
0000BA8400000001

>  <PUBCHEM_MMFF94_ENERGY>  (1) 
45.0386

>  <PUBCHEM_FEATURE_SELFOVERLAP>  (1) 
35.547

>  <PUBCHEM_SHAPE_FINGERPRINT>  (1) 
10354089 29 18410293618286904379
10411042 1 17978510833043313070
10688039 33 17967531242338689980
11471102 20 18410573998395107646
11578080 2 13624969485792259340
12107183 9 17621041963189581547
12236239 1 17917992789257058719
13167372 99 18271248227462680929
13402501 40 18260545615389610829
13533116 47 14117532999316752996
14170010 4 18410292527476240833
14251764 18 18335135419092204472
14341114 176 18408328795851564723
14464042 87 17988931050150806873
14933364 13 18335422366263412573
15196674 1 18410856529628090824
17834072 33 18343581862979530567
200 152 18131069333541514017
20645477 70 18342178830408419830
21267235 1 18411987923425761622
21279426 13 18264486178895085036
221357 26 18410290298657415053
23402539 116 18060133267566290205
23559900 14 18337949091038810817
29717793 49 17703795803320088022
335352 9 18411140251769340590
34797466 226 16056882463776071920
34934 24 18339919441993735506
350125 39 18411138030849579781
351380 180 18409448111589477241
3545911 37 18409167714791930667
4072396 5 18336817637765849154
4073 2 17968382350522634723
4214541 1 18410856573168341131
42630746 31 18343023281108264574
4340502 62 16443058418309618674
5104073 3 18410012126183111937
542803 24 17346601868058246299
58260988 393 14779534691520684156
59755656 215 18334295344932431351
59755656 520 17458340862702786091
8272917 22 18413110550029688598
9999458 23 18187082892820259102

>  <PUBCHEM_SHAPE_MULTIPOLES>  (1) 
369.08
15.67
1.95
0.58
25.63
0.26
0
1.84
0.31
-1.82
-0.01
-0.05
-0.01
0.05

>  <PUBCHEM_SHAPE_SELFOVERLAP>  (1) 
786.712

>  <PUBCHEM_SHAPE_VOLUME>  (1) 
200.6

>  <PUBCHEM_COORDINATE_TYPE>  (1) 
2
5
10

$$$$
