47744
     RDKit          3D

 11 10  0  0  0  0  0  0  0  0999 V2000
    0.4583    2.2873    0.4104 O   0  0  0  0  0  0  0  0  0  0  0  0
    0.3560   -2.3073   -0.3937 O   0  0  0  0  0  0  0  0  0  0  0  0
    0.1144    0.0022    0.0029 N   0  0  0  0  0  0  0  0  0  0  0  0
   -1.3513    0.0256   -0.0031 C   0  0  0  0  0  0  0  0  0  0  0  0
   -1.8346    1.4789   -0.0710 C   0  0  0  0  0  0  0  0  0  0  0  0
   -1.8596   -0.7477   -1.2243 C   0  0  0  0  0  0  0  0  0  0  0  0
   -1.8739   -0.6298    1.2805 C   0  0  0  0  0  0  0  0  0  0  0  0
    0.8522    1.2115   -0.0498 C   0  0  0  0  0  0  0  0  0  0  0  0
    0.7840   -1.2452    0.0622 C   0  0  0  0  0  0  0  0  0  0  0  0
    2.2017    1.1606   -0.7221 C   0  0  0  0  0  0  0  0  0  0  0  0
    2.1528   -1.2362    0.7079 C   0  0  0  0  0  0  0  0  0  0  0  0
  1  8  2  0
  2  9  2  0
  3  4  1  0
  3  8  1  0
  3  9  1  0
  4  5  1  0
  4  6  1  0
  4  7  1  0
  8 10  1  0
  9 11  1  0
M  END
>  <PUBCHEM_COMPOUND_CID>  (1) 
47744

>  <PUBCHEM_CONFORMER_RMSD>  (1) 
0.6

>  <PUBCHEM_CONFORMER_DIVERSEORDER>  (1) 
1
3
2

>  <PUBCHEM_MMFF94_PARTIAL_CHARGES>  (1) 
8
1 -0.57
10 0.06
11 0.06
2 -0.57
3 -0.42
4 0.3
8 0.57
9 0.57

>  <PUBCHEM_EFFECTIVE_ROTOR_COUNT>  (1) 
3

>  <PUBCHEM_PHARMACOPHORE_FEATURES>  (1) 
3
1 1 acceptor
1 2 acceptor
4 4 5 6 7 hydrophobe

>  <PUBCHEM_HEAVY_ATOM_COUNT>  (1) 
11

>  <PUBCHEM_ATOM_DEF_STEREO_COUNT>  (1) 
0

>  <PUBCHEM_ATOM_UDEF_STEREO_COUNT>  (1) 
0

>  <PUBCHEM_BOND_DEF_STEREO_COUNT>  (1) 
0

>  <PUBCHEM_BOND_UDEF_STEREO_COUNT>  (1) 
0

>  <PUBCHEM_ISOTOPIC_ATOM_COUNT>  (1) 
0

>  <PUBCHEM_COMPONENT_COUNT>  (1) 
1

>  <PUBCHEM_CACTVS_TAUTO_COUNT>  (1) 
1

>  <PUBCHEM_CONFORMER_ID>  (1) 
0000BA8000000001

>  <PUBCHEM_MMFF94_ENERGY>  (1) 
51.982

>  <PUBCHEM_FEATURE_SELFOVERLAP>  (1) 
15.223

>  <PUBCHEM_SHAPE_FINGERPRINT>  (1) 
12423570 1 17026566094705602463
12524768 44 17764301743507972807
16945 1 18194400219659078552
18185500 45 18270672069872634655
21040471 1 18194118740434990308
21501502 16 18333737901179701089
23552423 10 18334294215049895422
241688 4 16752689361728498544
2748010 2 18409730647090891644
29004967 10 18193280693352016531
5084963 1 17844249742282443445
528862 383 18261964036559634802
54338 74 17537994762958081874
66348 1 18265893751220422508

>  <PUBCHEM_SHAPE_MULTIPOLES>  (1) 
209.66
2.87
2.22
1.02
0.17
0.2
0
0.03
-0.01
0.65
0.01
-0.37
-0.22
-0.28

>  <PUBCHEM_SHAPE_SELFOVERLAP>  (1) 
404.748

>  <PUBCHEM_SHAPE_VOLUME>  (1) 
128.2

>  <PUBCHEM_COORDINATE_TYPE>  (1) 
2
5
10

$$$$
