47749
     RDKit          3D

 18 18  0  0  0  0  0  0  0  0999 V2000
   -2.1388    1.1021   -0.1451 N   0  0  0  0  0  0  0  0  0  0  0  0
    2.4916    0.3635   -0.0940 N   0  0  0  0  0  0  0  0  0  0  0  0
    0.1814    0.7640   -0.1234 N   0  0  0  0  0  0  0  0  0  0  0  0
    1.0395   -1.4510    0.2169 N   0  0  0  0  0  0  0  0  0  0  0  0
   -1.3299   -1.0732    0.1909 N   0  0  0  0  0  0  0  0  0  0  0  0
   -0.4621   -3.2265    0.5207 N   0  0  0  0  0  0  0  0  0  0  0  0
   -3.5081    0.6127   -0.0484 C   0  0  0  0  0  0  0  0  0  0  0  0
   -1.9333    2.5287   -0.3611 C   0  0  0  0  0  0  0  0  0  0  0  0
    3.6227   -0.5330    0.0317 C   0  0  0  0  0  0  0  0  0  0  0  0
    2.7288    1.7722   -0.3361 C   0  0  0  0  0  0  0  0  0  0  0  0
   -1.0556    0.2321   -0.0210 C   0  0  0  0  0  0  0  0  0  0  0  0
    1.1735   -0.1318    0.0048 C   0  0  0  0  0  0  0  0  0  0  0  0
   -3.9704    0.0113   -1.3648 C   0  0  0  0  0  0  0  0  0  0  0  0
   -1.6376    3.2449    0.9457 C   0  0  0  0  0  0  0  0  0  0  0  0
    4.0084   -1.1223   -1.3144 C   0  0  0  0  0  0  0  0  0  0  0  0
    2.7997    2.5491    0.9676 C   0  0  0  0  0  0  0  0  0  0  0  0
   -0.2400   -1.8499    0.2988 C   0  0  0  0  0  0  0  0  0  0  0  0
   -1.7698   -3.7929    0.6311 C   0  0  0  0  0  0  0  0  0  0  0  0
  1  7  1  0
  1  8  1  0
  1 11  1  0
  2  9  1  0
  2 10  1  0
  2 12  1  0
  3 11  2  0
  3 12  1  0
  4 12  2  0
  4 17  1  0
  5 11  1  0
  5 17  2  0
  6 17  1  0
  6 18  1  0
  7 13  1  0
  8 14  1  0
  9 15  1  0
 10 16  1  0
M  END
>  <PUBCHEM_COMPOUND_CID>  (1) 
47749

>  <PUBCHEM_CONFORMER_RMSD>  (1) 
0.8

>  <PUBCHEM_CONFORMER_DIVERSEORDER>  (1) 
2
14
3
15
8
6
4
10
16
7
11
9
12
5
13
1

>  <PUBCHEM_MMFF94_PARTIAL_CHARGES>  (1) 
15
1 -0.84
10 0.37
11 0.72
12 0.72
17 0.72
18 0.37
2 -0.84
3 -0.62
39 0.4
4 -0.62
5 -0.62
6 -0.87
7 0.37
8 0.37
9 0.37

>  <PUBCHEM_EFFECTIVE_ROTOR_COUNT>  (1) 
7

>  <PUBCHEM_PHARMACOPHORE_FEATURES>  (1) 
5
1 6 donor
4 1 3 5 11 cation
4 2 3 4 12 cation
4 4 5 6 17 cation
6 3 4 5 11 12 17 rings

>  <PUBCHEM_HEAVY_ATOM_COUNT>  (1) 
18

>  <PUBCHEM_ATOM_DEF_STEREO_COUNT>  (1) 
0

>  <PUBCHEM_ATOM_UDEF_STEREO_COUNT>  (1) 
0

>  <PUBCHEM_BOND_DEF_STEREO_COUNT>  (1) 
0

>  <PUBCHEM_BOND_UDEF_STEREO_COUNT>  (1) 
0

>  <PUBCHEM_ISOTOPIC_ATOM_COUNT>  (1) 
0

>  <PUBCHEM_COMPONENT_COUNT>  (1) 
1

>  <PUBCHEM_CACTVS_TAUTO_COUNT>  (1) 
3

>  <PUBCHEM_CONFORMER_ID>  (1) 
0000BA8500000002

>  <PUBCHEM_MMFF94_ENERGY>  (1) 
51.6524

>  <PUBCHEM_FEATURE_SELFOVERLAP>  (1) 
25.501

>  <PUBCHEM_SHAPE_FINGERPRINT>  (1) 
10967382 1 18337952423384929449
11680986 33 18340487897520360248
12403260 363 18339067208032506568
13140716 1 18337954613897534498
13544592 271 17837754982990034288
13583140 156 16516229855891136393
14178342 30 17908121197521411185
16945 1 18410013212894401922
18186145 218 18409442574954815205
193761 8 17472418124557374061
19591789 44 18048885087083171510
20510252 161 18411984693056441401
20671657 1 17547573673899716169
20871999 31 18268167383091319742
21524375 3 18042124271508799730
22802520 49 18270971261884762358
2334 1 18049443935226475314
23402539 116 18341602694541097741
23419403 2 17269751700197669163
23526113 38 17989212525602082250
23557571 272 18120944064347982166
23558518 356 18342743996164201365
23559900 14 18340485690197560828
23598291 2 17623560948481274013
2748010 2 18194970870520646550
3091708 16 8912331703653888251
352729 6 18408888455311950275
43471831 8 18119246164675419683
54173680 148 18263931097227096395
58051976 378 18340198588354548887
633830 44 18342731897678847581
7364860 26 17832984945219151179
74978 22 18408889551087344662
81228 2 17972326379955790610
9709674 26 18342176725921644726

>  <PUBCHEM_SHAPE_MULTIPOLES>  (1) 
340.55
6.34
4.1
0.98
2.06
1.47
0.17
-1.18
2.09
-1.75
-1.6
-0.02
-0.05
0.81

>  <PUBCHEM_SHAPE_SELFOVERLAP>  (1) 
668.607

>  <PUBCHEM_SHAPE_VOLUME>  (1) 
194.3

>  <PUBCHEM_COORDINATE_TYPE>  (1) 
2
5
10

$$$$
