4774
     RDKit          3D

 21 23  0  0  0  0  0  0  0  0999 V2000
    3.8076   -3.6393   -0.4237 O   0  0  0  0  0  0  0  0  0  0  0  0
   -0.1809    0.1400    0.4325 N   0  0  0  0  0  0  0  0  0  0  0  0
    2.1553    2.8530    0.8120 N   0  0  0  0  0  0  0  0  0  0  0  0
    0.8212    2.5786   -0.9421 N   0  0  0  0  0  0  0  0  0  0  0  0
    0.2000    1.3677    1.1493 C   0  0  0  0  0  0  0  0  0  0  0  0
   -1.5670   -0.0458    0.2508 C   0  0  0  0  0  0  0  0  0  0  0  0
    0.8397   -0.8280    0.2143 C   0  0  0  0  0  0  0  0  0  0  0  0
    1.0479    2.2744    0.2974 C   0  0  0  0  0  0  0  0  0  0  0  0
   -2.1315   -1.3081    0.4348 C   0  0  0  0  0  0  0  0  0  0  0  0
   -2.3734    1.0325   -0.1130 C   0  0  0  0  0  0  0  0  0  0  0  0
    0.6570   -1.8091   -0.7508 C   0  0  0  0  0  0  0  0  0  0  0  0
    2.0044   -0.7767    0.9682 C   0  0  0  0  0  0  0  0  0  0  0  0
   -4.3089   -0.4135   -0.1087 C   0  0  0  0  0  0  0  0  0  0  0  0
   -3.5024   -1.4919    0.2551 C   0  0  0  0  0  0  0  0  0  0  0  0
   -3.7444    0.8487   -0.2927 C   0  0  0  0  0  0  0  0  0  0  0  0
    1.6576   -2.7568   -0.9659 C   0  0  0  0  0  0  0  0  0  0  0  0
    3.0051   -1.7244    0.7531 C   0  0  0  0  0  0  0  0  0  0  0  0
    2.8316   -2.7144   -0.2139 C   0  0  0  0  0  0  0  0  0  0  0  0
   -5.7746   -0.6101   -0.3007 C   0  0  0  0  0  0  0  0  0  0  0  0
    2.6980    3.6044   -0.1919 C   0  0  0  0  0  0  0  0  0  0  0  0
    1.8575    3.4187   -1.2643 C   0  0  0  0  0  0  0  0  0  0  0  0
  1 18  1  0
  2  5  1  0
  2  6  1  0
  2  7  1  0
  3  8  1  0
  3 20  1  0
  4  8  2  0
  4 21  1  0
  5  8  1  0
  6  9  2  0
  6 10  1  0
  7 11  2  0
  7 12  1  0
  9 14  1  0
 10 15  2  0
 11 16  1  0
 12 17  2  0
 13 14  2  0
 13 15  1  0
 13 19  1  0
 16 18  2  0
 17 18  1  0
 20 21  2  0
M  END
>  <PUBCHEM_COMPOUND_CID>  (1) 
4774

>  <PUBCHEM_CONFORMER_RMSD>  (1) 
0.6

>  <PUBCHEM_CONFORMER_DIVERSEORDER>  (1) 
1
33
19
18
25
17
30
24
10
27
7
14
20
28
13
32
4
26
2
8
31
11
15
29
9
22
23
6
3
5
16
12
21

>  <PUBCHEM_MMFF94_PARTIAL_CHARGES>  (1) 
33
1 -0.53
10 -0.15
11 -0.15
12 -0.15
13 -0.14
14 -0.15
15 -0.15
16 -0.15
17 -0.15
18 0.08
19 0.14
2 -0.57
20 -0.3
21 0.08
24 0.15
25 0.15
26 0.15
27 0.15
28 0.15
29 0.15
3 0.03
30 0.27
31 0.15
32 0.15
33 0.15
37 0.15
38 0.45
4 -0.57
5 0.55
6 0.1
7 0.1
8 0.01
9 -0.15

>  <PUBCHEM_EFFECTIVE_ROTOR_COUNT>  (1) 
4

>  <PUBCHEM_PHARMACOPHORE_FEATURES>  (1) 
7
1 1 donor
1 2 cation
1 3 donor
3 3 4 8 cation
5 3 4 8 20 21 rings
6 6 9 10 13 14 15 rings
6 7 11 12 16 17 18 rings

>  <PUBCHEM_HEAVY_ATOM_COUNT>  (1) 
21

>  <PUBCHEM_ATOM_DEF_STEREO_COUNT>  (1) 
0

>  <PUBCHEM_ATOM_UDEF_STEREO_COUNT>  (1) 
0

>  <PUBCHEM_BOND_DEF_STEREO_COUNT>  (1) 
0

>  <PUBCHEM_BOND_UDEF_STEREO_COUNT>  (1) 
0

>  <PUBCHEM_ISOTOPIC_ATOM_COUNT>  (1) 
0

>  <PUBCHEM_COMPONENT_COUNT>  (1) 
1

>  <PUBCHEM_CACTVS_TAUTO_COUNT>  (1) 
2

>  <PUBCHEM_CONFORMER_ID>  (1) 
000012A600000001

>  <PUBCHEM_MMFF94_ENERGY>  (1) 
72.1603

>  <PUBCHEM_FEATURE_SELFOVERLAP>  (1) 
35.524

>  <PUBCHEM_SHAPE_FINGERPRINT>  (1) 
11045515 52 18118692010804308708
11578080 2 16589402260076972286
11833330 49 17975415707366979250
11963148 33 17614835640874373595
12422481 6 18121464008957893432
12592029 89 18192153913024351168
12730499 353 18194975256267623563
12788726 201 17539976074316540906
12839892 36 17979058706906288011
13257819 37 17467373534701340196
133893 2 18265076728171408241
13681431 1 18337963306905832720
138480 1 18410856525507001988
13955234 65 18339646745365792923
14347424 109 18267606714219668483
14508225 48 18123749760123835102
14790565 3 17040363978472273067
14955137 171 18341607157629160424
15502722 9 18337393854493250921
167882 2 18337111288605494044
17134986 127 18048600614171802668
17357779 13 17981867667036347876
17492 54 18189637062985382796
1813 80 18266743489020032859
18785283 64 18334861666234687369
18915476 22 18192169272101526619
19591789 44 17619632818178303434
20600515 1 17984708813645906234
20645477 70 18337382838324272787
21304303 282 16385602042072009796
21524375 3 17829605407005025825
22907989 373 17689721853164567590
23114952 82 18334856147433885733
23366157 5 18187646937642070635
23402539 116 18052532171373618855
23419403 2 17823952629064248692
23557571 272 17838054797893641998
23559900 14 18411411809265793843
23566358 27 18340202003107036335
298252 57 17757269653816072280
3060560 45 18191869131239619340
314173 41 18337392634738961019
4409770 3 17396693186267020117
458136 41 18122925366989529121
46194498 28 18191557871102029063
59755656 215 18336829800522634501
6025842 7 18339919437345405479
6138700 20 18336835268944228724
6669772 16 18054802929800534356
7364860 26 18411699923850318465
81228 2 17836659517157764554
81539 233 18190739941155374909
9709674 26 18409447012241906115
9841814 1 18114455682744293811

>  <PUBCHEM_SHAPE_MULTIPOLES>  (1) 
411.36
7.7
4.66
1.01
11.35
1.47
0.03
-2.53
0.62
-7.72
1.27
-0.49
0.2
0.1

>  <PUBCHEM_SHAPE_SELFOVERLAP>  (1) 
898.403

>  <PUBCHEM_SHAPE_VOLUME>  (1) 
226

>  <PUBCHEM_COORDINATE_TYPE>  (1) 
2
5
10

$$$$
