47755
     RDKit          3D

 23 24  0  0  0  0  0  0  0  0999 V2000
    3.4417    0.6937    0.0417 S   0  0  0  0  0  0  0  0  0  0  0  0
   -1.3249   -0.6503    0.9406 O   0  0  0  0  0  0  0  0  0  0  0  0
    0.5973    0.9605   -0.4391 O   0  0  0  0  0  0  0  0  0  0  0  0
    0.2615    2.6564    1.0993 O   0  0  0  0  0  0  0  0  0  0  0  0
    2.5233   -1.2141   -1.8643 O   0  0  0  0  0  0  0  0  0  0  0  0
    1.9396   -2.8592   -0.3878 O   0  0  0  0  0  0  0  0  0  0  0  0
    2.4052    1.8033    0.8365 N   0  0  0  0  0  0  0  0  0  0  0  0
    2.8205   -0.8628    0.4038 N   0  0  0  0  0  0  0  0  0  0  0  0
   -2.5515   -1.3902    1.2069 C   0  0  0  0  0  0  0  0  0  0  0  0
   -3.7342   -0.6511    0.5380 C   0  0  0  0  0  0  0  0  0  0  0  0
   -2.9934    0.2496   -0.3737 C   0  0  0  0  0  0  0  0  0  0  0  0
   -1.6424    0.2149   -0.0728 C   0  0  0  0  0  0  0  0  0  0  0  0
   -2.7292   -1.4579    2.7245 C   0  0  0  0  0  0  0  0  0  0  0  0
   -2.3749   -2.8039    0.6383 C   0  0  0  0  0  0  0  0  0  0  0  0
   -3.4774    1.0799   -1.3685 C   0  0  0  0  0  0  0  0  0  0  0  0
   -0.7238    0.9990   -0.7438 C   0  0  0  0  0  0  0  0  0  0  0  0
   -2.5658    1.8759   -2.0668 C   0  0  0  0  0  0  0  0  0  0  0  0
   -1.1970    1.8362   -1.7556 C   0  0  0  0  0  0  0  0  0  0  0  0
    1.0378    1.8744    0.5509 C   0  0  0  0  0  0  0  0  0  0  0  0
    3.0317    2.6673    1.8259 C   0  0  0  0  0  0  0  0  0  0  0  0
    2.7622   -1.2301    1.8108 C   0  0  0  0  0  0  0  0  0  0  0  0
    2.3914   -1.7351   -0.6019 C   0  0  0  0  0  0  0  0  0  0  0  0
    2.1022   -2.0566   -2.9430 C   0  0  0  0  0  0  0  0  0  0  0  0
  1  7  1  0
  1  8  1  0
  2  9  1  0
  2 12  1  0
  3 16  1  0
  3 19  1  0
  4 19  2  0
  5 22  1  0
  5 23  1  0
  6 22  2  0
  7 19  1  0
  7 20  1  0
  8 21  1  0
  8 22  1  0
  9 10  1  0
  9 13  1  0
  9 14  1  0
 10 11  1  0
 11 12  2  0
 11 15  1  0
 12 16  1  0
 15 17  2  0
 16 18  2  0
 17 18  1  0
M  END
>  <PUBCHEM_COMPOUND_CID>  (1) 
47755

>  <PUBCHEM_CONFORMER_RMSD>  (1) 
1

>  <PUBCHEM_CONFORMER_DIVERSEORDER>  (1) 
2
296
394
70
287
247
443
162
362
330
227
289
140
341
388
156
447
165
325
437
442
390
426
226
225
219
200
441
322
413
242
151
78
332
363
351
92
59
298
353
208
89
152
265
376
378
397
250
366
184
456
386
153
432
123
46
369
125
177
338
431
222
278
292
343
121
18
35
157
411
236
272
367
424
305
453
288
396
268
188
135
429
37
263
27
331
126
214
88
280
408
277
91
228
297
284
383
373
308
275
395
105
425
179
130
175
202
127
352
251
217
398
206
167
306
419
301
108
348
133
354
313
41
387
75
260
335
26
235
434
384
203
253
36
415
174
281
187
349
391
405
430
54
295
264
191
346
229
402
427
404
209
65
279
371
212
87
190
90
418
172
195
6
448
257
291
300
377
120
406
61
171
210
185
359
319
199
245
51
231
336
273
368
329
392
328
262
274
334
145
379
232
365
168
421
314
283
66
435
63
112
233
323
309
129
449
106
240
445
32
180
183
312
304
198
433
164
457
149
370
138
324
110
375
436
99
139
158
230
15
420
311
107
345
8
327
221
294
423
25
380
261
259
403
141
181
67
282
238
372
143
438
350
119
239
374
246
361
95
161
117
81
234
193
318
4
166
440
385
204
310
446
147
244
86
339
155
39
266
96
428
355
77
42
249
103
409
412
213
55
451
223
186
220
302
401
364
342
290
256
170
454
43
116
154
258
47
136
84
285
82
344
400
21
358
16
360
182
201
173
148
22
24
267
254
109
340
20
31
337
71
270
399
303
45
243
40
144
252
57
69
315
422
79
205
241
19
439
381
417
271
23
134
85
131
72
49
444
452
357
407
132
124
102
160
80
29
224
11
382
215
7
60
316
62
321
455
414
93
286
104
189
113
53
83
33
38
299
178
50
192
307
5
111
114
196
17
194
211
255
74
450
237
197
320
146
216
10
94
248
115
137
122
317
48
68
326
293
169
150
34
30
14
333
410
207
142
58
64
347
1
118
100
176
73
98
416
101
163
389
128
9
28
12
276
97
44
52
13
76
218
356
3
159
269
393
56

>  <PUBCHEM_MMFF94_PARTIAL_CHARGES>  (1) 
24
1 0.02
10 0.14
11 -0.14
12 0.08
15 -0.15
16 0.08
17 -0.15
18 -0.15
19 0.78
2 -0.36
20 0.3
21 0.3
22 0.78
23 0.28
3 -0.23
32 0.15
33 0.15
34 0.15
4 -0.57
5 -0.43
6 -0.57
7 -0.37
8 -0.37
9 0.28

>  <PUBCHEM_EFFECTIVE_ROTOR_COUNT>  (1) 
7.6

>  <PUBCHEM_PHARMACOPHORE_FEATURES>  (1) 
6
1 2 acceptor
1 4 acceptor
1 6 acceptor
3 9 13 14 hydrophobe
5 2 9 10 11 12 rings
6 11 12 15 16 17 18 rings

>  <PUBCHEM_HEAVY_ATOM_COUNT>  (1) 
23

>  <PUBCHEM_ATOM_DEF_STEREO_COUNT>  (1) 
0

>  <PUBCHEM_ATOM_UDEF_STEREO_COUNT>  (1) 
0

>  <PUBCHEM_BOND_DEF_STEREO_COUNT>  (1) 
0

>  <PUBCHEM_BOND_UDEF_STEREO_COUNT>  (1) 
0

>  <PUBCHEM_ISOTOPIC_ATOM_COUNT>  (1) 
0

>  <PUBCHEM_COMPONENT_COUNT>  (1) 
1

>  <PUBCHEM_CACTVS_TAUTO_COUNT>  (1) 
1

>  <PUBCHEM_CONFORMER_ID>  (1) 
0000BA8B00000002

>  <PUBCHEM_MMFF94_ENERGY>  (1) 
66.3411

>  <PUBCHEM_FEATURE_SELFOVERLAP>  (1) 
30.547

>  <PUBCHEM_SHAPE_FINGERPRINT>  (1) 
10366900 7 18410285891830760316
10906281 52 18198048193514684832
11582403 64 16607363916262361420
11640471 11 15913334623346629537
12363563 72 17841144459800979958
12633257 1 18412261735510890834
12714826 92 18042711440977916887
12788726 201 17336480640049203092
14115302 16 17532652317600195358
15635459 17 18411139147060788618
15664445 248 17172113908089293525
16752209 62 17168134616815868029
17980427 23 15719393984175328980
19049666 15 18337101276899849797
20397935 3 17603875528251917050
20600515 1 17758941646488387464
20645476 183 15864634942981642137
20645477 70 18130492098469337876
20905425 154 18188762976256756562
21285901 2 18114736123145647351
22182313 1 18186515515172280415
23526113 38 18196073457149704348
23557571 272 17894914039778486364
23559900 14 18041267782479607500
238 59 18127945642281509084
2748010 2 18187930620516963859
495365 180 18057294323568501353
539174 4 16128374805446592334
576247 118 17842306712194711366
7097593 13 14260507912283207710
81228 2 17677042547187612205
84936 31 17846786242730298942
9709674 26 18261381252389127228

>  <PUBCHEM_SHAPE_MULTIPOLES>  (1) 
437.87
6.56
3.3
2.48
0.05
0.34
-0.69
0.76
0.88
-0.5
0.14
-0.73
0.56
3.51

>  <PUBCHEM_SHAPE_SELFOVERLAP>  (1) 
899.646

>  <PUBCHEM_SHAPE_VOLUME>  (1) 
257.6

>  <PUBCHEM_COORDINATE_TYPE>  (1) 
2
5
10

$$$$
