47759
     RDKit          3D

 26 27  0  0  0  0  0  0  0  0999 V2000
    3.5701   -0.4984    0.4491 S   0  0  0  0  0  0  0  0  0  0  0  0
   -1.1529   -1.0111   -1.2146 O   0  0  0  0  0  0  0  0  0  0  0  0
    0.7213   -0.7129    0.9287 O   0  0  0  0  0  0  0  0  0  0  0  0
    2.2776    2.0280    0.1980 O   0  0  0  0  0  0  0  0  0  0  0  0
    0.7115   -3.0064    1.2382 O   0  0  0  0  0  0  0  0  0  0  0  0
    1.7368    1.8717   -2.0179 O   0  0  0  0  0  0  0  0  0  0  0  0
    2.7307   -1.9559    0.7779 N   0  0  0  0  0  0  0  0  0  0  0  0
    2.8682    0.1282   -0.9843 N   0  0  0  0  0  0  0  0  0  0  0  0
   -2.3971   -0.9192   -1.9671 C   0  0  0  0  0  0  0  0  0  0  0  0
   -3.5843   -1.0530   -0.9849 C   0  0  0  0  0  0  0  0  0  0  0  0
   -2.8836   -0.8280    0.2995 C   0  0  0  0  0  0  0  0  0  0  0  0
   -1.5143   -0.8391    0.0955 C   0  0  0  0  0  0  0  0  0  0  0  0
   -2.3993   -2.0521   -2.9946 C   0  0  0  0  0  0  0  0  0  0  0  0
   -2.4079    0.4366   -2.6846 C   0  0  0  0  0  0  0  0  0  0  0  0
   -3.4105   -0.6719    1.5689 C   0  0  0  0  0  0  0  0  0  0  0  0
   -0.6188   -0.6967    1.1381 C   0  0  0  0  0  0  0  0  0  0  0  0
   -2.5242   -0.5175    2.6380 C   0  0  0  0  0  0  0  0  0  0  0  0
   -1.1365   -0.5306    2.4239 C   0  0  0  0  0  0  0  0  0  0  0  0
    1.3499   -1.9815    0.9994 C   0  0  0  0  0  0  0  0  0  0  0  0
    0.1947    3.1565    0.6031 C   0  0  0  0  0  0  0  0  0  0  0  0
   -0.5282    4.4996    0.6494 C   0  0  0  0  0  0  0  0  0  0  0  0
    1.6635    3.3210    0.2391 C   0  0  0  0  0  0  0  0  0  0  0  0
   -2.0041    4.3270    0.9708 C   0  0  0  0  0  0  0  0  0  0  0  0
    3.5393   -3.1654    0.8130 C   0  0  0  0  0  0  0  0  0  0  0  0
    2.2525    1.3838   -1.0131 C   0  0  0  0  0  0  0  0  0  0  0  0
    2.9458   -0.7128   -2.1695 C   0  0  0  0  0  0  0  0  0  0  0  0
  1  7  1  0
  1  8  1  0
  2  9  1  0
  2 12  1  0
  3 16  1  0
  3 19  1  0
  4 22  1  0
  4 25  1  0
  5 19  2  0
  6 25  2  0
  7 19  1  0
  7 24  1  0
  8 25  1  0
  8 26  1  0
  9 10  1  0
  9 13  1  0
  9 14  1  0
 10 11  1  0
 11 12  2  0
 11 15  1  0
 12 16  1  0
 15 17  2  0
 16 18  2  0
 17 18  1  0
 20 21  1  0
 20 22  1  0
 21 23  1  0
M  END
>  <PUBCHEM_COMPOUND_CID>  (1) 
47759

>  <PUBCHEM_CONFORMER_RMSD>  (1) 
1.2

>  <PUBCHEM_CONFORMER_DIVERSEORDER>  (1) 
5
152
8
76
86
64
66
24
163
49
88
159
166
29
7
58
156
72
145
80
21
45
165
42
67
55
126
125
104
105
23
27
18
54
106
135
120
82
113
69
28
31
123
9
73
6
136
43
46
134
41
87
122
70
160
148
128
63
74
37
68
75
140
119
99
61
19
139
25
157
97
10
52
26
12
110
127
131
14
164
51
77
48
146
57
84
124
11
107
138
98
39
103
33
129
3
47
149
141
79
60
130
93
154
78
137
40
1
133
161
15
151
36
13
116
167
59
56
102
62
53
158
108
142
147
30
91
65
89
114
44
155
83
132
144
143
22
117
34
35
95
96
81
112
17
109
94
101
50
100
150
2
20
118
121
111
90
4
85
115
16
153
38
162
32
92
71

>  <PUBCHEM_MMFF94_PARTIAL_CHARGES>  (1) 
24
1 0.02
10 0.14
11 -0.14
12 0.08
15 -0.15
16 0.08
17 -0.15
18 -0.15
19 0.78
2 -0.36
22 0.28
24 0.3
25 0.78
26 0.3
3 -0.23
35 0.15
36 0.15
37 0.15
4 -0.43
5 -0.57
6 -0.57
7 -0.37
8 -0.37
9 0.28

>  <PUBCHEM_EFFECTIVE_ROTOR_COUNT>  (1) 
10.6

>  <PUBCHEM_PHARMACOPHORE_FEATURES>  (1) 
7
1 2 acceptor
1 23 hydrophobe
1 5 acceptor
1 6 acceptor
3 9 13 14 hydrophobe
5 2 9 10 11 12 rings
6 11 12 15 16 17 18 rings

>  <PUBCHEM_HEAVY_ATOM_COUNT>  (1) 
26

>  <PUBCHEM_ATOM_DEF_STEREO_COUNT>  (1) 
0

>  <PUBCHEM_ATOM_UDEF_STEREO_COUNT>  (1) 
0

>  <PUBCHEM_BOND_DEF_STEREO_COUNT>  (1) 
0

>  <PUBCHEM_BOND_UDEF_STEREO_COUNT>  (1) 
0

>  <PUBCHEM_ISOTOPIC_ATOM_COUNT>  (1) 
0

>  <PUBCHEM_COMPONENT_COUNT>  (1) 
1

>  <PUBCHEM_CACTVS_TAUTO_COUNT>  (1) 
1

>  <PUBCHEM_CONFORMER_ID>  (1) 
0000BA8F00000005

>  <PUBCHEM_MMFF94_ENERGY>  (1) 
62.4003

>  <PUBCHEM_FEATURE_SELFOVERLAP>  (1) 
35.622

>  <PUBCHEM_SHAPE_FINGERPRINT>  (1) 
10165383 225 17319892694393729268
104564 63 18192172420460416032
11578080 2 17268589198611354442
11582403 64 8192257604470169249
11725454 13 16884371723468468323
12156800 1 16688446134484879905
13583140 156 18051149261203772603
13911987 19 18117285963651303372
13965767 371 17774178819837860632
14251757 17 16660916674207535398
14251764 3 17541350867451631469
18219364 16 17899703649862842056
19930381 70 17904768022359471161
20600515 1 16954464249856910280
23559900 14 15864063291019005426
23598288 3 18050582749962775354
238 59 17904744927861345477
35225 105 17901972745647439821
3524813 1 17533521150808410446
57359948 33 16178393999193511463
6438718 38 17835516025312829530
81228 2 17323210651324989298

>  <PUBCHEM_SHAPE_MULTIPOLES>  (1) 
499.61
5.95
4.79
2.82
1.75
7.19
-1.12
-3.16
-0.75
0.57
1.07
-2.03
-1.43
-1.86

>  <PUBCHEM_SHAPE_SELFOVERLAP>  (1) 
1014.233

>  <PUBCHEM_SHAPE_VOLUME>  (1) 
295.7

>  <PUBCHEM_COORDINATE_TYPE>  (1) 
2
5
10

$$$$
