47753
     RDKit          3D

 29 32  0  0  0  0  0  0  0  0999 V2000
    1.7108    3.9979   -0.0510 S   0  0  0  0  0  0  0  0  0  0  0  0
   -0.4775   -2.3232   -0.8854 O   0  0  0  0  0  0  0  0  0  0  0  0
   -3.2435    1.9655    0.6962 O   0  0  0  0  0  0  0  0  0  0  0  0
    1.7969    4.3038    1.5508 O   0  0  0  0  0  0  0  0  0  0  0  0
    1.9114   -1.2428   -2.3466 O   0  0  0  0  0  0  0  0  0  0  0  0
    3.0701    3.7889   -0.5213 O   0  0  0  0  0  0  0  0  0  0  0  0
    0.8550    5.0005   -0.6612 O   0  0  0  0  0  0  0  0  0  0  0  0
   -1.1833    3.5236    0.5365 N   0  0  0  0  0  0  0  0  0  0  0  0
   -0.4156   -0.0052   -0.4028 C   0  0  0  0  0  0  0  0  0  0  0  0
   -1.1371    1.1167    0.0103 C   0  0  0  0  0  0  0  0  0  0  0  0
    0.9471    0.1121   -0.7019 C   0  0  0  0  0  0  0  0  0  0  0  0
   -0.4961    2.3562    0.1238 C   0  0  0  0  0  0  0  0  0  0  0  0
    0.8621    2.4687   -0.1754 C   0  0  0  0  0  0  0  0  0  0  0  0
   -2.5175   -1.4288   -0.2080 C   0  0  0  0  0  0  0  0  0  0  0  0
   -3.2391   -0.3067    0.2051 C   0  0  0  0  0  0  0  0  0  0  0  0
   -1.0794   -1.3189   -0.5268 C   0  0  0  0  0  0  0  0  0  0  0  0
   -2.5752    1.0071    0.3291 C   0  0  0  0  0  0  0  0  0  0  0  0
    1.5821    1.3491   -0.5873 C   0  0  0  0  0  0  0  0  0  0  0  0
    1.7938   -0.9925   -1.1403 C   0  0  0  0  0  0  0  0  0  0  0  0
   -3.1586   -2.6682   -0.3219 C   0  0  0  0  0  0  0  0  0  0  0  0
   -4.6018   -0.4240    0.5043 C   0  0  0  0  0  0  0  0  0  0  0  0
    2.5412   -1.8530   -0.1782 C   0  0  0  0  0  0  0  0  0  0  0  0
   -4.5167   -2.7807   -0.0229 C   0  0  0  0  0  0  0  0  0  0  0  0
   -5.2368   -1.6609    0.3892 C   0  0  0  0  0  0  0  0  0  0  0  0
    2.4252   -1.5925    1.1685 C   0  0  0  0  0  0  0  0  0  0  0  0
    3.3189   -2.8751   -0.6736 C   0  0  0  0  0  0  0  0  0  0  0  0
    3.1245   -2.3971    2.0681 C   0  0  0  0  0  0  0  0  0  0  0  0
    4.0181   -3.6797    0.2260 C   0  0  0  0  0  0  0  0  0  0  0  0
    3.9209   -3.4407    1.5968 C   0  0  0  0  0  0  0  0  0  0  0  0
  1  4  1  0
  1  6  2  0
  1  7  2  0
  1 13  1  0
  2 16  2  0
  3 17  2  0
  5 19  2  0
  8 12  1  0
  9 10  1  0
  9 11  2  0
  9 16  1  0
 10 12  2  0
 10 17  1  0
 11 18  1  0
 11 19  1  0
 12 13  1  0
 13 18  2  0
 14 15  2  0
 14 16  1  0
 14 20  1  0
 15 17  1  0
 15 21  1  0
 19 22  1  0
 20 23  2  0
 21 24  2  0
 22 25  2  0
 22 26  1  0
 23 24  1  0
 25 27  1  0
 26 28  2  0
 27 29  2  0
 28 29  1  0
M  END
>  <PUBCHEM_COMPOUND_CID>  (1) 
47753

>  <PUBCHEM_CONFORMER_RMSD>  (1) 
0.8

>  <PUBCHEM_CONFORMER_DIVERSEORDER>  (1) 
1
2

>  <PUBCHEM_MMFF94_PARTIAL_CHARGES>  (1) 
42
1 1.49
10 0.09
11 0.09
12 0.1
13 -0.01
14 0.09
15 0.09
16 0.4
17 0.4
18 -0.15
19 0.4
2 -0.57
20 -0.15
21 -0.15
22 0.09
23 -0.15
24 -0.15
25 -0.15
26 -0.15
27 -0.15
28 -0.15
29 -0.15
3 -0.57
30 0.15
31 0.15
32 0.15
33 0.4
34 0.4
35 0.15
36 0.15
37 0.15
38 0.15
39 0.5
4 -0.68
40 0.15
41 0.15
42 0.15
5 -0.57
6 -0.65
7 -0.65
8 -0.9
9 0.09

>  <PUBCHEM_EFFECTIVE_ROTOR_COUNT>  (1) 
3

>  <PUBCHEM_PHARMACOPHORE_FEATURES>  (1) 
13
1 2 acceptor
1 3 acceptor
1 4 acceptor
1 5 acceptor
1 6 acceptor
1 7 acceptor
1 8 cation
1 8 donor
4 1 4 6 7 anion
6 14 15 20 21 23 24 rings
6 22 25 26 27 28 29 rings
6 9 10 11 12 13 18 rings
6 9 10 14 15 16 17 rings

>  <PUBCHEM_HEAVY_ATOM_COUNT>  (1) 
29

>  <PUBCHEM_ATOM_DEF_STEREO_COUNT>  (1) 
0

>  <PUBCHEM_ATOM_UDEF_STEREO_COUNT>  (1) 
0

>  <PUBCHEM_BOND_DEF_STEREO_COUNT>  (1) 
0

>  <PUBCHEM_BOND_UDEF_STEREO_COUNT>  (1) 
0

>  <PUBCHEM_ISOTOPIC_ATOM_COUNT>  (1) 
0

>  <PUBCHEM_COMPONENT_COUNT>  (1) 
1

>  <PUBCHEM_CACTVS_TAUTO_COUNT>  (1) 
5

>  <PUBCHEM_CONFORMER_ID>  (1) 
0000BA8900000001

>  <PUBCHEM_MMFF94_ENERGY>  (1) 
106.8651

>  <PUBCHEM_FEATURE_SELFOVERLAP>  (1) 
66.073

>  <PUBCHEM_SHAPE_FINGERPRINT>  (1) 
10074138 170 17543322992132740794
10090160 65 17834393802135466773
10119406 146 17547022179342382204
10369192 42 17487308626471425994
10411042 1 18339084791660765255
10930396 42 17687422864508135426
1100329 8 18267311928569516353
11534866 41 17248083650847477859
11552529 35 17757541959538733130
11578080 2 17677316260530581652
12107183 9 18269289989032572545
12160290 23 17625540081942985332
12553582 1 18267880393002431039
12788726 201 17973741185496983490
13009979 54 18044387023837710678
13140716 1 18196937664768020264
13540713 5 18130230484291835071
138480 1 18411141350452708615
14787075 74 18186527613926614422
14790565 3 17619639420234562477
14844126 61 17830172407143983474
15042514 8 18050290258479592999
15420108 30 17700688738216160687
15475509 35 17677637391784803395
15927050 60 17907302400793723943
19591789 44 17405151111134554829
20567600 347 17829890189090301418
20600515 1 18127129671462174864
21133665 82 17980492475462037228
21421861 104 18337394958326252611
21650355 55 18121775028402299794
21796203 349 17976300946992076506
22956985 138 18263071253738561242
23366157 5 18262524822145016053
23559900 14 18202293515156687535
283562 15 17260174498258275213
3091708 16 9212634747532373004
3383291 50 18050569840462383648
345986 75 17679010500633174842
376196 1 17268077165094546364
394222 165 18053386783818354146
4058900 60 17830183754774866901
4409770 3 17612024885199050493
5104073 3 18268163097089076595
5265222 85 16610565389739053734
57527358 35 15578416647450357029
58807428 26 17836637900587772968
6673363 416 18339373964484720350
6679774 75 17828183713654797008
7097593 13 18409725179402552851
79837 15 17185876640714563074
90316 7 18194119607891751227
9841814 1 18410865377440231063
9981440 41 17688588685930453923

>  <PUBCHEM_SHAPE_MULTIPOLES>  (1) 
560.46
8.01
6.5
1.3
4.9
7.86
-0.09
-9.8
-2.14
-4.79
-0.9
-1.37
-0.52
-1.16

>  <PUBCHEM_SHAPE_SELFOVERLAP>  (1) 
1258.591

>  <PUBCHEM_SHAPE_VOLUME>  (1) 
296

>  <PUBCHEM_COORDINATE_TYPE>  (1) 
2
5
10

$$$$
