47756
     RDKit          3D

 24 25  0  0  0  0  0  0  0  0999 V2000
   -3.2522   -1.0990    0.1174 S   0  0  0  0  0  0  0  0  0  0  0  0
    1.5169    0.1430    1.1416 O   0  0  0  0  0  0  0  0  0  0  0  0
   -0.4789   -0.8195   -0.6709 O   0  0  0  0  0  0  0  0  0  0  0  0
    0.1264   -2.9943   -0.1612 O   0  0  0  0  0  0  0  0  0  0  0  0
   -2.6696    1.5612   -0.7191 O   0  0  0  0  0  0  0  0  0  0  0  0
   -1.9909    2.3732    1.3076 O   0  0  0  0  0  0  0  0  0  0  0  0
   -2.0728   -2.3399    0.1965 N   0  0  0  0  0  0  0  0  0  0  0  0
   -2.6687    0.1607    1.1234 N   0  0  0  0  0  0  0  0  0  0  0  0
    2.7293    0.7918    1.6235 C   0  0  0  0  0  0  0  0  0  0  0  0
    3.8558    0.5757    0.5860 C   0  0  0  0  0  0  0  0  0  0  0  0
    3.0540    0.1373   -0.5784 C   0  0  0  0  0  0  0  0  0  0  0  0
    1.7500   -0.1097   -0.1844 C   0  0  0  0  0  0  0  0  0  0  0  0
    3.0878    0.1584    2.9687 C   0  0  0  0  0  0  0  0  0  0  0  0
    2.4156    2.2810    1.8146 C   0  0  0  0  0  0  0  0  0  0  0  0
    3.4526   -0.0767   -1.8857 C   0  0  0  0  0  0  0  0  0  0  0  0
    0.7953   -0.5765   -1.0677 C   0  0  0  0  0  0  0  0  0  0  0  0
    2.5024   -0.5404   -2.7990 C   0  0  0  0  0  0  0  0  0  0  0  0
    1.1817   -0.7896   -2.3921 C   0  0  0  0  0  0  0  0  0  0  0  0
   -0.7490   -2.1298   -0.2028 C   0  0  0  0  0  0  0  0  0  0  0  0
   -2.5300   -3.6252    0.7035 C   0  0  0  0  0  0  0  0  0  0  0  0
   -2.4566   -0.1697    2.5248 C   0  0  0  0  0  0  0  0  0  0  0  0
   -2.4096    1.4408    0.6228 C   0  0  0  0  0  0  0  0  0  0  0  0
   -2.4257    2.8484   -1.2971 C   0  0  0  0  0  0  0  0  0  0  0  0
   -2.7638    2.7987   -2.7720 C   0  0  0  0  0  0  0  0  0  0  0  0
  1  7  1  0
  1  8  1  0
  2  9  1  0
  2 12  1  0
  3 16  1  0
  3 19  1  0
  4 19  2  0
  5 22  1  0
  5 23  1  0
  6 22  2  0
  7 19  1  0
  7 20  1  0
  8 21  1  0
  8 22  1  0
  9 10  1  0
  9 13  1  0
  9 14  1  0
 10 11  1  0
 11 12  2  0
 11 15  1  0
 12 16  1  0
 15 17  2  0
 16 18  2  0
 17 18  1  0
 23 24  1  0
M  END
>  <PUBCHEM_COMPOUND_CID>  (1) 
47756

>  <PUBCHEM_CONFORMER_RMSD>  (1) 
1

>  <PUBCHEM_CONFORMER_DIVERSEORDER>  (1) 
3
179
161
217
262
195
108
83
115
278
130
165
102
176
79
58
98
261
275
156
203
241
218
229
187
238
113
199
136
49
164
277
109
127
88
84
205
257
142
70
189
132
209
191
270
146
221
120
175
69
263
42
265
197
243
280
266
160
124
121
28
186
258
74
35
232
101
114
223
193
138
259
202
143
254
174
198
212
37
78
52
24
252
246
81
129
188
54
214
235
131
158
228
135
248
274
272
155
104
236
249
13
242
60
207
139
96
117
264
50
105
169
63
201
48
171
150
245
126
10
260
233
12
276
172
153
251
210
32
67
151
170
2
97
271
21
234
145
33
141
182
100
162
204
255
190
111
86
90
144
75
14
192
178
119
247
267
183
19
8
194
211
273
279
226
7
220
85
181
177
46
184
16
125
206
134
128
34
25
17
57
222
225
64
73
61
256
55
65
87
110
45
152
11
157
112
163
244
71
196
91
18
148
41
227
123
200
268
103
51
62
30
167
53
39
93
27
147
106
68
240
137
76
166
82
99
22
149
40
23
239
215
4
15
122
219
185
38
9
154
43
1
230
94
231
66
224
173
26
89
92
20
237
159
29
250
118
44
133
140
253
31
216
36
107
208
213
168
47
56
269
95
5
6
180
59
116
80
77
72

>  <PUBCHEM_MMFF94_PARTIAL_CHARGES>  (1) 
24
1 0.02
10 0.14
11 -0.14
12 0.08
15 -0.15
16 0.08
17 -0.15
18 -0.15
19 0.78
2 -0.36
20 0.3
21 0.3
22 0.78
23 0.28
3 -0.23
33 0.15
34 0.15
35 0.15
4 -0.57
5 -0.43
6 -0.57
7 -0.37
8 -0.37
9 0.28

>  <PUBCHEM_EFFECTIVE_ROTOR_COUNT>  (1) 
8.6

>  <PUBCHEM_PHARMACOPHORE_FEATURES>  (1) 
6
1 2 acceptor
1 4 acceptor
1 6 acceptor
3 9 13 14 hydrophobe
5 2 9 10 11 12 rings
6 11 12 15 16 17 18 rings

>  <PUBCHEM_HEAVY_ATOM_COUNT>  (1) 
24

>  <PUBCHEM_ATOM_DEF_STEREO_COUNT>  (1) 
0

>  <PUBCHEM_ATOM_UDEF_STEREO_COUNT>  (1) 
0

>  <PUBCHEM_BOND_DEF_STEREO_COUNT>  (1) 
0

>  <PUBCHEM_BOND_UDEF_STEREO_COUNT>  (1) 
0

>  <PUBCHEM_ISOTOPIC_ATOM_COUNT>  (1) 
0

>  <PUBCHEM_COMPONENT_COUNT>  (1) 
1

>  <PUBCHEM_CACTVS_TAUTO_COUNT>  (1) 
1

>  <PUBCHEM_CONFORMER_ID>  (1) 
0000BA8C00000003

>  <PUBCHEM_MMFF94_ENERGY>  (1) 
63.7764

>  <PUBCHEM_FEATURE_SELFOVERLAP>  (1) 
30.547

>  <PUBCHEM_SHAPE_FINGERPRINT>  (1) 
10165383 225 17835563385964844101
11582403 64 17123894644932104504
11595378 159 18115025337231249840
11725454 13 17772437223484045542
11759241 127 17345467279126622031
12156800 1 13745594724130751418
12788726 201 17386016070106418437
13009979 54 17459460216578244770
13294875 104 18055353526900517058
13583140 156 18198883942605181930
14251764 3 18265597819706027717
14957384 54 17894912889012549468
18981168 100 18339082575267035007
19049666 15 17988381298716320742
19930381 70 16199297871104743075
20600515 1 17976816820209775207
21427221 339 16154275970797769068
21639500 275 16200437991801269974
22182313 1 17417822772734601012
23526113 38 17702408198577751894
23557571 272 17986401211503363995
23598288 3 17603308137381303165
238 59 17202743960928560620
35225 105 18267283465251351550
3524813 1 17985298250842217579
6049 1 17773899638426556334
621550 5 17267559153457737942
7097593 13 15792019900516747956
81228 2 18196106644710621303

>  <PUBCHEM_SHAPE_MULTIPOLES>  (1) 
458.45
6.59
3.35
3.02
1.41
0.19
-0.06
-1.33
-1.09
-4.88
0.86
2.02
-1.05
1.77

>  <PUBCHEM_SHAPE_SELFOVERLAP>  (1) 
937.377

>  <PUBCHEM_SHAPE_VOLUME>  (1) 
270.3

>  <PUBCHEM_COORDINATE_TYPE>  (1) 
2
5
10

$$$$
