47754
     RDKit          3D

  9  9  0  0  0  0  0  0  0  0999 V2000
   -3.4064    0.9005    0.0003 Br  0  0  0  0  0  0  0  0  0  0  0  0
    2.7399   -0.6799    0.0005 O   0  0  0  0  0  0  0  0  0  0  0  0
    2.1707    1.4403   -0.0005 O   0  0  0  0  0  0  0  0  0  0  0  0
   -0.5156    0.7723    0.0001 N   0  0  0  0  0  0  0  0  0  0  0  0
   -1.4999   -1.2186   -0.0005 N   0  0  0  0  0  0  0  0  0  0  0  0
    1.8454    0.2165    0.0001 N   0  0  0  0  0  0  0  0  0  0  0  0
    0.4967   -0.1456   -0.0001 C   0  0  0  0  0  0  0  0  0  0  0  0
   -0.1355   -1.3668    0.0000 C   0  0  0  0  0  0  0  0  0  0  0  0
   -1.6954    0.0814    0.0001 C   0  0  0  0  0  0  0  0  0  0  0  0
  1  9  1  0
  2  6  1  0
  3  6  2  0
  4  7  1  0
  4  9  1  0
  5  8  1  0
  5  9  2  0
  6  7  1  0
  7  8  2  0
M  CHG  2   2  -1   6   1
M  END
>  <PUBCHEM_COMPOUND_CID>  (1) 
47754

>  <PUBCHEM_CONFORMER_RMSD>  (1) 
0.4

>  <PUBCHEM_CONFORMER_DIVERSEORDER>  (1) 
1

>  <PUBCHEM_MMFF94_PARTIAL_CHARGES>  (1) 
11
1 -0.06
10 0.27
11 0.15
2 -0.52
3 -0.52
4 0.03
5 -0.57
6 0.96
7 -0.07
8 0.08
9 0.24

>  <PUBCHEM_EFFECTIVE_ROTOR_COUNT>  (1) 
1

>  <PUBCHEM_PHARMACOPHORE_FEATURES>  (1) 
7
1 1 hydrophobe
1 2 acceptor
1 2 anion
1 3 acceptor
1 4 donor
3 4 5 9 cation
5 4 5 7 8 9 rings

>  <PUBCHEM_HEAVY_ATOM_COUNT>  (1) 
9

>  <PUBCHEM_ATOM_DEF_STEREO_COUNT>  (1) 
0

>  <PUBCHEM_ATOM_UDEF_STEREO_COUNT>  (1) 
0

>  <PUBCHEM_BOND_DEF_STEREO_COUNT>  (1) 
0

>  <PUBCHEM_BOND_UDEF_STEREO_COUNT>  (1) 
0

>  <PUBCHEM_ISOTOPIC_ATOM_COUNT>  (1) 
0

>  <PUBCHEM_COMPONENT_COUNT>  (1) 
1

>  <PUBCHEM_CACTVS_TAUTO_COUNT>  (1) 
2

>  <PUBCHEM_CONFORMER_ID>  (1) 
0000BA8A00000001

>  <PUBCHEM_MMFF94_ENERGY>  (1) 
9.5829

>  <PUBCHEM_FEATURE_SELFOVERLAP>  (1) 
35.602

>  <PUBCHEM_SHAPE_FINGERPRINT>  (1) 
11062470 55 13254788023749042233
14325111 11 18410855469119094465
14390081 3 18413386540575605737
21040471 1 18410855486014114055
23402655 69 18124015855609032389
23552423 10 18261110828632534862
5084963 1 18201435839840854153

>  <PUBCHEM_SHAPE_MULTIPOLES>  (1) 
164.48
4.43
1.37
0.58
1.23
0.08
0
-1.45
0
-0.13
0
0.13
0
0

>  <PUBCHEM_SHAPE_SELFOVERLAP>  (1) 
326.348

>  <PUBCHEM_SHAPE_VOLUME>  (1) 
101.1

>  <PUBCHEM_COORDINATE_TYPE>  (1) 
2
5
10

$$$$
