4776
     RDKit          3D

 23 23  0  0  1  0  0  0  0  0999 V2000
   -1.4613    1.1394    0.2367 P   0  0  0  0  0  0  0  0  0  0  0  0
   -1.8206   -0.4083    0.5106 O   0  0  0  0  0  0  0  0  0  0  0  0
   -2.4136    1.9650    1.2502 O   0  0  0  0  0  0  0  0  0  0  0  0
   -1.5379    1.5767   -1.1982 O   0  0  0  0  0  0  0  0  0  0  0  0
    2.4362   -0.1872    1.9482 O   0  0  0  0  0  0  0  0  0  0  0  0
    5.7988   -3.3268   -0.0207 O   0  0  0  0  0  0  0  0  0  0  0  0
    4.3848   -2.8781   -1.7479 O   0  0  0  0  0  0  0  0  0  0  0  0
    1.0137    0.4047    0.2087 N   0  0  0  0  0  0  0  0  0  0  0  0
    0.1766    1.3401    0.9453 C   0  0  0  0  0  0  0  0  0  0  0  0
    0.7762    2.7509    0.9862 C   0  0  0  0  0  0  0  0  0  0  0  0
    0.9316    3.4275   -0.3779 C   0  0  0  0  0  0  0  0  0  0  0  0
    1.4880    4.8451   -0.2328 C   0  0  0  0  0  0  0  0  0  0  0  0
    2.0741   -0.2793    0.7774 C   0  0  0  0  0  0  0  0  0  0  0  0
    1.6879    5.5039   -1.5885 C   0  0  0  0  0  0  0  0  0  0  0  0
    2.7885   -1.1808   -0.2107 C   0  0  0  0  0  0  0  0  0  0  0  0
   -2.9807   -1.0336    0.1466 C   0  0  0  0  0  0  0  0  0  0  0  0
    3.9520   -1.9240    0.4362 C   0  0  0  0  0  0  0  0  0  0  0  0
   -3.9766   -0.3220   -0.5224 C   0  0  0  0  0  0  0  0  0  0  0  0
   -3.1685   -2.3833    0.4448 C   0  0  0  0  0  0  0  0  0  0  0  0
    4.7121   -2.7395   -0.5778 C   0  0  0  0  0  0  0  0  0  0  0  0
   -5.1605   -0.9599   -0.8930 C   0  0  0  0  0  0  0  0  0  0  0  0
   -4.3524   -3.0212    0.0741 C   0  0  0  0  0  0  0  0  0  0  0  0
   -5.3482   -2.3094   -0.5949 C   0  0  0  0  0  0  0  0  0  0  0  0
  1  2  1  0
  1  3  1  0
  1  4  2  0
  1  9  1  0
  2 16  1  0
  5 13  2  0
  6 20  1  0
  7 20  2  0
  8  9  1  0
  8 13  1  0
  9 10  1  0
 10 11  1  0
 11 12  1  0
 12 14  1  0
 13 15  1  0
 15 17  1  0
 16 18  2  0
 16 19  1  0
 17 20  1  0
 18 21  1  0
 19 22  2  0
 21 23  2  0
 22 23  1  0
M  END
>  <PUBCHEM_COMPOUND_CID>  (1) 
4776

>  <PUBCHEM_CONFORMER_RMSD>  (1) 
1

>  <PUBCHEM_CONFORMER_DIVERSEORDER>  (1) 
1
158
156
91
35
22
186
4
134
63
151
167
53
178
181
88
49
97
13
9
28
180
135
70
175
48
3
198
168
41
30
71
60
184
177
194
116
18
114
101
203
141
44
140
155
43
136
206
104
26
61
188
38
165
79
108
82
179
19
146
139
148
169
58
110
163
7
32
52
40
50
64
119
5
73
54
153
27
202
149
152
103
68
132
109
111
196
93
37
159
62
66
20
205
207
96
31
39
172
145
183
161
24
21
98
34
120
36
126
130
23
131
127
137
25
78
87
187
89
84
150
154
56
75
189
112
117
99
185
86
190
106
74
174
65
173
100
59
197
6
47
46
162
193
85
133
160
123
42
51
142
67
55
121
115
171
76
107
166
2
102
12
176
147
201
8
204
57
118
72
81
113
122
170
128
90
138
17
33
95
92
164
124
105
45
69
11
80
182
143
94
157
195
200
14
10
29
83
77
199
15
192
144
16
191
125
129

>  <PUBCHEM_MMFF94_PARTIAL_CHARGES>  (1) 
27
1 1.24
13 0.57
15 0.06
16 0.08
17 0.06
18 -0.15
19 -0.15
2 -0.35
20 0.66
21 -0.15
22 -0.15
23 -0.15
29 0.37
3 -0.77
37 0.5
4 -0.7
40 0.15
41 0.15
42 0.15
43 0.15
44 0.15
45 0.5
5 -0.57
6 -0.65
7 -0.57
8 -0.73
9 0.3

>  <PUBCHEM_EFFECTIVE_ROTOR_COUNT>  (1) 
11

>  <PUBCHEM_PHARMACOPHORE_FEATURES>  (1) 
9
1 14 hydrophobe
1 3 acceptor
1 4 acceptor
1 5 acceptor
1 6 acceptor
1 7 acceptor
1 8 donor
3 6 7 20 anion
6 16 18 19 21 22 23 rings

>  <PUBCHEM_HEAVY_ATOM_COUNT>  (1) 
23

>  <PUBCHEM_ATOM_DEF_STEREO_COUNT>  (1) 
0

>  <PUBCHEM_ATOM_UDEF_STEREO_COUNT>  (1) 
1

>  <PUBCHEM_BOND_DEF_STEREO_COUNT>  (1) 
0

>  <PUBCHEM_BOND_UDEF_STEREO_COUNT>  (1) 
0

>  <PUBCHEM_ISOTOPIC_ATOM_COUNT>  (1) 
0

>  <PUBCHEM_COMPONENT_COUNT>  (1) 
1

>  <PUBCHEM_CACTVS_TAUTO_COUNT>  (1) 
2

>  <PUBCHEM_CONFORMER_ID>  (1) 
000012A800000001

>  <PUBCHEM_MMFF94_ENERGY>  (1) 
15.4216

>  <PUBCHEM_FEATURE_SELFOVERLAP>  (1) 
45.739

>  <PUBCHEM_SHAPE_FINGERPRINT>  (1) 
10554248 39 18267568291436684127
11056379 131 17907305351825834470
11069576 57 18054496174208261599
11315621 246 18054807087413402902
11488393 25 18118130392501953960
12107183 9 18271818874271342491
12788726 201 17826792529938209920
13533116 47 18127126605905838059
13757389 114 17909004118043573892
13955234 65 17982733266403175729
13968360 50 17906165514154322524
14508225 48 18338791221839461972
14866123 147 18199753527738668043
15052358 14 18263911165148701655
15352361 1 18343018874102936827
15878777 1 14435406157714833328
17492 89 18268425922938186875
17539 30 18121778318737943980
20286276 3 18336266864165706193
20403669 9 18201439138366065046
20600515 1 17986405385900267888
20645477 70 18192701474695526147
21344244 181 17404047184423161492
21365058 27 17328039070522782677
23559900 14 18340476863928530195
255183 313 17694519052050388513
3057174 1 17686629347678253932
329604 57 18341052939413485926
3421961 26 18272364325626361162
4280585 95 18337101268604983322
5207 123 18342733010207291191
60123966 16 17972850779000071445
6669772 16 17764882681449568924
9709674 26 18264763445305356171

>  <PUBCHEM_SHAPE_MULTIPOLES>  (1) 
436.98
10.95
6.65
1.28
7.02
6.71
0.04
-14.88
3.02
-11.28
2.74
-0.73
0.39
-0.03

>  <PUBCHEM_SHAPE_SELFOVERLAP>  (1) 
859.979

>  <PUBCHEM_SHAPE_VOLUME>  (1) 
259.7

>  <PUBCHEM_COORDINATE_TYPE>  (1) 
2
5
10

$$$$
