47767
     RDKit          3D

 24 24  0  0  0  0  0  0  0  0999 V2000
   -4.3563    2.1146    0.7229 S   0  0  0  0  0  0  0  0  0  0  0  0
    0.3277    2.4975   -0.1081 O   0  0  0  0  0  0  0  0  0  0  0  0
   -2.4702   -2.2959    0.1434 O   0  0  0  0  0  0  0  0  0  0  0  0
   -0.8095    0.7589   -1.1555 O   0  0  0  0  0  0  0  0  0  0  0  0
   -1.3680   -1.1240    1.7848 O   0  0  0  0  0  0  0  0  0  0  0  0
   -3.3564   -0.3642    0.8705 N   0  0  0  0  0  0  0  0  0  0  0  0
   -1.9192    2.6268   -0.3430 N   0  0  0  0  0  0  0  0  0  0  0  0
    3.6176   -0.8009    1.4695 C   0  0  0  0  0  0  0  0  0  0  0  0
    3.1386    0.1651    0.4394 C   0  0  0  0  0  0  0  0  0  0  0  0
    2.6284   -1.9602    1.6950 C   0  0  0  0  0  0  0  0  0  0  0  0
    3.9377   -0.1188    2.8132 C   0  0  0  0  0  0  0  0  0  0  0  0
    1.9580    0.8783    0.6471 C   0  0  0  0  0  0  0  0  0  0  0  0
    3.8715    0.3555   -0.7320 C   0  0  0  0  0  0  0  0  0  0  0  0
   -0.3584   -2.9234   -0.8170 C   0  0  0  0  0  0  0  0  0  0  0  0
   -0.9064   -2.8152   -2.2371 C   0  0  0  0  0  0  0  0  0  0  0  0
    1.5105    1.7820   -0.3165 C   0  0  0  0  0  0  0  0  0  0  0  0
    3.4240    1.2591   -1.6957 C   0  0  0  0  0  0  0  0  0  0  0  0
   -1.4472   -3.2973    0.1787 C   0  0  0  0  0  0  0  0  0  0  0  0
    2.2434    1.9724   -1.4879 C   0  0  0  0  0  0  0  0  0  0  0  0
    0.1751   -2.3995   -3.2214 C   0  0  0  0  0  0  0  0  0  0  0  0
   -0.8060    1.8495   -0.5923 C   0  0  0  0  0  0  0  0  0  0  0  0
   -2.3083   -1.2501    1.0069 C   0  0  0  0  0  0  0  0  0  0  0  0
   -3.4628    0.8460    1.6546 C   0  0  0  0  0  0  0  0  0  0  0  0
   -3.2638    2.2438   -0.7195 C   0  0  0  0  0  0  0  0  0  0  0  0
  1 23  1  0
  1 24  1  0
  2 16  1  0
  2 21  1  0
  3 18  1  0
  3 22  1  0
  4 21  2  0
  5 22  2  0
  6 22  1  0
  6 23  1  0
  7 21  1  0
  7 24  1  0
  8  9  1  0
  8 10  1  0
  8 11  1  0
  9 12  2  0
  9 13  1  0
 12 16  1  0
 13 17  2  0
 14 15  1  0
 14 18  1  0
 15 20  1  0
 16 19  2  0
 17 19  1  0
M  END
>  <PUBCHEM_COMPOUND_CID>  (1) 
47767

>  <PUBCHEM_CONFORMER_RMSD>  (1) 
1.2

>  <PUBCHEM_CONFORMER_DIVERSEORDER>  (1) 
2
95
105
82
1
90
72
3
112
100
103
38
91
18
73
23
93
71
22
61
4
20
19
10
41
17
14
54
6
52
88
59
79
106
45
114
21
104
96
27
66
64
36
92
68
25
89
15
111
62
94
43
85
55
70
110
69
32
98
46
86
39
34
5
74
47
13
8
29
63
26
35
81
77
101
99
76
102
40
115
58
30
108
60
51
11
49
109
80
78
97
42
56
83
75
24
65
12
50
37
107
67
57
84
7
16
87
48
53
9
33
44
28
31
113

>  <PUBCHEM_MMFF94_PARTIAL_CHARGES>  (1) 
25
1 -0.46
12 -0.15
13 -0.15
16 0.08
17 -0.15
18 0.28
19 -0.15
2 -0.23
21 0.78
22 0.78
23 0.53
24 0.53
3 -0.43
32 0.15
33 0.15
4 -0.57
40 0.15
41 0.15
49 0.37
5 -0.57
50 0.37
6 -0.73
7 -0.73
8 0.14
9 -0.14

>  <PUBCHEM_EFFECTIVE_ROTOR_COUNT>  (1) 
13

>  <PUBCHEM_PHARMACOPHORE_FEATURES>  (1) 
7
1 20 hydrophobe
1 4 acceptor
1 5 acceptor
1 6 donor
1 7 donor
3 8 10 11 hydrophobe
6 9 12 13 16 17 19 rings

>  <PUBCHEM_HEAVY_ATOM_COUNT>  (1) 
24

>  <PUBCHEM_ATOM_DEF_STEREO_COUNT>  (1) 
0

>  <PUBCHEM_ATOM_UDEF_STEREO_COUNT>  (1) 
0

>  <PUBCHEM_BOND_DEF_STEREO_COUNT>  (1) 
0

>  <PUBCHEM_BOND_UDEF_STEREO_COUNT>  (1) 
0

>  <PUBCHEM_ISOTOPIC_ATOM_COUNT>  (1) 
0

>  <PUBCHEM_COMPONENT_COUNT>  (1) 
1

>  <PUBCHEM_CACTVS_TAUTO_COUNT>  (1) 
4

>  <PUBCHEM_CONFORMER_ID>  (1) 
0000BA9700000002

>  <PUBCHEM_MMFF94_ENERGY>  (1) 
36.7034

>  <PUBCHEM_FEATURE_SELFOVERLAP>  (1) 
35.521

>  <PUBCHEM_SHAPE_FINGERPRINT>  (1) 
10616163 171 18187094974083325232
10759866 29 17749968703576431228
12156800 1 16472255940431026383
12553582 1 18189335839041961818
12633257 1 18041280967680897529
12788726 201 17842258539878339101
13004483 165 17768800219788024607
14251764 3 17489868206833741465
144659 39 18412831300499970388
16752209 62 18341331184009670527
17921350 177 18336279976147122852
19026451 147 16544940552676786310
19777482 4 17907826807451577055
23598288 3 18260263062154367812
35225 105 17560238157839381799
6287921 2 17696755459175388147
6438718 38 18342167908179829498

>  <PUBCHEM_SHAPE_MULTIPOLES>  (1) 
464.32
7.47
4.06
2.57
0.06
2.57
-0.39
-3.67
3.67
2.66
-1.97
-1.76
1.45
-1.01

>  <PUBCHEM_SHAPE_SELFOVERLAP>  (1) 
911.941

>  <PUBCHEM_SHAPE_VOLUME>  (1) 
279.9

>  <PUBCHEM_COORDINATE_TYPE>  (1) 
2
5
10

$$$$
