47766
     RDKit          3D

 23 23  0  0  0  0  0  0  0  0999 V2000
   -4.0797    2.8017    0.3166 S   0  0  0  0  0  0  0  0  0  0  0  0
    0.7632    2.2323    0.3402 O   0  0  0  0  0  0  0  0  0  0  0  0
   -3.0165   -1.7754   -0.1468 O   0  0  0  0  0  0  0  0  0  0  0  0
   -0.2131    1.2318   -1.5196 O   0  0  0  0  0  0  0  0  0  0  0  0
   -1.6431   -0.5171    1.1996 O   0  0  0  0  0  0  0  0  0  0  0  0
   -1.4116    2.6471   -0.1264 N   0  0  0  0  0  0  0  0  0  0  0  0
   -3.7944    0.1645    0.6760 N   0  0  0  0  0  0  0  0  0  0  0  0
    3.6635   -1.6803    0.7413 C   0  0  0  0  0  0  0  0  0  0  0  0
    3.3765   -0.3240    0.1918 C   0  0  0  0  0  0  0  0  0  0  0  0
    3.7680   -1.6833    2.2783 C   0  0  0  0  0  0  0  0  0  0  0  0
    2.6326   -2.7306    0.2860 C   0  0  0  0  0  0  0  0  0  0  0  0
    2.1894    0.3272    0.5267 C   0  0  0  0  0  0  0  0  0  0  0  0
    4.2956    0.2936   -0.6565 C   0  0  0  0  0  0  0  0  0  0  0  0
    1.9528    1.5789    0.0043 C   0  0  0  0  0  0  0  0  0  0  0  0
    4.0275    1.5624   -1.1699 C   0  0  0  0  0  0  0  0  0  0  0  0
    2.8404    2.2138   -0.8350 C   0  0  0  0  0  0  0  0  0  0  0  0
   -2.4795   -3.8804   -1.1726 C   0  0  0  0  0  0  0  0  0  0  0  0
   -1.9793   -2.7532   -0.2824 C   0  0  0  0  0  0  0  0  0  0  0  0
   -0.2852    1.9624   -0.5360 C   0  0  0  0  0  0  0  0  0  0  0  0
   -1.4336   -4.9663   -1.3503 C   0  0  0  0  0  0  0  0  0  0  0  0
   -2.6816    2.5861   -0.8191 C   0  0  0  0  0  0  0  0  0  0  0  0
   -3.7766    1.4021    1.4234 C   0  0  0  0  0  0  0  0  0  0  0  0
   -2.7154   -0.6932    0.6303 C   0  0  0  0  0  0  0  0  0  0  0  0
  1 21  1  0
  1 22  1  0
  2 14  1  0
  2 19  1  0
  3 18  1  0
  3 23  1  0
  4 19  2  0
  5 23  2  0
  6 19  1  0
  6 21  1  0
  7 22  1  0
  7 23  1  0
  8  9  1  0
  8 10  1  0
  8 11  1  0
  9 12  2  0
  9 13  1  0
 12 14  1  0
 13 15  2  0
 14 16  2  0
 15 16  1  0
 17 18  1  0
 17 20  1  0
M  END
>  <PUBCHEM_COMPOUND_CID>  (1) 
47766

>  <PUBCHEM_CONFORMER_RMSD>  (1) 
1

>  <PUBCHEM_CONFORMER_DIVERSEORDER>  (1) 
1
150
62
194
85
67
218
65
92
129
107
217
188
88
81
120
83
141
183
95
176
104
219
45
192
122
137
41
19
162
33
27
119
172
169
123
4
9
82
165
31
153
128
161
125
56
181
87
100
71
229
102
199
127
212
44
227
78
222
34
139
74
130
63
91
185
182
39
184
163
155
111
224
70
147
46
214
171
149
13
36
126
80
101
121
136
89
76
201
143
6
54
84
142
195
210
69
146
12
198
203
179
191
51
112
96
50
167
15
75
200
43
18
193
221
138
159
38
206
151
55
21
48
220
173
28
132
103
98
228
178
108
213
106
225
170
113
234
110
23
49
160
186
66
29
17
223
2
93
166
97
134
118
226
42
152
117
59
14
215
190
86
197
115
180
72
164
109
25
168
57
144
156
148
20
208
90
158
211
133
232
177
3
114
105
209
30
60
16
32
204
68
99
24
202
231
135
8
233
216
94
189
47
174
5
196
230
124
22
131
61
53
157
187
7
205
11
79
64
40
35
154
175
116
58
37
10
26
140
52
73
235
207
145
77

>  <PUBCHEM_MMFF94_PARTIAL_CHARGES>  (1) 
25
1 -0.46
12 -0.15
13 -0.15
14 0.08
15 -0.15
16 -0.15
18 0.28
19 0.78
2 -0.23
21 0.53
22 0.53
23 0.78
3 -0.43
31 0.15
32 0.15
33 0.15
34 0.15
4 -0.57
44 0.37
47 0.37
5 -0.57
6 -0.73
7 -0.73
8 0.14
9 -0.14

>  <PUBCHEM_EFFECTIVE_ROTOR_COUNT>  (1) 
12

>  <PUBCHEM_PHARMACOPHORE_FEATURES>  (1) 
7
1 20 hydrophobe
1 4 acceptor
1 5 acceptor
1 6 donor
1 7 donor
3 8 10 11 hydrophobe
6 9 12 13 14 15 16 rings

>  <PUBCHEM_HEAVY_ATOM_COUNT>  (1) 
23

>  <PUBCHEM_ATOM_DEF_STEREO_COUNT>  (1) 
0

>  <PUBCHEM_ATOM_UDEF_STEREO_COUNT>  (1) 
0

>  <PUBCHEM_BOND_DEF_STEREO_COUNT>  (1) 
0

>  <PUBCHEM_BOND_UDEF_STEREO_COUNT>  (1) 
0

>  <PUBCHEM_ISOTOPIC_ATOM_COUNT>  (1) 
0

>  <PUBCHEM_COMPONENT_COUNT>  (1) 
1

>  <PUBCHEM_CACTVS_TAUTO_COUNT>  (1) 
4

>  <PUBCHEM_CONFORMER_ID>  (1) 
0000BA9600000001

>  <PUBCHEM_MMFF94_ENERGY>  (1) 
37.9891

>  <PUBCHEM_FEATURE_SELFOVERLAP>  (1) 
35.521

>  <PUBCHEM_SHAPE_FINGERPRINT>  (1) 
10616163 171 18335991934044070736
11014199 57 17836090339491662566
11552529 35 18200038476784998377
12422481 6 18047216080594308321
12553582 1 18263643038022913786
12596599 1 17914923004374295590
12633257 1 18340489954482764529
14100547 121 18412824677291049903
15403338 16 16448121445785281875
19930381 70 17475232406025534335
20028762 73 18199454477660628839
20531524 4 15383577392586325666
20621476 51 18340757221607621543
20775530 9 17837203045675781335
23559900 14 18195819457495595836
463206 1 17616815873920792015
5309563 4 17684949272488903947
532947 4 17546443380684513117
6438754 60 17836070548910311535

>  <PUBCHEM_SHAPE_MULTIPOLES>  (1) 
443.74
8.92
5.47
1.46
1.61
6.85
-0.35
-1.86
-1.81
-4.42
2.58
0.53
0.54
-2.6

>  <PUBCHEM_SHAPE_SELFOVERLAP>  (1) 
874.196

>  <PUBCHEM_SHAPE_VOLUME>  (1) 
267.7

>  <PUBCHEM_COORDINATE_TYPE>  (1) 
2
5
10

$$$$
