47761
     RDKit          3D

 29 30  0  0  0  0  0  0  0  0999 V2000
   -0.0971    3.1637    1.2784 S   0  0  0  0  0  0  0  0  0  0  0  0
    2.7103   -0.7060   -0.2935 O   0  0  0  0  0  0  0  0  0  0  0  0
    0.3365    0.3606    0.9513 O   0  0  0  0  0  0  0  0  0  0  0  0
   -0.8996    2.2804   -1.3205 O   0  0  0  0  0  0  0  0  0  0  0  0
    1.2986   -0.0127    3.0238 O   0  0  0  0  0  0  0  0  0  0  0  0
    1.1240    2.5396   -2.3524 O   0  0  0  0  0  0  0  0  0  0  0  0
    0.6127    2.1293    2.4460 N   0  0  0  0  0  0  0  0  0  0  0  0
    0.9153    3.0693   -0.1020 N   0  0  0  0  0  0  0  0  0  0  0  0
    3.5862   -1.5944   -1.0464 C   0  0  0  0  0  0  0  0  0  0  0  0
    3.1575   -3.0570   -0.7833 C   0  0  0  0  0  0  0  0  0  0  0  0
    1.8197   -2.8315   -0.1913 C   0  0  0  0  0  0  0  0  0  0  0  0
    1.6467   -1.4847    0.0790 C   0  0  0  0  0  0  0  0  0  0  0  0
    5.0177   -1.3437   -0.5696 C   0  0  0  0  0  0  0  0  0  0  0  0
    3.4580   -1.2265   -2.5300 C   0  0  0  0  0  0  0  0  0  0  0  0
    0.8389   -3.7517    0.1328 C   0  0  0  0  0  0  0  0  0  0  0  0
    0.4997   -1.0010    0.6788 C   0  0  0  0  0  0  0  0  0  0  0  0
   -0.3336   -3.2847    0.7321 C   0  0  0  0  0  0  0  0  0  0  0  0
   -0.5018   -1.9173    1.0042 C   0  0  0  0  0  0  0  0  0  0  0  0
   -4.5883    0.0477   -1.0973 C   0  0  0  0  0  0  0  0  0  0  0  0
   -3.1095    0.3975   -1.2774 C   0  0  0  0  0  0  0  0  0  0  0  0
   -4.8342   -1.0300   -0.0374 C   0  0  0  0  0  0  0  0  0  0  0  0
   -2.9241    1.4919   -2.3274 C   0  0  0  0  0  0  0  0  0  0  0  0
   -6.3162   -1.3272    0.1952 C   0  0  0  0  0  0  0  0  0  0  0  0
   -1.4533    1.8185   -2.5448 C   0  0  0  0  0  0  0  0  0  0  0  0
   -6.5087   -2.3496    1.3049 C   0  0  0  0  0  0  0  0  0  0  0  0
    0.7935    0.7623    2.2118 C   0  0  0  0  0  0  0  0  0  0  0  0
    0.4340    2.6234   -1.3373 C   0  0  0  0  0  0  0  0  0  0  0  0
    1.0162    2.7570    3.6954 C   0  0  0  0  0  0  0  0  0  0  0  0
    2.3010    3.4765    0.0769 C   0  0  0  0  0  0  0  0  0  0  0  0
  1  7  1  0
  1  8  1  0
  2  9  1  0
  2 12  1  0
  3 16  1  0
  3 26  1  0
  4 24  1  0
  4 27  1  0
  5 26  2  0
  6 27  2  0
  7 26  1  0
  7 28  1  0
  8 27  1  0
  8 29  1  0
  9 10  1  0
  9 13  1  0
  9 14  1  0
 10 11  1  0
 11 12  2  0
 11 15  1  0
 12 16  1  0
 15 17  2  0
 16 18  2  0
 17 18  1  0
 19 20  1  0
 19 21  1  0
 20 22  1  0
 21 23  1  0
 22 24  1  0
 23 25  1  0
M  END
>  <PUBCHEM_COMPOUND_CID>  (1) 
47761

>  <PUBCHEM_CONFORMER_RMSD>  (1) 
1.6

>  <PUBCHEM_CONFORMER_DIVERSEORDER>  (1) 
3
90
30
45
75
44
34
69
76
1
36
55
50
4
85
31
41
68
56
11
42
13
79
95
52
32
94
35
54
62
73
20
12
93
33
64
74
65
7
5
92
86
78
49
10
38
97
80
66
77
88
87
59
70
39
99
14
72
60
40
43
96
8
27
28
82
47
37
98
71
89
15
25
91
53
19
67
17
21
16
18
46
51
9
63
58
26
83
84
24
29
48
81
22
2
61
6
57
23

>  <PUBCHEM_MMFF94_PARTIAL_CHARGES>  (1) 
24
1 0.02
10 0.14
11 -0.14
12 0.08
15 -0.15
16 0.08
17 -0.15
18 -0.15
2 -0.36
24 0.28
26 0.78
27 0.78
28 0.3
29 0.3
3 -0.23
38 0.15
39 0.15
4 -0.43
40 0.15
5 -0.57
6 -0.57
7 -0.37
8 -0.37
9 0.28

>  <PUBCHEM_EFFECTIVE_ROTOR_COUNT>  (1) 
13.6

>  <PUBCHEM_PHARMACOPHORE_FEATURES>  (1) 
8
1 2 acceptor
1 25 hydrophobe
1 5 acceptor
1 6 acceptor
3 9 13 14 hydrophobe
5 19 20 21 22 23 hydrophobe
5 2 9 10 11 12 rings
6 11 12 15 16 17 18 rings

>  <PUBCHEM_HEAVY_ATOM_COUNT>  (1) 
29

>  <PUBCHEM_ATOM_DEF_STEREO_COUNT>  (1) 
0

>  <PUBCHEM_ATOM_UDEF_STEREO_COUNT>  (1) 
0

>  <PUBCHEM_BOND_DEF_STEREO_COUNT>  (1) 
0

>  <PUBCHEM_BOND_UDEF_STEREO_COUNT>  (1) 
0

>  <PUBCHEM_ISOTOPIC_ATOM_COUNT>  (1) 
0

>  <PUBCHEM_COMPONENT_COUNT>  (1) 
1

>  <PUBCHEM_CACTVS_TAUTO_COUNT>  (1) 
1

>  <PUBCHEM_CONFORMER_ID>  (1) 
0000BA9100000003

>  <PUBCHEM_MMFF94_ENERGY>  (1) 
61.3596

>  <PUBCHEM_FEATURE_SELFOVERLAP>  (1) 
40.697

>  <PUBCHEM_SHAPE_FINGERPRINT>  (1) 
11578080 2 17333925847405031632
12035758 1 18195786648261300304
12156800 1 17900225849957901376
12778500 126 18059591187128225913
12788726 201 16908886065249166657
14932701 244 17701244842740557746
17492 54 17604449460331083542
1979834 28 18117833529379724571
20429585 67 18129932404412051132
23419403 2 17987219183935044338
23559900 14 18334851719944920351
35225 105 16407864987523270949
469060 322 18117291258908096652
6287921 2 18266451191480246735
6823239 73 18113612409413957797

>  <PUBCHEM_SHAPE_MULTIPOLES>  (1) 
561.35
9.04
5.26
3.02
16.86
1.17
-1.1
-8.77
1.94
-2.6
-1.01
-0.46
2.93
2.78

>  <PUBCHEM_SHAPE_SELFOVERLAP>  (1) 
1126.845

>  <PUBCHEM_SHAPE_VOLUME>  (1) 
334.3

>  <PUBCHEM_COORDINATE_TYPE>  (1) 
2
5
10

$$$$
