47775
     RDKit          3D

 22 24  0  0  0  0  0  0  0  0999 V2000
    5.2081   -0.6770   -1.0921 O   0  0  0  0  0  0  0  0  0  0  0  0
    0.2570   -1.5954    0.9147 O   0  0  0  0  0  0  0  0  0  0  0  0
   -1.8265    2.3228   -0.1223 O   0  0  0  0  0  0  0  0  0  0  0  0
    0.3326    2.6612    0.6006 O   0  0  0  0  0  0  0  0  0  0  0  0
   -4.9011   -1.6022   -0.8731 O   0  0  0  0  0  0  0  0  0  0  0  0
    2.8282    0.1554    0.2288 N   0  0  0  0  0  0  0  0  0  0  0  0
    1.8825    0.1154    1.3423 C   0  0  0  0  0  0  0  0  0  0  0  0
    2.9277   -1.1602   -0.4186 C   0  0  0  0  0  0  0  0  0  0  0  0
    4.1543    0.5931    0.6861 C   0  0  0  0  0  0  0  0  0  0  0  0
    3.9290   -1.0972   -1.5685 C   0  0  0  0  0  0  0  0  0  0  0  0
    5.1260    0.6155   -0.4904 C   0  0  0  0  0  0  0  0  0  0  0  0
    0.5031   -0.2727    0.8943 C   0  0  0  0  0  0  0  0  0  0  0  0
   -0.5584    0.4536    0.4681 C   0  0  0  0  0  0  0  0  0  0  0  0
   -1.5781   -0.4946    0.1904 C   0  0  0  0  0  0  0  0  0  0  0  0
   -1.0269   -1.7385    0.4808 C   0  0  0  0  0  0  0  0  0  0  0  0
   -2.9040   -0.4393   -0.2734 C   0  0  0  0  0  0  0  0  0  0  0  0
   -0.6074    1.8808    0.3371 C   0  0  0  0  0  0  0  0  0  0  0  0
   -1.7075   -2.9466    0.3416 C   0  0  0  0  0  0  0  0  0  0  0  0
   -3.6143   -1.6384   -0.4239 C   0  0  0  0  0  0  0  0  0  0  0  0
   -3.0243   -2.8683   -0.1215 C   0  0  0  0  0  0  0  0  0  0  0  0
   -1.9995    3.7332   -0.2964 C   0  0  0  0  0  0  0  0  0  0  0  0
   -3.4003    3.9993   -0.8046 C   0  0  0  0  0  0  0  0  0  0  0  0
  1 10  1  0
  1 11  1  0
  2 12  1  0
  2 15  1  0
  3 17  1  0
  3 21  1  0
  4 17  2  0
  5 19  1  0
  6  7  1  0
  6  8  1  0
  6  9  1  0
  7 12  1  0
  8 10  1  0
  9 11  1  0
 12 13  2  0
 13 14  1  0
 13 17  1  0
 14 15  2  0
 14 16  1  0
 15 18  1  0
 16 19  2  0
 18 20  2  0
 19 20  1  0
 21 22  1  0
M  END
>  <PUBCHEM_COMPOUND_CID>  (1) 
47775

>  <PUBCHEM_CONFORMER_RMSD>  (1) 
0.8

>  <PUBCHEM_CONFORMER_DIVERSEORDER>  (1) 
1
25
34
33
26
3
35
15
18
21
28
2
22
13
36
30
9
29
20
27
11
12
7
8
4
5
24
16
37
6
32
31
14
19
23
17
10

>  <PUBCHEM_MMFF94_PARTIAL_CHARGES>  (1) 
24
1 -0.56
10 0.28
11 0.28
12 -0.04
13 -0.09
15 0.14
16 -0.15
17 0.81
18 -0.15
19 0.08
2 -0.28
20 -0.15
21 0.28
3 -0.43
33 0.15
34 0.15
35 0.15
38 0.45
4 -0.57
5 -0.53
6 -0.81
7 0.45
8 0.27
9 0.27

>  <PUBCHEM_EFFECTIVE_ROTOR_COUNT>  (1) 
6.2

>  <PUBCHEM_PHARMACOPHORE_FEATURES>  (1) 
8
1 1 acceptor
1 2 acceptor
1 4 acceptor
1 5 donor
1 6 cation
5 2 12 13 14 15 rings
6 1 6 8 9 10 11 rings
6 14 15 16 18 19 20 rings

>  <PUBCHEM_HEAVY_ATOM_COUNT>  (1) 
22

>  <PUBCHEM_ATOM_DEF_STEREO_COUNT>  (1) 
0

>  <PUBCHEM_ATOM_UDEF_STEREO_COUNT>  (1) 
0

>  <PUBCHEM_BOND_DEF_STEREO_COUNT>  (1) 
0

>  <PUBCHEM_BOND_UDEF_STEREO_COUNT>  (1) 
0

>  <PUBCHEM_ISOTOPIC_ATOM_COUNT>  (1) 
0

>  <PUBCHEM_COMPONENT_COUNT>  (1) 
1

>  <PUBCHEM_CACTVS_TAUTO_COUNT>  (1) 
3

>  <PUBCHEM_CONFORMER_ID>  (1) 
0000BA9F00000001

>  <PUBCHEM_MMFF94_ENERGY>  (1) 
37.6376

>  <PUBCHEM_FEATURE_SELFOVERLAP>  (1) 
40.701

>  <PUBCHEM_SHAPE_FINGERPRINT>  (1) 
10498660 4 18335695027175999604
116883 192 18339921618524250848
11833330 49 18335418014591441568
12173636 292 18264765467606834853
12553582 1 18336820996013692739
12788726 201 18334570252497834979
12954195 1 18270120106445634373
14022347 108 18190167052874439139
14251757 5 18408041823232436295
14790565 3 17980485564163149889
14955137 171 18118138076588921019
15475509 8 18271535247331685351
15961568 22 18119804974914084772
16752209 62 18335413539251090306
17134986 127 17831298302861353076
17357779 13 18271798072795271959
1813 80 18197238029063724203
19591789 44 18051694339629327337
200 152 16988851604870469418
20693207 138 17988661666013098742
20871999 31 18411980234806560908
21285901 2 18202286917781167391
21524375 3 17611191455353489192
22182313 1 17987498425407669432
22393880 68 18269564845375431294
22620623 9 18272086067764609053
23352939 185 18200884005204980921
23402539 116 18336258046424085946
23419403 2 17417231238966950961
23557571 272 18343298172110925200
23559900 14 18196650911814443256
25147074 1 17823406107598078906
266924 1 17968364651036053178
2748010 2 17977649129052625883
2871803 45 18342742944561813214
352729 6 17835223563946893603
458136 41 17619633480120634649
465052 167 13182462252096103223
5283173 99 18411134714986861564
532947 4 17475239479763343864
58779409 8 18265893553868549125
68521 5 18409444816980335113
6913067 236 17915725660963693458
7364860 26 17619062176323206713
7399639 24 17986660670841225480
81228 2 18410298029213153649
84936 182 8067826552075325175
9709674 26 18271535217198505078

>  <PUBCHEM_SHAPE_MULTIPOLES>  (1) 
418.42
8.94
4.18
1.08
8.94
3.95
-0.09
-1.49
-3.8
-6.76
-0.64
0.77
-0.11
0.83

>  <PUBCHEM_SHAPE_SELFOVERLAP>  (1) 
897.842

>  <PUBCHEM_SHAPE_VOLUME>  (1) 
233

>  <PUBCHEM_COORDINATE_TYPE>  (1) 
2
5
10

$$$$
