47782
     RDKit          3D

 19 22  0  0  0  0  0  0  0  0999 V2000
    5.7124    0.2097   -0.0009 O   0  0  0  0  0  0  0  0  0  0  0  0
    0.1117   -0.5810    0.0002 C   0  0  0  0  0  0  0  0  0  0  0  0
   -0.7463    0.5577    0.0002 C   0  0  0  0  0  0  0  0  0  0  0  0
    1.5479   -0.4216    0.0002 C   0  0  0  0  0  0  0  0  0  0  0  0
   -2.1825    0.3983    0.0001 C   0  0  0  0  0  0  0  0  0  0  0  0
    2.0995    0.8818   -0.0002 C   0  0  0  0  0  0  0  0  0  0  0  0
   -2.7344   -0.9051   -0.0003 C   0  0  0  0  0  0  0  0  0  0  0  0
   -0.1300    1.8255    0.0001 C   0  0  0  0  0  0  0  0  0  0  0  0
   -0.5047   -1.8489    0.0001 C   0  0  0  0  0  0  0  0  0  0  0  0
    1.2538    1.9860   -0.0003 C   0  0  0  0  0  0  0  0  0  0  0  0
   -1.8885   -2.0094   -0.0003 C   0  0  0  0  0  0  0  0  0  0  0  0
    2.4785   -1.4943    0.0006 C   0  0  0  0  0  0  0  0  0  0  0  0
   -3.1133    1.4711    0.0006 C   0  0  0  0  0  0  0  0  0  0  0  0
    3.4917    1.0797   -0.0001 C   0  0  0  0  0  0  0  0  0  0  0  0
   -4.1265   -1.1030   -0.0005 C   0  0  0  0  0  0  0  0  0  0  0  0
    3.8616   -1.2883    0.0005 C   0  0  0  0  0  0  0  0  0  0  0  0
    4.3687    0.0007    0.0001 C   0  0  0  0  0  0  0  0  0  0  0  0
   -4.4963    1.2651    0.0002 C   0  0  0  0  0  0  0  0  0  0  0  0
   -5.0035   -0.0240   -0.0003 C   0  0  0  0  0  0  0  0  0  0  0  0
  1 17  1  0
  2  3  1  0
  2  4  2  0
  2  9  1  0
  3  5  1  0
  3  8  2  0
  4  6  1  0
  4 12  1  0
  5  7  2  0
  5 13  1  0
  6 10  2  0
  6 14  1  0
  7 11  1  0
  7 15  1  0
  8 10  1  0
  9 11  2  0
 12 16  2  0
 13 18  2  0
 14 17  2  0
 15 19  2  0
 16 17  1  0
 18 19  1  0
M  END
>  <PUBCHEM_COMPOUND_CID>  (1) 
47782

>  <PUBCHEM_CONFORMER_RMSD>  (1) 
0.4

>  <PUBCHEM_CONFORMER_DIVERSEORDER>  (1) 
1

>  <PUBCHEM_MMFF94_PARTIAL_CHARGES>  (1) 
25
1 -0.53
10 -0.15
11 -0.15
12 -0.15
13 -0.15
14 -0.15
15 -0.15
16 -0.15
17 0.08
18 -0.15
19 -0.15
20 0.15
21 0.15
22 0.15
23 0.15
24 0.15
25 0.15
26 0.15
27 0.15
28 0.15
29 0.15
30 0.15
31 0.45
8 -0.15
9 -0.15

>  <PUBCHEM_EFFECTIVE_ROTOR_COUNT>  (1) 
0

>  <PUBCHEM_PHARMACOPHORE_FEATURES>  (1) 
5
1 1 donor
6 2 3 4 6 8 10 rings
6 2 3 5 7 9 11 rings
6 4 6 12 14 16 17 rings
6 5 7 13 15 18 19 rings

>  <PUBCHEM_HEAVY_ATOM_COUNT>  (1) 
19

>  <PUBCHEM_ATOM_DEF_STEREO_COUNT>  (1) 
0

>  <PUBCHEM_ATOM_UDEF_STEREO_COUNT>  (1) 
0

>  <PUBCHEM_BOND_DEF_STEREO_COUNT>  (1) 
0

>  <PUBCHEM_BOND_UDEF_STEREO_COUNT>  (1) 
0

>  <PUBCHEM_ISOTOPIC_ATOM_COUNT>  (1) 
0

>  <PUBCHEM_COMPONENT_COUNT>  (1) 
1

>  <PUBCHEM_CACTVS_TAUTO_COUNT>  (1) 
3

>  <PUBCHEM_CONFORMER_ID>  (1) 
0000BAA600000001

>  <PUBCHEM_MMFF94_ENERGY>  (1) 
69.4771

>  <PUBCHEM_FEATURE_SELFOVERLAP>  (1) 
25.441

>  <PUBCHEM_SHAPE_FINGERPRINT>  (1) 
10062212 137 18342733031507943951
10616163 171 18340488970824776270
10967382 1 18410573946502059207
11132069 177 18411697677466228712
11471102 20 18410853265426253910
11578080 2 16914524734580534819
12011746 2 18411699876500046989
12107183 9 17689716359363189352
12403259 226 18268423702423867937
12403259 415 18410565189523289209
12403814 3 17603583015230264165
13140716 1 18266741470364058056
13288520 33 18413110554413871788
13862211 1 18410569582841946058
14115302 16 18187093879182929140
14790565 3 18409737239744735404
15042514 8 18193842767897474523
15099037 51 18410573985399442575
15196674 1 18410855438653435750
15375358 24 18343866610600014534
15442244 35 18410855451548783233
15536298 74 18342175574411252352
1601671 61 18411983550843014724
16945 1 18122625212857130437
17804303 29 18411984693109260021
1813 80 17240202127590443412
18186145 218 17967244299957716583
18522853 276 18413671309449217689
19141452 34 18343302595547555319
19591789 44 18265613186824381255
200 152 17989203754877729235
20510252 161 18200313212725763929
20645477 70 18270681965715096910
21029758 11 18343299267005903657
21267235 1 18410582798524887626
21279426 13 18194965145160189511
21421861 104 17823971239405663578
221490 88 18191593149272365979
23402539 116 18271800228879423703
23463225 33 18409449180466550324
23559900 14 18271521004914527744
3004659 81 18261115124312123870
335352 9 18410573967992726868
34934 24 18410851066867462298
350125 39 18410577280214722273
3545911 37 18411983559058266475
4214541 1 18410856559919572289
474 4 17241616194196794900
495365 180 17417517103679318912
5104073 3 18410292523070192842
69090 78 18413668019768155935
7364860 26 18197496427408052296
77779 3 18410013238532089927
8809292 202 18261395614865552651
9709674 26 18412269457967973367
9981440 41 17253714292088370000

>  <PUBCHEM_SHAPE_MULTIPOLES>  (1) 
385.14
9.83
2.07
0.61
1.91
0.04
0
-0.24
0
-0.35
0
-0.03
0
0

>  <PUBCHEM_SHAPE_SELFOVERLAP>  (1) 
885.01

>  <PUBCHEM_SHAPE_VOLUME>  (1) 
199.6

>  <PUBCHEM_COORDINATE_TYPE>  (1) 
2
5
10

$$$$
