47789
     RDKit          3D

 26 28  0  0  1  0  0  0  0  0999 V2000
   -2.5498    2.5944    0.4633 O   0  0  0  0  0  0  0  0  0  0  0  0
   -6.5739   -1.8994   -1.1816 O   0  0  0  0  0  0  0  0  0  0  0  0
    1.5880    2.3051   -0.3434 N   0  0  0  0  0  0  0  0  0  0  0  0
    3.5848    0.2865   -0.0307 N   0  0  0  0  0  0  0  0  0  0  0  0
    1.8272    1.6933    0.9694 C   0  0  0  0  0  0  0  0  0  0  0  0
    2.8471    2.3838   -1.0944 C   0  0  0  0  0  0  0  0  0  0  0  0
    2.3924    0.2783    0.8223 C   0  0  0  0  0  0  0  0  0  0  0  0
    3.4452    0.9920   -1.3109 C   0  0  0  0  0  0  0  0  0  0  0  0
    0.9982    3.6346   -0.1901 C   0  0  0  0  0  0  0  0  0  0  0  0
   -0.3489    3.5377    0.5187 C   0  0  0  0  0  0  0  0  0  0  0  0
    4.4963   -0.7727    0.0405 C   0  0  0  0  0  0  0  0  0  0  0  0
   -1.3235    2.6572   -0.2517 C   0  0  0  0  0  0  0  0  0  0  0  0
    4.0721   -2.0736    0.3779 C   0  0  0  0  0  0  0  0  0  0  0  0
    5.8656   -0.5710   -0.2240 C   0  0  0  0  0  0  0  0  0  0  0  0
    4.9804   -3.1298    0.4480 C   0  0  0  0  0  0  0  0  0  0  0  0
    6.7739   -1.6274   -0.1540 C   0  0  0  0  0  0  0  0  0  0  0  0
   -3.2938    1.4525    0.3164 C   0  0  0  0  0  0  0  0  0  0  0  0
    6.3313   -2.9067    0.1821 C   0  0  0  0  0  0  0  0  0  0  0  0
   -5.6110   -2.1065   -0.1379 C   0  0  0  0  0  0  0  0  0  0  0  0
   -4.8016   -0.8643    0.0212 C   0  0  0  0  0  0  0  0  0  0  0  0
   -4.1043    1.0218    1.3602 C   0  0  0  0  0  0  0  0  0  0  0  0
   -3.2291    0.7369   -0.8735 C   0  0  0  0  0  0  0  0  0  0  0  0
   -4.7889   -3.3668   -0.4814 C   0  0  0  0  0  0  0  0  0  0  0  0
   -4.8610   -0.1407    1.2121 C   0  0  0  0  0  0  0  0  0  0  0  0
   -3.9858   -0.4255   -1.0217 C   0  0  0  0  0  0  0  0  0  0  0  0
   -3.7309   -3.6898    0.5631 C   0  0  0  0  0  0  0  0  0  0  0  0
  1 12  1  0
  1 17  1  0
  2 19  1  0
  3  5  1  0
  3  6  1  0
  3  9  1  0
  4  7  1  0
  4  8  1  0
  4 11  1  0
  5  7  1  0
  6  8  1  0
  9 10  1  0
 10 12  1  0
 11 13  2  0
 11 14  1  0
 13 15  1  0
 14 16  2  0
 15 18  2  0
 16 18  1  0
 17 21  2  0
 17 22  1  0
 19 20  1  0
 19 23  1  0
 20 24  2  0
 20 25  1  0
 21 24  1  0
 22 25  2  0
 23 26  1  0
M  END
>  <PUBCHEM_COMPOUND_CID>  (1) 
47789

>  <PUBCHEM_CONFORMER_RMSD>  (1) 
1

>  <PUBCHEM_CONFORMER_DIVERSEORDER>  (1) 
2
4
110
80
183
129
170
76
46
25
193
13
120
201
147
205
82
43
9
89
197
128
188
65
21
166
40
44
102
190
30
199
118
154
87
16
18
198
93
141
114
60
47
176
77
200
72
54
117
186
12
130
79
96
84
195
202
149
101
104
184
22
90
113
133
49
6
20
56
182
108
36
28
27
116
161
94
143
83
35
134
138
153
177
111
50
19
26
124
152
165
167
189
67
191
163
181
168
146
38
5
29
151
37
156
86
58
157
160
95
57
204
33
74
100
179
53
81
144
142
121
99
137
127
140
34
71
75
91
10
85
112
39
148
61
109
23
63
66
45
178
123
78
125
31
203
119
14
92
158
196
135
55
159
24
185
59
64
122
162
42
139
88
175
48
145
97
192
115
8
69
150
17
103
106
15
132
105
70
32
194
171
173
3
51
52
136
107
62
180
174
73
41
11
1
169
68
187
164
98
7
126
131
172
155

>  <PUBCHEM_MMFF94_PARTIAL_CHARGES>  (1) 
33
1 -0.36
11 0.1
12 0.28
13 -0.15
14 -0.15
15 -0.15
16 -0.15
17 0.08
18 -0.15
19 0.42
2 -0.68
20 -0.14
21 -0.15
22 -0.15
24 -0.15
25 -0.15
3 -0.81
4 -0.84
41 0.15
42 0.15
43 0.15
44 0.15
45 0.15
49 0.15
5 0.27
50 0.15
51 0.15
52 0.15
56 0.4
6 0.27
7 0.37
8 0.37
9 0.27

>  <PUBCHEM_EFFECTIVE_ROTOR_COUNT>  (1) 
9.2

>  <PUBCHEM_PHARMACOPHORE_FEATURES>  (1) 
9
1 1 acceptor
1 2 acceptor
1 2 donor
1 26 hydrophobe
1 3 cation
1 4 cation
6 11 13 14 15 16 18 rings
6 17 20 21 22 24 25 rings
6 3 4 5 6 7 8 rings

>  <PUBCHEM_HEAVY_ATOM_COUNT>  (1) 
26

>  <PUBCHEM_ATOM_DEF_STEREO_COUNT>  (1) 
0

>  <PUBCHEM_ATOM_UDEF_STEREO_COUNT>  (1) 
1

>  <PUBCHEM_BOND_DEF_STEREO_COUNT>  (1) 
0

>  <PUBCHEM_BOND_UDEF_STEREO_COUNT>  (1) 
0

>  <PUBCHEM_ISOTOPIC_ATOM_COUNT>  (1) 
0

>  <PUBCHEM_COMPONENT_COUNT>  (1) 
1

>  <PUBCHEM_CACTVS_TAUTO_COUNT>  (1) 
1

>  <PUBCHEM_CONFORMER_ID>  (1) 
0000BAAD00000002

>  <PUBCHEM_MMFF94_ENERGY>  (1) 
79.1419

>  <PUBCHEM_FEATURE_SELFOVERLAP>  (1) 
45.673

>  <PUBCHEM_SHAPE_FINGERPRINT>  (1) 
10042902 136 18410855426232997912
10305334 12 18270689650049567963
10391435 84 18338503146183787120
10622 236 17824815647140206058
10917259 128 8717669746728055990
10928967 22 18267323073734907655
11197282 1 18410575119165826731
11497681 19 18264494984738701734
117089 54 18410581707572137095
12107183 9 18270413706964900473
12174731 88 18411981330392765683
12422481 6 17346317025674085102
12559416 138 18270385123382903190
13103583 49 18059584533311670665
1361 4 18340488838662088790
1361 87 17749957768821928275
13690498 29 17968376754211928901
14117953 113 18340765936992525125
14168556 18 18411976980424117712
14251751 18 18272088283941282064
14251764 30 18410291402342229534
14429380 30 18409731763761393450
14866123 147 18341054022029899473
14950920 106 17489584562956835553
15019793 15 17907015436901770895
15183329 4 18334857204059806834
15320294 125 18052557486211984177
15519825 34 14835540575682081493
15728490 51 18412263939931341518
17492 89 18339639057448419409
17780758 139 17846217692161162329
19246450 95 18055374452778094193
19319366 153 17907302409304563940
20775438 99 17906154506290449067
20843269 155 18411699859742131748
23559900 14 18267013028999715003
2748736 6 9151167619687115734
2838139 119 8213844982494975672
312425 54 18060138712888853633
3146121 3 18410292550153740432
316301 35 18413387661483078832
3246872 21 18336544919758417810
325973 47 18337113495987296939
437795 163 18336271232326904964
439807 62 18335704953325494623
44062 13 18261950752769750541
4435113 14 17773609217339372150
463206 1 18409455764683070539
484985 159 18267302041549798949
5104073 3 17846224388220931129
5874358 3 16879333525842829946
6431902 208 18335985259923368674
7970288 3 18410854373564921367
8863177 126 18343016679875120256
88748 71 18409450327745382565

>  <PUBCHEM_SHAPE_MULTIPOLES>  (1) 
513.37
17.84
5.17
1.1
5.32
0.23
0.02
20
1.06
-0.69
-0.13
-0.69
-0.2
-1.75

>  <PUBCHEM_SHAPE_SELFOVERLAP>  (1) 
1068.447

>  <PUBCHEM_SHAPE_VOLUME>  (1) 
291.7

>  <PUBCHEM_COORDINATE_TYPE>  (1) 
2
5
10

$$$$
