47786
     RDKit          3D

 25 27  0  0  0  0  0  0  0  0999 V2000
   -2.9463   -1.1948    0.5718 O   0  0  0  0  0  0  0  0  0  0  0  0
   -8.1844    1.5732   -0.2033 O   0  0  0  0  0  0  0  0  0  0  0  0
    1.5411    0.3330   -0.4411 N   0  0  0  0  0  0  0  0  0  0  0  0
    4.3680    0.1896   -0.0574 N   0  0  0  0  0  0  0  0  0  0  0  0
    2.1002   -0.4099    0.6948 C   0  0  0  0  0  0  0  0  0  0  0  0
    2.3915    1.4898   -0.7483 C   0  0  0  0  0  0  0  0  0  0  0  0
    3.5105   -0.9158    0.3809 C   0  0  0  0  0  0  0  0  0  0  0  0
    3.8107    1.0466   -1.1113 C   0  0  0  0  0  0  0  0  0  0  0  0
    0.1745    0.7644   -0.1492 C   0  0  0  0  0  0  0  0  0  0  0  0
   -0.7231   -0.4456    0.0889 C   0  0  0  0  0  0  0  0  0  0  0  0
    5.7594    0.0606    0.0181 C   0  0  0  0  0  0  0  0  0  0  0  0
   -2.1595   -0.0282    0.3741 C   0  0  0  0  0  0  0  0  0  0  0  0
    6.3792   -1.1985   -0.1094 C   0  0  0  0  0  0  0  0  0  0  0  0
    6.5830    1.1857    0.2228 C   0  0  0  0  0  0  0  0  0  0  0  0
    7.7661   -1.3273   -0.0353 C   0  0  0  0  0  0  0  0  0  0  0  0
    7.9700    1.0568    0.2968 C   0  0  0  0  0  0  0  0  0  0  0  0
    8.5616   -0.1997    0.1678 C   0  0  0  0  0  0  0  0  0  0  0  0
   -4.2724   -1.1108    0.2349 C   0  0  0  0  0  0  0  0  0  0  0  0
   -4.9313    0.1090    0.3342 C   0  0  0  0  0  0  0  0  0  0  0  0
   -4.9442   -2.2468   -0.2013 C   0  0  0  0  0  0  0  0  0  0  0  0
   -6.2810    0.1940   -0.0074 C   0  0  0  0  0  0  0  0  0  0  0  0
   -6.2939   -2.1618   -0.5430 C   0  0  0  0  0  0  0  0  0  0  0  0
   -6.9624   -0.9413   -0.4460 C   0  0  0  0  0  0  0  0  0  0  0  0
   -6.9781    1.4664    0.0946 C   0  0  0  0  0  0  0  0  0  0  0  0
   -6.2392    2.7113    0.5733 C   0  0  0  0  0  0  0  0  0  0  0  0
  1 12  1  0
  1 18  1  0
  2 24  2  0
  3  5  1  0
  3  6  1  0
  3  9  1  0
  4  7  1  0
  4  8  1  0
  4 11  1  0
  5  7  1  0
  6  8  1  0
  9 10  1  0
 10 12  1  0
 11 13  2  0
 11 14  1  0
 13 15  1  0
 14 16  2  0
 15 17  2  0
 16 17  1  0
 18 19  2  0
 18 20  1  0
 19 21  1  0
 20 22  2  0
 21 23  2  0
 21 24  1  0
 22 23  1  0
 24 25  1  0
M  END
>  <PUBCHEM_COMPOUND_CID>  (1) 
47786

>  <PUBCHEM_CONFORMER_RMSD>  (1) 
1

>  <PUBCHEM_CONFORMER_DIVERSEORDER>  (1) 
2
16
98
79
139
183
23
145
76
197
26
47
70
58
208
61
112
174
82
88
119
42
175
207
62
65
69
12
156
162
149
75
9
203
15
94
14
43
117
44
180
91
87
72
53
90
33
28
115
173
24
111
125
22
18
17
129
163
187
151
66
27
212
160
155
11
37
123
128
6
191
190
164
50
86
10
146
116
20
84
101
13
205
172
68
136
97
157
100
19
48
4
83
74
198
189
34
1
165
95
176
126
118
202
92
81
64
41
45
29
150
59
140
196
179
36
114
40
103
134
144
122
215
171
131
71
109
49
167
137
99
51
85
102
210
31
3
52
32
21
138
54
178
46
57
184
142
107
161
60
201
141
39
7
166
121
113
213
209
133
194
154
132
80
135
105
120
204
104
185
25
56
96
89
170
73
63
30
192
193
182
159
169
181
77
199
110
55
124
8
143
147
35
211
168
195
127
186
158
177
200
214
78
93
130
153
206
188
67
108
152
106
5
148
38

>  <PUBCHEM_MMFF94_PARTIAL_CHARGES>  (1) 
33
1 -0.36
11 0.1
12 0.28
13 -0.15
14 -0.15
15 -0.15
16 -0.15
17 -0.15
18 0.08
19 -0.15
2 -0.57
20 -0.15
21 0.09
22 -0.15
23 -0.15
24 0.42
25 0.06
3 -0.81
4 -0.84
40 0.15
41 0.15
42 0.15
43 0.15
44 0.15
45 0.15
46 0.15
47 0.15
48 0.15
5 0.27
6 0.27
7 0.37
8 0.37
9 0.27

>  <PUBCHEM_EFFECTIVE_ROTOR_COUNT>  (1) 
8.2

>  <PUBCHEM_PHARMACOPHORE_FEATURES>  (1) 
7
1 1 acceptor
1 2 acceptor
1 3 cation
1 4 cation
6 11 13 14 15 16 17 rings
6 18 19 20 21 22 23 rings
6 3 4 5 6 7 8 rings

>  <PUBCHEM_HEAVY_ATOM_COUNT>  (1) 
25

>  <PUBCHEM_ATOM_DEF_STEREO_COUNT>  (1) 
0

>  <PUBCHEM_ATOM_UDEF_STEREO_COUNT>  (1) 
0

>  <PUBCHEM_BOND_DEF_STEREO_COUNT>  (1) 
0

>  <PUBCHEM_BOND_UDEF_STEREO_COUNT>  (1) 
0

>  <PUBCHEM_ISOTOPIC_ATOM_COUNT>  (1) 
0

>  <PUBCHEM_COMPONENT_COUNT>  (1) 
1

>  <PUBCHEM_CACTVS_TAUTO_COUNT>  (1) 
2

>  <PUBCHEM_CONFORMER_ID>  (1) 
0000BAAA00000002

>  <PUBCHEM_MMFF94_ENERGY>  (1) 
82.6277

>  <PUBCHEM_FEATURE_SELFOVERLAP>  (1) 
35.524

>  <PUBCHEM_SHAPE_FINGERPRINT>  (1) 
10 15 15985103042217228778
10050765 1 18122907525864316178
100830 39 18410856517371443105
10299344 5 18260547826965393670
10666366 153 17988372486112979188
10670039 82 18408879638825279361
11135926 11 16950558883160560411
11315181 36 17846502547877975811
11719270 70 18060140938362686966
12082328 90 18413386549424133415
12091667 2 18409451406082769987
12104220 1 18340765949799279909
12236239 1 18411702110199642642
13885169 127 18411981356024984173
13914758 101 18408888429663199736
14118638 360 15936677182237154206
14251764 18 18261111885083531692
14251764 46 18343864415681783094
15152005 290 18266740183235781421
15183329 4 17603862316895597955
15419008 47 16917345922377102393
15461852 350 17346590898922574439
1577012 14 18186794764881516259
15849732 13 18272369797894536406
17093844 174 18410293623420551043
195137 175 18409736161628712505
21298829 104 18334859402639235971
21315763 28 18411136982829547701
22224240 67 13254796841691480036
23559900 14 18269549597835147233
3004659 81 18186799205655731626
4073 2 17968101970477734986
4339292 15 17131541861122690303
444735 82 18339642360648184928
54039377 194 10735580416218358429
559249 180 18412826906732770751
5758199 1 17821728329704710970
58260988 114 16081948074106190419
6126387 218 18412824681464678680
99344 41 18412544301599717974

>  <PUBCHEM_SHAPE_MULTIPOLES>  (1) 
492.79
30.21
2.07
0.78
9.03
0.23
-0.05
1.86
0.25
-3.88
-0.04
0.1
0.07
-0.92

>  <PUBCHEM_SHAPE_SELFOVERLAP>  (1) 
1034

>  <PUBCHEM_SHAPE_VOLUME>  (1) 
278.5

>  <PUBCHEM_COORDINATE_TYPE>  (1) 
2
5
10

$$$$
