47793
     RDKit          3D

 10  9  0  0  0  0  0  0  0  0999 V2000
   -1.0605   -0.1406   -0.3126 O   0  0  0  0  0  0  0  0  0  0  0  0
   -2.8242    0.3076    1.1098 O   0  0  0  0  0  0  0  0  0  0  0  0
    2.0263    2.0350   -0.1717 O   0  0  0  0  0  0  0  0  0  0  0  0
    1.2934    0.1097    0.2837 N   0  0  0  0  0  0  0  0  0  0  0  0
    1.6970    0.9438   -0.6517 N   0  0  0  0  0  0  0  0  0  0  0  0
    1.5638   -1.2879   -0.0638 C   0  0  0  0  0  0  0  0  0  0  0  0
   -0.1155    0.2726    0.6969 C   0  0  0  0  0  0  0  0  0  0  0  0
    3.0192   -1.6443    0.1873 C   0  0  0  0  0  0  0  0  0  0  0  0
   -2.3764   -0.0693    0.0353 C   0  0  0  0  0  0  0  0  0  0  0  0
   -3.2232   -0.5267   -1.1133 C   0  0  0  0  0  0  0  0  0  0  0  0
  1  7  1  0
  1  9  1  0
  2  9  2  0
  3  5  2  0
  4  5  1  0
  4  6  1  0
  4  7  1  0
  6  8  1  0
  9 10  1  0
M  END
>  <PUBCHEM_COMPOUND_CID>  (1) 
47793

>  <PUBCHEM_CONFORMER_RMSD>  (1) 
0.6

>  <PUBCHEM_CONFORMER_DIVERSEORDER>  (1) 
1
55
9
15
61
110
95
113
41
127
67
14
111
28
116
51
79
37
82
86
114
45
26
20
38
8
100
93
60
131
122
22
128
23
43
10
99
31
58
4
129
18
78
44
85
96
29
83
16
2
56
13
125
77
52
81
46
3
124
108
63
74
72
121
87
42
7
27
94
19
119
17
123
88
68
50
21
40
39
91
12
6
54
80
104
53
24
11
66
103
117
120
49
69
59
118
48
107
33
126
30
109
89
32
76
112
71
65
36
57
102
62
115
25
130
70
34
97
47
106
75
35
64
92
105
5
73
84
98
90
101

>  <PUBCHEM_MMFF94_PARTIAL_CHARGES>  (1) 
9
1 -0.43
10 0.06
2 -0.57
3 -0.16
4 -0.36
5 -0.01
6 0.27
7 0.55
9 0.66

>  <PUBCHEM_EFFECTIVE_ROTOR_COUNT>  (1) 
5

>  <PUBCHEM_PHARMACOPHORE_FEATURES>  (1) 
1
1 2 acceptor

>  <PUBCHEM_HEAVY_ATOM_COUNT>  (1) 
10

>  <PUBCHEM_ATOM_DEF_STEREO_COUNT>  (1) 
0

>  <PUBCHEM_ATOM_UDEF_STEREO_COUNT>  (1) 
0

>  <PUBCHEM_BOND_DEF_STEREO_COUNT>  (1) 
0

>  <PUBCHEM_BOND_UDEF_STEREO_COUNT>  (1) 
0

>  <PUBCHEM_ISOTOPIC_ATOM_COUNT>  (1) 
0

>  <PUBCHEM_COMPONENT_COUNT>  (1) 
1

>  <PUBCHEM_CACTVS_TAUTO_COUNT>  (1) 
1

>  <PUBCHEM_CONFORMER_ID>  (1) 
0000BAB100000001

>  <PUBCHEM_MMFF94_ENERGY>  (1) 
13.6393

>  <PUBCHEM_FEATURE_SELFOVERLAP>  (1) 
5.074

>  <PUBCHEM_SHAPE_FINGERPRINT>  (1) 
10857977 72 15123785210724301027
12932741 1 17385161753449606083
12932764 1 17703794755807062105
14128692 85 18273213062877614330
14390081 3 16732969943276375149
20653085 51 18188478078866344165
20711985 327 18270113514108671858
23552423 10 18342174449446572263
3248919 1 18409725192603628275
8030462 33 18060136587264786305

>  <PUBCHEM_SHAPE_MULTIPOLES>  (1) 
178.23
5.25
1.53
0.92
2.03
0.41
-0.02
-1.5
0.45
-1.75
0.19
0.61
0.02
-0.59

>  <PUBCHEM_SHAPE_SELFOVERLAP>  (1) 
329.681

>  <PUBCHEM_SHAPE_VOLUME>  (1) 
112.3

>  <PUBCHEM_COORDINATE_TYPE>  (1) 
2
5
10

$$$$
