47797
     RDKit          3D

 10 10  0  0  0  0  0  0  0  0999 V2000
    3.0546    1.4703    0.2262 O   0  0  0  0  0  0  0  0  0  0  0  0
    3.1746   -0.6885   -0.4473 O   0  0  0  0  0  0  0  0  0  0  0  0
   -0.8204   -0.9130    0.0670 C   0  0  0  0  0  0  0  0  0  0  0  0
    0.9589    0.2494    0.1591 C   0  0  0  0  0  0  0  0  0  0  0  0
    0.3981   -0.9067    1.0134 C   0  0  0  0  0  0  0  0  0  0  0  0
    0.1045   -0.2974   -1.0035 C   0  0  0  0  0  0  0  0  0  0  0  0
   -1.9575    0.0151    0.5125 C   0  0  0  0  0  0  0  0  0  0  0  0
   -3.1458   -0.0649   -0.4439 C   0  0  0  0  0  0  0  0  0  0  0  0
    2.4973    0.2613   -0.0615 C   0  0  0  0  0  0  0  0  0  0  0  0
   -4.2643    0.8744   -0.0219 C   0  0  0  0  0  0  0  0  0  0  0  0
  1  9  1  0
  2  9  2  0
  3  5  1  0
  3  6  1  0
  3  7  1  0
  4  5  1  0
  4  6  1  0
  4  9  1  0
  7  8  1  0
  8 10  1  0
M  END
>  <PUBCHEM_COMPOUND_CID>  (1) 
47797

>  <PUBCHEM_CONFORMER_RMSD>  (1) 
0.6

>  <PUBCHEM_CONFORMER_DIVERSEORDER>  (1) 
1
8
21
23
17
25
2
15
11
12
5
13
18
22
24
26
14
7
3
16
19
6
10
20
4
9

>  <PUBCHEM_MMFF94_PARTIAL_CHARGES>  (1) 
5
1 -0.65
2 -0.57
24 0.5
4 0.05
9 0.67

>  <PUBCHEM_EFFECTIVE_ROTOR_COUNT>  (1) 
3.8

>  <PUBCHEM_PHARMACOPHORE_FEATURES>  (1) 
5
1 1 acceptor
1 10 hydrophobe
1 2 acceptor
3 1 2 9 anion
4 3 4 5 6 rings

>  <PUBCHEM_HEAVY_ATOM_COUNT>  (1) 
10

>  <PUBCHEM_ATOM_DEF_STEREO_COUNT>  (1) 
0

>  <PUBCHEM_ATOM_UDEF_STEREO_COUNT>  (1) 
0

>  <PUBCHEM_BOND_DEF_STEREO_COUNT>  (1) 
0

>  <PUBCHEM_BOND_UDEF_STEREO_COUNT>  (1) 
0

>  <PUBCHEM_ISOTOPIC_ATOM_COUNT>  (1) 
0

>  <PUBCHEM_COMPONENT_COUNT>  (1) 
1

>  <PUBCHEM_CACTVS_TAUTO_COUNT>  (1) 
1

>  <PUBCHEM_CONFORMER_ID>  (1) 
0000BAB500000001

>  <PUBCHEM_MMFF94_ENERGY>  (1) 
12.5692

>  <PUBCHEM_FEATURE_SELFOVERLAP>  (1) 
25.431

>  <PUBCHEM_SHAPE_FINGERPRINT>  (1) 
11062470 55 17704072893288130933
11769659 78 9367356920013043781
12897270 3 16200148794536346289
12932764 1 17821998805433563391
14325111 11 18411699915328916591
14390081 3 18333729122129391409
14993402 34 16702025304877211612
15477762 27 11311765190015890121
170605 34 18408603647767314795
18186145 218 18335136488159214149
20281407 28 9295289452103576749
20653085 51 18410862096021465297
21119208 17 17346598552116692429
21293036 1 14979956999161744496
22485316 2 9007055747536956897
23235685 24 17167579388833784571
23402539 116 17846772980029628877
23402655 69 17917711279810067197
3248919 1 17060351724647628366

>  <PUBCHEM_SHAPE_MULTIPOLES>  (1) 
194.06
6.27
1.08
0.88
3.12
0.12
0.03
2.34
0.28
-0.32
-0.14
-0.02
-0.11
0.13

>  <PUBCHEM_SHAPE_SELFOVERLAP>  (1) 
374.508

>  <PUBCHEM_SHAPE_VOLUME>  (1) 
119

>  <PUBCHEM_COORDINATE_TYPE>  (1) 
2
5
10

$$$$
