47803
     RDKit          3D

 10 10  0  0  0  0  0  0  0  0999 V2000
    3.2560    0.6134    0.3986 O   0  0  0  0  0  0  0  0  0  0  0  0
    2.4062   -1.3912   -0.2764 O   0  0  0  0  0  0  0  0  0  0  0  0
   -1.2222    0.3267   -0.1782 C   0  0  0  0  0  0  0  0  0  0  0  0
   -0.2422   -0.2036    0.8889 C   0  0  0  0  0  0  0  0  0  0  0  0
   -0.0208    0.3802   -1.1446 C   0  0  0  0  0  0  0  0  0  0  0  0
    0.8788    0.5076    0.1025 C   0  0  0  0  0  0  0  0  0  0  0  0
   -2.3032   -0.6554   -0.5782 C   0  0  0  0  0  0  0  0  0  0  0  0
   -1.8141    1.6780    0.1454 C   0  0  0  0  0  0  0  0  0  0  0  0
    2.2497   -0.2219    0.0423 C   0  0  0  0  0  0  0  0  0  0  0  0
   -3.1881   -1.0338    0.5998 C   0  0  0  0  0  0  0  0  0  0  0  0
  1  9  1  0
  2  9  2  0
  3  4  1  0
  3  5  1  0
  3  7  1  0
  3  8  1  0
  4  6  1  0
  5  6  1  0
  6  9  1  0
  7 10  1  0
M  END
>  <PUBCHEM_COMPOUND_CID>  (1) 
47803

>  <PUBCHEM_CONFORMER_RMSD>  (1) 
0.6

>  <PUBCHEM_CONFORMER_DIVERSEORDER>  (1) 
1
5
7
3
8
2
6
4

>  <PUBCHEM_MMFF94_PARTIAL_CHARGES>  (1) 
5
1 -0.65
2 -0.57
24 0.5
6 0.05
9 0.67

>  <PUBCHEM_EFFECTIVE_ROTOR_COUNT>  (1) 
2.8

>  <PUBCHEM_PHARMACOPHORE_FEATURES>  (1) 
5
1 1 acceptor
1 10 hydrophobe
1 2 acceptor
3 1 2 9 anion
4 3 4 5 6 rings

>  <PUBCHEM_HEAVY_ATOM_COUNT>  (1) 
10

>  <PUBCHEM_ATOM_DEF_STEREO_COUNT>  (1) 
0

>  <PUBCHEM_ATOM_UDEF_STEREO_COUNT>  (1) 
0

>  <PUBCHEM_BOND_DEF_STEREO_COUNT>  (1) 
0

>  <PUBCHEM_BOND_UDEF_STEREO_COUNT>  (1) 
0

>  <PUBCHEM_ISOTOPIC_ATOM_COUNT>  (1) 
0

>  <PUBCHEM_COMPONENT_COUNT>  (1) 
1

>  <PUBCHEM_CACTVS_TAUTO_COUNT>  (1) 
1

>  <PUBCHEM_CONFORMER_ID>  (1) 
0000BABB00000001

>  <PUBCHEM_MMFF94_ENERGY>  (1) 
17.4888

>  <PUBCHEM_FEATURE_SELFOVERLAP>  (1) 
25.427

>  <PUBCHEM_SHAPE_FINGERPRINT>  (1) 
10857977 72 18339631330279793833
11769659 78 18409442583571259707
12716758 59 18266737974424332585
12932764 1 17489297599117115992
14128692 85 17459474527540818431
14325111 11 18411698755640228448
15310529 11 18202277000711879084
16945 1 18270675484302978708
20281407 28 18343303703754508555
21293036 1 16081091514674562599
23552423 10 18188213100194261942
29004967 10 18342735230314661744
3248919 1 18337660936913200932
369184 2 18131347479681258221
5084963 1 17458344160530273981

>  <PUBCHEM_SHAPE_MULTIPOLES>  (1) 
194.06
4.58
1.29
0.92
1.22
0.18
-0.08
-1.17
0.54
-0.47
0.05
-0.16
-0.01
0.19

>  <PUBCHEM_SHAPE_SELFOVERLAP>  (1) 
382.906

>  <PUBCHEM_SHAPE_VOLUME>  (1) 
118.7

>  <PUBCHEM_COORDINATE_TYPE>  (1) 
2
5
10

$$$$
