47801
     RDKit          3D

 14 15  0  0  0  0  0  0  0  0999 V2000
    4.6382   -0.7798   -0.6553 O   0  0  0  0  0  0  0  0  0  0  0  0
    3.0429   -1.5471    0.7572 O   0  0  0  0  0  0  0  0  0  0  0  0
    0.7496    0.5838    0.5097 C   0  0  0  0  0  0  0  0  0  0  0  0
    2.6218    0.5773   -0.5007 C   0  0  0  0  0  0  0  0  0  0  0  0
    2.0330    1.4303    0.6422 C   0  0  0  0  0  0  0  0  0  0  0  0
    1.1694    0.3157   -0.9507 C   0  0  0  0  0  0  0  0  0  0  0  0
   -0.5449    1.3563    0.6704 C   0  0  0  0  0  0  0  0  0  0  0  0
    3.4238   -0.6971   -0.0442 C   0  0  0  0  0  0  0  0  0  0  0  0
   -1.7390    0.5488    0.2868 C   0  0  0  0  0  0  0  0  0  0  0  0
   -2.2015    0.5688   -1.0290 C   0  0  0  0  0  0  0  0  0  0  0  0
   -2.3932   -0.2263    1.2445 C   0  0  0  0  0  0  0  0  0  0  0  0
   -3.3181   -0.1868   -1.3873 C   0  0  0  0  0  0  0  0  0  0  0  0
   -3.5098   -0.9816    0.8861 C   0  0  0  0  0  0  0  0  0  0  0  0
   -3.9722   -0.9622   -0.4298 C   0  0  0  0  0  0  0  0  0  0  0  0
  1  8  1  0
  2  8  2  0
  3  5  1  0
  3  6  1  0
  3  7  1  0
  4  5  1  0
  4  6  1  0
  4  8  1  0
  7  9  1  0
  9 10  2  0
  9 11  1  0
 10 12  1  0
 11 13  2  0
 12 14  2  0
 13 14  1  0
M  END
>  <PUBCHEM_COMPOUND_CID>  (1) 
47801

>  <PUBCHEM_CONFORMER_RMSD>  (1) 
0.6

>  <PUBCHEM_CONFORMER_DIVERSEORDER>  (1) 
2
16
3
12
13
15
9
4
14
11
7
10
1
8
6
5

>  <PUBCHEM_MMFF94_PARTIAL_CHARGES>  (1) 
17
1 -0.65
10 -0.15
11 -0.15
12 -0.15
13 -0.15
14 -0.15
2 -0.57
23 0.15
24 0.15
25 0.5
26 0.15
27 0.15
28 0.15
4 0.05
7 0.14
8 0.67
9 -0.14

>  <PUBCHEM_EFFECTIVE_ROTOR_COUNT>  (1) 
3.8

>  <PUBCHEM_PHARMACOPHORE_FEATURES>  (1) 
5
1 1 acceptor
1 2 acceptor
3 1 2 8 anion
4 3 4 5 6 rings
6 9 10 11 12 13 14 rings

>  <PUBCHEM_HEAVY_ATOM_COUNT>  (1) 
14

>  <PUBCHEM_ATOM_DEF_STEREO_COUNT>  (1) 
0

>  <PUBCHEM_ATOM_UDEF_STEREO_COUNT>  (1) 
0

>  <PUBCHEM_BOND_DEF_STEREO_COUNT>  (1) 
0

>  <PUBCHEM_BOND_UDEF_STEREO_COUNT>  (1) 
0

>  <PUBCHEM_ISOTOPIC_ATOM_COUNT>  (1) 
0

>  <PUBCHEM_COMPONENT_COUNT>  (1) 
1

>  <PUBCHEM_CACTVS_TAUTO_COUNT>  (1) 
1

>  <PUBCHEM_CONFORMER_ID>  (1) 
0000BAB900000002

>  <PUBCHEM_MMFF94_ENERGY>  (1) 
32.4622

>  <PUBCHEM_FEATURE_SELFOVERLAP>  (1) 
25.431

>  <PUBCHEM_SHAPE_FINGERPRINT>  (1) 
10465860 71 16732702765855493773
10498660 4 13695580070666601375
10751810 167 15864068780186922553
11046707 91 17918275341837894580
11127187 94 17821446872319124219
11132069 177 15267069155203849253
11137873 295 18333732386315079483
11543360 7 17023193750904212422
11769659 78 18335980883224996144
12186901 62 16370721531122541499
12251169 10 15554731083553908793
12382932 28 15338845239594072233
12670546 177 16298395685837609958
12932764 1 17988927794407346937
13296908 3 18408599292565130929
13705890 14 17967534584154963892
14123260 362 12468639413207542007
14178342 30 15698009534891416597
14250199 8 15792309192359895661
14252887 29 17775288240551111518
14350558 41 18259991482703133774
15239191 94 18343867718527470950
15375462 189 17846501426332361450
17041 50 16950281823246355220
18186145 218 16588302817295610765
19422 9 17632302323446161313
200 152 18411135835598519427
20233049 118 11891333166764663054
20279233 1 18114174284850192625
20281475 54 18338524165516032017
20300324 65 15502380049326507247
20361792 2 18202279225616045969
20645464 45 12247681573796185693
20645477 70 18343294890191252879
20671657 53 18334297543892402772
20871999 31 16877664569452973375
21065199 12 13758359968140200814
21501925 9 17417806257778180920
21650355 55 15123503744627655875
21713013 43 17967534614125075287
22169311 21 18188483683154827203
22485316 2 18343018934553569761
2255824 54 17987519380495129336
22646028 28 18131632283257759814
22926399 37 12179839520398191287
22926399 65 13479137886807900830
231179 274 9223235139473371546
23402655 69 14779535782067745823
23403322 49 18334575715717606883
23557571 272 17314507222180214997
23559900 14 17967525805273803748
27216 239 10663814183348371575
4028521 119 14418127426846590591
4921388 177 16298396764090529787
5262128 65 16878239605127861668
57812782 119 18113613508176499153
76465 3 18272080600049818374
90316 7 16271939207259378961
93112 12 17022904566186879189
9882013 296 16128079140024581618

>  <PUBCHEM_SHAPE_MULTIPOLES>  (1) 
276.37
8
1.33
1.24
2.24
0.09
-0.07
-3.85
-0.56
0.64
0.24
-0.78
-0.09
-0.01

>  <PUBCHEM_SHAPE_SELFOVERLAP>  (1) 
577.59

>  <PUBCHEM_SHAPE_VOLUME>  (1) 
156

>  <PUBCHEM_COORDINATE_TYPE>  (1) 
2
5
10

$$$$
