47804
     RDKit          3D

 11 11  0  0  0  0  0  0  0  0999 V2000
    3.4631    0.8194    0.4603 O   0  0  0  0  0  0  0  0  0  0  0  0
    2.8567   -1.0994   -0.5784 O   0  0  0  0  0  0  0  0  0  0  0  0
   -0.9869    0.0038   -0.0403 C   0  0  0  0  0  0  0  0  0  0  0  0
    0.1150   -0.5758    0.8710 C   0  0  0  0  0  0  0  0  0  0  0  0
    0.1404    0.4278   -1.0045 C   0  0  0  0  0  0  0  0  0  0  0  0
    1.0796    0.4373    0.2197 C   0  0  0  0  0  0  0  0  0  0  0  0
   -1.7454    1.1596    0.5680 C   0  0  0  0  0  0  0  0  0  0  0  0
   -1.9383   -1.0294   -0.6064 C   0  0  0  0  0  0  0  0  0  0  0  0
    2.5345   -0.0522   -0.0225 C   0  0  0  0  0  0  0  0  0  0  0  0
   -2.8327    1.6589   -0.3604 C   0  0  0  0  0  0  0  0  0  0  0  0
   -2.6860   -1.7501    0.4936 C   0  0  0  0  0  0  0  0  0  0  0  0
  1  9  1  0
  2  9  2  0
  3  4  1  0
  3  5  1  0
  3  7  1  0
  3  8  1  0
  4  6  1  0
  5  6  1  0
  6  9  1  0
  7 10  1  0
  8 11  1  0
M  END
>  <PUBCHEM_COMPOUND_CID>  (1) 
47804

>  <PUBCHEM_CONFORMER_RMSD>  (1) 
0.6

>  <PUBCHEM_CONFORMER_DIVERSEORDER>  (1) 
1
8
14
3
7
13
12
2
4
11
5
10
9
6

>  <PUBCHEM_MMFF94_PARTIAL_CHARGES>  (1) 
5
1 -0.65
2 -0.57
27 0.5
6 0.05
9 0.67

>  <PUBCHEM_EFFECTIVE_ROTOR_COUNT>  (1) 
3.8

>  <PUBCHEM_PHARMACOPHORE_FEATURES>  (1) 
6
1 1 acceptor
1 10 hydrophobe
1 11 hydrophobe
1 2 acceptor
3 1 2 9 anion
4 3 4 5 6 rings

>  <PUBCHEM_HEAVY_ATOM_COUNT>  (1) 
11

>  <PUBCHEM_ATOM_DEF_STEREO_COUNT>  (1) 
0

>  <PUBCHEM_ATOM_UDEF_STEREO_COUNT>  (1) 
0

>  <PUBCHEM_BOND_DEF_STEREO_COUNT>  (1) 
0

>  <PUBCHEM_BOND_UDEF_STEREO_COUNT>  (1) 
0

>  <PUBCHEM_ISOTOPIC_ATOM_COUNT>  (1) 
0

>  <PUBCHEM_COMPONENT_COUNT>  (1) 
1

>  <PUBCHEM_CACTVS_TAUTO_COUNT>  (1) 
1

>  <PUBCHEM_CONFORMER_ID>  (1) 
0000BABC00000001

>  <PUBCHEM_MMFF94_ENERGY>  (1) 
19.4511

>  <PUBCHEM_FEATURE_SELFOVERLAP>  (1) 
30.506

>  <PUBCHEM_SHAPE_FINGERPRINT>  (1) 
12138202 97 18201149962844418797
12716758 59 18341050718334443553
12932764 1 17489867180605459422
13024252 1 13118277066849618327
14128692 85 17606118635194362919
14325111 11 18411699876732161768
15310529 11 18060418049245818814
16945 1 18197213861234939086
19973954 147 18342177790773093952
20653085 51 18336273348791272401
20715346 28 18059858367788890068
20871998 184 18272375303963611855
23552423 10 18333735723335986742
29004967 10 17988925599979342738
3248919 1 18411127039822034404
369184 2 18060702788202515074
5084963 1 17313662771189628711
6333449 129 18412541003085290325

>  <PUBCHEM_SHAPE_MULTIPOLES>  (1) 
214.64
4.89
1.59
0.91
2.85
0.1
0.04
-0.06
-0.06
-1.45
-0.04
-0.05
0.03
0.31

>  <PUBCHEM_SHAPE_SELFOVERLAP>  (1) 
423.427

>  <PUBCHEM_SHAPE_VOLUME>  (1) 
129.9

>  <PUBCHEM_COORDINATE_TYPE>  (1) 
2
5
10

$$$$
