47807
     RDKit          3D

 11 10  0  0  0  0  0  0  0  0999 V2000
   -1.3569   -0.1891   -0.3074 O   0  0  0  0  0  0  0  0  0  0  0  0
    1.1475    2.6398   -0.2185 O   0  0  0  0  0  0  0  0  0  0  0  0
   -3.1922   -0.1173    1.0929 O   0  0  0  0  0  0  0  0  0  0  0  0
    0.8703    0.6114    0.2917 N   0  0  0  0  0  0  0  0  0  0  0  0
    1.0825    1.4889   -0.6667 N   0  0  0  0  0  0  0  0  0  0  0  0
    1.4577   -0.6962   -0.0122 C   0  0  0  0  0  0  0  0  0  0  0  0
    2.9590   -0.6797    0.2642 C   0  0  0  0  0  0  0  0  0  0  0  0
   -0.5431    0.4584    0.6934 C   0  0  0  0  0  0  0  0  0  0  0  0
    3.5972   -2.0207   -0.0641 C   0  0  0  0  0  0  0  0  0  0  0  0
   -2.6578   -0.4117    0.0324 C   0  0  0  0  0  0  0  0  0  0  0  0
   -3.3641   -1.0837   -1.1057 C   0  0  0  0  0  0  0  0  0  0  0  0
  1  8  1  0
  1 10  1  0
  2  5  2  0
  3 10  2  0
  4  5  1  0
  4  6  1  0
  4  8  1  0
  6  7  1  0
  7  9  1  0
 10 11  1  0
M  END
>  <PUBCHEM_COMPOUND_CID>  (1) 
47807

>  <PUBCHEM_CONFORMER_RMSD>  (1) 
0.6

>  <PUBCHEM_CONFORMER_DIVERSEORDER>  (1) 
1
145
323
170
172
253
113
241
8
31
30
287
289
128
254
16
185
258
91
21
279
79
173
126
22
262
35
165
206
83
71
190
90
249
286
215
98
246
183
58
45
89
147
217
304
2
155
47
174
64
3
267
7
291
301
271
187
318
94
140
313
252
48
195
149
144
274
66
237
176
122
161
212
192
73
321
6
296
259
312
261
4
67
166
25
325
52
114
26
233
28
151
317
101
142
316
327
44
120
132
300
129
18
14
61
283
139
12
232
229
210
299
275
92
33
137
100
148
141
37
203
70
153
115
62
285
167
60
234
50
266
127
119
200
290
193
131
225
199
305
5
310
240
34
197
179
213
55
85
106
143
57
244
238
77
81
255
17
208
109
257
288
268
146
211
158
164
130
294
277
82
324
280
222
265
111
218
242
75
19
303
93
189
182
134
196
220
63
87
116
273
68
202
84
29
88
251
186
95
9
156
245
46
74
157
42
13
24
263
56
117
108
224
124
138
177
180
118
230
223
168
201
188
298
54
243
102
314
295
276
125
51
96
20
104
270
69
163
306
53
284
207
204
133
309
107
308
228
97
307
221
315
103
10
191
226
154
320
326
302
86
32
297
135
219
80
216
160
281
43
209
150
49
76
38
171
41
239
162
205
40
311
11
278
72
105
227
23
214
319
292
178
231
247
110
78
256
39
36
123
169
272
260
198
264
236
194
112
322
121
184
15
136
65
152
250
59
27
99
159
175
235
293
269
282
181
248

>  <PUBCHEM_MMFF94_PARTIAL_CHARGES>  (1) 
9
1 -0.43
10 0.66
11 0.06
2 -0.16
3 -0.57
4 -0.36
5 -0.01
6 0.27
8 0.55

>  <PUBCHEM_EFFECTIVE_ROTOR_COUNT>  (1) 
6

>  <PUBCHEM_PHARMACOPHORE_FEATURES>  (1) 
2
1 3 acceptor
1 9 hydrophobe

>  <PUBCHEM_HEAVY_ATOM_COUNT>  (1) 
11

>  <PUBCHEM_ATOM_DEF_STEREO_COUNT>  (1) 
0

>  <PUBCHEM_ATOM_UDEF_STEREO_COUNT>  (1) 
0

>  <PUBCHEM_BOND_DEF_STEREO_COUNT>  (1) 
0

>  <PUBCHEM_BOND_UDEF_STEREO_COUNT>  (1) 
0

>  <PUBCHEM_ISOTOPIC_ATOM_COUNT>  (1) 
0

>  <PUBCHEM_COMPONENT_COUNT>  (1) 
1

>  <PUBCHEM_CACTVS_TAUTO_COUNT>  (1) 
1

>  <PUBCHEM_CONFORMER_ID>  (1) 
0000BABF00000001

>  <PUBCHEM_MMFF94_ENERGY>  (1) 
13.5283

>  <PUBCHEM_FEATURE_SELFOVERLAP>  (1) 
10.148

>  <PUBCHEM_SHAPE_FINGERPRINT>  (1) 
12932741 1 17241040019980682715
12932764 1 17702674405135154921
14128692 85 18343301478660587050
14251717 144 18337947999953476660
15477762 27 18338229465908021886
20361792 2 18409167671304362990
20645477 70 18263352746043243175
20653085 51 11747514773687203130
20671657 53 18409163298900977310
20711985 327 18343021073346991502
20711985 344 17901092036854326112
20871998 22 18339361860237789722
23552423 10 18341049726429230071
23598291 2 18343310283549252933
3248919 1 18264763440851542139
449060 23 18201442411405022382

>  <PUBCHEM_SHAPE_MULTIPOLES>  (1) 
198.8
6.12
1.96
0.89
0.77
1.11
-0.02
-4.27
0.16
-1.58
0.46
0.62
-0.04
-0.53

>  <PUBCHEM_SHAPE_SELFOVERLAP>  (1) 
367.649

>  <PUBCHEM_SHAPE_VOLUME>  (1) 
125.3

>  <PUBCHEM_COORDINATE_TYPE>  (1) 
2
5
10

$$$$
