47819
     RDKit          3D

 12 12  0  0  0  0  0  0  0  0999 V2000
    4.4696    0.3330    0.8516 O   0  0  0  0  0  0  0  0  0  0  0  0
    1.8668    0.3207   -0.2192 N   0  0  0  0  0  0  0  0  0  0  0  0
   -0.2315    1.4495   -0.1345 N   0  0  0  0  0  0  0  0  0  0  0  0
   -1.5896    1.4168   -0.0694 N   0  0  0  0  0  0  0  0  0  0  0  0
   -3.6300    0.1878    0.0435 N   0  0  0  0  0  0  0  0  0  0  0  0
   -4.3070   -0.9609    0.3713 N   0  0  0  0  0  0  0  0  0  0  0  0
    2.6962   -0.8616   -0.2426 C   0  0  0  0  0  0  0  0  0  0  0  0
    0.4834    0.2877   -0.1523 C   0  0  0  0  0  0  0  0  0  0  0  0
    4.1627   -0.4670   -0.2834 C   0  0  0  0  0  0  0  0  0  0  0  0
   -0.1605   -0.9478   -0.1043 C   0  0  0  0  0  0  0  0  0  0  0  0
   -1.5424   -0.9811   -0.0379 C   0  0  0  0  0  0  0  0  0  0  0  0
   -2.2176    0.2228   -0.0227 C   0  0  0  0  0  0  0  0  0  0  0  0
  1  9  1  0
  2  7  1  0
  2  8  1  0
  3  4  2  0
  3  8  1  0
  4 12  1  0
  5  6  1  0
  5 12  1  0
  7  9  1  0
  8 10  2  0
 10 11  1  0
 11 12  2  0
M  END
>  <PUBCHEM_COMPOUND_CID>  (1) 
47819

>  <PUBCHEM_CONFORMER_RMSD>  (1) 
0.6

>  <PUBCHEM_CONFORMER_DIVERSEORDER>  (1) 
1
17
9
7
18
11
12
10
15
19
8
16
4
2
6
14
3
5
13

>  <PUBCHEM_MMFF94_PARTIAL_CHARGES>  (1) 
19
1 -0.68
10 -0.15
11 -0.15
12 0.41
15 0.4
18 0.15
19 0.15
2 -0.87
20 0.4
21 0.4
22 0.36
23 0.36
3 -0.31
4 -0.31
5 -0.51
6 -0.71
7 0.37
8 0.41
9 0.28

>  <PUBCHEM_EFFECTIVE_ROTOR_COUNT>  (1) 
4

>  <PUBCHEM_PHARMACOPHORE_FEATURES>  (1) 
8
1 1 acceptor
1 1 donor
1 2 donor
1 5 donor
1 6 donor
3 2 3 8 cation
3 4 5 12 cation
6 3 4 8 10 11 12 rings

>  <PUBCHEM_HEAVY_ATOM_COUNT>  (1) 
12

>  <PUBCHEM_ATOM_DEF_STEREO_COUNT>  (1) 
0

>  <PUBCHEM_ATOM_UDEF_STEREO_COUNT>  (1) 
0

>  <PUBCHEM_BOND_DEF_STEREO_COUNT>  (1) 
0

>  <PUBCHEM_BOND_UDEF_STEREO_COUNT>  (1) 
0

>  <PUBCHEM_ISOTOPIC_ATOM_COUNT>  (1) 
0

>  <PUBCHEM_COMPONENT_COUNT>  (1) 
1

>  <PUBCHEM_CACTVS_TAUTO_COUNT>  (1) 
5

>  <PUBCHEM_CONFORMER_ID>  (1) 
0000BACB00000001

>  <PUBCHEM_MMFF94_ENERGY>  (1) 
36.3528

>  <PUBCHEM_FEATURE_SELFOVERLAP>  (1) 
42.139

>  <PUBCHEM_SHAPE_FINGERPRINT>  (1) 
11062470 55 15985386681129469246
11401426 45 18411414008288705077
12032990 46 18409737265704066495
12932764 1 16414899856449298606
13690532 89 18259987071655786679
14123238 8 18342176686971455230
14252887 29 18201169788208137670
14325111 11 18339643322171252084
20510252 161 18201439121190827680
20528008 55 18201714063859566026
21119208 17 10231755595813425218
21501925 9 18408322207050076724
22485316 2 18410290298367043727
23402539 116 18343293765321368927
43471831 8 18188770531073081858
449060 50 17917709132510697800

>  <PUBCHEM_SHAPE_MULTIPOLES>  (1) 
216.18
7.72
1.23
0.65
3.19
0.17
0.03
-1.29
1.16
-0.45
-0.03
0.26
-0.01
0.3

>  <PUBCHEM_SHAPE_SELFOVERLAP>  (1) 
431.906

>  <PUBCHEM_SHAPE_VOLUME>  (1) 
127.3

>  <PUBCHEM_COORDINATE_TYPE>  (1) 
2
5
10

$$$$
