47810
     RDKit          3D

 22 24  0  0  0  0  0  0  0  0999 V2000
   -1.2827   -0.7017    0.0904 O   0  0  0  0  0  0  0  0  0  0  0  0
    2.6572    0.7291    0.1337 O   0  0  0  0  0  0  0  0  0  0  0  0
   -0.0572    1.2172    0.3055 O   0  0  0  0  0  0  0  0  0  0  0  0
   -4.9234   -0.1743    0.3228 N   0  0  0  0  0  0  0  0  0  0  0  0
    0.9623   -0.8653   -0.0203 N   0  0  0  0  0  0  0  0  0  0  0  0
   -5.0913    0.8149   -0.7510 C   0  0  0  0  0  0  0  0  0  0  0  0
   -6.0562   -1.1096    0.3654 C   0  0  0  0  0  0  0  0  0  0  0  0
   -6.3790    1.6186   -0.5645 C   0  0  0  0  0  0  0  0  0  0  0  0
   -7.3756   -0.3687    0.5888 C   0  0  0  0  0  0  0  0  0  0  0  0
   -7.5953    0.7040   -0.4718 C   0  0  0  0  0  0  0  0  0  0  0  0
   -3.6653   -0.9016    0.1562 C   0  0  0  0  0  0  0  0  0  0  0  0
   -2.4811    0.0482    0.2401 C   0  0  0  0  0  0  0  0  0  0  0  0
    3.4090   -1.3673   -0.1862 C   0  0  0  0  0  0  0  0  0  0  0  0
    4.5341   -0.5043   -0.1110 C   0  0  0  0  0  0  0  0  0  0  0  0
    2.3425   -0.5609   -0.0328 C   0  0  0  0  0  0  0  0  0  0  0  0
   -0.0989    0.0042    0.1410 C   0  0  0  0  0  0  0  0  0  0  0  0
    4.0184    0.7725    0.0863 C   0  0  0  0  0  0  0  0  0  0  0  0
    5.9290   -0.6609   -0.1874 C   0  0  0  0  0  0  0  0  0  0  0  0
    3.4286   -2.8291   -0.3913 C   0  0  0  0  0  0  0  0  0  0  0  0
    4.7997    1.9196    0.2141 C   0  0  0  0  0  0  0  0  0  0  0  0
    6.7411    0.4748   -0.0626 C   0  0  0  0  0  0  0  0  0  0  0  0
    6.1839    1.7408    0.1344 C   0  0  0  0  0  0  0  0  0  0  0  0
  1 12  1  0
  1 16  1  0
  2 15  1  0
  2 17  1  0
  3 16  2  0
  4  6  1  0
  4  7  1  0
  4 11  1  0
  5 15  1  0
  5 16  1  0
  6  8  1  0
  7  9  1  0
  8 10  1  0
  9 10  1  0
 11 12  1  0
 13 14  1  0
 13 15  2  0
 13 19  1  0
 14 17  2  0
 14 18  1  0
 17 20  1  0
 18 21  2  0
 20 22  2  0
 21 22  1  0
M  END
>  <PUBCHEM_COMPOUND_CID>  (1) 
47810

>  <PUBCHEM_CONFORMER_RMSD>  (1) 
0.8

>  <PUBCHEM_CONFORMER_DIVERSEORDER>  (1) 
1
116
43
52
100
92
103
94
34
50
62
66
56
77
93
7
83
67
95
60
80
78
49
72
71
38
90
61
45
113
28
36
106
51
55
19
59
85
41
102
33
22
8
64
110
68
97
89
74
15
35
37
63
12
32
54
104
101
17
109
9
47
58
14
86
39
88
91
20
114
25
26
87
23
48
98
79
69
70
40
107
27
24
16
75
42
10
18
84
6
112
73
11
99
53
13
31
29
81
30
57
3
105
111
96
44
4
46
21
115
108
5
82
65
2
76

>  <PUBCHEM_MMFF94_PARTIAL_CHARGES>  (1) 
23
1 -0.43
11 0.27
12 0.28
13 -0.18
15 0.2
16 0.78
17 0.14
18 -0.15
19 0.18
2 -0.28
20 -0.15
21 -0.15
22 -0.15
3 -0.57
37 0.37
38 0.15
4 -0.81
42 0.15
43 0.15
44 0.15
5 -0.49
6 0.27
7 0.27

>  <PUBCHEM_EFFECTIVE_ROTOR_COUNT>  (1) 
7.2

>  <PUBCHEM_PHARMACOPHORE_FEATURES>  (1) 
7
1 2 acceptor
1 3 acceptor
1 4 cation
1 5 donor
5 2 13 14 15 17 rings
6 14 17 18 20 21 22 rings
6 4 6 7 8 9 10 rings

>  <PUBCHEM_HEAVY_ATOM_COUNT>  (1) 
22

>  <PUBCHEM_ATOM_DEF_STEREO_COUNT>  (1) 
0

>  <PUBCHEM_ATOM_UDEF_STEREO_COUNT>  (1) 
0

>  <PUBCHEM_BOND_DEF_STEREO_COUNT>  (1) 
0

>  <PUBCHEM_BOND_UDEF_STEREO_COUNT>  (1) 
0

>  <PUBCHEM_ISOTOPIC_ATOM_COUNT>  (1) 
0

>  <PUBCHEM_COMPONENT_COUNT>  (1) 
1

>  <PUBCHEM_CACTVS_TAUTO_COUNT>  (1) 
3

>  <PUBCHEM_CONFORMER_ID>  (1) 
0000BAC200000001

>  <PUBCHEM_MMFF94_ENERGY>  (1) 
31.0704

>  <PUBCHEM_FEATURE_SELFOVERLAP>  (1) 
35.632

>  <PUBCHEM_SHAPE_FINGERPRINT>  (1) 
10066227 112 18412823586554011989
10299344 5 17775286071619000791
10319688 140 17416698955597404014
10411042 1 17979920411661794830
10595046 47 18343864398960668027
10638233 991 17131834295911519073
10835480 77 18409445865363909429
11135609 127 18338794645250767524
11315181 36 18343866620313406441
11578080 2 13697022694863665932
11719270 70 18342453725748680738
12091667 2 18261111890222589147
12236239 1 17846782913967185527
125118 31 18186240627853040965
12516196 113 18412545414291198345
12730499 353 18409449176826022518
13073987 5 18410578340886605977
13383665 225 17896058563444721604
13533116 47 17917711253692344178
14123256 10 17989488523804426625
14251764 18 17894630370505991111
14251764 46 18410573993741385744
14461889 52 18260268593951303211
14933364 13 18409167710312431533
15183329 4 18341894065649992049
17093844 174 17603586336236885857
18222031 100 14692568818994725675
18335252 98 18410298034394610179
19427546 62 18336829805466305046
20157964 124 18413672396503360838
20281389 69 18113334194090772805
21150785 3 17775562053232228741
21236236 1 18129946676863202417
21267235 1 18343026558711409390
21315763 28 18409446990339177923
220451 1 17418371394371233079
23035841 295 12175623980006073813
23081809 10 17131836422236730643
23536379 177 18334012774907689915
23559900 14 18271238430352109177
255183 451 17772482188309779070
29717793 49 17561087982033664524
300161 21 18411979173981404083
3004659 81 18334576815508686154
335352 9 18342183259437327150
34797466 226 17847068787064390572
3545911 37 18410012147642129706
4073 2 18041284364863463419
4325135 7 18272089400458842028
4340502 62 17603864512009261730
444735 82 18261114131716275628
4463277 17 18410011039930924993
6025842 7 18272371941220880254
67123 10 18412825803474444463

>  <PUBCHEM_SHAPE_MULTIPOLES>  (1) 
425.18
23.23
1.89
0.7
25.28
0.41
-0.03
-5.54
-0.74
-2.13
-0.16
0.43
-0.02
1.25

>  <PUBCHEM_SHAPE_SELFOVERLAP>  (1) 
900.717

>  <PUBCHEM_SHAPE_VOLUME>  (1) 
240.6

>  <PUBCHEM_COORDINATE_TYPE>  (1) 
2
5
10

$$$$
