47815
     RDKit          3D

 23 22  0  0  0  0  0  0  0  0999 V2000
    2.1722   -3.0621    0.0959 Br  0  0  0  0  0  0  0  0  0  0  0  0
    5.6519   -0.7006    0.8406 Br  0  0  0  0  0  0  0  0  0  0  0  0
    3.5665    2.5021   -0.4967 Cl  0  0  0  0  0  0  0  0  0  0  0  0
   -1.4479   -1.8061    2.9889 Cl  0  0  0  0  0  0  0  0  0  0  0  0
   -2.3309   -3.8447   -1.3415 Cl  0  0  0  0  0  0  0  0  0  0  0  0
    0.3910    3.8425    1.0474 Cl  0  0  0  0  0  0  0  0  0  0  0  0
   -4.2653    2.1771    0.4560 Cl  0  0  0  0  0  0  0  0  0  0  0  0
   -0.9549    0.0317   -0.8405 P   0  0  0  0  0  0  0  0  0  0  0  0
    0.6472    0.1666   -1.0159 O   0  0  0  0  0  0  0  0  0  0  0  0
   -1.1084   -1.3457   -0.0012 O   0  0  0  0  0  0  0  0  0  0  0  0
   -1.3470    1.1955    0.2170 O   0  0  0  0  0  0  0  0  0  0  0  0
   -1.7335    0.0719   -2.1249 O   0  0  0  0  0  0  0  0  0  0  0  0
    2.9322   -0.2238   -0.1947 C   0  0  0  0  0  0  0  0  0  0  0  0
    1.4579    0.1376    0.1539 C   0  0  0  0  0  0  0  0  0  0  0  0
    2.9053   -1.5839   -0.9428 C   0  0  0  0  0  0  0  0  0  0  0  0
    3.7739   -0.2460    1.1048 C   0  0  0  0  0  0  0  0  0  0  0  0
    3.5268    0.8462   -1.1643 C   0  0  0  0  0  0  0  0  0  0  0  0
   -2.4008   -1.7290    0.4364 C   0  0  0  0  0  0  0  0  0  0  0  0
   -1.6104    2.5117   -0.2383 C   0  0  0  0  0  0  0  0  0  0  0  0
   -2.2923   -2.6418    1.6559 C   0  0  0  0  0  0  0  0  0  0  0  0
   -3.1375   -2.3731   -0.7388 C   0  0  0  0  0  0  0  0  0  0  0  0
   -1.3569    3.5155    0.8842 C   0  0  0  0  0  0  0  0  0  0  0  0
   -3.0391    2.5582   -0.7814 C   0  0  0  0  0  0  0  0  0  0  0  0
  1 15  1  0
  2 16  1  0
  3 17  1  0
  4 20  1  0
  5 21  1  0
  6 22  1  0
  7 23  1  0
  8  9  1  0
  8 10  1  0
  8 11  1  0
  8 12  2  0
  9 14  1  0
 10 18  1  0
 11 19  1  0
 13 14  1  0
 13 15  1  0
 13 16  1  0
 13 17  1  0
 18 20  1  0
 18 21  1  0
 19 22  1  0
 19 23  1  0
M  END
>  <PUBCHEM_COMPOUND_CID>  (1) 
47815

>  <PUBCHEM_CONFORMER_RMSD>  (1) 
1.2

>  <PUBCHEM_CONFORMER_DIVERSEORDER>  (1) 
1
15
28
12
14
19
35
26
29
8
7
5
22
25
33
20
21
34
10
24
31
9
13
4
16
30
17
6
18
37
3
27
2
23
11
32
36

>  <PUBCHEM_MMFF94_PARTIAL_CHARGES>  (1) 
22
1 -0.23
10 -0.55
11 -0.55
12 -0.7
14 0.28
15 0.23
16 0.23
17 0.29
18 0.28
19 0.28
2 -0.23
20 0.29
21 0.29
22 0.29
23 0.29
3 -0.29
4 -0.29
5 -0.29
6 -0.29
7 -0.29
8 1.51
9 -0.55

>  <PUBCHEM_EFFECTIVE_ROTOR_COUNT>  (1) 
14

>  <PUBCHEM_PHARMACOPHORE_FEATURES>  (1) 
3
1 1 hydrophobe
1 12 acceptor
1 2 hydrophobe

>  <PUBCHEM_HEAVY_ATOM_COUNT>  (1) 
23

>  <PUBCHEM_ATOM_DEF_STEREO_COUNT>  (1) 
0

>  <PUBCHEM_ATOM_UDEF_STEREO_COUNT>  (1) 
0

>  <PUBCHEM_BOND_DEF_STEREO_COUNT>  (1) 
0

>  <PUBCHEM_BOND_UDEF_STEREO_COUNT>  (1) 
0

>  <PUBCHEM_ISOTOPIC_ATOM_COUNT>  (1) 
0

>  <PUBCHEM_COMPONENT_COUNT>  (1) 
1

>  <PUBCHEM_CACTVS_TAUTO_COUNT>  (1) 
1

>  <PUBCHEM_CONFORMER_ID>  (1) 
0000BAC700000001

>  <PUBCHEM_MMFF94_ENERGY>  (1) 
40.6847

>  <PUBCHEM_FEATURE_SELFOVERLAP>  (1) 
15.223

>  <PUBCHEM_SHAPE_FINGERPRINT>  (1) 
1100329 8 18411415090083166496
11578080 2 17345738815538395753
12553582 1 18195537114608820302
12596599 1 17557725816994211510
12633257 1 17968928687874331190
12788726 201 18335426793683669867
13004483 165 18268144443323377367
13140716 1 18342168990786252008
14178342 30 18337664210153306994
14787075 74 18410012113979184997
14844126 61 18411125936000063706
19930381 70 17691955377655076227
20197701 30 18044934563595536797
21524375 3 17902799557037425085
23419403 2 16886113452976500553
23526113 38 17608636542581217827
23557571 272 18060409214714563668
23558518 356 18041005084751729280
23598288 3 18409174332761735422
312423 11 18040722506437792342
352729 6 18196097633852864535
59755656 520 18116985590111394270
81228 2 18187085061594055695
9709674 26 18341891840614437126
9981440 41 18128520588532450490

>  <PUBCHEM_SHAPE_MULTIPOLES>  (1) 
474.93
8.22
5.26
1.82
8.11
0.97
0.9
0.11
0.52
-4.2
0.48
-0.86
-1.06
-0.36

>  <PUBCHEM_SHAPE_SELFOVERLAP>  (1) 
821.478

>  <PUBCHEM_SHAPE_VOLUME>  (1) 
323.8

>  <PUBCHEM_COORDINATE_TYPE>  (1) 
2
5
10

$$$$
