47821
     RDKit          3D

 27 30  0  0  0  0  0  0  0  0999 V2000
    8.7687   -0.3775    1.0890 O   0  0  0  0  0  0  0  0  0  0  0  0
    7.2174   -1.8229    0.2822 O   0  0  0  0  0  0  0  0  0  0  0  0
   -1.1239    0.3415   -1.3525 N   0  0  0  0  0  0  0  0  0  0  0  0
   -4.5047   -0.6823    0.9037 N   0  0  0  0  0  0  0  0  0  0  0  0
   -2.2704   -0.0057   -0.5875 C   0  0  0  0  0  0  0  0  0  0  0  0
    4.2679    1.4337    0.1065 C   0  0  0  0  0  0  0  0  0  0  0  0
   -2.5566   -1.3520   -0.3392 C   0  0  0  0  0  0  0  0  0  0  0  0
   -3.1025    1.0019   -0.0892 C   0  0  0  0  0  0  0  0  0  0  0  0
    2.8549    1.1482   -0.2757 C   0  0  0  0  0  0  0  0  0  0  0  0
    5.1981    0.2044    0.1294 C   0  0  0  0  0  0  0  0  0  0  0  0
    0.2033    0.6105   -0.9933 C   0  0  0  0  0  0  0  0  0  0  0  0
   -3.6999   -1.6490    0.4215 C   0  0  0  0  0  0  0  0  0  0  0  0
   -4.2245    0.6128    0.6619 C   0  0  0  0  0  0  0  0  0  0  0  0
    2.4706    1.2011   -1.6155 C   0  0  0  0  0  0  0  0  0  0  0  0
    1.9179    0.8274    0.7065 C   0  0  0  0  0  0  0  0  0  0  0  0
    1.1492    0.9332   -1.9731 C   0  0  0  0  0  0  0  0  0  0  0  0
    0.5965    0.5595    0.3490 C   0  0  0  0  0  0  0  0  0  0  0  0
    6.6349    0.5253    0.5523 C   0  0  0  0  0  0  0  0  0  0  0  0
   -1.7377   -2.3852   -0.8275 C   0  0  0  0  0  0  0  0  0  0  0  0
   -2.8388    2.3628   -0.3231 C   0  0  0  0  0  0  0  0  0  0  0  0
   -3.9902   -2.9875    0.6720 C   0  0  0  0  0  0  0  0  0  0  0  0
   -5.0567    1.6115    1.1606 C   0  0  0  0  0  0  0  0  0  0  0  0
   -2.0499   -3.7153   -0.5630 C   0  0  0  0  0  0  0  0  0  0  0  0
   -3.6865    3.3417    0.1866 C   0  0  0  0  0  0  0  0  0  0  0  0
   -3.1786   -4.0167    0.1884 C   0  0  0  0  0  0  0  0  0  0  0  0
   -4.7977    2.9649    0.9300 C   0  0  0  0  0  0  0  0  0  0  0  0
    7.5396   -0.6863    0.6001 C   0  0  0  0  0  0  0  0  0  0  0  0
  1 27  1  0
  2 27  2  0
  3  5  1  0
  3 11  1  0
  4 12  2  0
  4 13  1  0
  5  7  2  0
  5  8  1  0
  6  9  1  0
  6 10  1  0
  7 12  1  0
  7 19  1  0
  8 13  2  0
  8 20  1  0
  9 14  2  0
  9 15  1  0
 10 18  1  0
 11 16  2  0
 11 17  1  0
 12 21  1  0
 13 22  1  0
 14 16  1  0
 15 17  2  0
 18 27  1  0
 19 23  2  0
 20 24  2  0
 21 25  2  0
 22 26  2  0
 23 25  1  0
 24 26  1  0
M  END
>  <PUBCHEM_COMPOUND_CID>  (1) 
47821

>  <PUBCHEM_CONFORMER_RMSD>  (1) 
0.8

>  <PUBCHEM_CONFORMER_DIVERSEORDER>  (1) 
2
40
31
16
29
38
35
24
10
18
33
23
27
22
37
39
19
11
26
30
20
15
21
34
9
25
32
36
12
28
17
1
13
8
3
14
4
6
5
7

>  <PUBCHEM_MMFF94_PARTIAL_CHARGES>  (1) 
38
1 -0.65
11 0.1
12 0.31
13 0.31
14 -0.15
15 -0.15
16 -0.15
17 -0.15
18 0.06
19 -0.15
2 -0.57
20 -0.15
21 -0.15
22 -0.15
23 -0.15
24 -0.15
25 -0.15
26 -0.15
27 0.66
3 -0.6
32 0.4
33 0.15
34 0.15
35 0.15
36 0.15
39 0.15
4 -0.62
40 0.15
41 0.15
42 0.15
43 0.15
44 0.15
45 0.15
46 0.15
47 0.5
5 0.1
6 0.14
9 -0.14

>  <PUBCHEM_EFFECTIVE_ROTOR_COUNT>  (1) 
6

>  <PUBCHEM_PHARMACOPHORE_FEATURES>  (1) 
10
1 1 acceptor
1 2 acceptor
1 3 cation
1 3 donor
1 4 acceptor
3 1 2 27 anion
6 4 5 7 8 12 13 rings
6 7 12 19 21 23 25 rings
6 8 13 20 22 24 26 rings
6 9 11 14 15 16 17 rings

>  <PUBCHEM_HEAVY_ATOM_COUNT>  (1) 
27

>  <PUBCHEM_ATOM_DEF_STEREO_COUNT>  (1) 
0

>  <PUBCHEM_ATOM_UDEF_STEREO_COUNT>  (1) 
0

>  <PUBCHEM_BOND_DEF_STEREO_COUNT>  (1) 
0

>  <PUBCHEM_BOND_UDEF_STEREO_COUNT>  (1) 
0

>  <PUBCHEM_ISOTOPIC_ATOM_COUNT>  (1) 
0

>  <PUBCHEM_COMPONENT_COUNT>  (1) 
1

>  <PUBCHEM_CACTVS_TAUTO_COUNT>  (1) 
2

>  <PUBCHEM_CONFORMER_ID>  (1) 
0000BACD00000002

>  <PUBCHEM_MMFF94_ENERGY>  (1) 
96.3697

>  <PUBCHEM_FEATURE_SELFOVERLAP>  (1) 
50.866

>  <PUBCHEM_SHAPE_FINGERPRINT>  (1) 
10319926 262 18343308080563423972
11036077 4 18408604773080362335
11049842 53 18121814705331280399
11103572 155 18337670812030237570
11387372 6 17676215679635699619
11524674 6 17775564238943672270
12107183 9 18336549330905822560
12422481 6 18412265030505563838
12788726 201 17975155428291329263
13009979 54 18042973266494806495
13140716 1 18122641457409822611
13583140 156 17774717653734342148
14178342 30 18337962280482567407
14420673 8 18410576150522356902
14844126 61 18338239383573084163
14856354 85 18409732885021859582
15021287 119 17603590729334789388
15042514 8 18265904734306574511
15183329 4 16950275227147084706
15230672 131 18265896853042145046
15320294 125 18186804647194750845
15326921 28 18120358870322312560
15348495 7 18272927263470347200
15439362 3 17977944584438256045
15537594 2 17603578596225933258
16110190 28 18190453870933481746
17780758 139 18410007758412387124
19301679 30 18194131921780163055
21033648 29 16988297420591800069
21315763 191 18335139804617758796
21756936 100 18272365335355274981
21814621 53 18060129947862565154
23516275 137 18045239150108461682
23522609 53 17896344496698030268
23559900 14 18266729375799917033
23569943 247 17313929820178334410
312425 54 18411129248041815000
3504750 166 18409724097403175350
3663271 9 18338516447877013320
3711267 37 13972819807183853978
397830 11 18129652141117395440
4073 2 18412823599844965978
4144715 1 18342178903681534824
4169191 19 14188996961125341138
484985 159 18262789774562361407
5104073 3 18058457675790157776
5265222 85 18127986411060525404
5364581 5 18057313101740721280
563151 248 18260276226091902546
57527293 21 17557430082862695287
58260988 114 16878238557831172507
6009941 240 18201154374192712424
6691757 9 18413389817846623329
68570916 9 18335138748362323980
7226269 152 17703225122774161528
7970288 3 17687746451191997570
9896288 288 18335430041290817571
9981440 41 17489873696097254077

>  <PUBCHEM_SHAPE_MULTIPOLES>  (1) 
533.95
17.19
4.05
1.25
46.66
2.97
0.4
1.46
-8.34
-7.99
-0.27
0.25
-0.28
-1.19

>  <PUBCHEM_SHAPE_SELFOVERLAP>  (1) 
1178.326

>  <PUBCHEM_SHAPE_VOLUME>  (1) 
285.1

>  <PUBCHEM_COORDINATE_TYPE>  (1) 
2
5
10

$$$$
