47824
     RDKit          3D

 30 33  0  0  0  0  0  0  0  0999 V2000
  -10.9622    1.7613   -0.5800 O   0  0  0  0  0  0  0  0  0  0  0  0
  -10.5705   -0.4652   -0.7808 O   0  0  0  0  0  0  0  0  0  0  0  0
    2.4989   -0.3955    1.3453 N   0  0  0  0  0  0  0  0  0  0  0  0
    5.6741    0.9538   -1.0351 N   0  0  0  0  0  0  0  0  0  0  0  0
   -5.3150   -0.9992   -0.0841 C   0  0  0  0  0  0  0  0  0  0  0  0
   -3.8743   -0.6043    0.2568 C   0  0  0  0  0  0  0  0  0  0  0  0
   -6.2892    0.1835   -0.0765 C   0  0  0  0  0  0  0  0  0  0  0  0
   -2.8926   -1.7787    0.1566 C   0  0  0  0  0  0  0  0  0  0  0  0
   -7.7643   -0.1532   -0.3298 C   0  0  0  0  0  0  0  0  0  0  0  0
   -1.4642   -1.4122    0.4715 C   0  0  0  0  0  0  0  0  0  0  0  0
   -8.7257    1.0333   -0.2508 C   0  0  0  0  0  0  0  0  0  0  0  0
    3.5658    0.0578    0.5456 C   0  0  0  0  0  0  0  0  0  0  0  0
    1.1629   -0.7387    1.0506 C   0  0  0  0  0  0  0  0  0  0  0  0
   -1.0096   -1.5053    1.7783 C   0  0  0  0  0  0  0  0  0  0  0  0
   -0.6289   -0.9886   -0.5508 C   0  0  0  0  0  0  0  0  0  0  0  0
    4.4396   -0.8641   -0.0553 C   0  0  0  0  0  0  0  0  0  0  0  0
    3.7620    1.4344    0.3441 C   0  0  0  0  0  0  0  0  0  0  0  0
    0.3119   -1.1665    2.0695 C   0  0  0  0  0  0  0  0  0  0  0  0
    0.6925   -0.6498   -0.2596 C   0  0  0  0  0  0  0  0  0  0  0  0
    5.4900   -0.3670   -0.8450 C   0  0  0  0  0  0  0  0  0  0  0  0
    4.8391    1.8416   -0.4613 C   0  0  0  0  0  0  0  0  0  0  0  0
    4.2757   -2.2488    0.1226 C   0  0  0  0  0  0  0  0  0  0  0  0
    2.9092    2.3872    0.9282 C   0  0  0  0  0  0  0  0  0  0  0  0
  -10.1605    0.6646   -0.5541 C   0  0  0  0  0  0  0  0  0  0  0  0
    6.3535   -1.2840   -1.4384 C   0  0  0  0  0  0  0  0  0  0  0  0
    5.0299    3.2067   -0.6582 C   0  0  0  0  0  0  0  0  0  0  0  0
    5.1526   -3.1446   -0.4817 C   0  0  0  0  0  0  0  0  0  0  0  0
    3.1216    3.7461    0.7156 C   0  0  0  0  0  0  0  0  0  0  0  0
    6.1936   -2.6609   -1.2637 C   0  0  0  0  0  0  0  0  0  0  0  0
    4.1842    4.1563   -0.0793 C   0  0  0  0  0  0  0  0  0  0  0  0
  1 24  1  0
  2 24  2  0
  3 12  1  0
  3 13  1  0
  4 20  2  0
  4 21  1  0
  5  6  1  0
  5  7  1  0
  6  8  1  0
  7  9  1  0
  8 10  1  0
  9 11  1  0
 10 14  2  0
 10 15  1  0
 11 24  1  0
 12 16  2  0
 12 17  1  0
 13 18  2  0
 13 19  1  0
 14 18  1  0
 15 19  2  0
 16 20  1  0
 16 22  1  0
 17 21  2  0
 17 23  1  0
 20 25  1  0
 21 26  1  0
 22 27  2  0
 23 28  2  0
 25 29  2  0
 26 30  2  0
 27 29  1  0
 28 30  1  0
M  END
>  <PUBCHEM_COMPOUND_CID>  (1) 
47824

>  <PUBCHEM_CONFORMER_RMSD>  (1) 
1

>  <PUBCHEM_CONFORMER_DIVERSEORDER>  (1) 
1
71
113
43
4
32
60
46
74
16
90
89
101
121
40
5
44
56
127
66
103
108
105
61
98
69
8
26
63
77
42
131
95
79
125
70
73
38
102
41
124
132
91
36
64
75
58
128
14
7
55
50
93
72
118
6
134
94
83
114
84
107
112
67
97
88
133
21
96
117
81
85
130
28
78
65
119
48
106
51
120
20
80
30
47
123
54
100
110
99
2
62
37
76
19
59
39
29
92
68
122
53
24
86
109
3
45
52
25
34
87
129
111
9
115
104
13
17
15
126
116
31
22
33
27
11
23
49
12
35
18
82
57
10

>  <PUBCHEM_MMFF94_PARTIAL_CHARGES>  (1) 
38
1 -0.65
10 -0.14
11 0.06
12 0.1
13 0.1
14 -0.15
15 -0.15
18 -0.15
19 -0.15
2 -0.57
20 0.31
21 0.31
22 -0.15
23 -0.15
24 0.66
25 -0.15
26 -0.15
27 -0.15
28 -0.15
29 -0.15
3 -0.6
30 -0.15
4 -0.62
43 0.15
44 0.15
45 0.4
46 0.15
47 0.15
48 0.15
49 0.15
50 0.15
51 0.15
52 0.15
53 0.15
54 0.15
55 0.15
56 0.5
8 0.14

>  <PUBCHEM_EFFECTIVE_ROTOR_COUNT>  (1) 
9

>  <PUBCHEM_PHARMACOPHORE_FEATURES>  (1) 
12
1 1 acceptor
1 2 acceptor
1 3 cation
1 3 donor
1 4 acceptor
3 1 2 24 anion
3 5 6 8 hydrophobe
3 7 9 11 hydrophobe
6 10 13 14 15 18 19 rings
6 16 20 22 25 27 29 rings
6 17 21 23 26 28 30 rings
6 4 12 16 17 20 21 rings

>  <PUBCHEM_HEAVY_ATOM_COUNT>  (1) 
30

>  <PUBCHEM_ATOM_DEF_STEREO_COUNT>  (1) 
0

>  <PUBCHEM_ATOM_UDEF_STEREO_COUNT>  (1) 
0

>  <PUBCHEM_BOND_DEF_STEREO_COUNT>  (1) 
0

>  <PUBCHEM_BOND_UDEF_STEREO_COUNT>  (1) 
0

>  <PUBCHEM_ISOTOPIC_ATOM_COUNT>  (1) 
0

>  <PUBCHEM_COMPONENT_COUNT>  (1) 
1

>  <PUBCHEM_CACTVS_TAUTO_COUNT>  (1) 
2

>  <PUBCHEM_CONFORMER_ID>  (1) 
0000BAD000000001

>  <PUBCHEM_MMFF94_ENERGY>  (1) 
96.896

>  <PUBCHEM_FEATURE_SELFOVERLAP>  (1) 
61.014

>  <PUBCHEM_SHAPE_FINGERPRINT>  (1) 
10 15 14418136206440329179
10816530 90 18335695053125418265
11135609 127 18200025270034778984
11181472 205 18266741278282766659
11386260 185 18413392042123068828
11607047 191 17201053033464695768
12144600 37 18337958995497983827
12522641 24 17822565015299240579
12664476 115 18040150712608781549
13726171 33 14852754559759865582
14040221 8 17845943931499238921
14117953 113 18059867130050370990
14294032 229 16054385378169090947
14537116 161 18408042905147677941
150020 25 18259706705909279785
15183329 4 18202289082581808387
15419008 91 11959454423503284435
15530121 191 18113892742510507149
15840311 113 18334294280202600437
16120349 18 18411417298439863071
1754911 235 18335697231760091935
18335252 114 18342175562032908649
2026 5 11743575275682356861
20587220 17 18201435930584690420
21033648 29 17458908265771830584
21133410 58 18341615884793093182
21792965 169 18058748964851509281
221357 26 18409452466781202428
23559900 14 18343302604559788754
24204213 200 13190333536039769457
249057 25 17704082776345509539
3633792 109 18343305872744791314
4144715 1 18117288158237459547
4340502 62 8286198340776195946
44317340 157 18341896350235054579
44555599 121 18272942596392798265
4625314 4 18411980265942353591
54076057 255 16371018411909456478
5758199 1 17095241411506087979
58902169 19 18060413621134875271
59521099 67 18201998820651000416
59682541 52 18343586235119230642
6438161 24 11600001060322096041
9658208 31 17313672654136783290
9689198 14 18260268560519693179

>  <PUBCHEM_SHAPE_MULTIPOLES>  (1) 
595.69
28.77
3.86
1.28
110.94
3.68
-0.4
7.47
13.58
-9.35
0.16
-0.9
-0.41
1.76

>  <PUBCHEM_SHAPE_SELFOVERLAP>  (1) 
1291.503

>  <PUBCHEM_SHAPE_VOLUME>  (1) 
323.9

>  <PUBCHEM_COORDINATE_TYPE>  (1) 
2
5
10

$$$$
