47828
     RDKit          3D

 32 35  0  0  0  0  0  0  0  0999 V2000
    2.8384    3.1897   -2.2936 O   0  0  0  0  0  0  0  0  0  0  0  0
    2.5123    1.4766   -0.8363 O   0  0  0  0  0  0  0  0  0  0  0  0
   -1.3320   -0.4009   -1.0444 N   0  0  0  0  0  0  0  0  0  0  0  0
   -4.8146    1.0516    0.7505 N   0  0  0  0  0  0  0  0  0  0  0  0
    5.9283   -0.9931    1.1169 C   0  0  0  0  0  0  0  0  0  0  0  0
    4.7666   -1.7706    0.4937 C   0  0  0  0  0  0  0  0  0  0  0  0
    6.6431   -0.0697    0.1259 C   0  0  0  0  0  0  0  0  0  0  0  0
    4.1466   -2.7420    1.5040 C   0  0  0  0  0  0  0  0  0  0  0  0
    5.7583    0.9650   -0.5774 C   0  0  0  0  0  0  0  0  0  0  0  0
    2.9959   -3.5656    0.9145 C   0  0  0  0  0  0  0  0  0  0  0  0
    5.0916    2.0022    0.3339 C   0  0  0  0  0  0  0  0  0  0  0  0
    1.8526   -2.7293    0.3969 C   0  0  0  0  0  0  0  0  0  0  0  0
    4.2761    3.0664   -0.3947 C   0  0  0  0  0  0  0  0  0  0  0  0
    1.8486   -2.2978   -0.9295 C   0  0  0  0  0  0  0  0  0  0  0  0
    0.7989   -2.3874    1.2447 C   0  0  0  0  0  0  0  0  0  0  0  0
   -0.2626   -1.1826   -0.5604 C   0  0  0  0  0  0  0  0  0  0  0  0
   -2.5058    0.0886   -0.4395 C   0  0  0  0  0  0  0  0  0  0  0  0
    0.7910   -1.5245   -1.4082 C   0  0  0  0  0  0  0  0  0  0  0  0
   -0.2586   -1.6141    0.7661 C   0  0  0  0  0  0  0  0  0  0  0  0
   -3.6735   -0.6807   -0.4684 C   0  0  0  0  0  0  0  0  0  0  0  0
   -2.4938    1.3399    0.1851 C   0  0  0  0  0  0  0  0  0  0  0  0
   -4.8208   -0.1529    0.1475 C   0  0  0  0  0  0  0  0  0  0  0  0
   -3.6873    1.7886    0.7757 C   0  0  0  0  0  0  0  0  0  0  0  0
    3.1265    2.4799   -1.1746 C   0  0  0  0  0  0  0  0  0  0  0  0
   -3.7142   -1.9415   -1.0889 C   0  0  0  0  0  0  0  0  0  0  0  0
   -1.3347    2.1341    0.2295 C   0  0  0  0  0  0  0  0  0  0  0  0
   -5.9864   -0.9141    0.1220 C   0  0  0  0  0  0  0  0  0  0  0  0
   -3.6816    3.0335    1.3991 C   0  0  0  0  0  0  0  0  0  0  0  0
   -4.8920   -2.6825   -1.1005 C   0  0  0  0  0  0  0  0  0  0  0  0
   -1.3554    3.3750    0.8590 C   0  0  0  0  0  0  0  0  0  0  0  0
   -6.0304   -2.1674   -0.4937 C   0  0  0  0  0  0  0  0  0  0  0  0
   -2.5315    3.8254    1.4449 C   0  0  0  0  0  0  0  0  0  0  0  0
  1 24  1  0
  2 24  2  0
  3 16  1  0
  3 17  1  0
  4 22  2  0
  4 23  1  0
  5  6  1  0
  5  7  1  0
  6  8  1  0
  7  9  1  0
  8 10  1  0
  9 11  1  0
 10 12  1  0
 11 13  1  0
 12 14  2  0
 12 15  1  0
 13 24  1  0
 14 18  1  0
 15 19  2  0
 16 18  2  0
 16 19  1  0
 17 20  2  0
 17 21  1  0
 20 22  1  0
 20 25  1  0
 21 23  2  0
 21 26  1  0
 22 27  1  0
 23 28  1  0
 25 29  2  0
 26 30  2  0
 27 31  2  0
 28 32  2  0
 29 31  1  0
 30 32  1  0
M  END
>  <PUBCHEM_COMPOUND_CID>  (1) 
47828

>  <PUBCHEM_CONFORMER_RMSD>  (1) 
1.2

>  <PUBCHEM_CONFORMER_DIVERSEORDER>  (1) 
1
42
78
61
85
69
63
36
86
46
16
65
11
5
48
12
82
80
4
55
29
87
38
41
34
32
43
27
25
56
19
72
18
68
67
35
50
7
53
57
84
47
71
89
79
24
54
10
66
52
33
17
70
74
59
88
83
73
60
77
14
37
6
23
51
40
76
22
20
8
44
58
9
81
49
28
30
64
2
31
21
45
3
13
62
39
15
75
26

>  <PUBCHEM_MMFF94_PARTIAL_CHARGES>  (1) 
38
1 -0.65
10 0.14
12 -0.14
13 0.06
14 -0.15
15 -0.15
16 0.1
17 0.1
18 -0.15
19 -0.15
2 -0.57
22 0.31
23 0.31
24 0.66
25 -0.15
26 -0.15
27 -0.15
28 -0.15
29 -0.15
3 -0.6
30 -0.15
31 -0.15
32 -0.15
4 -0.62
49 0.15
50 0.15
51 0.15
52 0.15
53 0.4
54 0.15
55 0.15
56 0.15
57 0.15
58 0.15
59 0.15
60 0.15
61 0.15
62 0.5

>  <PUBCHEM_EFFECTIVE_ROTOR_COUNT>  (1) 
11

>  <PUBCHEM_PHARMACOPHORE_FEATURES>  (1) 
10
1 1 acceptor
1 2 acceptor
1 3 cation
1 3 donor
1 4 acceptor
3 1 2 24 anion
6 12 14 15 16 18 19 rings
6 20 22 25 27 29 31 rings
6 21 23 26 28 30 32 rings
6 4 17 20 21 22 23 rings

>  <PUBCHEM_HEAVY_ATOM_COUNT>  (1) 
32

>  <PUBCHEM_ATOM_DEF_STEREO_COUNT>  (1) 
0

>  <PUBCHEM_ATOM_UDEF_STEREO_COUNT>  (1) 
0

>  <PUBCHEM_BOND_DEF_STEREO_COUNT>  (1) 
0

>  <PUBCHEM_BOND_UDEF_STEREO_COUNT>  (1) 
0

>  <PUBCHEM_ISOTOPIC_ATOM_COUNT>  (1) 
0

>  <PUBCHEM_COMPONENT_COUNT>  (1) 
1

>  <PUBCHEM_CACTVS_TAUTO_COUNT>  (1) 
2

>  <PUBCHEM_CONFORMER_ID>  (1) 
0000BAD400000001

>  <PUBCHEM_MMFF94_ENERGY>  (1) 
96.48

>  <PUBCHEM_FEATURE_SELFOVERLAP>  (1) 
50.865

>  <PUBCHEM_SHAPE_FINGERPRINT>  (1) 
11101153 10 18411978065958748819
11227688 84 17836073847640659679
11578080 2 17896301568425534109
13560911 23 18115298957040286010
14394314 77 18413110558841858112
14400156 188 17907583885104174443
14747282 125 17417516034396186962
14784336 7 18124307461395014533
14849402 71 18334297570289681222
14856354 85 18201712994392663303
15001296 14 18262231261425954512
15685185 35 17899702546995627436
15927050 60 16975611539309753813
15968369 153 18129371778088691386
17844677 252 18198625432534383170
19377110 9 18410014316743552355
21792938 131 18268705186090441731
21796203 349 18052555536872110691
245318 6 17896333574405655732
3493558 16 18335987536287853154
373842 8 18261678193764812130
392239 28 18335999639526805603
42767 46 18335417998334537288
50080093 196 18189336758339128082
6371009 1 18335982051699012004
67856867 119 18408602569656748543

>  <PUBCHEM_SHAPE_MULTIPOLES>  (1) 
636.84
15.12
5.17
1.45
5.88
2.42
-0.18
-1.81
0.77
0.8
0.87
0.55
0.29
-4.5

>  <PUBCHEM_SHAPE_SELFOVERLAP>  (1) 
1371.014

>  <PUBCHEM_SHAPE_VOLUME>  (1) 
349.2

>  <PUBCHEM_COORDINATE_TYPE>  (1) 
2
5
10

$$$$
