47826
     RDKit          3D

 31 34  0  0  0  0  0  0  0  0999 V2000
  -11.9494    0.6786    0.8022 O   0  0  0  0  0  0  0  0  0  0  0  0
  -10.4472    2.2333    0.1087 O   0  0  0  0  0  0  0  0  0  0  0  0
    2.9274   -0.4185   -1.3254 N   0  0  0  0  0  0  0  0  0  0  0  0
    5.9991    1.1732    1.0181 N   0  0  0  0  0  0  0  0  0  0  0  0
   -4.8045   -1.4171    0.1193 C   0  0  0  0  0  0  0  0  0  0  0  0
   -5.8560   -0.3121   -0.0172 C   0  0  0  0  0  0  0  0  0  0  0  0
   -3.3909   -0.9614   -0.2491 C   0  0  0  0  0  0  0  0  0  0  0  0
   -7.2743   -0.7744    0.3261 C   0  0  0  0  0  0  0  0  0  0  0  0
   -2.3861   -2.1076   -0.1058 C   0  0  0  0  0  0  0  0  0  0  0  0
   -8.2827    0.3679    0.1588 C   0  0  0  0  0  0  0  0  0  0  0  0
   -0.9828   -1.6614   -0.4279 C   0  0  0  0  0  0  0  0  0  0  0  0
   -9.7058   -0.0490    0.5310 C   0  0  0  0  0  0  0  0  0  0  0  0
   -0.1615   -1.1594    0.5816 C   0  0  0  0  0  0  0  0  0  0  0  0
   -0.5054   -1.7505   -1.7356 C   0  0  0  0  0  0  0  0  0  0  0  0
    3.9628    0.1181   -0.5355 C   0  0  0  0  0  0  0  0  0  0  0  0
    1.6144   -0.8357   -1.0240 C   0  0  0  0  0  0  0  0  0  0  0  0
    4.0635    1.5035   -0.3724 C   0  0  0  0  0  0  0  0  0  0  0  0
    4.8812   -0.7392    0.0790 C   0  0  0  0  0  0  0  0  0  0  0  0
    1.1371   -0.7466    0.2836 C   0  0  0  0  0  0  0  0  0  0  0  0
    0.7931   -1.3376   -2.0337 C   0  0  0  0  0  0  0  0  0  0  0  0
    5.1119    1.9945    0.4240 C   0  0  0  0  0  0  0  0  0  0  0  0
    5.8974   -0.1604    0.8578 C   0  0  0  0  0  0  0  0  0  0  0  0
  -10.7036    1.0845    0.4409 C   0  0  0  0  0  0  0  0  0  0  0  0
    3.1545    2.3883   -0.9781 C   0  0  0  0  0  0  0  0  0  0  0  0
    4.8036   -2.1351   -0.0677 C   0  0  0  0  0  0  0  0  0  0  0  0
    5.2176    3.3729    0.5902 C   0  0  0  0  0  0  0  0  0  0  0  0
    6.8148   -1.0087    1.4722 C   0  0  0  0  0  0  0  0  0  0  0  0
    3.2821    3.7622   -0.7962 C   0  0  0  0  0  0  0  0  0  0  0  0
    5.7331   -2.9612    0.5571 C   0  0  0  0  0  0  0  0  0  0  0  0
    4.3159    4.2550   -0.0103 C   0  0  0  0  0  0  0  0  0  0  0  0
    6.7407   -2.3964    1.3285 C   0  0  0  0  0  0  0  0  0  0  0  0
  1 23  1  0
  2 23  2  0
  3 15  1  0
  3 16  1  0
  4 21  2  0
  4 22  1  0
  5  6  1  0
  5  7  1  0
  6  8  1  0
  7  9  1  0
  8 10  1  0
  9 11  1  0
 10 12  1  0
 11 13  2  0
 11 14  1  0
 12 23  1  0
 13 19  1  0
 14 20  2  0
 15 17  2  0
 15 18  1  0
 16 19  2  0
 16 20  1  0
 17 21  1  0
 17 24  1  0
 18 22  2  0
 18 25  1  0
 21 26  1  0
 22 27  1  0
 24 28  2  0
 25 29  2  0
 26 30  2  0
 27 31  2  0
 28 30  1  0
 29 31  1  0
M  END
>  <PUBCHEM_COMPOUND_CID>  (1) 
47826

>  <PUBCHEM_CONFORMER_RMSD>  (1) 
1

>  <PUBCHEM_CONFORMER_DIVERSEORDER>  (1) 
1
74
25
36
19
151
131
37
158
170
128
70
71
61
92
41
80
79
6
30
3
100
117
76
82
127
8
97
38
171
141
16
5
22
73
111
103
168
167
59
29
135
90
7
81
84
145
39
15
23
13
129
52
166
146
118
124
57
77
53
48
104
153
58
34
86
165
136
33
130
87
78
35
85
164
98
144
169
142
28
75
138
134
56
96
139
64
113
155
120
65
26
106
94
102
110
46
68
91
156
10
122
55
14
133
150
47
44
45
154
42
50
162
143
140
54
152
93
159
125
66
88
62
126
123
116
114
99
20
11
161
95
105
108
31
163
107
12
24
149
21
112
101
72
137
147
121
2
60
32
115
109
157
148
132
51
63
40
67
119
27
83
160
18
17
43
69
4
89
49
9

>  <PUBCHEM_MMFF94_PARTIAL_CHARGES>  (1) 
38
1 -0.65
11 -0.14
12 0.06
13 -0.15
14 -0.15
15 0.1
16 0.1
19 -0.15
2 -0.57
20 -0.15
21 0.31
22 0.31
23 0.66
24 -0.15
25 -0.15
26 -0.15
27 -0.15
28 -0.15
29 -0.15
3 -0.6
30 -0.15
31 -0.15
4 -0.62
46 0.15
47 0.15
48 0.4
49 0.15
50 0.15
51 0.15
52 0.15
53 0.15
54 0.15
55 0.15
56 0.15
57 0.15
58 0.15
59 0.5
9 0.14

>  <PUBCHEM_EFFECTIVE_ROTOR_COUNT>  (1) 
10

>  <PUBCHEM_PHARMACOPHORE_FEATURES>  (1) 
10
1 1 acceptor
1 2 acceptor
1 3 cation
1 3 donor
1 4 acceptor
3 1 2 23 anion
6 11 13 14 16 19 20 rings
6 17 21 24 26 28 30 rings
6 18 22 25 27 29 31 rings
6 4 15 17 18 21 22 rings

>  <PUBCHEM_HEAVY_ATOM_COUNT>  (1) 
31

>  <PUBCHEM_ATOM_DEF_STEREO_COUNT>  (1) 
0

>  <PUBCHEM_ATOM_UDEF_STEREO_COUNT>  (1) 
0

>  <PUBCHEM_BOND_DEF_STEREO_COUNT>  (1) 
0

>  <PUBCHEM_BOND_UDEF_STEREO_COUNT>  (1) 
0

>  <PUBCHEM_ISOTOPIC_ATOM_COUNT>  (1) 
0

>  <PUBCHEM_COMPONENT_COUNT>  (1) 
1

>  <PUBCHEM_CACTVS_TAUTO_COUNT>  (1) 
2

>  <PUBCHEM_CONFORMER_ID>  (1) 
0000BAD200000001

>  <PUBCHEM_MMFF94_ENERGY>  (1) 
95.3862

>  <PUBCHEM_FEATURE_SELFOVERLAP>  (1) 
50.865

>  <PUBCHEM_SHAPE_FINGERPRINT>  (1) 
10190108 129 17240479183114364679
10533779 47 17822017459157421971
10625338 131 18338513037794507601
11135609 127 18272647995510623393
12522641 24 18186799166800988650
13165053 371 18264487287424194207
13553643 46 18411700960051273697
13740195 50 18334300903849558827
13785724 45 18341615851086845630
14040221 304 13830125096638596777
14347424 109 18408318913137253818
14400156 96 17969220221153000588
14747281 78 17968387848797821588
15554971 5 18131631210655529055
1577012 14 18271242837088736071
15840311 113 18335422378863517079
16758388 162 18261386707314345155
1818759 1 8214137466142642513
19302320 297 18411702106052765061
20578428 11 12829503575252333318
20721686 146 17130418198851805280
20812841 46 18260266330698554155
21057603 11 16169442416086664424
21360442 67 10735872880913794220
21360443 126 12391504304558726909
21792934 111 18186801366704822181
21814621 53 17895199956168373291
3711267 37 18059586759402377809
397638 26 17458347455730565619
397830 11 17969789772571778387
5104073 3 18189334748163174754
57676310 18 18059866022117925569
57676310 78 17560538201151671814
60111433 81 17201346615131962960
636783 89 18042958792994070922
68570916 9 18268145538688023407

>  <PUBCHEM_SHAPE_MULTIPOLES>  (1) 
616.26
32.51
3.97
1.26
130.15
4.25
0.35
11.98
-14.08
-8.61
0.06
-1.27
-0.42
-1.74

>  <PUBCHEM_SHAPE_SELFOVERLAP>  (1) 
1330.284

>  <PUBCHEM_SHAPE_VOLUME>  (1) 
337.5

>  <PUBCHEM_COORDINATE_TYPE>  (1) 
2
5
10

$$$$
