47832
     RDKit          3D

 27 30  0  0  1  0  0  0  0  0999 V2000
   -6.5772   -1.1592   -1.0213 O   0  0  0  0  0  0  0  0  0  0  0  0
   -4.5087   -2.0820   -0.9641 O   0  0  0  0  0  0  0  0  0  0  0  0
    0.6966    0.0821    1.4154 N   0  0  0  0  0  0  0  0  0  0  0  0
    4.1981   -0.0973   -0.8815 N   0  0  0  0  0  0  0  0  0  0  0  0
   -4.8151    0.1460   -0.0022 C   0  0  0  0  0  0  0  0  0  0  0  0
   -3.3709    0.1299    0.3692 C   0  0  0  0  0  0  0  0  0  0  0  0
    1.8841    0.0212    0.6365 C   0  0  0  0  0  0  0  0  0  0  0  0
   -5.2561    1.3375   -0.8978 C   0  0  0  0  0  0  0  0  0  0  0  0
    2.4350   -1.2217    0.3084 C   0  0  0  0  0  0  0  0  0  0  0  0
    2.4912    1.2048    0.2047 C   0  0  0  0  0  0  0  0  0  0  0  0
   -0.6601    0.0979    1.0664 C   0  0  0  0  0  0  0  0  0  0  0  0
   -2.9955    0.1784    1.7116 C   0  0  0  0  0  0  0  0  0  0  0  0
   -2.3955    0.0656   -0.6259 C   0  0  0  0  0  0  0  0  0  0  0  0
    3.6093   -1.2344   -0.4631 C   0  0  0  0  0  0  0  0  0  0  0  0
    3.6633    1.0972   -0.5629 C   0  0  0  0  0  0  0  0  0  0  0  0
   -1.6446    0.1625    2.0591 C   0  0  0  0  0  0  0  0  0  0  0  0
   -1.0446    0.0497   -0.2785 C   0  0  0  0  0  0  0  0  0  0  0  0
   -5.2553   -1.1476   -0.7035 C   0  0  0  0  0  0  0  0  0  0  0  0
   -5.0270    2.6870   -0.2287 C   0  0  0  0  0  0  0  0  0  0  0  0
    1.8459   -2.4269    0.7288 C   0  0  0  0  0  0  0  0  0  0  0  0
    1.9593    2.4673    0.5196 C   0  0  0  0  0  0  0  0  0  0  0  0
    4.1627   -2.4687   -0.7930 C   0  0  0  0  0  0  0  0  0  0  0  0
    4.2725    2.2720   -0.9957 C   0  0  0  0  0  0  0  0  0  0  0  0
    2.4190   -3.6478    0.3855 C   0  0  0  0  0  0  0  0  0  0  0  0
    2.5875    3.6266    0.0746 C   0  0  0  0  0  0  0  0  0  0  0  0
    3.5798   -3.6682   -0.3770 C   0  0  0  0  0  0  0  0  0  0  0  0
    3.7465    3.5284   -0.6846 C   0  0  0  0  0  0  0  0  0  0  0  0
  1 18  1  0
  2 18  2  0
  3  7  1  0
  3 11  1  0
  4 14  2  0
  4 15  1  0
  5  6  1  0
  5  8  1  0
  5 18  1  0
  6 12  2  0
  6 13  1  0
  7  9  2  0
  7 10  1  0
  8 19  1  0
  9 14  1  0
  9 20  1  0
 10 15  2  0
 10 21  1  0
 11 16  2  0
 11 17  1  0
 12 16  1  0
 13 17  2  0
 14 22  1  0
 15 23  1  0
 20 24  2  0
 21 25  2  0
 22 26  2  0
 23 27  2  0
 24 26  1  0
 25 27  1  0
M  END
>  <PUBCHEM_COMPOUND_CID>  (1) 
47832

>  <PUBCHEM_CONFORMER_RMSD>  (1) 
0.8

>  <PUBCHEM_CONFORMER_DIVERSEORDER>  (1) 
1
19
11
10
6
12
9
5
15
20
13
4
16
21
8
7
18
3
14
2
17

>  <PUBCHEM_MMFF94_PARTIAL_CHARGES>  (1) 
37
1 -0.65
11 0.1
12 -0.15
13 -0.15
14 0.31
15 0.31
16 -0.15
17 -0.15
18 0.66
2 -0.57
20 -0.15
21 -0.15
22 -0.15
23 -0.15
24 -0.15
25 -0.15
26 -0.15
27 -0.15
3 -0.6
31 0.4
32 0.15
33 0.15
34 0.15
35 0.15
39 0.15
4 -0.62
40 0.15
41 0.15
42 0.15
43 0.15
44 0.15
45 0.15
46 0.15
47 0.5
5 0.2
6 -0.14
7 0.1

>  <PUBCHEM_EFFECTIVE_ROTOR_COUNT>  (1) 
5

>  <PUBCHEM_PHARMACOPHORE_FEATURES>  (1) 
11
1 1 acceptor
1 19 hydrophobe
1 2 acceptor
1 3 cation
1 3 donor
1 4 acceptor
3 1 2 18 anion
6 10 15 21 23 25 27 rings
6 4 7 9 10 14 15 rings
6 6 11 12 13 16 17 rings
6 9 14 20 22 24 26 rings

>  <PUBCHEM_HEAVY_ATOM_COUNT>  (1) 
27

>  <PUBCHEM_ATOM_DEF_STEREO_COUNT>  (1) 
0

>  <PUBCHEM_ATOM_UDEF_STEREO_COUNT>  (1) 
1

>  <PUBCHEM_BOND_DEF_STEREO_COUNT>  (1) 
0

>  <PUBCHEM_BOND_UDEF_STEREO_COUNT>  (1) 
0

>  <PUBCHEM_ISOTOPIC_ATOM_COUNT>  (1) 
0

>  <PUBCHEM_COMPONENT_COUNT>  (1) 
1

>  <PUBCHEM_CACTVS_TAUTO_COUNT>  (1) 
2

>  <PUBCHEM_CONFORMER_ID>  (1) 
0000BAD800000001

>  <PUBCHEM_MMFF94_ENERGY>  (1) 
100.7697

>  <PUBCHEM_FEATURE_SELFOVERLAP>  (1) 
55.941

>  <PUBCHEM_SHAPE_FINGERPRINT>  (1) 
10595046 47 18412261766340468029
10693767 8 18129958784613263806
10759866 29 18271805782499426015
10930396 42 18117250638268286618
12107183 9 17981894043000452305
12730499 353 18262527012288011410
12788726 201 17346330314445635171
13009979 54 17631462163545376114
13533116 47 18341893017799310263
13583140 156 18337403711554056003
1361 2 18191021407737278221
13911987 19 18048053027680746836
14528608 73 18335980977846372909
15250474 111 18200863072146784151
15842332 3 17844550853849541409
15950262 2 15071192353217734806
16752209 62 16558752274236461161
16989378 47 17488204616224980486
16993427 108 17244116256306408738
17138139 8 17557974327870039999
17349148 13 16917063322587944133
17818456 19 17557436374573592624
17844677 252 18411141312341425837
1813 80 17913502246562753734
18681886 176 18342170030194867362
20645477 70 18335419062763694466
21304303 282 17266631295146956704
21968339 14 18409162229982004912
221357 26 18189897504848082581
22182313 1 17605011349717889051
22393880 68 18342461473230742877
23522609 53 17844832415786199745
23557571 272 17096386071049000603
23559900 14 18270951354822284499
238 59 18410018770903895058
24771293 8 18271812277460291722
249057 3 18196368114114347333
25222932 49 16484976280683853911
25223398 141 16879091774006341778
3004659 81 18272083851509165291
312425 83 18335133172945777445
34797466 226 18187921816308579015
4015057 19 18335427841792957643
4353968 344 17834976170481001302
44317340 157 18408044001129229161
46194498 28 18334008393629565583
495365 180 18337387248949990856
5281201 14 18335981991316262365
59682541 52 18338222805125649413
6025842 7 18410572928816499214
633830 44 18040711434033156771
6695519 79 17839196442697145923
70251023 43 18337391539205263219
7471813 234 18269560438422038976

>  <PUBCHEM_SHAPE_MULTIPOLES>  (1) 
533.95
12.84
4.29
1.3
17.99
0.22
-0.45
-0.32
5.41
-6.53
0.75
0.73
-0.04
-0.68

>  <PUBCHEM_SHAPE_SELFOVERLAP>  (1) 
1184.784

>  <PUBCHEM_SHAPE_VOLUME>  (1) 
283.3

>  <PUBCHEM_COORDINATE_TYPE>  (1) 
2
5
10

$$$$
