47838
     RDKit          3D

 31 34  0  0  0  0  0  0  0  0999 V2000
   -4.2523   -2.3682    0.3174 S   0  0  0  0  0  0  0  0  0  0  0  0
   -5.3516   -3.2394   -0.0543 O   0  0  0  0  0  0  0  0  0  0  0  0
   -4.0217   -2.0244    1.7064 O   0  0  0  0  0  0  0  0  0  0  0  0
   -2.8130   -2.9651   -0.4162 N   0  0  0  0  0  0  0  0  0  0  0  0
    2.1055   -0.7712    1.2177 N   0  0  0  0  0  0  0  0  0  0  0  0
    4.8463    1.7510   -0.7046 N   0  0  0  0  0  0  0  0  0  0  0  0
   -5.7022   -0.1000   -0.1322 C   0  0  0  0  0  0  0  0  0  0  0  0
   -5.8938    1.1905   -0.9283 C   0  0  0  0  0  0  0  0  0  0  0  0
   -4.4638   -0.8539   -0.5919 C   0  0  0  0  0  0  0  0  0  0  0  0
   -7.1170    1.9686   -0.4409 C   0  0  0  0  0  0  0  0  0  0  0  0
   -7.2894    3.2753   -1.2147 C   0  0  0  0  0  0  0  0  0  0  0  0
    3.0350    0.0840    0.5659 C   0  0  0  0  0  0  0  0  0  0  0  0
   -1.5644   -2.4100   -0.0019 C   0  0  0  0  0  0  0  0  0  0  0  0
    4.0696   -0.4686   -0.1958 C   0  0  0  0  0  0  0  0  0  0  0  0
    2.9069    1.4711    0.6915 C   0  0  0  0  0  0  0  0  0  0  0  0
   -8.5235    4.0356   -0.7561 C   0  0  0  0  0  0  0  0  0  0  0  0
    0.8821   -1.3191    0.8104 C   0  0  0  0  0  0  0  0  0  0  0  0
    4.9651    0.4144   -0.8225 C   0  0  0  0  0  0  0  0  0  0  0  0
    3.8478    2.2782    0.0302 C   0  0  0  0  0  0  0  0  0  0  0  0
   -1.0621   -2.6928    1.2681 C   0  0  0  0  0  0  0  0  0  0  0  0
   -0.8478   -1.5836   -0.8673 C   0  0  0  0  0  0  0  0  0  0  0  0
    0.1571   -2.1492    1.6730 C   0  0  0  0  0  0  0  0  0  0  0  0
    0.3714   -1.0400   -0.4626 C   0  0  0  0  0  0  0  0  0  0  0  0
    4.2221   -1.8587   -0.3394 C   0  0  0  0  0  0  0  0  0  0  0  0
    1.8768    2.0536    1.4503 C   0  0  0  0  0  0  0  0  0  0  0  0
    5.9973   -0.1298   -1.5821 C   0  0  0  0  0  0  0  0  0  0  0  0
    3.7255    3.6598    0.1514 C   0  0  0  0  0  0  0  0  0  0  0  0
    5.2625   -2.3773   -1.1045 C   0  0  0  0  0  0  0  0  0  0  0  0
    1.7767    3.4377    1.5557 C   0  0  0  0  0  0  0  0  0  0  0  0
    6.1517   -1.5107   -1.7270 C   0  0  0  0  0  0  0  0  0  0  0  0
    2.7032    4.2421    0.9047 C   0  0  0  0  0  0  0  0  0  0  0  0
  1  2  2  0
  1  3  2  0
  1  4  1  0
  1  9  1  0
  4 13  1  0
  5 12  1  0
  5 17  1  0
  6 18  2  0
  6 19  1  0
  7  8  1  0
  7  9  1  0
  8 10  1  0
 10 11  1  0
 11 16  1  0
 12 14  2  0
 12 15  1  0
 13 20  2  0
 13 21  1  0
 14 18  1  0
 14 24  1  0
 15 19  2  0
 15 25  1  0
 17 22  2  0
 17 23  1  0
 18 26  1  0
 19 27  1  0
 20 22  1  0
 21 23  2  0
 24 28  2  0
 25 29  2  0
 26 30  2  0
 27 31  2  0
 28 30  1  0
 29 31  1  0
M  END
>  <PUBCHEM_COMPOUND_CID>  (1) 
47838

>  <PUBCHEM_CONFORMER_RMSD>  (1) 
1

>  <PUBCHEM_CONFORMER_DIVERSEORDER>  (1) 
1
147
144
150
105
114
104
149
164
82
37
163
27
89
46
109
161
111
81
42
155
124
151
136
146
8
145
141
148
95
112
21
84
131
132
115
85
127
162
93
133
25
152
11
135
106
100
88
119
139
70
19
67
9
125
126
156
143
123
80
138
75
158
63
61
94
110
24
98
26
64
96
43
18
68
92
10
55
74
159
103
134
128
53
31
118
137
160
72
116
117
102
79
45
108
76
23
142
36
113
120
65
30
121
130
52
157
107
62
56
60
51
122
3
77
47
58
17
153
91
154
83
13
90
20
29
140
2
78
50
32
99
38
73
14
57
22
86
7
129
41
35
39
4
12
49
54
34
59
16
66
97
5
71
15
33
48
69
40
6
44
87
101
28

>  <PUBCHEM_MMFF94_PARTIAL_CHARGES>  (1) 
38
1 1.33
12 0.1
13 0.2
17 0.1
18 0.31
19 0.31
2 -0.65
20 -0.15
21 -0.15
22 -0.15
23 -0.15
24 -0.15
25 -0.15
26 -0.15
27 -0.15
28 -0.15
29 -0.15
3 -0.65
30 -0.15
31 -0.15
4 -0.76
42 0.42
46 0.4
47 0.15
48 0.15
49 0.15
5 -0.6
50 0.15
51 0.15
52 0.15
53 0.15
54 0.15
55 0.15
56 0.15
57 0.15
58 0.15
6 -0.62
9 0.11

>  <PUBCHEM_EFFECTIVE_ROTOR_COUNT>  (1) 
9

>  <PUBCHEM_PHARMACOPHORE_FEATURES>  (1) 
12
1 16 hydrophobe
1 2 acceptor
1 3 acceptor
1 4 donor
1 5 cation
1 5 donor
1 6 acceptor
4 7 8 10 11 hydrophobe
6 13 17 20 21 22 23 rings
6 14 18 24 26 28 30 rings
6 15 19 25 27 29 31 rings
6 6 12 14 15 18 19 rings

>  <PUBCHEM_HEAVY_ATOM_COUNT>  (1) 
31

>  <PUBCHEM_ATOM_DEF_STEREO_COUNT>  (1) 
0

>  <PUBCHEM_ATOM_UDEF_STEREO_COUNT>  (1) 
0

>  <PUBCHEM_BOND_DEF_STEREO_COUNT>  (1) 
0

>  <PUBCHEM_BOND_UDEF_STEREO_COUNT>  (1) 
0

>  <PUBCHEM_ISOTOPIC_ATOM_COUNT>  (1) 
0

>  <PUBCHEM_COMPONENT_COUNT>  (1) 
1

>  <PUBCHEM_CACTVS_TAUTO_COUNT>  (1) 
2

>  <PUBCHEM_CONFORMER_ID>  (1) 
0000BADE00000001

>  <PUBCHEM_MMFF94_ENERGY>  (1) 
98.867

>  <PUBCHEM_FEATURE_SELFOVERLAP>  (1) 
60.974

>  <PUBCHEM_SHAPE_FINGERPRINT>  (1) 
10763959 59 18412547638714674239
10816530 90 18264201426995379763
10864689 126 18337951182509061941
11720765 8 18202282516141211424
13944108 23 18049718521703722029
15064981 194 18060134324830066033
15183329 4 18131081436607087826
15320295 198 18339933636422936047
15530120 55 17558526231784826517
17349148 13 15625681499511299666
17844677 252 18268998746456763399
19377110 9 13046214026392921110
21033648 29 18042123322458080355
21133410 127 17904192977584186581
21133410 62 18188500077958074721
21279426 13 18412547625861479335
22289505 5 18341899644986491534
23559900 14 17987801942220268858
23569914 2 17555410194320267705
2747138 104 17751651085817821963
2838139 119 18411693301765232623
3986486 107 18339651053212800902
4144715 1 18263650730679112699
42767 28 18411416207533968409
508180 173 18410578379145783880
6086070 43 18341609304659699235

>  <PUBCHEM_SHAPE_MULTIPOLES>  (1) 
615.13
19.69
5.59
1.51
35.05
4.45
-0.18
13
10.85
4.42
-0.98
-0.86
-0.06
4.24

>  <PUBCHEM_SHAPE_SELFOVERLAP>  (1) 
1315.659

>  <PUBCHEM_SHAPE_VOLUME>  (1) 
340.6

>  <PUBCHEM_COORDINATE_TYPE>  (1) 
2
5
10

$$$$
