47842
     RDKit          3D

 17 17  0  0  1  0  0  0  0  0999 V2000
   -2.5582   -2.8591   -1.1063 Cl  0  0  0  0  0  0  0  0  0  0  0  0
    1.5047   -0.0852    0.5732 O   0  0  0  0  0  0  0  0  0  0  0  0
    1.8879    0.7511   -1.5371 O   0  0  0  0  0  0  0  0  0  0  0  0
   -0.2366    2.4091   -1.4127 N   0  0  0  0  0  0  0  0  0  0  0  0
   -0.0039    1.5816   -0.2140 C   0  0  0  0  0  0  0  0  0  0  0  0
    2.6495   -0.9333    0.4393 C   0  0  0  0  0  0  0  0  0  0  0  0
   -1.2313    0.7036    0.0421 C   0  0  0  0  0  0  0  0  0  0  0  0
    1.2326    0.7170   -0.5023 C   0  0  0  0  0  0  0  0  0  0  0  0
    0.3737    2.5422    0.9302 C   0  0  0  0  0  0  0  0  0  0  0  0
    3.8812   -0.0564    0.2185 C   0  0  0  0  0  0  0  0  0  0  0  0
    2.7838   -1.7324    1.7338 C   0  0  0  0  0  0  0  0  0  0  0  0
    2.4261   -1.8682   -0.7485 C   0  0  0  0  0  0  0  0  0  0  0  0
   -1.3068   -0.5210   -0.5803 C   0  0  0  0  0  0  0  0  0  0  0  0
   -2.2115    1.1730    0.8857 C   0  0  0  0  0  0  0  0  0  0  0  0
   -2.4252   -1.3211   -0.3459 C   0  0  0  0  0  0  0  0  0  0  0  0
   -3.3297    0.3731    1.1201 C   0  0  0  0  0  0  0  0  0  0  0  0
   -3.4366   -0.8739    0.5045 C   0  0  0  0  0  0  0  0  0  0  0  0
  1 15  1  0
  2  6  1  0
  2  8  1  0
  3  8  2  0
  4  5  1  0
  5  7  1  0
  5  8  1  0
  5  9  1  0
  6 10  1  0
  6 11  1  0
  6 12  1  0
  7 13  2  0
  7 14  1  0
 13 15  1  0
 14 16  2  0
 15 17  2  0
 16 17  1  0
M  END
>  <PUBCHEM_COMPOUND_CID>  (1) 
47842

>  <PUBCHEM_CONFORMER_RMSD>  (1) 
0.6

>  <PUBCHEM_CONFORMER_DIVERSEORDER>  (1) 
1
50
80
103
47
73
75
53
102
68
65
64
29
96
82
90
48
52
100
79
54
107
89
85
72
76
10
28
45
57
95
105
67
60
92
46
59
93
70
101
84
83
81
13
30
12
49
78
71
87
108
99
32
94
106
74
88
36
26
25
6
31
98
42
7
86
56
91
55
24
17
22
51
34
11
104
69
39
18
63
4
8
43
77
35
2
33
19
61
58
14
40
38
9
44
3
41
20
66
15
37
62
27
97
21
16
23
5

>  <PUBCHEM_MMFF94_PARTIAL_CHARGES>  (1) 
19
1 -0.18
13 -0.15
14 -0.15
15 0.18
16 -0.15
17 -0.15
2 -0.43
3 -0.57
30 0.36
31 0.36
32 0.15
33 0.15
34 0.15
35 0.15
4 -0.99
5 0.47
6 0.28
7 -0.14
8 0.66

>  <PUBCHEM_EFFECTIVE_ROTOR_COUNT>  (1) 
4

>  <PUBCHEM_PHARMACOPHORE_FEATURES>  (1) 
5
1 3 acceptor
1 4 cation
1 4 donor
4 6 10 11 12 hydrophobe
6 7 13 14 15 16 17 rings

>  <PUBCHEM_HEAVY_ATOM_COUNT>  (1) 
17

>  <PUBCHEM_ATOM_DEF_STEREO_COUNT>  (1) 
0

>  <PUBCHEM_ATOM_UDEF_STEREO_COUNT>  (1) 
1

>  <PUBCHEM_BOND_DEF_STEREO_COUNT>  (1) 
0

>  <PUBCHEM_BOND_UDEF_STEREO_COUNT>  (1) 
0

>  <PUBCHEM_ISOTOPIC_ATOM_COUNT>  (1) 
0

>  <PUBCHEM_COMPONENT_COUNT>  (1) 
1

>  <PUBCHEM_CACTVS_TAUTO_COUNT>  (1) 
1

>  <PUBCHEM_CONFORMER_ID>  (1) 
0000BAE200000001

>  <PUBCHEM_MMFF94_ENERGY>  (1) 
50.359

>  <PUBCHEM_FEATURE_SELFOVERLAP>  (1) 
25.371

>  <PUBCHEM_SHAPE_FINGERPRINT>  (1) 
10366900 7 16702016457049325370
10618630 7 18337114458117252722
11132069 177 18341603815923057794
11321824 6 17829587492770098771
11578080 2 18263059137325427317
12202030 40 16661500660826000179
12251169 10 18202285809721419345
12382932 28 18272088245091449410
12553582 1 18412263964699241103
12633257 1 17774993549348420330
13083527 12 17626072585015461795
13299463 15 13695879094652686920
13931106 250 17974538365475200951
14178342 30 18202560696113322539
15375462 189 18335423473700285104
16945 1 18202291298921868477
18186145 218 12468647084013766926
18522851 268 14562820923462971730
20291156 8 18334858298853941306
20361792 2 18113335318971024365
20442098 301 18341332210480824634
20559304 39 18269846457126008411
20645477 70 17979342385734504111
20871998 184 18265332794131917629
21421861 104 17910675689856645427
21731516 1 18187921746761226114
22112679 90 18339652216742697013
22445834 79 18268436896246480947
2255824 54 17975705196552483701
23184049 29 18058168521643977911
232386 152 18342463672253913895
23388829 49 18333732429243750884
23402539 116 17822005381450454458
23419403 2 16838478018178782669
23463225 33 18409175380770587823
23552423 10 17978236276988929685
23559900 14 17631475409277401084
23598291 2 18337683030272438221
2748010 2 17473829420324082255
34934 24 18334856095451127377
427121 178 15978952159048877537
465052 167 18189924014103437811
6992083 37 18341339928884818969
7364860 26 18126849523672862201
74978 22 18271810185162280725
81228 2 18119806915442217472
85463 6 17971728035562167586

>  <PUBCHEM_SHAPE_MULTIPOLES>  (1) 
335
5.86
2.78
1.36
0.83
0.2
-0.05
3.14
-1.48
-0.72
0.48
0.35
0.02
-1.09

>  <PUBCHEM_SHAPE_SELFOVERLAP>  (1) 
684.402

>  <PUBCHEM_SHAPE_VOLUME>  (1) 
197

>  <PUBCHEM_COORDINATE_TYPE>  (1) 
2
5
10

$$$$
