47840
     RDKit          3D

 17 17  0  0  1  0  0  0  0  0999 V2000
   -4.7536   -1.8227    0.0690 Cl  0  0  0  0  0  0  0  0  0  0  0  0
    1.5857   -0.3120   -0.5267 O   0  0  0  0  0  0  0  0  0  0  0  0
    2.1699    0.9592    1.3013 O   0  0  0  0  0  0  0  0  0  0  0  0
    0.0822    2.6366    0.9709 N   0  0  0  0  0  0  0  0  0  0  0  0
    0.2017    1.5628   -0.0332 C   0  0  0  0  0  0  0  0  0  0  0  0
    2.6955   -1.1788   -0.2722 C   0  0  0  0  0  0  0  0  0  0  0  0
   -1.0623    0.6997   -0.0067 C   0  0  0  0  0  0  0  0  0  0  0  0
    1.4359    0.7312    0.3471 C   0  0  0  0  0  0  0  0  0  0  0  0
    0.5114    2.2526   -1.3759 C   0  0  0  0  0  0  0  0  0  0  0  0
    2.5276   -1.7878    1.1192 C   0  0  0  0  0  0  0  0  0  0  0  0
    2.6822   -2.2693   -1.3412 C   0  0  0  0  0  0  0  0  0  0  0  0
    3.9823   -0.3592   -0.3565 C   0  0  0  0  0  0  0  0  0  0  0  0
   -1.1180   -0.3590    0.8698 C   0  0  0  0  0  0  0  0  0  0  0  0
   -2.0934    1.0161   -0.8606 C   0  0  0  0  0  0  0  0  0  0  0  0
   -2.2696   -1.1461    0.8933 C   0  0  0  0  0  0  0  0  0  0  0  0
   -3.2448    0.2290   -0.8373 C   0  0  0  0  0  0  0  0  0  0  0  0
   -3.3328   -0.8521    0.0397 C   0  0  0  0  0  0  0  0  0  0  0  0
  1 17  1  0
  2  6  1  0
  2  8  1  0
  3  8  2  0
  4  5  1  0
  5  7  1  0
  5  8  1  0
  5  9  1  0
  6 10  1  0
  6 11  1  0
  6 12  1  0
  7 13  2  0
  7 14  1  0
 13 15  1  0
 14 16  2  0
 15 17  2  0
 16 17  1  0
M  END
>  <PUBCHEM_COMPOUND_CID>  (1) 
47840

>  <PUBCHEM_CONFORMER_RMSD>  (1) 
0.6

>  <PUBCHEM_CONFORMER_DIVERSEORDER>  (1) 
1
30
24
20
27
25
17
14
13
3
10
19
22
29
16
18
28
23
12
8
15
7
11
21
9
2
4
26
6
5

>  <PUBCHEM_MMFF94_PARTIAL_CHARGES>  (1) 
19
1 -0.18
13 -0.15
14 -0.15
15 -0.15
16 -0.15
17 0.18
2 -0.43
3 -0.57
30 0.36
31 0.36
32 0.15
33 0.15
34 0.15
35 0.15
4 -0.99
5 0.47
6 0.28
7 -0.14
8 0.66

>  <PUBCHEM_EFFECTIVE_ROTOR_COUNT>  (1) 
4

>  <PUBCHEM_PHARMACOPHORE_FEATURES>  (1) 
5
1 3 acceptor
1 4 cation
1 4 donor
4 6 10 11 12 hydrophobe
6 7 13 14 15 16 17 rings

>  <PUBCHEM_HEAVY_ATOM_COUNT>  (1) 
17

>  <PUBCHEM_ATOM_DEF_STEREO_COUNT>  (1) 
1

>  <PUBCHEM_ATOM_UDEF_STEREO_COUNT>  (1) 
0

>  <PUBCHEM_BOND_DEF_STEREO_COUNT>  (1) 
0

>  <PUBCHEM_BOND_UDEF_STEREO_COUNT>  (1) 
0

>  <PUBCHEM_ISOTOPIC_ATOM_COUNT>  (1) 
0

>  <PUBCHEM_COMPONENT_COUNT>  (1) 
1

>  <PUBCHEM_CACTVS_TAUTO_COUNT>  (1) 
1

>  <PUBCHEM_CONFORMER_ID>  (1) 
0000BAE000000001

>  <PUBCHEM_MMFF94_ENERGY>  (1) 
50.7422

>  <PUBCHEM_FEATURE_SELFOVERLAP>  (1) 
25.371

>  <PUBCHEM_SHAPE_FINGERPRINT>  (1) 
10465860 71 18040442070231218109
10618630 7 18341056203018483462
11543360 7 12973882658992720011
12251169 10 12895072911833804499
12363563 72 18340209596081714078
12506688 2 18411704313280547243
13296908 3 18410851049365618843
13464513 79 18341615966259346750
13533116 47 18197506336625604699
14251764 30 17130731412919227278
14252887 29 18273218603359175986
14350558 41 18340491165752933341
15342816 4 18259987046118383934
15422964 175 18271808990707958407
15635459 17 18411703196584184714
15775835 57 9727631696084002388
16945 1 18128241471065621041
18186145 218 17749658701917180639
20201158 50 18335138691424871306
20281475 54 18341338781875531610
20645476 183 14634866496298570307
20645477 70 18192146217049708783
20671657 53 18040437689322469125
20871998 22 18342178855766259995
20871999 31 17894911806680335893
21028194 46 8790588326113055534
21069387 34 17775272885900532477
21296965 67 18413672396318575633
21731228 192 10375860858014105940
22721475 48 18335145301484878963
231179 274 9007066755026492174
23402539 116 18187078421812122758
23557571 272 18336267847380966022
23559900 14 18191010206889863946
27216 239 8933270803182951366
2748010 2 18335974307450756745
4463277 69 18272369797942262567
7097593 13 12462996655431007646
7364860 26 18193841663336291069
81228 2 18122347874124304344
83771 10 18411141341783561667
94968 8 18409733984138270082
9709674 26 18044092582560058963

>  <PUBCHEM_SHAPE_MULTIPOLES>  (1) 
335
6.89
2.52
1.24
3.31
0.54
0.04
-5.15
0.81
-0.5
0.19
-0.47
0.04
0.66

>  <PUBCHEM_SHAPE_SELFOVERLAP>  (1) 
684.359

>  <PUBCHEM_SHAPE_VOLUME>  (1) 
197.2

>  <PUBCHEM_COORDINATE_TYPE>  (1) 
2
5
10

$$$$
