47856
     RDKit          3D

 25 26  0  0  0  0  0  0  0  0999 V2000
   -1.0949   -0.3333   -0.0574 O   0  0  0  0  0  0  0  0  0  0  0  0
    2.4139    2.9519   -0.4786 O   0  0  0  0  0  0  0  0  0  0  0  0
   -0.4281    2.3248   -0.4820 O   0  0  0  0  0  0  0  0  0  0  0  0
    3.5441   -1.5093    0.3148 O   0  0  0  0  0  0  0  0  0  0  0  0
    0.8082   -3.1690   -1.8306 O   0  0  0  0  0  0  0  0  0  0  0  0
   -3.8866    0.1876    0.0894 N   0  0  0  0  0  0  0  0  0  0  0  0
    0.8605   -2.2555    0.3410 N   0  0  0  0  0  0  0  0  0  0  0  0
   -3.2066   -0.7197    1.0017 C   0  0  0  0  0  0  0  0  0  0  0  0
   -1.7601   -0.2963    1.2011 C   0  0  0  0  0  0  0  0  0  0  0  0
   -5.2757   -0.2293   -0.1170 C   0  0  0  0  0  0  0  0  0  0  0  0
   -3.8413    1.5616    0.5955 C   0  0  0  0  0  0  0  0  0  0  0  0
    0.2208    0.0389   -0.0715 C   0  0  0  0  0  0  0  0  0  0  0  0
    1.2184   -0.9190    0.1278 C   0  0  0  0  0  0  0  0  0  0  0  0
    2.9169    0.7833   -0.0944 C   0  0  0  0  0  0  0  0  0  0  0  0
    1.8945    1.7064   -0.2888 C   0  0  0  0  0  0  0  0  0  0  0  0
    0.5388    1.3833   -0.2859 C   0  0  0  0  0  0  0  0  0  0  0  0
    2.5741   -0.5633    0.1194 C   0  0  0  0  0  0  0  0  0  0  0  0
   -5.3493   -1.6530   -0.6424 C   0  0  0  0  0  0  0  0  0  0  0  0
   -4.4878    2.5284   -0.3821 C   0  0  0  0  0  0  0  0  0  0  0  0
    4.1257    1.5239   -0.1732 C   0  0  0  0  0  0  0  0  0  0  0  0
    3.7652    2.8307   -0.4071 C   0  0  0  0  0  0  0  0  0  0  0  0
    0.6822   -3.2613   -0.6138 C   0  0  0  0  0  0  0  0  0  0  0  0
   -0.4806    3.4017    0.4507 C   0  0  0  0  0  0  0  0  0  0  0  0
    3.9517   -1.7420    1.6584 C   0  0  0  0  0  0  0  0  0  0  0  0
    0.2961   -4.5717    0.0252 C   0  0  0  0  0  0  0  0  0  0  0  0
  1  9  1  0
  1 12  1  0
  2 15  1  0
  2 21  1  0
  3 16  1  0
  3 23  1  0
  4 17  1  0
  4 24  1  0
  5 22  2  0
  6  8  1  0
  6 10  1  0
  6 11  1  0
  7 13  1  0
  7 22  1  0
  8  9  1  0
 10 18  1  0
 11 19  1  0
 12 13  1  0
 12 16  2  0
 13 17  2  0
 14 15  2  0
 14 17  1  0
 14 20  1  0
 15 16  1  0
 20 21  2  0
 22 25  1  0
M  END
>  <PUBCHEM_COMPOUND_CID>  (1) 
47856

>  <PUBCHEM_CONFORMER_RMSD>  (1) 
1

>  <PUBCHEM_CONFORMER_DIVERSEORDER>  (1) 
4
43
17
7
30
34
10
23
37
29
28
42
14
15
2
25
31
12
18
35
20
41
6
3
26
19
22
38
24
5
40
8
1
39
16
9
11
27
21
13
36
33
32

>  <PUBCHEM_MMFF94_PARTIAL_CHARGES>  (1) 
25
1 -0.36
10 0.27
11 0.27
12 0.08
13 0.12
15 0.14
16 0.08
17 0.08
2 -0.28
20 -0.15
21 -0.01
22 0.57
23 0.28
24 0.28
25 0.06
3 -0.36
4 -0.36
40 0.15
41 0.37
42 0.15
5 -0.57
6 -0.81
7 -0.55
8 0.27
9 0.28

>  <PUBCHEM_EFFECTIVE_ROTOR_COUNT>  (1) 
10

>  <PUBCHEM_PHARMACOPHORE_FEATURES>  (1) 
9
1 1 acceptor
1 2 acceptor
1 3 acceptor
1 4 acceptor
1 5 acceptor
1 6 cation
1 7 donor
5 2 14 15 20 21 rings
6 12 13 14 15 16 17 rings

>  <PUBCHEM_HEAVY_ATOM_COUNT>  (1) 
25

>  <PUBCHEM_ATOM_DEF_STEREO_COUNT>  (1) 
0

>  <PUBCHEM_ATOM_UDEF_STEREO_COUNT>  (1) 
0

>  <PUBCHEM_BOND_DEF_STEREO_COUNT>  (1) 
0

>  <PUBCHEM_BOND_UDEF_STEREO_COUNT>  (1) 
0

>  <PUBCHEM_ISOTOPIC_ATOM_COUNT>  (1) 
0

>  <PUBCHEM_COMPONENT_COUNT>  (1) 
1

>  <PUBCHEM_CACTVS_TAUTO_COUNT>  (1) 
2

>  <PUBCHEM_CONFORMER_ID>  (1) 
0000BAF000000004

>  <PUBCHEM_MMFF94_ENERGY>  (1) 
98.4942

>  <PUBCHEM_FEATURE_SELFOVERLAP>  (1) 
45.781

>  <PUBCHEM_SHAPE_FINGERPRINT>  (1) 
10411042 1 17545041503032577099
10906281 52 18118422664931215120
1100329 8 18337104692068380138
116883 192 17907582424044224701
12107183 9 18048595924320691001
13140716 1 18410289198923832080
138480 1 18050008783434284527
14178342 30 17980474560535182056
14790565 3 18190473846853060972
15196674 1 18335702724164063113
16945 1 17688027510331418076
17138139 8 17485910128810870319
18681886 176 18342171168334086730
19591789 44 18411139159945625596
20028762 73 18271801307149083790
20645477 70 18408605855190626795
20739085 24 18334300829495190972
21709351 56 18339357470533482095
22393880 68 18341621403677128013
23419403 2 17677594407218756830
23559900 14 18195524796589335241
3060560 45 18341341041207879134
34934 24 18191021407974440448
4280585 95 17767133003167101198
5104073 3 18334861597784600657
6443956 14 18193845838286810214
8272917 22 18341339907341553583
9709674 26 18336836282160956091

>  <PUBCHEM_SHAPE_MULTIPOLES>  (1) 
475.18
9.23
4.84
1.02
10.01
2.61
0.08
-2.42
0.26
-1.93
-0.92
-0.18
0.55
-0.9

>  <PUBCHEM_SHAPE_SELFOVERLAP>  (1) 
986.941

>  <PUBCHEM_SHAPE_VOLUME>  (1) 
275.4

>  <PUBCHEM_COORDINATE_TYPE>  (1) 
2
5
10

$$$$
