47865
     RDKit          3D

 23 28  0  0  1  0  0  0  0  0999 V2000
   -4.1279   -0.9285   -1.1353 O   0  0  0  0  0  0  0  0  0  0  0  0
   -3.8446    1.0162    1.9567 O   0  0  0  0  0  0  0  0  0  0  0  0
   -2.8314    1.6965   -1.4579 O   0  0  0  0  0  0  0  0  0  0  0  0
   -4.3712   -0.4961    0.2052 C   0  0  0  0  0  0  0  0  0  0  0  0
   -3.3017   -1.5017   -0.0998 C   0  0  0  0  0  0  0  0  0  0  0  0
   -3.9683    0.9031    0.5369 C   0  0  0  0  0  0  0  0  0  0  0  0
   -1.8631   -1.0577   -0.0446 C   0  0  0  0  0  0  0  0  0  0  0  0
   -2.6313    1.3473   -0.0892 C   0  0  0  0  0  0  0  0  0  0  0  0
   -1.5075    0.3147   -0.0386 C   0  0  0  0  0  0  0  0  0  0  0  0
   -0.1330    0.7100   -0.0417 C   0  0  0  0  0  0  0  0  0  0  0  0
   -0.8395   -2.0149   -0.0032 C   0  0  0  0  0  0  0  0  0  0  0  0
    0.8711   -0.2910    0.0028 C   0  0  0  0  0  0  0  0  0  0  0  0
    0.5115   -1.6558    0.0286 C   0  0  0  0  0  0  0  0  0  0  0  0
    2.2506    0.0577    0.0166 C   0  0  0  0  0  0  0  0  0  0  0  0
    0.3012    2.0533   -0.0945 C   0  0  0  0  0  0  0  0  0  0  0  0
    2.6406    1.4139   -0.0233 C   0  0  0  0  0  0  0  0  0  0  0  0
    1.5082   -2.6398    0.0771 C   0  0  0  0  0  0  0  0  0  0  0  0
    3.2452   -0.9491    0.0672 C   0  0  0  0  0  0  0  0  0  0  0  0
    1.6548    2.3992   -0.0825 C   0  0  0  0  0  0  0  0  0  0  0  0
    2.8576   -2.2919    0.0988 C   0  0  0  0  0  0  0  0  0  0  0  0
    4.0029    1.7483   -0.0079 C   0  0  0  0  0  0  0  0  0  0  0  0
    4.6002   -0.5871    0.0827 C   0  0  0  0  0  0  0  0  0  0  0  0
    4.9756    0.7534    0.0459 C   0  0  0  0  0  0  0  0  0  0  0  0
  1  4  1  0
  1  5  1  0
  2  6  1  0
  3  8  1  0
  4  5  1  0
  4  6  1  0
  5  7  1  0
  6  8  1  0
  7  9  2  0
  7 11  1  0
  8  9  1  0
  9 10  1  0
 10 12  2  0
 10 15  1  0
 11 13  2  0
 12 13  1  0
 12 14  1  0
 13 17  1  0
 14 16  2  0
 14 18  1  0
 15 19  2  0
 16 19  1  0
 16 21  1  0
 17 20  2  0
 18 20  1  0
 18 22  2  0
 21 23  2  0
 22 23  1  0
M  END
>  <PUBCHEM_COMPOUND_CID>  (1) 
47865

>  <PUBCHEM_CONFORMER_RMSD>  (1) 
0.6

>  <PUBCHEM_CONFORMER_DIVERSEORDER>  (1) 
1
2

>  <PUBCHEM_MMFF94_PARTIAL_CHARGES>  (1) 
29
1 -0.3
11 -0.15
15 -0.15
17 -0.15
19 -0.15
2 -0.68
20 -0.15
21 -0.15
22 -0.15
23 -0.15
24 0.1
25 0.1
28 0.15
29 0.4
3 -0.68
30 0.15
31 0.4
32 0.15
33 0.15
34 0.15
35 0.15
36 0.15
37 0.15
4 -0.05
5 0.08
6 0.38
7 -0.03
8 0.42
9 -0.14

>  <PUBCHEM_EFFECTIVE_ROTOR_COUNT>  (1) 
0.6

>  <PUBCHEM_PHARMACOPHORE_FEATURES>  (1) 
10
1 1 acceptor
1 2 acceptor
1 2 donor
1 3 acceptor
1 3 donor
6 10 12 14 15 16 19 rings
6 12 13 14 17 18 20 rings
6 14 16 18 21 22 23 rings
6 7 9 10 11 12 13 rings
7 1 4 5 6 7 8 9 rings

>  <PUBCHEM_HEAVY_ATOM_COUNT>  (1) 
23

>  <PUBCHEM_ATOM_DEF_STEREO_COUNT>  (1) 
4

>  <PUBCHEM_ATOM_UDEF_STEREO_COUNT>  (1) 
0

>  <PUBCHEM_BOND_DEF_STEREO_COUNT>  (1) 
0

>  <PUBCHEM_BOND_UDEF_STEREO_COUNT>  (1) 
0

>  <PUBCHEM_ISOTOPIC_ATOM_COUNT>  (1) 
0

>  <PUBCHEM_COMPONENT_COUNT>  (1) 
1

>  <PUBCHEM_CACTVS_TAUTO_COUNT>  (1) 
1

>  <PUBCHEM_CONFORMER_ID>  (1) 
0000BAF900000001

>  <PUBCHEM_MMFF94_ENERGY>  (1) 
77.2228

>  <PUBCHEM_FEATURE_SELFOVERLAP>  (1) 
50.885

>  <PUBCHEM_SHAPE_FINGERPRINT>  (1) 
10411042 1 17545884823839908130
10616163 171 18340207513075355535
10906281 52 18336845173017123480
10967382 1 18410009949030337302
11471102 20 18409725192603712550
11578080 2 16952237721451778142
12107183 9 17766850420330505395
12236239 1 17989208144608547419
12403814 3 18113337505463033365
12422481 6 18191562204729214200
12553582 1 18266459811030956874
12644460 14 18260830367468612194
13140716 1 17977389661245811683
13224815 77 18411417297716766947
13583140 156 16588012533113960248
138480 1 17977946787487862586
13862211 1 18409442575471903042
14223421 5 18335421266187574719
14787075 74 18408603690564000458
14790565 3 18264779933679764500
15196674 1 18410573980872327606
15209289 33 18412263968993980993
15209294 21 18131079212071991569
15442244 35 18340207371309292563
15536298 74 18342739611334440334
1601671 61 18411702080387936280
16945 1 18336829808996179999
17349148 13 18337096947493278522
1813 80 17312828164607665348
18186145 218 18341615888859816452
19591789 44 18410292557683345766
200 152 18130498717525098149
20691752 17 18040720246736530514
20739085 24 18120679957834336384
21267235 1 18411145744241493862
21421861 104 17970344815648241290
221490 88 18408328765375915178
2334 1 18410289216045821654
23402539 116 18272646853117803596
23559900 14 18339634654785239728
238 59 17902468754255864717
2748010 2 18337106778636515366
335352 9 18338797806498898742
34934 24 18338511945832966830
350125 39 18411702106189609465
3680242 22 18335136454443242898
474 4 18335985362675536226
5104073 3 18411136939568866626
59755656 215 18407757032451211495
7364860 26 18412545396947746894
9709674 26 18410296912654025094
9981440 41 17186712265368047472

>  <PUBCHEM_SHAPE_MULTIPOLES>  (1) 
455.72
9
2.69
0.86
0.5
0.39
0.1
-1.02
0.53
-1.05
-0.1
0.89
-0.22
-0.32

>  <PUBCHEM_SHAPE_SELFOVERLAP>  (1) 
1064.233

>  <PUBCHEM_SHAPE_VOLUME>  (1) 
231.8

>  <PUBCHEM_COORDINATE_TYPE>  (1) 
2
5
10

$$$$
