47862
     RDKit          3D

 26 28  0  0  0  0  0  0  0  0999 V2000
   -0.4768   -0.1997   -1.0418 O   0  0  0  0  0  0  0  0  0  0  0  0
    3.2108    2.8289   -0.3265 O   0  0  0  0  0  0  0  0  0  0  0  0
    0.5306    2.3643   -1.3615 O   0  0  0  0  0  0  0  0  0  0  0  0
    3.5685   -1.5921    1.1350 O   0  0  0  0  0  0  0  0  0  0  0  0
    1.6925   -3.2940   -1.7679 O   0  0  0  0  0  0  0  0  0  0  0  0
   -3.9918   -0.1955    0.0678 N   0  0  0  0  0  0  0  0  0  0  0  0
    1.0133   -2.1812    0.1952 N   0  0  0  0  0  0  0  0  0  0  0  0
   -4.1075    1.2068    0.4923 C   0  0  0  0  0  0  0  0  0  0  0  0
   -5.2303   -0.6606   -0.5725 C   0  0  0  0  0  0  0  0  0  0  0  0
   -5.2632    1.3915    1.4769 C   0  0  0  0  0  0  0  0  0  0  0  0
   -6.4228   -0.5369    0.3775 C   0  0  0  0  0  0  0  0  0  0  0  0
   -6.5777    0.8905    0.8896 C   0  0  0  0  0  0  0  0  0  0  0  0
   -2.8542   -0.3641   -0.8359 C   0  0  0  0  0  0  0  0  0  0  0  0
   -1.5539   -0.0053   -0.1346 C   0  0  0  0  0  0  0  0  0  0  0  0
    0.7798    0.0960   -0.5817 C   0  0  0  0  0  0  0  0  0  0  0  0
    1.5406   -0.8933    0.0432 C   0  0  0  0  0  0  0  0  0  0  0  0
    1.2686    1.3931   -0.7514 C   0  0  0  0  0  0  0  0  0  0  0  0
    3.3424    0.6823    0.3650 C   0  0  0  0  0  0  0  0  0  0  0  0
    2.5509    1.6382   -0.2633 C   0  0  0  0  0  0  0  0  0  0  0  0
    2.8279   -0.6165    0.5239 C   0  0  0  0  0  0  0  0  0  0  0  0
    4.5537    1.3431    0.6991 C   0  0  0  0  0  0  0  0  0  0  0  0
    4.4223    2.6397    0.2585 C   0  0  0  0  0  0  0  0  0  0  0  0
    1.1154   -3.2623   -0.6859 C   0  0  0  0  0  0  0  0  0  0  0  0
    0.2297    3.5266   -0.5931 C   0  0  0  0  0  0  0  0  0  0  0  0
    3.4251   -1.7176    2.5454 C   0  0  0  0  0  0  0  0  0  0  0  0
    0.4060   -4.4819   -0.1531 C   0  0  0  0  0  0  0  0  0  0  0  0
  1 14  1  0
  1 15  1  0
  2 19  1  0
  2 22  1  0
  3 17  1  0
  3 24  1  0
  4 20  1  0
  4 25  1  0
  5 23  2  0
  6  8  1  0
  6  9  1  0
  6 13  1  0
  7 16  1  0
  7 23  1  0
  8 10  1  0
  9 11  1  0
 10 12  1  0
 11 12  1  0
 13 14  1  0
 15 16  2  0
 15 17  1  0
 16 20  1  0
 17 19  2  0
 18 19  1  0
 18 20  2  0
 18 21  1  0
 21 22  2  0
 23 26  1  0
M  END
>  <PUBCHEM_COMPOUND_CID>  (1) 
47862

>  <PUBCHEM_CONFORMER_RMSD>  (1) 
1

>  <PUBCHEM_CONFORMER_DIVERSEORDER>  (1) 
1
18
17
7
14
8
21
24
13
16
12
20
28
26
10
4
22
9
2
23
11
6
5
15
27
3
30
19
25
29

>  <PUBCHEM_MMFF94_PARTIAL_CHARGES>  (1) 
25
1 -0.36
13 0.27
14 0.28
15 0.08
16 0.12
17 0.08
19 0.14
2 -0.28
20 0.08
21 -0.15
22 -0.01
23 0.57
24 0.28
25 0.28
26 0.06
3 -0.36
4 -0.36
41 0.15
42 0.37
43 0.15
5 -0.57
6 -0.81
7 -0.55
8 0.27
9 0.27

>  <PUBCHEM_EFFECTIVE_ROTOR_COUNT>  (1) 
9.2

>  <PUBCHEM_PHARMACOPHORE_FEATURES>  (1) 
10
1 1 acceptor
1 2 acceptor
1 3 acceptor
1 4 acceptor
1 5 acceptor
1 6 cation
1 7 donor
5 2 18 19 21 22 rings
6 15 16 17 18 19 20 rings
6 6 8 9 10 11 12 rings

>  <PUBCHEM_HEAVY_ATOM_COUNT>  (1) 
26

>  <PUBCHEM_ATOM_DEF_STEREO_COUNT>  (1) 
0

>  <PUBCHEM_ATOM_UDEF_STEREO_COUNT>  (1) 
0

>  <PUBCHEM_BOND_DEF_STEREO_COUNT>  (1) 
0

>  <PUBCHEM_BOND_UDEF_STEREO_COUNT>  (1) 
0

>  <PUBCHEM_ISOTOPIC_ATOM_COUNT>  (1) 
0

>  <PUBCHEM_COMPONENT_COUNT>  (1) 
1

>  <PUBCHEM_CACTVS_TAUTO_COUNT>  (1) 
2

>  <PUBCHEM_CONFORMER_ID>  (1) 
0000BAF600000001

>  <PUBCHEM_MMFF94_ENERGY>  (1) 
93.1266

>  <PUBCHEM_FEATURE_SELFOVERLAP>  (1) 
50.856

>  <PUBCHEM_SHAPE_FINGERPRINT>  (1) 
10674148 151 18202009854812217748
10688039 33 17676202464369690621
1100329 8 18049154768375274924
12107183 9 17550962395181358121
12236239 1 18202282541309615125
12633257 1 18260823778952083883
13140716 1 18408035226099807682
13540713 5 17610893879256841116
14341114 328 18201720661266897441
14790565 3 18191310579375427108
14863182 85 18334868220270275204
15420108 30 18341323500286992566
15475509 35 16371552714510115648
15475509 84 18268985389145838528
19377110 9 18272096037190850643
1979834 28 18412544280192758131
20157964 124 18411419480562479773
20739085 24 18335143072449963908
21033648 29 17986386900571763520
21197605 99 18191312774367342467
21421861 104 18338519616734287089
23559900 14 17415862201652071543
2748010 2 17903884840166692564
3421961 26 18194689168116735431
465052 167 18187079512549570178
474 4 18411420639628532705
5104073 3 18334304150190349753
633830 44 18202563994600272478
8272917 22 18342181042057815535
960060 61 10015581726951486107
9841814 1 18115311055403956259

>  <PUBCHEM_SHAPE_MULTIPOLES>  (1) 
495.76
12.31
4.29
1.38
23.14
2.96
0.52
-4.77
5.34
-4.47
-1.08
-0.57
0.51
-1.24

>  <PUBCHEM_SHAPE_SELFOVERLAP>  (1) 
1044.777

>  <PUBCHEM_SHAPE_VOLUME>  (1) 
282

>  <PUBCHEM_COORDINATE_TYPE>  (1) 
2
5
10

$$$$
