47860
     RDKit          3D

 23 25  0  0  1  0  0  0  0  0999 V2000
   -0.6586    1.0360   -0.2874 O   0  0  0  0  0  0  0  0  0  0  0  0
    2.6015   -2.5188   -0.1488 O   0  0  0  0  0  0  0  0  0  0  0  0
   -0.1900   -1.6964   -0.2027 O   0  0  0  0  0  0  0  0  0  0  0  0
    4.0594    1.9169   -0.2604 O   0  0  0  0  0  0  0  0  0  0  0  0
   -3.5756   -0.5007    0.7861 N   0  0  0  0  0  0  0  0  0  0  0  0
    1.4328    2.8659   -0.3172 N   0  0  0  0  0  0  0  0  0  0  0  0
   -3.5206    0.7243   -0.0213 C   0  0  0  0  0  0  0  0  0  0  0  0
   -4.9333    1.2546   -0.3031 C   0  0  0  0  0  0  0  0  0  0  0  0
   -5.8008    0.1902   -0.9693 C   0  0  0  0  0  0  0  0  0  0  0  0
   -5.7768   -1.1030   -0.1617 C   0  0  0  0  0  0  0  0  0  0  0  0
   -2.6926    1.7734    0.7183 C   0  0  0  0  0  0  0  0  0  0  0  0
   -4.3451   -1.5521    0.1205 C   0  0  0  0  0  0  0  0  0  0  0  0
   -1.2757    1.2899    0.9669 C   0  0  0  0  0  0  0  0  0  0  0  0
    0.6304    0.5707   -0.2598 C   0  0  0  0  0  0  0  0  0  0  0  0
    0.8454   -0.8085   -0.2173 C   0  0  0  0  0  0  0  0  0  0  0  0
    1.6940    1.4740   -0.2738 C   0  0  0  0  0  0  0  0  0  0  0  0
    2.1751   -1.2251   -0.1905 C   0  0  0  0  0  0  0  0  0  0  0  0
    3.2640   -0.3596   -0.2037 C   0  0  0  0  0  0  0  0  0  0  0  0
    3.0214    1.0245   -0.2459 C   0  0  0  0  0  0  0  0  0  0  0  0
    4.4163   -1.1885   -0.1671 C   0  0  0  0  0  0  0  0  0  0  0  0
    3.9598   -2.4860   -0.1351 C   0  0  0  0  0  0  0  0  0  0  0  0
   -0.2792   -2.5669    0.9226 C   0  0  0  0  0  0  0  0  0  0  0  0
    4.9483    1.8851    0.8507 C   0  0  0  0  0  0  0  0  0  0  0  0
  1 13  1  0
  1 14  1  0
  2 17  1  0
  2 21  1  0
  3 15  1  0
  3 22  1  0
  4 19  1  0
  4 23  1  0
  5  7  1  0
  5 12  1  0
  6 16  1  0
  7  8  1  0
  7 11  1  0
  8  9  1  0
  9 10  1  0
 10 12  1  0
 11 13  1  0
 14 15  1  0
 14 16  2  0
 15 17  2  0
 16 19  1  0
 17 18  1  0
 18 19  2  0
 18 20  1  0
 20 21  2  0
M  END
>  <PUBCHEM_COMPOUND_CID>  (1) 
47860

>  <PUBCHEM_CONFORMER_RMSD>  (1) 
0.8

>  <PUBCHEM_CONFORMER_DIVERSEORDER>  (1) 
1
68
103
11
90
58
107
28
84
117
109
60
45
65
49
76
16
71
14
2
99
22
81
33
86
8
64
15
10
108
61
63
27
105
70
52
82
5
77
75
55
97
87
53
39
69
13
37
30
62
96
59
35
21
102
94
116
51
36
19
46
110
34
112
92
32
66
101
73
3
56
104
23
54
79
29
72
41
95
17
26
40
31
12
7
9
43
57
42
113
100
6
88
24
44
67
20
47
111
89
114
83
38
48
78
4
85
25
115
91
50
98
80
18
93
74
106

>  <PUBCHEM_MMFF94_PARTIAL_CHARGES>  (1) 
23
1 -0.36
12 0.27
13 0.28
14 0.08
15 0.08
16 0.1
17 0.14
19 0.08
2 -0.28
20 -0.15
21 -0.01
22 0.28
23 0.28
3 -0.36
35 0.36
38 0.15
39 0.4
4 -0.36
40 0.4
41 0.15
5 -0.9
6 -0.9
7 0.27

>  <PUBCHEM_EFFECTIVE_ROTOR_COUNT>  (1) 
7.2

>  <PUBCHEM_PHARMACOPHORE_FEATURES>  (1) 
11
1 1 acceptor
1 2 acceptor
1 3 acceptor
1 4 acceptor
1 5 cation
1 5 donor
1 6 cation
1 6 donor
5 2 17 18 20 21 rings
6 14 15 16 17 18 19 rings
6 5 7 8 9 10 12 rings

>  <PUBCHEM_HEAVY_ATOM_COUNT>  (1) 
23

>  <PUBCHEM_ATOM_DEF_STEREO_COUNT>  (1) 
0

>  <PUBCHEM_ATOM_UDEF_STEREO_COUNT>  (1) 
1

>  <PUBCHEM_BOND_DEF_STEREO_COUNT>  (1) 
0

>  <PUBCHEM_BOND_UDEF_STEREO_COUNT>  (1) 
0

>  <PUBCHEM_ISOTOPIC_ATOM_COUNT>  (1) 
0

>  <PUBCHEM_COMPONENT_COUNT>  (1) 
1

>  <PUBCHEM_CACTVS_TAUTO_COUNT>  (1) 
1

>  <PUBCHEM_CONFORMER_ID>  (1) 
0000BAF400000001

>  <PUBCHEM_MMFF94_ENERGY>  (1) 
70.3237

>  <PUBCHEM_FEATURE_SELFOVERLAP>  (1) 
55.93

>  <PUBCHEM_SHAPE_FINGERPRINT>  (1) 
10447042 23 18272363187876518789
10835480 77 18410846664727022293
11680986 33 18336559290982162538
11806522 49 18411420570650599597
12107183 9 17765723416722776977
12236239 1 17989203724945086981
12403259 226 18337106748783215028
12403260 363 18338517417890386000
12925494 130 17553469689837296824
13140716 1 18195809570496964344
13167823 11 18342175536189115453
13533116 47 18272368667832730121
13862211 1 18264770952929333698
13944108 23 15012576915273121493
14341114 176 18411425012026572407
14787075 74 18201999966689252257
15196674 1 18411139130329078351
17349148 13 18271530810145074523
17492 89 18341336604443806775
200 152 18272368651280660197
20028762 73 18272646801394444087
20645477 70 18408603634544685878
21267235 1 18341341002136487326
21673915 165 18411138052086545789
221490 88 18335993029445393139
22393880 68 18114738223215713199
23559900 14 18410853269879814705
2748010 2 18338804511417542854
2871803 45 18335136467232990743
3004659 81 18334293132939728291
33824 294 18408885135581363576
350125 39 18411136922937356438
4073 2 18187369856923254297
4214541 1 18338517439845536589
42630746 31 18341891901060301580
4280585 95 17334221130522224799
4340502 62 18341888632437377496
439807 62 18341325700423708383
474229 33 18341331196915729653
5104073 3 18341055133787807833
5283173 99 18188202088463046517
59755656 215 18410015451231596900
602551 16 15338826612611073629
7495541 125 17131822158059399667
9709674 26 18334302002295199091

>  <PUBCHEM_SHAPE_MULTIPOLES>  (1) 
439.89
12.19
2.96
0.83
11.3
0.41
0.1
0.39
-1.15
-2.43
0.28
0.28
-0.07
0.31

>  <PUBCHEM_SHAPE_SELFOVERLAP>  (1) 
933.918

>  <PUBCHEM_SHAPE_VOLUME>  (1) 
247.2

>  <PUBCHEM_COORDINATE_TYPE>  (1) 
2
5
10

$$$$
