47867
     RDKit          3D

 18 19  0  0  1  0  0  0  0  0999 V2000
    0.1025   -1.5712   -1.3021 O   0  0  0  0  0  0  0  0  0  0  0  0
   -3.1250    0.7091    1.2124 O   0  0  0  0  0  0  0  0  0  0  0  0
   -2.0615   -2.3175   -1.1988 O   0  0  0  0  0  0  0  0  0  0  0  0
   -2.3655   -1.3546    1.8570 O   0  0  0  0  0  0  0  0  0  0  0  0
    2.9553    0.3035    0.1399 N   0  0  0  0  0  0  0  0  0  0  0  0
   -1.4179   -0.2462   -0.0928 C   0  0  0  0  0  0  0  0  0  0  0  0
   -0.0018    0.1000    0.3297 C   0  0  0  0  0  0  0  0  0  0  0  0
   -2.1191    0.8356   -0.8943 C   0  0  0  0  0  0  0  0  0  0  0  0
    0.8193   -0.4211   -0.8325 C   0  0  0  0  0  0  0  0  0  0  0  0
   -2.7914    1.6557    0.1880 C   0  0  0  0  0  0  0  0  0  0  0  0
   -1.2067   -1.4943   -0.9094 C   0  0  0  0  0  0  0  0  0  0  0  0
   -2.3312   -0.4001    1.0953 C   0  0  0  0  0  0  0  0  0  0  0  0
    2.2284   -0.8213   -0.4371 C   0  0  0  0  0  0  0  0  0  0  0  0
   -4.0481    2.3593   -0.2891 C   0  0  0  0  0  0  0  0  0  0  0  0
    3.0512    1.4029   -0.8219 C   0  0  0  0  0  0  0  0  0  0  0  0
    4.2913   -0.1128    0.5702 C   0  0  0  0  0  0  0  0  0  0  0  0
    3.8069    2.5824   -0.2337 C   0  0  0  0  0  0  0  0  0  0  0  0
    4.2135   -1.2095    1.6188 C   0  0  0  0  0  0  0  0  0  0  0  0
  1  9  1  0
  1 11  1  0
  2 10  1  0
  2 12  1  0
  3 11  2  0
  4 12  2  0
  5 13  1  0
  5 15  1  0
  5 16  1  0
  6  7  1  0
  6  8  1  0
  6 11  1  0
  6 12  1  0
  7  9  1  0
  8 10  1  0
  9 13  1  0
 10 14  1  0
 15 17  1  0
 16 18  1  0
M  END
>  <PUBCHEM_COMPOUND_CID>  (1) 
47867

>  <PUBCHEM_CONFORMER_RMSD>  (1) 
0.6

>  <PUBCHEM_CONFORMER_DIVERSEORDER>  (1) 
1
66
6
5
61
95
96
35
12
51
57
50
2
41
32
13
98
65
49
24
27
73
17
92
18
37
68
94
36
58
30
56
86
54
9
97
42
19
87
45
77
4
69
38
48
89
3
8
47
64
31
93
59
11
83
29
75
91
15
23
90
70
26
85
80
25
84
40
63
7
81
62
100
21
67
33
39
10
99
28
78
16
71
76
52
46
20
43
88
22
82
79
72
53
14
44
34
60
74
55

>  <PUBCHEM_MMFF94_PARTIAL_CHARGES>  (1) 
13
1 -0.43
10 0.28
11 0.66
12 0.66
13 0.27
15 0.27
16 0.27
2 -0.43
3 -0.57
4 -0.57
5 -0.81
6 0.12
9 0.28

>  <PUBCHEM_EFFECTIVE_ROTOR_COUNT>  (1) 
5.2

>  <PUBCHEM_PHARMACOPHORE_FEATURES>  (1) 
5
1 3 acceptor
1 4 acceptor
1 5 cation
5 1 6 7 9 11 rings
5 2 6 8 10 12 rings

>  <PUBCHEM_HEAVY_ATOM_COUNT>  (1) 
18

>  <PUBCHEM_ATOM_DEF_STEREO_COUNT>  (1) 
0

>  <PUBCHEM_ATOM_UDEF_STEREO_COUNT>  (1) 
3

>  <PUBCHEM_BOND_DEF_STEREO_COUNT>  (1) 
0

>  <PUBCHEM_BOND_UDEF_STEREO_COUNT>  (1) 
0

>  <PUBCHEM_ISOTOPIC_ATOM_COUNT>  (1) 
0

>  <PUBCHEM_COMPONENT_COUNT>  (1) 
1

>  <PUBCHEM_CACTVS_TAUTO_COUNT>  (1) 
1

>  <PUBCHEM_CONFORMER_ID>  (1) 
0000BAFB00000001

>  <PUBCHEM_MMFF94_ENERGY>  (1) 
29.7357

>  <PUBCHEM_FEATURE_SELFOVERLAP>  (1) 
25.39

>  <PUBCHEM_SHAPE_FINGERPRINT>  (1) 
11725454 13 17824527596679191941
12077114 3 18412544275660459328
12119455 92 18265888069326921213
122479 349 18335706009613357181
12403814 3 18340494486021142099
12633257 1 17822285726550112112
12670546 56 17967249801784462201
12892183 10 17895204349587425144
12932764 1 18339085998778014852
13004483 165 18118404192425432411
13296908 3 15285348540395020998
13533116 47 17821727238878093307
13583140 156 18040716961017958032
14289901 80 17531824570044002128
14957384 54 18335130956368372516
15239191 94 14057002706954592120
15342168 16 17844833437429285665
16945 1 18131360699627538278
18186145 218 17631748062037350924
18219364 16 17989212550780925729
20361792 2 13045951238781621670
21065199 12 18040441013964948296
21524375 3 18264485088290103981
21864079 5 18340209695403973836
22169311 14 17894633621638082680
23402539 116 18187081755112770423
23557571 272 15266483179746027550
23559900 14 18193849149759609214
23598291 2 18336822091673068550
27216 239 18410017671212970905
2748010 2 18055660359548662527
312423 11 18262519307560047310
351380 180 18261950726640990525
474 4 18198629822148968385
7097593 13 17822014228787671860
7615 1 18339911732042077774
83771 10 8862643716838223797

>  <PUBCHEM_SHAPE_MULTIPOLES>  (1) 
341.97
8.04
2.38
1.39
5.05
0.88
0.28
3.54
2.37
-0.35
-0.41
-0.24
-0.7
-0.74

>  <PUBCHEM_SHAPE_SELFOVERLAP>  (1) 
706.023

>  <PUBCHEM_SHAPE_VOLUME>  (1) 
200.9

>  <PUBCHEM_COORDINATE_TYPE>  (1) 
2
5
10

$$$$
