47870
     RDKit          3D

 19 21  0  0  1  0  0  0  0  0999 V2000
   -0.5008    1.9550    0.9446 O   0  0  0  0  0  0  0  0  0  0  0  0
   -3.3258   -1.2088   -1.0426 O   0  0  0  0  0  0  0  0  0  0  0  0
   -2.7531    2.3324    0.7565 O   0  0  0  0  0  0  0  0  0  0  0  0
   -2.8883    0.7937   -2.0668 O   0  0  0  0  0  0  0  0  0  0  0  0
    2.6291    0.3029   -0.1737 N   0  0  0  0  0  0  0  0  0  0  0  0
   -1.7931    0.2164    0.0296 C   0  0  0  0  0  0  0  0  0  0  0  0
   -0.3381    0.0182   -0.3550 C   0  0  0  0  0  0  0  0  0  0  0  0
    0.3867    0.8610    0.6750 C   0  0  0  0  0  0  0  0  0  0  0  0
   -2.3244   -0.7948    1.0291 C   0  0  0  0  0  0  0  0  0  0  0  0
    1.7198    1.3918    0.1822 C   0  0  0  0  0  0  0  0  0  0  0  0
   -2.8568   -1.8911    0.1285 C   0  0  0  0  0  0  0  0  0  0  0  0
   -1.7805    1.6098    0.6018 C   0  0  0  0  0  0  0  0  0  0  0  0
   -2.7123    0.0106   -1.1460 C   0  0  0  0  0  0  0  0  0  0  0  0
    2.9132   -0.5341    1.0006 C   0  0  0  0  0  0  0  0  0  0  0  0
    3.8677    0.8373   -0.7571 C   0  0  0  0  0  0  0  0  0  0  0  0
    3.8241   -1.7071    0.6349 C   0  0  0  0  0  0  0  0  0  0  0  0
    4.8099   -0.2906   -1.1801 C   0  0  0  0  0  0  0  0  0  0  0  0
    5.1160   -1.2242   -0.0144 C   0  0  0  0  0  0  0  0  0  0  0  0
   -3.9934   -2.6784    0.7532 C   0  0  0  0  0  0  0  0  0  0  0  0
  1  8  1  0
  1 12  1  0
  2 11  1  0
  2 13  1  0
  3 12  2  0
  4 13  2  0
  5 10  1  0
  5 14  1  0
  5 15  1  0
  6  7  1  0
  6  9  1  0
  6 12  1  0
  6 13  1  0
  7  8  1  0
  8 10  1  0
  9 11  1  0
 11 19  1  0
 14 16  1  0
 15 17  1  0
 16 18  1  0
 17 18  1  0
M  END
>  <PUBCHEM_COMPOUND_CID>  (1) 
47870

>  <PUBCHEM_CONFORMER_RMSD>  (1) 
0.6

>  <PUBCHEM_CONFORMER_DIVERSEORDER>  (1) 
1
56
98
15
95
78
47
99
12
11
68
44
94
17
65
92
89
26
91
43
81
49
5
83
52
90
60
9
63
14
101
64
3
97
55
6
69
18
75
10
100
4
16
59
37
7
40
84
71
19
80
20
88
82
31
35
39
79
50
85
23
62
76
32
36
73
87
33
72
41
8
46
45
2
28
67
29
30
34
77
61
21
93
27
25
57
42
70
58
66
24
96
22
51
13
53
74
38
54
48
86

>  <PUBCHEM_MMFF94_PARTIAL_CHARGES>  (1) 
13
1 -0.43
10 0.27
11 0.28
12 0.66
13 0.66
14 0.27
15 0.27
2 -0.43
3 -0.57
4 -0.57
5 -0.81
6 0.12
8 0.28

>  <PUBCHEM_EFFECTIVE_ROTOR_COUNT>  (1) 
4.4

>  <PUBCHEM_PHARMACOPHORE_FEATURES>  (1) 
6
1 3 acceptor
1 4 acceptor
1 5 cation
5 1 6 7 8 12 rings
5 2 6 9 11 13 rings
6 5 14 15 16 17 18 rings

>  <PUBCHEM_HEAVY_ATOM_COUNT>  (1) 
19

>  <PUBCHEM_ATOM_DEF_STEREO_COUNT>  (1) 
0

>  <PUBCHEM_ATOM_UDEF_STEREO_COUNT>  (1) 
3

>  <PUBCHEM_BOND_DEF_STEREO_COUNT>  (1) 
0

>  <PUBCHEM_BOND_UDEF_STEREO_COUNT>  (1) 
0

>  <PUBCHEM_ISOTOPIC_ATOM_COUNT>  (1) 
0

>  <PUBCHEM_COMPONENT_COUNT>  (1) 
1

>  <PUBCHEM_CACTVS_TAUTO_COUNT>  (1) 
1

>  <PUBCHEM_CONFORMER_ID>  (1) 
0000BAFE00000001

>  <PUBCHEM_MMFF94_ENERGY>  (1) 
25.0958

>  <PUBCHEM_FEATURE_SELFOVERLAP>  (1) 
30.465

>  <PUBCHEM_SHAPE_FINGERPRINT>  (1) 
10062212 137 18341612564607909274
10498660 4 11746935395494547814
10616163 171 18341055125219367642
11046707 91 18131351891108452432
11315181 36 18407757024362371618
11543360 7 17530964721981021950
12346177 29 17846209995474083804
12363563 72 18060414742031401700
12553582 1 18130787910073093678
12670546 177 17821728351506575230
12707595 3 18201997767945480296
12714826 92 17846785095873895248
12916754 54 18187368757032013108
12969540 37 17257371276636883375
13103583 49 17913238574241524115
13140716 1 18130792247826877216
13224815 77 17846494833763160422
13296908 3 18130782369813156296
14123260 362 12324239455804276774
14251764 30 17532950513365190323
14576447 43 18334018315690028994
15239191 94 17917994996833312622
16752209 62 18200582623096946814
17834072 32 8862953774595780274
18186145 218 17530971250595205336
18219364 16 11097852982265516263
18915474 69 18408045096271939110
18927931 339 18060422387458395246
193927 3 18272658956525664782
19422 9 18408328774413690432
19862831 5 18040709260405190866
200 152 18408884053286599650
20281475 54 18335139765688713970
20291156 8 18340771528417523370
20871999 31 17749104513021972279
21713013 43 18114459049803584982
22393880 68 17822284674510172358
22646028 28 18413106152320488486
23402539 116 18341052918096229324
23403322 49 18410855481635010582
235170 7 16950833808338622030
23559900 14 18339912792846681200
23598288 3 18202293506472157965
27216 239 10087643714915193311
2871803 45 17968936521220011354
312423 11 18270131209226433296
312425 83 16950276266012536902
3759504 43 18265619775942913169
4280585 95 17540243256318148730
465052 167 18128547157068677375
4921388 177 16588312704188890323
5104073 3 18202002114800537856
559249 180 18196931067924821038
58051976 100 18408886221923395901
59027123 10 17095523976813316758
633830 44 15285640941726185196
7970288 3 18201157766626981286
90316 7 14692302771651487795

>  <PUBCHEM_SHAPE_MULTIPOLES>  (1) 
362.55
9.58
2.31
1.28
8.93
0.42
0.4
5.1
1.76
-2.03
-0.69
-0.55
-0.18
-0.15

>  <PUBCHEM_SHAPE_SELFOVERLAP>  (1) 
764.741

>  <PUBCHEM_SHAPE_VOLUME>  (1) 
206.8

>  <PUBCHEM_COORDINATE_TYPE>  (1) 
2
5
10

$$$$
