47877
     RDKit          3D

 21 21  0  0  0  0  0  0  0  0999 V2000
   -5.4545   -2.2566   -0.7840 Cl  0  0  0  0  0  0  0  0  0  0  0  0
   -3.8362    3.2315    0.9335 Cl  0  0  0  0  0  0  0  0  0  0  0  0
    3.8766   -0.5707   -0.0974 O   0  0  0  0  0  0  0  0  0  0  0  0
    2.2547    1.0319    0.2510 O   0  0  0  0  0  0  0  0  0  0  0  0
   -3.8505    0.2688    0.0242 N   0  0  0  0  0  0  0  0  0  0  0  0
   -2.4940   -0.1126   -0.0348 C   0  0  0  0  0  0  0  0  0  0  0  0
   -4.7371   -0.3220    1.0068 C   0  0  0  0  0  0  0  0  0  0  0  0
   -4.3724    1.2671   -0.8880 C   0  0  0  0  0  0  0  0  0  0  0  0
    0.1890   -0.8676   -0.1513 C   0  0  0  0  0  0  0  0  0  0  0  0
   -1.8124   -0.0794   -1.2513 C   0  0  0  0  0  0  0  0  0  0  0  0
   -1.8341   -0.5233    1.1236 C   0  0  0  0  0  0  0  0  0  0  0  0
    1.6383   -1.2755   -0.2144 C   0  0  0  0  0  0  0  0  0  0  0  0
   -0.4709   -0.4569   -1.3096 C   0  0  0  0  0  0  0  0  0  0  0  0
   -0.4926   -0.9008    1.0653 C   0  0  0  0  0  0  0  0  0  0  0  0
    6.2508   -0.2619   -0.0618 C   0  0  0  0  0  0  0  0  0  0  0  0
   -4.8242   -1.8294    0.8264 C   0  0  0  0  0  0  0  0  0  0  0  0
   -3.6474    2.5930   -0.7188 C   0  0  0  0  0  0  0  0  0  0  0  0
    4.8916    0.4057    0.0914 C   0  0  0  0  0  0  0  0  0  0  0  0
    7.3922    0.7297    0.1450 C   0  0  0  0  0  0  0  0  0  0  0  0
    2.5857   -0.1212    0.0102 C   0  0  0  0  0  0  0  0  0  0  0  0
    8.7476    0.0502    0.0340 C   0  0  0  0  0  0  0  0  0  0  0  0
  1 16  1  0
  2 17  1  0
  3 18  1  0
  3 20  1  0
  4 20  2  0
  5  6  1  0
  5  7  1  0
  5  8  1  0
  6 10  2  0
  6 11  1  0
  7 16  1  0
  8 17  1  0
  9 12  1  0
  9 13  2  0
  9 14  1  0
 10 13  1  0
 11 14  2  0
 12 20  1  0
 15 18  1  0
 15 19  1  0
 19 21  1  0
M  END
>  <PUBCHEM_COMPOUND_CID>  (1) 
47877

>  <PUBCHEM_CONFORMER_RMSD>  (1) 
1

>  <PUBCHEM_CONFORMER_DIVERSEORDER>  (1) 
1
77
34
59
37
81
51
46
2
31
63
53
70
93
32
49
33
92
44
6
52
17
76
91
50
21
48
57
24
10
84
54
11
58
73
78
25
62
9
19
39
28
61
56
20
3
90
55
4
64
15
42
72
80
41
82
85
45
30
40
89
88
35
38
79
71
75
67
65
8
83
87
74
27
68
5
43
36
47
26
14
29
13
69
66
18
7
12
22
86
23
16
60

>  <PUBCHEM_MMFF94_PARTIAL_CHARGES>  (1) 
22
1 -0.29
10 -0.15
11 -0.15
12 0.2
13 -0.15
14 -0.15
16 0.29
17 0.29
18 0.28
2 -0.29
20 0.66
26 0.15
27 0.15
3 -0.43
30 0.15
31 0.15
4 -0.57
5 -0.84
6 0.1
7 0.37
8 0.37
9 -0.14

>  <PUBCHEM_EFFECTIVE_ROTOR_COUNT>  (1) 
11

>  <PUBCHEM_PHARMACOPHORE_FEATURES>  (1) 
4
1 21 hydrophobe
1 4 acceptor
1 5 cation
6 6 9 10 11 13 14 rings

>  <PUBCHEM_HEAVY_ATOM_COUNT>  (1) 
21

>  <PUBCHEM_ATOM_DEF_STEREO_COUNT>  (1) 
0

>  <PUBCHEM_ATOM_UDEF_STEREO_COUNT>  (1) 
0

>  <PUBCHEM_BOND_DEF_STEREO_COUNT>  (1) 
0

>  <PUBCHEM_BOND_UDEF_STEREO_COUNT>  (1) 
0

>  <PUBCHEM_ISOTOPIC_ATOM_COUNT>  (1) 
0

>  <PUBCHEM_COMPONENT_COUNT>  (1) 
1

>  <PUBCHEM_CACTVS_TAUTO_COUNT>  (1) 
1

>  <PUBCHEM_CONFORMER_ID>  (1) 
0000BB0500000001

>  <PUBCHEM_MMFF94_ENERGY>  (1) 
46.8605

>  <PUBCHEM_FEATURE_SELFOVERLAP>  (1) 
20.297

>  <PUBCHEM_SHAPE_FINGERPRINT>  (1) 
11135926 11 15626226793359946516
11315181 36 16877665690318137822
12091667 2 18334857229491356994
12236239 1 17489592260023538818
12616971 3 14404901431493157168
13073987 5 18334576802808550202
14251752 14 18272366435335985392
14251764 18 17748541555291038770
15183329 4 15913325776304635678
15209294 21 17822856364616325093
15778101 99 18339927004751025577
17093844 174 8862942762294046918
17844677 252 18410017658375496268
18927931 339 18187091680529542571
19489759 90 18040998449079939683
20281389 69 18413106178602079904
21315763 28 18408040737075150064
220451 1 12247685959195003238
22956985 138 17397556776185336827
23402539 116 18113898282331872855
23557571 272 18412548704700007005
23559900 14 17531809193913110003
2838139 119 18131346402256955296
4325135 7 18342738554825636015
5104073 3 17968944071851340682
54446538 1 18260550052212211884
57583515 80 11674871200044413022
59755656 520 18410288151411533702
9996256 80 18411135861764313022

>  <PUBCHEM_SHAPE_MULTIPOLES>  (1) 
419.19
18.72
2.29
1.12
45.86
1.76
-0.03
1.25
0.71
-5.43
0.15
-1.31
-0.02
0.09

>  <PUBCHEM_SHAPE_SELFOVERLAP>  (1) 
815.504

>  <PUBCHEM_SHAPE_VOLUME>  (1) 
254.6

>  <PUBCHEM_COORDINATE_TYPE>  (1) 
2
5
10

$$$$
