47871
     RDKit          3D

 20 22  0  0  1  0  0  0  0  0999 V2000
   -0.9826    1.8394    0.7816 O   0  0  0  0  0  0  0  0  0  0  0  0
   -3.7967   -1.4102   -0.8869 O   0  0  0  0  0  0  0  0  0  0  0  0
   -3.2432    1.9528    0.4372 O   0  0  0  0  0  0  0  0  0  0  0  0
   -2.8291    0.0097   -2.3936 O   0  0  0  0  0  0  0  0  0  0  0  0
    2.3684    0.5494   -0.1533 N   0  0  0  0  0  0  0  0  0  0  0  0
    4.9958   -0.6013    0.2087 N   0  0  0  0  0  0  0  0  0  0  0  0
   -2.0133   -0.0855   -0.1047 C   0  0  0  0  0  0  0  0  0  0  0  0
   -0.5338   -0.0841   -0.4540 C   0  0  0  0  0  0  0  0  0  0  0  0
    0.0412    0.8548    0.5856 C   0  0  0  0  0  0  0  0  0  0  0  0
   -2.3787   -1.1029    0.9652 C   0  0  0  0  0  0  0  0  0  0  0  0
    1.3243    1.5295    0.1386 C   0  0  0  0  0  0  0  0  0  0  0  0
   -3.7242   -1.6485    0.5245 C   0  0  0  0  0  0  0  0  0  0  0  0
   -2.1924    1.3328    0.3846 C   0  0  0  0  0  0  0  0  0  0  0  0
   -2.8901   -0.4627   -1.2682 C   0  0  0  0  0  0  0  0  0  0  0  0
    2.6999   -0.2318    1.0444 C   0  0  0  0  0  0  0  0  0  0  0  0
    3.5685    1.2082   -0.6835 C   0  0  0  0  0  0  0  0  0  0  0  0
    3.7955   -1.2592    0.7393 C   0  0  0  0  0  0  0  0  0  0  0  0
    4.6649    0.1816   -0.9881 C   0  0  0  0  0  0  0  0  0  0  0  0
   -4.9130   -0.9897    1.2073 C   0  0  0  0  0  0  0  0  0  0  0  0
    6.0387   -1.5824   -0.0847 C   0  0  0  0  0  0  0  0  0  0  0  0
  1  9  1  0
  1 13  1  0
  2 12  1  0
  2 14  1  0
  3 13  2  0
  4 14  2  0
  5 11  1  0
  5 15  1  0
  5 16  1  0
  6 17  1  0
  6 18  1  0
  6 20  1  0
  7  8  1  0
  7 10  1  0
  7 13  1  0
  7 14  1  0
  8  9  1  0
  9 11  1  0
 10 12  1  0
 12 19  1  0
 15 17  1  0
 16 18  1  0
M  END
>  <PUBCHEM_COMPOUND_CID>  (1) 
47871

>  <PUBCHEM_CONFORMER_RMSD>  (1) 
0.6

>  <PUBCHEM_CONFORMER_DIVERSEORDER>  (1) 
7
95
60
98
51
85
30
96
18
102
41
6
79
105
46
94
3
11
63
57
107
5
90
27
26
101
4
104
61
109
28
49
20
84
108
2
25
39
73
103
24
114
91
12
13
55
17
83
21
82
42
115
9
113
36
47
76
10
88
19
97
31
110
66
37
1
87
44
111
71
38
100
70
56
59
43
62
52
23
40
35
75
74
48
68
16
14
69
33
112
89
15
81
80
93
78
8
92
64
67
22
99
29
50
77
65
45
72
34
54
86
58
53
32
106
116

>  <PUBCHEM_MMFF94_PARTIAL_CHARGES>  (1) 
17
1 -0.43
11 0.27
12 0.28
13 0.66
14 0.66
15 0.27
16 0.27
17 0.27
18 0.27
2 -0.43
20 0.27
3 -0.57
4 -0.57
5 -0.81
6 -0.81
7 0.12
9 0.28

>  <PUBCHEM_EFFECTIVE_ROTOR_COUNT>  (1) 
4.4

>  <PUBCHEM_PHARMACOPHORE_FEATURES>  (1) 
7
1 3 acceptor
1 4 acceptor
1 5 cation
1 6 cation
5 1 7 8 9 13 rings
5 2 7 10 12 14 rings
6 5 6 15 16 17 18 rings

>  <PUBCHEM_HEAVY_ATOM_COUNT>  (1) 
20

>  <PUBCHEM_ATOM_DEF_STEREO_COUNT>  (1) 
0

>  <PUBCHEM_ATOM_UDEF_STEREO_COUNT>  (1) 
3

>  <PUBCHEM_BOND_DEF_STEREO_COUNT>  (1) 
0

>  <PUBCHEM_BOND_UDEF_STEREO_COUNT>  (1) 
0

>  <PUBCHEM_ISOTOPIC_ATOM_COUNT>  (1) 
0

>  <PUBCHEM_COMPONENT_COUNT>  (1) 
1

>  <PUBCHEM_CACTVS_TAUTO_COUNT>  (1) 
1

>  <PUBCHEM_CONFORMER_ID>  (1) 
0000BAFF00000007

>  <PUBCHEM_MMFF94_ENERGY>  (1) 
38.3693

>  <PUBCHEM_FEATURE_SELFOVERLAP>  (1) 
35.54

>  <PUBCHEM_SHAPE_FINGERPRINT>  (1) 
10014705 185 9871752373138651035
10062212 137 18342736295318903540
10498660 4 14129322005818250542
11045515 52 17749106720667311773
11046707 91 18131348605305600640
11315181 36 18333448742727926986
11543360 7 16877940568261920678
12236239 1 18335426738281851992
12346177 29 17846489301423738357
12553582 1 18201435913013527630
12633257 1 15913324710862823266
12670546 177 17312822697362216798
12714826 92 17988927768748209217
12916754 54 17967254225500602276
13103583 49 18053976054133349323
13167823 11 18408608054524975832
13288520 33 18411141320377264616
13583140 156 15697704923078973348
14123255 352 8718824284753283586
14123260 362 11891328733899243486
14251764 30 17970641890147007875
14576447 43 18187085032162501802
15188451 53 16056585604120953983
15788980 27 18202001015130562756
16752209 62 18342442734388689443
17780758 139 16057161700890399682
1813 80 18060147573643878252
18186145 218 17530683204192022144
18927931 339 18131634456843423902
193927 3 18411990160908602470
19422 9 18335144189420821064
19433438 38 17313096454171965794
19862831 5 17967523584453542624
200 152 18335139804148234304
20281475 54 18199185259998282483
204376 136 8574440824024145865
20645477 70 18187369835638496882
20871999 31 16950277408109476279
21267235 1 18336557061830975346
21713013 43 17749667484281541855
22182313 1 17344934948259051477
22393880 68 17385713691307554962
22646028 1 18412824686039058140
22646028 28 18410009940377086298
22950370 63 18339088210564963571
23402539 116 18410292467974192744
235170 7 17095234835109382302
23559900 14 18336819896370234936
23596394 208 17458056088942622056
23598288 3 18202002144612516493
27216 239 10735884988721578183
312423 11 18339371841583926384
351380 3 18342459257360271518
4214541 1 18335704909996214872
4280585 95 17102817952585940162
46194498 28 16733551649125144782
465052 167 18269847573876060335
4921388 177 16371015134643778563
5104073 3 18343864399208848520
5281201 14 17167863084461542636
559249 180 18338796693659120682
5924683 9 13901614273398579853
76465 3 18059285573607019583
7970288 3 18271241724313093238

>  <PUBCHEM_SHAPE_MULTIPOLES>  (1) 
378.15
11.63
1.83
1.31
10.72
0.18
-0.58
-5.86
-0.61
-0.32
0.38
-1.09
-0.03
-0.28

>  <PUBCHEM_SHAPE_SELFOVERLAP>  (1) 
795.257

>  <PUBCHEM_SHAPE_VOLUME>  (1) 
217.2

>  <PUBCHEM_COORDINATE_TYPE>  (1) 
2
5
10

$$$$
