47886
     RDKit          3D

 24 28  0  0  1  0  0  0  0  0999 V2000
   -3.2320    1.7547    1.5251 O   0  0  0  0  0  0  0  0  0  0  0  0
   -4.8062    1.4517   -1.6985 O   0  0  0  0  0  0  0  0  0  0  0  0
   -2.5009   -0.0216    0.0945 C   0  0  0  0  0  0  0  0  0  0  0  0
   -3.2601    1.2967    0.1712 C   0  0  0  0  0  0  0  0  0  0  0  0
   -1.0716   -0.0621    0.0657 C   0  0  0  0  0  0  0  0  0  0  0  0
   -3.2393   -1.2254    0.1181 C   0  0  0  0  0  0  0  0  0  0  0  0
   -4.7285    1.2270   -0.2913 C   0  0  0  0  0  0  0  0  0  0  0  0
   -0.4244   -1.3144    0.0264 C   0  0  0  0  0  0  0  0  0  0  0  0
    1.8166   -0.2418   -0.0067 C   0  0  0  0  0  0  0  0  0  0  0  0
    1.1639    1.0089    0.0453 C   0  0  0  0  0  0  0  0  0  0  0  0
   -0.2422    1.0814    0.0821 C   0  0  0  0  0  0  0  0  0  0  0  0
    0.9823   -1.3850   -0.0129 C   0  0  0  0  0  0  0  0  0  0  0  0
   -4.7031   -1.2162    0.1872 C   0  0  0  0  0  0  0  0  0  0  0  0
   -2.5733   -2.4511    0.0893 C   0  0  0  0  0  0  0  0  0  0  0  0
   -5.3909   -0.0876   -0.0173 C   0  0  0  0  0  0  0  0  0  0  0  0
   -1.1833   -2.4923    0.0355 C   0  0  0  0  0  0  0  0  0  0  0  0
    3.2569   -0.2858   -0.0457 C   0  0  0  0  0  0  0  0  0  0  0  0
    3.9871    0.9308   -0.0297 C   0  0  0  0  0  0  0  0  0  0  0  0
    1.9171    2.1868    0.0608 C   0  0  0  0  0  0  0  0  0  0  0  0
    3.3071    2.1490    0.0238 C   0  0  0  0  0  0  0  0  0  0  0  0
    4.0169   -1.4814   -0.1002 C   0  0  0  0  0  0  0  0  0  0  0  0
    5.3921    0.9238   -0.0666 C   0  0  0  0  0  0  0  0  0  0  0  0
    5.4140   -1.4748   -0.1364 C   0  0  0  0  0  0  0  0  0  0  0  0
    6.1018   -0.2715   -0.1196 C   0  0  0  0  0  0  0  0  0  0  0  0
  1  4  1  0
  2  7  1  0
  3  4  1  0
  3  5  1  0
  3  6  2  0
  4  7  1  0
  5  8  2  0
  5 11  1  0
  6 13  1  0
  6 14  1  0
  7 15  1  0
  8 12  1  0
  8 16  1  0
  9 10  1  0
  9 12  2  0
  9 17  1  0
 10 11  2  0
 10 19  1  0
 13 15  2  0
 14 16  2  0
 17 18  2  0
 17 21  1  0
 18 20  1  0
 18 22  1  0
 19 20  2  0
 21 23  2  0
 22 24  2  0
 23 24  1  0
M  END
>  <PUBCHEM_COMPOUND_CID>  (1) 
47886

>  <PUBCHEM_CONFORMER_RMSD>  (1) 
0.6

>  <PUBCHEM_CONFORMER_DIVERSEORDER>  (1) 
1

>  <PUBCHEM_MMFF94_PARTIAL_CHARGES>  (1) 
32
1 -0.68
11 -0.15
12 -0.15
13 -0.18
14 -0.15
15 -0.29
16 -0.15
19 -0.15
2 -0.68
20 -0.15
21 -0.15
22 -0.15
23 -0.15
24 -0.15
27 0.15
28 0.15
29 0.15
3 -0.14
30 0.15
31 0.15
32 0.15
33 0.15
34 0.15
35 0.4
36 0.15
37 0.4
38 0.15
39 0.15
4 0.42
40 0.15
6 0.03
7 0.42

>  <PUBCHEM_EFFECTIVE_ROTOR_COUNT>  (1) 
0.4

>  <PUBCHEM_PHARMACOPHORE_FEATURES>  (1) 
9
1 1 acceptor
1 1 donor
1 2 acceptor
1 2 donor
6 17 18 21 22 23 24 rings
6 3 4 6 7 13 15 rings
6 3 5 6 8 14 16 rings
6 5 8 9 10 11 12 rings
6 9 10 17 18 19 20 rings

>  <PUBCHEM_HEAVY_ATOM_COUNT>  (1) 
24

>  <PUBCHEM_ATOM_DEF_STEREO_COUNT>  (1) 
2

>  <PUBCHEM_ATOM_UDEF_STEREO_COUNT>  (1) 
0

>  <PUBCHEM_BOND_DEF_STEREO_COUNT>  (1) 
0

>  <PUBCHEM_BOND_UDEF_STEREO_COUNT>  (1) 
0

>  <PUBCHEM_ISOTOPIC_ATOM_COUNT>  (1) 
0

>  <PUBCHEM_COMPONENT_COUNT>  (1) 
1

>  <PUBCHEM_CACTVS_TAUTO_COUNT>  (1) 
1

>  <PUBCHEM_CONFORMER_ID>  (1) 
0000BB0E00000001

>  <PUBCHEM_MMFF94_ENERGY>  (1) 
81.2965

>  <PUBCHEM_FEATURE_SELFOVERLAP>  (1) 
45.764

>  <PUBCHEM_SHAPE_FINGERPRINT>  (1) 
11315181 36 18343587352132240944
11578080 2 16986857181008570122
12107183 9 17907583519271539330
12166972 35 18335423503939778861
12236239 1 17894911832561103986
12403259 415 18408035226126142405
12788726 201 18059857195115463672
13140716 1 18411708711268867432
13402501 40 18409729547352313292
13583140 156 17676777521587291449
14341114 176 18410863191132611266
14790565 3 18409172086683737004
14866123 147 17551241666539236634
15042514 8 18120660390612721459
15099037 51 18410573972382710830
15183329 4 18411421691811137138
15196674 1 18410575110744177522
15256400 18 18412266133736658456
15788980 27 18113059337326141440
17349148 13 17917998269229146552
17492 89 18120938562078885034
17844677 252 18336836384612027264
1813 80 17167859790332578380
19141452 34 18410293640020392246
200 152 17775284958504968353
20511986 3 18338503219103077610
20775438 99 16477354565492399215
21033648 144 18340196492321188612
21033648 29 18114730590748189581
21033650 10 16557373499456197448
21065198 57 18338236101853851826
21133410 127 17681261489031273493
21236236 1 18411981382069380439
21267235 1 18410865381613775202
21279426 13 18337671902022886174
21421861 104 17822558414514475834
21709351 56 18408598184442320701
21859007 373 17970604360343239820
221490 88 18192438678399515626
22393880 68 18261101972525852623
23402539 116 18273492394823724727
23559900 14 18271239517057917136
3004659 81 18261114059207401886
335352 9 18410575071830944462
34797466 226 16773522157091951096
34934 24 18410569605044652898
350125 39 18410859880129570433
3545911 37 18411702109909427385
3680242 22 18261389989102096978
4017518 198 17274826836093962758
4073 2 17968945318098841938
4214541 1 18410857680631535115
460360 51 18266766643383878386
495365 180 17489016176101948000
5104073 3 18411138065198230426
5283173 99 18335979779144575173
542803 24 17312823792547034014
559249 180 18408037399321455090
59755656 215 18408603630270967238
6138700 20 18337675200980158482
6328613 192 18334866043386909876
633830 44 17095522950194949728
9709674 26 18192997234195483970

>  <PUBCHEM_SHAPE_MULTIPOLES>  (1) 
482.17
13.1
2.47
0.78
4.28
0.27
0.05
-0.71
1.17
-0.41
-0.06
-0.66
-0.26
0.34

>  <PUBCHEM_SHAPE_SELFOVERLAP>  (1) 
1106.654

>  <PUBCHEM_SHAPE_VOLUME>  (1) 
248.7

>  <PUBCHEM_COORDINATE_TYPE>  (1) 
2
5
10

$$$$
