47885
     RDKit          3D

 21 24  0  0  0  0  0  0  0  0999 V2000
    4.4478    2.4806    0.0008 O   0  0  0  0  0  0  0  0  0  0  0  0
    0.2553   -0.0900   -0.0002 C   0  0  0  0  0  0  0  0  0  0  0  0
   -0.3490   -1.3711    0.0000 C   0  0  0  0  0  0  0  0  0  0  0  0
   -0.6201    1.0262   -0.0002 C   0  0  0  0  0  0  0  0  0  0  0  0
   -1.7487   -1.5036    0.0001 C   0  0  0  0  0  0  0  0  0  0  0  0
   -2.0224    0.8990   -0.0001 C   0  0  0  0  0  0  0  0  0  0  0  0
   -2.5941   -0.3860    0.0001 C   0  0  0  0  0  0  0  0  0  0  0  0
    1.6929    0.0087   -0.0002 C   0  0  0  0  0  0  0  0  0  0  0  0
    2.4691   -1.1797   -0.0001 C   0  0  0  0  0  0  0  0  0  0  0  0
    0.4488   -2.5186    0.0002 C   0  0  0  0  0  0  0  0  0  0  0  0
    1.8363   -2.4247    0.0002 C   0  0  0  0  0  0  0  0  0  0  0  0
   -0.1443    2.4509   -0.0002 C   0  0  0  0  0  0  0  0  0  0  0  0
   -2.3669   -2.8777   -0.0002 C   0  0  0  0  0  0  0  0  0  0  0  0
   -2.8654    2.0239   -0.0002 C   0  0  0  0  0  0  0  0  0  0  0  0
   -3.9931   -0.5201    0.0002 C   0  0  0  0  0  0  0  0  0  0  0  0
    2.4076    1.2331   -0.0004 C   0  0  0  0  0  0  0  0  0  0  0  0
    3.8732   -1.1183    0.0000 C   0  0  0  0  0  0  0  0  0  0  0  0
   -4.2528    1.8772    0.0002 C   0  0  0  0  0  0  0  0  0  0  0  0
   -4.8164    0.6057    0.0002 C   0  0  0  0  0  0  0  0  0  0  0  0
    3.8045    1.2805   -0.0003 C   0  0  0  0  0  0  0  0  0  0  0  0
    4.5375    0.1041    0.0000 C   0  0  0  0  0  0  0  0  0  0  0  0
  1 20  1  0
  2  3  1  0
  2  4  2  0
  2  8  1  0
  3  5  2  0
  3 10  1  0
  4  6  1  0
  4 12  1  0
  5  7  1  0
  5 13  1  0
  6  7  2  0
  6 14  1  0
  7 15  1  0
  8  9  2  0
  8 16  1  0
  9 11  1  0
  9 17  1  0
 10 11  2  0
 14 18  2  0
 15 19  2  0
 16 20  2  0
 17 21  2  0
 18 19  1  0
 20 21  1  0
M  END
>  <PUBCHEM_COMPOUND_CID>  (1) 
47885

>  <PUBCHEM_CONFORMER_RMSD>  (1) 
0.6

>  <PUBCHEM_CONFORMER_DIVERSEORDER>  (1) 
1

>  <PUBCHEM_MMFF94_PARTIAL_CHARGES>  (1) 
25
1 -0.53
10 -0.15
11 -0.15
12 0.14
13 0.14
14 -0.15
15 -0.15
16 -0.15
17 -0.15
18 -0.15
19 -0.15
20 0.08
21 -0.15
22 0.15
23 0.15
30 0.15
31 0.15
32 0.15
33 0.15
34 0.15
35 0.15
36 0.15
37 0.45
4 -0.14
5 -0.14

>  <PUBCHEM_EFFECTIVE_ROTOR_COUNT>  (1) 
0

>  <PUBCHEM_PHARMACOPHORE_FEATURES>  (1) 
5
1 1 donor
6 2 3 4 5 6 7 rings
6 2 3 8 9 10 11 rings
6 6 7 14 15 18 19 rings
6 8 9 16 17 20 21 rings

>  <PUBCHEM_HEAVY_ATOM_COUNT>  (1) 
21

>  <PUBCHEM_ATOM_DEF_STEREO_COUNT>  (1) 
0

>  <PUBCHEM_ATOM_UDEF_STEREO_COUNT>  (1) 
0

>  <PUBCHEM_BOND_DEF_STEREO_COUNT>  (1) 
0

>  <PUBCHEM_BOND_UDEF_STEREO_COUNT>  (1) 
0

>  <PUBCHEM_ISOTOPIC_ATOM_COUNT>  (1) 
0

>  <PUBCHEM_COMPONENT_COUNT>  (1) 
1

>  <PUBCHEM_CACTVS_TAUTO_COUNT>  (1) 
3

>  <PUBCHEM_CONFORMER_ID>  (1) 
0000BB0D00000001

>  <PUBCHEM_MMFF94_ENERGY>  (1) 
108.9589

>  <PUBCHEM_FEATURE_SELFOVERLAP>  (1) 
25.446

>  <PUBCHEM_SHAPE_FINGERPRINT>  (1) 
10411042 1 17041481090665804426
10493431 412 18411986866747775385
10498660 4 18410577314030758508
10608611 8 18410291384951337724
10616163 171 18411420652097144967
10948715 1 18410855455843990863
10967382 1 18338798918367848838
11112241 14 16412924227217483984
11132069 177 18409726278992990176
11370993 70 18410007719483290318
11578080 2 16914801790225717475
12173636 292 18339076094235335902
12390115 104 18197516192974142512
12403814 3 17748823003970353717
12788726 201 17417540103024162745
13132413 78 18411983597918882637
13140716 1 18408600357843699154
138480 1 17546165203715749443
14787075 74 18343297089652442357
14790565 3 18340494340087907665
15196674 1 18410855468723377639
15442244 35 18122342376576630410
15536298 74 18341895143185571142
16945 1 18266459802224932838
19591789 44 18410855430300955955
200 152 18060414686265385473
20510252 161 18270123559768093770
20739085 24 17976569133899115833
21267235 1 18410864230462287023
21421861 104 17897720964342293498
23227448 37 18412543227799319695
2334 1 18338797935047334282
23366157 5 18042128656950263018
23402539 116 18343012285569610494
23559900 14 18343019952914694414
238 59 17468720071594698581
2748010 2 18411425041664419806
335352 9 18338516314300289790
34934 24 18410569600116643843
350125 39 18337110073541199428
3680242 22 18264205816520502682
4214541 1 18410855451543560416
4409770 3 16095997220619873598
474 4 17749115529897981756
495365 180 17346022455452864754
5104073 3 18408604751246759162
59755656 215 18340773637768939366
633830 44 18342737373313529807
69090 78 18410853235604264239
7097593 13 17825368701457569186
7364860 26 18269275651772764126
7808743 9 18194117658625815640
9709674 26 18341055133424258574
9981440 41 18335978778749550754

>  <PUBCHEM_SHAPE_MULTIPOLES>  (1) 
426.3
8.73
3.08
0.61
0.62
0.59
0
-3.52
0
0.04
0
-0.02
0.01
0

>  <PUBCHEM_SHAPE_SELFOVERLAP>  (1) 
976.874

>  <PUBCHEM_SHAPE_VOLUME>  (1) 
223.4

>  <PUBCHEM_COORDINATE_TYPE>  (1) 
2
5
10

$$$$
