47889
     RDKit          3D

 12 12  0  0  0  0  0  0  0  0999 V2000
    0.7690   -2.4097    0.1541 Cl  0  0  0  0  0  0  0  0  0  0  0  0
   -3.5901    0.8615   -0.0449 Cl  0  0  0  0  0  0  0  0  0  0  0  0
    2.8309    0.9301    0.9743 O   0  0  0  0  0  0  0  0  0  0  0  0
    2.9632   -0.3530   -0.8973 O   0  0  0  0  0  0  0  0  0  0  0  0
    0.3227    1.5493   -0.1374 N   0  0  0  0  0  0  0  0  0  0  0  0
   -2.1845   -1.8222    0.1413 N   0  0  0  0  0  0  0  0  0  0  0  0
   -1.3393   -0.6906    0.0477 C   0  0  0  0  0  0  0  0  0  0  0  0
    0.0425   -0.8451    0.0447 C   0  0  0  0  0  0  0  0  0  0  0  0
    0.8226    0.2963   -0.0490 C   0  0  0  0  0  0  0  0  0  0  0  0
   -1.8912    0.5826   -0.0418 C   0  0  0  0  0  0  0  0  0  0  0  0
   -1.0246    1.6601   -0.1315 C   0  0  0  0  0  0  0  0  0  0  0  0
    2.2787    0.2407   -0.0602 C   0  0  0  0  0  0  0  0  0  0  0  0
  1  8  1  0
  2 10  1  0
  3 12  1  0
  4 12  2  0
  5  9  2  0
  5 11  1  0
  6  7  1  0
  7  8  2  0
  7 10  1  0
  8  9  1  0
  9 12  1  0
 10 11  2  0
M  END
>  <PUBCHEM_COMPOUND_CID>  (1) 
47889

>  <PUBCHEM_CONFORMER_RMSD>  (1) 
0.4

>  <PUBCHEM_CONFORMER_DIVERSEORDER>  (1) 
1
2

>  <PUBCHEM_MMFF94_PARTIAL_CHARGES>  (1) 
16
1 -0.18
10 0.18
11 0.16
12 0.63
13 0.15
14 0.4
15 0.4
16 0.5
2 -0.18
3 -0.65
4 -0.57
5 -0.62
6 -0.9
7 0.1
8 0.18
9 0.4

>  <PUBCHEM_EFFECTIVE_ROTOR_COUNT>  (1) 
1

>  <PUBCHEM_PHARMACOPHORE_FEATURES>  (1) 
7
1 3 acceptor
1 4 acceptor
1 5 acceptor
1 6 cation
1 6 donor
3 3 4 12 anion
6 5 7 8 9 10 11 rings

>  <PUBCHEM_HEAVY_ATOM_COUNT>  (1) 
12

>  <PUBCHEM_ATOM_DEF_STEREO_COUNT>  (1) 
0

>  <PUBCHEM_ATOM_UDEF_STEREO_COUNT>  (1) 
0

>  <PUBCHEM_BOND_DEF_STEREO_COUNT>  (1) 
0

>  <PUBCHEM_BOND_UDEF_STEREO_COUNT>  (1) 
0

>  <PUBCHEM_ISOTOPIC_ATOM_COUNT>  (1) 
0

>  <PUBCHEM_COMPONENT_COUNT>  (1) 
1

>  <PUBCHEM_CACTVS_TAUTO_COUNT>  (1) 
2

>  <PUBCHEM_CONFORMER_ID>  (1) 
0000BB1100000001

>  <PUBCHEM_MMFF94_ENERGY>  (1) 
44.426

>  <PUBCHEM_FEATURE_SELFOVERLAP>  (1) 
35.582

>  <PUBCHEM_SHAPE_FINGERPRINT>  (1) 
10857977 72 18339071717579226072
12423570 1 15806115386112758781
12524768 44 18267590108921091663
12897270 3 18411139108368873876
13380535 21 18337122167784197483
13380535 76 18408880711855050803
14325111 11 18411418435883191296
15219456 202 18059575836535230056
161256 15 18194122906347370335
16945 1 18408602530938791165
193761 8 17545038208654971765
20588541 1 18408889499320883837
20645476 183 17677065628009486822
20645477 70 18122055409027435639
20871998 184 18199189679335293247
21040471 1 18336545993299196780
21501502 16 17978232655951729849
23235685 24 18336261267238042869
2334 1 18120937479963007885
23402655 69 18194384608424175285
23463225 33 18260825947778329154
23552423 10 18261397758191188366
23559900 14 18341902883771478924
2748010 2 18192992836296483973
369184 2 16630529561080467752
5084963 1 18128829701175194322
5255222 1 18338232639893985380
528862 383 18116147762446428451
528886 8 18410290306972614275
53812653 166 18341609317480842865
6333449 129 18341608252202242197
7364860 26 18126279740600734434

>  <PUBCHEM_SHAPE_MULTIPOLES>  (1) 
228.99
4.43
2.07
0.71
0.75
1.05
0.01
-1.02
-0.07
0.06
0.13
-0.3
-0.05
0.24

>  <PUBCHEM_SHAPE_SELFOVERLAP>  (1) 
466.319

>  <PUBCHEM_SHAPE_VOLUME>  (1) 
134.1

>  <PUBCHEM_COORDINATE_TYPE>  (1) 
2
5
10

$$$$
