4789
     RDKit          3D

 31 33  0  0  1  0  0  0  0  0999 V2000
    0.6687    1.3415   -0.4572 O   0  0  0  0  0  0  0  0  0  0  0  0
    2.0166    0.5063    1.2733 O   0  0  0  0  0  0  0  0  0  0  0  0
   -0.3781    4.6538    1.7944 O   0  0  0  0  0  0  0  0  0  0  0  0
   -0.7569    4.6716   -1.0693 O   0  0  0  0  0  0  0  0  0  0  0  0
   -0.2174    1.8949    2.1702 O   0  0  0  0  0  0  0  0  0  0  0  0
    0.0893    1.0694   -3.1305 O   0  0  0  0  0  0  0  0  0  0  0  0
    2.3369   -3.9470   -0.4881 O   0  0  0  0  0  0  0  0  0  0  0  0
    0.9562   -2.5493    2.2646 O   0  0  0  0  0  0  0  0  0  0  0  0
    5.6441   -0.6941   -1.5718 O   0  0  0  0  0  0  0  0  0  0  0  0
   -6.5077   -1.0466   -1.3240 O   0  0  0  0  0  0  0  0  0  0  0  0
    0.3873    3.8584    0.8934 C   0  0  0  0  0  0  0  0  0  0  0  0
   -0.4780    3.4945   -0.3157 C   0  0  0  0  0  0  0  0  0  0  0  0
    0.8901    2.6003    1.6011 C   0  0  0  0  0  0  0  0  0  0  0  0
    0.2511    2.4838   -1.2119 C   0  0  0  0  0  0  0  0  0  0  0  0
    1.5769    1.6786    0.5939 C   0  0  0  0  0  0  0  0  0  0  0  0
   -0.6464    1.9855   -2.3402 C   0  0  0  0  0  0  0  0  0  0  0  0
    2.6564   -0.4386    0.5172 C   0  0  0  0  0  0  0  0  0  0  0  0
    2.1466   -1.7293    0.4099 C   0  0  0  0  0  0  0  0  0  0  0  0
    3.8290   -0.0867   -0.1455 C   0  0  0  0  0  0  0  0  0  0  0  0
    0.9175   -2.0931    1.1058 C   0  0  0  0  0  0  0  0  0  0  0  0
    2.8149   -2.6762   -0.3664 C   0  0  0  0  0  0  0  0  0  0  0  0
   -0.4398   -1.9135    0.4054 C   0  0  0  0  0  0  0  0  0  0  0  0
    4.4973   -1.0336   -0.9219 C   0  0  0  0  0  0  0  0  0  0  0  0
   -1.5919   -1.6510    1.3779 C   0  0  0  0  0  0  0  0  0  0  0  0
    3.9902   -2.3283   -1.0323 C   0  0  0  0  0  0  0  0  0  0  0  0
   -2.9047   -1.4896    0.6559 C   0  0  0  0  0  0  0  0  0  0  0  0
   -3.3037   -0.2279    0.2405 C   0  0  0  0  0  0  0  0  0  0  0  0
   -3.6937   -2.6056    0.4189 C   0  0  0  0  0  0  0  0  0  0  0  0
   -4.5195   -0.0788   -0.4271 C   0  0  0  0  0  0  0  0  0  0  0  0
   -4.9092   -2.4564   -0.2487 C   0  0  0  0  0  0  0  0  0  0  0  0
   -5.3222   -1.1930   -0.6717 C   0  0  0  0  0  0  0  0  0  0  0  0
  1 14  1  0
  1 15  1  0
  2 15  1  0
  2 17  1  0
  3 11  1  0
  4 12  1  0
  5 13  1  0
  6 16  1  0
  7 21  1  0
  8 20  2  0
  9 23  1  0
 10 31  1  0
 11 12  1  0
 11 13  1  0
 12 14  1  0
 13 15  1  0
 14 16  1  0
 17 18  1  0
 17 19  2  0
 18 20  1  0
 18 21  2  0
 19 23  1  0
 20 22  1  0
 21 25  1  0
 22 24  1  0
 23 25  2  0
 24 26  1  0
 26 27  2  0
 26 28  1  0
 27 29  1  0
 28 30  2  0
 29 31  2  0
 30 31  1  0
M  END
>  <PUBCHEM_COMPOUND_CID>  (1) 
4789

>  <PUBCHEM_CONFORMER_RMSD>  (1) 
1.4

>  <PUBCHEM_CONFORMER_DIVERSEORDER>  (1) 
3
34
61
115
28
73
85
112
1
128
87
31
101
143
89
80
35
66
41
39
129
16
49
92
116
99
110
7
27
113
72
47
9
14
114
126
105
111
57
144
58
103
71
119
133
17
118
130
51
44
18
145
82
100
62
125
33
107
69
142
117
65
127
6
77
10
108
141
81
59
8
5
136
149
91
75
13
53
50
124
21
45
134
138
48
150
83
15
2
12
23
67
146
131
32
30
38
25
55
94
78
122
102
95
98
22
52
4
151
70
139
97
24
106
79
56
147
40
60
132
104
19
137
37
64
29
93
121
88
46
11
26
96
76
20
123
120
54
36
63
140
109
74
68
148
90
42
84
86
135
43

>  <PUBCHEM_MMFF94_PARTIAL_CHARGES>  (1) 
44
1 -0.56
10 -0.53
11 0.28
12 0.28
13 0.28
14 0.28
15 0.56
16 0.28
17 0.08
18 0.09
19 -0.15
2 -0.36
20 0.42
21 0.08
22 0.06
23 0.08
24 0.14
25 -0.15
26 -0.14
27 -0.15
28 -0.15
29 -0.15
3 -0.68
30 -0.15
31 0.08
39 0.4
4 -0.68
40 0.4
41 0.4
42 0.4
43 0.15
48 0.15
49 0.15
5 -0.68
50 0.15
51 0.45
52 0.45
53 0.15
54 0.15
55 0.45
6 -0.68
7 -0.53
8 -0.57
9 -0.53

>  <PUBCHEM_EFFECTIVE_ROTOR_COUNT>  (1) 
8.2

>  <PUBCHEM_PHARMACOPHORE_FEATURES>  (1) 
17
1 1 acceptor
1 10 donor
1 2 acceptor
1 3 acceptor
1 3 donor
1 4 acceptor
1 4 donor
1 5 acceptor
1 5 donor
1 6 acceptor
1 6 donor
1 7 donor
1 8 acceptor
1 9 donor
6 1 11 12 13 14 15 rings
6 17 18 19 21 23 25 rings
6 26 27 28 29 30 31 rings

>  <PUBCHEM_HEAVY_ATOM_COUNT>  (1) 
31

>  <PUBCHEM_ATOM_DEF_STEREO_COUNT>  (1) 
0

>  <PUBCHEM_ATOM_UDEF_STEREO_COUNT>  (1) 
5

>  <PUBCHEM_BOND_DEF_STEREO_COUNT>  (1) 
0

>  <PUBCHEM_BOND_UDEF_STEREO_COUNT>  (1) 
0

>  <PUBCHEM_ISOTOPIC_ATOM_COUNT>  (1) 
0

>  <PUBCHEM_COMPONENT_COUNT>  (1) 
1

>  <PUBCHEM_CACTVS_TAUTO_COUNT>  (1) 
42

>  <PUBCHEM_CONFORMER_ID>  (1) 
000012B500000003

>  <PUBCHEM_MMFF94_ENERGY>  (1) 
96.8834

>  <PUBCHEM_FEATURE_SELFOVERLAP>  (1) 
86.347

>  <PUBCHEM_SHAPE_FINGERPRINT>  (1) 
10930396 42 18193814142424951992
11115154 58 18342740694315110657
11582403 64 15907700931840362224
12156800 1 17478658582862564925
12788726 201 18262518061586826602
13383668 90 16627192470908824790
13631057 29 18341055104081595980
13726171 33 15719939238552144911
13947920 24 17822298985356728732
14681490 219 18410856534228746951
14932702 115 17608621965625778925
15210252 30 17676491657021998910
15420108 30 17476898617208231040
16988056 13 18267015231964951581
17357779 13 18409449167655767718
20567600 299 18267300014182147859
20587220 17 17702364330182840321
20764821 26 17610023838893374461
20775530 9 18410854348296056819
21641784 216 18118430417732235316
21860390 5 18268145529702001695
21987440 362 17610336421828477645
221357 26 18412542111524781123
23559900 14 18264202690211929159
238 59 17977674439063065579
283562 15 18336838502817284250
3380486 77 17676483965316093634
35225 105 17617665349832015445
46194498 28 18044941418332017459
469060 322 16735267818929590452
6287921 2 17833826445345418879
6443956 14 18338797922098882121
7164475 11 18122350082191395922

>  <PUBCHEM_SHAPE_MULTIPOLES>  (1) 
579.27
9.3
5.68
1.99
9.32
5.91
0.47
-9.58
4.39
-1.15
-0.88
-0.37
1.14
0.96

>  <PUBCHEM_SHAPE_SELFOVERLAP>  (1) 
1238.453

>  <PUBCHEM_SHAPE_VOLUME>  (1) 
317.7

>  <PUBCHEM_COORDINATE_TYPE>  (1) 
2
5
10

$$$$
