47898
     RDKit          3D

 23 24  0  0  0  0  0  0  0  0999 V2000
   -3.4177   -1.9366   -2.0723 F   0  0  0  0  0  0  0  0  0  0  0  0
   -2.5947    0.0431   -2.4002 F   0  0  0  0  0  0  0  0  0  0  0  0
   -1.3970   -1.4792   -1.4118 F   0  0  0  0  0  0  0  0  0  0  0  0
    4.6384   -0.2270    0.7104 O   0  0  0  0  0  0  0  0  0  0  0  0
   -1.4120    2.1301   -0.5834 O   0  0  0  0  0  0  0  0  0  0  0  0
   -0.1058    0.4732    0.4430 N   0  0  0  0  0  0  0  0  0  0  0  0
    4.7076   -1.5856    0.2796 C   0  0  0  0  0  0  0  0  0  0  0  0
   -2.5222    0.4548    0.5879 C   0  0  0  0  0  0  0  0  0  0  0  0
    1.2156    0.8738    0.1272 C   0  0  0  0  0  0  0  0  0  0  0  0
    3.5808    0.5087    0.2720 C   0  0  0  0  0  0  0  0  0  0  0  0
   -3.1763   -0.5303   -0.1521 C   0  0  0  0  0  0  0  0  0  0  0  0
    2.2794    0.1132    0.5813 C   0  0  0  0  0  0  0  0  0  0  0  0
   -1.3114    1.0925    0.0889 C   0  0  0  0  0  0  0  0  0  0  0  0
    5.9815   -1.7911   -0.5258 C   0  0  0  0  0  0  0  0  0  0  0  0
    4.6512   -2.4996    1.4942 C   0  0  0  0  0  0  0  0  0  0  0  0
    1.4134    2.0179   -0.6268 C   0  0  0  0  0  0  0  0  0  0  0  0
    3.7983    1.6587   -0.4871 C   0  0  0  0  0  0  0  0  0  0  0  0
   -3.0266    0.8452    1.8285 C   0  0  0  0  0  0  0  0  0  0  0  0
   -4.3346   -1.1248    0.3486 C   0  0  0  0  0  0  0  0  0  0  0  0
    2.7146    2.4133   -0.9362 C   0  0  0  0  0  0  0  0  0  0  0  0
   -2.6587   -0.9665   -1.4841 C   0  0  0  0  0  0  0  0  0  0  0  0
   -4.1848    0.2506    2.3290 C   0  0  0  0  0  0  0  0  0  0  0  0
   -4.8389   -0.7343    1.5891 C   0  0  0  0  0  0  0  0  0  0  0  0
  1 21  1  0
  2 21  1  0
  3 21  1  0
  4  7  1  0
  4 10  1  0
  5 13  2  0
  6  9  1  0
  6 13  1  0
  7 14  1  0
  7 15  1  0
  8 11  2  0
  8 13  1  0
  8 18  1  0
  9 12  1  0
  9 16  2  0
 10 12  2  0
 10 17  1  0
 11 19  1  0
 11 21  1  0
 16 20  1  0
 17 20  2  0
 18 22  2  0
 19 23  2  0
 22 23  1  0
M  END
>  <PUBCHEM_COMPOUND_CID>  (1) 
47898

>  <PUBCHEM_CONFORMER_RMSD>  (1) 
0.8

>  <PUBCHEM_CONFORMER_DIVERSEORDER>  (1) 
3
7
24
5
18
23
22
11
21
9
20
10
25
14
4
12
19
17
8
15
16
1
13
6
2

>  <PUBCHEM_MMFF94_PARTIAL_CHARGES>  (1) 
30
1 -0.34
10 0.08
11 -0.14
12 -0.15
13 0.54
16 -0.15
17 -0.15
18 -0.15
19 -0.15
2 -0.34
20 -0.15
21 1.16
22 -0.15
23 -0.15
25 0.15
26 0.37
3 -0.34
33 0.15
34 0.15
35 0.15
36 0.15
37 0.15
38 0.15
39 0.15
4 -0.36
5 -0.57
6 -0.55
7 0.28
8 0.09
9 0.12

>  <PUBCHEM_EFFECTIVE_ROTOR_COUNT>  (1) 
6

>  <PUBCHEM_PHARMACOPHORE_FEATURES>  (1) 
6
1 4 acceptor
1 5 acceptor
1 6 donor
3 7 14 15 hydrophobe
6 8 11 18 19 22 23 rings
6 9 10 12 16 17 20 rings

>  <PUBCHEM_HEAVY_ATOM_COUNT>  (1) 
23

>  <PUBCHEM_ATOM_DEF_STEREO_COUNT>  (1) 
0

>  <PUBCHEM_ATOM_UDEF_STEREO_COUNT>  (1) 
0

>  <PUBCHEM_BOND_DEF_STEREO_COUNT>  (1) 
0

>  <PUBCHEM_BOND_UDEF_STEREO_COUNT>  (1) 
0

>  <PUBCHEM_ISOTOPIC_ATOM_COUNT>  (1) 
0

>  <PUBCHEM_COMPONENT_COUNT>  (1) 
1

>  <PUBCHEM_CACTVS_TAUTO_COUNT>  (1) 
2

>  <PUBCHEM_CONFORMER_ID>  (1) 
0000BB1A00000003

>  <PUBCHEM_MMFF94_ENERGY>  (1) 
71.0357

>  <PUBCHEM_FEATURE_SELFOVERLAP>  (1) 
30.446

>  <PUBCHEM_SHAPE_FINGERPRINT>  (1) 
10319926 262 16056606439096795310
10622 236 18056742437741290799
10928967 22 18336824191833766726
11036077 4 17418090984219441911
12107183 9 18192727639256973105
12236239 1 18343027726631219393
12422481 6 17916591921075204086
12553582 1 18261670377504698954
12623949 98 16374701913343696691
12633257 1 17275106141014298832
13167823 11 18342740715267460808
13533116 47 18337398243749419913
13551218 46 18272095967590710859
14178342 30 16989128655661171541
14767858 380 17896058602521153478
15537594 2 18340215175760702788
15806764 133 16588022441593112605
17780758 139 17489303041030733978
1813 80 18335995168666070028
19377110 9 18130500950829406344
193927 3 18187089429755156904
20281475 54 18201153359921014868
20554085 129 16342867513035807635
20645477 70 17894630392123506000
20693207 138 16805611403262694264
20871999 31 14851608769294946496
212916 134 16486705688152272553
2297311 6 15213025964091540769
23503953 91 17489872630792507200
235170 7 15502663650713404450
23557571 272 15719666684064465757
23559900 14 15647336389467331557
23598288 3 18339929225291627385
2838139 119 11022180151779648059
312425 54 17275097289873250362
314194 84 18335137575561562602
3268164 11 14201945904669427419
34797466 226 15357993290510944102
351380 3 18411423873960868594
46194498 28 16298964150977328446
5104073 3 17346316054653117634
5281201 14 17022620905441340156
573450 72 17632295691752814787
5924683 9 15985089839023420743
602551 16 16916790737840180012
7064713 232 17489869310830519822
7970288 3 18187365385678592810

>  <PUBCHEM_SHAPE_MULTIPOLES>  (1) 
434.79
12.28
2.41
1.84
7.6
0.21
-0.52
-7.68
2.34
3.25
-0.25
-2.89
-0.64
-1.07

>  <PUBCHEM_SHAPE_SELFOVERLAP>  (1) 
929.03

>  <PUBCHEM_SHAPE_VOLUME>  (1) 
242.8

>  <PUBCHEM_COORDINATE_TYPE>  (1) 
2
5
10

$$$$
