47907
     RDKit          3D

 26 29  0  0  0  0  0  0  0  0999 V2000
    0.3659   -1.1721    1.0097 S   0  0  0  0  0  0  0  0  0  0  0  0
    5.7039    0.6806    0.0476 O   0  0  0  0  0  0  0  0  0  0  0  0
   -5.7469    1.5165    0.3145 O   0  0  0  0  0  0  0  0  0  0  0  0
    0.5480    2.4971   -0.3703 N   0  0  0  0  0  0  0  0  0  0  0  0
   -1.4354   -3.9045   -0.2318 N   0  0  0  0  0  0  0  0  0  0  0  0
    0.7487   -4.4892   -0.1080 N   0  0  0  0  0  0  0  0  0  0  0  0
   -1.2315   -5.2085    0.0022 N   0  0  0  0  0  0  0  0  0  0  0  0
    0.0477   -5.6001    0.0830 N   0  0  0  0  0  0  0  0  0  0  0  0
    2.0462    0.9252    0.1411 C   0  0  0  0  0  0  0  0  0  0  0  0
   -0.1601    1.4116    0.0711 C   0  0  0  0  0  0  0  0  0  0  0  0
    1.8978    2.2286   -0.3380 C   0  0  0  0  0  0  0  0  0  0  0  0
    0.7395    0.4224    0.3952 C   0  0  0  0  0  0  0  0  0  0  0  0
   -1.6041    1.4383    0.1340 C   0  0  0  0  0  0  0  0  0  0  0  0
    3.3450    0.3951    0.2734 C   0  0  0  0  0  0  0  0  0  0  0  0
    2.9877    3.0315   -0.6927 C   0  0  0  0  0  0  0  0  0  0  0  0
    4.4446    1.1866   -0.0777 C   0  0  0  0  0  0  0  0  0  0  0  0
    4.2664    2.4843   -0.5531 C   0  0  0  0  0  0  0  0  0  0  0  0
   -2.2403    1.8734    1.2945 C   0  0  0  0  0  0  0  0  0  0  0  0
   -2.3547    1.0291   -0.9662 C   0  0  0  0  0  0  0  0  0  0  0  0
    0.2098   -2.1005   -0.5383 C   0  0  0  0  0  0  0  0  0  0  0  0
   -3.6336    1.8994    1.3553 C   0  0  0  0  0  0  0  0  0  0  0  0
   -3.7481    1.0552   -0.9056 C   0  0  0  0  0  0  0  0  0  0  0  0
   -4.3876    1.4905    0.2552 C   0  0  0  0  0  0  0  0  0  0  0  0
   -0.1730   -3.5224   -0.2883 C   0  0  0  0  0  0  0  0  0  0  0  0
    5.8200   -0.6528    0.5394 C   0  0  0  0  0  0  0  0  0  0  0  0
   -6.4561    1.0849   -0.8460 C   0  0  0  0  0  0  0  0  0  0  0  0
  1 12  1  0
  1 20  1  0
  2 16  1  0
  2 25  1  0
  3 23  1  0
  3 26  1  0
  4 10  1  0
  4 11  1  0
  5  7  1  0
  5 24  2  0
  6  8  2  0
  6 24  1  0
  7  8  1  0
  9 11  2  0
  9 12  1  0
  9 14  1  0
 10 12  2  0
 10 13  1  0
 11 15  1  0
 13 18  2  0
 13 19  1  0
 14 16  2  0
 15 17  2  0
 16 17  1  0
 18 21  1  0
 19 22  2  0
 20 24  1  0
 21 23  2  0
 22 23  1  0
M  END
>  <PUBCHEM_COMPOUND_CID>  (1) 
47907

>  <PUBCHEM_CONFORMER_RMSD>  (1) 
0.8

>  <PUBCHEM_CONFORMER_DIVERSEORDER>  (1) 
1
12
3
16
9
22
19
13
10
5
21
14
25
24
15
6
20
4
23
7
18
11
8
17
2

>  <PUBCHEM_MMFF94_PARTIAL_CHARGES>  (1) 
34
1 -0.28
10 -0.2
11 -0.15
12 0.05
13 0.05
14 -0.15
15 -0.15
16 0.08
17 -0.15
18 -0.15
19 -0.15
2 -0.36
20 0.41
21 -0.15
22 -0.15
23 0.08
24 0.34
25 0.28
26 0.28
27 0.27
28 0.15
29 0.15
3 -0.36
30 0.15
31 0.15
32 0.15
35 0.15
36 0.15
4 0.03
43 0.27
5 -0.71
6 -0.23
7 0.57
8 -0.42

>  <PUBCHEM_EFFECTIVE_ROTOR_COUNT>  (1) 
6

>  <PUBCHEM_PHARMACOPHORE_FEATURES>  (1) 
9
1 2 acceptor
1 3 acceptor
1 4 cation
1 4 donor
3 5 6 24 cation
5 4 9 10 11 12 rings
5 5 6 7 8 24 rings
6 13 18 19 21 22 23 rings
6 9 11 14 15 16 17 rings

>  <PUBCHEM_HEAVY_ATOM_COUNT>  (1) 
26

>  <PUBCHEM_ATOM_DEF_STEREO_COUNT>  (1) 
0

>  <PUBCHEM_ATOM_UDEF_STEREO_COUNT>  (1) 
0

>  <PUBCHEM_BOND_DEF_STEREO_COUNT>  (1) 
0

>  <PUBCHEM_BOND_UDEF_STEREO_COUNT>  (1) 
0

>  <PUBCHEM_ISOTOPIC_ATOM_COUNT>  (1) 
0

>  <PUBCHEM_COMPONENT_COUNT>  (1) 
1

>  <PUBCHEM_CACTVS_TAUTO_COUNT>  (1) 
2

>  <PUBCHEM_CONFORMER_ID>  (1) 
0000BB2300000001

>  <PUBCHEM_MMFF94_ENERGY>  (1) 
71.5341

>  <PUBCHEM_FEATURE_SELFOVERLAP>  (1) 
45.763

>  <PUBCHEM_SHAPE_FINGERPRINT>  (1) 
10050765 1 18122344855633064404
1100329 8 18411695526146867648
11135926 11 18410849924917773741
11421498 54 18059017168627761241
11488393 25 17973721372506586818
11719270 70 18338228280845103953
11991303 11 18114470057794488102
12236239 1 18201719544201854409
12788726 201 17758951911217729650
13052359 8 18340207517311748282
13540713 4 17770507744593956904
13540713 5 17826227682527758252
1361 2 18267022761174607378
13692114 37 18199735002948802847
138480 1 17762058740130253143
13968360 50 18337102376711696799
14251757 5 17978226389689709031
14790565 3 18410575097791041757
14863182 85 18336275526292062972
14866123 147 18339641256102832170
16728300 4 17172904165292919218
16993438 75 18117560846070031963
17138139 8 17772161324028961615
18681886 176 18335415798457421688
18915476 22 18118672237249969821
19319366 153 18343576318514186383
19427546 20 17976550730069812676
20028762 73 18271803480375642022
20721686 124 18188763938941658955
21054139 6 18272360984790514965
21133410 52 18124007071779309431
21307412 95 18056789601567699182
21344244 181 18272664427902829430
21478907 32 17905890632147505618
21781051 124 18043274438202352410
22956985 138 17832703474543312914
23569917 315 18342742900979521199
3383291 50 18267302024760489066
340366 18 18261118495602923876
38695281 34 18409726223200730197
4017518 198 18272375231524720246
4409770 3 18121780796986892695
5309563 4 17689435988483827594
550186 72 16969141437725771150
6669772 16 18341615867691533182
7164475 11 17904483257548698036
79837 15 18341620338345780066

>  <PUBCHEM_SHAPE_MULTIPOLES>  (1) 
502.27
10.93
6.17
0.98
2.66
14.83
0.14
-9.35
-0.55
0.12
-0.58
0.64
-0.38
-0.99

>  <PUBCHEM_SHAPE_SELFOVERLAP>  (1) 
1091.887

>  <PUBCHEM_SHAPE_VOLUME>  (1) 
278.9

>  <PUBCHEM_COORDINATE_TYPE>  (1) 
2
5
10

$$$$
