47900
     RDKit          3D

 22 25  0  0  0  0  0  0  0  0999 V2000
    0.0582    0.6300    2.1821 S   0  0  0  0  0  0  0  0  0  0  0  0
    0.5060   -1.8139   -0.8555 N   0  0  0  0  0  0  0  0  0  0  0  0
   -0.9496    3.4706    0.3872 N   0  0  0  0  0  0  0  0  0  0  0  0
    0.6793    2.4278   -0.7903 N   0  0  0  0  0  0  0  0  0  0  0  0
   -1.0559    3.6181   -0.9409 N   0  0  0  0  0  0  0  0  0  0  0  0
   -0.1118    3.0173   -1.6783 N   0  0  0  0  0  0  0  0  0  0  0  0
   -0.2803   -1.1305    0.0326 C   0  0  0  0  0  0  0  0  0  0  0  0
    1.8893   -0.6718    0.4709 C   0  0  0  0  0  0  0  0  0  0  0  0
    0.5469   -0.4143    0.8668 C   0  0  0  0  0  0  0  0  0  0  0  0
    1.8355   -1.5527   -0.6115 C   0  0  0  0  0  0  0  0  0  0  0  0
   -1.7213   -1.2349   -0.0129 C   0  0  0  0  0  0  0  0  0  0  0  0
    3.1488   -0.2388    0.9310 C   0  0  0  0  0  0  0  0  0  0  0  0
    2.9829   -2.0242   -1.2593 C   0  0  0  0  0  0  0  0  0  0  0  0
    4.3050   -0.7020    0.2926 C   0  0  0  0  0  0  0  0  0  0  0  0
    4.2210   -1.5809   -0.7855 C   0  0  0  0  0  0  0  0  0  0  0  0
   -2.4571   -0.3476   -0.7961 C   0  0  0  0  0  0  0  0  0  0  0  0
   -2.3704   -2.2213    0.7268 C   0  0  0  0  0  0  0  0  0  0  0  0
    0.7417    2.2453    1.6885 C   0  0  0  0  0  0  0  0  0  0  0  0
   -3.8478   -0.4475   -0.8398 C   0  0  0  0  0  0  0  0  0  0  0  0
   -3.7611   -2.3210    0.6833 C   0  0  0  0  0  0  0  0  0  0  0  0
   -4.5000   -1.4343   -0.1003 C   0  0  0  0  0  0  0  0  0  0  0  0
    0.1407    2.7265    0.4085 C   0  0  0  0  0  0  0  0  0  0  0  0
  1  9  1  0
  1 18  1  0
  2  7  1  0
  2 10  1  0
  3  5  1  0
  3 22  2  0
  4  6  2  0
  4 22  1  0
  5  6  1  0
  7  9  2  0
  7 11  1  0
  8  9  1  0
  8 10  2  0
  8 12  1  0
 10 13  1  0
 11 16  2  0
 11 17  1  0
 12 14  2  0
 13 15  2  0
 14 15  1  0
 16 19  1  0
 17 20  2  0
 18 22  1  0
 19 21  2  0
 20 21  1  0
M  END
>  <PUBCHEM_COMPOUND_CID>  (1) 
47900

>  <PUBCHEM_CONFORMER_RMSD>  (1) 
0.6

>  <PUBCHEM_CONFORMER_DIVERSEORDER>  (1) 
1
29
10
23
18
31
9
4
21
17
26
32
14
28
15
30
13
27
22
12
5
6
16
19
25
8
11
2
20
24
3
7

>  <PUBCHEM_MMFF94_PARTIAL_CHARGES>  (1) 
32
1 -0.28
10 -0.15
11 0.05
12 -0.15
13 -0.15
14 -0.15
15 -0.15
16 -0.15
17 -0.15
18 0.41
19 -0.15
2 0.03
20 -0.15
21 -0.15
22 0.34
23 0.27
24 0.15
25 0.15
26 0.15
27 0.15
28 0.15
29 0.15
3 -0.71
32 0.15
33 0.15
34 0.15
35 0.27
4 -0.23
5 0.57
6 -0.42
7 -0.2
9 0.05

>  <PUBCHEM_EFFECTIVE_ROTOR_COUNT>  (1) 
4

>  <PUBCHEM_PHARMACOPHORE_FEATURES>  (1) 
7
1 2 cation
1 2 donor
3 3 4 22 cation
5 2 7 8 9 10 rings
5 3 4 5 6 22 rings
6 11 16 17 19 20 21 rings
6 8 10 12 13 14 15 rings

>  <PUBCHEM_HEAVY_ATOM_COUNT>  (1) 
22

>  <PUBCHEM_ATOM_DEF_STEREO_COUNT>  (1) 
0

>  <PUBCHEM_ATOM_UDEF_STEREO_COUNT>  (1) 
0

>  <PUBCHEM_BOND_DEF_STEREO_COUNT>  (1) 
0

>  <PUBCHEM_BOND_UDEF_STEREO_COUNT>  (1) 
0

>  <PUBCHEM_ISOTOPIC_ATOM_COUNT>  (1) 
0

>  <PUBCHEM_COMPONENT_COUNT>  (1) 
1

>  <PUBCHEM_CACTVS_TAUTO_COUNT>  (1) 
2

>  <PUBCHEM_CONFORMER_ID>  (1) 
0000BB1C00000001

>  <PUBCHEM_MMFF94_ENERGY>  (1) 
42.8108

>  <PUBCHEM_FEATURE_SELFOVERLAP>  (1) 
35.614

>  <PUBCHEM_SHAPE_FINGERPRINT>  (1) 
104564 63 18341327777937249681
11045515 52 18409738360614875798
11370993 70 10159706789115087015
11421498 54 16588580903843643009
11578080 2 15940025328409571119
12788726 201 18261954046887957634
13134695 92 17846214509632061035
133893 2 17976004229344912121
13681431 1 18266190602148371946
14181834 199 17843682402861831186
15420108 30 17481401091590956728
17357779 13 18271509927903292165
1813 80 18200334180756245775
18769570 83 18114455674080551065
18785283 64 17976830005674659755
20600515 1 18199766845583179711
21041028 32 18412269471237509833
21285901 2 18201155447196227367
21452121 99 17831837085070755832
21641784 216 18264791929575735164
23175994 123 18341900701169073499
23352939 185 18341343274279474008
23419403 2 17559649812108200136
23557571 272 18339078186058586230
23559900 14 18192986244049666539
3052486 1 18044360644158751257
350125 39 17406831160269504986
57262259 84 18127981810396261222
7364860 26 18122344854846275375
7495541 125 18115876376559347555
81228 2 18266470810210015690
84936 31 17913487119196930207

>  <PUBCHEM_SHAPE_MULTIPOLES>  (1) 
431.69
6.75
4
1.52
1.21
4.87
-0.32
-6.48
0.8
0.62
0.95
-0.23
0.68
1.2

>  <PUBCHEM_SHAPE_SELFOVERLAP>  (1) 
948.008

>  <PUBCHEM_SHAPE_VOLUME>  (1) 
236.1

>  <PUBCHEM_COORDINATE_TYPE>  (1) 
2
5
10

$$$$
