47902
     RDKit          3D

 23 26  0  0  0  0  0  0  0  0999 V2000
   -5.2919    2.6333   -0.3958 Cl  0  0  0  0  0  0  0  0  0  0  0  0
    0.4086    0.9677   -1.2350 S   0  0  0  0  0  0  0  0  0  0  0  0
   -1.6723   -1.8611    0.5164 N   0  0  0  0  0  0  0  0  0  0  0  0
    2.6986    3.5991    0.8438 N   0  0  0  0  0  0  0  0  0  0  0  0
    3.2847    2.1845   -0.8609 N   0  0  0  0  0  0  0  0  0  0  0  0
    3.9173    3.3240    0.8977 N   0  0  0  0  0  0  0  0  0  0  0  0
    4.2775    2.4542   -0.1502 N   0  0  0  0  0  0  0  0  0  0  0  0
   -2.1145    0.1948   -0.2285 C   0  0  0  0  0  0  0  0  0  0  0  0
   -0.5032   -1.3745   -0.0040 C   0  0  0  0  0  0  0  0  0  0  0  0
   -0.7448   -0.1038   -0.4729 C   0  0  0  0  0  0  0  0  0  0  0  0
   -2.6733   -0.9240    0.3930 C   0  0  0  0  0  0  0  0  0  0  0  0
    0.7046   -2.1691    0.0046 C   0  0  0  0  0  0  0  0  0  0  0  0
   -2.9349    1.3130   -0.4770 C   0  0  0  0  0  0  0  0  0  0  0  0
   -4.0170   -0.9807    0.7799 C   0  0  0  0  0  0  0  0  0  0  0  0
    1.1034    1.8823    0.1795 C   0  0  0  0  0  0  0  0  0  0  0  0
   -4.2809    1.2706   -0.0955 C   0  0  0  0  0  0  0  0  0  0  0  0
   -4.8115    0.1403    0.5231 C   0  0  0  0  0  0  0  0  0  0  0  0
    2.1441    2.8805   -0.2908 C   0  0  0  0  0  0  0  0  0  0  0  0
    1.5756   -2.0959    1.0897 C   0  0  0  0  0  0  0  0  0  0  0  0
    0.9944   -3.0043   -1.0725 C   0  0  0  0  0  0  0  0  0  0  0  0
    2.7415   -2.8619    1.0980 C   0  0  0  0  0  0  0  0  0  0  0  0
    2.1604   -3.7699   -1.0641 C   0  0  0  0  0  0  0  0  0  0  0  0
    3.0339   -3.6991    0.0213 C   0  0  0  0  0  0  0  0  0  0  0  0
  1 16  1  0
  2 10  1  0
  2 15  1  0
  3  9  1  0
  3 11  1  0
  4  6  2  0
  4 18  1  0
  5  7  2  0
  5 18  1  0
  6  7  1  0
  8 10  1  0
  8 11  2  0
  8 13  1  0
  9 10  2  0
  9 12  1  0
 11 14  1  0
 12 19  2  0
 12 20  1  0
 13 16  2  0
 14 17  2  0
 15 18  1  0
 16 17  1  0
 19 21  1  0
 20 22  2  0
 21 23  2  0
 22 23  1  0
M  END
>  <PUBCHEM_COMPOUND_CID>  (1) 
47902

>  <PUBCHEM_CONFORMER_RMSD>  (1) 
0.8

>  <PUBCHEM_CONFORMER_DIVERSEORDER>  (1) 
1
13
18
19
15
7
5
2
12
6
22
4
10
11
14
23
21
8
20
16
3
17
9

>  <PUBCHEM_MMFF94_PARTIAL_CHARGES>  (1) 
29
1 -0.18
10 0.05
11 -0.15
12 0.05
13 -0.15
14 -0.15
15 0.23
16 0.18
17 -0.15
18 0.49
19 -0.15
2 -0.28
20 -0.15
21 -0.15
22 -0.15
23 -0.15
24 0.27
25 0.15
26 0.15
29 0.15
3 0.03
31 0.15
32 0.15
33 0.15
34 0.15
35 0.15
4 -0.25
5 -0.25
9 -0.2

>  <PUBCHEM_EFFECTIVE_ROTOR_COUNT>  (1) 
4.2

>  <PUBCHEM_PHARMACOPHORE_FEATURES>  (1) 
6
1 3 cation
1 3 donor
5 3 8 9 10 11 rings
5 4 5 6 7 18 rings
6 12 19 20 21 22 23 rings
6 8 11 13 14 16 17 rings

>  <PUBCHEM_HEAVY_ATOM_COUNT>  (1) 
23

>  <PUBCHEM_ATOM_DEF_STEREO_COUNT>  (1) 
0

>  <PUBCHEM_ATOM_UDEF_STEREO_COUNT>  (1) 
0

>  <PUBCHEM_BOND_DEF_STEREO_COUNT>  (1) 
0

>  <PUBCHEM_BOND_UDEF_STEREO_COUNT>  (1) 
0

>  <PUBCHEM_ISOTOPIC_ATOM_COUNT>  (1) 
0

>  <PUBCHEM_COMPONENT_COUNT>  (1) 
1

>  <PUBCHEM_CACTVS_TAUTO_COUNT>  (1) 
1

>  <PUBCHEM_CONFORMER_ID>  (1) 
0000BB1E00000001

>  <PUBCHEM_MMFF94_ENERGY>  (1) 
46.4433

>  <PUBCHEM_FEATURE_SELFOVERLAP>  (1) 
30.54

>  <PUBCHEM_SHAPE_FINGERPRINT>  (1) 
10050765 1 18409730635155419017
1100329 8 17618510882648139857
11763715 3 16844428467818377347
12173636 292 18050563250880024540
12236239 1 14187854408813626607
12422481 6 18116128057458449232
12549972 3 17751102266000128377
12592029 89 18335989773617453616
12741549 16 17697858303075483019
12788726 201 17469613905628558626
12839892 36 17974573795051062771
12930653 34 18264495160025069915
13540713 4 18186526480355564785
138480 1 18267022748146897110
140371 6 17910399390257107611
14178342 30 18043259144024147943
14466204 15 18338514252305148112
14955137 171 17618532899150782569
15042514 8 17400083461683750891
15230672 131 18263931111430920612
15420108 30 18341319089318617398
15664445 248 18053390889812734230
15927050 60 18268995461307864390
17913733 40 18196955442180789787
18785283 64 18335703827537654345
20028762 73 17477218583803706471
20600515 1 17757562849658034199
21033648 29 18055910137271966945
212916 134 18126837429272024624
21304253 13 18051691036250915377
22182313 1 17676763198393377821
23366157 5 18113624477718288511
23419403 2 17823961369048363574
23557571 272 17617942435236748454
23559900 14 18267863887437811587
23728640 28 17615970349768565778
3298306 158 18410862091932324044
3411729 13 18333732411779071096
469060 322 11172420941839023776
5104073 3 18262817181407632017
5265222 85 17974308796086137620
532947 4 18341620321598537990
5385378 56 18339935873974569201
58807428 26 18120661485074091970
59755656 215 18261677098959634039
69474 34 18191014604166222219
7364860 26 18410581664669293959
79837 15 17974292323963196218
81228 2 17404590974010185523
9981440 41 18266455589209948393

>  <PUBCHEM_SHAPE_MULTIPOLES>  (1) 
454.14
8.91
5.53
1.07
10.01
3.52
0.05
2.29
-0.76
-9.28
-0.32
-0.5
-0.21
1.11

>  <PUBCHEM_SHAPE_SELFOVERLAP>  (1) 
981.077

>  <PUBCHEM_SHAPE_VOLUME>  (1) 
253.7

>  <PUBCHEM_COORDINATE_TYPE>  (1) 
2
5
10

$$$$
