47904
     RDKit          3D

 24 27  0  0  0  0  0  0  0  0999 V2000
    1.1568   -0.8192   -1.0703 S   0  0  0  0  0  0  0  0  0  0  0  0
   -5.6022   -1.4838    0.2637 O   0  0  0  0  0  0  0  0  0  0  0  0
   -1.7277    1.5005    0.2327 N   0  0  0  0  0  0  0  0  0  0  0  0
    4.2706   -1.4893    0.3815 N   0  0  0  0  0  0  0  0  0  0  0  0
    3.2025   -3.4580    0.0482 N   0  0  0  0  0  0  0  0  0  0  0  0
    5.0911   -2.5229    0.1459 N   0  0  0  0  0  0  0  0  0  0  0  0
    4.5017   -3.7093   -0.0570 N   0  0  0  0  0  0  0  0  0  0  0  0
   -1.5812   -0.6333   -0.4022 C   0  0  0  0  0  0  0  0  0  0  0  0
   -0.4224    1.2871   -0.1209 C   0  0  0  0  0  0  0  0  0  0  0  0
   -2.4584    0.3448    0.0713 C   0  0  0  0  0  0  0  0  0  0  0  0
   -0.3001   -0.0246   -0.5178 C   0  0  0  0  0  0  0  0  0  0  0  0
    0.5547    2.3495   -0.0425 C   0  0  0  0  0  0  0  0  0  0  0  0
   -2.0800   -1.9265   -0.6552 C   0  0  0  0  0  0  0  0  0  0  0  0
   -3.8149    0.0932    0.3059 C   0  0  0  0  0  0  0  0  0  0  0  0
   -4.2869   -1.1970    0.0482 C   0  0  0  0  0  0  0  0  0  0  0  0
   -3.4347   -2.1929   -0.4250 C   0  0  0  0  0  0  0  0  0  0  0  0
    0.7676    3.1799   -1.1411 C   0  0  0  0  0  0  0  0  0  0  0  0
    1.2807    2.5403    1.1314 C   0  0  0  0  0  0  0  0  0  0  0  0
    1.8130   -1.4459    0.4980 C   0  0  0  0  0  0  0  0  0  0  0  0
    1.7101    4.2053   -1.0653 C   0  0  0  0  0  0  0  0  0  0  0  0
    2.2233    3.5658    1.2072 C   0  0  0  0  0  0  0  0  0  0  0  0
    2.4380    4.3983    0.1088 C   0  0  0  0  0  0  0  0  0  0  0  0
    3.1230   -2.1375    0.3065 C   0  0  0  0  0  0  0  0  0  0  0  0
   -6.4246   -0.4247    0.7480 C   0  0  0  0  0  0  0  0  0  0  0  0
  1 11  1  0
  1 19  1  0
  2 15  1  0
  2 24  1  0
  3  9  1  0
  3 10  1  0
  4  6  1  0
  4 23  2  0
  5  7  2  0
  5 23  1  0
  6  7  1  0
  8 10  2  0
  8 11  1  0
  8 13  1  0
  9 11  2  0
  9 12  1  0
 10 14  1  0
 12 17  2  0
 12 18  1  0
 13 16  2  0
 14 15  2  0
 15 16  1  0
 17 20  1  0
 18 21  2  0
 19 23  1  0
 20 22  2  0
 21 22  1  0
M  END
>  <PUBCHEM_COMPOUND_CID>  (1) 
47904

>  <PUBCHEM_CONFORMER_RMSD>  (1) 
0.8

>  <PUBCHEM_CONFORMER_DIVERSEORDER>  (1) 
1
17
6
15
14
8
11
16
7
13
5
2
18
3
9
12
4
10

>  <PUBCHEM_MMFF94_PARTIAL_CHARGES>  (1) 
33
1 -0.28
10 -0.15
11 0.05
12 0.05
13 -0.15
14 -0.15
15 0.08
16 -0.15
17 -0.15
18 -0.15
19 0.41
2 -0.36
20 -0.15
21 -0.15
22 -0.15
23 0.34
24 0.28
25 0.27
26 0.15
27 0.15
28 0.15
29 0.15
3 0.03
30 0.15
33 0.15
34 0.15
35 0.15
39 0.27
4 -0.71
5 -0.23
6 0.57
7 -0.42
9 -0.2

>  <PUBCHEM_EFFECTIVE_ROTOR_COUNT>  (1) 
5

>  <PUBCHEM_PHARMACOPHORE_FEATURES>  (1) 
8
1 2 acceptor
1 3 cation
1 3 donor
3 4 5 23 cation
5 3 8 9 10 11 rings
5 4 5 6 7 23 rings
6 12 17 18 20 21 22 rings
6 8 10 13 14 15 16 rings

>  <PUBCHEM_HEAVY_ATOM_COUNT>  (1) 
24

>  <PUBCHEM_ATOM_DEF_STEREO_COUNT>  (1) 
0

>  <PUBCHEM_ATOM_UDEF_STEREO_COUNT>  (1) 
0

>  <PUBCHEM_BOND_DEF_STEREO_COUNT>  (1) 
0

>  <PUBCHEM_BOND_UDEF_STEREO_COUNT>  (1) 
0

>  <PUBCHEM_ISOTOPIC_ATOM_COUNT>  (1) 
0

>  <PUBCHEM_COMPONENT_COUNT>  (1) 
1

>  <PUBCHEM_CACTVS_TAUTO_COUNT>  (1) 
2

>  <PUBCHEM_CONFORMER_ID>  (1) 
0000BB2000000001

>  <PUBCHEM_MMFF94_ENERGY>  (1) 
57.1519

>  <PUBCHEM_FEATURE_SELFOVERLAP>  (1) 
40.689

>  <PUBCHEM_SHAPE_FINGERPRINT>  (1) 
10411042 1 18337954476274126703
1100329 8 18196375823391213993
11045515 52 18262800640681426660
11056379 131 17834967369427807694
11578080 2 17895177892510053588
11963148 33 17620749922773826855
12107183 9 18269847424116350825
12553582 1 18265035981896240323
12788726 201 17472393479591827295
12839892 36 17761758964081278971
13140716 1 17980759655847738272
13540713 5 18059010730909529967
13785724 45 18270128906791464926
138480 1 18410853274485784228
13955234 65 18266746959585651969
14028597 1 17630064851554082608
14466204 15 18123477081799166441
14739800 52 17559956696333318153
14955137 171 18337964389512391627
15042514 8 18050852108916007863
15664445 248 18200050490051119110
15927050 60 17837212941470069142
17980427 23 17702945821362001949
17980427 26 18125435569010162580
1813 80 18334569118731924818
20028762 73 16541589262367633830
20600515 1 17913217463775533052
21049683 271 18261684743853650220
21120745 212 18124898767413581756
21304253 13 18341613651334888057
21421861 104 18336542828182814561
21650355 55 18123469380200066054
21796203 349 17977708339071543867
22182313 1 17969481836717996357
22956985 138 18264199378512705618
2297311 6 18198632025620302270
23366157 5 18263365948318647237
23419403 2 18188749713434650797
23559900 14 18409161139044195211
23566358 27 18338233902846654431
25147074 1 17916020347418166375
283562 15 17115497442624170732
3091708 16 9357030324232552680
3421961 26 18410292540418905283
43471831 8 17980195619088171645
4409770 3 17685770220726810461
5385378 56 18267309918319197609
59755656 215 18266179607248995869
77188 2 18337674114020766124
79837 15 17329142984539405962
90316 7 18123477076712914654
9841814 1 18341348737636279655
9981440 41 17688589781088864739

>  <PUBCHEM_SHAPE_MULTIPOLES>  (1) 
466.98
9.95
5.87
0.99
12.62
1.57
0.04
-7.21
-2.31
-11.65
0.13
-0.28
0.58
-0.49

>  <PUBCHEM_SHAPE_SELFOVERLAP>  (1) 
1019.395

>  <PUBCHEM_SHAPE_VOLUME>  (1) 
257.4

>  <PUBCHEM_COORDINATE_TYPE>  (1) 
2
5
10

$$$$
