47903
     RDKit          3D

 23 26  0  0  0  0  0  0  0  0999 V2000
    6.3666   -1.1007    0.6310 Cl  0  0  0  0  0  0  0  0  0  0  0  0
   -0.6523   -0.9745   -1.2929 S   0  0  0  0  0  0  0  0  0  0  0  0
    1.8574    1.5102    0.4179 N   0  0  0  0  0  0  0  0  0  0  0  0
   -3.1851   -3.3298    0.8349 N   0  0  0  0  0  0  0  0  0  0  0  0
   -3.6470   -1.8089   -0.8155 N   0  0  0  0  0  0  0  0  0  0  0  0
   -4.3529   -2.8973    0.9475 N   0  0  0  0  0  0  0  0  0  0  0  0
   -4.6368   -1.9622   -0.0671 N   0  0  0  0  0  0  0  0  0  0  0  0
    1.9904   -0.5673   -0.3842 C   0  0  0  0  0  0  0  0  0  0  0  0
    0.6135    1.1956   -0.0594 C   0  0  0  0  0  0  0  0  0  0  0  0
    0.6640   -0.0840   -0.5625 C   0  0  0  0  0  0  0  0  0  0  0  0
    2.7186    0.4522    0.2329 C   0  0  0  0  0  0  0  0  0  0  0  0
   -0.4763    2.1427    0.0166 C   0  0  0  0  0  0  0  0  0  0  0  0
    2.6436   -1.7779   -0.6896 C   0  0  0  0  0  0  0  0  0  0  0  0
    4.0726    0.3210    0.5612 C   0  0  0  0  0  0  0  0  0  0  0  0
   -1.4039   -1.8235    0.1334 C   0  0  0  0  0  0  0  0  0  0  0  0
    3.9978   -1.9234   -0.3669 C   0  0  0  0  0  0  0  0  0  0  0  0
    4.6994   -0.8888    0.2488 C   0  0  0  0  0  0  0  0  0  0  0  0
   -2.5869   -2.6635   -0.3093 C   0  0  0  0  0  0  0  0  0  0  0  0
   -1.3044    2.1590    1.1370 C   0  0  0  0  0  0  0  0  0  0  0  0
   -0.6957    3.0349   -1.0308 C   0  0  0  0  0  0  0  0  0  0  0  0
   -2.3565    3.0720    1.2106 C   0  0  0  0  0  0  0  0  0  0  0  0
   -1.7479    3.9478   -0.9572 C   0  0  0  0  0  0  0  0  0  0  0  0
   -2.5783    3.9667    0.1635 C   0  0  0  0  0  0  0  0  0  0  0  0
  1 17  1  0
  2 10  1  0
  2 15  1  0
  3  9  1  0
  3 11  1  0
  4  6  2  0
  4 18  1  0
  5  7  2  0
  5 18  1  0
  6  7  1  0
  8 10  1  0
  8 11  2  0
  8 13  1  0
  9 10  2  0
  9 12  1  0
 11 14  1  0
 12 19  2  0
 12 20  1  0
 13 16  2  0
 14 17  2  0
 15 18  1  0
 16 17  1  0
 19 21  1  0
 20 22  2  0
 21 23  2  0
 22 23  1  0
M  END
>  <PUBCHEM_COMPOUND_CID>  (1) 
47903

>  <PUBCHEM_CONFORMER_RMSD>  (1) 
0.8

>  <PUBCHEM_CONFORMER_DIVERSEORDER>  (1) 
1
13
18
19
2
15
10
22
14
12
5
7
23
17
6
11
16
8
3
21
20
4
9

>  <PUBCHEM_MMFF94_PARTIAL_CHARGES>  (1) 
29
1 -0.18
10 0.05
11 -0.15
12 0.05
13 -0.15
14 -0.15
15 0.23
16 -0.15
17 0.18
18 0.49
19 -0.15
2 -0.28
20 -0.15
21 -0.15
22 -0.15
23 -0.15
24 0.27
25 0.15
26 0.15
29 0.15
3 0.03
31 0.15
32 0.15
33 0.15
34 0.15
35 0.15
4 -0.25
5 -0.25
9 -0.2

>  <PUBCHEM_EFFECTIVE_ROTOR_COUNT>  (1) 
4.2

>  <PUBCHEM_PHARMACOPHORE_FEATURES>  (1) 
6
1 3 cation
1 3 donor
5 3 8 9 10 11 rings
5 4 5 6 7 18 rings
6 12 19 20 21 22 23 rings
6 8 11 13 14 16 17 rings

>  <PUBCHEM_HEAVY_ATOM_COUNT>  (1) 
23

>  <PUBCHEM_ATOM_DEF_STEREO_COUNT>  (1) 
0

>  <PUBCHEM_ATOM_UDEF_STEREO_COUNT>  (1) 
0

>  <PUBCHEM_BOND_DEF_STEREO_COUNT>  (1) 
0

>  <PUBCHEM_BOND_UDEF_STEREO_COUNT>  (1) 
0

>  <PUBCHEM_ISOTOPIC_ATOM_COUNT>  (1) 
0

>  <PUBCHEM_COMPONENT_COUNT>  (1) 
1

>  <PUBCHEM_CACTVS_TAUTO_COUNT>  (1) 
1

>  <PUBCHEM_CONFORMER_ID>  (1) 
0000BB1F00000001

>  <PUBCHEM_MMFF94_ENERGY>  (1) 
46.4296

>  <PUBCHEM_FEATURE_SELFOVERLAP>  (1) 
30.54

>  <PUBCHEM_SHAPE_FINGERPRINT>  (1) 
10688039 33 18336546109437374175
108634 29 18198905816567613639
11578080 2 16628521865764706291
12422481 6 17985575319630992939
12788726 201 18335697256623008666
13004483 165 18339637948835011419
13052359 8 18193274096297892101
13134695 92 18053939834372863477
13140716 1 18340772632287512953
13540713 4 18059575712414091798
138480 1 15816502421269059789
14178342 30 18336537215124775506
14790565 3 17257934221968601653
14866123 147 18048595919614662947
14955137 171 17545603813167298384
15042514 8 18410858715771647840
15885798 251 18338236071504555919
15927050 60 17907013976311898094
17138139 8 17623805143458932429
19591789 44 17690284811438891015
20739085 24 17979917434272739504
21041028 32 18339359776804137614
21641784 216 18262815067635161748
22182313 1 17632020737333149134
22224240 67 18054791672428098265
23419403 2 17417227927446692113
23558518 356 18333453149317322240
25147074 1 18187097152491561628
350125 39 18343299306209365424
3759504 43 18123464982443939340
4409770 3 18335411319422995741
5104073 3 18270101424503903682
59755656 520 18048592625553471492
621550 5 17678451077274872519
7164475 11 18409171021679469548
79837 15 17982174417837891737
81228 2 18408325488220565561
9925002 15 18115890558277608892
9981440 41 16407533214590713664

>  <PUBCHEM_SHAPE_MULTIPOLES>  (1) 
454.14
9.51
5.24
1.09
12.12
0.61
-0.03
-5.16
2.23
-10.01
0.27
-0.48
0.2
0.66

>  <PUBCHEM_SHAPE_SELFOVERLAP>  (1) 
981.055

>  <PUBCHEM_SHAPE_VOLUME>  (1) 
254

>  <PUBCHEM_COORDINATE_TYPE>  (1) 
2
5
10

$$$$
