47915
     RDKit          3D

 13 14  0  0  1  0  0  0  0  0999 V2000
    3.6031   -0.3080   -1.0093 O   0  0  0  0  0  0  0  0  0  0  0  0
   -3.6031    0.3007   -1.0110 O   0  0  0  0  0  0  0  0  0  0  0  0
    2.9644    0.5522   -0.1157 N   0  0  0  0  0  0  0  0  0  0  0  0
   -2.9634   -0.5551   -0.1140 N   0  0  0  0  0  0  0  0  0  0  0  0
    0.7889    0.9619    0.8886 C   0  0  0  0  0  0  0  0  0  0  0  0
   -0.7881   -0.9575    0.8930 C   0  0  0  0  0  0  0  0  0  0  0  0
    0.0009    0.0039    1.7735 C   0  0  0  0  0  0  0  0  0  0  0  0
   -0.1594    1.8274    0.0501 C   0  0  0  0  0  0  0  0  0  0  0  0
    0.1594   -1.8258    0.0565 C   0  0  0  0  0  0  0  0  0  0  0  0
   -1.2222    1.0517   -0.7277 C   0  0  0  0  0  0  0  0  0  0  0  0
    1.2196   -1.0520   -0.7267 C   0  0  0  0  0  0  0  0  0  0  0  0
    1.7398    0.1580    0.0203 C   0  0  0  0  0  0  0  0  0  0  0  0
   -1.7401   -0.1574    0.0224 C   0  0  0  0  0  0  0  0  0  0  0  0
  1  3  1  0
  2  4  1  0
  3 12  2  0
  4 13  2  0
  5  7  1  0
  5  8  1  0
  5 12  1  0
  6  7  1  0
  6  9  1  0
  6 13  1  0
  8 10  1  0
  9 11  1  0
 10 13  1  0
 11 12  1  0
M  END
>  <PUBCHEM_COMPOUND_CID>  (1) 
47915

>  <PUBCHEM_CONFORMER_RMSD>  (1) 
0.4

>  <PUBCHEM_CONFORMER_DIVERSEORDER>  (1) 
1
4
3
2

>  <PUBCHEM_MMFF94_PARTIAL_CHARGES>  (1) 
12
1 -0.34
10 0.06
11 0.06
12 0.33
13 0.33
2 -0.34
26 0.4
27 0.4
3 -0.51
4 -0.51
5 0.06
6 0.06

>  <PUBCHEM_EFFECTIVE_ROTOR_COUNT>  (1) 
1

>  <PUBCHEM_PHARMACOPHORE_FEATURES>  (1) 
6
1 1 anion
1 2 anion
1 3 acceptor
1 4 acceptor
6 5 6 7 8 10 13 rings
6 5 6 7 9 11 12 rings

>  <PUBCHEM_HEAVY_ATOM_COUNT>  (1) 
13

>  <PUBCHEM_ATOM_DEF_STEREO_COUNT>  (1) 
0

>  <PUBCHEM_ATOM_UDEF_STEREO_COUNT>  (1) 
2

>  <PUBCHEM_BOND_DEF_STEREO_COUNT>  (1) 
0

>  <PUBCHEM_BOND_UDEF_STEREO_COUNT>  (1) 
2

>  <PUBCHEM_ISOTOPIC_ATOM_COUNT>  (1) 
0

>  <PUBCHEM_COMPONENT_COUNT>  (1) 
1

>  <PUBCHEM_CACTVS_TAUTO_COUNT>  (1) 
3

>  <PUBCHEM_CONFORMER_ID>  (1) 
0000BB2B00000001

>  <PUBCHEM_MMFF94_ENERGY>  (1) 
32.7035

>  <PUBCHEM_FEATURE_SELFOVERLAP>  (1) 
31.957

>  <PUBCHEM_SHAPE_FINGERPRINT>  (1) 
11206711 2 18340215089555648516
11769659 78 15626504977690022934
12138202 97 17822299010488637754
12423570 1 13438880986185105067
12897270 3 18410573963703008077
13024252 1 15792025535740238752
13299463 15 18271526403334470988
14128692 85 16917062304311488399
15557651 10 17604693577740197223
15775835 57 15647053763317858671
16945 1 18410573993741385947
18534176 82 17822870756640335970
20201158 50 18342179959752385190
20645476 183 17167866408602952474
20653085 51 15719972296772788158
21501502 16 18122626058934026289
23235685 24 18187076261079478621
23402539 116 18334282176393669526
23559900 14 18410012165834809768
2748010 2 18050287264797294723
353137 74 18187644639855958541
369184 2 15719684259159921568
5084963 1 18202002157053858272
528886 8 18411695495828596659
68250623 7 17911525298395208193

>  <PUBCHEM_SHAPE_MULTIPOLES>  (1) 
245.83
4.12
1.54
1.19
0
0
0.35
-0.01
-1.95
0
-0.01
0
0
0.37

>  <PUBCHEM_SHAPE_SELFOVERLAP>  (1) 
512.578

>  <PUBCHEM_SHAPE_VOLUME>  (1) 
138.4

>  <PUBCHEM_COORDINATE_TYPE>  (1) 
2
5
10

$$$$
