47914
     RDKit          3D

 16 18  0  0  1  0  0  0  0  0999 V2000
   -2.5624    2.7425    0.6886 Br  0  0  0  0  0  0  0  0  0  0  0  0
    3.2861    1.7260   -0.2292 O   0  0  0  0  0  0  0  0  0  0  0  0
    3.9746   -0.5791    0.5524 O   0  0  0  0  0  0  0  0  0  0  0  0
    2.6259   -0.8824    0.7495 N   0  0  0  0  0  0  0  0  0  0  0  0
    0.3702   -0.2576   -0.0550 C   0  0  0  0  0  0  0  0  0  0  0  0
   -1.7836    1.0038    0.2606 C   0  0  0  0  0  0  0  0  0  0  0  0
   -1.6421   -0.8036   -1.4807 C   0  0  0  0  0  0  0  0  0  0  0  0
   -1.6326   -1.4032    0.9714 C   0  0  0  0  0  0  0  0  0  0  0  0
   -0.2500    1.1142    0.2828 C   0  0  0  0  0  0  0  0  0  0  0  0
   -0.1070   -0.6973   -1.4540 C   0  0  0  0  0  0  0  0  0  0  0  0
   -0.0973   -1.2936    0.9866 C   0  0  0  0  0  0  0  0  0  0  0  0
   -2.2506    0.5685   -1.1379 C   0  0  0  0  0  0  0  0  0  0  0  0
   -2.2418   -0.0287    1.3040 C   0  0  0  0  0  0  0  0  0  0  0  0
   -2.0949   -1.8349   -0.4317 C   0  0  0  0  0  0  0  0  0  0  0  0
    1.8691   -0.1683   -0.0260 C   0  0  0  0  0  0  0  0  0  0  0  0
    2.5361    0.7939   -0.9813 C   0  0  0  0  0  0  0  0  0  0  0  0
  1  6  1  0
  2 16  1  0
  3  4  1  0
  4 15  2  0
  5  9  1  0
  5 10  1  0
  5 11  1  0
  5 15  1  0
  6  9  1  0
  6 12  1  0
  6 13  1  0
  7 10  1  0
  7 12  1  0
  7 14  1  0
  8 11  1  0
  8 13  1  0
  8 14  1  0
 15 16  1  0
M  END
>  <PUBCHEM_COMPOUND_CID>  (1) 
47914

>  <PUBCHEM_CONFORMER_RMSD>  (1) 
0.6

>  <PUBCHEM_CONFORMER_DIVERSEORDER>  (1) 
1
4
2
5
3

>  <PUBCHEM_MMFF94_PARTIAL_CHARGES>  (1) 
10
1 -0.23
15 0.33
16 0.34
2 -0.68
3 -0.34
33 0.4
34 0.4
4 -0.51
5 0.06
6 0.23

>  <PUBCHEM_EFFECTIVE_ROTOR_COUNT>  (1) 
3.2

>  <PUBCHEM_PHARMACOPHORE_FEATURES>  (1) 
9
1 1 hydrophobe
1 2 acceptor
1 2 donor
1 3 anion
1 4 acceptor
6 5 6 7 9 10 12 rings
6 5 6 8 9 11 13 rings
6 5 7 8 10 11 14 rings
6 6 7 8 12 13 14 rings

>  <PUBCHEM_HEAVY_ATOM_COUNT>  (1) 
16

>  <PUBCHEM_ATOM_DEF_STEREO_COUNT>  (1) 
0

>  <PUBCHEM_ATOM_UDEF_STEREO_COUNT>  (1) 
2

>  <PUBCHEM_BOND_DEF_STEREO_COUNT>  (1) 
0

>  <PUBCHEM_BOND_UDEF_STEREO_COUNT>  (1) 
1

>  <PUBCHEM_ISOTOPIC_ATOM_COUNT>  (1) 
0

>  <PUBCHEM_COMPONENT_COUNT>  (1) 
1

>  <PUBCHEM_CACTVS_TAUTO_COUNT>  (1) 
2

>  <PUBCHEM_CONFORMER_ID>  (1) 
0000BB2A00000001

>  <PUBCHEM_MMFF94_ENERGY>  (1) 
48.3169

>  <PUBCHEM_FEATURE_SELFOVERLAP>  (1) 
58.209

>  <PUBCHEM_SHAPE_FINGERPRINT>  (1) 
10863032 1 18187362142945796975
10948715 1 18196656194492374345
12423570 1 11799739475931027303
12491281 212 18411983529035862316
13024252 1 17894627063296991487
13027679 85 17686632641938664281
14614273 12 17203325606958764359
14817 1 17975172883027967975
15534591 1 18198621043114145329
15852999 172 16486399967932189038
15906896 17 18341052930643631451
16945 1 18272092694988674407
19837323 101 17845652547642417225
19868273 293 17988923323346144949
19868273 325 18057612155606512933
200 152 18263351650346450286
20525323 117 18411422842514219348
20653085 51 18129106632155542677
21296965 12 18201169745437520425
21501502 16 18334860541042796664
21524375 3 18196935457492615649
2306618 200 17749659804906416556
23402539 116 18271512123122112973
23419403 2 16962947360091376187
23559900 14 17130696194704240290
2748010 2 17385720313883407310
298252 57 17701529611593440857
369184 2 18187646933210076655
430814 3 17980191998805229041
45790113 50 18187094961177265658
5706482 22 18268143163343443273
74978 22 18333448729584698598

>  <PUBCHEM_SHAPE_MULTIPOLES>  (1) 
318.5
4.83
2.16
1.37
4.81
1.01
-0.21
1.71
0.51
-1.53
0.21
-0.4
-0.34
-0.62

>  <PUBCHEM_SHAPE_SELFOVERLAP>  (1) 
673.006

>  <PUBCHEM_SHAPE_VOLUME>  (1) 
183.7

>  <PUBCHEM_COORDINATE_TYPE>  (1) 
2
5
10

$$$$
