47918
     RDKit          3D

 14 16  0  0  0  0  0  0  0  0999 V2000
   -3.5112   -0.6843    0.0084 O   0  0  0  0  0  0  0  0  0  0  0  0
    3.5112   -0.6843    0.0090 O   0  0  0  0  0  0  0  0  0  0  0  0
   -2.4799   -1.3545   -0.0054 N   0  0  0  0  0  0  0  0  0  0  0  0
    2.4799   -1.3543   -0.0053 N   0  0  0  0  0  0  0  0  0  0  0  0
   -1.2615   -0.4838   -0.0118 C   0  0  0  0  0  0  0  0  0  0  0  0
    1.2616   -0.4839   -0.0124 C   0  0  0  0  0  0  0  0  0  0  0  0
    0.0003    1.3165   -1.2507 C   0  0  0  0  0  0  0  0  0  0  0  0
   -0.0004    1.2843    1.2722 C   0  0  0  0  0  0  0  0  0  0  0  0
    0.0001   -1.3720   -0.0235 C   0  0  0  0  0  0  0  0  0  0  0  0
   -1.2547    0.4253   -1.2580 C   0  0  0  0  0  0  0  0  0  0  0  0
   -1.2550    0.3924    1.2567 C   0  0  0  0  0  0  0  0  0  0  0  0
    1.2550    0.4246   -1.2580 C   0  0  0  0  0  0  0  0  0  0  0  0
    1.2547    0.3931    1.2568 C   0  0  0  0  0  0  0  0  0  0  0  0
   -0.0001    2.1810    0.0220 C   0  0  0  0  0  0  0  0  0  0  0  0
  1  3  2  0
  2  4  2  0
  3  5  1  0
  4  6  1  0
  5  9  1  0
  5 10  1  0
  5 11  1  0
  6  9  1  0
  6 12  1  0
  6 13  1  0
  7 10  1  0
  7 12  1  0
  7 14  1  0
  8 11  1  0
  8 13  1  0
  8 14  1  0
M  END
>  <PUBCHEM_COMPOUND_CID>  (1) 
47918

>  <PUBCHEM_CONFORMER_RMSD>  (1) 
0.6

>  <PUBCHEM_CONFORMER_DIVERSEORDER>  (1) 
2
1

>  <PUBCHEM_MMFF94_PARTIAL_CHARGES>  (1) 
6
1 -0.16
2 -0.16
3 -0.17
4 -0.17
5 0.33
6 0.33

>  <PUBCHEM_EFFECTIVE_ROTOR_COUNT>  (1) 
3.2

>  <PUBCHEM_PHARMACOPHORE_FEATURES>  (1) 
4
6 5 6 7 9 10 12 rings
6 5 6 8 9 11 13 rings
6 5 7 8 10 11 14 rings
6 6 7 8 12 13 14 rings

>  <PUBCHEM_HEAVY_ATOM_COUNT>  (1) 
14

>  <PUBCHEM_ATOM_DEF_STEREO_COUNT>  (1) 
0

>  <PUBCHEM_ATOM_UDEF_STEREO_COUNT>  (1) 
0

>  <PUBCHEM_BOND_DEF_STEREO_COUNT>  (1) 
0

>  <PUBCHEM_BOND_UDEF_STEREO_COUNT>  (1) 
0

>  <PUBCHEM_ISOTOPIC_ATOM_COUNT>  (1) 
0

>  <PUBCHEM_COMPONENT_COUNT>  (1) 
1

>  <PUBCHEM_CACTVS_TAUTO_COUNT>  (1) 
1

>  <PUBCHEM_CONFORMER_ID>  (1) 
0000BB2E00000002

>  <PUBCHEM_MMFF94_ENERGY>  (1) 
39.5924

>  <PUBCHEM_FEATURE_SELFOVERLAP>  (1) 
32.814

>  <PUBCHEM_SHAPE_FINGERPRINT>  (1) 
10702982 57 17262150333701132328
12423570 1 14712604300048466581
12725867 57 18340481274453995053
13024252 1 14274888467938805476
14128692 85 18334298703169575950
144361 1 17822010912656233589
14817 1 13051589770642783156
16945 1 18411139134128141007
22112679 90 18055386640866228129
23419403 2 18197750328441566908
241688 4 18409729530156645856
2748010 2 18266998661601185524
369184 2 18056756525407230186
5084963 1 18334575745734781698
528886 8 18040989592820393623

>  <PUBCHEM_SHAPE_MULTIPOLES>  (1) 
266.41
3.4
1.71
1.33
0
0.43
0.01
-2.03
0.01
0
-0.01
0
0.49
0

>  <PUBCHEM_SHAPE_SELFOVERLAP>  (1) 
579.639

>  <PUBCHEM_SHAPE_VOLUME>  (1) 
140.3

>  <PUBCHEM_COORDINATE_TYPE>  (1) 
2
5
10

$$$$
