47920
     RDKit          3D

 30 34  0  0  0  0  0  0  0  0999 V2000
    7.2067    0.1768    0.9480 Cl  0  0  0  0  0  0  0  0  0  0  0  0
   -3.2321    0.8843   -1.3613 S   0  0  0  0  0  0  0  0  0  0  0  0
    1.0673   -2.2322    0.2257 O   0  0  0  0  0  0  0  0  0  0  0  0
    0.4497   -0.1277   -0.3336 N   0  0  0  0  0  0  0  0  0  0  0  0
   -5.0551    0.8949    0.6368 N   0  0  0  0  0  0  0  0  0  0  0  0
   -3.0934    1.8827    1.1876 N   0  0  0  0  0  0  0  0  0  0  0  0
   -5.0173    1.3743    1.8880 N   0  0  0  0  0  0  0  0  0  0  0  0
   -3.8739    1.9676    2.2579 N   0  0  0  0  0  0  0  0  0  0  0  0
   -0.8791   -0.4187   -0.5792 C   0  0  0  0  0  0  0  0  0  0  0  0
    0.6416    1.2380   -0.5700 C   0  0  0  0  0  0  0  0  0  0  0  0
   -0.5931    1.7805   -0.9525 C   0  0  0  0  0  0  0  0  0  0  0  0
   -1.5366    0.7266   -0.9515 C   0  0  0  0  0  0  0  0  0  0  0  0
   -1.4589   -1.7449   -0.4489 C   0  0  0  0  0  0  0  0  0  0  0  0
    1.4263   -1.0725    0.0499 C   0  0  0  0  0  0  0  0  0  0  0  0
    1.7846    2.0546   -0.4701 C   0  0  0  0  0  0  0  0  0  0  0  0
   -0.6861    3.1563   -1.2500 C   0  0  0  0  0  0  0  0  0  0  0  0
    1.6683    3.4158   -0.7699 C   0  0  0  0  0  0  0  0  0  0  0  0
    0.4507    3.9615   -1.1558 C   0  0  0  0  0  0  0  0  0  0  0  0
    2.8525   -0.7642    0.2708 C   0  0  0  0  0  0  0  0  0  0  0  0
   -1.4733   -2.5991   -1.5450 C   0  0  0  0  0  0  0  0  0  0  0  0
   -1.9925   -2.1448    0.7703 C   0  0  0  0  0  0  0  0  0  0  0  0
   -2.0295   -3.8722   -1.4199 C   0  0  0  0  0  0  0  0  0  0  0  0
   -2.5487   -3.4177    0.8953 C   0  0  0  0  0  0  0  0  0  0  0  0
    3.2908   -0.3859    1.5372 C   0  0  0  0  0  0  0  0  0  0  0  0
    3.7533   -0.8539   -0.7873 C   0  0  0  0  0  0  0  0  0  0  0  0
   -2.5672   -4.2816   -0.1997 C   0  0  0  0  0  0  0  0  0  0  0  0
   -3.8391    1.2439    0.2684 C   0  0  0  0  0  0  0  0  0  0  0  0
    4.6388   -0.0953    1.7470 C   0  0  0  0  0  0  0  0  0  0  0  0
    5.1013   -0.5633   -0.5776 C   0  0  0  0  0  0  0  0  0  0  0  0
    5.5441   -0.1839    0.6896 C   0  0  0  0  0  0  0  0  0  0  0  0
  1 30  1  0
  2 12  1  0
  2 27  1  0
  3 14  2  0
  4  9  1  0
  4 10  1  0
  4 14  1  0
  5  7  1  0
  5 27  2  0
  6  8  2  0
  6 27  1  0
  7  8  1  0
  9 12  2  0
  9 13  1  0
 10 11  1  0
 10 15  2  0
 11 12  1  0
 11 16  2  0
 13 20  2  0
 13 21  1  0
 14 19  1  0
 15 17  1  0
 16 18  1  0
 17 18  2  0
 19 24  2  0
 19 25  1  0
 20 22  1  0
 21 23  2  0
 22 26  2  0
 23 26  1  0
 24 28  1  0
 25 29  2  0
 28 30  2  0
 29 30  1  0
M  END
>  <PUBCHEM_COMPOUND_CID>  (1) 
47920

>  <PUBCHEM_CONFORMER_RMSD>  (1) 
0.8

>  <PUBCHEM_CONFORMER_DIVERSEORDER>  (1) 
2
6
23
13
22
20
14
9
25
27
10
26
15
8
4
17
5
19
24
3
7
11
1
12
16
18
21

>  <PUBCHEM_MMFF94_PARTIAL_CHARGES>  (1) 
43
1 -0.18
10 -0.15
12 0.05
13 0.05
14 0.49
15 -0.15
16 -0.15
17 -0.15
18 -0.15
19 0.09
2 -0.11
20 -0.15
21 -0.15
22 -0.15
23 -0.15
24 -0.15
25 -0.15
26 -0.15
27 0.57
28 -0.15
29 -0.15
3 -0.57
30 0.18
31 0.15
32 0.15
33 0.15
34 0.15
35 0.15
36 0.15
37 0.15
38 0.15
39 0.15
4 0.29
40 0.15
41 0.15
42 0.15
43 0.15
44 0.27
5 -0.71
6 -0.23
7 0.57
8 -0.42
9 -0.2

>  <PUBCHEM_EFFECTIVE_ROTOR_COUNT>  (1) 
5

>  <PUBCHEM_PHARMACOPHORE_FEATURES>  (1) 
7
1 3 acceptor
3 5 6 27 cation
5 4 9 10 11 12 rings
5 5 6 7 8 27 rings
6 10 11 15 16 17 18 rings
6 13 20 21 22 23 26 rings
6 19 24 25 28 29 30 rings

>  <PUBCHEM_HEAVY_ATOM_COUNT>  (1) 
30

>  <PUBCHEM_ATOM_DEF_STEREO_COUNT>  (1) 
0

>  <PUBCHEM_ATOM_UDEF_STEREO_COUNT>  (1) 
0

>  <PUBCHEM_BOND_DEF_STEREO_COUNT>  (1) 
0

>  <PUBCHEM_BOND_UDEF_STEREO_COUNT>  (1) 
0

>  <PUBCHEM_ISOTOPIC_ATOM_COUNT>  (1) 
0

>  <PUBCHEM_COMPONENT_COUNT>  (1) 
1

>  <PUBCHEM_CACTVS_TAUTO_COUNT>  (1) 
2

>  <PUBCHEM_CONFORMER_ID>  (1) 
0000BB3000000002

>  <PUBCHEM_MMFF94_ENERGY>  (1) 
83.2895

>  <PUBCHEM_FEATURE_SELFOVERLAP>  (1) 
35.612

>  <PUBCHEM_SHAPE_FINGERPRINT>  (1) 
10006869 2 17972306318390157451
10411042 1 18118393171692012878
10675989 125 16311588399585023693
1100329 8 18335419101297184909
11115154 58 17341777323111495791
11578080 2 17773592926147856865
12035758 1 18336841818125465049
12553582 1 18334288734877562204
12633257 1 18333732424621592956
13009979 54 18125438867471296075
13140716 1 18336543927652185412
133893 2 17243296299250319708
13540713 5 18191594265895538308
13583140 156 16515959281219358060
13911987 19 18116414973810330741
14068700 675 18055898034217189455
14790565 3 18265060136950698868
14840074 17 18334864891940178204
14955137 171 18262534614601859444
17818456 19 18199757006303331723
19591789 44 17977950081368686510
20028762 73 18343587339780634943
20600515 1 18343030986253362956
20739085 24 17978811016274143977
21033648 29 18129650890301159441
2132832 1 18124307465996151175
21344244 78 17766835409605234035
21421861 104 17976835494558519739
244849 19 16844755073794593502
25147074 1 18189903191453016676
3178227 256 18260546689706382973
392239 28 18115290272964507608
460360 51 17897160436486604740
5104073 3 18339063996156287474
5486654 36 18187646976249635066
9981440 41 17397790546095373913

>  <PUBCHEM_SHAPE_MULTIPOLES>  (1) 
592.33
10.72
4.87
1.65
14.73
0.89
-0.58
0.79
-5.6
-5.08
1.53
-1.07
-0.38
-1.72

>  <PUBCHEM_SHAPE_SELFOVERLAP>  (1) 
1310.509

>  <PUBCHEM_SHAPE_VOLUME>  (1) 
319.9

>  <PUBCHEM_COORDINATE_TYPE>  (1) 
2
5
10

$$$$
