47927
     RDKit          3D

 38 44  0  0  1  0  0  0  0  0999 V2000
    3.9476   -3.0381    0.8157 O   0  0  0  0  0  0  0  0  0  0  0  0
   -3.2034    1.7704   -0.6111 O   0  0  0  0  0  0  0  0  0  0  0  0
   -4.5722   -0.6801   -0.6935 O   0  0  0  0  0  0  0  0  0  0  0  0
   -5.0821    1.8644    0.8142 O   0  0  0  0  0  0  0  0  0  0  0  0
    6.9110    2.9385    0.2120 O   0  0  0  0  0  0  0  0  0  0  0  0
   -4.9379    0.6083   -2.6462 O   0  0  0  0  0  0  0  0  0  0  0  0
   -7.2204   -0.8262   -1.5320 O   0  0  0  0  0  0  0  0  0  0  0  0
   -6.6489   -0.5033    1.2207 O   0  0  0  0  0  0  0  0  0  0  0  0
    8.8465    2.3883   -0.9047 O   0  0  0  0  0  0  0  0  0  0  0  0
    1.8349   -1.8934    0.5836 C   0  0  0  0  0  0  0  0  0  0  0  0
    1.1205   -0.5595    0.2332 C   0  0  0  0  0  0  0  0  0  0  0  0
    3.3574   -1.8582    0.2481 C   0  0  0  0  0  0  0  0  0  0  0  0
    4.0939   -0.5624    0.7656 C   0  0  0  0  0  0  0  0  0  0  0  0
   -0.4322   -0.6098    0.5009 C   0  0  0  0  0  0  0  0  0  0  0  0
   -1.0080   -1.8376   -0.2769 C   0  0  0  0  0  0  0  0  0  0  0  0
    1.8174    0.6614    0.8747 C   0  0  0  0  0  0  0  0  0  0  0  0
    3.1444    0.3531    1.5641 C   0  0  0  0  0  0  0  0  0  0  0  0
    4.5871    0.1296   -0.5481 C   0  0  0  0  0  0  0  0  0  0  0  0
    1.1411   -3.1176   -0.0547 C   0  0  0  0  0  0  0  0  0  0  0  0
    3.6670   -1.9310   -1.2660 C   0  0  0  0  0  0  0  0  0  0  0  0
   -0.3672   -3.1510    0.1766 C   0  0  0  0  0  0  0  0  0  0  0  0
   -1.1178    0.6744   -0.0537 C   0  0  0  0  0  0  0  0  0  0  0  0
    4.8887   -1.0477   -1.4697 C   0  0  0  0  0  0  0  0  0  0  0  0
   -2.5426   -1.9136   -0.2427 C   0  0  0  0  0  0  0  0  0  0  0  0
   -2.6465    0.5919   -0.0182 C   0  0  0  0  0  0  0  0  0  0  0  0
   -0.7273   -0.7155    2.0225 C   0  0  0  0  0  0  0  0  0  0  0  0
    5.2866   -0.9034    1.6968 C   0  0  0  0  0  0  0  0  0  0  0  0
   -3.1479   -0.6227   -0.7890 C   0  0  0  0  0  0  0  0  0  0  0  0
    5.7301    1.0858   -0.4314 C   0  0  0  0  0  0  0  0  0  0  0  0
   -5.1934    0.4941   -1.2422 C   0  0  0  0  0  0  0  0  0  0  0  0
   -4.6418    1.7564   -0.5446 C   0  0  0  0  0  0  0  0  0  0  0  0
    5.6253    2.3273    0.3621 C   0  0  0  0  0  0  0  0  0  0  0  0
    6.9328    0.9707   -0.9880 C   0  0  0  0  0  0  0  0  0  0  0  0
   -6.7142    0.4084   -1.0313 C   0  0  0  0  0  0  0  0  0  0  0  0
   -7.1155    0.5906    0.4328 C   0  0  0  0  0  0  0  0  0  0  0  0
    7.6950    2.1524   -0.5818 C   0  0  0  0  0  0  0  0  0  0  0  0
   -6.5049    1.8924    0.9617 C   0  0  0  0  0  0  0  0  0  0  0  0
   -6.8031    2.1128    2.4402 C   0  0  0  0  0  0  0  0  0  0  0  0
  1 12  1  0
  2 25  1  0
  2 31  1  0
  3 28  1  0
  3 30  1  0
  4 31  1  0
  4 37  1  0
  5 32  1  0
  5 36  1  0
  6 30  1  0
  7 34  1  0
  8 35  1  0
  9 36  2  0
 10 11  1  0
 10 12  1  0
 10 19  1  0
 11 14  1  0
 11 16  1  0
 12 13  1  0
 12 20  1  0
 13 17  1  0
 13 18  1  0
 13 27  1  0
 14 15  1  0
 14 22  1  0
 14 26  1  0
 15 21  1  0
 15 24  1  0
 16 17  1  0
 18 23  1  0
 18 29  1  0
 19 21  1  0
 20 23  1  0
 22 25  1  0
 24 28  1  0
 25 28  1  0
 29 32  1  0
 29 33  2  0
 30 31  1  0
 30 34  1  0
 33 36  1  0
 34 35  1  0
 35 37  1  0
 37 38  1  0
M  END
>  <PUBCHEM_COMPOUND_CID>  (1) 
47927

>  <PUBCHEM_CONFORMER_RMSD>  (1) 
0.8

>  <PUBCHEM_CONFORMER_DIVERSEORDER>  (1) 
2
21
29
14
28
32
20
19
37
31
17
23
15
27
24
25
18
30
35
8
10
22
3
5
7
6
13
26
4
34
33
36
11
16
12
1
9

>  <PUBCHEM_MMFF94_PARTIAL_CHARGES>  (1) 
27
1 -0.68
12 0.28
18 0.14
2 -0.56
25 0.28
28 0.28
29 -0.28
3 -0.56
30 0.56
31 0.56
32 0.42
33 -0.14
34 0.28
35 0.28
36 0.71
37 0.28
4 -0.56
5 -0.43
6 -0.68
67 0.4
7 -0.68
71 0.15
75 0.4
76 0.4
8 -0.68
80 0.4
9 -0.57

>  <PUBCHEM_EFFECTIVE_ROTOR_COUNT>  (1) 
4.4

>  <PUBCHEM_PHARMACOPHORE_FEATURES>  (1) 
19
1 1 acceptor
1 1 donor
1 2 acceptor
1 3 acceptor
1 4 acceptor
1 6 acceptor
1 6 donor
1 7 acceptor
1 7 donor
1 8 acceptor
1 8 donor
1 9 acceptor
5 12 13 18 20 23 rings
5 5 29 32 33 36 rings
6 10 11 12 13 16 17 rings
6 10 11 14 15 19 21 rings
6 14 15 22 24 25 28 rings
6 2 3 25 28 30 31 rings
6 4 30 31 34 35 37 rings

>  <PUBCHEM_HEAVY_ATOM_COUNT>  (1) 
38

>  <PUBCHEM_ATOM_DEF_STEREO_COUNT>  (1) 
9

>  <PUBCHEM_ATOM_UDEF_STEREO_COUNT>  (1) 
5

>  <PUBCHEM_BOND_DEF_STEREO_COUNT>  (1) 
0

>  <PUBCHEM_BOND_UDEF_STEREO_COUNT>  (1) 
0

>  <PUBCHEM_ISOTOPIC_ATOM_COUNT>  (1) 
0

>  <PUBCHEM_COMPONENT_COUNT>  (1) 
1

>  <PUBCHEM_CACTVS_TAUTO_COUNT>  (1) 
1

>  <PUBCHEM_CONFORMER_ID>  (1) 
0000BB3700000002

>  <PUBCHEM_MMFF94_ENERGY>  (1) 
135.6986

>  <PUBCHEM_FEATURE_SELFOVERLAP>  (1) 
96.889

>  <PUBCHEM_SHAPE_FINGERPRINT>  (1) 
10 15 17821445772501483009
10369192 42 18409449206568748575
10675989 125 18410573947304062250
10906281 52 18272656722942476955
11007060 377 18272372009876592475
11135609 12 9871751274386931774
11135609 187 18343304764458430832
11135609 201 18113614621121668032
11273773 42 18272374178339379717
11796584 16 13973668525535129070
1200032 147 18260832609852789490
12760667 363 10087643697561120781
13150687 139 18341339951061659318
1361 87 13038898992965878908
13690498 29 17701530947001879375
13726171 33 18337397153439585120
13782708 43 16879072923837672883
14294032 229 18269839881558367966
14394314 77 18340494378822234737
14664723 55 18262813964308783284
14790565 3 18340768118324312139
14849402 71 18412830205104468409
14856354 85 16917061201443968693
14904525 67 18263923250739201837
15064981 194 18122362413015693796
15183329 4 18272084994028098493
15198563 99 17478046520692214494
15276724 80 18339360764731583437
15324884 4 16841900914188904754
15361156 5 18059854004381945999
15685185 35 18339367482239808104
1577012 14 18342738494801471841
16126227 98 18410860996393864385
16728433 281 16414373156031095129
17899979 129 18343310245475276886
18608769 82 18337393858941679939
19319366 153 18187918439610729739
19438510 23 18114180869694473282
20715895 44 18409168853322514540
21033648 144 18187077356375390703
21033648 29 17895205432626396446
21033650 10 15913062992524769139
21298829 104 18410015455184238020
21304304 249 9583519819802900304
21521721 280 18410297990843407715
21772528 278 18342455946294181295
21781055 127 17988646243033796818
21814621 53 16299220207804733673
23516275 137 17345497936635668023
23522609 53 17988655043052423521
23559900 14 18129654339502457608
23576562 1 18057034937671709549
23729398 52 18193565459282186190
24771293 8 18260832604756566556
25269216 80 17203039786155418447
3004659 81 12895353292005175014
34797466 226 18272937102686235678
3918712 181 18336538352879886333
394071 54 18334862718665686252
397830 11 16515413979460596945
3986486 107 17846230964427829732
4073 2 18333733524635089195
4093350 32 17775011163489037188
4098825 35 17917717872278723348
4112364 45 18114449138174243304
4149490 64 18186803565623206786
4169191 19 18408885144372037605
4197921 191 18272087167698217041
44317340 157 18269556039732034189
4516262 110 17895183438056299182
45377200 153 16486400140353854719
504579 68 16630533938184990008
5265222 85 17275098483435568581
550186 72 18335981966064177101
5758199 1 18411703183909954713
5776283 40 18341612680667706384
57816373 69 11241968183653535272
5937810 71 18059864981817623281
6201320 82 17901965350843560284
6695519 79 17459206092401337321

>  <PUBCHEM_SHAPE_MULTIPOLES>  (1) 
729.2
22.96
3.12
1.66
1.78
0.63
0.15
-18.67
-3.43
-3.43
0.28
1.55
-0.24
-1.99

>  <PUBCHEM_SHAPE_SELFOVERLAP>  (1) 
1593.148

>  <PUBCHEM_SHAPE_VOLUME>  (1) 
389.5

>  <PUBCHEM_COORDINATE_TYPE>  (1) 
2
5
10

$$$$
