47922
     RDKit          3D

 14 14  0  0  0  0  0  0  0  0999 V2000
   -1.8895   -0.7134   -0.9817 O   0  0  0  0  0  0  0  0  0  0  0  0
   -3.0931    0.1606    0.8347 O   0  0  0  0  0  0  0  0  0  0  0  0
   -2.1149    0.4486   -0.1724 C   0  0  0  0  0  0  0  0  0  0  0  0
    1.3560    2.1140    0.7235 C   0  0  0  0  0  0  0  0  0  0  0  0
    0.0946    1.7109   -0.0111 C   0  0  0  0  0  0  0  0  0  0  0  0
   -0.8387    0.8665    0.4694 C   0  0  0  0  0  0  0  0  0  0  0  0
    2.5825    1.2671    0.3587 C   0  0  0  0  0  0  0  0  0  0  0  0
   -2.5692   -1.7687   -0.3013 C   0  0  0  0  0  0  0  0  0  0  0  0
   -3.6913   -1.0627    0.4089 C   0  0  0  0  0  0  0  0  0  0  0  0
   -0.0969    2.3579   -1.3590 C   0  0  0  0  0  0  0  0  0  0  0  0
    2.4426   -0.1676    0.7867 C   0  0  0  0  0  0  0  0  0  0  0  0
    2.5657   -1.2763    0.0330 C   0  0  0  0  0  0  0  0  0  0  0  0
    2.3964   -2.6387    0.6515 C   0  0  0  0  0  0  0  0  0  0  0  0
    2.8558   -1.2983   -1.4407 C   0  0  0  0  0  0  0  0  0  0  0  0
  1  3  1  0
  1  8  1  0
  2  3  1  0
  2  9  1  0
  3  6  1  0
  4  5  1  0
  4  7  1  0
  5  6  2  0
  5 10  1  0
  7 11  1  0
  8  9  1  0
 11 12  2  3
 12 13  1  0
 12 14  1  0
M  END
>  <PUBCHEM_COMPOUND_CID>  (1) 
47922

>  <PUBCHEM_CONFORMER_RMSD>  (1) 
0.6

>  <PUBCHEM_CONFORMER_DIVERSEORDER>  (1) 
1
80
52
93
98
75
30
17
54
4
42
28
82
87
56
117
116
100
39
51
70
58
33
26
73
122
78
101
86
13
115
110
38
89
120
71
14
43
41
64
95
84
83
6
85
72
113
114
44
111
12
19
103
47
94
31
32
34
18
60
61
63
107
65
112
2
77
57
15
92
126
106
45
123
125
16
35
68
20
128
10
59
67
22
5
119
27
69
74
36
49
8
29
53
46
88
23
81
129
24
121
11
99
66
108
21
25
127
37
102
90
48
3
124
105
76
55
118
50
96
62
7
79
104
91
109
9
97
40

>  <PUBCHEM_MMFF94_PARTIAL_CHARGES>  (1) 
16
1 -0.56
10 0.14
11 -0.29
12 -0.28
13 0.14
14 0.14
18 0.15
2 -0.56
28 0.15
3 0.7
4 0.14
5 -0.28
6 -0.29
7 0.14
8 0.28
9 0.28

>  <PUBCHEM_EFFECTIVE_ROTOR_COUNT>  (1) 
5

>  <PUBCHEM_PHARMACOPHORE_FEATURES>  (1) 
6
1 1 acceptor
1 10 hydrophobe
1 2 acceptor
3 12 13 14 hydrophobe
4 4 5 7 11 hydrophobe
5 1 2 3 8 9 rings

>  <PUBCHEM_HEAVY_ATOM_COUNT>  (1) 
14

>  <PUBCHEM_ATOM_DEF_STEREO_COUNT>  (1) 
0

>  <PUBCHEM_ATOM_UDEF_STEREO_COUNT>  (1) 
0

>  <PUBCHEM_BOND_DEF_STEREO_COUNT>  (1) 
0

>  <PUBCHEM_BOND_UDEF_STEREO_COUNT>  (1) 
1

>  <PUBCHEM_ISOTOPIC_ATOM_COUNT>  (1) 
0

>  <PUBCHEM_COMPONENT_COUNT>  (1) 
1

>  <PUBCHEM_CACTVS_TAUTO_COUNT>  (1) 
1

>  <PUBCHEM_CONFORMER_ID>  (1) 
0000BB3200000001

>  <PUBCHEM_MMFF94_ENERGY>  (1) 
17.6396

>  <PUBCHEM_FEATURE_SELFOVERLAP>  (1) 
30.492

>  <PUBCHEM_SHAPE_FINGERPRINT>  (1) 
10618630 7 18409167684120511232
11067466 332 18334579087736062508
11321824 6 17690537711819145002
11322862 65 17902507082554998245
12400797 245 18341602742038945502
12553582 1 18339643321987051466
12596599 1 18131082514612198315
14178342 30 18053371377944399113
14251705 54 18264772249518827435
14251711 518 18342447158216099678
14251717 144 18267296710956905179
14251757 17 17759471808614213943
14350558 41 18266179620207347761
15276787 5 15410335429802819578
19766037 51 18336562529076371102
20291156 8 18339647745761083882
20442098 301 17988640834772931231
20645477 70 18270673281412082511
20871998 22 18409446981564919464
21256008 148 17974559196082449780
22445834 79 18271807990186085753
2255824 54 17977387462164949317
22721475 48 18411418414571742354
23557571 272 16950548991734612028
4175511 376 16226907711979810492
4416823 128 18340489976110380234
7364860 26 18129383872300040592
81228 2 17969770900327451133
8199 65 18266171932194743506
94968 8 18410582798656710970

>  <PUBCHEM_SHAPE_MULTIPOLES>  (1) 
276.37
5.79
2.87
1.15
2.59
0.02
0.33
-3.59
-0.47
-1.36
0.16
-0.38
0.08
0.26

>  <PUBCHEM_SHAPE_SELFOVERLAP>  (1) 
536.208

>  <PUBCHEM_SHAPE_VOLUME>  (1) 
168.3

>  <PUBCHEM_COORDINATE_TYPE>  (1) 
2
5
10

$$$$
