47937
     RDKit          3D

 25 27  0  0  1  0  0  0  0  0999 V2000
   -6.8196   -2.3126   -0.5217 Cl  0  0  0  0  0  0  0  0  0  0  0  0
   -3.0087    0.7464    2.0612 S   0  0  0  0  0  0  0  0  0  0  0  0
    3.6333    0.9622   -0.3248 O   0  0  0  0  0  0  0  0  0  0  0  0
   -0.6883    1.9044    1.4711 O   0  0  0  0  0  0  0  0  0  0  0  0
    3.5504   -2.6083   -0.0842 O   0  0  0  0  0  0  0  0  0  0  0  0
    4.2952   -0.9965    1.3876 O   0  0  0  0  0  0  0  0  0  0  0  0
   -1.7648    0.7334   -0.1981 N   0  0  0  0  0  0  0  0  0  0  0  0
    3.4175   -0.3625   -0.7860 C   0  0  0  0  0  0  0  0  0  0  0  0
    2.5331    1.7770   -0.2416 C   0  0  0  0  0  0  0  0  0  0  0  0
    0.3546    2.2477    0.6665 C   0  0  0  0  0  0  0  0  0  0  0  0
    1.4731    1.4186    0.5823 C   0  0  0  0  0  0  0  0  0  0  0  0
    4.2488   -0.5670   -2.0403 C   0  0  0  0  0  0  0  0  0  0  0  0
   -3.7431   -0.1070    0.7555 C   0  0  0  0  0  0  0  0  0  0  0  0
   -2.9283   -0.0012   -0.3758 C   0  0  0  0  0  0  0  0  0  0  0  0
    3.8215   -1.3291    0.3089 C   0  0  0  0  0  0  0  0  0  0  0  0
    2.4913    2.9517   -0.9829 C   0  0  0  0  0  0  0  0  0  0  0  0
   -1.7247    1.1578    1.0298 C   0  0  0  0  0  0  0  0  0  0  0  0
    0.3044    3.4288   -0.0740 C   0  0  0  0  0  0  0  0  0  0  0  0
    1.3728    3.7808   -0.8986 C   0  0  0  0  0  0  0  0  0  0  0  0
   -4.9535   -0.8185    0.7335 C   0  0  0  0  0  0  0  0  0  0  0  0
   -3.3420   -0.6303   -1.5701 C   0  0  0  0  0  0  0  0  0  0  0  0
   -5.3397   -1.4320   -0.4611 C   0  0  0  0  0  0  0  0  0  0  0  0
   -4.5460   -1.3403   -1.5991 C   0  0  0  0  0  0  0  0  0  0  0  0
    3.8593   -3.6265    0.8731 C   0  0  0  0  0  0  0  0  0  0  0  0
    3.5033   -4.9770    0.2888 C   0  0  0  0  0  0  0  0  0  0  0  0
  1 22  1  0
  2 13  1  0
  2 17  1  0
  3  8  1  0
  3  9  1  0
  4 10  1  0
  4 17  1  0
  5 15  1  0
  5 24  1  0
  6 15  2  0
  7 14  1  0
  7 17  2  0
  8 12  1  0
  8 15  1  0
  9 11  2  0
  9 16  1  0
 10 11  1  0
 10 18  2  0
 13 14  2  0
 13 20  1  0
 14 21  1  0
 16 19  2  0
 18 19  1  0
 20 22  2  0
 21 23  2  0
 22 23  1  0
 24 25  1  0
M  END
>  <PUBCHEM_COMPOUND_CID>  (1) 
47937

>  <PUBCHEM_CONFORMER_RMSD>  (1) 
0.8

>  <PUBCHEM_CONFORMER_DIVERSEORDER>  (1) 
1
302
207
62
295
283
233
126
262
281
288
79
147
71
106
99
220
227
162
129
27
12
213
100
114
16
73
176
206
280
278
306
264
255
45
39
254
136
134
245
196
177
154
198
310
85
23
81
235
120
50
292
272
93
195
89
173
110
188
117
203
53
132
311
172
137
307
152
148
197
52
111
242
143
146
243
218
58
124
130
270
171
253
80
113
294
69
182
135
308
40
31
150
161
157
298
192
265
314
11
47
26
183
131
261
232
158
116
142
313
291
61
76
276
125
98
215
297
269
309
249
187
194
94
139
105
300
299
219
140
14
121
86
258
211
275
19
244
87
75
90
24
312
296
25
202
115
238
145
159
156
240
214
303
22
277
97
64
63
119
239
167
149
229
35
284
15
104
246
234
208
165
221
109
18
266
178
186
170
48
226
289
127
8
168
141
128
230
274
273
225
138
200
210
13
96
20
41
46
222
179
209
205
123
49
29
241
28
236
112
38
84
163
55
267
263
305
286
204
83
67
70
6
193
72
102
185
271
252
251
9
153
74
118
92
190
30
88
10
228
257
223
231
37
54
144
290
32
60
250
287
301
77
259
199
217
57
107
189
66
216
95
260
56
164
133
78
101
108
279
282
151
184
201
44
2
4
224
160
42
51
293
122
268
68
248
155
91
33
191
65
175
169
247
285
174
5
3
17
256
103
237
212
21
7
82
166
59
180
181
43
304
36
34

>  <PUBCHEM_MMFF94_PARTIAL_CHARGES>  (1) 
30
1 -0.18
10 0.08
11 -0.15
13 0.04
14 0.23
15 0.66
16 -0.15
17 0.44
18 -0.15
19 -0.15
2 -0.08
20 -0.15
21 -0.15
22 0.18
23 -0.15
24 0.28
3 -0.36
30 0.15
31 0.15
32 0.15
33 0.15
34 0.15
35 0.15
36 0.15
4 -0.15
5 -0.43
6 -0.57
7 -0.57
8 0.34
9 0.08

>  <PUBCHEM_EFFECTIVE_ROTOR_COUNT>  (1) 
7

>  <PUBCHEM_PHARMACOPHORE_FEATURES>  (1) 
5
1 3 acceptor
1 6 acceptor
5 2 7 13 14 17 rings
6 13 14 20 21 22 23 rings
6 9 10 11 16 18 19 rings

>  <PUBCHEM_HEAVY_ATOM_COUNT>  (1) 
25

>  <PUBCHEM_ATOM_DEF_STEREO_COUNT>  (1) 
0

>  <PUBCHEM_ATOM_UDEF_STEREO_COUNT>  (1) 
1

>  <PUBCHEM_BOND_DEF_STEREO_COUNT>  (1) 
0

>  <PUBCHEM_BOND_UDEF_STEREO_COUNT>  (1) 
0

>  <PUBCHEM_ISOTOPIC_ATOM_COUNT>  (1) 
0

>  <PUBCHEM_COMPONENT_COUNT>  (1) 
1

>  <PUBCHEM_CACTVS_TAUTO_COUNT>  (1) 
1

>  <PUBCHEM_CONFORMER_ID>  (1) 
0000BB4100000001

>  <PUBCHEM_MMFF94_ENERGY>  (1) 
61.3744

>  <PUBCHEM_FEATURE_SELFOVERLAP>  (1) 
25.453

>  <PUBCHEM_SHAPE_FINGERPRINT>  (1) 
10042902 136 17988380177966954468
10448021 39 18412256234080121687
10622 236 18342736282835285519
10928967 22 18341061713483058670
11069576 57 18261401014209266678
11135926 11 18042708224611908140
11552529 35 17911516490082085192
11991303 11 17393337924479585596
12107183 9 18198072395929639681
12553582 1 18336561421328165264
12655364 74 12670944231297260170
13533116 47 18199472254509199829
13911987 19 17825694371948527028
14114206 34 16953960626503110458
14251740 57 17846789519858917886
14429380 30 18191587450337002938
14480069 147 18195813092681727515
14508693 111 16053755555532399701
14863182 85 18267576000333715912
15342816 4 18342466919729568988
15537594 2 18268451056595484778
17134984 74 18265333000433025895
17818456 19 17916043273526857473
1813 80 18341618109247495957
18681886 176 15983154797037931509
19026451 147 18335695048967795730
19315092 285 17988917864906819370
19319366 153 18054224607346543180
20626108 58 18412258411501738944
20645477 70 18116150150358925025
20775530 9 18272928297881901070
21285901 2 17531514486000372788
21304303 94 18190173667108419587
235170 7 16298970708986142034
23569914 152 17832104310242914535
3004659 81 18200881772191251829
345986 75 17988925565603832513
34797466 226 16153713180280091351
3729539 64 18334007290419770747
4017518 198 16246307048637790502
44062 13 18192147105749165229
46194498 28 17677890317427991069
463206 1 18057320802173379663
5223283 242 17895739717973203981
5281201 14 18042116708583452029
56633871 153 18052829039644682275
59025328 239 18336809949152124524
59682541 52 18262785364020832167
6034566 193 10590883593783566579
613672 6 18188207611547993698
6438754 60 18336259068119686027
70251023 43 18335980956604002305
7970288 3 18411136892229936114
86090 222 15028595317572510471

>  <PUBCHEM_SHAPE_MULTIPOLES>  (1) 
491.75
12.91
5.08
1.62
13.49
2.99
-0.03
13.29
-2.49
-7.79
0.23
0.45
-0.05
-2.55

>  <PUBCHEM_SHAPE_SELFOVERLAP>  (1) 
1035.38

>  <PUBCHEM_SHAPE_VOLUME>  (1) 
280.1

>  <PUBCHEM_COORDINATE_TYPE>  (1) 
2
5
10

$$$$
