47948
     RDKit          3D

 12 12  0  0  0  0  0  0  0  0999 V2000
    0.8399   -0.2252    0.7384 O   0  0  0  0  0  0  0  0  0  0  0  0
    3.2431   -1.5864   -0.6841 O   0  0  0  0  0  0  0  0  0  0  0  0
   -2.3049   -0.3191   -0.0741 N   0  0  0  0  0  0  0  0  0  0  0  0
   -1.4560    0.4602    0.9199 C   0  0  0  0  0  0  0  0  0  0  0  0
   -1.6532   -1.6662   -0.3515 C   0  0  0  0  0  0  0  0  0  0  0  0
   -3.6942   -0.5378    0.5075 C   0  0  0  0  0  0  0  0  0  0  0  0
   -2.4164    0.4673   -1.3723 C   0  0  0  0  0  0  0  0  0  0  0  0
   -0.0637    0.7217    0.4258 C   0  0  0  0  0  0  0  0  0  0  0  0
    0.4732    1.7415   -0.2859 C   0  0  0  0  0  0  0  0  0  0  0  0
    2.0132    0.2036    0.2039 C   0  0  0  0  0  0  0  0  0  0  0  0
    1.8405    1.4086   -0.4366 C   0  0  0  0  0  0  0  0  0  0  0  0
    3.1784   -0.6683    0.4090 C   0  0  0  0  0  0  0  0  0  0  0  0
  1  8  1  0
  1 10  1  0
  2 12  1  0
  3  4  1  0
  3  5  1  0
  3  6  1  0
  3  7  1  0
  4  8  1  0
  8  9  2  0
  9 11  1  0
 10 11  2  0
 10 12  1  0
M  CHG  1   3   1
M  END
>  <PUBCHEM_COMPOUND_CID>  (1) 
47948

>  <PUBCHEM_CONFORMER_RMSD>  (1) 
0.6

>  <PUBCHEM_CONFORMER_DIVERSEORDER>  (1) 
1
5
8
6
3
4
7
2
9

>  <PUBCHEM_MMFF94_PARTIAL_CHARGES>  (1) 
15
1 -0.28
10 -0.04
11 -0.15
12 0.46
2 -0.68
24 0.15
25 0.15
28 0.4
3 -1.01
4 0.68
5 0.5
6 0.5
7 0.5
8 -0.04
9 -0.15

>  <PUBCHEM_EFFECTIVE_ROTOR_COUNT>  (1) 
3

>  <PUBCHEM_PHARMACOPHORE_FEATURES>  (1) 
5
1 1 acceptor
1 2 acceptor
1 2 donor
1 3 cation
5 1 8 9 10 11 rings

>  <PUBCHEM_HEAVY_ATOM_COUNT>  (1) 
12

>  <PUBCHEM_ATOM_DEF_STEREO_COUNT>  (1) 
0

>  <PUBCHEM_ATOM_UDEF_STEREO_COUNT>  (1) 
0

>  <PUBCHEM_BOND_DEF_STEREO_COUNT>  (1) 
0

>  <PUBCHEM_BOND_UDEF_STEREO_COUNT>  (1) 
0

>  <PUBCHEM_ISOTOPIC_ATOM_COUNT>  (1) 
0

>  <PUBCHEM_COMPONENT_COUNT>  (1) 
1

>  <PUBCHEM_CACTVS_TAUTO_COUNT>  (1) 
1

>  <PUBCHEM_CONFORMER_ID>  (1) 
0000BB4C00000001

>  <PUBCHEM_MMFF94_ENERGY>  (1) 
22.349

>  <PUBCHEM_FEATURE_SELFOVERLAP>  (1) 
25.372

>  <PUBCHEM_SHAPE_FINGERPRINT>  (1) 
10857977 72 13542459899364834617
10922523 26 18333443257495696381
11769659 78 18059851727806516550
12932764 1 17458617934757191113
13296908 3 18261105275033917528
14128692 85 18410858776191190936
14350558 41 18272655657732162486
15310529 11 17895471535397813293
15775835 57 18190184674940520917
16945 1 18271240629101018632
17844478 74 17458628951664939737
18511873 20 18343867718996800563
18619055 16 18340483460449871949
19422 9 18338526347422773995
20201158 50 18410571781923301862
20645477 70 18336541715918140335
20653085 51 17749387057662077365
20671657 53 18261394408385729204
207724 885 18411985762587498995
20871998 22 18339927013525232170
22802520 49 17530952558370090581
23402539 116 14836116603853382729
23552423 10 18263641929895042531
23557571 272 15070335837226740880
2748010 2 18187070789164854797
369184 2 11455904567653460085
7364860 26 18270683207102979168

>  <PUBCHEM_SHAPE_MULTIPOLES>  (1) 
230.23
5.44
1.61
0.99
0.37
0.07
-0.13
2.16
-0.24
-0.66
-0.33
0.39
-0.05
0.16

>  <PUBCHEM_SHAPE_SELFOVERLAP>  (1) 
459.23

>  <PUBCHEM_SHAPE_VOLUME>  (1) 
140.8

>  <PUBCHEM_COORDINATE_TYPE>  (1) 
2
5
10

$$$$
