4795
     RDKit          3D

 31 33  0  0  1  0  0  0  0  0999 V2000
    3.9902   -0.1679   -0.9620 P   0  0  0  0  0  0  0  0  0  0  0  0
    3.0662    2.0805    0.7074 P   0  0  0  0  0  0  0  0  0  0  0  0
    0.3847    2.6473    0.3788 P   0  0  0  0  0  0  0  0  0  0  0  0
    0.6184   -1.2650   -0.2939 O   0  0  0  0  0  0  0  0  0  0  0  0
   -1.4402   -3.1124    1.9552 O   0  0  0  0  0  0  0  0  0  0  0  0
    0.7085   -4.7734    0.4489 O   0  0  0  0  0  0  0  0  0  0  0  0
    3.2557   -1.5778   -1.2643 O   0  0  0  0  0  0  0  0  0  0  0  0
    2.9325    0.6553   -0.0575 O   0  0  0  0  0  0  0  0  0  0  0  0
    5.1628   -0.5417    0.0878 O   0  0  0  0  0  0  0  0  0  0  0  0
    4.4631    0.5687   -2.1817 O   0  0  0  0  0  0  0  0  0  0  0  0
    4.1209    1.7039    1.8836 O   0  0  0  0  0  0  0  0  0  0  0  0
    3.5931    3.1627   -0.1969 O   0  0  0  0  0  0  0  0  0  0  0  0
   -0.9973    2.6301    1.2308 O   0  0  0  0  0  0  0  0  0  0  0  0
    0.5068    4.2283    0.0272 O   0  0  0  0  0  0  0  0  0  0  0  0
    0.3065    1.7976   -0.8612 O   0  0  0  0  0  0  0  0  0  0  0  0
   -1.7045   -0.8178   -0.3247 N   0  0  0  0  0  0  0  0  0  0  0  0
   -2.9090   -0.1807   -2.0890 N   0  0  0  0  0  0  0  0  0  0  0  0
   -3.1132    0.0224    1.4671 N   0  0  0  0  0  0  0  0  0  0  0  0
   -5.1043    1.1249    0.5862 N   0  0  0  0  0  0  0  0  0  0  0  0
   -5.5388    1.3097   -1.7599 N   0  0  0  0  0  0  0  0  0  0  0  0
    1.6079    2.3304    1.4457 N   0  0  0  0  0  0  0  0  0  0  0  0
   -0.7958   -2.9041    0.7107 C   0  0  0  0  0  0  0  0  0  0  0  0
    0.6369   -3.3903    0.7377 C   0  0  0  0  0  0  0  0  0  0  0  0
   -0.6122   -1.4163    0.4398 C   0  0  0  0  0  0  0  0  0  0  0  0
    1.2671   -2.5465   -0.3581 C   0  0  0  0  0  0  0  0  0  0  0  0
    2.7653   -2.3651   -0.1929 C   0  0  0  0  0  0  0  0  0  0  0  0
   -2.8051   -0.1838    0.1778 C   0  0  0  0  0  0  0  0  0  0  0  0
   -1.8121   -0.7899   -1.6899 C   0  0  0  0  0  0  0  0  0  0  0  0
   -3.5391    0.2031   -0.9320 C   0  0  0  0  0  0  0  0  0  0  0  0
   -4.7302    0.8813   -0.6930 C   0  0  0  0  0  0  0  0  0  0  0  0
   -4.2847    0.6867    1.5722 C   0  0  0  0  0  0  0  0  0  0  0  0
  1  7  1  0
  1  8  1  0
  1  9  1  0
  1 10  2  0
  2  8  1  0
  2 11  1  0
  2 12  2  0
  2 21  1  0
  3 13  1  0
  3 14  1  0
  3 15  2  0
  3 21  1  0
  4 24  1  0
  4 25  1  0
  5 22  1  0
  6 23  1  0
  7 26  1  0
 16 24  1  0
 16 27  1  0
 16 28  1  0
 17 28  2  0
 17 29  1  0
 18 27  1  0
 18 31  2  0
 19 30  2  0
 19 31  1  0
 20 30  1  0
 22 23  1  0
 22 24  1  0
 23 25  1  0
 25 26  1  0
 27 29  2  0
 29 30  1  0
M  END
>  <PUBCHEM_COMPOUND_CID>  (1) 
4795

>  <PUBCHEM_CONFORMER_RMSD>  (1) 
1.6

>  <PUBCHEM_CONFORMER_DIVERSEORDER>  (1) 
1
44
38
47
80
76
85
39
70
15
60
42
78
58
12
41
37
40
18
56
54
16
61
34
100
46
45
24
43
59
99
27
86
52
87
26
53
35
83
97
63
21
55
65
96
68
66
103
14
28
51
30
36
33
101
74
13
4
77
67
79
10
88
19
7
92
5
62
29
95
98
48
73
81
91
50
22
75
17
102
94
9
82
31
93
23
2
57
69
72
25
8
90
89
71
11
32
6
20
64
49
3
84

>  <PUBCHEM_MMFF94_PARTIAL_CHARGES>  (1) 
42
1 1.51
10 -0.7
11 -0.77
12 -0.7
13 -0.77
14 -0.77
15 -0.7
16 0.05
17 -0.57
18 -0.57
19 -0.62
2 1.51
20 -0.9
21 -0.9
22 0.28
23 0.28
24 0.54
25 0.28
26 0.28
27 0.11
28 0.04
29 0.23
3 1.51
30 0.41
31 0.47
38 0.4
39 0.4
4 -0.56
40 0.15
41 0.15
42 0.5
43 0.4
44 0.4
45 0.36
46 0.5
47 0.5
48 0.5
5 -0.68
6 -0.68
7 -0.55
8 -0.54
9 -0.77

>  <PUBCHEM_EFFECTIVE_ROTOR_COUNT>  (1) 
9

>  <PUBCHEM_PHARMACOPHORE_FEATURES>  (1) 
20
1 10 acceptor
1 11 acceptor
1 12 acceptor
1 13 acceptor
1 14 acceptor
1 15 acceptor
1 20 donor
1 4 acceptor
1 5 acceptor
1 5 donor
1 6 acceptor
1 6 donor
1 9 acceptor
3 16 17 28 cation
3 18 19 31 cation
3 19 20 30 cation
4 3 13 14 15 anion
5 16 17 27 28 29 rings
5 4 22 23 24 25 rings
6 18 19 27 29 30 31 rings

>  <PUBCHEM_HEAVY_ATOM_COUNT>  (1) 
31

>  <PUBCHEM_ATOM_DEF_STEREO_COUNT>  (1) 
0

>  <PUBCHEM_ATOM_UDEF_STEREO_COUNT>  (1) 
4

>  <PUBCHEM_BOND_DEF_STEREO_COUNT>  (1) 
0

>  <PUBCHEM_BOND_UDEF_STEREO_COUNT>  (1) 
0

>  <PUBCHEM_ISOTOPIC_ATOM_COUNT>  (1) 
0

>  <PUBCHEM_COMPONENT_COUNT>  (1) 
1

>  <PUBCHEM_CACTVS_TAUTO_COUNT>  (1) 
9

>  <PUBCHEM_CONFORMER_ID>  (1) 
000012BB00000001

>  <PUBCHEM_MMFF94_ENERGY>  (1) 
-8.8225

>  <PUBCHEM_FEATURE_SELFOVERLAP>  (1) 
101.818

>  <PUBCHEM_SHAPE_FINGERPRINT>  (1) 
10165383 225 18115324322520854599
10675989 125 18340759369170975425
10721379 63 17405082709812187573
10906281 52 18272097140876210508
12633257 1 18263345023739076040
12769317 202 18262792961037419039
12788726 201 18268719316379864068
13140716 1 18408323293819929282
13402501 40 18412543223952679960
13726171 33 17901687169536545996
144659 39 17459182044579123020
14787075 74 18335150765190175311
14848178 96 18411702110030837660
14931854 50 18269000799719760820
17093844 170 18341609343799643136
20511986 3 17489288790271677841
20691752 17 18411409622905718532
20764821 26 18266468783233397682
21033648 29 18040710351216303069
22122407 14 18053959351068831961
22907989 373 17253982568471447805
23559900 14 15938110851291256691
3298306 158 18333723607454725893
3380486 145 16894268586771438075
474 4 18341322344972594379
508706 21 18191026917848269035
70251023 43 17835231247913093255
7471813 234 17907278971651879895
9981440 41 16765603654125672257

>  <PUBCHEM_SHAPE_MULTIPOLES>  (1) 
549.2
9.47
4.78
1.73
3.14
1.51
-0.22
-4.55
-2.23
-3.17
1.79
0.6
-0.11
0.94

>  <PUBCHEM_SHAPE_SELFOVERLAP>  (1) 
1119.953

>  <PUBCHEM_SHAPE_VOLUME>  (1) 
320.9

>  <PUBCHEM_COORDINATE_TYPE>  (1) 
2
5
10

$$$$
