47954
     RDKit          3D

 18 20  0  0  0  0  0  0  0  0999 V2000
    0.6763   -0.7061   -0.0002 C   0  0  0  0  0  0  0  0  0  0  0  0
    0.6763    0.7061   -0.0001 C   0  0  0  0  0  0  0  0  0  0  0  0
   -0.5488   -1.3937   -0.0002 C   0  0  0  0  0  0  0  0  0  0  0  0
   -0.5488    1.3937   -0.0001 C   0  0  0  0  0  0  0  0  0  0  0  0
   -1.7739   -0.7060    0.0000 C   0  0  0  0  0  0  0  0  0  0  0  0
   -1.7739    0.7061    0.0000 C   0  0  0  0  0  0  0  0  0  0  0  0
    1.9017   -1.3929   -0.0001 C   0  0  0  0  0  0  0  0  0  0  0  0
    1.9017    1.3930    0.0000 C   0  0  0  0  0  0  0  0  0  0  0  0
    3.1099   -0.6956   -0.0001 C   0  0  0  0  0  0  0  0  0  0  0  0
    3.1099    0.6955    0.0000 C   0  0  0  0  0  0  0  0  0  0  0  0
   -0.5495   -2.8987    0.0007 C   0  0  0  0  0  0  0  0  0  0  0  0
   -0.5493    2.8986    0.0001 C   0  0  0  0  0  0  0  0  0  0  0  0
   -2.9992   -1.3929    0.0000 C   0  0  0  0  0  0  0  0  0  0  0  0
   -2.9993    1.3929    0.0000 C   0  0  0  0  0  0  0  0  0  0  0  0
    4.3909   -1.4638   -0.0004 C   0  0  0  0  0  0  0  0  0  0  0  0
    4.3909    1.4637    0.0005 C   0  0  0  0  0  0  0  0  0  0  0  0
   -4.2075   -0.6956   -0.0001 C   0  0  0  0  0  0  0  0  0  0  0  0
   -4.2075    0.6956   -0.0001 C   0  0  0  0  0  0  0  0  0  0  0  0
  1  2  1  0
  1  3  2  0
  1  7  1  0
  2  4  2  0
  2  8  1  0
  3  5  1  0
  3 11  1  0
  4  6  1  0
  4 12  1  0
  5  6  2  0
  5 13  1  0
  6 14  1  0
  7  9  2  0
  8 10  2  0
  9 10  1  0
  9 15  1  0
 10 16  1  0
 13 17  2  0
 14 18  2  0
 17 18  1  0
M  END
>  <PUBCHEM_COMPOUND_CID>  (1) 
47954

>  <PUBCHEM_CONFORMER_RMSD>  (1) 
0.4

>  <PUBCHEM_CONFORMER_DIVERSEORDER>  (1) 
1

>  <PUBCHEM_MMFF94_PARTIAL_CHARGES>  (1) 
20
10 -0.14
11 0.14
12 0.14
13 -0.15
14 -0.15
15 0.14
16 0.14
17 -0.15
18 -0.15
19 0.15
20 0.15
27 0.15
28 0.15
3 -0.14
35 0.15
36 0.15
4 -0.14
7 -0.15
8 -0.15
9 -0.14

>  <PUBCHEM_EFFECTIVE_ROTOR_COUNT>  (1) 
0

>  <PUBCHEM_PHARMACOPHORE_FEATURES>  (1) 
3
6 1 2 3 4 5 6 rings
6 1 2 7 8 9 10 rings
6 5 6 13 14 17 18 rings

>  <PUBCHEM_HEAVY_ATOM_COUNT>  (1) 
18

>  <PUBCHEM_ATOM_DEF_STEREO_COUNT>  (1) 
0

>  <PUBCHEM_ATOM_UDEF_STEREO_COUNT>  (1) 
0

>  <PUBCHEM_BOND_DEF_STEREO_COUNT>  (1) 
0

>  <PUBCHEM_BOND_UDEF_STEREO_COUNT>  (1) 
0

>  <PUBCHEM_ISOTOPIC_ATOM_COUNT>  (1) 
0

>  <PUBCHEM_COMPONENT_COUNT>  (1) 
1

>  <PUBCHEM_CACTVS_TAUTO_COUNT>  (1) 
1

>  <PUBCHEM_CONFORMER_ID>  (1) 
0000BB5200000001

>  <PUBCHEM_MMFF94_ENERGY>  (1) 
74.8697

>  <PUBCHEM_FEATURE_SELFOVERLAP>  (1) 
15.274

>  <PUBCHEM_SHAPE_FINGERPRINT>  (1) 
10062212 137 18412255125915041183
10608611 8 18411134736155755752
10967382 1 18410856589709848390
11132069 177 18413101753809623993
11471102 20 18410570690943196756
11680986 33 17979070818983061785
12032990 46 18410015442077179115
12403259 226 18339355275847475968
12403814 3 17531238495844163173
13132413 78 18339926025313814021
13140716 1 18338521845996276633
13221675 6 18410291436448838226
13862211 1 18410568461913744431
14178342 30 17908123727520899018
14790565 3 18339933601889792865
15196674 1 18410855460244206351
15309172 13 18411708659972086747
15442244 35 18337953372936620850
15536298 74 18342176665696896902
16945 1 18122626042028463659
17804303 29 18340771451282178814
18186145 218 18187078434206414326
193761 8 17689998938426069191
19591789 44 18410573993937090771
200 152 18059849580649753925
20028762 73 18129943511467530871
20510252 161 18343302543791748064
20739085 24 18191896477243593537
21029758 11 18342171215505107385
21267235 1 18410583867919074779
21501502 16 18411702075887292608
221490 88 18263370346249159163
2334 1 18410575115007411847
23402539 116 18343292669682845119
23463225 33 18408886234818678269
23559900 14 18341892983550114264
238 59 15515855311766004245
2748010 2 18410575089269269679
3286 77 17346588673290907339
335352 9 18266459806429846525
34934 24 18339356495770740082
350125 39 18337674092783338772
43471831 8 18263078808233113539
474 4 17241616202945056508
5104073 3 18410575084684185386
537710 114 18409735087892091789
69090 78 18412541024365084414
7364860 26 18342458136769023886
8809292 202 18334018280481049307
9709674 26 18411986892243525846
9981440 41 17396703554893592440

>  <PUBCHEM_SHAPE_MULTIPOLES>  (1) 
370.43
7.67
2.65
0.62
1.62
0
0
0
0
0.06
0
0
0
0

>  <PUBCHEM_SHAPE_SELFOVERLAP>  (1) 
827.462

>  <PUBCHEM_SHAPE_VOLUME>  (1) 
187.5

>  <PUBCHEM_COORDINATE_TYPE>  (1) 
2
5
10

$$$$
