47950
     RDKit          3D

 12 12  0  0  0  0  0  0  0  0999 V2000
    3.3835   -1.8147    0.7133 Cl  0  0  0  0  0  0  0  0  0  0  0  0
    0.8245   -0.1257   -0.7830 O   0  0  0  0  0  0  0  0  0  0  0  0
   -2.3042   -0.3552    0.0649 N   0  0  0  0  0  0  0  0  0  0  0  0
   -1.4891    0.5160   -0.8800 C   0  0  0  0  0  0  0  0  0  0  0  0
   -2.4129    0.3296    1.4197 C   0  0  0  0  0  0  0  0  0  0  0  0
   -3.6972   -0.5630   -0.5118 C   0  0  0  0  0  0  0  0  0  0  0  0
   -1.6178   -1.7032    0.2315 C   0  0  0  0  0  0  0  0  0  0  0  0
   -0.0955    0.7732   -0.3874 C   0  0  0  0  0  0  0  0  0  0  0  0
    0.4293    1.7498    0.3910 C   0  0  0  0  0  0  0  0  0  0  0  0
    1.9960    0.2899   -0.2344 C   0  0  0  0  0  0  0  0  0  0  0  0
    1.8060    1.4393    0.4970 C   0  0  0  0  0  0  0  0  0  0  0  0
    3.1773   -0.5361   -0.5209 C   0  0  0  0  0  0  0  0  0  0  0  0
  1 12  1  0
  2  8  1  0
  2 10  1  0
  3  4  1  0
  3  5  1  0
  3  6  1  0
  3  7  1  0
  4  8  1  0
  8  9  2  0
  9 11  1  0
 10 11  2  0
 10 12  1  0
M  CHG  1   3   1
M  END
>  <PUBCHEM_COMPOUND_CID>  (1) 
47950

>  <PUBCHEM_CONFORMER_RMSD>  (1) 
0.6

>  <PUBCHEM_CONFORMER_DIVERSEORDER>  (1) 
1
12
13
7
2
11
10
5
9
8
14
6
3
4

>  <PUBCHEM_MMFF94_PARTIAL_CHARGES>  (1) 
14
1 -0.29
10 -0.04
11 -0.15
12 0.47
2 -0.28
24 0.15
25 0.15
3 -1.01
4 0.68
5 0.5
6 0.5
7 0.5
8 -0.04
9 -0.15

>  <PUBCHEM_EFFECTIVE_ROTOR_COUNT>  (1) 
3

>  <PUBCHEM_PHARMACOPHORE_FEATURES>  (1) 
3
1 2 acceptor
1 3 cation
5 2 8 9 10 11 rings

>  <PUBCHEM_HEAVY_ATOM_COUNT>  (1) 
12

>  <PUBCHEM_ATOM_DEF_STEREO_COUNT>  (1) 
0

>  <PUBCHEM_ATOM_UDEF_STEREO_COUNT>  (1) 
0

>  <PUBCHEM_BOND_DEF_STEREO_COUNT>  (1) 
0

>  <PUBCHEM_BOND_UDEF_STEREO_COUNT>  (1) 
0

>  <PUBCHEM_ISOTOPIC_ATOM_COUNT>  (1) 
0

>  <PUBCHEM_COMPONENT_COUNT>  (1) 
1

>  <PUBCHEM_CACTVS_TAUTO_COUNT>  (1) 
1

>  <PUBCHEM_CONFORMER_ID>  (1) 
0000BB4E00000001

>  <PUBCHEM_MMFF94_ENERGY>  (1) 
21.2597

>  <PUBCHEM_FEATURE_SELFOVERLAP>  (1) 
15.223

>  <PUBCHEM_SHAPE_FINGERPRINT>  (1) 
10130415 120 18341897372342156544
11769659 78 18187359875213711574
12897270 3 11314308412003271561
12932764 1 18335989734941726540
13296909 8 16128369329363439137
14350558 41 18113620045654936910
15375462 189 18335712619678698330
16945 1 18261396697191984348
17841504 4 18202001074722327160
18511873 20 18271253733336252889
20201158 50 18410012134831360286
20279233 1 18114738334441731600
20281407 28 18260269650612990350
20645477 70 18411133662414010127
20653091 64 18200599214840545472
20711985 344 17387117698493851221
20871998 22 18059582326172753446
21501925 9 18130498699844166184
22485316 2 18335698351507028054
23402539 116 17346314861538477425
23552423 10 18190183583855232452

>  <PUBCHEM_SHAPE_MULTIPOLES>  (1) 
237.97
5.69
1.76
1.03
0
0.21
-0.18
2.82
-0.21
0.88
-0.38
-0.31
-0.04
-0.24

>  <PUBCHEM_SHAPE_SELFOVERLAP>  (1) 
464.745

>  <PUBCHEM_SHAPE_VOLUME>  (1) 
149.1

>  <PUBCHEM_COORDINATE_TYPE>  (1) 
2
5
10

$$$$
