47959
     RDKit          3D

 13 14  0  0  1  0  0  0  0  0999 V2000
   -0.8261   -1.2100    0.0463 O   0  0  0  0  0  0  0  0  0  0  0  0
   -0.0050    2.7675   -0.2051 O   0  0  0  0  0  0  0  0  0  0  0  0
   -1.5099    1.0715    0.2098 N   0  0  0  0  0  0  0  0  0  0  0  0
   -1.7047   -0.2807    0.6969 C   0  0  0  0  0  0  0  0  0  0  0  0
   -3.1333   -0.7432    0.4578 C   0  0  0  0  0  0  0  0  0  0  0  0
    0.4756   -0.7838    0.0257 C   0  0  0  0  0  0  0  0  0  0  0  0
    0.8238    0.5694    0.0195 C   0  0  0  0  0  0  0  0  0  0  0  0
   -0.2473    1.5848    0.0031 C   0  0  0  0  0  0  0  0  0  0  0  0
   -3.4779   -0.7543   -1.0214 C   0  0  0  0  0  0  0  0  0  0  0  0
    1.4688   -1.7603   -0.0428 C   0  0  0  0  0  0  0  0  0  0  0  0
    2.1666    0.9506   -0.0290 C   0  0  0  0  0  0  0  0  0  0  0  0
    2.8108   -1.3816   -0.0858 C   0  0  0  0  0  0  0  0  0  0  0  0
    3.1588   -0.0298   -0.0750 C   0  0  0  0  0  0  0  0  0  0  0  0
  1  4  1  0
  1  6  1  0
  2  8  2  0
  3  4  1  0
  3  8  1  0
  4  5  1  0
  5  9  1  0
  6  7  2  0
  6 10  1  0
  7  8  1  0
  7 11  1  0
 10 12  2  0
 11 13  2  0
 12 13  1  0
M  END
>  <PUBCHEM_COMPOUND_CID>  (1) 
47959

>  <PUBCHEM_CONFORMER_RMSD>  (1) 
0.6

>  <PUBCHEM_CONFORMER_DIVERSEORDER>  (1) 
1
3
4
2

>  <PUBCHEM_MMFF94_PARTIAL_CHARGES>  (1) 
16
1 -0.36
10 -0.15
11 -0.15
12 -0.15
13 -0.15
17 0.37
2 -0.57
21 0.15
22 0.15
23 0.15
24 0.15
3 -0.73
4 0.58
6 0.08
7 0.09
8 0.54

>  <PUBCHEM_EFFECTIVE_ROTOR_COUNT>  (1) 
1.6

>  <PUBCHEM_PHARMACOPHORE_FEATURES>  (1) 
6
1 1 acceptor
1 2 acceptor
1 3 donor
1 9 hydrophobe
6 1 3 4 6 7 8 rings
6 6 7 10 11 12 13 rings

>  <PUBCHEM_HEAVY_ATOM_COUNT>  (1) 
13

>  <PUBCHEM_ATOM_DEF_STEREO_COUNT>  (1) 
0

>  <PUBCHEM_ATOM_UDEF_STEREO_COUNT>  (1) 
1

>  <PUBCHEM_BOND_DEF_STEREO_COUNT>  (1) 
0

>  <PUBCHEM_BOND_UDEF_STEREO_COUNT>  (1) 
0

>  <PUBCHEM_ISOTOPIC_ATOM_COUNT>  (1) 
0

>  <PUBCHEM_COMPONENT_COUNT>  (1) 
1

>  <PUBCHEM_CACTVS_TAUTO_COUNT>  (1) 
2

>  <PUBCHEM_CONFORMER_ID>  (1) 
0000BB5700000001

>  <PUBCHEM_MMFF94_ENERGY>  (1) 
33.3714

>  <PUBCHEM_FEATURE_SELFOVERLAP>  (1) 
30.479

>  <PUBCHEM_SHAPE_FINGERPRINT>  (1) 
10219947 1 18411984697245874363
10967382 1 18338520870991246810
11206711 2 18263371295647759470
11471102 20 18409445929698618159
12032990 46 18409739464416293610
14251717 144 18340481283038648479
14576447 43 18128805529379263015
14993402 34 18272370914148332751
15477762 27 18268424805935005527
15757776 16 18411693305189885182
161256 15 18413109446528658608
16945 1 18338524156435519472
193761 8 17833270817978628922
200 152 18201991119167437599
20201158 50 18334012804513771803
20871998 184 18128819642319433343
21501502 16 18266182725537008200
221490 88 17975977884395780811
2334 1 18410296882504292865
23388829 49 18342177795030884533
23402539 116 18341885286299164318
23402655 69 18412257316501024997
23463225 33 18409735049368943042
23552423 10 18188219688863933106
23559900 14 17189259293519814486
241688 4 18337395924393285328
2748010 2 18338517443401681284
3071541 158 18114743853490817429
528886 8 18339359776978288730
581208 293 18342452694544306538
63268167 104 18339082704242641259
81228 2 18190464856974268145

>  <PUBCHEM_SHAPE_MULTIPOLES>  (1) 
250.81
4.92
2.07
0.74
1.69
1.04
0.05
-1.92
0.56
-0.44
0.13
0.41
-0.09
-0.09

>  <PUBCHEM_SHAPE_SELFOVERLAP>  (1) 
536.083

>  <PUBCHEM_SHAPE_VOLUME>  (1) 
138.6

>  <PUBCHEM_COORDINATE_TYPE>  (1) 
2
5
10

$$$$
