47966
     RDKit          3D

 30 34  0  0  0  0  0  0  0  0999 V2000
    3.1643   -5.3375   -0.7617 Cl  0  0  0  0  0  0  0  0  0  0  0  0
   -0.5048    0.2014    2.4666 O   0  0  0  0  0  0  0  0  0  0  0  0
   -0.6921   -2.2120    1.6038 O   0  0  0  0  0  0  0  0  0  0  0  0
    0.0408   -0.2377   -0.2508 C   0  0  0  0  0  0  0  0  0  0  0  0
    0.7241    0.8578    0.5121 C   0  0  0  0  0  0  0  0  0  0  0  0
   -1.4367   -0.4764    0.1206 C   0  0  0  0  0  0  0  0  0  0  0  0
    0.8438   -1.5473   -0.3833 C   0  0  0  0  0  0  0  0  0  0  0  0
    1.6604    1.7022   -0.1066 C   0  0  0  0  0  0  0  0  0  0  0  0
   -2.4249    0.2922   -0.4668 C   0  0  0  0  0  0  0  0  0  0  0  0
    0.4034    1.0174    1.8605 C   0  0  0  0  0  0  0  0  0  0  0  0
   -1.6861   -1.4687    1.0403 C   0  0  0  0  0  0  0  0  0  0  0  0
    2.2801    2.7228    0.6532 C   0  0  0  0  0  0  0  0  0  0  0  0
   -3.7667    0.0374   -0.0957 C   0  0  0  0  0  0  0  0  0  0  0  0
    0.3276   -2.5465   -1.1661 C   0  0  0  0  0  0  0  0  0  0  0  0
    2.0334   -1.6475    0.2895 C   0  0  0  0  0  0  0  0  0  0  0  0
    1.9953    1.5559   -1.4626 C   0  0  0  0  0  0  0  0  0  0  0  0
   -2.1515    1.3015   -1.4042 C   0  0  0  0  0  0  0  0  0  0  0  0
    1.0128    2.0211    2.6076 C   0  0  0  0  0  0  0  0  0  0  0  0
   -3.0054   -1.7193    1.4053 C   0  0  0  0  0  0  0  0  0  0  0  0
    1.9453    2.8689    2.0093 C   0  0  0  0  0  0  0  0  0  0  0  0
   -4.0400   -0.9719    0.8418 C   0  0  0  0  0  0  0  0  0  0  0  0
    3.2165    3.5670    0.0346 C   0  0  0  0  0  0  0  0  0  0  0  0
   -4.7954    0.7996   -0.6728 C   0  0  0  0  0  0  0  0  0  0  0  0
    2.9279    2.4038   -2.0609 C   0  0  0  0  0  0  0  0  0  0  0  0
   -3.1861    2.0491   -1.9676 C   0  0  0  0  0  0  0  0  0  0  0  0
    1.0535   -3.7317   -1.2846 C   0  0  0  0  0  0  0  0  0  0  0  0
    2.7594   -2.8327    0.1708 C   0  0  0  0  0  0  0  0  0  0  0  0
    3.5373    3.4074   -1.3137 C   0  0  0  0  0  0  0  0  0  0  0  0
   -4.5056    1.7985   -1.6025 C   0  0  0  0  0  0  0  0  0  0  0  0
    2.2694   -3.8748   -0.6162 C   0  0  0  0  0  0  0  0  0  0  0  0
  1 30  1  0
  2 10  1  0
  3 11  1  0
  4  5  1  0
  4  6  1  0
  4  7  1  0
  5  8  1  0
  5 10  2  0
  6  9  1  0
  6 11  2  0
  7 14  2  0
  7 15  1  0
  8 12  2  0
  8 16  1  0
  9 13  2  0
  9 17  1  0
 10 18  1  0
 11 19  1  0
 12 20  1  0
 12 22  1  0
 13 21  1  0
 13 23  1  0
 14 26  1  0
 15 27  2  0
 16 24  2  0
 17 25  2  0
 18 20  2  0
 19 21  2  0
 22 28  2  0
 23 29  2  0
 24 28  1  0
 25 29  1  0
 26 30  2  0
 27 30  1  0
M  END
>  <PUBCHEM_COMPOUND_CID>  (1) 
47966

>  <PUBCHEM_CONFORMER_RMSD>  (1) 
0.8

>  <PUBCHEM_CONFORMER_DIVERSEORDER>  (1) 
3
5
2
1
4

>  <PUBCHEM_MMFF94_PARTIAL_CHARGES>  (1) 
44
1 -0.18
10 0.08
11 0.08
14 -0.15
15 -0.15
16 -0.15
17 -0.15
18 -0.15
19 -0.15
2 -0.53
20 -0.15
21 -0.15
22 -0.15
23 -0.15
24 -0.15
25 -0.15
26 -0.15
27 -0.15
28 -0.15
29 -0.15
3 -0.53
30 0.18
32 0.15
33 0.15
34 0.15
35 0.15
36 0.15
37 0.15
38 0.15
39 0.15
4 0.43
40 0.15
41 0.15
42 0.15
43 0.15
44 0.15
45 0.15
46 0.15
47 0.15
48 0.45
49 0.45
5 -0.14
6 -0.14
7 -0.14

>  <PUBCHEM_EFFECTIVE_ROTOR_COUNT>  (1) 
3

>  <PUBCHEM_PHARMACOPHORE_FEATURES>  (1) 
7
1 2 donor
1 3 donor
6 5 8 10 12 18 20 rings
6 6 9 11 13 19 21 rings
6 7 14 15 26 27 30 rings
6 8 12 16 22 24 28 rings
6 9 13 17 23 25 29 rings

>  <PUBCHEM_HEAVY_ATOM_COUNT>  (1) 
30

>  <PUBCHEM_ATOM_DEF_STEREO_COUNT>  (1) 
0

>  <PUBCHEM_ATOM_UDEF_STEREO_COUNT>  (1) 
0

>  <PUBCHEM_BOND_DEF_STEREO_COUNT>  (1) 
0

>  <PUBCHEM_BOND_UDEF_STEREO_COUNT>  (1) 
0

>  <PUBCHEM_ISOTOPIC_ATOM_COUNT>  (1) 
0

>  <PUBCHEM_COMPONENT_COUNT>  (1) 
1

>  <PUBCHEM_CACTVS_TAUTO_COUNT>  (1) 
5

>  <PUBCHEM_CONFORMER_ID>  (1) 
0000BB5E00000003

>  <PUBCHEM_MMFF94_ENERGY>  (1) 
126.7532

>  <PUBCHEM_FEATURE_SELFOVERLAP>  (1) 
35.59

>  <PUBCHEM_SHAPE_FINGERPRINT>  (1) 
10165383 225 18053121784647362289
10305334 12 13627509464978950486
10764073 3 17400309578985031984
11045515 52 17834674898690805774
11115154 58 17411598222577591661
11578080 2 15582665190238775636
11720765 8 18125710193408910548
12156800 1 16745898821202741096
12160290 23 17194589128072256854
12422481 6 17971721533414328192
12788726 201 17110153824628897091
131258 43 17913229580685741886
13134695 92 17915160343981917525
13149001 5 18044097860842614127
133893 2 18267040395898439520
13681431 1 18197775505555258042
13757389 114 17254301409637318388
13911987 19 18198633124736512518
140371 6 18267591204253822802
14508225 48 17835241151854236614
14856354 85 16662317632668782144
15463212 79 17613713043838747744
15775530 1 18335150803718449683
17899979 19 18335143051992914054
1813 80 17415840189322518375
20600515 1 17901651679740984490
20642791 239 17753913622336979558
21033648 29 18054789756371595721
21120745 212 17624155810374189510
21756936 100 17026269218346401316
21927370 108 17762080751737951242
23114952 82 18408328769912968815
23419403 2 17621839181912843960
23559900 14 18262788555007290669
238 59 18201432614663397317
25222932 49 13311273401954245092
3298306 158 18337677507208259078
44802255 64 17611216001714104892
46194498 28 18335414626558389447
495365 180 18271230703726944657
513532 50 17255346646206935005
5252454 2 18198350743779332873
5265222 85 17974585890291158396
550186 7 17461167822460287508
57527452 28 16411508863874010823
57527573 199 15733678559474824188
6442390 28 17981328107717432867
70251023 43 17982704443484112533
81228 2 17404311693920076958

>  <PUBCHEM_SHAPE_MULTIPOLES>  (1) 
607.52
6.97
5.9
2.19
7.48
3.86
0.7
-0.83
-2.84
-9.63
-1.43
0.12
-1.43
1.78

>  <PUBCHEM_SHAPE_SELFOVERLAP>  (1) 
1381.968

>  <PUBCHEM_SHAPE_VOLUME>  (1) 
315

>  <PUBCHEM_COORDINATE_TYPE>  (1) 
2
5
10

$$$$
