4796
     RDKit          3D

 33 35  0  0  1  0  0  0  0  0999 V2000
   -4.0462    0.6253   -0.8307 P   0  0  0  0  0  0  0  0  0  0  0  0
   -2.7692   -1.9456   -0.1459 P   0  0  0  0  0  0  0  0  0  0  0  0
   -0.0954   -3.5492    0.8273 P   0  0  0  0  0  0  0  0  0  0  0  0
   -0.9679   -1.3628    1.3440 F   0  0  0  0  0  0  0  0  0  0  0  0
   -0.4476   -1.7373   -0.7357 F   0  0  0  0  0  0  0  0  0  0  0  0
   -0.6507    1.6033   -0.1801 O   0  0  0  0  0  0  0  0  0  0  0  0
   -0.6767    4.9954    0.9871 O   0  0  0  0  0  0  0  0  0  0  0  0
    1.4952    3.1449    2.2133 O   0  0  0  0  0  0  0  0  0  0  0  0
   -3.3114    2.0546   -1.0235 O   0  0  0  0  0  0  0  0  0  0  0  0
   -2.8411   -0.3508   -0.3822 O   0  0  0  0  0  0  0  0  0  0  0  0
   -4.3532    0.1508   -2.3466 O   0  0  0  0  0  0  0  0  0  0  0  0
   -5.2400    0.6371    0.0783 O   0  0  0  0  0  0  0  0  0  0  0  0
   -3.5938   -2.1346    1.2323 O   0  0  0  0  0  0  0  0  0  0  0  0
   -3.2747   -2.7780   -1.2867 O   0  0  0  0  0  0  0  0  0  0  0  0
   -0.3668   -4.7149   -0.2594 O   0  0  0  0  0  0  0  0  0  0  0  0
   -0.8204   -4.1113    2.1586 O   0  0  0  0  0  0  0  0  0  0  0  0
    1.3474   -3.1833    1.0106 O   0  0  0  0  0  0  0  0  0  0  0  0
    1.6647    1.1438   -0.3362 N   0  0  0  0  0  0  0  0  0  0  0  0
    2.8104    0.7170   -2.2017 N   0  0  0  0  0  0  0  0  0  0  0  0
    3.1150    0.0770    1.2948 N   0  0  0  0  0  0  0  0  0  0  0  0
    5.0658   -0.9265    0.2256 N   0  0  0  0  0  0  0  0  0  0  0  0
    5.4297   -0.8257   -2.1376 N   0  0  0  0  0  0  0  0  0  0  0  0
   -0.6133    3.5867    1.1029 C   0  0  0  0  0  0  0  0  0  0  0  0
    0.8121    3.0956    0.9730 C   0  0  0  0  0  0  0  0  0  0  0  0
   -1.2855    2.8885   -0.0677 C   0  0  0  0  0  0  0  0  0  0  0  0
    0.6027    1.6536    0.5286 C   0  0  0  0  0  0  0  0  0  0  0  0
   -2.7803    2.7008    0.1200 C   0  0  0  0  0  0  0  0  0  0  0  0
    2.7723    0.4427    0.0505 C   0  0  0  0  0  0  0  0  0  0  0  0
    1.7332    1.2823   -1.6979 C   0  0  0  0  0  0  0  0  0  0  0  0
    3.4690    0.1885   -1.1201 C   0  0  0  0  0  0  0  0  0  0  0  0
    4.6577   -0.5246   -1.0022 C   0  0  0  0  0  0  0  0  0  0  0  0
   -1.1216   -2.2377    0.3250 C   0  0  0  0  0  0  0  0  0  0  0  0
    4.2807   -0.6055    1.2822 C   0  0  0  0  0  0  0  0  0  0  0  0
  1  9  1  0
  1 10  1  0
  1 11  1  0
  1 12  2  0
  2 10  1  0
  2 13  1  0
  2 14  2  0
  2 32  1  0
  3 15  1  0
  3 16  1  0
  3 17  2  0
  3 32  1  0
  4 32  1  0
  5 32  1  0
  6 25  1  0
  6 26  1  0
  7 23  1  0
  8 24  1  0
  9 27  1  0
 18 26  1  0
 18 28  1  0
 18 29  1  0
 19 29  2  0
 19 30  1  0
 20 28  1  0
 20 33  2  0
 21 31  2  0
 21 33  1  0
 22 31  1  0
 23 24  1  0
 23 25  1  0
 24 26  1  0
 25 27  1  0
 28 30  2  0
 30 31  1  0
M  END
>  <PUBCHEM_COMPOUND_CID>  (1) 
4796

>  <PUBCHEM_CONFORMER_RMSD>  (1) 
1.6

>  <PUBCHEM_CONFORMER_DIVERSEORDER>  (1) 
6
193
52
91
100
88
208
66
159
17
54
149
185
115
122
8
34
169
48
173
101
43
28
144
67
96
24
118
170
2
82
128
22
168
139
192
57
186
62
49
5
183
117
110
204
42
199
142
47
114
97
25
13
150
190
29
151
7
162
61
98
154
83
102
84
30
55
10
130
155
180
35
172
15
127
201
132
174
41
119
73
161
45
135
134
116
146
178
60
21
78
200
31
156
68
196
129
76
92
51
75
106
182
9
23
105
90
40
93
158
202
1
32
138
137
44
59
11
109
176
65
18
197
4
39
77
167
177
147
125
153
171
89
53
94
181
184
20
3
131
121
206
12
19
56
16
203
103
63
113
145
95
36
50
58
140
79
37
107
80
207
27
205
38
187
188
111
165
189
104
143
164
85
198
99
148
46
81
136
64
124
141
160
26
194
195
157
123
152
70
209
33
86
112
14
108
87
71
179
69
166
74
72
120
163
191
126
175
133

>  <PUBCHEM_MMFF94_PARTIAL_CHARGES>  (1) 
43
1 1.51
10 -0.54
11 -0.77
12 -0.7
13 -0.77
14 -0.7
15 -0.77
16 -0.77
17 -0.7
18 0.05
19 -0.57
2 1.24
20 -0.57
21 -0.62
22 -0.9
23 0.28
24 0.28
25 0.28
26 0.54
27 0.28
28 0.11
29 0.04
3 1.24
30 0.23
31 0.41
32 0.68
33 0.47
4 -0.34
40 0.4
41 0.4
42 0.15
43 0.15
44 0.5
45 0.4
46 0.4
47 0.5
48 0.5
49 0.5
5 -0.34
6 -0.56
7 -0.68
8 -0.68
9 -0.55

>  <PUBCHEM_EFFECTIVE_ROTOR_COUNT>  (1) 
9

>  <PUBCHEM_PHARMACOPHORE_FEATURES>  (1) 
21
1 11 acceptor
1 12 acceptor
1 13 acceptor
1 14 acceptor
1 15 acceptor
1 16 acceptor
1 17 acceptor
1 22 cation
1 22 donor
1 6 acceptor
1 7 acceptor
1 7 donor
1 8 acceptor
1 8 donor
3 18 19 29 cation
3 18 20 28 cation
3 20 21 33 cation
4 3 15 16 17 anion
5 18 19 28 29 30 rings
5 6 23 24 25 26 rings
6 20 21 28 30 31 33 rings

>  <PUBCHEM_HEAVY_ATOM_COUNT>  (1) 
33

>  <PUBCHEM_ATOM_DEF_STEREO_COUNT>  (1) 
0

>  <PUBCHEM_ATOM_UDEF_STEREO_COUNT>  (1) 
4

>  <PUBCHEM_BOND_DEF_STEREO_COUNT>  (1) 
0

>  <PUBCHEM_BOND_UDEF_STEREO_COUNT>  (1) 
0

>  <PUBCHEM_ISOTOPIC_ATOM_COUNT>  (1) 
0

>  <PUBCHEM_COMPONENT_COUNT>  (1) 
1

>  <PUBCHEM_CACTVS_TAUTO_COUNT>  (1) 
3

>  <PUBCHEM_CONFORMER_ID>  (1) 
000012BC00000006

>  <PUBCHEM_MMFF94_ENERGY>  (1) 
-6.8219

>  <PUBCHEM_FEATURE_SELFOVERLAP>  (1) 
107.246

>  <PUBCHEM_SHAPE_FINGERPRINT>  (1) 
12553582 1 18267880547594723810
12712778 12 18262782056563574834
12788726 201 18411149017523109394
13140716 1 18339637962390008257
133893 2 17252035926316517752
14114206 34 18339630157896764717
14117953 113 15455642683225837725
14251740 79 18338250262482274982
14251757 5 18263661691609426750
14931854 50 18337667499707548189
16112460 7 18272384086998192113
16752209 62 18408888399835662264
17138139 8 18339910546256668342
19611394 137 18130211706810635032
20600515 1 18337661010197125196
20764821 26 18338506560097257529
20775438 99 17262406997063913823
20905425 154 18054786174526268893
24893992 56 18411420606287308665
25019877 29 15467991380496541591
3027735 51 18268437823574418507
3298306 158 18263070055716803685
463206 1 18411129213165442723
5265222 85 18260561029805833500
5282940 2 17759529871701736551
57307002 85 17702124499076572708
6287921 2 17404010427596916634
70634741 139 18190200017360352932
7226269 152 18411416194337472388

>  <PUBCHEM_SHAPE_MULTIPOLES>  (1) 
580.79
8.68
5.81
1.86
3.44
0.98
0.31
1.44
3.92
-3.37
-3.2
0.82
0.03
0.3

>  <PUBCHEM_SHAPE_SELFOVERLAP>  (1) 
1194.205

>  <PUBCHEM_SHAPE_VOLUME>  (1) 
338.9

>  <PUBCHEM_COORDINATE_TYPE>  (1) 
2
5
10

$$$$
