47978
     RDKit          3D

 26 29  0  0  0  0  0  0  0  0999 V2000
    1.1443    1.3181   -1.0989 O   0  0  0  0  0  0  0  0  0  0  0  0
   -1.1679    1.3474    1.1142 O   0  0  0  0  0  0  0  0  0  0  0  0
    5.4159   -3.3801   -0.1871 N   0  0  0  0  0  0  0  0  0  0  0  0
   -5.3855   -3.3990    0.2009 N   0  0  0  0  0  0  0  0  0  0  0  0
    6.2249   -1.6313    1.1350 N   0  0  0  0  0  0  0  0  0  0  0  0
   -6.1854   -1.6771   -1.1615 N   0  0  0  0  0  0  0  0  0  0  0  0
    0.5607    3.5758   -0.5229 C   0  0  0  0  0  0  0  0  0  0  0  0
   -0.5925    3.6009    0.5140 C   0  0  0  0  0  0  0  0  0  0  0  0
    1.4724    2.4303   -0.3910 C   0  0  0  0  0  0  0  0  0  0  0  0
   -1.5174    2.4142    0.3804 C   0  0  0  0  0  0  0  0  0  0  0  0
    3.0520    0.9036    0.0377 C   0  0  0  0  0  0  0  0  0  0  0  0
   -3.0524    0.9001   -0.0486 C   0  0  0  0  0  0  0  0  0  0  0  0
    2.6317    2.2298    0.3219 C   0  0  0  0  0  0  0  0  0  0  0  0
   -2.6379    2.2253   -0.3457 C   0  0  0  0  0  0  0  0  0  0  0  0
    2.1047    0.3867   -0.8399 C   0  0  0  0  0  0  0  0  0  0  0  0
   -2.1163    0.4043    0.8530 C   0  0  0  0  0  0  0  0  0  0  0  0
    4.1269    0.0842    0.4247 C   0  0  0  0  0  0  0  0  0  0  0  0
   -4.1138    0.0661   -0.4413 C   0  0  0  0  0  0  0  0  0  0  0  0
    2.1495   -0.9025   -1.3678 C   0  0  0  0  0  0  0  0  0  0  0  0
   -2.1599   -0.8771    1.3996 C   0  0  0  0  0  0  0  0  0  0  0  0
    4.1990   -1.2177   -0.0896 C   0  0  0  0  0  0  0  0  0  0  0  0
   -4.1844   -1.2284    0.0913 C   0  0  0  0  0  0  0  0  0  0  0  0
    3.2267   -1.6998   -0.9697 C   0  0  0  0  0  0  0  0  0  0  0  0
   -3.2236   -1.6892    0.9953 C   0  0  0  0  0  0  0  0  0  0  0  0
    5.3047   -2.0795    0.3001 C   0  0  0  0  0  0  0  0  0  0  0  0
   -5.2763   -2.1051   -0.3040 C   0  0  0  0  0  0  0  0  0  0  0  0
  1  9  1  0
  1 15  1  0
  2 10  1  0
  2 16  1  0
  3 25  1  0
  4 26  1  0
  5 25  2  0
  6 26  2  0
  7  8  1  0
  7  9  1  0
  8 10  1  0
  9 13  2  0
 10 14  2  0
 11 13  1  0
 11 15  2  0
 11 17  1  0
 12 14  1  0
 12 16  2  0
 12 18  1  0
 15 19  1  0
 16 20  1  0
 17 21  2  0
 18 22  2  0
 19 23  2  0
 20 24  2  0
 21 23  1  0
 21 25  1  0
 22 24  1  0
 22 26  1  0
M  END
>  <PUBCHEM_COMPOUND_CID>  (1) 
47978

>  <PUBCHEM_CONFORMER_RMSD>  (1) 
0.8

>  <PUBCHEM_CONFORMER_DIVERSEORDER>  (1) 
1
9
2
7
15
10
14
6
8
11
4
13
12
5
3

>  <PUBCHEM_MMFF94_PARTIAL_CHARGES>  (1) 
38
1 -0.28
10 -0.04
13 -0.15
14 -0.15
15 0.14
16 0.14
17 -0.15
18 -0.15
19 -0.15
2 -0.28
20 -0.15
21 0.09
22 0.09
23 -0.15
24 -0.15
25 0.41
26 0.41
3 -0.85
31 0.15
32 0.15
33 0.15
34 0.15
35 0.15
36 0.15
37 0.15
38 0.15
39 0.4
4 -0.85
40 0.4
41 0.4
42 0.4
43 0.4
44 0.4
5 -0.85
6 -0.85
7 0.18
8 0.18
9 -0.04

>  <PUBCHEM_EFFECTIVE_ROTOR_COUNT>  (1) 
5

>  <PUBCHEM_PHARMACOPHORE_FEATURES>  (1) 
12
1 1 acceptor
1 2 acceptor
1 3 donor
1 4 donor
1 5 donor
1 6 donor
3 3 5 25 cation
3 4 6 26 cation
5 1 9 11 13 15 rings
5 2 10 12 14 16 rings
6 11 15 17 19 21 23 rings
6 12 16 18 20 22 24 rings

>  <PUBCHEM_HEAVY_ATOM_COUNT>  (1) 
26

>  <PUBCHEM_ATOM_DEF_STEREO_COUNT>  (1) 
0

>  <PUBCHEM_ATOM_UDEF_STEREO_COUNT>  (1) 
0

>  <PUBCHEM_BOND_DEF_STEREO_COUNT>  (1) 
0

>  <PUBCHEM_BOND_UDEF_STEREO_COUNT>  (1) 
0

>  <PUBCHEM_ISOTOPIC_ATOM_COUNT>  (1) 
0

>  <PUBCHEM_COMPONENT_COUNT>  (1) 
1

>  <PUBCHEM_CACTVS_TAUTO_COUNT>  (1) 
1

>  <PUBCHEM_CONFORMER_ID>  (1) 
0000BB6A00000001

>  <PUBCHEM_MMFF94_ENERGY>  (1) 
59.0885

>  <PUBCHEM_FEATURE_SELFOVERLAP>  (1) 
61.19

>  <PUBCHEM_SHAPE_FINGERPRINT>  (1) 
10615611 76 13325982548752116098
10693767 8 18053929917795374999
11069576 57 18263368164637933940
11135609 149 17982141682520081141
11719270 70 17977380865443712632
11963148 33 18050278464758224814
12107183 9 18270700705395888129
12166972 35 17894915152196433743
12363563 72 18337686264129798957
13885169 86 9871455556444612410
13968360 50 17901390314118398988
14117953 113 18201444653752387543
14341114 328 14836120013297565257
14344974 204 18195522594148163082
14429380 30 18408888438453944994
1454969 45 18266743661705344252
14848160 33 18268720578873357021
14866123 147 18339647729430658033
14910700 183 17767392853458262824
15352361 1 18410013238521572900
15803439 3 16740837816071834357
17492 89 18410856589820722167
19315092 285 17632012056481589923
20028762 73 18273213105912534974
20645477 70 18048598419881318713
20775438 99 17690542501088033995
20775530 9 18337974344792493800
20843269 155 18335132039101207658
21133410 58 18195515108040915143
21285901 2 17825375539298562389
22122407 14 15625363620481167704
23559900 14 18408879663825209705
23569914 152 18125125370395125887
23572383 38 18410565193358703459
255183 313 17907593436531400105
345986 75 17630908164604331001
44062 13 18334295327879195253
444735 79 18340753928379997354
463206 1 18339644567791558227
5104073 3 18202567276013679217
56633871 153 18268727025687814465
5718773 13 18410849966865652815
57527585 103 17607845796226412955
59682541 52 18125424566343128207
7970288 3 18410572889935557190
9709674 26 18262523705464172465

>  <PUBCHEM_SHAPE_MULTIPOLES>  (1) 
503.41
13.12
4.37
1.11
0.37
1.29
0.01
-16.38
0
-0.08
-0.01
-0.03
-0.2
-0.38

>  <PUBCHEM_SHAPE_SELFOVERLAP>  (1) 
1125.63

>  <PUBCHEM_SHAPE_VOLUME>  (1) 
269.6

>  <PUBCHEM_COORDINATE_TYPE>  (1) 
2
5
10

$$$$
