47971
     RDKit          3D

 20 22  0  0  1  0  0  0  0  0999 V2000
    6.5799   -0.5317   -0.6235 O   0  0  0  0  0  0  0  0  0  0  0  0
    1.9738    0.8952    1.9475 O   0  0  0  0  0  0  0  0  0  0  0  0
   -4.8313    1.7378    0.0164 O   0  0  0  0  0  0  0  0  0  0  0  0
   -6.0672   -0.2438   -0.5784 O   0  0  0  0  0  0  0  0  0  0  0  0
    3.9663    0.4560   -0.0798 N   0  0  0  0  0  0  0  0  0  0  0  0
    4.3181   -0.9528    0.1460 C   0  0  0  0  0  0  0  0  0  0  0  0
    4.7881    1.0126   -1.1635 C   0  0  0  0  0  0  0  0  0  0  0  0
    2.5437    0.5932   -0.3844 C   0  0  0  0  0  0  0  0  0  0  0  0
    5.8086   -1.0718    0.4502 C   0  0  0  0  0  0  0  0  0  0  0  0
    6.2679    0.8467   -0.8294 C   0  0  0  0  0  0  0  0  0  0  0  0
    1.6929    0.1061    0.7924 C   0  0  0  0  0  0  0  0  0  0  0  0
    0.2279    0.2604    0.4888 C   0  0  0  0  0  0  0  0  0  0  0  0
   -0.6422   -0.7614    0.5203 C   0  0  0  0  0  0  0  0  0  0  0  0
   -2.0806   -0.6608    0.2223 C   0  0  0  0  0  0  0  0  0  0  0  0
   -2.6997    0.5801    0.2904 C   0  0  0  0  0  0  0  0  0  0  0  0
   -4.0485    0.6246    0.0034 C   0  0  0  0  0  0  0  0  0  0  0  0
   -4.7543   -0.5070   -0.3360 C   0  0  0  0  0  0  0  0  0  0  0  0
   -2.7847   -1.8182   -0.1211 C   0  0  0  0  0  0  0  0  0  0  0  0
   -4.1501   -1.7455   -0.4073 C   0  0  0  0  0  0  0  0  0  0  0  0
   -6.1088    1.1803   -0.3543 C   0  0  0  0  0  0  0  0  0  0  0  0
  1  9  1  0
  1 10  1  0
  2 11  1  0
  3 16  1  0
  3 20  1  0
  4 17  1  0
  4 20  1  0
  5  6  1  0
  5  7  1  0
  5  8  1  0
  6  9  1  0
  7 10  1  0
  8 11  1  0
 11 12  1  0
 12 13  2  0
 13 14  1  0
 14 15  1  0
 14 18  2  0
 15 16  2  0
 16 17  1  0
 17 19  2  0
 18 19  1  0
M  END
>  <PUBCHEM_COMPOUND_CID>  (1) 
47971

>  <PUBCHEM_CONFORMER_RMSD>  (1) 
0.8

>  <PUBCHEM_CONFORMER_DIVERSEORDER>  (1) 
1
9
7
4
16
13
8
17
3
19
5
10
18
2
14
6
15
11
12

>  <PUBCHEM_MMFF94_PARTIAL_CHARGES>  (1) 
26
1 -0.56
10 0.28
11 0.42
12 -0.29
13 -0.18
14 0.03
15 -0.15
16 0.08
17 0.08
18 -0.15
19 -0.15
2 -0.68
20 0.56
3 -0.36
32 0.15
33 0.15
34 0.4
35 0.15
36 0.15
37 0.15
4 -0.36
5 -0.81
6 0.27
7 0.27
8 0.27
9 0.28

>  <PUBCHEM_EFFECTIVE_ROTOR_COUNT>  (1) 
5.8

>  <PUBCHEM_PHARMACOPHORE_FEATURES>  (1) 
9
1 1 acceptor
1 2 acceptor
1 2 donor
1 3 acceptor
1 4 acceptor
1 5 cation
5 3 4 16 17 20 rings
6 1 5 6 7 9 10 rings
6 14 15 16 17 18 19 rings

>  <PUBCHEM_HEAVY_ATOM_COUNT>  (1) 
20

>  <PUBCHEM_ATOM_DEF_STEREO_COUNT>  (1) 
0

>  <PUBCHEM_ATOM_UDEF_STEREO_COUNT>  (1) 
0

>  <PUBCHEM_BOND_DEF_STEREO_COUNT>  (1) 
0

>  <PUBCHEM_BOND_UDEF_STEREO_COUNT>  (1) 
1

>  <PUBCHEM_ISOTOPIC_ATOM_COUNT>  (1) 
0

>  <PUBCHEM_COMPONENT_COUNT>  (1) 
1

>  <PUBCHEM_CACTVS_TAUTO_COUNT>  (1) 
1

>  <PUBCHEM_CONFORMER_ID>  (1) 
0000BB6300000001

>  <PUBCHEM_MMFF94_ENERGY>  (1) 
46.0767

>  <PUBCHEM_FEATURE_SELFOVERLAP>  (1) 
45.828

>  <PUBCHEM_SHAPE_FINGERPRINT>  (1) 
10 15 11891338673007421940
10595046 47 18334577975255149726
10613725 11 18408323280870989530
10670039 82 18336541630172087021
10730089 173 18334858294981012589
10803635 8 18131070450106787383
11315181 36 17775570857271594465
11524674 6 16272210825545069591
11719270 70 17917429788107532558
11724838 91 10375860875900798362
11796584 16 18342741827859825270
11858739 19 18060143107394725438
12107183 9 17687178691164134442
12236239 1 17967813851085844306
12516196 113 16200432472852385664
12670543 26 18341614806533371434
12730499 353 14707207691522363576
12916748 109 13839981102180715222
13631057 29 15937544843557797075
13668630 136 15698000751583089181
13955234 65 15430301513540092184
13964095 4 18411984645948743134
1420 363 14548740607896184508
14251731 8 18202283606213383250
14251752 14 18411136918167680874
14848160 23 15913327992106957046
14849402 71 10159396736191737418
14933364 13 17894916230232958325
15183329 4 18408324367566235172
15242439 84 18060698407562681201
17834072 33 18408604786007403750
17834072 8 18060700589121204801
17844677 252 18272373121766914641
19489759 90 17346601854861952233
200 152 14836408029926166723
20281389 69 18040151812094321045
20681677 155 18040715891597559826
21065201 7 18270386308819412307
21150785 3 18040432222435950919
21267235 1 18338799018223098755
22061861 79 17275387611901718308
2215653 11 17704351065303226174
22224240 67 12973608858400062625
2297311 6 18272653476500614961
23198884 109 18259704506163356851
23402539 116 18410291414984557996
23536379 177 18334295366386006298
23559900 14 18059285569259480553
29717793 49 18412550895107090886
300161 21 18408040732458358026
3004659 81 18409731738698490906
3009799 131 17132112429245060128
314173 85 16056886831615127554
32948 21 18412824694265119392
3545911 37 18413387636071698179
4073 2 17749397022334344642
4214541 1 18411699893943646969
44062 13 17845930852886336919
542803 24 17749105599511392179
543368 44 17749391524253816637
559249 180 18412542102486583567
59755656 215 18202000997402554838
59755656 520 16950564389508860059
6327066 14 17898843549342180805

>  <PUBCHEM_SHAPE_MULTIPOLES>  (1) 
383.13
18.1
1.51
0.98
8.73
0.22
-0.23
-1.94
4.89
-1.1
0.13
0.78
-0.16
-0.76

>  <PUBCHEM_SHAPE_SELFOVERLAP>  (1) 
812.742

>  <PUBCHEM_SHAPE_VOLUME>  (1) 
214.4

>  <PUBCHEM_COORDINATE_TYPE>  (1) 
2
5
10

$$$$
