47970
     RDKit          3D

 19 20  0  0  1  0  0  0  0  0999 V2000
   -2.2073   -3.0804   -1.5611 O   0  0  0  0  0  0  0  0  0  0  0  0
    3.1696    1.9690   -0.9889 O   0  0  0  0  0  0  0  0  0  0  0  0
    5.0641    1.0517    0.1848 O   0  0  0  0  0  0  0  0  0  0  0  0
   -3.2666   -1.3279   -0.3257 C   0  0  0  0  0  0  0  0  0  0  0  0
   -2.0628   -2.2766   -0.3889 C   0  0  0  0  0  0  0  0  0  0  0  0
   -3.2067   -0.3547    0.8539 C   0  0  0  0  0  0  0  0  0  0  0  0
   -0.7523   -1.5430   -0.4758 C   0  0  0  0  0  0  0  0  0  0  0  0
   -4.3876    0.5749    0.8497 C   0  0  0  0  0  0  0  0  0  0  0  0
    1.5373   -1.0071    0.3686 C   0  0  0  0  0  0  0  0  0  0  0  0
    0.2463   -1.7133    0.4050 C   0  0  0  0  0  0  0  0  0  0  0  0
    2.8687    0.8052   -0.3508 C   0  0  0  0  0  0  0  0  0  0  0  0
    3.9505    0.2813    0.3193 C   0  0  0  0  0  0  0  0  0  0  0  0
    1.6388    0.1798   -0.3452 C   0  0  0  0  0  0  0  0  0  0  0  0
   -4.4860    1.7735    0.2443 C   0  0  0  0  0  0  0  0  0  0  0  0
    2.6277   -1.5505    1.0537 C   0  0  0  0  0  0  0  0  0  0  0  0
    3.8621   -0.8969    1.0321 C   0  0  0  0  0  0  0  0  0  0  0  0
    4.5620    2.1197   -0.6443 C   0  0  0  0  0  0  0  0  0  0  0  0
   -5.7413    2.5939    0.3735 C   0  0  0  0  0  0  0  0  0  0  0  0
   -3.4164    2.4015   -0.6041 C   0  0  0  0  0  0  0  0  0  0  0  0
  1  5  1  0
  2 11  1  0
  2 17  1  0
  3 12  1  0
  3 17  1  0
  4  5  1  0
  4  6  1  0
  5  7  1  0
  6  8  1  0
  7 10  2  0
  8 14  2  3
  9 10  1  0
  9 13  2  0
  9 15  1  0
 11 12  2  0
 11 13  1  0
 12 16  1  0
 14 18  1  0
 14 19  1  0
 15 16  2  0
M  END
>  <PUBCHEM_COMPOUND_CID>  (1) 
47970

>  <PUBCHEM_CONFORMER_RMSD>  (1) 
0.8

>  <PUBCHEM_CONFORMER_DIVERSEORDER>  (1) 
1
38
10
59
48
31
54
26
58
36
29
51
32
61
16
13
62
28
33
49
52
50
3
21
30
56
12
57
55
37
44
17
19
8
35
65
7
2
15
41
46
63
39
66
9
47
22
43
27
5
23
60
68
11
67
4
45
24
6
34
64
40
18
25
53
14
42
20

>  <PUBCHEM_MMFF94_PARTIAL_CHARGES>  (1) 
25
1 -0.68
10 -0.18
11 0.08
12 0.08
13 -0.15
14 -0.28
15 -0.15
16 -0.15
17 0.56
18 0.14
19 0.14
2 -0.36
25 0.15
26 0.15
27 0.15
28 0.15
29 0.15
3 -0.36
30 0.15
31 0.4
5 0.42
6 0.14
7 -0.29
8 -0.29
9 0.03

>  <PUBCHEM_EFFECTIVE_ROTOR_COUNT>  (1) 
5.6

>  <PUBCHEM_PHARMACOPHORE_FEATURES>  (1) 
7
1 1 acceptor
1 1 donor
1 2 acceptor
1 3 acceptor
3 14 18 19 hydrophobe
5 2 3 11 12 17 rings
6 9 11 12 13 15 16 rings

>  <PUBCHEM_HEAVY_ATOM_COUNT>  (1) 
19

>  <PUBCHEM_ATOM_DEF_STEREO_COUNT>  (1) 
0

>  <PUBCHEM_ATOM_UDEF_STEREO_COUNT>  (1) 
0

>  <PUBCHEM_BOND_DEF_STEREO_COUNT>  (1) 
0

>  <PUBCHEM_BOND_UDEF_STEREO_COUNT>  (1) 
1

>  <PUBCHEM_ISOTOPIC_ATOM_COUNT>  (1) 
0

>  <PUBCHEM_COMPONENT_COUNT>  (1) 
1

>  <PUBCHEM_CACTVS_TAUTO_COUNT>  (1) 
1

>  <PUBCHEM_CONFORMER_ID>  (1) 
0000BB6200000001

>  <PUBCHEM_MMFF94_ENERGY>  (1) 
37.1174

>  <PUBCHEM_FEATURE_SELFOVERLAP>  (1) 
35.677

>  <PUBCHEM_SHAPE_FINGERPRINT>  (1) 
10498660 4 17988928876812569153
10906281 52 17895762928393013704
11370993 144 17458347407641861243
12107183 9 18192423083083633570
12596602 18 17603303769816165195
12788726 201 18197203957621597055
12892183 10 17821739312453083939
12978246 48 18337111155525448185
13583140 156 17024576812099280495
14251764 30 11239128184238348429
14251764 38 18120940503884001473
14251764 75 18269849631498023401
14767858 380 18129361771490144653
14957384 54 18116141187041148867
15163728 17 17845104991184035823
15342168 16 18269556053450379221
15475509 8 18260562117455607876
17810953 82 18265901246355520665
17834072 32 18411421670457795377
20645477 56 17917156099579325315
20715895 44 18049439241418538913
20739085 24 17603871074713540878
21503847 285 18259988141561676986
21864079 5 18335704957161603843
23402655 69 18410855490725793262
235170 7 14117225106312936321
23559900 14 17775012245900423382
2838139 119 18116705219732900693
3057174 1 17560519478878083919
3268164 11 17560792290800028999
38570 142 17605585286545819772
474 4 17968374675426313978
5104073 3 18113891693677721402
6327066 14 18411979131643784549
633830 44 18260548944021303362
636775 72 17907017636611023432
7808743 9 18412826910563163657
90127 26 18334871514420896938

>  <PUBCHEM_SHAPE_MULTIPOLES>  (1) 
373.4
12.2
3.25
1.05
3.79
0.02
0.06
10.1
-1.68
2.37
1.02
0.06
-0.34
-1.84

>  <PUBCHEM_SHAPE_SELFOVERLAP>  (1) 
775.595

>  <PUBCHEM_SHAPE_VOLUME>  (1) 
214.1

>  <PUBCHEM_COORDINATE_TYPE>  (1) 
2
5
10

$$$$
